data_PCOD9305163
_publ_section_title
;
Structure prediction by ZEFSAII (Michael W. Deem and Ramdas Pophale) SiO2 
 PCOD9305163
Probable space group: C 2/C
;
_chemical_formula_sum "Si O2"
_cell_formula_units_Z 48
_cell_length_a 9.305743
_cell_length_b 24.599283
_cell_length_c 14.198665
_cell_angle_alpha 90.000000
_cell_angle_beta 38.994370
_cell_angle_gamma 90.000000
_cell_volume 2045.220398
_symmetry_space_group_name_H-M "C 2/C"
_symmetry_group_IT_number 15
_symmetry_cell_setting 'monoclinic'
loop_
_space_group_symop_operation_xyz
x,y,z
-x,y,1/2-z
-x,-y,-z
x,-y,1/2+z
1/2+x,1/2+y,z
1/2-x,1/2+y,1/2-z
1/2-x,1/2-y,-z
1/2+x,1/2-y,1/2+z
loop_
_atom_site_type_symbol
_atom_site_label
_atom_site_fract_x
_atom_site_fract_y
_atom_site_fract_z
Si Si1 0.739100 0.066522 0.400777
Si Si2 0.404267 0.135546 0.700355
Si Si3 0.094349 0.117127 0.613653
Si Si4 0.425246 0.969829 0.891509
Si Si5 0.385003 0.221526 0.513448
Si Si6 0.615482 0.266011 0.789556
O O1 0.567808 0.110830 0.535711
O O2 0.630202 0.044989 0.358664
O O3 0.000000 0.083939 0.250000
O O4 0.721001 0.016694 0.483457
O O5 0.500000 0.114425 0.750000
O O6 0.420273 0.200720 0.694363
O O7 0.133971 0.126200 0.829278
O O8 0.275493 0.084582 0.461725
O O9 0.225271 0.167402 0.600550
O O10 0.000000 0.082244 0.750000
O O11 0.500000 0.986357 0.750000
O O12 0.250000 0.250000 0.500000
O O13 0.429705 0.266671 0.573968
O O14 0.634534 0.209347 0.348104
O O15 0.500000 0.285073 0.750000
#
# Coordination Sequence:
#
# PCOD9305163 Si02
#       6
#     8   8   8   8   8   8
#     4  11  25  45  69 101 139 178 227 283 341 409
#     4  11  24  45  71  99 137 182 223 286 347 401
#     4  12  22  46  70  97 140 182 230 279 339 407
#     4  11  26  43  69 104 136 182 228 277 339 402
#     4  12  22  42  69 100 133 185 234 280 341 411
#     4  11  24  43  66 100 140 181 229 285 350 402
#
# _framework density 23.469353000000002
#
# number of rings (size 3 to 8) (size 9 to 14) (size 15 to 20)
#    0.000    0.667    5.000    2.000    4.667    2.000 
#    0.000    6.667    0.000    0.000    0.000    0.000 
#    0.000    0.000    0.000    0.000    0.000    0.000 
#
# Total GULP energy -133721.768944 kJ/mol
# GULP energy per Si atom -5571.740373 kJ/mol
# Density = 2.341594 g / cm^3
# Si number density = 23.469353 Si / 1000 Ang^3
#
#
#
# Elastic Constant Matrix: (Units=GPa)
#
#
# Indices 1 2 3 4 5 6 
#
# 1 124.2851 32.7852 26.5715 0.0000 7.4623 0.0000
# 2 32.7852 61.5151 50.2775 0.0000 -4.5735 0.0000
# 3 26.5715 50.2775 101.4741 0.0000 -8.1882 0.0000
# 4 0.0000 0.0000 0.0000 29.7743 0.0000 0.8984
# 5 7.4623 -4.5735 -8.1882 0.0000 44.3641 0.0000
# 6 0.0000 0.0000 0.0000 0.8984 0.0000 12.6415
#
#
#
# Elastic Compliance Matrix: (Units=1/GPa)
#
#
# Indices 1 2 3 4 5 6 
#
# 1 0.009562 -0.005156 -0.000124 0.000000 -0.002163 0.000000
# 2 -0.005156 0.030104 -0.013445 0.000000 0.001489 0.000000
# 3 -0.000124 -0.013445 0.016687 0.000000 0.001715 0.000000
# 4 0.000000 0.000000 0.000000 0.033658 0.000000 -0.002392
# 5 -0.002163 0.001489 0.001715 0.000000 0.023375 0.000000
# 6 0.000000 0.000000 0.000000 -0.002392 0.000000 0.079274
#
#
# Mechanical properties :
#
#
# Convention : Reuss Voigt Hill
#
# Bulk Modulus (GPa) = 52.90078 56.28252 54.59165
# Shear Modulus (GPa) = 21.14948 29.19867 25.17407
#
# Velocity S-wave (km/s) = 3.00518 3.53103 3.27867
# Velocity P-wave (km/s) = 5.88479 6.37633 6.13549
#
# Compressibility (1/GPa) = 0.01890331
#
# Stress axis : x y z
#
# Youngs Moduli (GPa) = 104.57553 33.21817 59.92571
#
# Poissons Ratio (x) = 0.17127 0.00742
# Poissons Ratio (y) = 0.53919 0.80572
# Poissons Ratio (z) = 0.01295 0.44663
#
# Static dielectric constant tensor:
#      x y z
#    x 1.981770 0.000000 0.132540 
#    y 0.000000 1.981770 0.000000 
#    z 0.132540 0.000000 1.997620 
# 
# From -- ./inp_files/138890.got.cif
#   From: 2010.05.17/outbox.cif.g08.bks.cpg/sg15_70_cif.got.tgz:138890.got - 2010.06.03 18:47:42.
