data_PCOD9305852
_publ_section_title
;
Structure prediction by ZEFSAII (Michael W. Deem and Ramdas Pophale) SiO2 
 PCOD9305852
Probable space group: C 2/C
;
_chemical_formula_sum "Si O2"
_cell_formula_units_Z 40
_cell_length_a 23.396162
_cell_length_b 9.975027
_cell_length_c 9.240913
_cell_angle_alpha 90.000000
_cell_angle_beta 44.617260
_cell_angle_gamma 90.000000
_cell_volume 1514.739665
_symmetry_space_group_name_H-M "C 2/C"
_symmetry_group_IT_number 15
_symmetry_cell_setting 'monoclinic'
loop_
_space_group_symop_operation_xyz
x,y,z
-x,y,1/2-z
-x,-y,-z
x,-y,1/2+z
1/2+x,1/2+y,z
1/2-x,1/2+y,1/2-z
1/2-x,1/2-y,-z
1/2+x,1/2-y,1/2+z
loop_
_atom_site_type_symbol
_atom_site_label
_atom_site_fract_x
_atom_site_fract_y
_atom_site_fract_z
Si Si1 0.764046 0.434783 0.299486
Si Si2 0.600082 0.762371 0.573230
Si Si3 0.481609 0.649549 0.428496
Si Si4 0.133133 0.077174 0.282187
Si Si5 0.834787 0.277837 0.714133
O O1 0.713762 0.415293 0.540771
O O2 0.786947 0.591171 0.253174
O O3 0.709643 0.355326 0.274877
O O4 0.851435 0.365092 0.118485
O O5 0.500000 0.771811 0.750000
O O6 0.631179 0.619798 0.452613
O O7 0.856832 0.715945 0.346393
O O8 0.500000 0.570806 0.250000
O O9 0.566825 0.683061 0.342019
O O10 0.422338 0.556854 0.632174
O O11 0.425353 0.772571 0.486619
#
# Coordination Sequence:
#
# PCOD9305852 Si02
#       5
#     8   8   8   8   8
#     4  12  31  51  84 124 177 228 290 354 430 519
#     4  12  28  53  85 124 176 226 285 360 442 511
#     4  11  24  47  85 122 172 223 291 348 426 512
#     4  11  26  48  84 127 163 228 290 356 419 515
#     4  12  30  54  84 126 172 226 288 356 429 515
#
# _framework density 26.407177999999998
#
# number of rings (size 3 to 8) (size 9 to 14) (size 15 to 20)
#    0.000    0.400    4.000    1.800   11.200    3.200 
#    0.000    0.000    0.000    0.000    0.000    0.000 
#    0.000    0.000    0.000    0.000    0.000    0.000 
#
# Total GULP energy -111468.163162 kJ/mol
# GULP energy per Si atom -5573.408158 kJ/mol
# Density = 2.634707 g / cm^3
# Si number density = 26.407178 Si / 1000 Ang^3
#
#
#
# Elastic Constant Matrix: (Units=GPa)
#
#
# Indices 1 2 3 4 5 6 
#
# 1 164.5171 63.5808 65.2678 0.0000 -11.9175 0.0000
# 2 63.5808 119.6775 64.8954 0.0000 -12.8696 0.0000
# 3 65.2678 64.8954 237.5340 0.0000 -6.6986 0.0000
# 4 0.0000 0.0000 0.0000 51.7325 0.0000 -6.2013
# 5 -11.9175 -12.8696 -6.6986 0.0000 51.1383 0.0000
# 6 0.0000 0.0000 0.0000 -6.2013 0.0000 22.0130
#
#
#
# Elastic Compliance Matrix: (Units=1/GPa)
#
#
# Indices 1 2 3 4 5 6 
#
# 1 0.007967 -0.003486 -0.001213 0.000000 0.000820 0.000000
# 2 -0.003486 0.011570 -0.002152 0.000000 0.001817 0.000000
# 3 -0.001213 -0.002152 0.005127 0.000000 -0.000153 0.000000
# 4 0.000000 0.000000 0.000000 0.020006 0.000000 0.005636
# 5 0.000820 0.001817 -0.000153 0.000000 0.020183 0.000000
# 6 0.000000 0.000000 0.000000 0.005636 0.000000 0.047015
#
#
# Mechanical properties :
#
#
# Convention : Reuss Voigt Hill
#
# Bulk Modulus (GPa) = 91.23490 101.02408 96.12949
# Shear Modulus (GPa) = 38.69236 46.84242 42.76739
#
# Velocity S-wave (km/s) = 3.83197 4.21628 4.02871
# Velocity P-wave (km/s) = 7.36227 7.87668 7.62381
#
# Compressibility (1/GPa) = 0.01096072
#
# Stress axis : x y z
#
# Youngs Moduli (GPa) = 125.52563 86.42907 195.04854
#
# Poissons Ratio (x) = 0.30131 0.23667
# Poissons Ratio (y) = 0.43760 0.41972
# Poissons Ratio (z) = 0.15231 0.18598
#
# Static dielectric constant tensor:
#      x y z
#    x 2.282270 0.000000 0.032330 
#    y 0.000000 2.196220 0.000000 
#    z 0.032330 0.000000 2.170590 
# 
# From -- ./inp_files/122348.got.cif
#   From: 2010.05.17/outbox.cif.g08.bks.cpg/sg15_62_cif.got.tgz:122348.got - 2010.06.03 18:47:42.
