data_PCOD9305804
_publ_section_title
;
Structure prediction by ZEFSAII (Michael W. Deem and Ramdas Pophale) SiO2 
 PCOD9305804
Probable space group: C 2/C
;
_chemical_formula_sum "Si O2"
_cell_formula_units_Z 44
_cell_length_a 8.859382
_cell_length_b 21.151656
_cell_length_c 10.241873
_cell_angle_alpha 90.000000
_cell_angle_beta 106.823896
_cell_angle_gamma 90.000000
_cell_volume 1837.085486
_symmetry_space_group_name_H-M "C 2/C"
_symmetry_group_IT_number 15
_symmetry_cell_setting 'monoclinic'
loop_
_space_group_symop_operation_xyz
x,y,z
-x,y,1/2-z
-x,-y,-z
x,-y,1/2+z
1/2+x,1/2+y,z
1/2-x,1/2+y,1/2-z
1/2-x,1/2-y,-z
1/2+x,1/2-y,1/2+z
loop_
_atom_site_type_symbol
_atom_site_label
_atom_site_fract_x
_atom_site_fract_y
_atom_site_fract_z
Si Si1 0.727181 0.195877 0.889824
Si Si2 0.500000 0.893397 0.250000
Si Si3 0.588915 0.916468 0.637712
Si Si4 0.334844 0.309795 0.789144
Si Si5 0.790131 0.453892 0.388674
Si Si6 0.954079 0.147600 0.594060
O O1 0.573548 0.154705 0.873423
O O2 0.706343 0.236884 0.752625
O O3 0.874208 0.149528 0.926737
O O4 0.750000 0.250000 0.000000
O O5 0.352287 0.932848 0.261897
O O6 0.500000 0.932560 0.750000
O O7 0.695420 0.854775 0.697033
O O8 0.435884 0.926146 0.507906
O O9 0.708036 0.970774 0.615040
O O10 0.500000 0.321747 0.750000
O O11 0.354747 0.320310 0.950440
O O12 0.634318 0.417717 0.394640
O O13 0.000000 0.175384 0.750000
#
# Coordination Sequence:
#
# PCOD9305804 Si02
#       6
#     8   4   8   8   8   8
#     4  12  24  46  72 103 144 193 238 299 366 431
#     4  12  22  44  72  94 148 186 236 294 366 432
#     4  11  24  47  74 103 143 191 240 301 360 436
#     4  12  26  48  73 108 149 193 245 299 370 433
#     4  11  25  46  73 107 140 189 245 298 364 430
#     4  12  26  46  72 110 149 188 246 303 358 435
#
# _framework density 23.950980999999999
#
# number of rings (size 3 to 8) (size 9 to 14) (size 15 to 20)
#    0.000    0.364    7.273    1.091    0.000    2.182 
#    3.273    1.818    0.000    0.000    0.000    0.000 
#    0.000    0.000    0.000    0.000    0.000    0.000 
#
# Total GULP energy -122533.797572 kJ/mol
# GULP energy per Si atom -5569.718071 kJ/mol
# Density = 2.389647 g / cm^3
# Si number density = 23.950981 Si / 1000 Ang^3
#
#
#
# Elastic Constant Matrix: (Units=GPa)
#
#
# Indices 1 2 3 4 5 6 
#
# 1 100.4369 60.8352 -12.3198 0.0000 9.9835 0.0000
# 2 60.8352 81.1719 8.3041 0.0000 14.0354 0.0000
# 3 -12.3198 8.3041 82.1962 0.0000 -1.2662 0.0000
# 4 0.0000 0.0000 0.0000 2.7472 0.0000 11.3288
# 5 9.9835 14.0354 -1.2662 0.0000 34.5765 0.0000
# 6 0.0000 0.0000 0.0000 11.3288 0.0000 59.3262
#
#
#
# Elastic Compliance Matrix: (Units=1/GPa)
#
#
# Indices 1 2 3 4 5 6 
#
# 1 0.019773 -0.015405 0.004531 0.000000 0.000710 0.000000
# 2 -0.015405 0.025420 -0.004970 0.000000 -0.006053 0.000000
# 3 0.004531 -0.004970 0.013366 0.000000 0.001199 0.000000
# 4 0.000000 0.000000 0.000000 1.712679 0.000000 -0.327049
# 5 0.000710 -0.006053 0.001199 0.000000 0.031217 0.000000
# 6 0.000000 0.000000 0.000000 -0.327049 0.000000 0.079309
#
#
# Mechanical properties :
#
#
# Convention : Reuss Voigt Hill
#
# Bulk Modulus (GPa) = 37.21725 41.93821 39.57773
# Shear Modulus (GPa) = 2.60090 33.12900 17.86495
#
# Velocity S-wave (km/s) = 1.04321 3.72317 2.73407
# Velocity P-wave (km/s) = 4.12598 6.00256 5.15046
#
# Compressibility (1/GPa) = 0.02686926
#
# Stress axis : x y z
#
# Youngs Moduli (GPa) = 50.57486 39.33888 74.81824
#
# Poissons Ratio (x) = 0.60602 -0.33899
# Poissons Ratio (y) = 0.77911 0.37187
# Poissons Ratio (z) = -0.22915 0.19553
#
# Static dielectric constant tensor:
#      x y z
#    x 1.954140 0.000000 -0.115440 
#    y 0.000000 1.907070 0.000000 
#    z -0.115440 0.000000 2.232900 
# 
# From -- ./inp_files/79961.got.cif
#   From: 2010.05.17/outbox.cif.g08.bks.cpg/sg15_40_cif.got.tgz:79961.got - 2010.06.03 18:47:42.
