data_PCOD9305588
_publ_section_title
;
Structure prediction by ZEFSAII (Michael W. Deem and Ramdas Pophale) SiO2 
 PCOD9305588
Probable space group: C 2/C
;
_chemical_formula_sum "Si O2"
_cell_formula_units_Z 44
_cell_length_a 25.617940
_cell_length_b 6.747101
_cell_length_c 12.758649
_cell_angle_alpha 90.000000
_cell_angle_beta 84.523347
_cell_angle_gamma 90.000000
_cell_volume 2195.225236
_symmetry_space_group_name_H-M "C 2/C"
_symmetry_group_IT_number 15
_symmetry_cell_setting 'monoclinic'
loop_
_space_group_symop_operation_xyz
x,y,z
-x,y,1/2-z
-x,-y,-z
x,-y,1/2+z
1/2+x,1/2+y,z
1/2-x,1/2+y,1/2-z
1/2-x,1/2-y,-z
1/2+x,1/2-y,1/2+z
loop_
_atom_site_type_symbol
_atom_site_label
_atom_site_fract_x
_atom_site_fract_y
_atom_site_fract_z
Si Si1 0.373360 0.995403 0.817113
Si Si2 0.540449 0.146010 0.049469
Si Si3 0.821056 0.104672 0.745798
Si Si4 0.500000 0.408615 0.250000
Si Si5 0.772599 0.759332 0.880075
Si Si6 0.410908 0.667960 0.160273
O O1 0.320212 0.105886 0.859252
O O2 0.398988 0.123113 0.718961
O O3 0.413421 0.980090 0.905310
O O4 0.358061 0.776860 0.782438
O O5 0.514429 0.271044 0.148314
O O6 0.564945 0.291295 0.957720
O O7 0.500000 0.000000 0.000000
O O8 0.774022 0.201064 0.689730
O O9 0.795843 0.971881 0.842397
O O10 0.857053 0.957001 0.670101
O O11 0.451981 0.547556 0.223783
O O12 0.750000 0.750000 0.000000
#
# Coordination Sequence:
#
# PCOD9305588 Si02
#       6
#     8   8   8   4   8   8
#     4  11  25  47  65 102 142 177 233 285 336 415
#     4  12  26  44  74 101 137 186 228 284 349 408
#     4  11  24  46  65 102 139 177 231 285 337 414
#     4  12  24  48  68 102 140 176 234 290 336 418
#     4  11  26  41  73  98 137 181 228 282 345 407
#     4  11  26  43  71  98 137 182 227 284 349 402
#
# _framework density 20.043503000000001
#
# number of rings (size 3 to 8) (size 9 to 14) (size 15 to 20)
#    0.000    0.727    3.636    2.727    5.091    0.727 
#    0.000    0.000    0.000    0.000    0.000    0.000 
#    0.000    0.000    0.000    0.000    0.000    0.000 
#
# Total GULP energy -123119.365297 kJ/mol
# GULP energy per Si atom -5596.334786 kJ/mol
# Density = 1.999788 g / cm^3
# Si number density = 20.043503 Si / 1000 Ang^3
#
#
#
# Elastic Constant Matrix: (Units=GPa)
#
#
# Indices 1 2 3 4 5 6 
#
# 1 119.9325 47.0393 43.9431 0.0000 11.9419 0.0000
# 2 47.0393 112.8332 69.4890 0.0000 -1.6500 0.0000
# 3 43.9431 69.4890 153.7010 0.0000 -23.7215 0.0000
# 4 0.0000 0.0000 0.0000 21.2338 0.0000 12.4249
# 5 11.9419 -1.6500 -23.7215 0.0000 37.8455 0.0000
# 6 0.0000 0.0000 0.0000 12.4249 0.0000 46.0370
#
#
#
# Elastic Compliance Matrix: (Units=1/GPa)
#
#
# Indices 1 2 3 4 5 6 
#
# 1 0.011004 -0.003092 -0.002552 0.000000 -0.005206 0.000000
# 2 -0.003092 0.013526 -0.005524 0.000000 -0.001897 0.000000
# 3 -0.002552 -0.005524 0.010872 0.000000 0.007379 0.000000
# 4 0.000000 0.000000 0.000000 0.055927 0.000000 -0.015094
# 5 -0.005206 -0.001897 0.007379 0.000000 0.032608 0.000000
# 6 0.000000 0.000000 0.000000 -0.015094 0.000000 0.025795
#
#
# Mechanical properties :
#
#
# Convention : Reuss Voigt Hill
#
# Bulk Modulus (GPa) = 76.53153 78.60106 77.56629
# Shear Modulus (GPa) = 28.34088 36.08961 32.21524
#
# Velocity S-wave (km/s) = 3.76436 4.24791 4.01342
# Velocity P-wave (km/s) = 7.56039 7.95990 7.76271
#
# Compressibility (1/GPa) = 0.01306651
#
# Stress axis : x y z
#
# Youngs Moduli (GPa) = 90.87450 73.93207 91.98121
#
# Poissons Ratio (x) = 0.22862 0.23470
# Poissons Ratio (y) = 0.28101 0.50809
# Poissons Ratio (z) = 0.23188 0.40839
#
# Static dielectric constant tensor:
#      x y z
#    x 1.562390 0.000000 0.023650 
#    y 0.000000 1.698980 0.000000 
#    z 0.023650 0.000000 1.655340 
# 
# From -- ./inp_files/170817.got.cif
#   From: 2010.05.17/outbox.cif.g08.bks.cpg/sg15_86_cif.got.tgz:170817.got - 2010.06.03 18:47:42.
