data_PCOD9305328
_publ_section_title
;
Structure prediction by ZEFSAII (Michael W. Deem and Ramdas Pophale) SiO2 
 PCOD9305328
Probable space group: C 2/C
;
_chemical_formula_sum "Si O2"
_cell_formula_units_Z 40
_cell_length_a 8.626340
_cell_length_b 25.545474
_cell_length_c 17.632403
_cell_angle_alpha 90.000000
_cell_angle_beta 30.477140
_cell_angle_gamma 90.000000
_cell_volume 1970.727681
_symmetry_space_group_name_H-M "C 2/C"
_symmetry_group_IT_number 15
_symmetry_cell_setting 'monoclinic'
loop_
_space_group_symop_operation_xyz
x,y,z
-x,y,1/2-z
-x,-y,-z
x,-y,1/2+z
1/2+x,1/2+y,z
1/2-x,1/2+y,1/2-z
1/2-x,1/2-y,-z
1/2+x,1/2-y,1/2+z
loop_
_atom_site_type_symbol
_atom_site_label
_atom_site_fract_x
_atom_site_fract_y
_atom_site_fract_z
Si Si1 0.652881 0.293798 0.602742
Si Si2 0.882859 0.552132 0.881295
Si Si3 0.833336 0.537347 0.138847
Si Si4 0.807870 0.113685 0.165797
Si Si5 0.856407 0.618568 0.605966
O O1 0.500000 0.279199 0.750000
O O2 0.750000 0.250000 0.500000
O O3 0.438232 0.332304 0.643556
O O4 0.946407 0.330433 0.496948
O O5 0.000000 0.536708 0.750000
O O6 0.947783 0.503529 0.909974
O O7 0.073632 0.599653 0.838085
O O8 0.546622 0.577111 0.019142
O O9 0.500000 0.516327 0.250000
O O10 0.741888 0.579768 0.238770
O O11 0.018690 0.570706 0.998528
O O12 0.500000 0.121499 0.250000
O O13 0.500000 0.627135 0.750000
#
# Coordination Sequence:
#
# PCOD9305328 Si02
#       5
#     8   8   8   8   8
#     4  11  24  50  76 103 134 182 234 296 364 421
#     4  11  26  39  62 104 140 185 233 276 328 403
#     4  12  22  45  67  90 141 189 230 273 337 406
#     4  11  25  45  69  98 145 184 225 286 343 411
#     4  11  24  44  69  98 134 178 233 282 343 421
#
# _framework density 20.297072
#
# number of rings (size 3 to 8) (size 9 to 14) (size 15 to 20)
#    0.000    0.800    6.000    1.800    5.600    5.600 
#    0.000    2.000    0.000    0.000    0.000    0.000 
#    0.000    0.000    0.000    0.000    0.000    0.000 
#
# Total GULP energy -111592.246709 kJ/mol
# GULP energy per Si atom -5579.612335 kJ/mol
# Density = 2.025087 g / cm^3
# Si number density = 20.297072 Si / 1000 Ang^3
#
#
#
# Elastic Constant Matrix: (Units=GPa)
#
#
# Indices 1 2 3 4 5 6 
#
# 1 95.4174 42.5425 85.2053 0.0004 -9.3538 0.0001
# 2 42.5425 110.9326 69.2688 0.0000 13.2004 0.0002
# 3 85.2053 69.2688 139.8175 0.0002 -4.1769 -0.0020
# 4 0.0004 0.0000 0.0002 39.7551 -0.0003 -1.1588
# 5 -9.3538 13.2004 -4.1769 -0.0003 50.7235 0.0005
# 6 0.0001 0.0002 -0.0020 -1.1588 0.0005 10.1373
#
#
#
# Elastic Compliance Matrix: (Units=1/GPa)
#
#
# Indices 1 2 3 4 5 6 
#
# 1 0.023531 -0.000779 -0.013852 0.000000 0.003401 -0.000003
# 2 -0.000779 0.013913 -0.006547 0.000000 -0.004304 -0.000001
# 3 -0.013852 -0.006547 0.018858 0.000000 0.000702 0.000004
# 4 0.000000 0.000000 0.000000 0.025238 0.000000 0.002885
# 5 0.003401 -0.004304 0.000702 0.000000 0.021520 -0.000001
# 6 -0.000003 -0.000001 0.000004 0.002885 -0.000001 0.098975
#
#
# Mechanical properties :
#
#
# Convention : Reuss Voigt Hill
#
# Bulk Modulus (GPa) = 71.70447 82.24451 76.97449
# Shear Modulus (GPa) = 20.07713 30.06657 25.07185
#
# Velocity S-wave (km/s) = 3.14851 3.85297 3.51842
# Velocity P-wave (km/s) = 6.97292 7.77189 7.38322
#
# Compressibility (1/GPa) = 0.01394613
#
# Stress axis : x y z
#
# Youngs Moduli (GPa) = 42.49796 71.87358 53.02799
#
# Poissons Ratio (x) = 0.05600 0.73454
# Poissons Ratio (y) = 0.03311 0.34716
# Poissons Ratio (z) = 0.58868 0.47053
#
# Static dielectric constant tensor:
#      x y z
#    x 1.721580 0.000000 -0.000670 
#    y 0.000000 1.725470 0.000000 
#    z -0.000670 0.000000 1.806980 
# 
# From -- ./inp_files/24593.got.cif
#   From: 2010.05.17/outbox.cif.g08.bks.cpg/sg15_13_cif.got.tgz:24593.got - 2010.06.03 18:47:42.
