data_PCOD9305138
_publ_section_title
;
Structure prediction by ZEFSAII (Michael W. Deem and Ramdas Pophale) SiO2 
 PCOD9305138
Probable space group: C 2/C
;
_chemical_formula_sum "Si O2"
_cell_formula_units_Z 48
_cell_length_a 21.035913
_cell_length_b 15.395871
_cell_length_c 10.881057
_cell_angle_alpha 90.000000
_cell_angle_beta 35.008455
_cell_angle_gamma 90.000000
_cell_volume 2021.713116
_symmetry_space_group_name_H-M "C 2/C"
_symmetry_group_IT_number 15
_symmetry_cell_setting 'monoclinic'
loop_
_space_group_symop_operation_xyz
x,y,z
-x,y,1/2-z
-x,-y,-z
x,-y,1/2+z
1/2+x,1/2+y,z
1/2-x,1/2+y,1/2-z
1/2-x,1/2-y,-z
1/2+x,1/2-y,1/2+z
loop_
_atom_site_type_symbol
_atom_site_label
_atom_site_fract_x
_atom_site_fract_y
_atom_site_fract_z
Si Si1 0.328585 0.010522 0.384426
Si Si2 0.605569 0.276894 0.492985
Si Si3 0.000000 0.636664 0.250000
Si Si4 0.000000 0.934331 0.250000
Si Si5 0.975415 0.207139 0.959555
Si Si6 0.706738 0.536819 0.832326
Si Si7 0.756813 0.666643 0.076011
O O1 0.286923 0.009717 0.307811
O O2 0.333703 0.906348 0.393994
O O3 0.428247 0.073192 0.273448
O O4 0.242389 0.027554 0.634168
O O5 0.500000 0.283742 0.750000
O O6 0.555079 0.265047 0.440478
O O7 0.682241 0.361458 0.391105
O O8 0.678911 0.194247 0.405174
O O9 0.941019 0.708090 0.433699
O O10 0.046174 0.864524 0.273209
O O11 0.910381 0.993358 0.454950
O O12 0.870593 0.155480 0.182311
O O13 0.750000 0.750000 0.000000
#
# Coordination Sequence:
#
# PCOD9305138 Si02
#       7
#     8   8   4   4   8   8   8
#     4  12  28  47  73 106 148 190 243 302 364 439
#     4  12  24  40  73 102 137 185 235 298 356 435
#     4  11  30  48  73 106 150 198 243 302 366 445
#     4  11  24  42  73 102 140 184 235 304 366 437
#     4  11  25  48  69 103 146 190 243 295 368 439
#     4  12  25  46  73 110 142 184 243 306 369 428
#     4  12  24  45  68 104 144 188 242 296 365 436
#
# _framework density 23.742241
#
# number of rings (size 3 to 8) (size 9 to 14) (size 15 to 20)
#    0.000    0.333    5.833    2.000    3.500    2.000 
#    0.000    4.167    0.000    0.000    0.000    0.000 
#    0.000    0.000    0.000    0.000    0.000    0.000 
#
# Total GULP energy -133773.078476 kJ/mol
# GULP energy per Si atom -5573.878270 kJ/mol
# Density = 2.368820 g / cm^3
# Si number density = 23.742241 Si / 1000 Ang^3
#
#
#
# Elastic Constant Matrix: (Units=GPa)
#
#
# Indices 1 2 3 4 5 6 
#
# 1 98.9806 6.8441 -10.5260 0.0000 -0.3432 0.0000
# 2 6.8441 99.9155 -0.0250 0.0000 -2.6050 0.0000
# 3 -10.5260 -0.0250 43.1401 0.0000 2.1360 0.0000
# 4 0.0000 0.0000 0.0000 32.1365 0.0000 -0.0061
# 5 -0.3432 -2.6050 2.1360 0.0000 24.7794 0.0000
# 6 0.0000 0.0000 0.0000 -0.0061 0.0000 35.2765
#
#
#
# Elastic Compliance Matrix: (Units=1/GPa)
#
#
# Indices 1 2 3 4 5 6 
#
# 1 0.010423 -0.000717 0.002550 0.000000 -0.000151 0.000000
# 2 -0.000717 0.010085 -0.000222 0.000000 0.001069 0.000000
# 3 0.002550 -0.000222 0.023904 0.000000 -0.002049 0.000000
# 4 0.000000 0.000000 0.000000 0.031117 0.000000 0.000005
# 5 -0.000151 0.001069 -0.002049 0.000000 0.040643 0.000000
# 6 0.000000 0.000000 0.000000 0.000005 0.000000 0.028347
#
#
# Mechanical properties :
#
#
# Convention : Reuss Voigt Hill
#
# Bulk Modulus (GPa) = 20.99328 26.06917 23.53122
# Shear Modulus (GPa) = 31.81134 34.82135 33.31634
#
# Velocity S-wave (km/s) = 3.66438 3.83383 3.75006
# Velocity P-wave (km/s) = 5.17349 5.53187 5.35568
#
# Compressibility (1/GPa) = 0.04763430
#
# Stress axis : x y z
#
# Youngs Moduli (GPa) = 95.93920 99.15299 41.83426
#
# Poissons Ratio (x) = 0.07112 -0.10669
# Poissons Ratio (y) = 0.06882 0.00929
# Poissons Ratio (z) = -0.24467 0.02203
#
# Static dielectric constant tensor:
#      x y z
#    x 1.967630 0.000000 0.033860 
#    y 0.000000 2.048770 0.000000 
#    z 0.033860 0.000000 1.882890 
# 
# From -- ./inp_files/112951.got.cif
#   From: 2010.05.17/outbox.cif.g08.bks.cpg/sg15_57_cif.got.tgz:112951.got - 2010.06.03 18:47:42.
