data_PCOD9305619
_publ_section_title
;
Structure prediction by ZEFSAII (Michael W. Deem and Ramdas Pophale) SiO2 
 PCOD9305619
Probable space group: C 2/C
;
_chemical_formula_sum "Si O2"
_cell_formula_units_Z 48
_cell_length_a 8.685697
_cell_length_b 14.256758
_cell_length_c 29.470132
_cell_angle_alpha 90.000000
_cell_angle_beta 141.547532
_cell_angle_gamma 90.000000
_cell_volume 2269.361972
_symmetry_space_group_name_H-M "C 2/C"
_symmetry_group_IT_number 15
_symmetry_cell_setting 'monoclinic'
loop_
_space_group_symop_operation_xyz
x,y,z
-x,y,1/2-z
-x,-y,-z
x,-y,1/2+z
1/2+x,1/2+y,z
1/2-x,1/2+y,1/2-z
1/2-x,1/2-y,-z
1/2+x,1/2-y,1/2+z
loop_
_atom_site_type_symbol
_atom_site_label
_atom_site_fract_x
_atom_site_fract_y
_atom_site_fract_z
Si Si1 0.682122 0.274308 0.081675
Si Si2 0.270390 0.554453 0.321681
Si Si3 0.986169 0.853149 0.360444
Si Si4 0.536758 0.106195 0.993514
Si Si5 0.748558 0.760746 0.219907
Si Si6 0.510340 0.590174 0.469879
O O1 0.585442 0.309225 0.107613
O O2 0.974749 0.299050 0.143936
O O3 0.643942 0.165616 0.060564
O O4 0.512817 0.325175 0.005302
O O5 0.440779 0.465470 0.351056
O O6 0.285563 0.648459 0.294920
O O7 0.309889 0.584261 0.383353
O O8 0.000000 0.515305 0.250000
O O9 0.818938 0.799212 0.285468
O O10 0.278581 0.847900 0.418695
O O11 0.736772 0.103483 0.999850
O O12 0.500000 0.000000 0.000000
O O13 0.000000 0.785144 0.250000
O O14 0.500000 0.500000 0.500000
#
# Coordination Sequence:
#
# PCOD9305619 Si02
#       6
#     8   8   8   8   8   8
#     4  12  24  44  72 103 138 187 232 296 358 435
#     4  11  24  46  69  97 141 182 237 285 358 437
#     4  12  25  46  71 105 140 187 236 298 365 434
#     4  12  24  45  66 107 146 176 239 298 352 427
#     4  11  25  45  69  98 140 187 234 295 355 434
#     4  12  24  44  74 101 134 188 234 294 355 425
#
# _framework density 21.151320999999999
#
# number of rings (size 3 to 8) (size 9 to 14) (size 15 to 20)
#    0.000    0.333    5.000    3.500    4.667    0.000 
#    0.000    1.667    0.000    0.000    0.000    0.000 
#    0.000    0.000    0.000    0.000    0.000    0.000 
#
# Total GULP energy -134004.523552 kJ/mol
# GULP energy per Si atom -5583.521815 kJ/mol
# Density = 2.110318 g / cm^3
# Si number density = 21.151321 Si / 1000 Ang^3
#
#
#
# Elastic Constant Matrix: (Units=GPa)
#
#
# Indices 1 2 3 4 5 6 
#
# 1 73.9458 23.9576 37.3018 0.0000 -10.3299 0.0000
# 2 23.9576 100.2228 49.5288 0.0000 -31.1873 0.0000
# 3 37.3018 49.5288 163.8001 0.0000 -2.2628 0.0000
# 4 0.0000 0.0000 0.0000 42.0490 0.0000 -4.1671
# 5 -10.3299 -31.1873 -2.2628 0.0000 47.1545 0.0000
# 6 0.0000 0.0000 0.0000 -4.1671 0.0000 16.5428
#
#
#
# Elastic Compliance Matrix: (Units=1/GPa)
#
#
# Indices 1 2 3 4 5 6 
#
# 1 0.015925 -0.001538 -0.003129 0.000000 0.002321 0.000000
# 2 -0.001538 0.015415 -0.004178 0.000000 0.009658 0.000000
# 3 -0.003129 -0.004178 0.008039 0.000000 -0.003063 0.000000
# 4 0.000000 0.000000 0.000000 0.024391 0.000000 0.006144
# 5 0.002321 0.009658 -0.003063 0.000000 0.027956 0.000000
# 6 0.000000 0.000000 0.000000 0.006144 0.000000 0.061997
#
#
# Mechanical properties :
#
#
# Convention : Reuss Voigt Hill
#
# Bulk Modulus (GPa) = 46.10671 62.17167 54.13919
# Shear Modulus (GPa) = 27.98909 36.29462 32.14185
#
# Velocity S-wave (km/s) = 3.64164 4.14690 3.90245
# Velocity P-wave (km/s) = 6.28712 7.23786 6.77917
#
# Compressibility (1/GPa) = 0.02168882
#
# Stress axis : x y z
#
# Youngs Moduli (GPa) = 62.79610 64.87077 124.40099
#
# Poissons Ratio (x) = 0.09976 0.38930
# Poissons Ratio (y) = 0.09657 0.51969
# Poissons Ratio (z) = 0.19651 0.27100
#
# Static dielectric constant tensor:
#      x y z
#    x 1.739190 0.000000 0.067700 
#    y 0.000000 1.771300 0.000000 
#    z 0.067700 0.000000 1.754020 
# 
# From -- ./inp_files/289112.got.cif
#   From: 2010.05.17/outbox.cif.g08.bks.cpg/sg15_145_cif.got.tgz:289112.got - 2010.06.03 18:47:42.
