data_PCOD9305075
_publ_section_title
;
Structure prediction by ZEFSAII (Michael W. Deem and Ramdas Pophale) SiO2 
 PCOD9305075
Probable space group: C 2/C
;
_chemical_formula_sum "Si O2"
_cell_formula_units_Z 56
_cell_length_a 9.436457
_cell_length_b 28.259795
_cell_length_c 11.352842
_cell_angle_alpha 90.000000
_cell_angle_beta 120.762011
_cell_angle_gamma 90.000000
_cell_volume 2601.518858
_symmetry_space_group_name_H-M "C 2/C"
_symmetry_group_IT_number 15
_symmetry_cell_setting 'monoclinic'
loop_
_space_group_symop_operation_xyz
x,y,z
-x,y,1/2-z
-x,-y,-z
x,-y,1/2+z
1/2+x,1/2+y,z
1/2-x,1/2+y,1/2-z
1/2-x,1/2-y,-z
1/2+x,1/2-y,1/2+z
loop_
_atom_site_type_symbol
_atom_site_label
_atom_site_fract_x
_atom_site_fract_y
_atom_site_fract_z
Si Si1 0.468585 0.374038 0.615312
Si Si2 0.409213 0.009684 0.089670
Si Si3 0.820410 0.081937 0.632437
Si Si4 0.673791 0.276042 0.858241
Si Si5 0.196864 0.828034 0.536035
Si Si6 0.995796 0.259173 0.623132
Si Si7 0.679447 0.910560 0.329037
O O1 0.500000 0.403374 0.750000
O O2 0.370603 0.328703 0.623123
O O3 0.638857 0.357967 0.625465
O O4 0.343876 0.390828 0.460762
O O5 0.500000 0.028011 0.250000
O O6 0.349124 0.958862 0.110656
O O7 0.265856 0.046588 0.995952
O O8 0.500000 0.000000 0.000000
O O9 0.830223 0.134262 0.580160
O O10 0.716626 0.082161 0.708118
O O11 0.000000 0.065740 0.750000
O O12 0.500000 0.253001 0.750000
O O13 0.819588 0.274005 0.826616
O O14 0.750000 0.250000 0.000000
O O15 0.080029 0.781194 0.491844
O O16 0.375329 0.804188 0.588283
O O17 0.000000 0.233697 0.750000
O O18 0.500000 0.884562 0.250000
#
# Coordination Sequence:
#
# PCOD9305075 Si02
#       7
#     8   8   8   8   8   8   8
#     4  11  24  45  67 101 145 184 247 299 358 438
#     4  11  24  48  76 106 148 190 240 298 364 445
#     4  12  25  47  75 108 147 182 244 302 361 441
#     4  11  24  42  66 100 135 183 240 297 355 426
#     4  11  25  44  67 102 142 192 237 303 365 431
#     4  11  24  42  69  96 141 189 242 298 364 430
#     4  11  25  47  72 108 143 188 241 297 368 440
#
# _framework density 21.525887000000001
#
# number of rings (size 3 to 8) (size 9 to 14) (size 15 to 20)
#    0.000    0.857    5.714    2.143    4.000    3.429 
#    0.000    0.000    0.000    0.000    0.000    0.000 
#    0.000    0.000    0.000    0.000    0.000    0.000 
#
# Total GULP energy -155985.140693 kJ/mol
# GULP energy per Si atom -5570.897882 kJ/mol
# Density = 2.147689 g / cm^3
# Si number density = 21.525887 Si / 1000 Ang^3
#
#
#
# Elastic Constant Matrix: (Units=GPa)
#
#
# Indices 1 2 3 4 5 6 
#
# 1 153.5420 25.1612 44.0313 0.0000 -3.0247 0.0000
# 2 25.1612 59.6951 34.5603 0.0000 3.6911 0.0000
# 3 44.0313 34.5603 151.5792 0.0000 7.8583 0.0000
# 4 0.0000 0.0000 0.0000 40.9907 0.0000 0.4824
# 5 -3.0247 3.6911 7.8583 0.0000 53.7454 0.0000
# 6 0.0000 0.0000 0.0000 0.4824 0.0000 8.0884
#
#
#
# Elastic Compliance Matrix: (Units=1/GPa)
#
#
# Indices 1 2 3 4 5 6 
#
# 1 0.007370 -0.002180 -0.001686 0.000000 0.000811 0.000000
# 2 -0.002180 0.019970 -0.003872 0.000000 -0.000928 0.000000
# 3 -0.001686 -0.003872 0.008022 0.000000 -0.001002 0.000000
# 4 0.000000 0.000000 0.000000 0.024413 0.000000 -0.001456
# 5 0.000811 -0.000928 -0.001002 0.000000 0.018862 0.000000
# 6 0.000000 0.000000 0.000000 -0.001456 0.000000 0.123721
#
#
# Mechanical properties :
#
#
# Convention : Reuss Voigt Hill
#
# Bulk Modulus (GPa) = 50.28827 63.59129 56.93978
# Shear Modulus (GPa) = 22.27562 37.96913 30.12238
#
# Velocity S-wave (km/s) = 3.22037 4.20442 3.74485
# Velocity P-wave (km/s) = 6.10247 7.29215 6.72367
#
# Compressibility (1/GPa) = 0.01988535
#
# Stress axis : x y z
#
# Youngs Moduli (GPa) = 135.69338 50.07582 124.66448
#
# Poissons Ratio (x) = 0.10919 0.21014
# Poissons Ratio (y) = 0.29588 0.48265
# Poissons Ratio (z) = 0.22873 0.19387
#
# Static dielectric constant tensor:
#      x y z
#    x 1.908420 0.000000 -0.031510 
#    y 0.000000 1.759760 0.000000 
#    z -0.031510 0.000000 1.969670 
# 
# From -- ./inp_files/82705.got.cif
#   From: 2010.05.17/outbox.cif.g08.bks.cpg/sg15_42_cif.got.tgz:82705.got - 2010.06.03 18:47:42.
