data_PCOD9305704
_publ_section_title
;
Structure prediction by ZEFSAII (Michael W. Deem and Ramdas Pophale) SiO2 
 PCOD9305704
Probable space group: C 2/C
;
_chemical_formula_sum "Si O2"
_cell_formula_units_Z 40
_cell_length_a 16.537878
_cell_length_b 9.268538
_cell_length_c 19.128220
_cell_angle_alpha 90.000000
_cell_angle_beta 30.603743
_cell_angle_gamma 90.000000
_cell_volume 1492.679831
_symmetry_space_group_name_H-M "C 2/C"
_symmetry_group_IT_number 15
_symmetry_cell_setting 'monoclinic'
loop_
_space_group_symop_operation_xyz
x,y,z
-x,y,1/2-z
-x,-y,-z
x,-y,1/2+z
1/2+x,1/2+y,z
1/2-x,1/2+y,1/2-z
1/2-x,1/2-y,-z
1/2+x,1/2-y,1/2+z
loop_
_atom_site_type_symbol
_atom_site_label
_atom_site_fract_x
_atom_site_fract_y
_atom_site_fract_z
Si Si1 0.822128 0.859986 0.043292
Si Si2 0.750374 0.169768 0.072526
Si Si3 0.068104 0.666998 0.344348
Si Si4 0.901218 0.902184 0.757265
Si Si5 0.242085 0.587797 0.755852
O O1 0.713543 0.720440 0.127580
O O2 0.832786 0.927212 0.113628
O O3 0.980047 0.823246 0.884699
O O4 0.758851 0.999953 0.049788
O O5 0.914612 0.241710 0.980876
O O6 0.750000 0.250000 0.000000
O O7 0.605400 0.179577 0.234539
O O8 0.080745 0.501994 0.361297
O O9 0.226764 0.742683 0.257264
O O10 0.817561 0.020705 0.770355
O O11 0.000000 0.963087 0.750000
#
# Coordination Sequence:
#
# PCOD9305704 Si02
#       5
#     8   8   8   8   8
#     4  11  26  48  74 105 150 196 248 310 376 449
#     4  11  26  47  72 106 148 191 248 311 376 448
#     4  11  25  44  75 103 144 198 244 309 370 451
#     4  12  26  46  74 106 149 194 245 313 380 440
#     4  11  24  46  75 105 145 196 250 303 375 444
#
# _framework density 26.797443000000001
#
# number of rings (size 3 to 8) (size 9 to 14) (size 15 to 20)
#    0.000    0.800    4.000    1.800    5.600    4.000 
#    7.200    0.000    0.000    0.000    0.000    0.000 
#    0.000    0.000    0.000    0.000    0.000    0.000 
#
# Total GULP energy -111748.457145 kJ/mol
# GULP energy per Si atom -5587.422857 kJ/mol
# Density = 2.673645 g / cm^3
# Si number density = 26.797443 Si / 1000 Ang^3
#
#
#
# Elastic Constant Matrix: (Units=GPa)
#
#
# Indices 1 2 3 4 5 6 
#
# 1 104.9215 5.8997 -3.0408 0.0001 26.6858 0.0000
# 2 5.8997 81.2077 -19.2397 -0.0001 -2.2314 0.0000
# 3 -3.0408 -19.2397 129.9541 -0.0002 6.3766 0.0001
# 4 0.0001 -0.0001 -0.0002 34.8897 0.0001 12.0803
# 5 26.6858 -2.2314 6.3766 0.0001 30.3686 0.0000
# 6 0.0000 0.0000 0.0001 12.0803 0.0000 34.8013
#
#
#
# Elastic Compliance Matrix: (Units=1/GPa)
#
#
# Indices 1 2 3 4 5 6 
#
# 1 0.012448 -0.001049 0.000684 0.000000 -0.011159 0.000000
# 2 -0.001049 0.012859 0.001806 0.000000 0.001487 0.000000
# 3 0.000684 0.001806 0.008085 0.000000 -0.002165 0.000000
# 4 0.000000 0.000000 0.000000 0.032577 0.000000 -0.011308
# 5 -0.011159 0.001487 -0.002165 0.000000 0.043298 0.000000
# 6 0.000000 0.000000 0.000000 -0.011308 0.000000 0.032660
#
#
# Mechanical properties :
#
#
# Convention : Reuss Voigt Hill
#
# Bulk Modulus (GPa) = 27.56856 31.48019 29.52437
# Shear Modulus (GPa) = 33.08263 42.17619 37.62941
#
# Velocity S-wave (km/s) = 3.51742 3.97153 3.75135
# Velocity P-wave (km/s) = 5.17749 5.72745 5.45940
#
# Compressibility (1/GPa) = 0.03627321
#
# Stress axis : x y z
#
# Youngs Moduli (GPa) = 80.33489 77.76575 123.69057
#
# Poissons Ratio (x) = 0.08158 -0.08454
# Poissons Ratio (y) = 0.08427 -0.22342
# Poissons Ratio (z) = -0.05491 -0.14047
#
# Static dielectric constant tensor:
#      x y z
#    x 2.315090 0.000000 -0.052430 
#    y 0.000000 2.096300 0.000000 
#    z -0.052430 0.000000 2.056520 
# 
# From -- ./inp_files/210762.got.cif
#   From: 2010.05.17/outbox.cif.g08.bks.cpg/sg15_106_cif.got.tgz:210762.got - 2010.06.03 18:47:42.
