data_PCOD9305081
_publ_section_title
;
Structure prediction by ZEFSAII (Michael W. Deem and Ramdas Pophale) SiO2 
 PCOD9305081
Probable space group: C 2/C
;
_chemical_formula_sum "Si O2"
_cell_formula_units_Z 32
_cell_length_a 28.624636
_cell_length_b 4.724478
_cell_length_c 7.920025
_cell_angle_alpha 90.000000
_cell_angle_beta 92.532393
_cell_angle_gamma 90.000000
_cell_volume 1070.030156
_symmetry_space_group_name_H-M "C 2/C"
_symmetry_group_IT_number 15
_symmetry_cell_setting 'monoclinic'
loop_
_space_group_symop_operation_xyz
x,y,z
-x,y,1/2-z
-x,-y,-z
x,-y,1/2+z
1/2+x,1/2+y,z
1/2-x,1/2+y,1/2-z
1/2-x,1/2-y,-z
1/2+x,1/2-y,1/2+z
loop_
_atom_site_type_symbol
_atom_site_label
_atom_site_fract_x
_atom_site_fract_y
_atom_site_fract_z
Si Si1 0.033303 0.815888 0.125560
Si Si2 0.102325 0.886227 0.883021
Si Si3 0.217706 0.227328 0.780831
Si Si4 0.341867 0.858288 0.410597
O O1 0.061893 0.024617 0.249282
O O2 0.000000 0.642722 0.250000
O O3 0.075434 0.691136 0.018181
O O4 0.000000 0.000000 0.000000
O O5 0.142044 0.740896 0.776619
O O6 0.120652 0.169947 0.975174
O O7 0.262383 0.415530 0.735521
O O8 0.175416 0.320876 0.646687
O O9 0.200441 0.289218 0.965736
#
# Coordination Sequence:
#
# PCOD9305081 Si02
#       4
#     8   8   8   8
#     4   8  14  29  60 106 147 190 238 292 358 439
#     4   9  19  37  64 103 146 192 240 300 368 432
#     4  12  27  48  75 106 144 198 254 315 379 447
#     4  11  24  42  67 101 144 190 248 309 370 442
#
# _framework density 29.905695999999999
#
# number of rings (size 3 to 8) (size 9 to 14) (size 15 to 20)
#    0.000    2.000    0.000    3.000    0.000    8.000 
#    0.000    0.000    0.000    0.000    0.000  325.500 
#    0.000    0.000    0.000    0.500    0.000    0.000 
#
# Total GULP energy -89300.806471 kJ/mol
# GULP energy per Si atom -5581.300404 kJ/mol
# Density = 2.983763 g / cm^3
# Si number density = 29.905696 Si / 1000 Ang^3
#
#
#
# Elastic Constant Matrix: (Units=GPa)
#
#
# Indices 1 2 3 4 5 6 
#
# 1 193.9637 56.9584 77.9714 0.0000 -35.0602 0.0000
# 2 56.9584 81.2209 29.4249 0.0000 2.5538 0.0000
# 3 77.9714 29.4249 160.6233 0.0000 -32.6581 0.0000
# 4 0.0000 0.0000 0.0000 43.6751 0.0000 -0.1059
# 5 -35.0602 2.5538 -32.6581 0.0000 113.1588 0.0000
# 6 0.0000 0.0000 0.0000 -0.1059 0.0000 29.6020
#
#
#
# Elastic Compliance Matrix: (Units=1/GPa)
#
#
# Indices 1 2 3 4 5 6 
#
# 1 0.007897 -0.004646 -0.002617 0.000000 0.001796 0.000000
# 2 -0.004646 0.016041 -0.001115 0.000000 -0.002123 0.000000
# 3 -0.002617 -0.001115 0.008011 0.000000 0.001526 0.000000
# 4 0.000000 0.000000 0.000000 0.022897 0.000000 0.000082
# 5 0.001796 -0.002123 0.001526 0.000000 0.009882 0.000000
# 6 0.000000 0.000000 0.000000 0.000082 0.000000 0.033782
#
#
# Mechanical properties :
#
#
# Convention : Reuss Voigt Hill
#
# Bulk Modulus (GPa) = 65.82268 84.94635 75.38451
# Shear Modulus (GPa) = 41.55285 55.38408 48.46847
#
# Velocity S-wave (km/s) = 3.73159 4.30811 4.03017
# Velocity P-wave (km/s) = 6.37372 7.29471 6.84971
#
# Compressibility (1/GPa) = 0.01519233
#
# Stress axis : x y z
#
# Youngs Moduli (GPa) = 126.63656 62.34016 124.83396
#
# Poissons Ratio (x) = 0.28964 0.32668
# Poissons Ratio (y) = 0.58837 0.13918
# Poissons Ratio (z) = 0.33140 0.06950
#
# Static dielectric constant tensor:
#      x y z
#    x 2.625210 0.000000 0.161450 
#    y 0.000000 2.463490 0.000000 
#    z 0.161450 0.000000 2.373040 
# 
# From -- ./inp_files/67892.got.cif
#   From: 2010.05.17/outbox.cif.g08.bks.cpg/sg15_34_cif.got.tgz:67892.got - 2010.06.03 18:47:42.
