data_PCOD9305370
_publ_section_title
;
Structure prediction by ZEFSAII (Michael W. Deem and Ramdas Pophale) SiO2 
 PCOD9305370
Probable space group: C 2/C
;
_chemical_formula_sum "Si O2"
_cell_formula_units_Z 32
_cell_length_a 6.777727
_cell_length_b 20.978913
_cell_length_c 9.004125
_cell_angle_alpha 90.000000
_cell_angle_beta 88.743346
_cell_angle_gamma 90.000000
_cell_volume 1279.982710
_symmetry_space_group_name_H-M "C 2/C"
_symmetry_group_IT_number 15
_symmetry_cell_setting 'monoclinic'
loop_
_space_group_symop_operation_xyz
x,y,z
-x,y,1/2-z
-x,-y,-z
x,-y,1/2+z
1/2+x,1/2+y,z
1/2-x,1/2+y,1/2-z
1/2-x,1/2-y,-z
1/2+x,1/2-y,1/2+z
loop_
_atom_site_type_symbol
_atom_site_label
_atom_site_fract_x
_atom_site_fract_y
_atom_site_fract_z
Si Si1 0.000000 0.425288 0.750000
Si Si2 0.000000 0.629433 0.750000
Si Si3 0.462042 0.248140 0.576331
Si Si4 0.863853 0.875429 0.898567
Si Si5 0.808007 0.970568 0.159718
O O1 0.145134 0.379759 0.836720
O O2 0.147235 0.472106 0.653982
O O3 0.995456 0.673480 0.897016
O O4 0.189390 0.584858 0.748674
O O5 0.500000 0.264325 0.750000
O O6 0.250000 0.250000 0.500000
O O7 0.583500 0.309418 0.514015
O O8 0.000000 0.883508 0.750000
O O9 0.873616 0.936156 0.007235
O O10 0.000000 0.985800 0.250000
#
# Coordination Sequence:
#
# PCOD9305370 Si02
#       5
#     4   4   8   8   8
#     4  11  26  44  68 104 138 191 240 296 352 421
#     4   9  22  42  66 104 140 185 234 290 354 433
#     4   9  20  41  68 102 143 183 230 288 349 427
#     4  11  25  45  71 105 144 184 238 295 359 420
#     4  11  24  44  72 100 140 188 239 292 353 427
#
# _framework density 25.000336000000001
#
# number of rings (size 3 to 8) (size 9 to 14) (size 15 to 20)
#    0.750    1.000    0.000    3.000    0.000   13.000 
#    2.250    0.000    0.000    0.000    0.000    0.000 
#    0.000    0.000    0.000    0.000    0.000    0.000 
#
# Total GULP energy -89097.100116 kJ/mol
# GULP energy per Si atom -5568.568757 kJ/mol
# Density = 2.494343 g / cm^3
# Si number density = 25.000336 Si / 1000 Ang^3
#
#
#
# Elastic Constant Matrix: (Units=GPa)
#
#
# Indices 1 2 3 4 5 6 
#
# 1 160.9874 87.9885 78.9200 0.0000 21.0620 0.0000
# 2 87.9885 155.2665 23.7894 0.0000 14.6697 0.0000
# 3 78.9200 23.7894 100.3269 0.0000 14.4242 0.0000
# 4 0.0000 0.0000 0.0000 50.5245 0.0000 16.8921
# 5 21.0620 14.6697 14.4242 0.0000 65.9406 0.0000
# 6 0.0000 0.0000 0.0000 16.8921 0.0000 69.0922
#
#
#
# Elastic Compliance Matrix: (Units=1/GPa)
#
#
# Indices 1 2 3 4 5 6 
#
# 1 0.015035 -0.006880 -0.010041 0.000000 -0.001075 0.000000
# 2 -0.006880 0.009922 0.003160 0.000000 -0.000701 0.000000
# 3 -0.010041 0.003160 0.017301 0.000000 -0.001280 0.000000
# 4 0.000000 0.000000 0.000000 0.021554 0.000000 -0.005270
# 5 -0.001075 -0.000701 -0.001280 0.000000 0.015945 0.000000
# 6 0.000000 0.000000 0.000000 -0.005270 0.000000 0.015762
#
#
# Mechanical properties :
#
#
# Convention : Reuss Voigt Hill
#
# Bulk Modulus (GPa) = 67.86308 88.66407 78.26357
# Shear Modulus (GPa) = 39.07721 52.17031 45.62376
#
# Velocity S-wave (km/s) = 3.95785 4.57309 4.27655
# Velocity P-wave (km/s) = 6.93469 7.96407 7.46714
#
# Compressibility (1/GPa) = 0.01473555
#
# Stress axis : x y z
#
# Youngs Moduli (GPa) = 66.51065 100.79072 57.80116
#
# Poissons Ratio (x) = 0.69347 0.58039
# Poissons Ratio (y) = 0.45761 -0.18268
# Poissons Ratio (z) = 0.66784 -0.31854
#
# Static dielectric constant tensor:
#      x y z
#    x 2.009240 0.000000 -0.131860 
#    y 0.000000 2.145590 0.000000 
#    z -0.131860 0.000000 1.926330 
# 
# From -- ./inp_files/72767.got.cif
#   From: 2010.05.17/outbox.cif.g08.bks.cpg/sg15_37_cif.got.tgz:72767.got - 2010.06.03 18:47:42.
