data_PCOD9305487
_publ_section_title
;
Structure prediction by ZEFSAII (Michael W. Deem and Ramdas Pophale) SiO2 
 PCOD9305487
Probable space group: C 2/C
;
_chemical_formula_sum "Si O2"
_cell_formula_units_Z 48
_cell_length_a 9.405043
_cell_length_b 15.322155
_cell_length_c 29.862195
_cell_angle_alpha 90.000000
_cell_angle_beta 146.173173
_cell_angle_gamma 90.000000
_cell_volume 2395.585085
_symmetry_space_group_name_H-M "C 2/C"
_symmetry_group_IT_number 15
_symmetry_cell_setting 'monoclinic'
loop_
_space_group_symop_operation_xyz
x,y,z
-x,y,1/2-z
-x,-y,-z
x,-y,1/2+z
1/2+x,1/2+y,z
1/2-x,1/2+y,1/2-z
1/2-x,1/2-y,-z
1/2+x,1/2-y,1/2+z
loop_
_atom_site_type_symbol
_atom_site_label
_atom_site_fract_x
_atom_site_fract_y
_atom_site_fract_z
Si Si1 0.552280 0.739331 0.580915
Si Si2 0.299654 0.918027 0.831617
Si Si3 0.184160 0.454656 0.084423
Si Si4 0.490607 0.757727 0.031629
Si Si5 0.808848 0.944110 0.338053
Si Si6 0.637978 0.889901 0.834133
O O1 0.653962 0.823583 0.633564
O O2 0.621067 0.740264 0.546943
O O3 0.621185 0.648145 0.621740
O O4 0.250000 0.750000 0.500000
O O5 0.435860 0.918658 0.819145
O O6 0.000000 0.928413 0.750000
O O7 0.379158 0.995204 0.886130
O O8 0.111559 0.353476 0.066019
O O9 0.483299 0.459756 0.147191
O O10 0.000000 0.500000 0.000000
O O11 0.704937 0.689538 0.103733
O O12 0.250000 0.750000 0.000000
O O13 0.500000 0.940692 0.250000
O O14 0.828821 0.029436 0.374586
O O15 0.500000 0.869377 0.750000
#
# Coordination Sequence:
#
# PCOD9305487 Si02
#       6
#     8   8   8   8   8   8
#     4  12  23  46  69 102 135 182 232 286 356 422
#     4  12  25  43  72 101 137 184 227 285 354 413
#     4  12  24  47  72 105 144 182 236 294 349 428
#     4  12  27  44  70 100 139 179 231 291 349 414
#     4  11  24  45  70 100 144 183 232 292 354 421
#     4  11  26  46  66 100 139 179 232 287 345 419
#
# _framework density 20.036859
#
# number of rings (size 3 to 8) (size 9 to 14) (size 15 to 20)
#    0.000    0.333    5.000    3.500    4.667    1.333 
#    0.000    0.000    0.000    0.000    0.000    0.000 
#    0.000    0.000    0.000    0.000    0.000    0.000 
#
# Total GULP energy -134063.756769 kJ/mol
# GULP energy per Si atom -5585.989865 kJ/mol
# Density = 1.999125 g / cm^3
# Si number density = 20.036859 Si / 1000 Ang^3
#
#
#
# Elastic Constant Matrix: (Units=GPa)
#
#
# Indices 1 2 3 4 5 6 
#
# 1 172.5227 18.8581 24.0060 0.0000 -6.8196 0.0000
# 2 18.8581 156.6676 25.2217 0.0000 -7.2598 0.0000
# 3 24.0060 25.2217 66.5143 -0.0001 -2.5297 -0.0003
# 4 0.0000 0.0000 -0.0001 33.7857 -0.0001 -10.8551
# 5 -6.8196 -7.2598 -2.5297 -0.0001 42.7064 -0.0001
# 6 0.0000 0.0000 -0.0003 -10.8551 -0.0001 25.3969
#
#
#
# Elastic Compliance Matrix: (Units=1/GPa)
#
#
# Indices 1 2 3 4 5 6 
#
# 1 0.006154 -0.000374 -0.002049 0.000000 0.000798 0.000000
# 2 -0.000374 0.006864 -0.002431 0.000000 0.000963 0.000000
# 3 -0.002049 -0.002431 0.016705 0.000000 0.000249 0.000000
# 4 0.000000 0.000000 0.000000 0.034310 0.000000 0.014665
# 5 0.000798 0.000963 0.000249 0.000000 0.023722 0.000000
# 6 0.000000 0.000000 0.000000 0.014665 0.000000 0.045643
#
#
# Mechanical properties :
#
#
# Convention : Reuss Voigt Hill
#
# Bulk Modulus (GPa) = 49.96242 59.09733 54.52987
# Shear Modulus (GPa) = 33.38296 42.21906 37.80101
#
# Velocity S-wave (km/s) = 4.08619 4.59526 4.34818
# Velocity P-wave (km/s) = 6.87401 7.59695 7.24450
#
# Compressibility (1/GPa) = 0.02001504
#
# Stress axis : x y z
#
# Youngs Moduli (GPa) = 162.50009 145.68831 59.86160
#
# Poissons Ratio (x) = 0.05448 0.12265
# Poissons Ratio (y) = 0.06076 0.14553
# Poissons Ratio (z) = 0.33294 0.35419
#
# Static dielectric constant tensor:
#      x y z
#    x 1.712710 0.000000 -0.037310 
#    y 0.000000 1.648070 0.000000 
#    z -0.037310 0.000000 1.753350 
# 
# From -- ./inp_files/289122.got.cif
#   From: 2010.05.17/outbox.cif.g08.bks.cpg/sg15_145_cif.got.tgz:289122.got - 2010.06.03 18:47:42.
