data_PCOD9305364
_publ_section_title
;
Structure prediction by ZEFSAII (Michael W. Deem and Ramdas Pophale) SiO2 
 PCOD9305364
Probable space group: C 2/C
;
_chemical_formula_sum "Si O2"
_cell_formula_units_Z 32
_cell_length_a 6.800489
_cell_length_b 7.847511
_cell_length_c 27.425608
_cell_angle_alpha 90.000000
_cell_angle_beta 109.454795
_cell_angle_gamma 90.000000
_cell_volume 1380.053991
_symmetry_space_group_name_H-M "C 2/C"
_symmetry_group_IT_number 15
_symmetry_cell_setting 'monoclinic'
loop_
_space_group_symop_operation_xyz
x,y,z
-x,y,1/2-z
-x,-y,-z
x,-y,1/2+z
1/2+x,1/2+y,z
1/2-x,1/2+y,1/2-z
1/2-x,1/2-y,-z
1/2+x,1/2-y,1/2+z
loop_
_atom_site_type_symbol
_atom_site_label
_atom_site_fract_x
_atom_site_fract_y
_atom_site_fract_z
Si Si1 0.321875 0.378605 0.963944
Si Si2 0.577387 0.496916 0.805764
Si Si3 0.469976 0.875481 0.394076
Si Si4 0.665445 0.124949 0.803857
O O1 0.428226 0.277871 0.927780
O O2 0.114596 0.482896 0.931662
O O3 0.500000 0.500000 0.000000
O O4 0.250000 0.250000 0.000000
O O5 0.500000 0.593434 0.750000
O O6 0.741900 0.572433 0.856508
O O7 0.689221 0.326933 0.794004
O O8 0.360933 0.500078 0.817418
O O9 0.586671 0.851846 0.352277
O O10 0.500000 0.064393 0.750000
#
# Coordination Sequence:
#
# PCOD9305364 Si02
#       4
#     8   8   8   8
#     4  12  30  52  78 106 146 196 266 317 364 428
#     4  11  24  44  71 110 153 194 238 293 369 464
#     4  12  26  48  79 106 148 202 237 315 380 430
#     4  11  24  44  71 110 153 194 238 293 369 464
#
# _framework density 23.187498999999999
#
# number of rings (size 3 to 8) (size 9 to 14) (size 15 to 20)
#    0.000    0.500    2.500    4.500   10.500    0.000 
#    0.000    0.000    0.000    0.000    0.000    0.000 
#    0.000    0.000    0.000    0.000    0.000    0.000 
#
# Total GULP energy -89326.237958 kJ/mol
# GULP energy per Si atom -5582.889872 kJ/mol
# Density = 2.313472 g / cm^3
# Si number density = 23.187499 Si / 1000 Ang^3
#
#
#
# Elastic Constant Matrix: (Units=GPa)
#
#
# Indices 1 2 3 4 5 6 
#
# 1 118.8392 52.4094 72.7931 0.0000 5.8522 0.0000
# 2 52.4094 98.7420 79.9820 0.0000 14.1113 0.0000
# 3 72.7931 79.9820 195.8403 0.0000 20.0925 0.0000
# 4 0.0000 0.0000 0.0000 44.7355 0.0000 -6.0212
# 5 5.8522 14.1113 20.0925 0.0000 46.5424 0.0000
# 6 0.0000 0.0000 0.0000 -6.0212 0.0000 51.3186
#
#
#
# Elastic Compliance Matrix: (Units=1/GPa)
#
#
# Indices 1 2 3 4 5 6 
#
# 1 0.011948 -0.004190 -0.002832 0.000000 0.000990 0.000000
# 2 -0.004190 0.016785 -0.005053 0.000000 -0.002381 0.000000
# 3 -0.002832 -0.005053 0.008401 0.000000 -0.001738 0.000000
# 4 0.000000 0.000000 0.000000 0.022712 0.000000 0.002665
# 5 0.000990 -0.002381 -0.001738 0.000000 0.022834 0.000000
# 6 0.000000 0.000000 0.000000 0.002665 0.000000 0.019799
#
#
# Mechanical properties :
#
#
# Convention : Reuss Voigt Hill
#
# Bulk Modulus (GPa) = 77.01562 91.53226 84.27394
# Shear Modulus (GPa) = 38.18086 42.40177 40.29132
#
# Velocity S-wave (km/s) = 4.06225 4.28091 4.17301
# Velocity P-wave (km/s) = 7.43565 7.99971 7.72283
#
# Compressibility (1/GPa) = 0.01298438
#
# Stress axis : x y z
#
# Youngs Moduli (GPa) = 83.69543 59.57819 119.03479
#
# Poissons Ratio (x) = 0.24961 0.33706
# Poissons Ratio (y) = 0.35065 0.60153
# Poissons Ratio (z) = 0.23699 0.30107
#
# Static dielectric constant tensor:
#      x y z
#    x 1.884920 0.000000 -0.047140 
#    y 0.000000 1.996920 0.000000 
#    z -0.047140 0.000000 1.888510 
# 
# From -- ./inp_files/304653.got.cif
#   From: 2010.05.17/outbox.cif.g08.bks.cpg/sg15_153_cif.got.tgz:304653.got - 2010.06.03 18:47:42.
