data_PCOD9305540
_publ_section_title
;
Structure prediction by ZEFSAII (Michael W. Deem and Ramdas Pophale) SiO2 
 PCOD9305540
Probable space group: C 2/C
;
_chemical_formula_sum "Si O2"
_cell_formula_units_Z 40
_cell_length_a 4.850755
_cell_length_b 24.264079
_cell_length_c 12.446654
_cell_angle_alpha 90.000000
_cell_angle_beta 74.136722
_cell_angle_gamma 90.000000
_cell_volume 1409.169491
_symmetry_space_group_name_H-M "C 2/C"
_symmetry_group_IT_number 15
_symmetry_cell_setting 'monoclinic'
loop_
_space_group_symop_operation_xyz
x,y,z
-x,y,1/2-z
-x,-y,-z
x,-y,1/2+z
1/2+x,1/2+y,z
1/2-x,1/2+y,1/2-z
1/2-x,1/2-y,-z
1/2+x,1/2-y,1/2+z
loop_
_atom_site_type_symbol
_atom_site_label
_atom_site_fract_x
_atom_site_fract_y
_atom_site_fract_z
Si Si1 0.714191 0.146301 0.569135
Si Si2 0.649653 0.020376 0.331612
Si Si3 0.709855 0.570835 0.545905
Si Si4 0.000000 0.377114 0.750000
Si Si5 0.903964 0.207666 0.135910
Si Si6 0.500000 0.696608 0.750000
O O1 0.923577 0.094610 0.527351
O O2 0.839073 0.192501 0.472454
O O3 0.809008 0.166362 0.678830
O O4 0.401366 0.119783 0.580755
O O5 0.500000 0.988316 0.250000
O O6 0.404287 0.040732 0.438505
O O7 0.721886 0.079993 0.276122
O O8 0.858951 0.978766 0.365832
O O9 0.843233 0.338238 0.851359
O O10 0.728163 0.265130 0.157736
O O11 0.000000 0.201785 0.250000
#
# Coordination Sequence:
#
# PCOD9305540 Si02
#       6
#     8   8   8   4   8   4
#     4  12  27  47  72 101 145 179 232 286 351 412
#     4   9  20  41  70 102 145 178 233 270 339 412
#     4  11  25  44  69 107 138 188 221 283 342 412
#     4   9  18  42  62 102 128 184 218 285 328 404
#     4  11  24  45  73  99 133 183 240 289 343 411
#     4  11  30  44  72 100 138 182 234 291 358 402
#
# _framework density 28.385511999999999
#
# number of rings (size 3 to 8) (size 9 to 14) (size 15 to 20)
#    0.600    0.800    2.000    1.800    8.400    4.000 
#    3.600    2.000    0.000    0.000    0.000    0.000 
#    0.000    0.000    0.000    0.000    0.000    0.000 
#
# Total GULP energy -111888.821876 kJ/mol
# GULP energy per Si atom -5594.441094 kJ/mol
# Density = 2.832091 g / cm^3
# Si number density = 28.385512 Si / 1000 Ang^3
#
#
#
# Elastic Constant Matrix: (Units=GPa)
#
#
# Indices 1 2 3 4 5 6 
#
# 1 138.4883 30.6257 27.9428 0.0000 -8.0320 0.0000
# 2 30.6257 132.1649 19.2041 0.0000 5.5134 0.0000
# 3 27.9428 19.2041 116.1536 0.0000 14.1599 0.0000
# 4 0.0000 0.0000 0.0000 14.7200 0.0000 25.1528
# 5 -8.0320 5.5134 14.1599 0.0000 43.3956 0.0000
# 6 0.0000 0.0000 0.0000 25.1528 0.0000 -16.0033
#
#
#
# Elastic Compliance Matrix: (Units=1/GPa)
#
#
# Indices 1 2 3 4 5 6 
#
# 1 0.008129 -0.001697 -0.001963 0.000000 0.002361 0.000000
# 2 -0.001697 0.008121 -0.000802 0.000000 -0.001084 0.000000
# 3 -0.001963 -0.000802 0.009629 0.000000 -0.003403 0.000000
# 4 0.000000 0.000000 0.000000 0.018432 0.000000 0.028970
# 5 0.002361 -0.001084 -0.003403 0.000000 0.024729 0.000000
# 6 0.000000 0.000000 0.000000 0.028970 0.000000 -0.016954
#
#
# Mechanical properties :
#
#
# Convention : Reuss Voigt Hill
#
# Bulk Modulus (GPa) = 58.97895 60.26131 59.62013
# Shear Modulus (GPa) = 75.00476 29.02473 52.01475
#
# Velocity S-wave (km/s) = 5.14597 3.20115 4.28534
# Velocity P-wave (km/s) = 7.49206 5.91091 6.74795
#
# Compressibility (1/GPa) = 0.01695520
#
# Stress axis : x y z
#
# Youngs Moduli (GPa) = 123.01574 123.13242 103.85283
#
# Poissons Ratio (x) = 0.20895 0.20384
# Poissons Ratio (y) = 0.20875 0.08332
# Poissons Ratio (z) = 0.24145 0.09879
#
# Static dielectric constant tensor:
#      x y z
#    x 2.233710 0.000000 0.025190 
#    y 0.000000 2.187830 0.000000 
#    z 0.025190 0.000000 2.384150 
# 
# From -- ./inp_files/130203.got.cif
#   From: 2010.05.17/outbox.cif.g08.bks.cpg/sg15_66_cif.got.tgz:130203.got - 2010.06.03 18:47:42.
