data_PCOD9305091
_publ_section_title
;
Structure prediction by ZEFSAII (Michael W. Deem and Ramdas Pophale) SiO2 
 PCOD9305091
Probable space group: C 2/C
;
_chemical_formula_sum "Si O2"
_cell_formula_units_Z 40
_cell_length_a 11.468015
_cell_length_b 17.071830
_cell_length_c 18.070049
_cell_angle_alpha 90.000000
_cell_angle_beta 152.498682
_cell_angle_gamma 90.000000
_cell_volume 1633.625299
_symmetry_space_group_name_H-M "C 2/C"
_symmetry_group_IT_number 15
_symmetry_cell_setting 'monoclinic'
loop_
_space_group_symop_operation_xyz
x,y,z
-x,y,1/2-z
-x,-y,-z
x,-y,1/2+z
1/2+x,1/2+y,z
1/2-x,1/2+y,1/2-z
1/2-x,1/2-y,-z
1/2+x,1/2-y,1/2+z
loop_
_atom_site_type_symbol
_atom_site_label
_atom_site_fract_x
_atom_site_fract_y
_atom_site_fract_z
Si Si1 0.988209 0.156404 0.081067
Si Si2 0.284559 0.441480 0.907267
Si Si3 0.229034 0.885922 0.437523
Si Si4 0.737912 0.058178 0.056641
Si Si5 0.372115 0.795840 0.913236
O O1 0.211337 0.121129 0.156933
O O2 0.114649 0.196941 0.222850
O O3 0.812253 0.089186 0.017038
O O4 0.864774 0.219003 0.958003
O O5 0.000000 0.472816 0.750000
O O6 0.500000 0.500000 0.000000
O O7 0.354899 0.399253 0.024523
O O8 0.401477 0.810873 0.517195
O O9 0.000000 0.881905 0.250000
O O10 0.370960 0.970695 0.504424
O O11 0.592091 0.129225 0.012429
O O12 0.000000 0.051439 0.250000
#
# Coordination Sequence:
#
# PCOD9305091 Si02
#       5
#     8   8   8   8   8
#     4  11  24  44  67 102 145 192 235 300 365 434
#     4  12  26  49  74 107 146 189 243 307 367 435
#     4  11  24  43  72 102 139 187 244 295 364 433
#     4   9  20  42  67  98 138 181 240 294 351 425
#     4  11  24  42  68 100 143 188 238 297 363 437
#
# _framework density 24.485419
#
# number of rings (size 3 to 8) (size 9 to 14) (size 15 to 20)
#    0.000    1.200    4.000    1.200    2.800    3.200 
#    0.000    1.000    0.000    0.000    0.000    0.000 
#    0.000    0.000    0.000    0.000    0.000    0.000 
#
# Total GULP energy -111753.869072 kJ/mol
# GULP energy per Si atom -5587.693454 kJ/mol
# Density = 2.442969 g / cm^3
# Si number density = 24.485419 Si / 1000 Ang^3
#
#
#
# Elastic Constant Matrix: (Units=GPa)
#
#
# Indices 1 2 3 4 5 6 
#
# 1 151.1592 26.7431 36.7573 -0.0009 -16.6837 -0.0007
# 2 26.7431 51.8849 18.0537 0.0017 -3.3744 -0.0002
# 3 36.7573 18.0537 98.6018 -0.0068 -15.9135 -0.0063
# 4 -0.0009 0.0017 -0.0068 33.4965 -0.0028 -16.6203
# 5 -16.6837 -3.3744 -15.9135 -0.0028 39.4056 -0.0027
# 6 -0.0007 -0.0002 -0.0063 -16.6203 -0.0027 26.7230
#
#
#
# Elastic Compliance Matrix: (Units=1/GPa)
#
#
# Indices 1 2 3 4 5 6 
#
# 1 0.007925 -0.003243 -0.001994 0.000000 0.002272 0.000000
# 2 -0.003243 0.021915 -0.002912 -0.000003 -0.000672 -0.000003
# 3 -0.001994 -0.002912 0.012026 0.000006 0.003763 0.000007
# 4 0.000000 -0.000003 0.000006 0.043179 0.000007 0.026855
# 5 0.002272 -0.000672 0.003763 0.000007 0.027801 0.000008
# 6 0.000000 -0.000003 0.000007 0.026855 0.000008 0.054123
#
#
# Mechanical properties :
#
#
# Convention : Reuss Voigt Hill
#
# Bulk Modulus (GPa) = 39.11268 51.63932 45.37600
# Shear Modulus (GPa) = 26.07033 34.59780 30.33407
#
# Velocity S-wave (km/s) = 3.26656 3.76306 3.52357
# Velocity P-wave (km/s) = 5.49870 6.32586 5.92673
#
# Compressibility (1/GPa) = 0.02556716
#
# Stress axis : x y z
#
# Youngs Moduli (GPa) = 126.18360 45.63164 83.15656
#
# Poissons Ratio (x) = 0.14799 0.16579
# Poissons Ratio (y) = 0.40924 0.24215
# Poissons Ratio (z) = 0.25158 0.13288
#
# Static dielectric constant tensor:
#      x y z
#    x 2.037820 0.000000 -0.017280 
#    y 0.000000 1.973690 0.000000 
#    z -0.017280 0.000000 1.887840 
# 
# From -- ./inp_files/106892.got.cif
#   From: 2010.05.17/outbox.cif.g08.bks.cpg/sg15_54_cif.got.tgz:106892.got - 2010.06.03 18:47:42.
