data_PCOD9305291
_publ_section_title
;
Structure prediction by ZEFSAII (Michael W. Deem and Ramdas Pophale) SiO2 
 PCOD9305291
Probable space group: C 2/C
;
_chemical_formula_sum "Si O2"
_cell_formula_units_Z 40
_cell_length_a 21.808581
_cell_length_b 8.612444
_cell_length_c 9.501713
_cell_angle_alpha 90.000000
_cell_angle_beta 84.713142
_cell_angle_gamma 90.000000
_cell_volume 1777.068780
_symmetry_space_group_name_H-M "C 2/C"
_symmetry_group_IT_number 15
_symmetry_cell_setting 'monoclinic'
loop_
_space_group_symop_operation_xyz
x,y,z
-x,y,1/2-z
-x,-y,-z
x,-y,1/2+z
1/2+x,1/2+y,z
1/2-x,1/2+y,1/2-z
1/2-x,1/2-y,-z
1/2+x,1/2-y,1/2+z
loop_
_atom_site_type_symbol
_atom_site_label
_atom_site_fract_x
_atom_site_fract_y
_atom_site_fract_z
Si Si1 0.956648 0.493474 0.143240
Si Si2 0.639584 0.432807 0.064295
Si Si3 0.933532 0.130791 0.203049
Si Si4 0.267304 0.074185 0.023377
Si Si5 0.164449 0.607496 0.215905
O O1 0.939981 0.316839 0.189140
O O2 0.893225 0.581746 0.168555
O O3 0.000000 0.568751 0.250000
O O4 0.000000 0.500000 0.000000
O O5 0.615468 0.565697 0.174903
O O6 0.707360 0.475156 0.995815
O O7 0.651263 0.273372 0.147460
O O8 0.590945 0.418989 0.946241
O O9 0.000000 0.074885 0.250000
O O10 0.280583 0.072146 0.187119
O O11 0.250000 0.250000 0.000000
O O12 0.323199 0.009825 0.916007
#
# Coordination Sequence:
#
# PCOD9305291 Si02
#       5
#     8   8   8   8   8
#     4  11  24  44  67  95 130 173 221 272 328 392
#     4  12  25  44  68 101 137 176 223 277 335 399
#     4  11  25  44  68  98 136 178 224 276 334 399
#     4  12  25  44  68  99 136 179 224 276 336 402
#     4  12  25  44  70  99 135 178 225 279 336 398
#
# _framework density 22.508977000000002
#
# number of rings (size 3 to 8) (size 9 to 14) (size 15 to 20)
#    0.000    0.400    0.000    9.600    0.000    7.200 
#    0.000    0.000    0.000    0.000    0.000    0.000 
#    0.000    0.000    0.000    0.000    0.000    0.000 
#
# Total GULP energy -111676.067030 kJ/mol
# GULP energy per Si atom -5583.803352 kJ/mol
# Density = 2.245775 g / cm^3
# Si number density = 22.508977 Si / 1000 Ang^3
#
#
#
# Elastic Constant Matrix: (Units=GPa)
#
#
# Indices 1 2 3 4 5 6 
#
# 1 97.7356 15.7766 31.9833 0.0000 1.8200 0.0000
# 2 15.7766 65.0844 7.3227 0.0000 -11.1399 0.0000
# 3 31.9833 7.3227 98.8493 0.0000 9.5043 0.0000
# 4 0.0000 0.0000 0.0000 25.6530 0.0000 -14.4784
# 5 1.8200 -11.1399 9.5043 0.0000 60.5225 0.0000
# 6 0.0000 0.0000 0.0000 -14.4784 0.0000 22.9084
#
#
#
# Elastic Compliance Matrix: (Units=1/GPa)
#
#
# Indices 1 2 3 4 5 6 
#
# 1 0.011824 -0.002502 -0.003616 0.000000 -0.000248 0.000000
# 2 -0.002502 0.016609 -0.000733 0.000000 0.003248 0.000000
# 3 -0.003616 -0.000733 0.011517 0.000000 -0.001835 0.000000
# 4 0.000000 0.000000 0.000000 0.060597 0.000000 0.038298
# 5 -0.000248 0.003248 -0.001835 0.000000 0.017416 0.000000
# 6 0.000000 0.000000 0.000000 0.038298 0.000000 0.067857
#
#
# Mechanical properties :
#
#
# Convention : Reuss Voigt Hill
#
# Bulk Modulus (GPa) = 38.09866 41.31496 39.70681
# Shear Modulus (GPa) = 24.00697 35.58922 29.79810
#
# Velocity S-wave (km/s) = 3.26935 3.98063 3.64240
# Velocity P-wave (km/s) = 5.58697 6.28665 5.94711
#
# Compressibility (1/GPa) = 0.02624764
#
# Stress axis : x y z
#
# Youngs Moduli (GPa) = 84.57689 60.20677 86.82625
#
# Poissons Ratio (x) = 0.15062 0.31400
# Poissons Ratio (y) = 0.21158 0.06367
# Poissons Ratio (z) = 0.30586 0.04415
#
# Static dielectric constant tensor:
#      x y z
#    x 1.772550 0.000000 0.067720 
#    y 0.000000 1.796970 0.000000 
#    z 0.067720 0.000000 2.008890 
# 
# From -- ./inp_files/59881.got.cif
#   From: 2010.05.17/outbox.cif.g08.bks.cpg/sg15_30_cif.got.tgz:59881.got - 2010.06.03 18:47:42.
