data_PCOD9305186
_publ_section_title
;
Structure prediction by ZEFSAII (Michael W. Deem and Ramdas Pophale) SiO2 
 PCOD9305186
Probable space group: C 2/C
;
_chemical_formula_sum "Si O2"
_cell_formula_units_Z 60
_cell_length_a 17.986367
_cell_length_b 20.697874
_cell_length_c 8.080554
_cell_angle_alpha 90.000000
_cell_angle_beta 44.500846
_cell_angle_gamma 90.000000
_cell_volume 2108.524502
_symmetry_space_group_name_H-M "C 2/C"
_symmetry_group_IT_number 15
_symmetry_cell_setting 'monoclinic'
loop_
_space_group_symop_operation_xyz
x,y,z
-x,y,1/2-z
-x,-y,-z
x,-y,1/2+z
1/2+x,1/2+y,z
1/2-x,1/2+y,1/2-z
1/2-x,1/2-y,-z
1/2+x,1/2-y,1/2+z
loop_
_atom_site_type_symbol
_atom_site_label
_atom_site_fract_x
_atom_site_fract_y
_atom_site_fract_z
Si Si1 0.658720 0.459879 0.824313
Si Si2 0.391217 0.003040 0.329653
Si Si3 0.876801 0.214269 0.900959
Si Si4 0.500000 0.228372 0.750000
Si Si5 0.658888 0.325481 0.679751
Si Si6 0.477237 0.884126 0.512434
Si Si7 0.838779 0.913656 0.298376
Si Si8 0.823963 0.337153 0.124915
O O1 0.777355 0.479975 0.575356
O O2 0.624978 0.400442 0.759763
O O3 0.602399 0.529277 0.891769
O O4 0.657255 0.437733 0.017143
O O5 0.500000 0.026082 0.250000
O O6 0.388870 0.062641 0.201799
O O7 0.435947 0.934015 0.198882
O O8 0.875898 0.160735 0.759124
O O9 0.000000 0.218164 0.750000
O O10 0.819876 0.192640 0.162864
O O11 0.829940 0.285992 0.964385
O O12 0.572909 0.275784 0.742229
O O13 0.561706 0.175239 0.539106
O O14 0.756323 0.321141 0.396606
O O15 0.555958 0.848405 0.513114
O O16 0.732643 0.899665 0.358805
#
# Coordination Sequence:
#
# PCOD9305186 Si02
#       8
#     8   8   8   4   8   8   8   8
#     4  11  25  49  73 111 154 210 266 321 393 478
#     4  11  24  43  68 108 159 203 256 313 392 475
#     4  11  27  50  72 115 157 201 267 332 394 477
#     4  12  26  48  78 118 156 212 266 330 402 460
#     4  11  26  49  81 111 155 208 272 325 391 477
#     4  11  25  42  66 114 155 204 256 324 390 478
#     4  11  27  47  77 108 151 205 261 329 395 462
#     4  12  24  49  77 113 158 209 264 324 404 485
#
# _framework density 28.455919999999999
#
# number of rings (size 3 to 8) (size 9 to 14) (size 15 to 20)
#    0.000    0.800    3.333    2.400    5.600    2.667 
#    3.600    1.333    0.000    0.000    0.000    0.000 
#    0.000    0.000    0.000    0.000    0.000    0.000 
#
# Total GULP energy -167546.066256 kJ/mol
# GULP energy per Si atom -5584.868875 kJ/mol
# Density = 2.839115 g / cm^3
# Si number density = 28.455920 Si / 1000 Ang^3
#
#
#
# Elastic Constant Matrix: (Units=GPa)
#
#
# Indices 1 2 3 4 5 6 
#
# 1 73.2622 51.2963 -0.4008 0.0000 6.4166 0.0000
# 2 51.2963 187.5215 1.1429 0.0000 10.0060 0.0000
# 3 -0.4008 1.1429 101.5763 0.0000 7.9890 0.0000
# 4 0.0000 0.0000 0.0000 39.0401 0.0000 23.8558
# 5 6.4166 10.0060 7.9890 0.0000 33.8417 0.0000
# 6 0.0000 0.0000 0.0000 23.8558 0.0000 45.6014
#
#
#
# Elastic Compliance Matrix: (Units=1/GPa)
#
#
# Indices 1 2 3 4 5 6 
#
# 1 0.017007 -0.004550 0.000271 0.000000 -0.001943 0.000000
# 2 -0.004550 0.006636 -0.000006 0.000000 -0.001098 0.000000
# 3 0.000271 -0.000006 0.010036 0.000000 -0.002419 0.000000
# 4 0.000000 0.000000 0.000000 0.037650 0.000000 -0.019696
# 5 -0.001943 -0.001098 -0.002419 0.000000 0.030813 0.000000
# 6 0.000000 0.000000 0.000000 -0.019696 0.000000 0.032233
#
#
# Mechanical properties :
#
#
# Convention : Reuss Voigt Hill
#
# Bulk Modulus (GPa) = 39.82681 51.82631 45.82656
# Shear Modulus (GPa) = 33.04329 44.38473 38.71401
#
# Velocity S-wave (km/s) = 3.41135 3.95368 3.69248
# Velocity P-wave (km/s) = 5.43533 6.25256 5.85821
#
# Compressibility (1/GPa) = 0.02510872
#
# Stress axis : x y z
#
# Youngs Moduli (GPa) = 58.79831 150.69170 99.63938
#
# Poissons Ratio (x) = 0.68569 -0.02702
# Poissons Ratio (y) = 0.26755 0.00063
# Poissons Ratio (z) = -0.01594 0.00095
#
# Static dielectric constant tensor:
#      x y z
#    x 2.412000 0.000000 0.029390 
#    y 0.000000 2.346190 0.000000 
#    z 0.029390 0.000000 2.400710 
# 
# From -- ./inp_files/58088.got.cif
#   From: 2010.05.17/outbox.cif.g08.bks.cpg/sg15_30_cif.got.tgz:58088.got - 2010.06.03 18:47:42.
