data_PCOD9305651
_publ_section_title
;
Structure prediction by ZEFSAII (Michael W. Deem and Ramdas Pophale) SiO2 
 PCOD9305651
Probable space group: C 2/C
;
_chemical_formula_sum "Si O2"
_cell_formula_units_Z 32
_cell_length_a 20.112822
_cell_length_b 8.923513
_cell_length_c 10.409564
_cell_angle_alpha 90.000000
_cell_angle_beta 45.101524
_cell_angle_gamma 90.000000
_cell_volume 1323.410540
_symmetry_space_group_name_H-M "C 2/C"
_symmetry_group_IT_number 15
_symmetry_cell_setting 'monoclinic'
loop_
_space_group_symop_operation_xyz
x,y,z
-x,y,1/2-z
-x,-y,-z
x,-y,1/2+z
1/2+x,1/2+y,z
1/2-x,1/2+y,1/2-z
1/2-x,1/2-y,-z
1/2+x,1/2-y,1/2+z
loop_
_atom_site_type_symbol
_atom_site_label
_atom_site_fract_x
_atom_site_fract_y
_atom_site_fract_z
Si Si1 0.187119 0.640132 0.498307
Si Si2 0.125155 0.864974 0.898961
Si Si3 0.354037 0.187395 0.375100
Si Si4 0.545560 0.308564 0.514074
O O1 0.250000 0.750000 0.500000
O O2 0.266787 0.600223 0.281844
O O3 0.153493 0.491341 0.616204
O O4 0.098637 0.708621 0.544889
O O5 0.076737 0.021731 0.001375
O O6 0.115824 0.746872 0.026253
O O7 0.065889 0.807542 0.856610
O O8 0.250000 0.250000 0.500000
O O9 0.414602 0.257660 0.178748
#
# Coordination Sequence:
#
# PCOD9305651 Si02
#       4
#     8   8   8   8
#     4  12  26  44  71 101 142 186 231 282 352 413
#     4  11  24  46  72 101 138 184 233 282 353 414
#     4  12  23  44  73 101 140 183 231 289 348 411
#     4  11  26  46  71 103 140 181 232 291 346 414
#
# _framework density 24.179949000000001
#
# number of rings (size 3 to 8) (size 9 to 14) (size 15 to 20)
#    0.000    0.500    5.000    2.250    3.500    2.000 
#    4.500    0.000    0.000    0.000    0.000    0.000 
#    0.000    0.000    0.000    0.000    0.000    0.000 
#
# Total GULP energy -89650.103700 kJ/mol
# GULP energy per Si atom -5603.131481 kJ/mol
# Density = 2.412491 g / cm^3
# Si number density = 24.179949 Si / 1000 Ang^3
#
#
#
# Elastic Constant Matrix: (Units=GPa)
#
#
# Indices 1 2 3 4 5 6 
#
# 1 163.0755 50.2806 12.5496 0.0000 -22.8858 0.0000
# 2 50.2806 148.1029 -2.5952 0.0000 0.0288 0.0000
# 3 12.5496 -2.5952 75.7970 0.0000 -11.3664 0.0000
# 4 0.0000 0.0000 0.0000 21.8197 0.0000 8.0410
# 5 -22.8858 0.0288 -11.3664 0.0000 43.8631 0.0000
# 6 0.0000 0.0000 0.0000 8.0410 0.0000 54.9303
#
#
#
# Elastic Compliance Matrix: (Units=1/GPa)
#
#
# Indices 1 2 3 4 5 6 
#
# 1 0.007503 -0.002561 -0.000773 0.000000 0.003716 0.000000
# 2 -0.002561 0.007631 0.000504 0.000000 -0.001211 0.000000
# 3 -0.000773 0.000504 0.013815 0.000000 0.003176 0.000000
# 4 0.000000 0.000000 0.000000 0.048443 0.000000 -0.007091
# 5 0.003716 -0.001211 0.003176 0.000000 0.025561 0.000000
# 6 0.000000 0.000000 0.000000 -0.007091 0.000000 0.019243
#
#
# Mechanical properties :
#
#
# Convention : Reuss Voigt Hill
#
# Bulk Modulus (GPa) = 42.94147 56.38281 49.66214
# Shear Modulus (GPa) = 36.86803 45.90531 41.38667
#
# Velocity S-wave (km/s) = 3.90902 4.36189 4.14165
# Velocity P-wave (km/s) = 6.17832 6.98117 6.59198
#
# Compressibility (1/GPa) = 0.02328751
#
# Stress axis : x y z
#
# Youngs Moduli (GPa) = 133.28212 131.04885 72.38699
#
# Poissons Ratio (x) = 0.33568 0.05593
# Poissons Ratio (y) = 0.34140 -0.03647
# Poissons Ratio (z) = 0.10299 -0.06602
#
# Static dielectric constant tensor:
#      x y z
#    x 1.921180 0.000000 0.017880 
#    y 0.000000 1.965000 0.000000 
#    z 0.017880 0.000000 1.982080 
# 
# From -- ./inp_files/102547.got.cif
#   From: 2010.05.17/outbox.cif.g08.bks.cpg/sg15_52_cif.got.tgz:102547.got - 2010.06.03 18:47:42.
