data_PCOD9305198
_publ_section_title
;
Structure prediction by ZEFSAII (Michael W. Deem and Ramdas Pophale) SiO2 
 PCOD9305198
Probable space group: C 2/C
;
_chemical_formula_sum "Si O2"
_cell_formula_units_Z 56
_cell_length_a 17.240789
_cell_length_b 6.647944
_cell_length_c 21.381067
_cell_angle_alpha 90.000000
_cell_angle_beta 73.670872
_cell_angle_gamma 90.000000
_cell_volume 2351.756648
_symmetry_space_group_name_H-M "C 2/C"
_symmetry_group_IT_number 15
_symmetry_cell_setting 'monoclinic'
loop_
_space_group_symop_operation_xyz
x,y,z
-x,y,1/2-z
-x,-y,-z
x,-y,1/2+z
1/2+x,1/2+y,z
1/2-x,1/2+y,1/2-z
1/2-x,1/2-y,-z
1/2+x,1/2-y,1/2+z
loop_
_atom_site_type_symbol
_atom_site_label
_atom_site_fract_x
_atom_site_fract_y
_atom_site_fract_z
Si Si1 0.381170 0.384216 0.057273
Si Si2 0.078494 0.311835 0.761415
Si Si3 0.724509 0.860335 0.569233
Si Si4 0.110078 0.492831 0.378127
Si Si5 0.619948 0.168492 0.655609
Si Si6 0.992380 0.857540 0.913762
Si Si7 0.289854 0.447931 0.319246
O O1 0.304195 0.527420 0.076893
O O2 0.446930 0.457179 0.093155
O O3 0.362844 0.153777 0.076566
O O4 0.422845 0.395923 0.980231
O O5 0.062807 0.402841 0.832483
O O6 0.096359 0.502695 0.712186
O O7 0.153848 0.159559 0.744576
O O8 0.000000 0.207815 0.750000
O O9 0.750000 0.750000 0.500000
O O10 0.695639 0.684294 0.621759
O O11 0.658362 0.038387 0.589345
O O12 0.194713 0.422946 0.328390
O O13 0.051309 0.326621 0.419537
O O14 0.547513 0.299812 0.642794
O O15 0.682250 0.325944 0.672608
#
# Coordination Sequence:
#
# PCOD9305198 Si02
#       7
#     8   8   8   8   8   8   8
#     4  11  25  43  69 105 136 183 232 275 350 411
#     4  11  27  47  68 103 135 177 240 288 336 415
#     4  11  24  43  69 102 142 176 231 279 337 418
#     4  12  25  46  70  96 142 182 226 290 341 410
#     4  11  25  46  70 103 137 185 230 279 355 404
#     4  11  25  43  70 101 139 180 229 282 340 417
#     4  11  26  43  70  99 135 181 229 280 347 407
#
# _framework density 23.811989000000001
#
# number of rings (size 3 to 8) (size 9 to 14) (size 15 to 20)
#    0.000    0.857    4.286    1.286    6.000    5.143 
#    0.000    0.000    0.000    0.000    0.000    0.000 
#    0.000    0.000    0.000    0.000    0.000    0.000 
#
# Total GULP energy -156607.336299 kJ/mol
# GULP energy per Si atom -5593.119154 kJ/mol
# Density = 2.375779 g / cm^3
# Si number density = 23.811989 Si / 1000 Ang^3
#
#
#
# Elastic Constant Matrix: (Units=GPa)
#
#
# Indices 1 2 3 4 5 6 
#
# 1 60.1333 7.8348 -19.4945 0.0000 -5.7257 0.0000
# 2 7.8348 88.8158 29.7037 0.0000 -8.1361 0.0000
# 3 -19.4945 29.7037 35.8050 0.0000 -3.1226 0.0000
# 4 0.0000 0.0000 0.0000 32.0758 0.0000 -3.7829
# 5 -5.7257 -8.1361 -3.1226 0.0000 30.9349 0.0000
# 6 0.0000 0.0000 0.0000 -3.7829 0.0000 33.6694
#
#
#
# Elastic Compliance Matrix: (Units=1/GPa)
#
#
# Indices 1 2 3 4 5 6 
#
# 1 0.025259 -0.009063 0.021662 0.000000 0.004478 0.000000
# 2 -0.009063 0.019082 -0.020655 0.000000 0.001256 0.000000
# 3 0.021662 -0.020655 0.057238 0.000000 0.004355 0.000000
# 4 0.000000 0.000000 0.000000 0.031595 0.000000 0.003550
# 5 0.004478 0.001256 0.004355 0.000000 0.033925 0.000000
# 6 0.000000 0.000000 0.000000 0.003550 0.000000 0.030099
#
#
# Mechanical properties :
#
#
# Convention : Reuss Voigt Hill
#
# Bulk Modulus (GPa) = 11.70035 24.53800 18.11918
# Shear Modulus (GPa) = 20.67842 30.45002 25.56422
#
# Velocity S-wave (km/s) = 2.95007 3.57987 3.28012
# Velocity P-wave (km/s) = 4.06548 5.23589 4.68736
#
# Compressibility (1/GPa) = 0.08546751
#
# Stress axis : x y z
#
# Youngs Moduli (GPa) = 39.58932 52.40666 17.47099
#
# Poissons Ratio (x) = 0.47494 -0.37845
# Poissons Ratio (y) = 0.35878 0.36086
# Poissons Ratio (z) = -0.85757 1.08244
#
# Static dielectric constant tensor:
#      x y z
#    x 1.914750 0.000000 -0.014690 
#    y 0.000000 1.882680 0.000000 
#    z -0.014690 0.000000 1.884850 
# 
# From -- ./inp_files/297732.got.cif
#   From: 2010.05.17/outbox.cif.g08.bks.cpg/sg15_149_cif.got.tgz:297732.got - 2010.06.03 18:47:42.
