data_PCOD9305748
_publ_section_title
;
Structure prediction by ZEFSAII (Michael W. Deem and Ramdas Pophale) SiO2 
 PCOD9305748
Probable space group: C 2/C
;
_chemical_formula_sum "Si O2"
_cell_formula_units_Z 40
_cell_length_a 8.561757
_cell_length_b 18.425690
_cell_length_c 11.107624
_cell_angle_alpha 90.000000
_cell_angle_beta 72.604221
_cell_angle_gamma 90.000000
_cell_volume 1672.151490
_symmetry_space_group_name_H-M "C 2/C"
_symmetry_group_IT_number 15
_symmetry_cell_setting 'monoclinic'
loop_
_space_group_symop_operation_xyz
x,y,z
-x,y,1/2-z
-x,-y,-z
x,-y,1/2+z
1/2+x,1/2+y,z
1/2-x,1/2+y,1/2-z
1/2-x,1/2-y,-z
1/2+x,1/2-y,1/2+z
loop_
_atom_site_type_symbol
_atom_site_label
_atom_site_fract_x
_atom_site_fract_y
_atom_site_fract_z
Si Si1 0.065140 0.074833 0.925534
Si Si2 0.184549 0.272906 0.700700
Si Si3 0.147097 0.517739 0.809415
Si Si4 0.214243 0.638364 0.959749
Si Si5 0.175891 0.126185 0.145535
O O1 0.202070 0.054326 0.798027
O O2 0.902184 0.112370 0.915344
O O3 0.144029 0.124206 0.011367
O O4 0.000000 0.000000 0.000000
O O5 0.180007 0.338808 0.604786
O O6 0.298218 0.210676 0.618129
O O7 0.245818 0.302827 0.813290
O O8 0.000000 0.245664 0.750000
O O9 0.110326 0.573438 0.926767
O O10 0.213222 0.442288 0.844696
O O11 0.000000 0.509135 0.750000
O O12 0.000000 0.116054 0.250000
#
# Coordination Sequence:
#
# PCOD9305748 Si02
#       5
#     8   8   8   8   8
#     4  12  22  43  72  96 130 180 223 271 332 400
#     4  11  25  44  68  98 136 174 220 280 330 391
#     4  12  26  41  66 101 135 171 224 280 327 391
#     4  11  24  47  68  95 137 179 219 271 336 398
#     4  12  23  42  69  98 133 175 224 270 336 396
#
# _framework density 23.921277
#
# number of rings (size 3 to 8) (size 9 to 14) (size 15 to 20)
#    0.000    0.400    6.000    2.400    2.800    1.600 
#    0.000    2.000    0.000    0.000    0.000    0.000 
#    0.000    0.000    0.000    0.000    0.000    0.000 
#
# Total GULP energy -112153.864627 kJ/mol
# GULP energy per Si atom -5607.693231 kJ/mol
# Density = 2.386683 g / cm^3
# Si number density = 23.921277 Si / 1000 Ang^3
#
#
#
# Elastic Constant Matrix: (Units=GPa)
#
#
# Indices 1 2 3 4 5 6 
#
# 1 87.3511 11.4783 13.9013 0.0000 24.5385 0.0000
# 2 11.4783 75.8471 10.9499 0.0000 23.6141 0.0000
# 3 13.9013 10.9499 66.3265 0.0000 9.7803 0.0000
# 4 0.0000 0.0000 0.0000 37.9448 0.0000 7.2161
# 5 24.5385 23.6141 9.7803 0.0000 54.9825 0.0000
# 6 0.0000 0.0000 0.0000 7.2161 0.0000 18.2651
#
#
#
# Elastic Compliance Matrix: (Units=1/GPa)
#
#
# Indices 1 2 3 4 5 6 
#
# 1 0.013335 0.000012 -0.001970 0.000000 -0.005606 0.000000
# 2 0.000012 0.015385 -0.001609 0.000000 -0.006326 0.000000
# 3 -0.001970 -0.001609 0.015942 0.000000 -0.001265 0.000000
# 4 0.000000 0.000000 0.000000 0.028495 0.000000 -0.011258
# 5 -0.005606 -0.006326 -0.001265 0.000000 0.023632 0.000000
# 6 0.000000 0.000000 0.000000 -0.011258 0.000000 0.059197
#
#
# Mechanical properties :
#
#
# Convention : Reuss Voigt Hill
#
# Bulk Modulus (GPa) = 26.64827 33.57596 30.11212
# Shear Modulus (GPa) = 28.46900 35.11816 31.79358
#
# Velocity S-wave (km/s) = 3.45354 3.83570 3.64963
# Velocity P-wave (km/s) = 5.20257 5.80373 5.51135
#
# Compressibility (1/GPa) = 0.03752589
#
# Stress axis : x y z
#
# Youngs Moduli (GPa) = 74.99154 64.99983 62.72690
#
# Poissons Ratio (x) = -0.00076 0.12358
# Poissons Ratio (y) = -0.00088 0.10096
# Poissons Ratio (z) = 0.14774 0.10461
#
# Static dielectric constant tensor:
#      x y z
#    x 1.865270 0.000000 -0.012180 
#    y 0.000000 1.905510 0.000000 
#    z -0.012180 0.000000 1.921650 
# 
# From -- ./inp_files/76681.got.cif
#   From: 2010.05.17/outbox.cif.g08.bks.cpg/sg15_39_cif.got.tgz:76681.got - 2010.06.03 18:47:42.
