data_PCOD9305173
_publ_section_title
;
Structure prediction by ZEFSAII (Michael W. Deem and Ramdas Pophale) SiO2 
 PCOD9305173
Probable space group: C 2/C
;
_chemical_formula_sum "Si O2"
_cell_formula_units_Z 40
_cell_length_a 29.681353
_cell_length_b 6.564403
_cell_length_c 10.795537
_cell_angle_alpha 90.000000
_cell_angle_beta 62.157932
_cell_angle_gamma 90.000000
_cell_volume 1859.912459
_symmetry_space_group_name_H-M "C 2/C"
_symmetry_group_IT_number 15
_symmetry_cell_setting 'monoclinic'
loop_
_space_group_symop_operation_xyz
x,y,z
-x,y,1/2-z
-x,-y,-z
x,-y,1/2+z
1/2+x,1/2+y,z
1/2-x,1/2+y,1/2-z
1/2-x,1/2-y,-z
1/2+x,1/2-y,1/2+z
loop_
_atom_site_type_symbol
_atom_site_label
_atom_site_fract_x
_atom_site_fract_y
_atom_site_fract_z
Si Si1 0.874318 0.922861 0.287057
Si Si2 0.939328 0.581931 0.325508
Si Si3 0.197925 0.590148 0.244926
Si Si4 0.895927 0.675480 0.650669
Si Si5 0.289689 0.645558 0.540183
O O1 0.917707 0.793203 0.297598
O O2 0.831863 0.763219 0.293292
O O3 0.897081 0.079318 0.156827
O O4 0.841950 0.062241 0.420468
O O5 0.919857 0.579210 0.494075
O O6 0.919590 0.417564 0.247784
O O7 0.000000 0.573272 0.250000
O O8 0.163168 0.391305 0.277505
O O9 0.256067 0.539945 0.138122
O O10 0.197312 0.677470 0.381943
O O11 0.250000 0.750000 0.500000
#
# Coordination Sequence:
#
# PCOD9305173 Si02
#       5
#     8   8   8   8   8
#     4  11  24  43  66  98 136 179 228 281 339 410
#     4  11  26  45  73 102 136 181 233 291 351 410
#     4  11  25  39  62  97 133 176 224 277 334 408
#     4  11  24  46  70  99 139 178 230 290 346 414
#     4  12  23  40  65  94 135 182 221 275 336 401
#
# _framework density 21.50639
#
# number of rings (size 3 to 8) (size 9 to 14) (size 15 to 20)
#    0.000    0.800    2.000    4.800    5.600    3.200 
#    0.000    0.000    0.000    0.000    0.000    0.000 
#    0.000    0.000    0.000    0.000    0.000    0.000 
#
# Total GULP energy -111706.982815 kJ/mol
# GULP energy per Si atom -5585.349141 kJ/mol
# Density = 2.145744 g / cm^3
# Si number density = 21.506390 Si / 1000 Ang^3
#
#
#
# Elastic Constant Matrix: (Units=GPa)
#
#
# Indices 1 2 3 4 5 6 
#
# 1 112.7598 25.2005 34.9397 0.0000 10.1424 0.0000
# 2 25.2005 86.0788 34.6798 0.0000 22.2325 0.0000
# 3 34.9397 34.6798 157.3964 0.0000 33.4264 0.0000
# 4 0.0000 0.0000 0.0000 276.7487 0.0000 93.0431
# 5 10.1424 22.2325 33.4264 0.0000 49.1405 0.0000
# 6 0.0000 0.0000 0.0000 93.0431 0.0000 50.7096
#
#
#
# Elastic Compliance Matrix: (Units=1/GPa)
#
#
# Indices 1 2 3 4 5 6 
#
# 1 0.009892 -0.002236 -0.001735 0.000000 0.000150 0.000000
# 2 -0.002236 0.014170 -0.001592 0.000000 -0.004866 0.000000
# 3 -0.001735 -0.001592 0.008019 0.000000 -0.004376 0.000000
# 4 0.000000 0.000000 0.000000 0.009431 0.000000 -0.017305
# 5 0.000150 -0.004866 -0.004376 0.000000 0.025497 0.000000
# 6 0.000000 0.000000 0.000000 -0.017305 0.000000 0.051471
#
#
# Mechanical properties :
#
#
# Convention : Reuss Voigt Hill
#
# Bulk Modulus (GPa) = 47.72241 60.65277 54.18759
# Shear Modulus (GPa) = 36.60536 92.74742 64.67639
#
# Velocity S-wave (km/s) = 4.13009 6.57413 5.48984
# Velocity P-wave (km/s) = 6.70683 9.26763 8.08921
#
# Compressibility (1/GPa) = 0.02095452
#
# Stress axis : x y z
#
# Youngs Moduli (GPa) = 101.08933 70.57043 124.70758
#
# Poissons Ratio (x) = 0.15778 0.21639
# Poissons Ratio (y) = 0.22601 0.19859
# Poissons Ratio (z) = 0.17541 0.11238
#
# Static dielectric constant tensor:
#      x y z
#    x 1.819870 0.000000 -0.012670 
#    y 0.000000 1.903150 0.000000 
#    z -0.012670 0.000000 1.874450 
# 
# From -- ./inp_files/120713.got.cif
#   From: 2010.05.17/outbox.cif.g08.bks.cpg/sg15_61_cif.got.tgz:120713.got - 2010.06.03 18:47:42.
