data_PCOD9305069
_publ_section_title
;
Structure prediction by ZEFSAII (Michael W. Deem and Ramdas Pophale) SiO2 
 PCOD9305069
Probable space group: C 2/C
;
_chemical_formula_sum "Si O2"
_cell_formula_units_Z 44
_cell_length_a 22.748886
_cell_length_b 7.076984
_cell_length_c 22.622024
_cell_angle_alpha 90.000000
_cell_angle_beta 152.157356
_cell_angle_gamma 90.000000
_cell_volume 1700.976946
_symmetry_space_group_name_H-M "C 2/C"
_symmetry_group_IT_number 15
_symmetry_cell_setting 'monoclinic'
loop_
_space_group_symop_operation_xyz
x,y,z
-x,y,1/2-z
-x,-y,-z
x,-y,1/2+z
1/2+x,1/2+y,z
1/2-x,1/2+y,1/2-z
1/2-x,1/2-y,-z
1/2+x,1/2-y,1/2+z
loop_
_atom_site_type_symbol
_atom_site_label
_atom_site_fract_x
_atom_site_fract_y
_atom_site_fract_z
Si Si1 0.000000 0.476355 0.750000
Si Si2 0.255559 0.928423 0.820134
Si Si3 0.583539 0.621880 0.487314
Si Si4 0.357602 0.316989 0.184955
Si Si5 0.893538 0.224579 0.409829
Si Si6 0.785003 0.008378 0.999959
O O1 0.976342 0.325020 0.783013
O O2 0.862356 0.575604 0.622678
O O3 0.156297 0.052330 0.770152
O O4 0.367577 0.078252 0.916205
O O5 0.289515 0.733440 0.881366
O O6 0.227864 0.873787 0.727906
O O7 0.476389 0.742740 0.424217
O O8 0.562600 0.425670 0.503108
O O9 0.604005 0.613127 0.436106
O O10 0.337981 0.447919 0.110080
O O11 0.244663 0.166376 0.071845
#
# Coordination Sequence:
#
# PCOD9305069 Si02
#       6
#     4   8   8   8   8   8
#     4   8  16  36  64  90 124 172 202 260 320 378
#     4  12  23  44  63  96 127 171 225 260 327 391
#     4  11  24  42  65  94 130 167 216 271 321 386
#     4   9  20  35  63  90 130 165 210 266 320 379
#     4  11  24  42  65  92 130 170 214 274 320 375
#     4   9  19  39  60  93 127 167 208 259 328 384
#
# _framework density 25.867488999999999
#
# number of rings (size 3 to 8) (size 9 to 14) (size 15 to 20)
#    1.091    0.727    3.636    0.545    2.545    0.727 
#    3.273    0.909    0.000    0.000    0.000    0.000 
#    0.000    0.000    0.000    0.000    0.000    0.000 
#
# Total GULP energy -122471.850550 kJ/mol
# GULP energy per Si atom -5566.902298 kJ/mol
# Density = 2.580861 g / cm^3
# Si number density = 25.867489 Si / 1000 Ang^3
#
#
#
# Elastic Constant Matrix: (Units=GPa)
#
#
# Indices 1 2 3 4 5 6 
#
# 1 140.5523 25.6472 7.9814 0.0000 24.3421 0.0000
# 2 25.6472 68.2992 2.9386 0.0000 -1.4488 0.0000
# 3 7.9814 2.9386 36.1019 0.0000 7.6526 0.0000
# 4 0.0000 0.0000 0.0000 11.5310 0.0000 -9.4972
# 5 24.3421 -1.4488 7.6526 0.0000 39.7545 0.0000
# 6 0.0000 0.0000 0.0000 -9.4972 0.0000 19.8370
#
#
#
# Elastic Compliance Matrix: (Units=1/GPa)
#
#
# Indices 1 2 3 4 5 6 
#
# 1 0.008680 -0.003350 -0.000515 0.000000 -0.005338 0.000000
# 2 -0.003350 0.016011 -0.001169 0.000000 0.002860 0.000000
# 3 -0.000515 -0.001169 0.029035 0.000000 -0.005317 0.000000
# 4 0.000000 0.000000 0.000000 0.143182 0.000000 0.068550
# 5 -0.005338 0.002860 -0.005317 0.000000 0.029550 0.000000
# 6 0.000000 0.000000 0.000000 0.068550 0.000000 0.083230
#
#
# Mechanical properties :
#
#
# Convention : Reuss Voigt Hill
#
# Bulk Modulus (GPa) = 22.90541 35.34307 29.12424
# Shear Modulus (GPa) = 14.95624 28.11691 21.53658
#
# Velocity S-wave (km/s) = 2.40716 3.30048 2.88856
# Velocity P-wave (km/s) = 4.07431 5.31197 4.73376
#
# Compressibility (1/GPa) = 0.04365780
#
# Stress axis : x y z
#
# Youngs Moduli (GPa) = 115.20956 62.45877 34.44081
#
# Poissons Ratio (x) = 0.20927 0.01773
# Poissons Ratio (y) = 0.38601 0.04025
# Poissons Ratio (z) = 0.05930 0.07300
#
# Static dielectric constant tensor:
#      x y z
#    x 2.088470 0.000000 0.175560 
#    y 0.000000 2.126360 0.000000 
#    z 0.175560 0.000000 2.164760 
# 
# From -- ./inp_files/179454.got.cif
#   From: 2010.05.17/outbox.cif.g08.bks.cpg/sg15_90_cif.got.tgz:179454.got - 2010.06.03 18:47:42.
