data_PCOD9305636
_publ_section_title
;
Structure prediction by ZEFSAII (Michael W. Deem and Ramdas Pophale) SiO2 
 PCOD9305636
Probable space group: C 2/C
;
_chemical_formula_sum "Si O2"
_cell_formula_units_Z 64
_cell_length_a 18.370525
_cell_length_b 29.217275
_cell_length_c 9.206954
_cell_angle_alpha 90.000000
_cell_angle_beta 140.858109
_cell_angle_gamma 90.000000
_cell_volume 3119.419971
_symmetry_space_group_name_H-M "C 2/C"
_symmetry_group_IT_number 15
_symmetry_cell_setting 'monoclinic'
loop_
_space_group_symop_operation_xyz
x,y,z
-x,y,1/2-z
-x,-y,-z
x,-y,1/2+z
1/2+x,1/2+y,z
1/2-x,1/2+y,1/2-z
1/2-x,1/2-y,-z
1/2+x,1/2-y,1/2+z
loop_
_atom_site_type_symbol
_atom_site_label
_atom_site_fract_x
_atom_site_fract_y
_atom_site_fract_z
Si Si1 0.781350 0.456144 0.256635
Si Si2 0.695374 0.786233 0.808241
Si Si3 0.231402 0.780412 0.111039
Si Si4 0.116413 0.130199 0.498975
Si Si5 0.758246 0.544489 0.063555
Si Si6 0.965913 0.334061 0.539114
Si Si7 0.000426 0.574650 0.924373
Si Si8 0.381341 0.363519 0.153044
O O1 0.715837 0.407849 0.137727
O O2 0.718434 0.498281 0.081059
O O3 0.787445 0.463752 0.438989
O O4 0.903717 0.453534 0.363221
O O5 0.683411 0.757428 0.645131
O O6 0.571326 0.800902 0.670652
O O7 0.750000 0.750000 0.000000
O O8 0.781981 0.829441 0.940201
O O9 0.147417 0.823422 0.962193
O O10 0.347687 0.805379 0.351855
O O11 0.250000 0.750000 0.000000
O O12 0.105250 0.143160 0.652114
O O13 0.000000 0.110994 0.250000
O O14 0.874073 0.562025 0.321409
O O15 0.664926 0.584730 0.932968
O O16 0.970211 0.373336 0.424382
O O17 0.000000 0.355092 0.750000
O O18 0.000000 0.568353 0.750000
O O19 0.500000 0.356367 0.250000
#
# Coordination Sequence:
#
# PCOD9305636 Si02
#       8
#     8   8   8   8   8   8   8   8
#     4  11  24  46  73  99 138 178 224 275 342 403
#     4  12  25  43  70  99 133 179 231 269 336 401
#     4  12  29  43  68 102 137 181 225 282 334 395
#     4  11  26  47  67  97 138 178 222 282 340 398
#     4  11  24  46  71 102 136 179 223 276 338 410
#     4  12  24  45  69  97 140 182 224 280 336 399
#     4  12  25  41  70 106 140 175 223 277 340 399
#     4  11  26  45  70  99 132 177 228 281 335 400
#
# _framework density 20.516635000000001
#
# number of rings (size 3 to 8) (size 9 to 14) (size 15 to 20)
#    0.000    0.500    5.000    2.250    7.000    2.500 
#    0.000    2.500    0.000    0.000    0.000    0.000 
#    0.000    0.000    0.000    0.000    0.000    0.000 
#
# Total GULP energy -178885.985103 kJ/mol
# GULP energy per Si atom -5590.187034 kJ/mol
# Density = 2.046994 g / cm^3
# Si number density = 20.516635 Si / 1000 Ang^3
#
#
#
# Elastic Constant Matrix: (Units=GPa)
#
#
# Indices 1 2 3 4 5 6 
#
# 1 70.7235 11.9902 7.0308 0.0000 -4.9506 0.0000
# 2 11.9902 83.4247 -5.6769 0.0000 -14.8469 0.0000
# 3 7.0308 -5.6769 49.5797 0.0000 -5.8337 0.0000
# 4 0.0000 0.0000 0.0000 29.0665 0.0000 -8.3989
# 5 -4.9506 -14.8469 -5.8337 0.0000 40.4278 0.0000
# 6 0.0000 0.0000 0.0000 -8.3989 0.0000 28.3183
#
#
#
# Elastic Compliance Matrix: (Units=1/GPa)
#
#
# Indices 1 2 3 4 5 6 
#
# 1 0.014778 -0.002155 -0.002261 0.000000 0.000692 0.000000
# 2 -0.002155 0.013349 0.002421 0.000000 0.004988 0.000000
# 3 -0.002261 0.002421 0.021199 0.000000 0.003671 0.000000
# 4 0.000000 0.000000 0.000000 0.037629 0.000000 0.011160
# 5 0.000692 0.004988 0.003671 0.000000 0.027182 0.000000
# 6 0.000000 0.000000 0.000000 0.011160 0.000000 0.038623
#
#
# Mechanical properties :
#
#
# Convention : Reuss Voigt Hill
#
# Bulk Modulus (GPa) = 22.05707 25.60180 23.82944
# Shear Modulus (GPa) = 29.09323 32.25477 30.67400
#
# Velocity S-wave (km/s) = 3.76976 3.96931 3.87082
# Velocity P-wave (km/s) = 5.45182 5.78903 5.62295
#
# Compressibility (1/GPa) = 0.04533693
#
# Stress axis : x y z
#
# Youngs Moduli (GPa) = 67.66785 74.91234 47.17135
#
# Poissons Ratio (x) = 0.16141 0.10665
# Poissons Ratio (y) = 0.14580 -0.11420
# Poissons Ratio (z) = 0.15299 -0.18135
#
# Static dielectric constant tensor:
#      x y z
#    x 1.606320 0.000000 0.061880 
#    y 0.000000 1.694070 0.000000 
#    z 0.061880 0.000000 1.724120 
# 
# From -- ./inp_files/52865.got.cif
#   From: 2010.05.17/outbox.cif.g08.bks.cpg/sg15_27_cif.got.tgz:52865.got - 2010.06.03 18:47:42.
