data_PCOD9305011
_publ_section_title
;
Structure prediction by ZEFSAII (Michael W. Deem and Ramdas Pophale) SiO2 
 PCOD9305011
Probable space group: C 2/C
;
_chemical_formula_sum "Si O2"
_cell_formula_units_Z 60
_cell_length_a 31.450718
_cell_length_b 5.681409
_cell_length_c 16.652683
_cell_angle_alpha 90.000000
_cell_angle_beta 67.617486
_cell_angle_gamma 90.000000
_cell_volume 2751.401566
_symmetry_space_group_name_H-M "C 2/C"
_symmetry_group_IT_number 15
_symmetry_cell_setting 'monoclinic'
loop_
_space_group_symop_operation_xyz
x,y,z
-x,y,1/2-z
-x,-y,-z
x,-y,1/2+z
1/2+x,1/2+y,z
1/2-x,1/2+y,1/2-z
1/2-x,1/2-y,-z
1/2+x,1/2-y,1/2+z
loop_
_atom_site_type_symbol
_atom_site_label
_atom_site_fract_x
_atom_site_fract_y
_atom_site_fract_z
Si Si1 0.088957 0.472119 0.766667
Si Si2 0.287075 0.948285 0.001100
Si Si3 0.829982 0.794584 0.852933
Si Si4 0.538195 0.814139 0.943562
Si Si5 0.000000 0.302480 0.250000
Si Si6 0.463103 0.520033 0.913095
Si Si7 0.879187 0.815132 0.398637
Si Si8 0.744617 0.481225 0.703708
O O1 0.130885 0.647036 0.720004
O O2 0.079870 0.427018 0.866014
O O3 0.039165 0.555077 0.768998
O O4 0.103354 0.250115 0.702877
O O5 0.277466 0.012684 0.100884
O O6 0.250000 0.750000 0.000000
O O7 0.338427 0.846470 0.957917
O O8 0.290747 0.144932 0.927801
O O9 0.804826 0.958539 0.805684
O O10 0.856554 0.931015 0.904387
O O11 0.510328 0.641875 0.903977
O O12 0.553019 0.652897 0.005794
O O13 0.500000 0.000000 0.000000
O O14 0.972211 0.137473 0.329838
O O15 0.423238 0.702474 0.922995
O O16 0.748825 0.733117 0.749729
#
# Coordination Sequence:
#
# PCOD9305011 Si02
#       8
#     8   8   8   8   4   8   8   8
#     4  11  24  42  69 102 139 184 237 302 351 429
#     4  11  24  48  79 103 141 192 245 301 368 454
#     4  11  25  47  75 103 141 190 246 301 357 442
#     4  11  24  44  65  96 146 185 227 288 372 421
#     4  12  20  42  70  94 134 186 240 284 344 422
#     4  11  24  41  66 100 135 186 237 293 353 426
#     4  11  24  44  72 104 134 181 252 295 344 430
#     4  12  28  50  76 115 153 193 242 308 391 451
#
# _framework density 21.807065999999999
#
# number of rings (size 3 to 8) (size 9 to 14) (size 15 to 20)
#    0.000    0.800    4.000    2.800    3.733    0.000 
#    7.200    0.000    0.000    0.000    0.000    0.000 
#    0.000    0.000    0.000    0.000    0.000    0.000 
#
# Total GULP energy -167521.386078 kJ/mol
# GULP energy per Si atom -5584.046203 kJ/mol
# Density = 2.175743 g / cm^3
# Si number density = 21.807066 Si / 1000 Ang^3
#
#
#
# Elastic Constant Matrix: (Units=GPa)
#
#
# Indices 1 2 3 4 5 6 
#
# 1 62.1598 -4.7119 28.1942 0.0000 -8.6887 0.0000
# 2 -4.7119 60.2446 40.4863 0.0000 -0.8715 0.0000
# 3 28.1942 40.4863 142.8176 0.0000 -14.0872 0.0000
# 4 0.0000 0.0000 0.0000 27.5166 0.0000 16.1570
# 5 -8.6887 -0.8715 -14.0872 0.0000 33.3798 0.0000
# 6 0.0000 0.0000 0.0000 16.1570 0.0000 24.6288
#
#
#
# Elastic Compliance Matrix: (Units=1/GPa)
#
#
# Indices 1 2 3 4 5 6 
#
# 1 0.019059 0.004770 -0.004813 0.000000 0.003054 0.000000
# 2 0.004770 0.021828 -0.007253 0.000000 -0.001249 0.000000
# 3 -0.004813 -0.007253 0.010294 0.000000 0.002902 0.000000
# 4 0.000000 0.000000 0.000000 0.059111 0.000000 -0.038778
# 5 0.003054 -0.001249 0.002902 0.000000 0.031945 0.000000
# 6 0.000000 0.000000 0.000000 -0.038778 0.000000 0.066042
#
#
# Mechanical properties :
#
#
# Convention : Reuss Voigt Hill
#
# Bulk Modulus (GPa) = 27.33076 43.68436 35.50756
# Shear Modulus (GPa) = 21.27027 30.52193 25.89610
#
# Velocity S-wave (km/s) = 3.12650 3.74523 3.44976
# Velocity P-wave (km/s) = 5.05901 6.22720 5.67325
#
# Compressibility (1/GPa) = 0.03658881
#
# Stress axis : x y z
#
# Youngs Moduli (GPa) = 52.46781 45.81273 97.13963
#
# Poissons Ratio (x) = -0.21851 0.46757
# Poissons Ratio (y) = -0.25025 0.70452
# Poissons Ratio (z) = 0.25255 0.33227
#
# Static dielectric constant tensor:
#      x y z
#    x 1.791500 0.000000 0.015030 
#    y 0.000000 1.876780 0.000000 
#    z 0.015030 0.000000 1.779510 
# 
# From -- ./inp_files/223876.got.cif
#   From: 2010.05.17/outbox.cif.g08.bks.cpg/sg15_112_cif.got.tgz:223876.got - 2010.06.03 18:47:42.
