data_PCOD9305930
_publ_section_title
;
Structure prediction by ZEFSAII (Michael W. Deem and Ramdas Pophale) SiO2 
 PCOD9305930
Probable space group: C 2/C
;
_chemical_formula_sum "Si O2"
_cell_formula_units_Z 48
_cell_length_a 8.612071
_cell_length_b 21.984708
_cell_length_c 10.120393
_cell_angle_alpha 90.000000
_cell_angle_beta 70.280591
_cell_angle_gamma 90.000000
_cell_volume 1803.763997
_symmetry_space_group_name_H-M "C 2/C"
_symmetry_group_IT_number 15
_symmetry_cell_setting 'monoclinic'
loop_
_space_group_symop_operation_xyz
x,y,z
-x,y,1/2-z
-x,-y,-z
x,-y,1/2+z
1/2+x,1/2+y,z
1/2-x,1/2+y,1/2-z
1/2-x,1/2-y,-z
1/2+x,1/2-y,1/2+z
loop_
_atom_site_type_symbol
_atom_site_label
_atom_site_fract_x
_atom_site_fract_y
_atom_site_fract_z
Si Si1 0.635223 0.227639 0.817439
Si Si2 0.806577 0.937515 0.473164
Si Si3 0.019791 0.659575 0.095896
Si Si4 0.640944 0.638408 0.872064
Si Si5 0.664539 0.354028 0.663138
Si Si6 0.188876 0.518215 0.730270
O O1 0.500000 0.204705 0.750000
O O2 0.801925 0.189578 0.746400
O O3 0.663072 0.296646 0.763492
O O4 0.559427 0.213273 0.981734
O O5 0.667753 0.887028 0.537181
O O6 0.717134 0.912629 0.175794
O O7 0.747099 0.978323 0.365952
O O8 0.807155 0.977550 0.604988
O O9 0.850099 0.622801 0.116701
O O10 0.000000 0.681666 0.250000
O O11 0.474160 0.599805 0.901044
O O12 0.641219 0.665859 0.018653
O O13 0.500000 0.390644 0.750000
O O14 0.000000 0.500904 0.750000
#
# Coordination Sequence:
#
# PCOD9305930 Si02
#       6
#     8   8   8   8   8   8
#     4  11  24  48  82 108 152 212 264 318 393 467
#     4  12  28  50  79 118 159 207 261 329 394 468
#     4  12  26  49  73 113 160 198 264 322 396 456
#     4  12  24  47  78 113 153 199 270 321 387 464
#     4  11  26  46  79 113 150 208 261 319 386 469
#     4  12  26  48  78 112 158 213 262 320 396 468
#
# _framework density 26.61102
#
# number of rings (size 3 to 8) (size 9 to 14) (size 15 to 20)
#    0.000    0.333    3.333    5.000    2.333    3.333 
#    3.000    0.000    0.000    0.000    0.000    0.000 
#    0.000    0.000    0.000    0.000    0.000    0.000 
#
# Total GULP energy -134519.545287 kJ/mol
# GULP energy per Si atom -5604.981054 kJ/mol
# Density = 2.655045 g / cm^3
# Si number density = 26.611020 Si / 1000 Ang^3
#
#
#
# Elastic Constant Matrix: (Units=GPa)
#
#
# Indices 1 2 3 4 5 6 
#
# 1 163.3650 27.8537 43.1335 0.0000 -16.1225 0.0000
# 2 27.8537 73.1347 27.4600 0.0000 9.8298 0.0000
# 3 43.1335 27.4600 221.6006 0.0000 17.3075 0.0000
# 4 0.0000 0.0000 0.0000 39.7730 0.0000 -4.2780
# 5 -16.1225 9.8298 17.3075 0.0000 43.6703 0.0000
# 6 0.0000 0.0000 0.0000 -4.2780 0.0000 44.1432
#
#
#
# Elastic Compliance Matrix: (Units=1/GPa)
#
#
# Indices 1 2 3 4 5 6 
#
# 1 0.007350 -0.002801 -0.001388 0.000000 0.003894 0.000000
# 2 -0.002801 0.015701 -0.001077 0.000000 -0.004142 0.000000
# 3 -0.001388 -0.001077 0.005095 0.000000 -0.002289 0.000000
# 4 0.000000 0.000000 0.000000 0.025407 0.000000 0.002462
# 5 0.003894 -0.004142 -0.002289 0.000000 0.026176 0.000000
# 6 0.000000 0.000000 0.000000 0.002462 0.000000 0.022892
#
#
# Mechanical properties :
#
#
# Convention : Reuss Voigt Hill
#
# Bulk Modulus (GPa) = 56.77289 72.77720 64.77505
# Shear Modulus (GPa) = 42.00812 49.49417 45.75114
#
# Velocity S-wave (km/s) = 3.97747 4.31735 4.15089
# Velocity P-wave (km/s) = 6.51723 7.22915 6.88240
#
# Compressibility (1/GPa) = 0.01761404
#
# Stress axis : x y z
#
# Youngs Moduli (GPa) = 136.06272 63.68867 196.27373
#
# Poissons Ratio (x) = 0.17842 0.27233
# Poissons Ratio (y) = 0.38118 0.21137
# Poissons Ratio (z) = 0.18879 0.06859
#
# Static dielectric constant tensor:
#      x y z
#    x 2.165080 0.000000 0.026200 
#    y 0.000000 2.059040 0.000000 
#    z 0.026200 0.000000 2.081230 
# 
# From -- ./inp_files/34773.got.cif
#   From: 2010.05.17/outbox.cif.g08.bks.cpg/sg15_18_cif.got.tgz:34773.got - 2010.06.03 18:47:42.
