data_PCOD9305209
_publ_section_title
;
Structure prediction by ZEFSAII (Michael W. Deem and Ramdas Pophale) SiO2 
 PCOD9305209
Probable space group: C 2/C
;
_chemical_formula_sum "Si O2"
_cell_formula_units_Z 44
_cell_length_a 13.488740
_cell_length_b 22.604580
_cell_length_c 5.056861
_cell_angle_alpha 90.000000
_cell_angle_beta 101.018927
_cell_angle_gamma 90.000000
_cell_volume 1513.448012
_symmetry_space_group_name_H-M "C 2/C"
_symmetry_group_IT_number 15
_symmetry_cell_setting 'monoclinic'
loop_
_space_group_symop_operation_xyz
x,y,z
-x,y,1/2-z
-x,-y,-z
x,-y,1/2+z
1/2+x,1/2+y,z
1/2-x,1/2+y,1/2-z
1/2-x,1/2-y,-z
1/2+x,1/2-y,1/2+z
loop_
_atom_site_type_symbol
_atom_site_label
_atom_site_fract_x
_atom_site_fract_y
_atom_site_fract_z
Si Si1 0.836723 0.872099 0.531108
Si Si2 0.658238 0.252510 0.669216
Si Si3 0.500000 0.319240 0.250000
Si Si4 0.389047 0.871877 0.081701
Si Si5 0.621628 0.464541 0.521900
Si Si6 0.362761 0.037461 0.154979
O O1 0.814452 0.806562 0.626867
O O2 0.913144 0.859646 0.333416
O O3 0.725058 0.896998 0.400903
O O4 0.892190 0.907788 0.794611
O O5 0.750000 0.250000 0.500000
O O6 0.557575 0.275855 0.476189
O O7 0.627068 0.194395 0.815623
O O8 0.500000 0.887695 0.250000
O O9 0.390737 0.896800 0.778360
O O10 0.592538 0.481226 0.205619
O O11 0.742587 0.463559 0.575066
O O12 0.396373 0.008111 0.900154
#
# Coordination Sequence:
#
# PCOD9305209 Si02
#       6
#     8   8   4   8   8   8
#     4  11  25  46  72 105 148 192 245 304 380 434
#     4  12  27  46  74 106 145 185 245 303 371 443
#     4  12  26  48  74 100 148 190 238 308 376 444
#     4  11  24  43  70 106 142 189 246 296 360 444
#     4   9  20  39  71 104 144 192 250 305 364 444
#     4   9  20  41  65 100 144 191 238 299 368 435
#
# _framework density 29.072686000000001
#
# number of rings (size 3 to 8) (size 9 to 14) (size 15 to 20)
#    0.000    1.455    1.818    2.182    5.091    5.091 
#    0.000    0.909    0.000    0.000    0.000    0.000 
#    0.000    0.000    0.000    0.000    0.000    0.000 
#
# Total GULP energy -123081.639676 kJ/mol
# GULP energy per Si atom -5594.619985 kJ/mol
# Density = 2.900652 g / cm^3
# Si number density = 29.072686 Si / 1000 Ang^3
#
#
#
# Elastic Constant Matrix: (Units=GPa)
#
#
# Indices 1 2 3 4 5 6 
#
# 1 174.9937 -19.8187 13.8092 0.0000 -2.4079 0.0000
# 2 -19.8187 178.9221 48.5476 0.0000 -33.2259 0.0000
# 3 13.8092 48.5476 173.0532 0.0000 -18.3834 0.0000
# 4 0.0000 0.0000 0.0000 37.6685 0.0000 -4.8407
# 5 -2.4079 -33.2259 -18.3834 0.0000 51.8887 0.0000
# 6 0.0000 0.0000 0.0000 -4.8407 0.0000 24.1651
#
#
#
# Elastic Compliance Matrix: (Units=1/GPa)
#
#
# Indices 1 2 3 4 5 6 
#
# 1 0.005884 0.000953 -0.000668 0.000000 0.000647 0.000000
# 2 0.000953 0.006842 -0.001585 0.000000 0.003864 0.000000
# 3 -0.000668 -0.001585 0.006407 0.000000 0.001224 0.000000
# 4 0.000000 0.000000 0.000000 0.027249 0.000000 0.005458
# 5 0.000647 0.003864 0.001224 0.000000 0.022210 0.000000
# 6 0.000000 0.000000 0.000000 0.005458 0.000000 0.042475
#
#
# Mechanical properties :
#
#
# Convention : Reuss Voigt Hill
#
# Bulk Modulus (GPa) = 60.48678 68.00502 64.24590
# Shear Modulus (GPa) = 41.95402 55.03986 48.49694
#
# Velocity S-wave (km/s) = 3.80290 4.35579 4.08870
# Velocity P-wave (km/s) = 6.33508 6.98136 6.66606
#
# Compressibility (1/GPa) = 0.01653254
#
# Stress axis : x y z
#
# Youngs Moduli (GPa) = 169.95039 146.15137 156.08981
#
# Poissons Ratio (x) = -0.13931 0.10430
# Poissons Ratio (y) = -0.16199 0.24741
# Poissons Ratio (z) = 0.11357 0.23166
#
# Static dielectric constant tensor:
#      x y z
#    x 2.292830 0.000000 -0.058290 
#    y 0.000000 2.323310 0.000000 
#    z -0.058290 0.000000 2.350470 
# 
# From -- ./inp_files/7609.got.cif
#   From: 2010.05.17/outbox.cif.g08.bks.cpg/sg15_4_cif.got.tgz:7609.got - 2010.06.03 18:47:42.
