data_PCOD9305621
_publ_section_title
;
Structure prediction by ZEFSAII (Michael W. Deem and Ramdas Pophale) SiO2 
 PCOD9305621
Probable space group: C 2/C
;
_chemical_formula_sum "Si O2"
_cell_formula_units_Z 44
_cell_length_a 20.800543
_cell_length_b 10.206906
_cell_length_c 10.800878
_cell_angle_alpha 90.000000
_cell_angle_beta 123.600255
_cell_angle_gamma 90.000000
_cell_volume 1909.987396
_symmetry_space_group_name_H-M "C 2/C"
_symmetry_group_IT_number 15
_symmetry_cell_setting 'monoclinic'
loop_
_space_group_symop_operation_xyz
x,y,z
-x,y,1/2-z
-x,-y,-z
x,-y,1/2+z
1/2+x,1/2+y,z
1/2-x,1/2+y,1/2-z
1/2-x,1/2-y,-z
1/2+x,1/2-y,1/2+z
loop_
_atom_site_type_symbol
_atom_site_label
_atom_site_fract_x
_atom_site_fract_y
_atom_site_fract_z
Si Si1 0.842357 0.966054 0.002101
Si Si2 0.500000 0.018122 0.250000
Si Si3 0.261037 0.453375 0.656305
Si Si4 0.418322 0.799597 0.303578
Si Si5 0.000000 0.071580 0.250000
Si Si6 0.860328 0.320546 0.514702
Si Si7 0.750000 0.250000 0.000000
O O1 0.812837 0.979644 0.830809
O O2 0.828066 0.816957 0.029663
O O3 0.798909 0.063484 0.054959
O O4 0.932608 0.990674 0.113575
O O5 0.477541 0.916996 0.335534
O O6 0.573952 0.110946 0.335558
O O7 0.202577 0.569760 0.579650
O O8 0.229494 0.306493 0.622127
O O9 0.458564 0.666443 0.302751
O O10 0.400775 0.789745 0.428150
O O11 0.336841 0.812084 0.144958
#
# Coordination Sequence:
#
# PCOD9305621 Si02
#       7
#     8   4   8   8   4   8   4
#     4  12  26  46  71 107 143 188 237 302 358 425
#     4  11  25  42  66 100 137 179 238 292 362 421
#     4  12  27  46  75 103 141 189 247 291 354 435
#     4  11  24  46  70 101 135 192 234 294 357 433
#     4  11  25  44  74 104 145 189 246 286 372 435
#     4  12  25  44  68 100 145 179 237 301 358 420
#     4  12  20  50  72  92 136 186 234 280 344 436
#
# _framework density 23.036802000000002
#
# number of rings (size 3 to 8) (size 9 to 14) (size 15 to 20)
#    0.000    0.364    5.455    2.727    0.000    4.364 
#    0.000    0.000    0.000    0.000    0.000    0.000 
#    0.000    0.000    0.000    0.000    0.000    0.000 
#
# Total GULP energy -122546.944966 kJ/mol
# GULP energy per Si atom -5570.315680 kJ/mol
# Density = 2.298437 g / cm^3
# Si number density = 23.036802 Si / 1000 Ang^3
#
#
#
# Elastic Constant Matrix: (Units=GPa)
#
#
# Indices 1 2 3 4 5 6 
#
# 1 61.3225 11.0428 2.5021 0.0000 -5.5793 0.0000
# 2 11.0428 100.9581 30.3929 0.0000 9.3113 0.0000
# 3 2.5021 30.3929 110.9428 0.0000 9.3818 0.0000
# 4 0.0000 0.0000 0.0000 29.4525 0.0000 5.8767
# 5 -5.5793 9.3113 9.3818 0.0000 40.4090 0.0000
# 6 0.0000 0.0000 0.0000 5.8767 0.0000 14.3775
#
#
#
# Elastic Compliance Matrix: (Units=1/GPa)
#
#
# Indices 1 2 3 4 5 6 
#
# 1 0.016945 -0.002101 -0.000046 0.000000 0.002835 0.000000
# 2 -0.002101 0.011191 -0.002831 0.000000 -0.002211 0.000000
# 3 -0.000046 -0.002831 0.009931 0.000000 -0.001660 0.000000
# 4 0.000000 0.000000 0.000000 0.036968 0.000000 -0.015110
# 5 0.002835 -0.002211 -0.001660 0.000000 0.026033 0.000000
# 6 0.000000 0.000000 0.000000 -0.015110 0.000000 0.075729
#
#
# Mechanical properties :
#
#
# Convention : Reuss Voigt Hill
#
# Bulk Modulus (GPa) = 35.57470 40.12209 37.84839
# Shear Modulus (GPa) = 25.49392 32.13352 28.81372
#
# Velocity S-wave (km/s) = 3.33026 3.73886 3.54046
# Velocity P-wave (km/s) = 5.50123 6.00775 5.76006
#
# Compressibility (1/GPa) = 0.02810987
#
# Stress axis : x y z
#
# Youngs Moduli (GPa) = 59.01326 89.35545 100.69758
#
# Poissons Ratio (x) = 0.18773 0.00466
# Poissons Ratio (y) = 0.12398 0.28512
# Poissons Ratio (z) = 0.00273 0.25301
#
# Static dielectric constant tensor:
#      x y z
#    x 1.579860 0.000000 -0.295420 
#    y 0.000000 0.226680 0.000000 
#    z -0.295420 0.000000 1.549220 
# 
# From -- ./inp_files/111309.got.cif
#   From: 2010.05.17/outbox.cif.g08.bks.cpg/sg15_56_cif.got.tgz:111309.got - 2010.06.03 18:47:42.
