data_PCOD9305096
_publ_section_title
;
Structure prediction by ZEFSAII (Michael W. Deem and Ramdas Pophale) SiO2 
 PCOD9305096
Probable space group: C 2/C
;
_chemical_formula_sum "Si O2"
_cell_formula_units_Z 44
_cell_length_a 6.568277
_cell_length_b 25.488323
_cell_length_c 16.618178
_cell_angle_alpha 90.000000
_cell_angle_beta 52.429582
_cell_angle_gamma 90.000000
_cell_volume 2205.122363
_symmetry_space_group_name_H-M "C 2/C"
_symmetry_group_IT_number 15
_symmetry_cell_setting 'monoclinic'
loop_
_space_group_symop_operation_xyz
x,y,z
-x,y,1/2-z
-x,-y,-z
x,-y,1/2+z
1/2+x,1/2+y,z
1/2-x,1/2+y,1/2-z
1/2-x,1/2-y,-z
1/2+x,1/2-y,1/2+z
loop_
_atom_site_type_symbol
_atom_site_label
_atom_site_fract_x
_atom_site_fract_y
_atom_site_fract_z
Si Si1 0.239740 0.940317 0.129322
Si Si2 0.117141 0.250749 0.946550
Si Si3 0.292434 0.338669 0.479383
Si Si4 0.315224 0.532304 0.485462
Si Si5 0.000000 0.815262 0.750000
Si Si6 0.769873 0.116646 0.160249
O O1 0.000000 0.938616 0.250000
O O2 0.218009 0.992790 0.081053
O O3 0.217125 0.889053 0.076432
O O4 0.539805 0.946803 0.085659
O O5 0.291068 0.278754 0.840169
O O6 0.879151 0.291044 0.012983
O O7 0.250000 0.250000 0.000000
O O8 0.057293 0.191968 0.931364
O O9 0.211163 0.354733 0.589603
O O10 0.500000 0.500000 0.500000
O O11 0.488461 0.580268 0.415443
O O12 0.864392 0.847959 0.711578
O O13 0.500000 0.089761 0.250000
#
# Coordination Sequence:
#
# PCOD9305096 Si02
#       6
#     8   8   8   8   4   8
#     4  11  27  46  70 104 144 185 229 286 358 428
#     4  11  24  42  68  97 139 180 233 295 346 416
#     4  11  24  46  65 101 142 178 233 296 347 417
#     4  11  26  46  72 101 142 182 236 290 350 417
#     4  12  24  42  70 102 130 190 238 284 360 408
#     4  12  25  42  74 103 136 181 239 292 350 415
#
# _framework density 19.953541000000001
#
# number of rings (size 3 to 8) (size 9 to 14) (size 15 to 20)
#    0.000    0.727    5.455    1.091    3.818    1.455 
#    0.000    0.000    0.000    0.000    0.000    0.000 
#    0.000    0.000    0.000    0.000    0.000    0.000 
#
# Total GULP energy -122627.188488 kJ/mol
# GULP energy per Si atom -5573.963113 kJ/mol
# Density = 1.990813 g / cm^3
# Si number density = 19.953541 Si / 1000 Ang^3
#
#
#
# Elastic Constant Matrix: (Units=GPa)
#
#
# Indices 1 2 3 4 5 6 
#
# 1 115.4229 46.5621 63.0833 0.0000 -7.0648 0.0000
# 2 46.5621 88.6269 44.6530 0.0000 -2.5372 0.0000
# 3 63.0833 44.6530 126.1704 0.0000 -12.2490 0.0000
# 4 0.0000 0.0000 0.0000 28.4830 0.0000 -5.7903
# 5 -7.0648 -2.5372 -12.2490 0.0000 41.0340 0.0000
# 6 0.0000 0.0000 0.0000 -5.7903 0.0000 40.0459
#
#
#
# Elastic Compliance Matrix: (Units=1/GPa)
#
#
# Indices 1 2 3 4 5 6 
#
# 1 0.013200 -0.004406 -0.004991 0.000000 0.000510 0.000000
# 2 -0.004406 0.015218 -0.003260 0.000000 -0.000791 0.000000
# 3 -0.004991 -0.003260 0.011814 0.000000 0.002466 0.000000
# 4 0.000000 0.000000 0.000000 0.036172 0.000000 0.005230
# 5 0.000510 -0.000791 0.002466 0.000000 0.025145 0.000000
# 6 0.000000 0.000000 0.000000 0.005230 0.000000 0.025728
#
#
# Mechanical properties :
#
#
# Convention : Reuss Voigt Hill
#
# Bulk Modulus (GPa) = 67.02812 70.97968 69.00390
# Shear Modulus (GPa) = 31.73344 33.64068 32.68706
#
# Velocity S-wave (km/s) = 3.99227 4.11049 4.05181
# Velocity P-wave (km/s) = 7.41053 7.62744 7.51977
#
# Compressibility (1/GPa) = 0.01491911
#
# Stress axis : x y z
#
# Youngs Moduli (GPa) = 75.75663 65.71353 84.64343
#
# Poissons Ratio (x) = 0.28952 0.42246
# Poissons Ratio (y) = 0.33376 0.27591
# Poissons Ratio (z) = 0.37811 0.21420
#
# Static dielectric constant tensor:
#      x y z
#    x 1.842360 0.000000 -0.019830 
#    y 0.000000 1.677820 0.000000 
#    z -0.019830 0.000000 1.718240 
# 
# From -- ./inp_files/129962.got.cif
#   From: 2010.05.17/outbox.cif.g08.bks.cpg/sg15_65_cif.got.tgz:129962.got - 2010.06.03 18:47:42.
