data_PCOD9305079
_publ_section_title
;
Structure prediction by ZEFSAII (Michael W. Deem and Ramdas Pophale) SiO2 
 PCOD9305079
Probable space group: C 2/C
;
_chemical_formula_sum "Si O2"
_cell_formula_units_Z 40
_cell_length_a 32.518785
_cell_length_b 4.977132
_cell_length_c 11.038822
_cell_angle_alpha 90.000000
_cell_angle_beta 72.198579
_cell_angle_gamma 90.000000
_cell_volume 1701.095572
_symmetry_space_group_name_H-M "C 2/C"
_symmetry_group_IT_number 15
_symmetry_cell_setting 'monoclinic'
loop_
_space_group_symop_operation_xyz
x,y,z
-x,y,1/2-z
-x,-y,-z
x,-y,1/2+z
1/2+x,1/2+y,z
1/2-x,1/2+y,1/2-z
1/2-x,1/2-y,-z
1/2+x,1/2-y,1/2+z
loop_
_atom_site_type_symbol
_atom_site_label
_atom_site_fract_x
_atom_site_fract_y
_atom_site_fract_z
Si Si1 0.178987 0.249776 0.819905
Si Si2 0.748380 0.499822 0.091928
Si Si3 0.396676 0.053208 0.284470
Si Si4 0.968143 0.250185 0.541986
Si Si5 0.391464 0.446832 0.937823
O O1 0.211940 0.458740 0.851514
O O2 0.143653 0.382897 0.764811
O O3 0.206673 0.044701 0.713595
O O4 0.152473 0.111945 0.951729
O O5 0.750000 0.750000 0.000000
O O6 0.750000 0.250000 0.000000
O O7 0.440272 0.166463 0.184724
O O8 0.392937 0.237981 0.407635
O O9 0.394868 0.737513 0.314578
O O10 0.930993 0.171313 0.479709
O O11 0.000000 0.500000 0.500000
O O12 0.000000 0.000000 0.500000
#
# Coordination Sequence:
#
# PCOD9305079 Si02
#       5
#     8   8   8   8   8
#     4  11  26  46  69 100 138 178 231 286 342 413
#     4  12  26  44  70 100 134 178 228 284 344 408
#     4  11  25  44  68  97 135 179 223 277 342 408
#     4  11  24  42  67 100 134 172 223 278 334 405
#     4  11  25  44  68  97 135 179 223 277 342 408
#
# _framework density 23.514257000000001
#
# number of rings (size 3 to 8) (size 9 to 14) (size 15 to 20)
#    0.000    0.800    0.000    6.000    0.000   16.000 
#    0.000    0.000    0.000    0.000    0.000    0.000 
#    0.000    0.000    0.000    0.000    0.000    0.000 
#
# Total GULP energy -111983.474874 kJ/mol
# GULP energy per Si atom -5599.173744 kJ/mol
# Density = 2.346074 g / cm^3
# Si number density = 23.514257 Si / 1000 Ang^3
#
#
#
# Elastic Constant Matrix: (Units=GPa)
#
#
# Indices 1 2 3 4 5 6 
#
# 1 96.0077 31.6393 53.1096 0.0000 -40.6334 0.0000
# 2 31.6393 148.0893 31.2764 0.0000 -13.5536 0.0000
# 3 53.1096 31.2764 103.2599 0.0000 -30.0020 0.0000
# 4 0.0000 0.0000 0.0000 37.1704 0.0000 0.8866
# 5 -40.6334 -13.5536 -30.0020 0.0000 37.1510 0.0000
# 6 0.0000 0.0000 0.0000 0.8866 0.0000 44.3356
#
#
#
# Elastic Compliance Matrix: (Units=1/GPa)
#
#
# Indices 1 2 3 4 5 6 
#
# 1 0.022037 -0.001853 -0.005182 0.000000 0.019241 0.000000
# 2 -0.001853 0.007407 -0.001430 0.000000 -0.000479 0.000000
# 3 -0.005182 -0.001430 0.014352 0.000000 0.005400 0.000000
# 4 0.000000 0.000000 0.000000 0.026916 0.000000 -0.000538
# 5 0.019241 -0.000479 0.005400 0.000000 0.052149 0.000000
# 6 0.000000 0.000000 0.000000 -0.000538 0.000000 0.022566
#
#
# Mechanical properties :
#
#
# Convention : Reuss Voigt Hill
#
# Bulk Modulus (GPa) = 37.22198 64.37860 50.80029
# Shear Modulus (GPa) = 29.18679 39.15350 34.17014
#
# Velocity S-wave (km/s) = 3.52694 4.08499 3.81618
# Velocity P-wave (km/s) = 5.69646 7.04893 6.40848
#
# Compressibility (1/GPa) = 0.02686585
#
# Stress axis : x y z
#
# Youngs Moduli (GPa) = 45.37882 135.01443 69.67737
#
# Poissons Ratio (x) = 0.25013 0.36110
# Poissons Ratio (y) = 0.08407 0.09961
# Poissons Ratio (z) = 0.23517 0.19302
#
# Static dielectric constant tensor:
#      x y z
#    x 0.236560 0.000000 0.178270 
#    y 0.000000 1.833660 0.000000 
#    z 0.178270 0.000000 1.910550 
# 
# From -- ./inp_files/124939.got.cif
#   From: 2010.05.17/outbox.cif.g08.bks.cpg/sg15_63_cif.got.tgz:124939.got - 2010.06.03 18:47:42.
