data_PCOD9305273
_publ_section_title
;
Structure prediction by ZEFSAII (Michael W. Deem and Ramdas Pophale) SiO2 
 PCOD9305273
Probable space group: C 2/C
;
_chemical_formula_sum "Si O2"
_cell_formula_units_Z 40
_cell_length_a 12.759103
_cell_length_b 4.951571
_cell_length_c 23.831830
_cell_angle_alpha 90.000000
_cell_angle_beta 88.003497
_cell_angle_gamma 90.000000
_cell_volume 1504.723938
_symmetry_space_group_name_H-M "C 2/C"
_symmetry_group_IT_number 15
_symmetry_cell_setting 'monoclinic'
loop_
_space_group_symop_operation_xyz
x,y,z
-x,y,1/2-z
-x,-y,-z
x,-y,1/2+z
1/2+x,1/2+y,z
1/2-x,1/2+y,1/2-z
1/2-x,1/2-y,-z
1/2+x,1/2-y,1/2+z
loop_
_atom_site_type_symbol
_atom_site_label
_atom_site_fract_x
_atom_site_fract_y
_atom_site_fract_z
Si Si1 0.934911 0.068415 0.932666
Si Si2 0.794881 0.972514 0.325785
Si Si3 0.140358 0.409078 0.997631
Si Si4 0.413618 0.969730 0.297014
Si Si5 0.581852 0.821266 0.381219
O O1 0.847962 0.013913 0.886321
O O2 0.067337 0.170587 0.021122
O O3 0.886388 0.338221 0.961773
O O4 0.044596 0.983090 0.898532
O O5 0.867766 0.765681 0.290429
O O6 0.679065 0.857311 0.337140
O O7 0.815374 0.267727 0.301051
O O8 0.116992 0.519722 0.936346
O O9 0.250000 0.250000 0.000000
O O10 0.500000 0.893098 0.250000
O O11 0.479570 0.952122 0.353878
#
# Coordination Sequence:
#
# PCOD9305273 Si02
#       5
#     8   8   8   8   8
#     4  11  24  44  65 106 148 190 240 293 350 439
#     4  11  25  45  74 103 141 181 242 294 360 438
#     4  12  24  42  68 102 151 193 239 292 354 434
#     4  11  27  49  71 104 139 178 240 308 363 437
#     4  11  26  45  75 103 143 197 238 296 371 426
#
# _framework density 26.582947000000001
#
# number of rings (size 3 to 8) (size 9 to 14) (size 15 to 20)
#    0.000    0.800    2.000    4.800    0.000    9.600 
#    0.000    0.000    0.000    0.000    0.000    0.000 
#    0.000    0.000    0.000    0.000    0.000    0.000 
#
# Total GULP energy -111924.126660 kJ/mol
# GULP energy per Si atom -5596.206333 kJ/mol
# Density = 2.652244 g / cm^3
# Si number density = 26.582947 Si / 1000 Ang^3
#
#
#
# Elastic Constant Matrix: (Units=GPa)
#
#
# Indices 1 2 3 4 5 6 
#
# 1 162.4410 30.3368 28.8773 0.0000 -14.2741 0.0000
# 2 30.3368 143.4314 12.7673 0.0000 0.7667 0.0000
# 3 28.8773 12.7673 95.0027 0.0000 2.6537 0.0000
# 4 0.0000 0.0000 0.0000 26.9186 0.0000 -20.5108
# 5 -14.2741 0.7667 2.6537 0.0000 50.5488 0.0000
# 6 0.0000 0.0000 0.0000 -20.5108 0.0000 49.9343
#
#
#
# Elastic Compliance Matrix: (Units=1/GPa)
#
#
# Indices 1 2 3 4 5 6 
#
# 1 0.006936 -0.001301 -0.001992 0.000000 0.002083 0.000000
# 2 -0.001301 0.007301 -0.000573 0.000000 -0.000448 0.000000
# 3 -0.001992 -0.000573 0.011240 0.000000 -0.001144 0.000000
# 4 0.000000 0.000000 0.000000 0.054073 0.000000 0.022211
# 5 0.002083 -0.000448 -0.001144 0.000000 0.020438 0.000000
# 6 0.000000 0.000000 0.000000 0.022211 0.000000 0.029149
#
#
# Mechanical properties :
#
#
# Convention : Reuss Voigt Hill
#
# Bulk Modulus (GPa) = 56.35211 60.53753 58.44482
# Shear Modulus (GPa) = 35.01804 47.40661 41.21232
#
# Velocity S-wave (km/s) = 3.63342 4.22755 3.94169
# Velocity P-wave (km/s) = 6.23273 6.83023 6.53831
#
# Compressibility (1/GPa) = 0.01774557
#
# Stress axis : x y z
#
# Youngs Moduli (GPa) = 144.17262 136.97621 88.96485
#
# Poissons Ratio (x) = 0.17819 0.17719
# Poissons Ratio (y) = 0.18755 0.05099
# Poissons Ratio (z) = 0.28715 0.07851
#
# Static dielectric constant tensor:
#      x y z
#    x 2.149630 0.000000 0.021210 
#    y 0.000000 2.072200 0.000000 
#    z 0.021210 0.000000 2.174080 
# 
# From -- ./inp_files/290528.got.cif
#   From: 2010.05.17/outbox.cif.g08.bks.cpg/sg15_146_cif.got.tgz:290528.got - 2010.06.03 18:47:42.
