data_PCOD9305495
_publ_section_title
;
Structure prediction by ZEFSAII (Michael W. Deem and Ramdas Pophale) SiO2 
 PCOD9305495
Probable space group: C 2/C
;
_chemical_formula_sum "Si O2"
_cell_formula_units_Z 40
_cell_length_a 15.035178
_cell_length_b 17.003609
_cell_length_c 20.533121
_cell_angle_alpha 90.000000
_cell_angle_beta 20.472500
_cell_angle_gamma 90.000000
_cell_volume 1835.997232
_symmetry_space_group_name_H-M "C 2/C"
_symmetry_group_IT_number 15
_symmetry_cell_setting 'monoclinic'
loop_
_space_group_symop_operation_xyz
x,y,z
-x,y,1/2-z
-x,-y,-z
x,-y,1/2+z
1/2+x,1/2+y,z
1/2-x,1/2+y,1/2-z
1/2-x,1/2-y,-z
1/2+x,1/2-y,1/2+z
loop_
_atom_site_type_symbol
_atom_site_label
_atom_site_fract_x
_atom_site_fract_y
_atom_site_fract_z
Si Si1 0.412895 0.364398 0.704834
Si Si2 0.037313 0.395039 0.145680
Si Si3 0.252143 0.040513 0.293735
Si Si4 0.556101 0.784439 0.400665
Si Si5 0.520122 0.205602 0.310480
O O1 0.667779 0.377645 0.569829
O O2 0.328238 0.443323 0.725605
O O3 0.503594 0.300486 0.588639
O O4 0.177281 0.326189 0.903580
O O5 0.000000 0.392067 0.250000
O O6 0.966626 0.479065 0.165718
O O7 0.877726 0.335330 0.209347
O O8 0.376969 0.125115 0.227056
O O9 0.000000 0.000000 0.500000
O O10 0.777788 0.769785 0.301082
O O11 0.500000 0.181621 0.250000
O O12 0.250000 0.250000 0.500000
#
# Coordination Sequence:
#
# PCOD9305495 Si02
#       5
#     8   8   8   8   8
#     4  11  24  45  70 104 141 192 236 301 364 433
#     4  12  24  42  72 106 141 190 242 302 373 434
#     4  11  25  43  72 104 145 189 249 300 367 445
#     4  11  25  45  71 106 145 183 248 304 357 444
#     4  11  25  45  74 104 141 195 246 298 369 447
#
# _framework density 21.786525999999999
#
# number of rings (size 3 to 8) (size 9 to 14) (size 15 to 20)
#    0.000    0.800    2.000    5.400    5.600    0.800 
#    0.000    4.000    0.000    0.000    0.000    0.000 
#    0.000    0.000    0.000    0.000    0.000    0.000 
#
# Total GULP energy -111396.653796 kJ/mol
# GULP energy per Si atom -5569.832690 kJ/mol
# Density = 2.173694 g / cm^3
# Si number density = 21.786526 Si / 1000 Ang^3
#
#
#
# Elastic Constant Matrix: (Units=GPa)
#
#
# Indices 1 2 3 4 5 6 
#
# 1 105.9757 35.0904 25.5492 0.0586 -29.3609 0.0102
# 2 35.0904 100.1492 48.9088 0.0261 -20.1258 0.1293
# 3 25.5492 48.9088 113.6714 0.3032 -24.1178 0.4354
# 4 0.0586 0.0261 0.3032 21.1556 -0.0728 -35.4720
# 5 -29.3609 -20.1258 -24.1178 -0.0728 39.0237 -0.0892
# 6 0.0102 0.1293 0.4354 -35.4720 -0.0892 0.4067
#
#
#
# Elastic Compliance Matrix: (Units=1/GPa)
#
#
# Indices 1 2 3 4 5 6 
#
# 1 0.012587 -0.002840 0.000105 -0.000026 0.008071 -0.000012
# 2 -0.002840 0.013746 -0.004863 -0.000016 0.001947 -0.000050
# 3 0.000105 -0.004863 0.011912 0.000118 0.004934 0.000159
# 4 -0.000026 -0.000016 0.000118 -0.000324 -0.000020 -0.028383
# 5 0.008071 0.001947 0.004934 -0.000020 0.035751 -0.000028
# 6 -0.000012 -0.000050 0.000159 -0.028383 -0.000028 -0.016927
#
#
# Mechanical properties :
#
#
# Convention : Reuss Voigt Hill
#
# Bulk Modulus (GPa) = 43.38320 59.87700 51.63010
# Shear Modulus (GPa) = 62.79502 26.13372 44.46437
#
# Velocity S-wave (km/s) = 5.37452 3.46719 4.52255
# Velocity P-wave (km/s) = 7.64657 6.60089 7.14289
#
# Compressibility (1/GPa) = 0.02305040
#
# Stress axis : x y z
#
# Youngs Moduli (GPa) = 79.44637 72.74662 83.95012
#
# Poissons Ratio (x) = 0.20658 -0.00883
# Poissons Ratio (y) = 0.22561 0.40824
# Poissons Ratio (z) = -0.00836 0.35376
#
# Static dielectric constant tensor:
#      x y z
#    x 3.234160 -0.000150 3.520730 
#    y -0.000150 1.787670 -0.000390 
#    z 3.520730 -0.000390 10.275760 
# 
# From -- ./inp_files/245078.got.cif
#   From: 2010.05.17/outbox.cif.g08.bks.cpg/sg15_123_cif.got.tgz:245078.got - 2010.06.03 18:47:42.
