data_PCOD9305063
_publ_section_title
;
Structure prediction by ZEFSAII (Michael W. Deem and Ramdas Pophale) SiO2 
 PCOD9305063
Probable space group: C 2/C
;
_chemical_formula_sum "Si O2"
_cell_formula_units_Z 32
_cell_length_a 18.181405
_cell_length_b 8.761482
_cell_length_c 25.552140
_cell_angle_alpha 90.000000
_cell_angle_beta 19.742749
_cell_angle_gamma 90.000000
_cell_volume 1374.956187
_symmetry_space_group_name_H-M "C 2/C"
_symmetry_group_IT_number 15
_symmetry_cell_setting 'monoclinic'
loop_
_space_group_symop_operation_xyz
x,y,z
-x,y,1/2-z
-x,-y,-z
x,-y,1/2+z
1/2+x,1/2+y,z
1/2-x,1/2+y,1/2-z
1/2-x,1/2-y,-z
1/2+x,1/2-y,1/2+z
loop_
_atom_site_type_symbol
_atom_site_label
_atom_site_fract_x
_atom_site_fract_y
_atom_site_fract_z
Si Si1 0.643543 0.391781 0.470826
Si Si2 0.818572 0.454919 0.540972
Si Si3 0.494597 0.579270 0.670604
Si Si4 0.173524 0.588646 0.238552
O O1 0.712535 0.225718 0.443923
O O2 0.580305 0.502447 0.560481
O O3 0.815694 0.472092 0.317222
O O4 0.421011 0.368408 0.586866
O O5 0.671032 0.540817 0.596839
O O6 0.728051 0.505500 0.657726
O O7 0.060401 0.505431 0.363328
O O8 0.452063 0.757523 0.691643
#
# Coordination Sequence:
#
# PCOD9305063 Si02
#       4
#     8   8   8   8
#     4  11  24  42  67  97 129 167 212 264 319 378
#     4  11  24  42  64  94 129 170 214 259 316 379
#     4  11  24  42  64  94 129 170 214 259 316 379
#     4  11  24  42  67  97 129 167 212 264 319 378
#
# _framework density 23.273468999999999
#
# number of rings (size 3 to 8) (size 9 to 14) (size 15 to 20)
#    0.000    1.000    0.000    6.000    0.000   13.000 
#    0.000    0.000    0.000    0.000    0.000    0.000 
#    0.000    0.000    0.000    0.000    0.000    0.000 
#
# Total GULP energy -89649.228889 kJ/mol
# GULP energy per Si atom -5603.076806 kJ/mol
# Density = 2.322050 g / cm^3
# Si number density = 23.273469 Si / 1000 Ang^3
#
#
#
# Elastic Constant Matrix: (Units=GPa)
#
#
# Indices 1 2 3 4 5 6 
#
# 1 62.0954 23.0716 5.3883 -0.0031 7.7622 -0.0014
# 2 23.0716 180.1694 53.8660 0.0098 7.7151 0.0223
# 3 5.3883 53.8660 131.5305 -0.0193 34.3899 0.0430
# 4 -0.0031 0.0098 -0.0193 44.3528 0.0009 4.2467
# 5 7.7622 7.7151 34.3899 0.0009 32.9767 0.0067
# 6 -0.0014 0.0223 0.0430 4.2467 0.0067 55.6565
#
#
#
# Elastic Compliance Matrix: (Units=1/GPa)
#
#
# Indices 1 2 3 4 5 6 
#
# 1 0.017562 -0.002532 0.001710 0.000003 -0.005324 0.000001
# 2 -0.002532 0.006758 -0.003309 -0.000003 0.002465 0.000000
# 3 0.001710 -0.003309 0.012086 0.000007 -0.012232 -0.000007
# 4 0.000003 -0.000003 0.000007 0.022712 -0.000007 -0.001733
# 5 -0.005324 0.002465 -0.012232 -0.000007 0.043757 0.000004
# 6 0.000001 0.000000 -0.000007 -0.001733 0.000004 0.018100
#
#
# Mechanical properties :
#
#
# Convention : Reuss Voigt Hill
#
# Bulk Modulus (GPa) = 35.53105 59.82749 47.67927
# Shear Modulus (GPa) = 36.07007 46.02850 41.04929
#
# Velocity S-wave (km/s) = 3.94107 4.45199 4.20429
# Velocity P-wave (km/s) = 6.00077 7.22420 6.64072
#
# Compressibility (1/GPa) = 0.02814440
#
# Stress axis : x y z
#
# Youngs Moduli (GPa) = 56.94031 147.96906 82.74085
#
# Poissons Ratio (x) = 0.37467 -0.14145
# Poissons Ratio (y) = 0.14418 0.27375
# Poissons Ratio (z) = -0.09734 0.48956
#
# Static dielectric constant tensor:
#      x y z
#    x 1.877260 0.000000 -0.054630 
#    y 0.000000 1.792370 0.000010 
#    z -0.054630 0.000010 1.940890 
# 
# From -- ./inp_files/45956.got.cif
#   From: 2010.05.17/outbox.cif.g08.bks.cpg/sg15_23_cif.got.tgz:45956.got - 2010.06.03 18:47:42.
