data_PCOD9305269
_publ_section_title
;
Structure prediction by ZEFSAII (Michael W. Deem and Ramdas Pophale) SiO2 
 PCOD9305269
Probable space group: C 2/C
;
_chemical_formula_sum "Si O2"
_cell_formula_units_Z 44
_cell_length_a 16.442603
_cell_length_b 15.895935
_cell_length_c 22.383653
_cell_angle_alpha 90.000000
_cell_angle_beta 158.771308
_cell_angle_gamma 90.000000
_cell_volume 2118.389569
_symmetry_space_group_name_H-M "C 2/C"
_symmetry_group_IT_number 15
_symmetry_cell_setting 'monoclinic'
loop_
_space_group_symop_operation_xyz
x,y,z
-x,y,1/2-z
-x,-y,-z
x,-y,1/2+z
1/2+x,1/2+y,z
1/2-x,1/2+y,1/2-z
1/2-x,1/2-y,-z
1/2+x,1/2-y,1/2+z
loop_
_atom_site_type_symbol
_atom_site_label
_atom_site_fract_x
_atom_site_fract_y
_atom_site_fract_z
Si Si1 0.606878 0.175333 0.999732
Si Si2 0.320745 0.404113 0.900044
Si Si3 0.264364 0.741155 0.580264
Si Si4 0.665383 0.921705 0.267177
Si Si5 0.000000 0.713989 0.750000
Si Si6 0.223992 0.685064 0.216639
O O1 0.524052 0.089021 0.913203
O O2 0.386571 0.236330 0.845209
O O3 0.798433 0.223909 0.094313
O O4 0.711915 0.167433 0.137838
O O5 0.226950 0.327659 0.875201
O O6 0.186912 0.490471 0.816509
O O7 0.304871 0.385465 0.818084
O O8 0.587959 0.410789 0.093370
O O9 0.500000 0.693935 0.750000
O O10 0.250000 0.750000 0.500000
O O11 0.034947 0.700412 0.444604
O O12 0.605501 0.846878 0.272073
#
# Coordination Sequence:
#
# PCOD9305269 Si02
#       6
#     8   8   8   8   4   8
#     4  12  22  40  66  98 125 169 220 268 322 392
#     4  11  24  44  62  96 132 170 212 267 342 380
#     4  12  22  36  66  95 119 165 217 264 309 388
#     4  11  25  41  66  93 132 171 210 274 328 390
#     4  12  22  38  72  98 126 168 226 268 314 396
#     4  12  21  41  65  92 128 168 215 269 329 390
#
# _framework density 20.770495
#
# number of rings (size 3 to 8) (size 9 to 14) (size 15 to 20)
#    0.000    0.364    9.091    0.545    1.273    0.727 
#    0.000    0.000    2.000    0.000    0.000    0.000 
#    0.000    0.000    0.000    0.000    0.000    0.000 
#
# Total GULP energy -122709.994755 kJ/mol
# GULP energy per Si atom -5577.727034 kJ/mol
# Density = 2.072322 g / cm^3
# Si number density = 20.770495 Si / 1000 Ang^3
#
#
#
# Elastic Constant Matrix: (Units=GPa)
#
#
# Indices 1 2 3 4 5 6 
#
# 1 86.2531 9.5872 20.3259 -0.0090 -15.0089 -0.0057
# 2 9.5872 61.1679 23.2028 0.0443 0.1194 0.0141
# 3 20.3259 23.2028 99.1985 0.0148 -10.3644 0.0010
# 4 -0.0090 0.0443 0.0148 34.3595 -0.0133 0.8330
# 5 -15.0089 0.1194 -10.3644 -0.0133 45.5827 -0.0091
# 6 -0.0057 0.0141 0.0010 0.8330 -0.0091 21.9346
#
#
#
# Elastic Compliance Matrix: (Units=1/GPa)
#
#
# Indices 1 2 3 4 5 6 
#
# 1 0.012854 -0.001288 -0.001936 0.000007 0.003795 0.000006
# 2 -0.001288 0.018116 -0.004121 -0.000022 -0.001408 -0.000012
# 3 -0.001936 -0.004121 0.011653 0.000001 0.002023 0.000002
# 4 0.000007 -0.000022 0.000001 0.029131 0.000011 -0.001106
# 5 0.003795 -0.001408 0.002023 0.000011 0.023652 0.000011
# 6 0.000006 -0.000012 0.000002 -0.001106 0.000011 0.045632
#
#
# Mechanical properties :
#
#
# Convention : Reuss Voigt Hill
#
# Bulk Modulus (GPa) = 35.79908 39.20572 37.50240
# Shear Modulus (GPa) = 30.29628 33.27560 31.78594
#
# Velocity S-wave (km/s) = 3.82333 4.00692 3.91620
# Velocity P-wave (km/s) = 6.06329 6.35011 6.20835
#
# Compressibility (1/GPa) = 0.02793368
#
# Stress axis : x y z
#
# Youngs Moduli (GPa) = 77.79938 55.19938 85.81711
#
# Poissons Ratio (x) = 0.07108 0.16614
# Poissons Ratio (y) = 0.10018 0.35363
# Poissons Ratio (z) = 0.15062 0.22746
#
# Static dielectric constant tensor:
#      x y z
#    x 1.773920 0.000010 0.027530 
#    y 0.000010 1.790830 -0.000040 
#    z 0.027530 -0.000040 1.628500 
# 
# From -- ./inp_files/47529.got.cif
#   From: 2010.05.17/outbox.cif.g08.bks.cpg/sg15_24_cif.got.tgz:47529.got - 2010.06.03 18:47:42.
