data_PCOD9305515
_publ_section_title
;
Structure prediction by ZEFSAII (Michael W. Deem and Ramdas Pophale) SiO2 
 PCOD9305515
Probable space group: C 2/C
;
_chemical_formula_sum "Si O2"
_cell_formula_units_Z 44
_cell_length_a 17.323964
_cell_length_b 9.456353
_cell_length_c 11.724003
_cell_angle_alpha 90.000000
_cell_angle_beta 113.833897
_cell_angle_gamma 90.000000
_cell_volume 1756.852929
_symmetry_space_group_name_H-M "C 2/C"
_symmetry_group_IT_number 15
_symmetry_cell_setting 'monoclinic'
loop_
_space_group_symop_operation_xyz
x,y,z
-x,y,1/2-z
-x,-y,-z
x,-y,1/2+z
1/2+x,1/2+y,z
1/2-x,1/2+y,1/2-z
1/2-x,1/2-y,-z
1/2+x,1/2-y,1/2+z
loop_
_atom_site_type_symbol
_atom_site_label
_atom_site_fract_x
_atom_site_fract_y
_atom_site_fract_z
Si Si1 0.861956 0.238549 0.326576
Si Si2 0.129282 0.014023 0.974956
Si Si3 0.096505 0.249129 0.800662
Si Si4 0.185916 0.739496 0.112429
Si Si5 0.090830 0.480757 0.988813
Si Si6 0.500000 0.664967 0.250000
O O1 0.890244 0.112078 0.427805
O O2 0.777324 0.196096 0.211459
O O3 0.854383 0.380675 0.394317
O O4 0.935613 0.258505 0.281211
O O5 0.155000 0.132155 0.897790
O O6 0.190826 0.891872 0.055640
O O7 0.053043 0.928951 0.871096
O O8 0.127127 0.258136 0.690277
O O9 0.000000 0.197548 0.750000
O O10 0.091552 0.392946 0.871373
O O11 0.138707 0.627771 0.005091
O O12 0.000000 0.500000 0.000000
#
# Coordination Sequence:
#
# PCOD9305515 Si02
#       6
#     8   8   8   8   8   4
#     4  11  27  45  69 104 145 188 240 301 359 431
#     4  11  25  45  75 103 140 189 242 296 355 436
#     4  11  24  45  75 104 137 191 234 292 363 421
#     4  12  26  47  72 108 147 185 243 303 356 430
#     4  11  24  45  71 105 144 189 239 293 360 435
#     4  12  24  42  72 102 138 190 246 294 358 428
#
# _framework density 25.044782999999999
#
# number of rings (size 3 to 8) (size 9 to 14) (size 15 to 20)
#    0.000    0.727    2.727    3.818    2.545    8.000 
#    1.636    1.818    0.000    0.000    0.000    0.000 
#    0.000    0.000    0.000    0.000    0.000    0.000 
#
# Total GULP energy -123230.369307 kJ/mol
# GULP energy per Si atom -5601.380423 kJ/mol
# Density = 2.498778 g / cm^3
# Si number density = 25.044783 Si / 1000 Ang^3
#
#
#
# Elastic Constant Matrix: (Units=GPa)
#
#
# Indices 1 2 3 4 5 6 
#
# 1 82.9202 -4.7478 21.2110 0.0000 -10.0802 0.0000
# 2 -4.7478 118.2972 39.8382 0.0000 -17.3061 0.0000
# 3 21.2110 39.8382 114.8630 0.0000 1.7686 0.0000
# 4 0.0000 0.0000 0.0000 32.9803 0.0000 12.8825
# 5 -10.0802 -17.3061 1.7686 0.0000 19.8890 0.0000
# 6 0.0000 0.0000 0.0000 12.8825 0.0000 147.5345
#
#
#
# Elastic Compliance Matrix: (Units=1/GPa)
#
#
# Indices 1 2 3 4 5 6 
#
# 1 0.014637 0.003562 -0.004106 0.000000 0.010883 0.000000
# 2 0.003562 0.012190 -0.005084 0.000000 0.012865 0.000000
# 3 -0.004106 -0.005084 0.011343 0.000000 -0.007513 0.000000
# 4 0.000000 0.000000 0.000000 0.031392 0.000000 -0.002741
# 5 0.010883 0.012865 -0.007513 0.000000 0.067657 0.000000
# 6 0.000000 0.000000 0.000000 -0.002741 0.000000 0.007017
#
#
# Mechanical properties :
#
#
# Convention : Reuss Voigt Hill
#
# Bulk Modulus (GPa) = 37.15335 47.63145 42.39240
# Shear Modulus (GPa) = 30.40179 57.39938 43.90058
#
# Velocity S-wave (km/s) = 3.48788 4.79254 4.19129
# Velocity P-wave (km/s) = 5.57561 7.04872 6.35499
#
# Compressibility (1/GPa) = 0.02691547
#
# Stress axis : x y z
#
# Youngs Moduli (GPa) = 68.31946 82.03195 88.15839
#
# Poissons Ratio (x) = -0.29223 0.36198
# Poissons Ratio (y) = -0.24338 0.44819
# Poissons Ratio (z) = 0.28052 0.41705
#
# Static dielectric constant tensor:
#      x y z
#    x 1.954530 0.000000 0.019550 
#    y 0.000000 1.965260 0.000000 
#    z 0.019550 0.000000 1.962770 
# 
# From -- ./inp_files/94991.got.cif
#   From: 2010.05.17/outbox.cif.g08.bks.cpg/sg15_48_cif.got.tgz:94991.got - 2010.06.03 18:47:42.
