data_PCOD9305670
_publ_section_title
;
Structure prediction by ZEFSAII (Michael W. Deem and Ramdas Pophale) SiO2 
 PCOD9305670
Probable space group: C 2/C
;
_chemical_formula_sum "Si O2"
_cell_formula_units_Z 40
_cell_length_a 31.000636
_cell_length_b 8.787076
_cell_length_c 15.497268
_cell_angle_alpha 90.000000
_cell_angle_beta 155.144438
_cell_angle_gamma 90.000000
_cell_volume 1774.445985
_symmetry_space_group_name_H-M "C 2/C"
_symmetry_group_IT_number 15
_symmetry_cell_setting 'monoclinic'
loop_
_space_group_symop_operation_xyz
x,y,z
-x,y,1/2-z
-x,-y,-z
x,-y,1/2+z
1/2+x,1/2+y,z
1/2-x,1/2+y,1/2-z
1/2-x,1/2-y,-z
1/2+x,1/2-y,1/2+z
loop_
_atom_site_type_symbol
_atom_site_label
_atom_site_fract_x
_atom_site_fract_y
_atom_site_fract_z
Si Si1 0.381958 0.478929 0.528887
Si Si2 0.028333 0.322377 0.548297
Si Si3 0.422216 0.192009 0.174593
Si Si4 0.658713 0.353926 0.867487
Si Si5 0.803696 0.112718 0.699981
O O1 0.500000 0.428511 0.750000
O O2 0.384419 0.657740 0.556052
O O3 0.324739 0.395264 0.502914
O O4 0.340361 0.445293 0.359348
O O5 0.019434 0.266578 0.631327
O O6 0.141692 0.275129 0.720248
O O7 0.000000 0.500000 0.500000
O O8 0.947401 0.233706 0.342303
O O9 0.500000 0.109635 0.250000
O O10 0.319269 0.110273 0.018770
O O11 0.658379 0.504480 0.807977
O O12 0.750000 0.250000 0.000000
#
# Coordination Sequence:
#
# PCOD9305670 Si02
#       5
#     8   8   8   8   8
#     4  11  24  46  73 102 142 190 241 297 362 432
#     4  12  26  48  73 107 147 189 242 306 369 438
#     4  11  26  46  71 106 142 188 243 302 363 430
#     4  12  26  46  73 108 146 195 245 296 370 439
#     4  12  26  48  75 104 149 195 242 304 368 438
#
# _framework density 22.542248000000001
#
# number of rings (size 3 to 8) (size 9 to 14) (size 15 to 20)
#    0.000    0.400    4.000    4.800    8.400    0.000 
#    3.600    0.000    0.000    0.000    0.000    0.000 
#    0.000    0.000    0.000    0.000    0.000    0.000 
#
# Total GULP energy -111938.152689 kJ/mol
# GULP energy per Si atom -5596.907634 kJ/mol
# Density = 2.249094 g / cm^3
# Si number density = 22.542248 Si / 1000 Ang^3
#
#
#
# Elastic Constant Matrix: (Units=GPa)
#
#
# Indices 1 2 3 4 5 6 
#
# 1 108.9118 28.7225 4.3685 0.0000 -7.8257 0.0000
# 2 28.7225 89.1470 4.0954 0.0000 3.7879 0.0000
# 3 4.3685 4.0954 48.9827 0.0000 0.2055 0.0000
# 4 0.0000 0.0000 0.0000 30.5655 0.0000 9.1984
# 5 -7.8257 3.7879 0.2055 0.0000 56.5375 0.0000
# 6 0.0000 0.0000 0.0000 9.1984 0.0000 29.1609
#
#
#
# Elastic Compliance Matrix: (Units=1/GPa)
#
#
# Indices 1 2 3 4 5 6 
#
# 1 0.010203 -0.003327 -0.000639 0.000000 0.001637 0.000000
# 2 -0.003327 0.012378 -0.000733 0.000000 -0.001287 0.000000
# 3 -0.000639 -0.000733 0.020534 0.000000 -0.000114 0.000000
# 4 0.000000 0.000000 0.000000 0.036148 0.000000 -0.011402
# 5 0.001637 -0.001287 -0.000114 0.000000 0.018001 0.000000
# 6 0.000000 0.000000 0.000000 -0.011402 0.000000 0.037889
#
#
# Mechanical properties :
#
#
# Convention : Reuss Voigt Hill
#
# Bulk Modulus (GPa) = 29.65866 35.71269 32.68568
# Shear Modulus (GPa) = 32.09472 37.24312 34.66892
#
# Velocity S-wave (km/s) = 3.77737 4.06907 3.92593
# Velocity P-wave (km/s) = 5.67540 6.16063 5.92299
#
# Compressibility (1/GPa) = 0.03371697
#
# Stress axis : x y z
#
# Youngs Moduli (GPa) = 98.01499 80.78951 48.69959
#
# Poissons Ratio (x) = 0.26882 0.03110
# Poissons Ratio (y) = 0.32614 0.03568
# Poissons Ratio (z) = 0.06259 0.05920
#
# Static dielectric constant tensor:
#      x y z
#    x 1.851790 0.000000 0.037630 
#    y 0.000000 1.868910 0.000000 
#    z 0.037630 0.000000 1.857850 
# 
# From -- ./inp_files/150562.got.cif
#   From: 2010.05.17/outbox.cif.g08.bks.cpg/sg15_76_cif.got.tgz:150562.got - 2010.06.03 18:47:42.
