data_PCOD9305974
_publ_section_title
;
Structure prediction by ZEFSAII (Michael W. Deem and Ramdas Pophale) SiO2 
 PCOD9305974
Probable space group: C 2/C
;
_chemical_formula_sum "Si O2"
_cell_formula_units_Z 60
_cell_length_a 5.955537
_cell_length_b 26.517468
_cell_length_c 17.439514
_cell_angle_alpha 90.000000
_cell_angle_beta 102.645039
_cell_angle_gamma 90.000000
_cell_volume 2687.346614
_symmetry_space_group_name_H-M "C 2/C"
_symmetry_group_IT_number 15
_symmetry_cell_setting 'monoclinic'
loop_
_space_group_symop_operation_xyz
x,y,z
-x,y,1/2-z
-x,-y,-z
x,-y,1/2+z
1/2+x,1/2+y,z
1/2-x,1/2+y,1/2-z
1/2-x,1/2-y,-z
1/2+x,1/2-y,1/2+z
loop_
_atom_site_type_symbol
_atom_site_label
_atom_site_fract_x
_atom_site_fract_y
_atom_site_fract_z
Si Si1 0.609951 0.032840 0.076289
Si Si2 0.804970 0.409651 0.673778
Si Si3 0.594712 0.444599 0.355757
Si Si4 0.000000 0.985866 0.750000
Si Si5 0.531886 0.132298 0.661721
Si Si6 0.790083 0.176605 0.446647
Si Si7 0.631921 0.595265 0.525819
Si Si8 0.522306 0.220172 0.955246
O O1 0.417418 0.059618 0.111642
O O2 0.757186 0.996918 0.145220
O O3 0.775845 0.072308 0.045852
O O4 0.500000 0.000000 0.000000
O O5 0.620521 0.443178 0.703500
O O6 0.732911 0.357289 0.629911
O O7 0.000000 0.399125 0.750000
O O8 0.379791 0.464703 0.292238
O O9 0.542408 0.440921 0.441749
O O10 0.725127 0.393904 0.342499
O O11 0.500000 0.132282 0.750000
O O12 0.343179 0.100536 0.600090
O O13 0.486579 0.187593 0.622661
O O14 0.569231 0.180962 0.486340
O O15 0.999707 0.148139 0.505927
O O16 0.844403 0.234143 0.432251
O O17 0.750000 0.250000 0.000000
#
# Coordination Sequence:
#
# PCOD9305974 Si02
#       8
#     8   8   8   4   8   8   8   8
#     4  12  23  41  68  98 140 190 242 283 350 429
#     4  12  27  47  67 106 149 184 246 297 358 427
#     4  12  24  41  66 100 146 184 237 284 352 424
#     4  12  26  44  68 102 148 202 222 290 360 432
#     4  12  26  44  68 106 143 181 234 303 365 429
#     4  11  25  46  76 101 132 186 244 296 366 432
#     4  12  23  44  70 103 140 186 242 297 349 438
#     4  11  24  50  76 101 137 182 241 307 369 437
#
# _framework density 22.326854999999998
#
# number of rings (size 3 to 8) (size 9 to 14) (size 15 to 20)
#    0.000    0.267    5.333    4.400    1.867    0.000 
#    3.600    0.000    0.000    0.000    0.000    0.000 
#    0.000    0.000    0.000    0.000    0.000    0.000 
#
# Total GULP energy -167275.196786 kJ/mol
# GULP energy per Si atom -5575.839893 kJ/mol
# Density = 2.227604 g / cm^3
# Si number density = 22.326855 Si / 1000 Ang^3
#
#
#
# Elastic Constant Matrix: (Units=GPa)
#
#
# Indices 1 2 3 4 5 6 
#
# 1 70.0123 38.6003 56.0779 0.0000 -17.0546 0.0000
# 2 38.6003 118.4062 56.6913 0.0000 -14.2748 0.0000
# 3 56.0779 56.6913 150.6478 0.0000 -13.4451 0.0000
# 4 0.0000 0.0000 0.0000 57.6182 0.0000 -1.4848
# 5 -17.0546 -14.2748 -13.4451 0.0000 51.4944 0.0000
# 6 0.0000 0.0000 0.0000 -1.4848 0.0000 48.0014
#
#
#
# Elastic Compliance Matrix: (Units=1/GPa)
#
#
# Indices 1 2 3 4 5 6 
#
# 1 0.022831 -0.003660 -0.006693 0.000000 0.004799 0.000000
# 2 -0.003660 0.011071 -0.002701 0.000000 0.001152 0.000000
# 3 -0.006693 -0.002701 0.010117 0.000000 -0.000324 0.000000
# 4 0.000000 0.000000 0.000000 0.017369 0.000000 0.000537
# 5 0.004799 0.001152 -0.000324 0.000000 0.021244 0.000000
# 6 0.000000 0.000000 0.000000 0.000537 0.000000 0.020849
#
#
# Mechanical properties :
#
#
# Convention : Reuss Voigt Hill
#
# Bulk Modulus (GPa) = 55.83172 71.31168 63.57170
# Shear Modulus (GPa) = 36.88421 43.93593 40.41007
#
# Velocity S-wave (km/s) = 4.06890 4.44086 4.25894
# Velocity P-wave (km/s) = 6.86553 7.63572 7.26084
#
# Compressibility (1/GPa) = 0.01791097
#
# Stress axis : x y z
#
# Youngs Moduli (GPa) = 43.79986 90.32953 98.84333
#
# Poissons Ratio (x) = 0.33058 0.66158
# Poissons Ratio (y) = 0.16029 0.26697
# Poissons Ratio (z) = 0.29316 0.24398
#
# Static dielectric constant tensor:
#      x y z
#    x 1.880740 0.000000 -0.175850 
#    y 0.000000 1.788120 0.000000 
#    z -0.175850 0.000000 1.710370 
# 
# From -- ./inp_files/186196.got.cif
#   From: 2010.05.17/outbox.cif.g08.bks.cpg/sg15_94_cif.got.tgz:186196.got - 2010.06.03 18:47:42.
