data_PCOD9305921
_publ_section_title
;
Structure prediction by ZEFSAII (Michael W. Deem and Ramdas Pophale) SiO2 
 PCOD9305921
Probable space group: C 2/C
;
_chemical_formula_sum "Si O2"
_cell_formula_units_Z 32
_cell_length_a 22.949137
_cell_length_b 7.148846
_cell_length_c 14.560196
_cell_angle_alpha 90.000000
_cell_angle_beta 28.102764
_cell_angle_gamma 90.000000
_cell_volume 1125.228228
_symmetry_space_group_name_H-M "C 2/C"
_symmetry_group_IT_number 15
_symmetry_cell_setting 'monoclinic'
loop_
_space_group_symop_operation_xyz
x,y,z
-x,y,1/2-z
-x,-y,-z
x,-y,1/2+z
1/2+x,1/2+y,z
1/2-x,1/2+y,1/2-z
1/2-x,1/2-y,-z
1/2+x,1/2-y,1/2+z
loop_
_atom_site_type_symbol
_atom_site_label
_atom_site_fract_x
_atom_site_fract_y
_atom_site_fract_z
Si Si1 0.945584 0.868009 0.996644
Si Si2 0.183727 0.021840 0.078226
Si Si3 0.814164 0.474171 0.221412
Si Si4 0.629536 0.135296 0.047886
O O1 0.890451 0.669102 0.109662
O O2 0.059314 0.863204 0.767102
O O3 0.828296 0.965759 0.113252
O O4 0.000000 0.000000 0.000000
O O5 0.140819 0.823808 0.092448
O O6 0.290998 0.087067 0.858030
O O7 0.255657 0.983618 0.073550
O O8 0.872383 0.350856 0.059635
O O9 0.500000 0.042389 0.250000
#
# Coordination Sequence:
#
# PCOD9305921 Si02
#       4
#     8   8   8   8
#     4  12  25  50  84 117 166 215 274 336 413 485
#     4  11  24  48  81 108 163 217 257 348 402 476
#     4  12  25  48  80 123 155 215 272 335 409 492
#     4  11  24  48  77 114 157 213 276 323 416 484
#
# _framework density 28.438676999999998
#
# number of rings (size 3 to 8) (size 9 to 14) (size 15 to 20)
#    0.000    0.500    5.000    3.750    0.000    3.000 
#    4.500    2.500    0.000    0.000    0.000    0.000 
#    0.000    0.000    0.000    0.000    0.000    0.000 
#
# Total GULP energy -89561.072072 kJ/mol
# GULP energy per Si atom -5597.567004 kJ/mol
# Density = 2.837395 g / cm^3
# Si number density = 28.438677 Si / 1000 Ang^3
#
#
#
# Elastic Constant Matrix: (Units=GPa)
#
#
# Indices 1 2 3 4 5 6 
#
# 1 110.3222 24.5149 38.7838 -0.0009 0.6041 -0.0001
# 2 24.5149 139.6520 55.1623 -0.0014 -15.0291 0.0011
# 3 38.7838 55.1623 249.2458 -0.0012 9.2327 0.0007
# 4 -0.0009 -0.0014 -0.0012 21.3243 0.0005 -11.1774
# 5 0.6041 -15.0291 9.2327 0.0005 60.0132 -0.0002
# 6 -0.0001 0.0011 0.0007 -11.1774 -0.0002 50.5202
#
#
#
# Elastic Compliance Matrix: (Units=1/GPa)
#
#
# Indices 1 2 3 4 5 6 
#
# 1 0.009778 -0.001252 -0.001236 0.000000 -0.000222 0.000000
# 2 -0.001252 0.008320 -0.001734 0.000000 0.002363 0.000000
# 3 -0.001236 -0.001734 0.004630 0.000000 -0.001134 0.000000
# 4 0.000000 0.000000 0.000000 0.053047 0.000000 0.011736
# 5 -0.000222 0.002363 -0.001134 0.000000 0.017431 0.000000
# 6 0.000000 0.000000 0.000000 0.011736 0.000000 0.022391
#
#
# Mechanical properties :
#
#
# Convention : Reuss Voigt Hill
#
# Bulk Modulus (GPa) = 70.00993 81.79357 75.90175
# Shear Modulus (GPa) = 38.81902 51.75548 45.28725
#
# Velocity S-wave (km/s) = 3.69861 4.27065 3.99488
# Velocity P-wave (km/s) = 6.55064 7.28984 6.93011
#
# Compressibility (1/GPa) = 0.01428369
#
# Stress axis : x y z
#
# Youngs Moduli (GPa) = 102.26617 120.19732 215.97168
#
# Poissons Ratio (x) = 0.15050 0.26699
# Poissons Ratio (y) = 0.12805 0.37449
# Poissons Ratio (z) = 0.12643 0.20842
#
# Static dielectric constant tensor:
#      x y z
#    x 2.133690 0.000000 0.086510 
#    y 0.000000 2.277530 0.000000 
#    z 0.086510 0.000000 2.289190 
# 
# From -- ./inp_files/172220.got.cif
#   From: 2010.05.17/outbox.cif.g08.bks.cpg/sg15_87_cif.got.tgz:172220.got - 2010.06.03 18:47:42.
