data_PCOD9305740
_publ_section_title
;
Structure prediction by ZEFSAII (Michael W. Deem and Ramdas Pophale) SiO2 
 PCOD9305740
Probable space group: C 2/C
;
_chemical_formula_sum "Si O2"
_cell_formula_units_Z 44
_cell_length_a 24.920303
_cell_length_b 9.023687
_cell_length_c 14.861777
_cell_angle_alpha 90.000000
_cell_angle_beta 31.750286
_cell_angle_gamma 90.000000
_cell_volume 1758.627744
_symmetry_space_group_name_H-M "C 2/C"
_symmetry_group_IT_number 15
_symmetry_cell_setting 'monoclinic'
loop_
_space_group_symop_operation_xyz
x,y,z
-x,y,1/2-z
-x,-y,-z
x,-y,1/2+z
1/2+x,1/2+y,z
1/2-x,1/2+y,1/2-z
1/2-x,1/2-y,-z
1/2+x,1/2-y,1/2+z
loop_
_atom_site_type_symbol
_atom_site_label
_atom_site_fract_x
_atom_site_fract_y
_atom_site_fract_z
Si Si1 0.086809 0.381723 0.351395
Si Si2 0.142751 0.647169 0.562247
Si Si3 0.370625 0.558558 0.198977
Si Si4 0.639105 0.322075 0.136974
Si Si5 0.500000 0.907988 0.750000
Si Si6 0.182407 0.951700 0.421384
O O1 0.106207 0.373205 0.216181
O O2 0.056853 0.694622 0.239909
O O3 0.195692 0.427067 0.240735
O O4 0.000000 0.500000 0.500000
O O5 0.127291 0.807575 0.541748
O O6 0.261909 0.618135 0.389146
O O7 0.085849 0.517922 0.589301
O O8 0.397240 0.441065 0.237840
O O9 0.434837 0.708803 0.095521
O O10 0.350294 0.478417 0.133831
O O11 0.750000 0.250000 0.000000
O O12 0.652233 0.407764 0.024224
#
# Coordination Sequence:
#
# PCOD9305740 Si02
#       6
#     8   8   8   8   4   8
#     4  11  24  46  80 121 163 218 283 337 412 512
#     4  11  24  50  77 113 161 218 274 340 413 493
#     4  11  24  48  80 117 166 216 272 345 422 492
#     4  12  25  50  77 119 165 212 271 346 411 496
#     4  12  28  44  86 112 148 218 272 328 424 486
#     4  11  25  48  80 109 168 220 263 340 428 477
#
# _framework density 25.019507000000001
#
# number of rings (size 3 to 8) (size 9 to 14) (size 15 to 20)
#    0.000    0.727    5.455    1.091   10.182    0.727 
#    0.000    1.818    0.000    0.000    0.000    0.000 
#    0.000    0.000    0.000    0.000    0.000    0.000 
#
# Total GULP energy -123379.444321 kJ/mol
# GULP energy per Si atom -5608.156560 kJ/mol
# Density = 2.496256 g / cm^3
# Si number density = 25.019507 Si / 1000 Ang^3
#
#
#
# Elastic Constant Matrix: (Units=GPa)
#
#
# Indices 1 2 3 4 5 6 
#
# 1 100.7715 46.4364 38.1393 0.0000 -0.2084 0.0000
# 2 46.4364 162.6463 49.6065 -0.0001 -19.1991 0.0001
# 3 38.1393 49.6065 121.8555 0.0000 5.0328 0.0000
# 4 0.0000 -0.0001 0.0000 48.7992 0.0000 -11.8191
# 5 -0.2084 -19.1991 5.0328 0.0000 48.3990 -0.0001
# 6 0.0000 0.0001 0.0000 -11.8191 -0.0001 48.8180
#
#
#
# Elastic Compliance Matrix: (Units=1/GPa)
#
#
# Indices 1 2 3 4 5 6 
#
# 1 0.012203 -0.002762 -0.002663 0.000000 -0.000766 0.000000
# 2 -0.002762 0.008139 -0.002593 0.000000 0.003486 0.000000
# 3 -0.002663 -0.002593 0.010182 0.000000 -0.002099 0.000000
# 4 0.000000 0.000000 0.000000 0.021769 0.000000 0.005270
# 5 -0.000766 0.003486 -0.002099 0.000000 0.022260 0.000000
# 6 0.000000 0.000000 0.000000 0.005270 0.000000 0.021760
#
#
# Mechanical properties :
#
#
# Convention : Reuss Voigt Hill
#
# Bulk Modulus (GPa) = 69.02415 72.62641 70.82528
# Shear Modulus (GPa) = 42.67008 45.94266 44.30637
#
# Velocity S-wave (km/s) = 4.13422 4.28982 4.21274
# Velocity P-wave (km/s) = 7.10190 7.32310 7.21335
#
# Compressibility (1/GPa) = 0.01448768
#
# Stress axis : x y z
#
# Youngs Moduli (GPa) = 81.94982 122.86087 98.21016
#
# Poissons Ratio (x) = 0.33935 0.26155
# Poissons Ratio (y) = 0.22635 0.25465
# Poissons Ratio (z) = 0.21825 0.31857
#
# Static dielectric constant tensor:
#      x y z
#    x 1.996330 0.000000 -0.029850 
#    y 0.000000 1.988220 0.000000 
#    z -0.029850 0.000000 1.980340 
# 
# From -- ./inp_files/176094.got.cif
#   From: 2010.05.17/outbox.cif.g08.bks.cpg/sg15_89_cif.got.tgz:176094.got - 2010.06.03 18:47:42.
