data_PCOD9305417
_publ_section_title
;
Structure prediction by ZEFSAII (Michael W. Deem and Ramdas Pophale) SiO2 
 PCOD9305417
Probable space group: C 2/C
;
_chemical_formula_sum "Si O2"
_cell_formula_units_Z 48
_cell_length_a 17.358070
_cell_length_b 15.133452
_cell_length_c 14.045329
_cell_angle_alpha 90.000000
_cell_angle_beta 35.551762
_cell_angle_gamma 90.000000
_cell_volume 2145.235229
_symmetry_space_group_name_H-M "C 2/C"
_symmetry_group_IT_number 15
_symmetry_cell_setting 'monoclinic'
loop_
_space_group_symop_operation_xyz
x,y,z
-x,y,1/2-z
-x,-y,-z
x,-y,1/2+z
1/2+x,1/2+y,z
1/2-x,1/2+y,1/2-z
1/2-x,1/2-y,-z
1/2+x,1/2-y,1/2+z
loop_
_atom_site_type_symbol
_atom_site_label
_atom_site_fract_x
_atom_site_fract_y
_atom_site_fract_z
Si Si1 0.770801 0.406050 0.275895
Si Si2 0.925393 0.270614 0.679391
Si Si3 0.394400 0.041804 0.287389
Si Si4 0.516869 0.424197 0.841588
Si Si5 0.830801 0.215765 0.192892
Si Si6 0.819416 0.905357 0.345825
O O1 0.856359 0.482981 0.236021
O O2 0.620671 0.415149 0.464396
O O3 0.824371 0.310021 0.252691
O O4 0.764673 0.408334 0.167723
O O5 0.953557 0.363917 0.698175
O O6 0.810250 0.291237 0.717673
O O7 0.868066 0.195146 0.806337
O O8 0.052781 0.228427 0.501401
O O9 0.500000 0.995530 0.250000
O O10 0.263747 0.062004 0.480843
O O11 0.500000 0.392865 0.750000
O O12 0.627869 0.366057 0.783403
O O13 0.562472 0.525727 0.790746
#
# Coordination Sequence:
#
# PCOD9305417 Si02
#       6
#     8   8   8   8   8   8
#     4  11  25  47  67 102 138 180 233 283 347 408
#     4  11  25  44  73 104 141 179 228 283 349 408
#     4  12  26  44  67 106 142 179 229 284 350 407
#     4  12  24  44  71 102 134 180 239 281 341 413
#     4  11  24  46  72 101 139 186 226 286 347 403
#     4  11  24  44  74  99 136 182 229 284 339 413
#
# _framework density 22.375167999999999
#
# number of rings (size 3 to 8) (size 9 to 14) (size 15 to 20)
#    0.000    0.667    5.000    4.000    2.333    6.000 
#    0.000    0.000    0.000    0.000    0.000    0.000 
#    0.000    0.000    0.000    0.000    0.000    0.000 
#
# Total GULP energy -134396.227476 kJ/mol
# GULP energy per Si atom -5599.842812 kJ/mol
# Density = 2.232424 g / cm^3
# Si number density = 22.375168 Si / 1000 Ang^3
#
#
#
# Elastic Constant Matrix: (Units=GPa)
#
#
# Indices 1 2 3 4 5 6 
#
# 1 63.4951 21.5077 -7.3887 0.0000 13.0853 0.0000
# 2 21.5077 78.5170 -6.0672 0.0000 -7.5887 0.0000
# 3 -7.3887 -6.0672 68.4616 0.0000 -2.6261 0.0000
# 4 0.0000 0.0000 0.0000 13.5010 0.0000 -0.5978
# 5 13.0853 -7.5887 -2.6261 0.0000 18.2361 0.0000
# 6 0.0000 0.0000 0.0000 -0.5978 0.0000 -31.7223
#
#
#
# Elastic Compliance Matrix: (Units=1/GPa)
#
#
# Indices 1 2 3 4 5 6 
#
# 1 0.022554 -0.007973 0.000985 0.000000 -0.019360 0.000000
# 2 -0.007973 0.016222 0.001061 0.000000 0.012625 0.000000
# 3 0.000985 0.001061 0.014879 0.000000 0.001878 0.000000
# 4 0.000000 0.000000 0.000000 0.074007 0.000000 -0.001395
# 5 -0.019360 0.012625 0.001878 0.000000 0.074252 0.000000
# 6 0.000000 0.000000 0.000000 -0.001395 0.000000 -0.031497
#
#
# Mechanical properties :
#
#
# Convention : Reuss Voigt Hill
#
# Bulk Modulus (GPa) = 23.92222 25.17526 24.54874
# Shear Modulus (GPa) = 25.48351 13.49774 19.49063
#
# Velocity S-wave (km/s) = 3.37845 2.45877 2.95461
# Velocity P-wave (km/s) = 5.09246 4.39734 4.75761
#
# Compressibility (1/GPa) = 0.04180213
#
# Stress axis : x y z
#
# Youngs Moduli (GPa) = 44.33721 61.64324 67.20825
#
# Poissons Ratio (x) = 0.49150 -0.06620
# Poissons Ratio (y) = 0.35351 -0.07134
# Poissons Ratio (z) = -0.04367 -0.06543
#
# Static dielectric constant tensor:
#      x y z
#    x 1.850540 0.000000 -0.015480 
#    y 0.000000 1.813790 0.000000 
#    z -0.015480 0.000000 1.817360 
# 
# From -- ./inp_files/162143.got.cif
#   From: 2010.05.17/outbox.cif.g08.bks.cpg/sg15_82_cif.got.tgz:162143.got - 2010.06.03 18:47:42.
