data_PCOD9305288
_publ_section_title
;
Structure prediction by ZEFSAII (Michael W. Deem and Ramdas Pophale) SiO2 
 PCOD9305288
Probable space group: C 2/C
;
_chemical_formula_sum "Si O2"
_cell_formula_units_Z 60
_cell_length_a 22.579122
_cell_length_b 25.750592
_cell_length_c 15.664464
_cell_angle_alpha 90.000000
_cell_angle_beta 162.512107
_cell_angle_gamma 90.000000
_cell_volume 2736.909570
_symmetry_space_group_name_H-M "C 2/C"
_symmetry_group_IT_number 15
_symmetry_cell_setting 'monoclinic'
loop_
_space_group_symop_operation_xyz
x,y,z
-x,y,1/2-z
-x,-y,-z
x,-y,1/2+z
1/2+x,1/2+y,z
1/2-x,1/2+y,1/2-z
1/2-x,1/2-y,-z
1/2+x,1/2-y,1/2+z
loop_
_atom_site_type_symbol
_atom_site_label
_atom_site_fract_x
_atom_site_fract_y
_atom_site_fract_z
Si Si1 0.162222 0.214402 0.134427
Si Si2 0.028765 0.448825 0.094891
Si Si3 0.001743 0.677888 0.353873
Si Si4 0.000000 0.559363 0.750000
Si Si5 0.385591 0.789524 0.237602
Si Si6 0.694564 0.622274 0.052441
Si Si7 0.799625 0.864894 0.384340
Si Si8 0.213870 0.854547 0.871033
O O1 0.394493 0.228263 0.441497
O O2 0.120453 0.168922 0.010457
O O3 0.156033 0.187860 0.219776
O O4 0.029298 0.263838 0.929454
O O5 0.040511 0.463865 0.211277
O O6 0.216292 0.414898 0.319542
O O7 0.845378 0.411576 0.815881
O O8 0.000000 0.500000 0.000000
O O9 0.186163 0.643233 0.639184
O O10 0.000000 0.680827 0.250000
O O11 0.818895 0.649146 0.147283
O O12 0.799676 0.592005 0.455120
O O13 0.271271 0.814247 0.159571
O O14 0.250000 0.750000 0.000000
O O15 0.391608 0.835885 0.177354
O O16 0.500000 0.594080 0.750000
O O17 0.028099 0.863241 0.677403
#
# Coordination Sequence:
#
# PCOD9305288 Si02
#       8
#     8   8   8   4   8   8   8   8
#     4  12  23  42  62  98 141 193 236 282 348 425
#     4  11  25  53  77 107 143 177 237 304 369 432
#     4  11  26  42  61  95 135 192 247 286 341 409
#     4  12  22  48  78 102 138 190 218 300 374 432
#     4  12  22  40  61  99 144 187 228 285 356 421
#     4  11  25  48  70  95 143 192 239 299 355 422
#     4  11  24  44  67 100 141 179 233 304 343 422
#     4  12  22  39  68  99 139 179 224 280 365 420
#
# _framework density 21.922536999999998
#
# number of rings (size 3 to 8) (size 9 to 14) (size 15 to 20)
#    0.000    0.533    6.667    2.400    3.733    2.133 
#    7.200    0.667    0.000    0.000    0.000    0.000 
#    0.000    0.000    0.000    0.000    0.000    0.000 
#
# Total GULP energy -167632.021876 kJ/mol
# GULP energy per Si atom -5587.734063 kJ/mol
# Density = 2.187264 g / cm^3
# Si number density = 21.922537 Si / 1000 Ang^3
#
#
#
# Elastic Constant Matrix: (Units=GPa)
#
#
# Indices 1 2 3 4 5 6 
#
# 1 176.1172 47.1241 38.7197 0.0000 -21.6764 0.0000
# 2 47.1241 69.9763 12.7713 0.0000 -1.8179 0.0000
# 3 38.7197 12.7713 101.2378 -0.0001 2.5666 0.0001
# 4 0.0000 0.0000 -0.0001 16.5578 0.0000 -12.3302
# 5 -21.6764 -1.8179 2.5666 0.0000 40.3372 0.0000
# 6 0.0000 0.0000 0.0001 -12.3302 0.0000 28.0969
#
#
#
# Elastic Compliance Matrix: (Units=1/GPa)
#
#
# Indices 1 2 3 4 5 6 
#
# 1 0.008072 -0.004853 -0.002584 0.000000 0.004283 0.000000
# 2 -0.004853 0.017569 -0.000315 0.000000 -0.001796 0.000000
# 3 -0.002584 -0.000315 0.010959 0.000000 -0.002100 0.000000
# 4 0.000000 0.000000 0.000000 0.089712 0.000000 0.039370
# 5 0.004283 -0.001796 -0.002100 0.000000 0.027145 0.000000
# 6 0.000000 0.000000 0.000000 0.039370 0.000000 0.052868
#
#
# Mechanical properties :
#
#
# Convention : Reuss Voigt Hill
#
# Bulk Modulus (GPa) = 47.39916 60.50683 53.95299
# Shear Modulus (GPa) = 21.84734 33.57947 27.71341
#
# Velocity S-wave (km/s) = 3.16027 3.91798 3.55935
# Velocity P-wave (km/s) = 5.91478 6.93741 6.44640
#
# Compressibility (1/GPa) = 0.02109742
#
# Stress axis : x y z
#
# Youngs Moduli (GPa) = 123.88929 56.91689 91.25108
#
# Poissons Ratio (x) = 0.27621 0.23575
# Poissons Ratio (y) = 0.60123 0.02873
# Poissons Ratio (z) = 0.32007 0.01792
#
# Static dielectric constant tensor:
#      x y z
#    x 1.857520 0.000000 -0.020640 
#    y 0.000000 1.857840 0.000000 
#    z -0.020640 0.000000 1.829000 
# 
# From -- ./inp_files/169969.got.cif
#   From: 2010.05.17/outbox.cif.g08.bks.cpg/sg15_85_cif.got.tgz:169969.got - 2010.06.03 18:47:42.
