data_PCOD9305071
_publ_section_title
;
Structure prediction by ZEFSAII (Michael W. Deem and Ramdas Pophale) SiO2 
 PCOD9305071
Probable space group: C 2/C
;
_chemical_formula_sum "Si O2"
_cell_formula_units_Z 32
_cell_length_a 22.657796
_cell_length_b 8.041032
_cell_length_c 18.474565
_cell_angle_alpha 90.000000
_cell_angle_beta 156.609704
_cell_angle_gamma 90.000000
_cell_volume 1336.244464
_symmetry_space_group_name_H-M "C 2/C"
_symmetry_group_IT_number 15
_symmetry_cell_setting 'monoclinic'
loop_
_space_group_symop_operation_xyz
x,y,z
-x,y,1/2-z
-x,-y,-z
x,-y,1/2+z
1/2+x,1/2+y,z
1/2-x,1/2+y,1/2-z
1/2-x,1/2-y,-z
1/2+x,1/2-y,1/2+z
loop_
_atom_site_type_symbol
_atom_site_label
_atom_site_fract_x
_atom_site_fract_y
_atom_site_fract_z
Si Si1 0.189454 0.753567 0.264643
Si Si2 0.139564 0.906101 0.056529
Si Si3 0.974440 0.600644 0.140058
Si Si4 0.638791 0.245507 0.807142
O O1 0.121415 0.827410 0.115254
O O2 0.287343 0.588158 0.358213
O O3 0.068230 0.700079 0.186319
O O4 0.303248 0.884282 0.427094
O O5 0.260201 0.796163 0.148486
O O6 0.979373 0.893627 0.837025
O O7 0.034060 0.414198 0.202396
O O8 0.000000 0.664858 0.250000
O O9 0.750000 0.250000 0.000000
#
# Coordination Sequence:
#
# PCOD9305071 Si02
#       4
#     8   8   8   8
#     4  11  25  42  67  98 130 170 215 267 322 382
#     4  11  24  42  65  97 131 169 217 264 322 384
#     4  11  24  43  66  95 132 169 214 265 322 383
#     4  11  24  43  67  94 131 174 215 264 321 384
#
# _framework density 23.947713
#
# number of rings (size 3 to 8) (size 9 to 14) (size 15 to 20)
#    0.000    1.000    0.000    6.000    0.000   16.000 
#    0.000    0.000    0.000    0.000    0.000    0.000 
#    0.000    0.000    0.000    0.000    0.000    0.000 
#
# Total GULP energy -89730.480265 kJ/mol
# GULP energy per Si atom -5608.155017 kJ/mol
# Density = 2.389321 g / cm^3
# Si number density = 23.947713 Si / 1000 Ang^3
#
#
#
# Elastic Constant Matrix: (Units=GPa)
#
#
# Indices 1 2 3 4 5 6 
#
# 1 140.5355 10.3353 11.8462 0.0000 -8.6652 0.0000
# 2 10.3353 45.5675 -4.6593 0.0000 13.8369 0.0000
# 3 11.8462 -4.6593 95.3387 0.0000 4.8068 0.0000
# 4 0.0000 0.0000 0.0000 46.6609 0.0000 6.6955
# 5 -8.6652 13.8369 4.8068 0.0000 43.2607 0.0000
# 6 0.0000 0.0000 0.0000 6.6955 0.0000 19.0123
#
#
#
# Elastic Compliance Matrix: (Units=1/GPa)
#
#
# Indices 1 2 3 4 5 6 
#
# 1 0.007559 -0.002587 -0.001190 0.000000 0.002474 0.000000
# 2 -0.002587 0.025434 0.002012 0.000000 -0.008877 0.000000
# 3 -0.001190 0.002012 0.010840 0.000000 -0.002086 0.000000
# 4 0.000000 0.000000 0.000000 0.022572 0.000000 -0.007949
# 5 0.002474 -0.008877 -0.002086 0.000000 0.026682 0.000000
# 6 0.000000 0.000000 0.000000 -0.007949 0.000000 0.055397
#
#
# Mechanical properties :
#
#
# Convention : Reuss Voigt Hill
#
# Bulk Modulus (GPa) = 24.81315 35.16510 29.98913
# Shear Modulus (GPa) = 30.22083 39.38142 34.80113
#
# Velocity S-wave (km/s) = 3.55625 4.05961 3.81624
# Velocity P-wave (km/s) = 5.21981 6.05722 5.65404
#
# Compressibility (1/GPa) = 0.04030121
#
# Stress axis : x y z
#
# Youngs Moduli (GPa) = 132.29619 39.31820 92.24789
#
# Poissons Ratio (x) = 0.10173 0.10981
# Poissons Ratio (y) = 0.34230 -0.18560
# Poissons Ratio (z) = 0.15748 -0.07911
#
# Static dielectric constant tensor:
#      x y z
#    x 1.889620 0.000000 0.003380 
#    y 0.000000 1.951960 0.000000 
#    z 0.003380 0.000000 1.883900 
# 
# From -- ./inp_files/36874.got.cif
#   From: 2010.05.17/outbox.cif.g08.bks.cpg/sg15_19_cif.got.tgz:36874.got - 2010.06.03 18:47:42.
