data_PCOD9305400
_publ_section_title
;
Structure prediction by ZEFSAII (Michael W. Deem and Ramdas Pophale) SiO2 
 PCOD9305400
Probable space group: C 2/C
;
_chemical_formula_sum "Si O2"
_cell_formula_units_Z 40
_cell_length_a 17.714561
_cell_length_b 14.093294
_cell_length_c 14.266477
_cell_angle_alpha 90.000000
_cell_angle_beta 28.932106
_cell_angle_gamma 90.000000
_cell_volume 1723.063028
_symmetry_space_group_name_H-M "C 2/C"
_symmetry_group_IT_number 15
_symmetry_cell_setting 'monoclinic'
loop_
_space_group_symop_operation_xyz
x,y,z
-x,y,1/2-z
-x,-y,-z
x,-y,1/2+z
1/2+x,1/2+y,z
1/2-x,1/2+y,1/2-z
1/2-x,1/2-y,-z
1/2+x,1/2-y,1/2+z
loop_
_atom_site_type_symbol
_atom_site_label
_atom_site_fract_x
_atom_site_fract_y
_atom_site_fract_z
Si Si1 0.327678 0.047507 0.189483
Si Si2 0.856835 0.673476 0.836412
Si Si3 0.321859 0.959430 0.903611
Si Si4 0.671080 0.619730 0.749613
Si Si5 0.850626 0.781145 0.651647
O O1 0.281325 0.140038 0.179595
O O2 0.309573 0.086531 0.314803
O O3 0.214270 0.964836 0.275000
O O4 0.500000 0.000000 0.000000
O O5 0.785530 0.568527 0.915769
O O6 0.890170 0.715954 0.698090
O O7 0.000000 0.664771 0.750000
O O8 0.750000 0.750000 0.000000
O O9 0.500000 0.952462 0.750000
O O10 0.207483 0.919811 0.106822
O O11 0.787162 0.706735 0.645090
O O12 0.499508 0.659952 0.954848
#
# Coordination Sequence:
#
# PCOD9305400 Si02
#       5
#     8   8   8   8   8
#     4  12  25  48  76 106 158 203 252 319 385 454
#     4  11  24  44  73 110 145 197 256 311 373 451
#     4  11  25  46  76 105 152 203 253 315 393 457
#     4  12  26  49  75 115 154 199 262 319 387 462
#     4  12  27  47  79 112 154 203 257 319 385 460
#
# _framework density 23.214473000000002
#
# number of rings (size 3 to 8) (size 9 to 14) (size 15 to 20)
#    0.000    0.400    4.000    4.200    2.800    1.600 
#    0.000    0.000    0.000    0.000    0.000    0.000 
#    0.000    0.000    0.000    0.000    0.000    0.000 
#
# Total GULP energy -111902.924407 kJ/mol
# GULP energy per Si atom -5595.146220 kJ/mol
# Density = 2.316164 g / cm^3
# Si number density = 23.214473 Si / 1000 Ang^3
#
#
#
# Elastic Constant Matrix: (Units=GPa)
#
#
# Indices 1 2 3 4 5 6 
#
# 1 117.2767 52.5158 54.2262 0.0004 19.0788 -0.0004
# 2 52.5158 153.0059 49.0144 0.0002 -1.7208 -0.0002
# 3 54.2262 49.0144 130.9499 0.0005 16.4074 -0.0005
# 4 0.0004 0.0002 0.0005 42.8704 -0.0003 -2.2977
# 5 19.0788 -1.7208 16.4074 -0.0003 30.7856 0.0002
# 6 -0.0004 -0.0002 -0.0005 -2.2977 0.0002 49.0751
#
#
#
# Elastic Compliance Matrix: (Units=1/GPa)
#
#
# Indices 1 2 3 4 5 6 
#
# 1 0.012498 -0.003356 -0.003135 0.000000 -0.006262 0.000000
# 2 -0.003356 0.008448 -0.002242 0.000000 0.003747 0.000000
# 3 -0.003135 -0.002242 0.010229 0.000000 -0.003634 0.000000
# 4 0.000000 0.000000 0.000000 0.023385 0.000000 0.001095
# 5 -0.006262 0.003747 -0.003634 0.000000 0.038510 0.000000
# 6 0.000000 0.000000 0.000000 0.001095 0.000000 0.020428
#
#
# Mechanical properties :
#
#
# Convention : Reuss Voigt Hill
#
# Bulk Modulus (GPa) = 72.93911 79.19392 76.06652
# Shear Modulus (GPa) = 36.89169 40.91128 38.90149
#
# Velocity S-wave (km/s) = 3.99076 4.20255 4.09802
# Velocity P-wave (km/s) = 7.26105 7.59847 7.43167
#
# Compressibility (1/GPa) = 0.01371007
#
# Stress axis : x y z
#
# Youngs Moduli (GPa) = 80.01495 118.37412 97.76131
#
# Poissons Ratio (x) = 0.39724 0.30644
# Poissons Ratio (y) = 0.26852 0.21916
# Poissons Ratio (z) = 0.25081 0.26537
#
# Static dielectric constant tensor:
#      x y z
#    x 1.807880 0.000000 0.005800 
#    y 0.000000 1.879280 0.000000 
#    z 0.005800 0.000000 1.912960 
# 
# From -- ./inp_files/162437.got.cif
#   From: 2010.05.17/outbox.cif.g08.bks.cpg/sg15_82_cif.got.tgz:162437.got - 2010.06.03 18:47:42.
