data_PCOD9305950
_publ_section_title
;
Structure prediction by ZEFSAII (Michael W. Deem and Ramdas Pophale) SiO2 
 PCOD9305950
Probable space group: C 2/C
;
_chemical_formula_sum "Si O2"
_cell_formula_units_Z 28
_cell_length_a 7.091626
_cell_length_b 21.801464
_cell_length_c 7.888427
_cell_angle_alpha 90.000000
_cell_angle_beta 127.227599
_cell_angle_gamma 90.000000
_cell_volume 971.102600
_symmetry_space_group_name_H-M "C 2/C"
_symmetry_group_IT_number 15
_symmetry_cell_setting 'monoclinic'
loop_
_space_group_symop_operation_xyz
x,y,z
-x,y,1/2-z
-x,-y,-z
x,-y,1/2+z
1/2+x,1/2+y,z
1/2-x,1/2+y,1/2-z
1/2-x,1/2-y,-z
1/2+x,1/2-y,1/2+z
loop_
_atom_site_type_symbol
_atom_site_label
_atom_site_fract_x
_atom_site_fract_y
_atom_site_fract_z
Si Si1 0.232156 0.741565 0.322018
Si Si2 0.374520 0.934425 0.913168
Si Si3 0.341135 0.389063 0.992217
Si Si4 0.500000 0.156118 0.750000
O O1 0.444177 0.758768 0.591180
O O2 0.324155 0.671428 0.363905
O O3 0.328469 0.795472 0.250800
O O4 0.166971 0.940508 0.660072
O O5 0.590449 0.896414 0.949240
O O6 0.335217 0.892874 0.058029
O O7 0.500000 0.000000 0.000000
O O8 0.500000 0.387562 0.250000
#
# Coordination Sequence:
#
# PCOD9305950 Si02
#       4
#     8   8   8   4
#     4  12  24  46  76 118 168 204 268 351 411 500
#     4  11  25  50  79 115 160 218 282 333 403 503
#     4  11  24  49  76 110 166 209 257 354 416 471
#     4  12  26  46  88 120 154 230 272 330 444 484
#
# _framework density 28.833206000000001
#
# number of rings (size 3 to 8) (size 9 to 14) (size 15 to 20)
#    0.000    0.571    5.714    2.571    0.000    5.714 
#    0.000    0.000    0.000    1.714    3.714    0.000 
#    0.000    0.000    0.000    0.000    0.000    0.000 
#
# Total GULP energy -77977.175941 kJ/mol
# GULP energy per Si atom -5569.798281 kJ/mol
# Density = 2.876758 g / cm^3
# Si number density = 28.833206 Si / 1000 Ang^3
#
#
#
# Elastic Constant Matrix: (Units=GPa)
#
#
# Indices 1 2 3 4 5 6 
#
# 1 85.6104 50.0791 73.1678 0.0000 22.2540 0.0000
# 2 50.0791 222.9131 108.2565 0.0000 -14.9224 0.0000
# 3 73.1678 108.2565 318.4223 0.0000 16.8150 0.0000
# 4 0.0000 0.0000 0.0000 57.8179 0.0000 5.9460
# 5 22.2540 -14.9224 16.8150 0.0000 47.0157 0.0000
# 6 0.0000 0.0000 0.0000 5.9460 0.0000 6.9740
#
#
#
# Elastic Compliance Matrix: (Units=1/GPa)
#
#
# Indices 1 2 3 4 5 6 
#
# 1 0.018133 -0.003428 -0.002539 0.000000 -0.008763 0.000000
# 2 -0.003428 0.006302 -0.001576 0.000000 0.004186 0.000000
# 3 -0.002539 -0.001576 0.004304 0.000000 -0.000838 0.000000
# 4 0.000000 0.000000 0.000000 0.018958 0.000000 -0.016163
# 5 -0.008763 0.004186 -0.000838 0.000000 0.027046 0.000000
# 6 0.000000 0.000000 0.000000 -0.016163 0.000000 0.157171
#
#
# Mechanical properties :
#
#
# Convention : Reuss Voigt Hill
#
# Bulk Modulus (GPa) = 73.23502 121.10584 97.17043
# Shear Modulus (GPa) = 19.87686 48.72434 34.30060
#
# Velocity S-wave (km/s) = 2.62844 4.11526 3.45283
# Velocity P-wave (km/s) = 5.88781 8.04201 7.04770
#
# Compressibility (1/GPa) = 0.01365467
#
# Stress axis : x y z
#
# Youngs Moduli (GPa) = 55.14677 158.68971 232.35071
#
# Poissons Ratio (x) = 0.54391 0.58987
# Poissons Ratio (y) = 0.18902 0.36616
# Poissons Ratio (z) = 0.14000 0.25008
#
# Static dielectric constant tensor:
#      x y z
#    x 2.427650 0.000000 -0.123810 
#    y 0.000000 2.250700 0.000000 
#    z -0.123810 0.000000 2.653800 
# 
# From -- ./inp_files/24834.got.cif
#   From: 2010.05.17/outbox.cif.g08.bks.cpg/sg15_13_cif.got.tgz:24834.got - 2010.06.03 18:47:42.
