data_PCOD9305403
_publ_section_title
;
Structure prediction by ZEFSAII (Michael W. Deem and Ramdas Pophale) SiO2 
 PCOD9305403
Probable space group: C 2/C
;
_chemical_formula_sum "Si O2"
_cell_formula_units_Z 44
_cell_length_a 7.859304
_cell_length_b 16.851215
_cell_length_c 16.191669
_cell_angle_alpha 90.000000
_cell_angle_beta 93.381384
_cell_angle_gamma 90.000000
_cell_volume 2140.672245
_symmetry_space_group_name_H-M "C 2/C"
_symmetry_group_IT_number 15
_symmetry_cell_setting 'monoclinic'
loop_
_space_group_symop_operation_xyz
x,y,z
-x,y,1/2-z
-x,-y,-z
x,-y,1/2+z
1/2+x,1/2+y,z
1/2-x,1/2+y,1/2-z
1/2-x,1/2-y,-z
1/2+x,1/2-y,1/2+z
loop_
_atom_site_type_symbol
_atom_site_label
_atom_site_fract_x
_atom_site_fract_y
_atom_site_fract_z
Si Si1 0.309966 0.410210 0.210344
Si Si2 0.120092 0.928975 0.475273
Si Si3 0.635034 0.256720 0.681928
Si Si4 0.888197 0.625273 0.111718
Si Si5 0.047461 0.757502 0.999135
Si Si6 0.000000 0.513618 0.250000
O O1 0.500000 0.418017 0.250000
O O2 0.315719 0.438500 0.115847
O O3 0.248623 0.319117 0.208301
O O4 0.168897 0.459787 0.256082
O O5 0.278442 0.922543 0.541801
O O6 0.017829 0.845274 0.478213
O O7 0.000000 0.000000 0.500000
O O8 0.500000 0.271333 0.750000
O O9 0.754919 0.331884 0.669272
O O10 0.539005 0.239904 0.592239
O O11 0.004346 0.568710 0.169436
O O12 0.981506 0.694973 0.064623
O O13 0.250000 0.750000 0.000000
#
# Coordination Sequence:
#
# PCOD9305403 Si02
#       6
#     8   8   8   8   8   4
#     4  12  26  46  70 103 142 180 239 294 351 416
#     4  11  24  45  71  98 138 183 229 291 351 415
#     4  11  24  44  74 101 136 184 239 286 348 425
#     4  11  25  48  66 102 142 182 230 294 345 423
#     4  11  25  44  70 105 137 186 237 281 356 423
#     4  12  30  44  70 108 138 186 240 288 364 412
#
# _framework density 20.554290000000002
#
# number of rings (size 3 to 8) (size 9 to 14) (size 15 to 20)
#    0.000    0.727    4.545    2.182    8.909    4.364 
#    0.000    0.000    0.000    0.000    0.000    0.000 
#    0.000    0.000    0.000    0.000    0.000    0.000 
#
# Total GULP energy -123159.949560 kJ/mol
# GULP energy per Si atom -5598.179525 kJ/mol
# Density = 2.050751 g / cm^3
# Si number density = 20.554290 Si / 1000 Ang^3
#
#
#
# Elastic Constant Matrix: (Units=GPa)
#
#
# Indices 1 2 3 4 5 6 
#
# 1 117.9981 31.4366 28.7354 0.0000 3.3435 0.0000
# 2 31.4366 68.5018 39.8472 0.0000 13.6433 0.0000
# 3 28.7354 39.8472 80.9769 0.0000 -14.7828 0.0000
# 4 0.0000 0.0000 0.0000 4.0280 0.0000 -8.2865
# 5 3.3435 13.6433 -14.7828 0.0000 42.6207 0.0000
# 6 0.0000 0.0000 0.0000 -8.2865 0.0000 19.5454
#
#
#
# Elastic Compliance Matrix: (Units=1/GPa)
#
#
# Indices 1 2 3 4 5 6 
#
# 1 0.009839 -0.003319 -0.001927 0.000000 -0.000378 0.000000
# 2 -0.003319 0.027481 -0.014844 0.000000 -0.013685 0.000000
# 3 -0.001927 -0.014844 0.022668 0.000000 0.012765 0.000000
# 4 0.000000 0.000000 0.000000 1.942607 0.000000 0.823595
# 5 -0.000378 -0.013685 0.012765 0.000000 0.032301 0.000000
# 6 0.000000 0.000000 0.000000 0.823595 0.000000 0.400337
#
#
# Mechanical properties :
#
#
# Convention : Reuss Voigt Hill
#
# Bulk Modulus (GPa) = 50.48356 51.94615 51.21486
# Shear Modulus (GPa) = 2.01449 24.40267 13.20858
#
# Velocity S-wave (km/s) = 0.99107 3.44936 2.53774
# Velocity P-wave (km/s) = 5.09156 6.41807 5.79291
#
# Compressibility (1/GPa) = 0.01980843
#
# Stress axis : x y z
#
# Youngs Moduli (GPa) = 101.63666 36.38833 44.11569
#
# Poissons Ratio (x) = 0.12077 0.08502
# Poissons Ratio (y) = 0.33732 0.65484
# Poissons Ratio (z) = 0.19588 0.54013
#
# Static dielectric constant tensor:
#      x y z
#    x 1.697750 0.000000 -0.035170 
#    y 0.000000 1.702790 0.000000 
#    z -0.035170 0.000000 1.620050 
# 
# From -- ./inp_files/134441.got.cif
#   From: 2010.05.17/outbox.cif.g08.bks.cpg/sg15_68_cif.got.tgz:134441.got - 2010.06.03 18:47:42.
