data_PCOD9305286
_publ_section_title
;
Structure prediction by ZEFSAII (Michael W. Deem and Ramdas Pophale) SiO2 
 PCOD9305286
Probable space group: C 2/C
;
_chemical_formula_sum "Si O2"
_cell_formula_units_Z 36
_cell_length_a 11.942437
_cell_length_b 24.521935
_cell_length_c 8.313909
_cell_angle_alpha 90.000000
_cell_angle_beta 46.088136
_cell_angle_gamma 90.000000
_cell_volume 1754.006498
_symmetry_space_group_name_H-M "C 2/C"
_symmetry_group_IT_number 15
_symmetry_cell_setting 'monoclinic'
loop_
_space_group_symop_operation_xyz
x,y,z
-x,y,1/2-z
-x,-y,-z
x,-y,1/2+z
1/2+x,1/2+y,z
1/2-x,1/2+y,1/2-z
1/2-x,1/2-y,-z
1/2+x,1/2-y,1/2+z
loop_
_atom_site_type_symbol
_atom_site_label
_atom_site_fract_x
_atom_site_fract_y
_atom_site_fract_z
Si Si1 0.783479 0.418578 0.600445
Si Si2 0.709708 0.728152 0.862113
Si Si3 0.500000 0.349187 0.750000
Si Si4 0.477983 0.173507 0.082245
Si Si5 0.879828 0.486072 0.760350
O O1 0.640142 0.384651 0.678644
O O2 0.916685 0.376725 0.531713
O O3 0.747878 0.453370 0.798490
O O4 0.826520 0.461668 0.415752
O O5 0.649558 0.778452 0.816265
O O6 0.858317 0.696210 0.647641
O O7 0.750000 0.750000 0.000000
O O8 0.567073 0.687532 0.038856
O O9 0.500000 0.163540 0.250000
O O10 0.000000 0.452283 0.750000
O O11 0.000000 0.500000 0.500000
#
# Coordination Sequence:
#
# PCOD9305286 Si02
#       5
#     8   8   4   8   8
#     4  11  24  44  67 100 135 185 231 284 353 403
#     4  12  23  43  70 107 141 182 233 276 345 428
#     4  12  26  40  72 102 136 188 226 276 352 418
#     4  12  25  43  74 104 143 184 228 291 347 415
#     4   9  21  39  67  94 125 167 231 286 331 407
#
# _framework density 20.524439000000001
#
# number of rings (size 3 to 8) (size 9 to 14) (size 15 to 20)
#    0.000    0.889    4.444    1.333    9.333    0.889 
#    0.000    0.000    0.000    0.000    0.000    0.000 
#    0.000    0.000    0.000    0.000    0.000    0.000 
#
# Total GULP energy -100352.372855 kJ/mol
# GULP energy per Si atom -5575.131825 kJ/mol
# Density = 2.047772 g / cm^3
# Si number density = 20.524439 Si / 1000 Ang^3
#
#
#
# Elastic Constant Matrix: (Units=GPa)
#
#
# Indices 1 2 3 4 5 6 
#
# 1 111.8045 71.6984 31.6511 0.0000 20.0578 0.0000
# 2 71.6984 151.6143 54.1163 0.0000 5.1278 0.0000
# 3 31.6511 54.1163 93.0805 0.0000 6.2363 0.0000
# 4 0.0000 0.0000 0.0000 33.1670 0.0000 -3.7635
# 5 20.0578 5.1278 6.2363 0.0000 31.4109 0.0000
# 6 0.0000 0.0000 0.0000 -3.7635 0.0000 39.7968
#
#
#
# Elastic Compliance Matrix: (Units=1/GPa)
#
#
# Indices 1 2 3 4 5 6 
#
# 1 0.014756 -0.006442 -0.000721 0.000000 -0.008228 0.000000
# 2 -0.006442 0.011141 -0.004500 0.000000 0.003189 0.000000
# 3 -0.000721 -0.004500 0.013707 0.000000 -0.001527 0.000000
# 4 0.000000 0.000000 0.000000 0.030478 0.000000 0.002882
# 5 -0.008228 0.003189 -0.001527 0.000000 0.036872 0.000000
# 6 0.000000 0.000000 0.000000 0.002882 0.000000 0.025400
#
#
# Mechanical properties :
#
#
# Convention : Reuss Voigt Hill
#
# Bulk Modulus (GPa) = 61.43637 74.60343 68.01990
# Shear Modulus (GPa) = 31.03555 34.14385 32.58970
#
# Velocity S-wave (km/s) = 3.89283 4.08311 3.98910
# Velocity P-wave (km/s) = 7.08546 7.65876 7.37768
#
# Compressibility (1/GPa) = 0.01627700
#
# Stress axis : x y z
#
# Youngs Moduli (GPa) = 67.77053 89.76098 72.95530
#
# Poissons Ratio (x) = 0.57828 0.05258
# Poissons Ratio (y) = 0.43661 0.32830
# Poissons Ratio (z) = 0.04884 0.40393
#
# Static dielectric constant tensor:
#      x y z
#    x 1.952060 0.000000 0.167530 
#    y 0.000000 1.840310 0.000000 
#    z 0.167530 0.000000 1.902640 
# 
# From -- ./inp_files/33274.got.cif
#   From: 2010.05.17/outbox.cif.g08.bks.cpg/sg15_17_cif.got.tgz:33274.got - 2010.06.03 18:47:42.
