data_PCOD9305124
_publ_section_title
;
Structure prediction by ZEFSAII (Michael W. Deem and Ramdas Pophale) SiO2 
 PCOD9305124
Probable space group: C 2/C
;
_chemical_formula_sum "Si O2"
_cell_formula_units_Z 52
_cell_length_a 8.261253
_cell_length_b 19.668273
_cell_length_c 17.827154
_cell_angle_alpha 90.000000
_cell_angle_beta 130.576187
_cell_angle_gamma 90.000000
_cell_volume 2200.117100
_symmetry_space_group_name_H-M "C 2/C"
_symmetry_group_IT_number 15
_symmetry_cell_setting 'monoclinic'
loop_
_space_group_symop_operation_xyz
x,y,z
-x,y,1/2-z
-x,-y,-z
x,-y,1/2+z
1/2+x,1/2+y,z
1/2-x,1/2+y,1/2-z
1/2-x,1/2-y,-z
1/2+x,1/2-y,1/2+z
loop_
_atom_site_type_symbol
_atom_site_label
_atom_site_fract_x
_atom_site_fract_y
_atom_site_fract_z
Si Si1 0.486545 0.872480 0.335856
Si Si2 0.623300 0.524850 0.712178
Si Si3 0.261036 0.096907 0.146484
Si Si4 0.000000 0.831129 0.750000
Si Si5 0.800455 0.405970 0.960670
Si Si6 0.741234 0.066703 0.527248
Si Si7 0.745095 0.238146 0.299508
O O1 0.500000 0.862265 0.250000
O O2 0.347512 0.941412 0.301292
O O3 0.694911 0.882262 0.450783
O O4 0.365806 0.809199 0.336728
O O5 0.500000 0.504725 0.750000
O O6 0.660902 0.462453 0.667312
O O7 0.475063 0.583093 0.630073
O O8 0.500000 0.102420 0.250000
O O9 0.176850 0.174211 0.126623
O O10 0.259324 0.073692 0.061271
O O11 0.865403 0.871455 0.646046
O O12 0.814424 0.789969 0.737958
O O13 0.777509 0.487255 0.956979
O O14 0.038641 0.394779 0.999486
O O15 0.500000 0.249026 0.250000
#
# Coordination Sequence:
#
# PCOD9305124 Si02
#       7
#     8   8   8   4   8   8   8
#     4  12  26  50  74 110 149 198 253 314 375 454
#     4  12  24  41  74 106 151 191 244 310 375 438
#     4  11  24  43  70 107 151 197 249 307 369 454
#     4  12  26  50  72 106 146 206 242 312 378 448
#     4  11  25  43  76 108 152 191 252 308 377 450
#     4  11  24  42  70 116 142 196 245 309 380 443
#     4  11  26  48  75 106 153 197 256 305 378 454
#
# _framework density 23.635107000000001
#
# number of rings (size 3 to 8) (size 9 to 14) (size 15 to 20)
#    0.000    0.615    2.308    6.000    6.462    1.846 
#    2.769    1.538    0.000    0.000    0.000    0.000 
#    0.000    0.000    0.000    0.000    0.000    0.000 
#
# Total GULP energy -145270.135137 kJ/mol
# GULP energy per Si atom -5587.312890 kJ/mol
# Density = 2.358131 g / cm^3
# Si number density = 23.635107 Si / 1000 Ang^3
#
#
#
# Elastic Constant Matrix: (Units=GPa)
#
#
# Indices 1 2 3 4 5 6 
#
# 1 118.4121 30.6705 39.5931 0.0000 -21.2236 0.0000
# 2 30.6705 86.3613 27.2243 0.0000 -15.0081 0.0000
# 3 39.5931 27.2243 162.3066 0.0000 -20.9772 0.0000
# 4 0.0000 0.0000 0.0000 15.9859 0.0000 -2.5992
# 5 -21.2236 -15.0081 -20.9772 0.0000 46.5841 0.0000
# 6 0.0000 0.0000 0.0000 -2.5992 0.0000 9.9972
#
#
#
# Elastic Compliance Matrix: (Units=1/GPa)
#
#
# Indices 1 2 3 4 5 6 
#
# 1 0.010219 -0.002570 -0.001664 0.000000 0.003079 0.000000
# 2 -0.002570 0.013339 -0.001281 0.000000 0.002550 0.000000
# 3 -0.001664 -0.001281 0.007040 0.000000 0.002000 0.000000
# 4 0.000000 0.000000 0.000000 0.065316 0.000000 0.016982
# 5 0.003079 0.002550 0.002000 0.000000 0.024591 0.000000
# 6 0.000000 0.000000 0.000000 0.016982 0.000000 0.104444
#
#
# Mechanical properties :
#
#
# Convention : Reuss Voigt Hill
#
# Bulk Modulus (GPa) = 51.10127 62.45065 56.77596
# Shear Modulus (GPa) = 20.61850 32.48622 26.55236
#
# Velocity S-wave (km/s) = 2.95679 3.71143 3.35540
# Velocity P-wave (km/s) = 5.77275 6.69675 6.25185
#
# Compressibility (1/GPa) = 0.01956898
#
# Stress axis : x y z
#
# Youngs Moduli (GPa) = 97.85899 74.96941 142.03808
#
# Poissons Ratio (x) = 0.19264 0.23633
# Poissons Ratio (y) = 0.25146 0.18195
# Poissons Ratio (z) = 0.16283 0.09603
#
# Static dielectric constant tensor:
#      x y z
#    x 1.985770 0.000000 0.068780 
#    y 0.000000 1.892550 0.000000 
#    z 0.068780 0.000000 1.944920 
# 
# From -- ./inp_files/192602.got.cif
#   From: 2010.05.17/outbox.cif.g08.bks.cpg/sg15_97_cif.got.tgz:192602.got - 2010.06.03 18:47:42.
