data_PCOD9305602
_publ_section_title
;
Structure prediction by ZEFSAII (Michael W. Deem and Ramdas Pophale) SiO2 
 PCOD9305602
Probable space group: C 2/C
;
_chemical_formula_sum "Si O2"
_cell_formula_units_Z 40
_cell_length_a 11.914869
_cell_length_b 28.570350
_cell_length_c 4.967589
_cell_angle_alpha 90.000000
_cell_angle_beta 83.985557
_cell_angle_gamma 90.000000
_cell_volume 1681.718563
_symmetry_space_group_name_H-M "C 2/C"
_symmetry_group_IT_number 15
_symmetry_cell_setting 'monoclinic'
loop_
_space_group_symop_operation_xyz
x,y,z
-x,y,1/2-z
-x,-y,-z
x,-y,1/2+z
1/2+x,1/2+y,z
1/2-x,1/2+y,1/2-z
1/2-x,1/2-y,-z
1/2+x,1/2-y,1/2+z
loop_
_atom_site_type_symbol
_atom_site_label
_atom_site_fract_x
_atom_site_fract_y
_atom_site_fract_z
Si Si1 0.500000 0.765041 0.750000
Si Si2 0.000000 0.898797 0.250000
Si Si3 0.623089 0.898003 0.361249
Si Si4 0.337606 0.838776 0.619956
Si Si5 0.194190 0.969001 0.371446
Si Si6 0.896307 0.812382 0.582001
O O1 0.438030 0.801540 0.570226
O O2 0.596874 0.729812 0.629365
O O3 0.092049 0.932779 0.358046
O O4 0.931164 0.863066 0.456808
O O5 0.500000 0.901038 0.250000
O O6 0.629553 0.879549 0.667395
O O7 0.692308 0.944399 0.268700
O O8 0.685354 0.859058 0.166702
O O9 0.223520 0.815988 0.752188
O O10 0.186481 0.985718 0.680547
O O11 0.000000 0.800008 0.750000
#
# Coordination Sequence:
#
# PCOD9305602 Si02
#       6
#     4   4   8   8   8   8
#     4  11  26  44  68 112 138 192 242 286 342 411
#     4  11  24  46  68 104 148 188 226 286 368 415
#     4  12  25  48  76 102 138 191 235 292 359 419
#     4  12  25  47  73 101 148 187 239 285 351 424
#     4  12  27  45  74 107 138 181 239 294 352 428
#     4  11  26  43  72 105 147 189 236 293 342 422
#
# _framework density 23.785191999999999
#
# number of rings (size 3 to 8) (size 9 to 14) (size 15 to 20)
#    0.000    0.400    4.000    3.600    8.400    1.600 
#    0.000    0.000    0.000    0.000    0.000    0.000 
#    0.000    0.000    0.000    0.000    0.000    0.000 
#
# Total GULP energy -111881.877586 kJ/mol
# GULP energy per Si atom -5594.093879 kJ/mol
# Density = 2.373106 g / cm^3
# Si number density = 23.785192 Si / 1000 Ang^3
#
#
#
# Elastic Constant Matrix: (Units=GPa)
#
#
# Indices 1 2 3 4 5 6 
#
# 1 91.0170 15.1191 -2.9868 0.0000 -15.6252 0.0000
# 2 15.1191 83.1576 -2.8870 0.0000 -3.8908 0.0000
# 3 -2.9868 -2.8870 65.4232 0.0000 -5.7883 0.0000
# 4 0.0000 0.0000 0.0000 15.5189 0.0000 -12.9504
# 5 -15.6252 -3.8908 -5.7883 0.0000 33.1535 0.0000
# 6 0.0000 0.0000 0.0000 -12.9504 0.0000 101.4723
#
#
#
# Elastic Compliance Matrix: (Units=1/GPa)
#
#
# Indices 1 2 3 4 5 6 
#
# 1 0.012329 -0.001938 0.000987 0.000000 0.005756 0.000000
# 2 -0.001938 0.012425 0.000516 0.000000 0.000635 0.000000
# 3 0.000987 0.000516 0.015641 0.000000 0.003256 0.000000
# 4 0.000000 0.000000 0.000000 0.072119 0.000000 0.009204
# 5 0.005756 0.000635 0.003256 0.000000 0.033518 0.000000
# 6 0.000000 0.000000 0.000000 0.009204 0.000000 0.011030
#
#
# Mechanical properties :
#
#
# Convention : Reuss Voigt Hill
#
# Bulk Modulus (GPa) = 25.30063 28.67650 26.98857
# Shear Modulus (GPa) = 29.22129 45.38576 37.30353
#
# Velocity S-wave (km/s) = 3.50887 4.37298 3.96454
# Velocity P-wave (km/s) = 5.20350 6.13024 5.68579
#
# Compressibility (1/GPa) = 0.03952470
#
# Stress axis : x y z
#
# Youngs Moduli (GPa) = 81.10721 80.48063 63.93451
#
# Poissons Ratio (x) = 0.15598 -0.06308
# Poissons Ratio (y) = 0.15719 -0.03299
# Poissons Ratio (z) = -0.08002 -0.04153
#
# Static dielectric constant tensor:
#      x y z
#    x 1.900450 0.000000 0.002630 
#    y 0.000000 1.888090 0.000000 
#    z 0.002630 0.000000 1.936550 
# 
# From -- ./inp_files/4946.got.cif
#   From: 2010.05.17/outbox.cif.g08.bks.cpg/sg15_3_cif.got.tgz:4946.got - 2010.06.03 18:47:42.
