data_PCOD9305194
_publ_section_title
;
Structure prediction by ZEFSAII (Michael W. Deem and Ramdas Pophale) SiO2 
 PCOD9305194
Probable space group: C 2/C
;
_chemical_formula_sum "Si O2"
_cell_formula_units_Z 52
_cell_length_a 28.441610
_cell_length_b 13.354485
_cell_length_c 16.152581
_cell_angle_alpha 90.000000
_cell_angle_beta 22.354343
_cell_angle_gamma 90.000000
_cell_volume 2333.392774
_symmetry_space_group_name_H-M "C 2/C"
_symmetry_group_IT_number 15
_symmetry_cell_setting 'monoclinic'
loop_
_space_group_symop_operation_xyz
x,y,z
-x,y,1/2-z
-x,-y,-z
x,-y,1/2+z
1/2+x,1/2+y,z
1/2-x,1/2+y,1/2-z
1/2-x,1/2-y,-z
1/2+x,1/2-y,1/2+z
loop_
_atom_site_type_symbol
_atom_site_label
_atom_site_fract_x
_atom_site_fract_y
_atom_site_fract_z
Si Si1 0.817028 0.511035 0.134222
Si Si2 0.405249 0.237390 0.658160
Si Si3 0.142823 0.966545 0.766287
Si Si4 0.500000 0.380060 0.750000
Si Si5 0.766252 0.958776 0.048730
Si Si6 0.376642 0.778071 0.567886
Si Si7 0.100888 0.288910 0.521619
O O1 0.700483 0.511478 0.262059
O O2 0.786612 0.511404 0.282353
O O3 0.886062 0.615134 0.007744
O O4 0.887314 0.409312 0.998961
O O5 0.350625 0.347440 0.762257
O O6 0.311497 0.145470 0.827388
O O7 0.526637 0.224644 0.515418
O O8 0.435185 0.238591 0.512595
O O9 0.225510 0.009893 0.555214
O O10 0.000000 0.000000 0.000000
O O11 0.590474 0.440577 0.661574
O O12 0.587852 0.309622 0.552828
O O13 0.234929 0.757690 0.822277
O O14 0.000000 0.253748 0.750000
#
# Coordination Sequence:
#
# PCOD9305194 Si02
#       7
#     8   8   8   4   8   8   8
#     4  11  25  44  66 105 137 178 238 279 354 409
#     4  11  24  45  69 101 138 179 237 280 352 410
#     4  12  23  40  69 104 136 180 237 284 346 411
#     4  12  20  42  72  98 134 176 228 296 340 400
#     4  11  24  43  69 100 142 180 226 298 342 410
#     4  12  25  42  72 102 135 186 229 287 346 412
#     4  11  26  48  65  98 147 183 226 289 348 418
#
# _framework density 22.285146999999998
#
# number of rings (size 3 to 8) (size 9 to 14) (size 15 to 20)
#    0.000    0.615    6.154    2.308    3.231    5.538 
#    1.385    0.000    0.000    0.000    0.000    0.000 
#    0.000    0.000    0.000    0.000    0.000    0.000 
#
# Total GULP energy -145399.322181 kJ/mol
# GULP energy per Si atom -5592.281622 kJ/mol
# Density = 2.223442 g / cm^3
# Si number density = 22.285147 Si / 1000 Ang^3
#
#
#
# Elastic Constant Matrix: (Units=GPa)
#
#
# Indices 1 2 3 4 5 6 
#
# 1 110.4365 -4.6275 42.5341 0.0000 -0.5784 0.0000
# 2 -4.6275 35.9861 -10.5181 0.0000 -0.4985 0.0000
# 3 42.5341 -10.5181 84.8377 0.0000 22.0416 0.0000
# 4 0.0000 0.0000 0.0000 -10.1449 0.0000 -12.8303
# 5 -0.5784 -0.4985 22.0416 0.0000 35.3831 0.0000
# 6 0.0000 0.0000 0.0000 -12.8303 0.0000 24.0412
#
#
#
# Elastic Compliance Matrix: (Units=1/GPa)
#
#
# Indices 1 2 3 4 5 6 
#
# 1 0.011836 -0.000522 -0.007215 0.000000 0.004681 0.000000
# 2 -0.000522 0.028997 0.004477 0.000000 -0.002389 0.000000
# 3 -0.007215 0.004477 0.019058 0.000000 -0.011927 0.000000
# 4 0.000000 0.000000 0.000000 -0.058851 0.000000 -0.031407
# 5 0.004681 -0.002389 -0.011927 0.000000 0.035735 0.000000
# 6 0.000000 0.000000 0.000000 -0.031407 0.000000 0.024834
#
#
# Mechanical properties :
#
#
# Convention : Reuss Voigt Hill
#
# Bulk Modulus (GPa) = 18.73621 31.78195 25.25908
# Shear Modulus (GPa) = 58.19356 23.44733 40.82045
#
# Velocity S-wave (km/s) = 5.11565 3.24721 4.28452
# Velocity P-wave (km/s) = 6.58171 5.32462 5.98625
#
# Compressibility (1/GPa) = 0.05337258
#
# Stress axis : x y z
#
# Youngs Moduli (GPa) = 84.48452 34.48639 52.47014
#
# Poissons Ratio (x) = 0.01800 0.37858
# Poissons Ratio (y) = 0.04410 -0.23493
# Poissons Ratio (z) = 0.60957 -0.15441
#
# Static dielectric constant tensor:
#      x y z
#    x 1.854800 0.000000 0.053900 
#    y 0.000000 1.832300 0.000000 
#    z 0.053900 0.000000 1.834000 
# 
# From -- ./inp_files/225469.got.cif
#   From: 2010.05.17/outbox.cif.g08.bks.cpg/sg15_113_cif.got.tgz:225469.got - 2010.06.03 18:47:42.
