data_PCOD9305073
_publ_section_title
;
Structure prediction by ZEFSAII (Michael W. Deem and Ramdas Pophale) SiO2 
 PCOD9305073
Probable space group: C 2/C
;
_chemical_formula_sum "Si O2"
_cell_formula_units_Z 52
_cell_length_a 11.636208
_cell_length_b 21.177135
_cell_length_c 13.349961
_cell_angle_alpha 90.000000
_cell_angle_beta 125.623981
_cell_angle_gamma 90.000000
_cell_volume 2674.070490
_symmetry_space_group_name_H-M "C 2/C"
_symmetry_group_IT_number 15
_symmetry_cell_setting 'monoclinic'
loop_
_space_group_symop_operation_xyz
x,y,z
-x,y,1/2-z
-x,-y,-z
x,-y,1/2+z
1/2+x,1/2+y,z
1/2-x,1/2+y,1/2-z
1/2-x,1/2-y,-z
1/2+x,1/2-y,1/2+z
loop_
_atom_site_type_symbol
_atom_site_label
_atom_site_fract_x
_atom_site_fract_y
_atom_site_fract_z
Si Si1 0.846269 0.177542 0.927602
Si Si2 0.653619 0.890706 0.185247
Si Si3 0.868285 0.683033 0.494678
Si Si4 0.164189 0.915048 0.809274
Si Si5 0.218970 0.535287 0.516135
Si Si6 0.500000 0.015585 0.750000
Si Si7 0.423773 0.433041 0.950110
O O1 0.771959 0.156585 0.787109
O O2 0.903309 0.248448 0.967689
O O3 0.721855 0.180872 0.947952
O O4 0.965696 0.124452 0.006243
O O5 0.694114 0.926966 0.105220
O O6 0.616146 0.940246 0.254562
O O7 0.510810 0.853657 0.089065
O O8 0.764165 0.645169 0.368761
O O9 0.167838 0.937994 0.697143
O O10 0.000000 0.901188 0.750000
O O11 0.218390 0.967873 0.914927
O O12 0.327966 0.571809 0.499932
O O13 0.079716 0.522395 0.378387
O O14 0.500000 0.500000 0.000000
#
# Coordination Sequence:
#
# PCOD9305073 Si02
#       7
#     8   8   8   8   8   4   8
#     4  11  24  42  69  94 129 176 218 277 322 388
#     4  12  24  43  67  99 134 172 221 275 341 392
#     4  11  24  42  65  98 126 173 225 268 325 383
#     4  12  22  40  66  97 129 170 218 272 329 392
#     4  12  26  40  67 101 136 175 211 279 343 406
#     4  12  22  44  64 102 136 166 220 272 340 400
#     4  12  24  42  67  99 133 167 222 271 335 394
#
# _framework density 19.446007999999999
#
# number of rings (size 3 to 8) (size 9 to 14) (size 15 to 20)
#    0.000    0.308    6.154    3.231    4.308    0.000 
#    0.000    0.769    3.385    0.000    0.000    0.000 
#    0.000    0.000    0.000    0.000    0.000    0.000 
#
# Total GULP energy -145323.161460 kJ/mol
# GULP energy per Si atom -5589.352364 kJ/mol
# Density = 1.940175 g / cm^3
# Si number density = 19.446008 Si / 1000 Ang^3
#
#
#
# Elastic Constant Matrix: (Units=GPa)
#
#
# Indices 1 2 3 4 5 6 
#
# 1 56.6268 24.3317 16.9459 0.0000 -16.0781 0.0000
# 2 24.3317 111.8346 40.8469 0.0000 0.8411 0.0000
# 3 16.9459 40.8469 116.2282 0.0000 -8.2262 0.0000
# 4 0.0000 0.0000 0.0000 16.9562 0.0000 5.4305
# 5 -16.0781 0.8411 -8.2262 0.0000 39.1571 0.0000
# 6 0.0000 0.0000 0.0000 5.4305 0.0000 25.7249
#
#
#
# Elastic Compliance Matrix: (Units=1/GPa)
#
#
# Indices 1 2 3 4 5 6 
#
# 1 0.022536 -0.004598 -0.001023 0.000000 0.009137 0.000000
# 2 -0.004598 0.011235 -0.003480 0.000000 -0.002861 0.000000
# 3 -0.001023 -0.003480 0.010102 0.000000 0.001777 0.000000
# 4 0.000000 0.000000 0.000000 0.063252 0.000000 -0.013352
# 5 0.009137 -0.002861 0.001777 0.000000 0.029725 0.000000
# 6 0.000000 0.000000 0.000000 -0.013352 0.000000 0.041692
#
#
# Mechanical properties :
#
#
# Convention : Reuss Voigt Hill
#
# Bulk Modulus (GPa) = 38.95708 49.88206 44.41957
# Shear Modulus (GPa) = 24.35461 29.87198 27.11329
#
# Velocity S-wave (km/s) = 3.54280 3.92363 3.73806
# Velocity P-wave (km/s) = 6.06730 6.79954 6.44383
#
# Compressibility (1/GPa) = 0.02566928
#
# Stress axis : x y z
#
# Youngs Moduli (GPa) = 44.37411 89.00840 98.99201
#
# Poissons Ratio (x) = 0.40927 0.10127
# Poissons Ratio (y) = 0.20404 0.34453
# Poissons Ratio (z) = 0.04540 0.30979
#
# Static dielectric constant tensor:
#      x y z
#    x 1.689190 0.000000 -0.002900 
#    y 0.000000 1.689040 0.000000 
#    z -0.002900 0.000000 1.678120 
# 
# From -- ./inp_files/89483.got.cif
#   From: 2010.05.17/outbox.cif.g08.bks.cpg/sg15_45_cif.got.tgz:89483.got - 2010.06.03 18:47:42.
