data_PCOD9305192
_publ_section_title
;
Structure prediction by ZEFSAII (Michael W. Deem and Ramdas Pophale) SiO2 
 PCOD9305192
Probable space group: C 2/C
;
_chemical_formula_sum "Si O2"
_cell_formula_units_Z 60
_cell_length_a 9.232971
_cell_length_b 14.424903
_cell_length_c 21.390585
_cell_angle_alpha 90.000000
_cell_angle_beta 99.358949
_cell_angle_gamma 90.000000
_cell_volume 2810.976983
_symmetry_space_group_name_H-M "C 2/C"
_symmetry_group_IT_number 15
_symmetry_cell_setting 'monoclinic'
loop_
_space_group_symop_operation_xyz
x,y,z
-x,y,1/2-z
-x,-y,-z
x,-y,1/2+z
1/2+x,1/2+y,z
1/2-x,1/2+y,1/2-z
1/2-x,1/2-y,-z
1/2+x,1/2-y,1/2+z
loop_
_atom_site_type_symbol
_atom_site_label
_atom_site_fract_x
_atom_site_fract_y
_atom_site_fract_z
Si Si1 0.102869 0.332235 0.314216
Si Si2 0.609399 0.232654 0.141307
Si Si3 0.295947 0.025712 0.141763
Si Si4 0.335094 0.970783 0.504974
Si Si5 0.500000 0.885290 0.750000
Si Si6 0.081302 0.179482 0.125337
Si Si7 0.195847 0.798601 0.432353
Si Si8 0.206446 0.159304 0.459965
O O1 0.268384 0.296320 0.316359
O O2 0.141982 0.420501 0.360617
O O3 0.000000 0.362542 0.250000
O O4 0.013518 0.243137 0.334309
O O5 0.546183 0.173416 0.193335
O O6 0.476606 0.286593 0.096385
O O7 0.697841 0.169370 0.097195
O O8 0.335093 0.067782 0.075994
O O9 0.371914 0.054659 0.211594
O O10 0.137713 0.075152 0.142680
O O11 0.259604 0.901520 0.449821
O O12 0.500000 0.000000 0.500000
O O13 0.243083 0.064999 0.496893
O O14 0.216091 0.245746 0.116265
O O15 0.966652 0.165986 0.061702
O O16 0.250000 0.750000 0.500000
O O17 0.250000 0.250000 0.500000
#
# Coordination Sequence:
#
# PCOD9305192 Si02
#       8
#     8   8   8   8   4   8   8   8
#     4  11  25  46  69  96 139 189 242 294 357 436
#     4  11  25  43  71 101 138 187 232 302 369 435
#     4  12  24  42  71  97 136 187 237 286 366 431
#     4  12  24  40  68 102 138 182 231 294 366 433
#     4  12  22  46  68  98 132 184 240 284 354 432
#     4  11  24  43  68  99 139 182 228 294 362 431
#     4  12  22  41  66 100 140 175 229 291 363 429
#     4  11  24  44  68 102 143 179 233 296 369 441
#
# _framework density 21.344892000000002
#
# number of rings (size 3 to 8) (size 9 to 14) (size 15 to 20)
#    0.000    0.533    3.333    6.400    1.867    0.533 
#    0.000    0.000    1.467    0.000    0.000    0.000 
#    0.000    0.000    0.000    0.000    0.000    0.000 
#
# Total GULP energy -167057.000804 kJ/mol
# GULP energy per Si atom -5568.566693 kJ/mol
# Density = 2.129631 g / cm^3
# Si number density = 21.344892 Si / 1000 Ang^3
#
#
#
# Elastic Constant Matrix: (Units=GPa)
#
#
# Indices 1 2 3 4 5 6 
#
# 1 103.4018 30.7383 19.7176 0.0000 34.6623 0.0000
# 2 30.7383 69.6482 27.2550 0.0000 12.0496 0.0000
# 3 19.7176 27.2550 74.0854 0.0000 17.6921 0.0000
# 4 0.0000 0.0000 0.0000 35.7542 0.0000 12.0346
# 5 34.6623 12.0496 17.6921 0.0000 46.0975 0.0000
# 6 0.0000 0.0000 0.0000 12.0346 0.0000 29.0763
#
#
#
# Elastic Compliance Matrix: (Units=1/GPa)
#
#
# Indices 1 2 3 4 5 6 
#
# 1 0.014234 -0.004718 0.000230 0.000000 -0.009558 0.000000
# 2 -0.004718 0.018545 -0.005787 0.000000 0.000921 0.000000
# 3 0.000230 -0.005787 0.016784 0.000000 -0.005102 0.000000
# 4 0.000000 0.000000 0.000000 0.032496 0.000000 -0.013450
# 5 -0.009558 0.000921 -0.005102 0.000000 0.030597 0.000000
# 6 0.000000 0.000000 0.000000 -0.013450 0.000000 0.039959
#
#
# Mechanical properties :
#
#
# Convention : Reuss Voigt Hill
#
# Bulk Modulus (GPa) = 34.46751 44.72859 39.59805
# Shear Modulus (GPa) = 27.34682 33.48056 30.41369
#
# Velocity S-wave (km/s) = 3.58325 3.96479 3.77884
# Velocity P-wave (km/s) = 5.77084 6.47766 6.13444
#
# Compressibility (1/GPa) = 0.02901283
#
# Stress axis : x y z
#
# Youngs Moduli (GPa) = 70.25574 53.92173 59.58061
#
# Poissons Ratio (x) = 0.25442 -0.01370
# Poissons Ratio (y) = 0.33149 0.34478
# Poissons Ratio (z) = -0.01616 0.31203
#
# Static dielectric constant tensor:
#      x y z
#    x 1.810520 0.000000 -0.009150 
#    y 0.000000 2.162790 0.000000 
#    z -0.009150 0.000000 1.796610 
# 
# From -- ./inp_files/264359.got.cif
#   From: 2010.05.17/outbox.cif.g08.bks.cpg/sg15_133_cif.got.tgz:264359.got - 2010.06.03 18:47:42.
