data_PCOD9305531
_publ_section_title
;
Structure prediction by ZEFSAII (Michael W. Deem and Ramdas Pophale) SiO2 
 PCOD9305531
Probable space group: C 2/C
;
_chemical_formula_sum "Si O2"
_cell_formula_units_Z 32
_cell_length_a 13.007979
_cell_length_b 16.996957
_cell_length_c 9.224826
_cell_angle_alpha 90.000000
_cell_angle_beta 44.463167
_cell_angle_gamma 90.000000
_cell_volume 1428.619910
_symmetry_space_group_name_H-M "C 2/C"
_symmetry_group_IT_number 15
_symmetry_cell_setting 'monoclinic'
loop_
_space_group_symop_operation_xyz
x,y,z
-x,y,1/2-z
-x,-y,-z
x,-y,1/2+z
1/2+x,1/2+y,z
1/2-x,1/2+y,1/2-z
1/2-x,1/2-y,-z
1/2+x,1/2-y,1/2+z
loop_
_atom_site_type_symbol
_atom_site_label
_atom_site_fract_x
_atom_site_fract_y
_atom_site_fract_z
Si Si1 0.521527 0.732234 0.900187
Si Si2 0.707375 0.196346 0.684084
Si Si3 0.383993 0.020581 0.740327
Si Si4 0.584698 0.437539 0.013800
O O1 0.500000 0.751062 0.750000
O O2 0.686545 0.717100 0.787022
O O3 0.436294 0.650872 0.019437
O O4 0.453676 0.790968 0.085979
O O5 0.750000 0.250000 0.500000
O O6 0.706894 0.102778 0.658818
O O7 0.500000 0.020602 0.750000
O O8 0.500000 0.000000 0.500000
O O9 0.254473 0.956840 0.865740
O O10 0.500000 0.439707 0.250000
O O11 0.500000 0.500000 0.000000
#
# Coordination Sequence:
#
# PCOD9305531 Si02
#       4
#     8   8   8   8
#     4  11  26  46  74 103 144 191 249 302 372 451
#     4  12  27  48  73 110 147 197 245 310 379 453
#     4  12  28  46  73 110 151 193 247 312 377 445
#     4  11  24  45  73 102 140 193 244 297 366 447
#
# _framework density 22.399239999999999
#
# number of rings (size 3 to 8) (size 9 to 14) (size 15 to 20)
#    0.000    0.500    2.500    4.500   14.000    1.000 
#    0.000    0.000    0.000    0.000    0.000    0.000 
#    0.000    0.000    0.000    0.000    0.000    0.000 
#
# Total GULP energy -89314.538050 kJ/mol
# GULP energy per Si atom -5582.158628 kJ/mol
# Density = 2.234826 g / cm^3
# Si number density = 22.399240 Si / 1000 Ang^3
#
#
#
# Elastic Constant Matrix: (Units=GPa)
#
#
# Indices 1 2 3 4 5 6 
#
# 1 103.6781 -20.7510 12.1234 0.0000 3.2171 0.0000
# 2 -20.7510 44.9824 0.8348 0.0000 10.1216 0.0000
# 3 12.1234 0.8348 82.8370 0.0000 -4.9688 0.0000
# 4 0.0000 0.0000 0.0000 36.8093 0.0000 -11.9116
# 5 3.2171 10.1216 -4.9688 0.0000 54.4345 0.0000
# 6 0.0000 0.0000 0.0000 -11.9116 0.0000 30.7055
#
#
#
# Elastic Compliance Matrix: (Units=1/GPa)
#
#
# Indices 1 2 3 4 5 6 
#
# 1 0.011017 0.005530 -0.001779 0.000000 -0.001842 0.000000
# 2 0.005530 0.025997 -0.001388 0.000000 -0.005288 0.000000
# 3 -0.001779 -0.001388 0.012436 0.000000 0.001498 0.000000
# 4 0.000000 0.000000 0.000000 0.031067 0.000000 0.012052
# 5 -0.001842 -0.005288 0.001498 0.000000 0.019599 0.000000
# 6 0.000000 0.000000 0.000000 0.012052 0.000000 0.037243
#
#
# Mechanical properties :
#
#
# Convention : Reuss Voigt Hill
#
# Bulk Modulus (GPa) = 18.45833 23.99021 21.22427
# Shear Modulus (GPa) = 33.18004 40.34256 36.76130
#
# Velocity S-wave (km/s) = 3.85294 4.24850 4.05555
# Velocity P-wave (km/s) = 5.29642 5.89914 5.60589
#
# Compressibility (1/GPa) = 0.05417609
#
# Stress axis : x y z
#
# Youngs Moduli (GPa) = 90.76764 38.46537 80.41125
#
# Poissons Ratio (x) = -0.21270 0.14302
# Poissons Ratio (y) = -0.50192 0.11165
# Poissons Ratio (z) = 0.16144 0.05341
#
# Static dielectric constant tensor:
#      x y z
#    x 1.789910 0.000000 -0.013350 
#    y 0.000000 2.223280 0.000000 
#    z -0.013350 0.000000 1.791860 
# 
# From -- ./inp_files/30021.got.cif
#   From: 2010.05.17/outbox.cif.g08.bks.cpg/sg15_16_cif.got.tgz:30021.got - 2010.06.03 18:47:42.
