data_PCOD9305894
_publ_section_title
;
Structure prediction by ZEFSAII (Michael W. Deem and Ramdas Pophale) SiO2 
 PCOD9305894
Probable space group: C 2/C
;
_chemical_formula_sum "Si O2"
_cell_formula_units_Z 52
_cell_length_a 27.686832
_cell_length_b 6.714033
_cell_length_c 14.136081
_cell_angle_alpha 90.000000
_cell_angle_beta 66.695371
_cell_angle_gamma 90.000000
_cell_volume 2413.373039
_symmetry_space_group_name_H-M "C 2/C"
_symmetry_group_IT_number 15
_symmetry_cell_setting 'monoclinic'
loop_
_space_group_symop_operation_xyz
x,y,z
-x,y,1/2-z
-x,-y,-z
x,-y,1/2+z
1/2+x,1/2+y,z
1/2-x,1/2+y,1/2-z
1/2-x,1/2-y,-z
1/2+x,1/2-y,1/2+z
loop_
_atom_site_type_symbol
_atom_site_label
_atom_site_fract_x
_atom_site_fract_y
_atom_site_fract_z
Si Si1 0.665111 0.490050 0.347995
Si Si2 0.000000 0.740322 0.750000
Si Si3 0.737304 0.757221 0.170739
Si Si4 0.429302 0.413220 0.218261
Si Si5 0.878132 0.219494 0.951989
Si Si6 0.483916 0.090485 0.412780
Si Si7 0.280908 0.955546 0.982656
O O1 0.692780 0.677299 0.274920
O O2 0.710016 0.321760 0.314964
O O3 0.611936 0.438192 0.334463
O O4 0.651088 0.549866 0.465760
O O5 0.039567 0.886269 0.775909
O O6 0.025142 0.589965 0.654031
O O7 0.752373 0.588894 0.083091
O O8 0.719056 0.939599 0.119262
O O9 0.395632 0.352782 0.335820
O O10 0.471445 0.240699 0.161356
O O11 0.930790 0.284369 0.964250
O O12 0.839337 0.404861 0.970795
O O13 0.500000 0.000000 0.500000
O O14 0.250000 0.750000 0.000000
#
# Coordination Sequence:
#
# PCOD9305894 Si02
#       7
#     8   4   8   8   8   8   8
#     4  12  28  45  78 107 149 195 244 305 368 440
#     4  12  24  52  74 102 154 190 234 310 364 430
#     4  11  27  48  70 110 147 195 246 310 362 440
#     4  12  28  50  72 112 149 188 247 308 366 437
#     4  12  25  47  75 109 144 194 244 304 368 437
#     4  12  28  49  77 108 146 193 249 301 366 441
#     4  11  24  48  74 100 147 194 247 304 367 430
#
# _framework density 21.546607000000002
#
# number of rings (size 3 to 8) (size 9 to 14) (size 15 to 20)
#    0.000    0.308    4.615    2.769   10.769    2.462 
#    0.000    0.000    0.000    0.000    0.000    0.000 
#    0.000    0.000    0.000    0.000    0.000    0.000 
#
# Total GULP energy -145596.351829 kJ/mol
# GULP energy per Si atom -5599.859686 kJ/mol
# Density = 2.149757 g / cm^3
# Si number density = 21.546607 Si / 1000 Ang^3
#
#
#
# Elastic Constant Matrix: (Units=GPa)
#
#
# Indices 1 2 3 4 5 6 
#
# 1 106.0467 22.6005 24.0148 0.0000 10.6743 0.0000
# 2 22.6005 92.9530 29.6178 0.0000 -0.0446 0.0000
# 3 24.0148 29.6178 71.1047 0.0000 -16.3537 0.0000
# 4 0.0000 0.0000 0.0000 25.1977 0.0000 16.5049
# 5 10.6743 -0.0446 -16.3537 0.0000 31.9165 0.0000
# 6 0.0000 0.0000 0.0000 16.5049 0.0000 39.0247
#
#
#
# Elastic Compliance Matrix: (Units=1/GPa)
#
#
# Indices 1 2 3 4 5 6 
#
# 1 0.011408 -0.001257 -0.004769 0.000000 -0.006261 0.000000
# 2 -0.001257 0.012798 -0.005448 0.000000 -0.002353 0.000000
# 3 -0.004769 -0.005448 0.020755 0.000000 0.012222 0.000000
# 4 0.000000 0.000000 0.000000 0.054893 0.000000 -0.023216
# 5 -0.006261 -0.002353 0.012222 0.000000 0.039685 0.000000
# 6 0.000000 0.000000 0.000000 -0.023216 0.000000 0.035444
#
#
# Mechanical properties :
#
#
# Convention : Reuss Voigt Hill
#
# Bulk Modulus (GPa) = 45.42752 46.95230 46.18991
# Shear Modulus (GPa) = 24.35836 32.15254 28.25545
#
# Velocity S-wave (km/s) = 3.36593 3.86713 3.62521
# Velocity P-wave (km/s) = 6.01956 6.46359 6.24552
#
# Compressibility (1/GPa) = 0.02201309
#
# Stress axis : x y z
#
# Youngs Moduli (GPa) = 87.65843 78.13459 48.18209
#
# Poissons Ratio (x) = 0.09822 0.22979
# Poissons Ratio (y) = 0.11019 0.26248
# Poissons Ratio (z) = 0.41806 0.42565
#
# Static dielectric constant tensor:
#      x y z
#    x 1.815480 0.000000 0.004470 
#    y 0.000000 1.760960 0.000000 
#    z 0.004470 0.000000 1.748200 
# 
# From -- ./inp_files/180077.got.cif
#   From: 2010.05.17/outbox.cif.g08.bks.cpg/sg15_91_cif.got.tgz:180077.got - 2010.06.03 18:47:42.
