data_PCOD9305879
_publ_section_title
;
Structure prediction by ZEFSAII (Michael W. Deem and Ramdas Pophale) SiO2 
 PCOD9305879
Probable space group: C 2/C
;
_chemical_formula_sum "Si O2"
_cell_formula_units_Z 44
_cell_length_a 10.018241
_cell_length_b 14.239448
_cell_length_c 12.868859
_cell_angle_alpha 90.000000
_cell_angle_beta 68.020897
_cell_angle_gamma 90.000000
_cell_volume 1702.372106
_symmetry_space_group_name_H-M "C 2/C"
_symmetry_group_IT_number 15
_symmetry_cell_setting 'monoclinic'
loop_
_space_group_symop_operation_xyz
x,y,z
-x,y,1/2-z
-x,-y,-z
x,-y,1/2+z
1/2+x,1/2+y,z
1/2-x,1/2+y,1/2-z
1/2-x,1/2-y,-z
1/2+x,1/2-y,1/2+z
loop_
_atom_site_type_symbol
_atom_site_label
_atom_site_fract_x
_atom_site_fract_y
_atom_site_fract_z
Si Si1 0.883137 0.963309 0.384380
Si Si2 0.891008 0.770248 0.027586
Si Si3 0.768541 0.787844 0.282125
Si Si4 0.875929 0.905282 0.623476
Si Si5 0.500000 0.879059 0.250000
Si Si6 0.885401 0.428992 0.495906
O O1 0.834082 0.863981 0.344735
O O2 0.849845 0.945420 0.516643
O O3 0.762450 0.044413 0.402276
O O4 0.048152 0.008080 0.332962
O O5 0.864240 0.801071 0.151569
O O6 0.750000 0.750000 0.000000
O O7 0.951479 0.667442 0.018669
O O8 0.985825 0.840247 0.936251
O O9 0.744918 0.675271 0.313578
O O10 0.612726 0.820875 0.285399
O O11 0.398646 0.928902 0.365784
O O12 0.000000 0.500000 0.500000
#
# Coordination Sequence:
#
# PCOD9305879 Si02
#       6
#     8   8   8   8   4   8
#     4  11  25  46  71 110 149 184 252 313 365 456
#     4  12  23  45  70  98 143 191 241 298 373 448
#     4  12  24  45  74 103 146 199 245 302 385 448
#     4  11  24  48  72 104 150 191 240 315 379 442
#     4  12  22  40  74  98 136 196 238 292 380 438
#     4  12  24  45  71 105 142 189 247 306 360 453
#
# _framework density 25.846288999999999
#
# number of rings (size 3 to 8) (size 9 to 14) (size 15 to 20)
#    0.000    0.364    7.273    0.545    0.000    2.182 
#    9.818    0.000    0.000    0.000    0.000    0.000 
#    0.000    0.000    0.000    0.000    0.000    0.000 
#
# Total GULP energy -122635.299984 kJ/mol
# GULP energy per Si atom -5574.331817 kJ/mol
# Density = 2.578746 g / cm^3
# Si number density = 25.846289 Si / 1000 Ang^3
#
#
#
# Elastic Constant Matrix: (Units=GPa)
#
#
# Indices 1 2 3 4 5 6 
#
# 1 62.9931 37.3640 19.8277 0.0000 -3.6912 0.0000
# 2 37.3640 158.4111 26.2878 0.0000 7.0513 0.0000
# 3 19.8277 26.2878 106.8027 0.0000 5.4801 0.0000
# 4 0.0000 0.0000 0.0000 51.0038 0.0000 -1.9483
# 5 -3.6912 7.0513 5.4801 0.0000 46.0207 0.0000
# 6 0.0000 0.0000 0.0000 -1.9483 0.0000 41.7001
#
#
#
# Elastic Compliance Matrix: (Units=1/GPa)
#
#
# Indices 1 2 3 4 5 6 
#
# 1 0.019382 -0.004238 -0.002684 0.000000 0.002524 0.000000
# 2 -0.004238 0.007539 -0.000998 0.000000 -0.001376 0.000000
# 3 -0.002684 -0.000998 0.010172 0.000000 -0.001274 0.000000
# 4 0.000000 0.000000 0.000000 0.019641 0.000000 0.000918
# 5 0.002524 -0.001376 -0.001274 0.000000 0.022294 0.000000
# 6 0.000000 0.000000 0.000000 0.000918 0.000000 0.024024
#
#
# Mechanical properties :
#
#
# Convention : Reuss Voigt Hill
#
# Bulk Modulus (GPa) = 47.05591 55.01844 51.03718
# Shear Modulus (GPa) = 39.68936 44.06009 41.87472
#
# Velocity S-wave (km/s) = 3.92291 4.13328 4.02947
# Velocity P-wave (km/s) = 6.22612 6.64166 6.43724
#
# Compressibility (1/GPa) = 0.02125132
#
# Stress axis : x y z
#
# Youngs Moduli (GPa) = 51.59553 132.63858 98.30460
#
# Poissons Ratio (x) = 0.56217 0.26389
# Poissons Ratio (y) = 0.21868 0.09813
# Poissons Ratio (z) = 0.13850 0.13240
#
# Static dielectric constant tensor:
#      x y z
#    x 2.100900 0.000000 -0.093170 
#    y 0.000000 4.668880 0.000000 
#    z -0.093170 0.000000 2.156460 
# 
# From -- ./inp_files/86088.got.cif
#   From: 2010.05.17/outbox.cif.g08.bks.cpg/sg15_44_cif.got.tgz:86088.got - 2010.06.03 18:47:42.
