data_PCOD9305115
_publ_section_title
;
Structure prediction by ZEFSAII (Michael W. Deem and Ramdas Pophale) SiO2 
 PCOD9305115
Probable space group: C 2/C
;
_chemical_formula_sum "Si O2"
_cell_formula_units_Z 48
_cell_length_a 14.765974
_cell_length_b 8.376694
_cell_length_c 19.149722
_cell_angle_alpha 90.000000
_cell_angle_beta 114.547155
_cell_angle_gamma 90.000000
_cell_volume 2154.552422
_symmetry_space_group_name_H-M "C 2/C"
_symmetry_group_IT_number 15
_symmetry_cell_setting 'monoclinic'
loop_
_space_group_symop_operation_xyz
x,y,z
-x,y,1/2-z
-x,-y,-z
x,-y,1/2+z
1/2+x,1/2+y,z
1/2-x,1/2+y,1/2-z
1/2-x,1/2-y,-z
1/2+x,1/2-y,1/2+z
loop_
_atom_site_type_symbol
_atom_site_label
_atom_site_fract_x
_atom_site_fract_y
_atom_site_fract_z
Si Si1 0.392893 0.638919 0.848076
Si Si2 0.879795 0.500434 0.887584
Si Si3 0.265894 0.965617 0.608945
Si Si4 0.395832 0.484680 0.049793
Si Si5 0.834006 0.135347 0.679345
Si Si6 0.407574 0.140475 0.548918
O O1 0.383415 0.828656 0.852174
O O2 0.297926 0.554411 0.852511
O O3 0.493070 0.583522 0.919028
O O4 0.398417 0.598653 0.768056
O O5 0.779346 0.591444 0.838103
O O6 0.977269 0.601274 0.899816
O O7 0.881361 0.459117 0.970845
O O8 0.331797 0.821845 0.659165
O O9 0.182427 0.901415 0.527292
O O10 0.336437 0.083496 0.588143
O O11 0.363295 0.458661 0.119209
O O12 0.393113 0.672229 0.031960
#
# Coordination Sequence:
#
# PCOD9305115 Si02
#       6
#     8   8   8   8   8   8
#     4  12  26  44  67  99 141 177 220 278 341 398
#     4  11  24  43  68  98 134 171 226 273 338 391
#     4  12  24  44  71 102 132 176 229 276 332 397
#     4  12  24  44  70 102 130 179 229 276 328 400
#     4  12  26  44  67  99 140 179 218 279 341 398
#     4  11  24  42  70 100 128 171 226 287 320 392
#
# _framework density 22.278410000000001
#
# number of rings (size 3 to 8) (size 9 to 14) (size 15 to 20)
#    0.000    0.333    3.333    6.000    4.667    0.000 
#    0.000    7.500    0.000    0.000    0.000    0.000 
#    0.000    0.000    0.000    0.000    0.000    0.000 
#
# Total GULP energy -134504.365086 kJ/mol
# GULP energy per Si atom -5604.348545 kJ/mol
# Density = 2.222770 g / cm^3
# Si number density = 22.278410 Si / 1000 Ang^3
#
#
#
# Elastic Constant Matrix: (Units=GPa)
#
#
# Indices 1 2 3 4 5 6 
#
# 1 92.6201 5.4718 17.6172 0.0000 -17.7773 0.0000
# 2 5.4718 52.5753 -1.4719 0.0000 -3.7574 0.0000
# 3 17.6172 -1.4719 88.4477 0.0000 -16.6681 0.0000
# 4 0.0000 0.0000 0.0000 -6.0135 0.0000 -20.7722
# 5 -17.7773 -3.7574 -16.6681 0.0000 31.0478 0.0000
# 6 0.0000 0.0000 0.0000 -20.7722 0.0000 33.8643
#
#
#
# Elastic Compliance Matrix: (Units=1/GPa)
#
#
# Indices 1 2 3 4 5 6 
#
# 1 0.012291 -0.000869 -0.001286 0.000000 0.006242 0.000000
# 2 -0.000869 0.019304 0.000935 0.000000 0.002341 0.000000
# 3 -0.001286 0.000935 0.012750 0.000000 0.006222 0.000000
# 4 0.000000 0.000000 0.000000 -0.053319 0.000000 -0.032706
# 5 0.006242 0.002341 0.006222 0.000000 0.039406 0.000000
# 6 0.000000 0.000000 0.000000 -0.032706 0.000000 0.009468
#
#
# Mechanical properties :
#
#
# Convention : Reuss Voigt Hill
#
# Bulk Modulus (GPa) = 23.86314 30.76415 27.31364
# Shear Modulus (GPa) = 88.79568 25.91478 57.35523
#
# Velocity S-wave (km/s) = 6.32011 3.41431 5.07943
# Velocity P-wave (km/s) = 7.99956 5.42054 6.83283
#
# Compressibility (1/GPa) = 0.04190564
#
# Stress axis : x y z
#
# Youngs Moduli (GPa) = 81.36147 51.80198 78.42889
#
# Poissons Ratio (x) = 0.04502 0.10088
# Poissons Ratio (y) = 0.07071 -0.07337
# Poissons Ratio (z) = 0.10466 -0.04846
#
# Static dielectric constant tensor:
#      x y z
#    x 1.810800 0.000000 0.004960 
#    y 0.000000 1.756400 0.000000 
#    z 0.004960 0.000000 1.844550 
# 
# From -- ./inp_files/242574.got.cif
#   From: 2010.05.17/outbox.cif.g08.bks.cpg/sg15_122_cif.got.tgz:242574.got - 2010.06.03 18:47:42.
