data_PCOD9305653
_publ_section_title
;
Structure prediction by ZEFSAII (Michael W. Deem and Ramdas Pophale) SiO2 
 PCOD9305653
Probable space group: C 2/C
;
_chemical_formula_sum "Si O2"
_cell_formula_units_Z 40
_cell_length_a 8.739471
_cell_length_b 14.075938
_cell_length_c 15.759812
_cell_angle_alpha 90.000000
_cell_angle_beta 117.977788
_cell_angle_gamma 90.000000
_cell_volume 1712.134699
_symmetry_space_group_name_H-M "C 2/C"
_symmetry_group_IT_number 15
_symmetry_cell_setting 'monoclinic'
loop_
_space_group_symop_operation_xyz
x,y,z
-x,y,1/2-z
-x,-y,-z
x,-y,1/2+z
1/2+x,1/2+y,z
1/2-x,1/2+y,1/2-z
1/2-x,1/2-y,-z
1/2+x,1/2-y,1/2+z
loop_
_atom_site_type_symbol
_atom_site_label
_atom_site_fract_x
_atom_site_fract_y
_atom_site_fract_z
Si Si1 0.656874 0.105563 0.593891
Si Si2 0.013718 0.914746 0.437970
Si Si3 0.868712 0.276727 0.950764
Si Si4 0.190300 0.500792 0.263940
Si Si5 0.804202 0.718421 0.235430
O O1 0.476984 0.129768 0.502241
O O2 0.665624 0.016886 0.658501
O O3 0.694272 0.199033 0.662394
O O4 0.809212 0.088853 0.567098
O O5 0.996945 0.812603 0.475928
O O6 0.846101 0.933728 0.335103
O O7 0.000000 0.000000 0.500000
O O8 0.791052 0.281271 0.835055
O O9 0.750000 0.250000 0.000000
O O10 0.236159 0.609183 0.299127
O O11 0.000000 0.477052 0.250000
O O12 0.000000 0.734443 0.250000
#
# Coordination Sequence:
#
# PCOD9305653 Si02
#       5
#     8   8   8   8   8
#     4  12  25  48  74 102 150 194 244 312 372 448
#     4  12  26  46  72 107 141 192 253 302 373 450
#     4  12  27  45  72 106 144 191 247 305 373 448
#     4  11  25  44  71 103 144 187 244 306 370 444
#     4  11  24  46  72 101 145 195 238 297 382 438
#
# _framework density 23.362648
#
# number of rings (size 3 to 8) (size 9 to 14) (size 15 to 20)
#    0.000    0.400    4.000    3.600    8.400    0.800 
#    3.600    0.000    0.000    0.000    0.000    0.000 
#    0.000    0.000    0.000    0.000    0.000    0.000 
#
# Total GULP energy -111900.052206 kJ/mol
# GULP energy per Si atom -5595.002610 kJ/mol
# Density = 2.330947 g / cm^3
# Si number density = 23.362648 Si / 1000 Ang^3
#
#
#
# Elastic Constant Matrix: (Units=GPa)
#
#
# Indices 1 2 3 4 5 6 
#
# 1 133.4954 -11.9469 43.8588 0.0000 -34.2023 0.0000
# 2 -11.9469 48.4836 14.5217 0.0000 12.1861 0.0000
# 3 43.8588 14.5217 122.8858 0.0000 -7.1635 0.0000
# 4 0.0000 0.0000 0.0000 61.4958 0.0000 4.8715
# 5 -34.2023 12.1861 -7.1635 0.0000 43.2110 0.0000
# 6 0.0000 0.0000 0.0000 4.8715 0.0000 25.0324
#
#
#
# Elastic Compliance Matrix: (Units=1/GPa)
#
#
# Indices 1 2 3 4 5 6 
#
# 1 0.010738 0.001880 -0.003625 0.000000 0.007368 0.000000
# 2 0.001880 0.023694 -0.003811 0.000000 -0.005826 0.000000
# 3 -0.003625 -0.003811 0.009873 0.000000 -0.000158 0.000000
# 4 0.000000 0.000000 0.000000 0.016516 0.000000 -0.003214
# 5 0.007368 -0.005826 -0.000158 0.000000 0.030591 0.000000
# 6 0.000000 0.000000 0.000000 -0.003214 0.000000 0.040574
#
#
# Mechanical properties :
#
#
# Convention : Reuss Voigt Hill
#
# Bulk Modulus (GPa) = 30.12671 44.19242 37.15956
# Shear Modulus (GPa) = 32.43353 43.17659 37.80506
#
# Velocity S-wave (km/s) = 3.72998 4.30362 4.02703
# Velocity P-wave (km/s) = 5.61014 6.60695 6.12884
#
# Compressibility (1/GPa) = 0.03319314
#
# Stress axis : x y z
#
# Youngs Moduli (GPa) = 93.12847 42.20410 101.29124
#
# Poissons Ratio (x) = -0.07933 0.36718
# Poissons Ratio (y) = -0.17506 0.38597
# Poissons Ratio (z) = 0.33759 0.16082
#
# Static dielectric constant tensor:
#      x y z
#    x 1.761320 0.000000 0.125190 
#    y 0.000000 1.943780 0.000000 
#    z 0.125190 0.000000 2.193100 
# 
# From -- ./inp_files/133054.got.cif
#   From: 2010.05.17/outbox.cif.g08.bks.cpg/sg15_67_cif.got.tgz:133054.got - 2010.06.03 18:47:42.
