data_PCOD9305579
_publ_section_title
;
Structure prediction by ZEFSAII (Michael W. Deem and Ramdas Pophale) SiO2 
 PCOD9305579
Probable space group: C 2/C
;
_chemical_formula_sum "Si O2"
_cell_formula_units_Z 40
_cell_length_a 20.040393
_cell_length_b 15.336315
_cell_length_c 14.171253
_cell_angle_alpha 90.000000
_cell_angle_beta 155.260862
_cell_angle_gamma 90.000000
_cell_volume 1822.712051
_symmetry_space_group_name_H-M "C 2/C"
_symmetry_group_IT_number 15
_symmetry_cell_setting 'monoclinic'
loop_
_space_group_symop_operation_xyz
x,y,z
-x,y,1/2-z
-x,-y,-z
x,-y,1/2+z
1/2+x,1/2+y,z
1/2-x,1/2+y,1/2-z
1/2-x,1/2-y,-z
1/2+x,1/2-y,1/2+z
loop_
_atom_site_type_symbol
_atom_site_label
_atom_site_fract_x
_atom_site_fract_y
_atom_site_fract_z
Si Si1 0.079210 0.713277 0.754792
Si Si2 0.365091 0.833115 0.653473
Si Si3 0.939307 0.116989 0.978867
Si Si4 0.921517 0.053583 0.752064
Si Si5 0.081144 0.407707 0.085972
O O1 0.105833 0.635277 0.718178
O O2 0.000000 0.684938 0.750000
O O3 0.977183 0.789630 0.572736
O O4 0.250000 0.750000 0.000000
O O5 0.500000 0.820415 0.750000
O O6 0.250000 0.750000 0.500000
O O7 0.260646 0.918495 0.496165
O O8 0.455952 0.848889 0.867456
O O9 0.978936 0.109639 0.917797
O O10 0.752797 0.091853 0.754228
O O11 0.041251 0.044537 0.166813
O O12 0.000000 0.070071 0.750000
O O13 0.000000 0.500000 0.000000
#
# Coordination Sequence:
#
# PCOD9305579 Si02
#       5
#     8   8   8   8   8
#     4  12  27  48  80 106 152 202 254 308 386 450
#     4  12  26  46  74 108 149 194 248 308 383 447
#     4  11  25  50  74 110 151 198 259 315 377 459
#     4  11  24  45  78 105 149 200 246 314 388 443
#     4  12  28  48  76 114 150 195 259 311 373 458
#
# _framework density 21.945319999999999
#
# number of rings (size 3 to 8) (size 9 to 14) (size 15 to 20)
#    0.000    0.400    4.000    3.600    2.800    5.600 
#    0.000    0.000    0.000    0.000    0.000    0.000 
#    0.000    0.000    0.000    0.000    0.000    0.000 
#
# Total GULP energy -111927.430385 kJ/mol
# GULP energy per Si atom -5596.371519 kJ/mol
# Density = 2.189537 g / cm^3
# Si number density = 21.945320 Si / 1000 Ang^3
#
#
#
# Elastic Constant Matrix: (Units=GPa)
#
#
# Indices 1 2 3 4 5 6 
#
# 1 189.7373 38.1480 43.8391 0.0000 -11.6857 0.0000
# 2 38.1480 91.9860 39.6447 0.0000 -2.5648 0.0000
# 3 43.8391 39.6447 115.6848 0.0000 4.4903 0.0000
# 4 0.0000 0.0000 0.0000 52.2475 0.0000 -12.5336
# 5 -11.6857 -2.5648 4.4903 0.0000 42.9466 0.0000
# 6 0.0000 0.0000 0.0000 -12.5336 0.0000 24.5184
#
#
#
# Elastic Compliance Matrix: (Units=1/GPa)
#
#
# Indices 1 2 3 4 5 6 
#
# 1 0.006142 -0.001720 -0.001806 0.000000 0.001757 0.000000
# 2 -0.001720 0.013301 -0.003935 0.000000 0.000738 0.000000
# 3 -0.001806 -0.003935 0.010749 0.000000 -0.001850 0.000000
# 4 0.000000 0.000000 0.000000 0.021815 0.000000 0.011152
# 5 0.001757 0.000738 -0.001850 0.000000 0.024000 0.000000
# 6 0.000000 0.000000 0.000000 0.011152 0.000000 0.046486
#
#
# Mechanical properties :
#
#
# Convention : Reuss Voigt Hill
#
# Bulk Modulus (GPa) = 65.48969 71.18573 68.33771
# Shear Modulus (GPa) = 35.08638 42.32757 38.70697
#
# Velocity S-wave (km/s) = 4.00285 4.39655 4.20431
# Velocity P-wave (km/s) = 7.16036 7.63420 7.40107
#
# Compressibility (1/GPa) = 0.01526958
#
# Stress axis : x y z
#
# Youngs Moduli (GPa) = 162.81940 75.18273 93.03107
#
# Poissons Ratio (x) = 0.12928 0.16805
# Poissons Ratio (y) = 0.27998 0.36609
# Poissons Ratio (z) = 0.29411 0.29586
#
# Static dielectric constant tensor:
#      x y z
#    x 1.806170 0.000000 -0.036160 
#    y 0.000000 1.779880 0.000000 
#    z -0.036160 0.000000 1.768500 
# 
# From -- ./inp_files/169234.got.cif
#   From: 2010.05.17/outbox.cif.g08.bks.cpg/sg15_85_cif.got.tgz:169234.got - 2010.06.03 18:47:42.
