data_PCOD9305330
_publ_section_title
;
Structure prediction by ZEFSAII (Michael W. Deem and Ramdas Pophale) SiO2 
 PCOD9305330
Probable space group: C 2/C
;
_chemical_formula_sum "Si O2"
_cell_formula_units_Z 32
_cell_length_a 5.017877
_cell_length_b 19.024227
_cell_length_c 13.933668
_cell_angle_alpha 90.000000
_cell_angle_beta 100.384890
_cell_angle_gamma 90.000000
_cell_volume 1308.336379
_symmetry_space_group_name_H-M "C 2/C"
_symmetry_group_IT_number 15
_symmetry_cell_setting 'monoclinic'
loop_
_space_group_symop_operation_xyz
x,y,z
-x,y,1/2-z
-x,-y,-z
x,-y,1/2+z
1/2+x,1/2+y,z
1/2-x,1/2+y,1/2-z
1/2-x,1/2-y,-z
1/2+x,1/2-y,1/2+z
loop_
_atom_site_type_symbol
_atom_site_label
_atom_site_fract_x
_atom_site_fract_y
_atom_site_fract_z
Si Si1 0.175420 0.343965 0.946432
Si Si2 0.283058 0.522482 0.320002
Si Si3 0.623156 0.267758 0.863660
Si Si4 0.538436 0.628469 0.637985
O O1 0.247450 0.412318 0.887964
O O2 0.380518 0.284271 0.920314
O O3 0.870776 0.320216 0.904302
O O4 0.265184 0.361265 0.059943
O O5 0.500000 0.537347 0.250000
O O6 0.361061 0.450006 0.376865
O O7 0.000000 0.509146 0.250000
O O8 0.500000 0.279073 0.750000
O O9 0.753957 0.190441 0.875247
O O10 0.500000 0.633415 0.750000
#
# Coordination Sequence:
#
# PCOD9305330 Si02
#       4
#     8   8   8   8
#     4  12  25  45  72 101 134 179 227 276 334 400
#     4  11  24  44  69  99 136 178 224 277 335 398
#     4  12  25  45  71 101 135 175 225 282 336 398
#     4  11  26  46  68 101 140 180 223 277 336 400
#
# _framework density 24.458542999999999
#
# number of rings (size 3 to 8) (size 9 to 14) (size 15 to 20)
#    0.000    0.500    0.000    9.000    0.000    8.000 
#    0.000    8.750    0.000    0.000    0.000    0.000 
#    0.000    0.000    0.000    0.000    0.000    0.000 
#
# Total GULP energy -89825.090006 kJ/mol
# GULP energy per Si atom -5614.068125 kJ/mol
# Density = 2.440287 g / cm^3
# Si number density = 24.458543 Si / 1000 Ang^3
#
#
#
# Elastic Constant Matrix: (Units=GPa)
#
#
# Indices 1 2 3 4 5 6 
#
# 1 149.1223 34.0972 54.4462 0.0000 28.0138 0.0000
# 2 34.0972 184.7106 45.1566 0.0000 16.9373 0.0000
# 3 54.4462 45.1566 156.6287 0.0000 34.1830 0.0000
# 4 0.0000 0.0000 0.0000 -4.0964 0.0000 21.6647
# 5 28.0138 16.9373 34.1830 0.0000 42.1045 0.0000
# 6 0.0000 0.0000 0.0000 21.6647 0.0000 32.1186
#
#
#
# Elastic Compliance Matrix: (Units=1/GPa)
#
#
# Indices 1 2 3 4 5 6 
#
# 1 0.008241 -0.000731 -0.001849 0.000000 -0.003688 0.000000
# 2 -0.000731 0.005939 -0.001267 0.000000 -0.000874 0.000000
# 3 -0.001849 -0.001267 0.008523 0.000000 -0.005179 0.000000
# 4 0.000000 0.000000 0.000000 -0.053448 0.000000 0.036052
# 5 -0.003688 -0.000874 -0.005179 0.000000 0.030761 0.000000
# 6 0.000000 0.000000 0.000000 0.036052 0.000000 0.006817
#
#
# Mechanical properties :
#
#
# Convention : Reuss Voigt Hill
#
# Bulk Modulus (GPa) = 66.63216 84.20684 75.41950
# Shear Modulus (GPa) = 256.02320 37.80945 146.91632
#
# Velocity S-wave (km/s) = 10.24225 3.93601 7.75873
# Velocity P-wave (km/s) = 12.92956 7.42693 10.54355
#
# Compressibility (1/GPa) = 0.01500777
#
# Stress axis : x y z
#
# Youngs Moduli (GPa) = 121.34513 168.38490 117.32882
#
# Poissons Ratio (x) = 0.12310 0.21695
# Poissons Ratio (y) = 0.08871 0.14870
# Poissons Ratio (z) = 0.22438 0.21341
#
# Static dielectric constant tensor:
#      x y z
#    x 1.883060 0.000000 -0.033550 
#    y 0.000000 1.970740 0.000000 
#    z -0.033550 0.000000 1.948770 
# 
# From -- ./inp_files/128376.got.cif
#   From: 2010.05.17/outbox.cif.g08.bks.cpg/sg15_65_cif.got.tgz:128376.got - 2010.06.03 18:47:42.
