data_PCOD9305016
_publ_section_title
;
Structure prediction by ZEFSAII (Michael W. Deem and Ramdas Pophale) SiO2 
 PCOD9305016
Probable space group: C 2/C
;
_chemical_formula_sum "Si O2"
_cell_formula_units_Z 44
_cell_length_a 28.544253
_cell_length_b 13.210001
_cell_length_c 16.875095
_cell_angle_alpha 90.000000
_cell_angle_beta 158.997331
_cell_angle_gamma 90.000000
_cell_volume 2280.602625
_symmetry_space_group_name_H-M "C 2/C"
_symmetry_group_IT_number 15
_symmetry_cell_setting 'monoclinic'
loop_
_space_group_symop_operation_xyz
x,y,z
-x,y,1/2-z
-x,-y,-z
x,-y,1/2+z
1/2+x,1/2+y,z
1/2-x,1/2+y,1/2-z
1/2-x,1/2-y,-z
1/2+x,1/2-y,1/2+z
loop_
_atom_site_type_symbol
_atom_site_label
_atom_site_fract_x
_atom_site_fract_y
_atom_site_fract_z
Si Si1 0.345262 0.485857 0.266630
Si Si2 0.500000 0.743436 0.750000
Si Si3 0.699816 0.355501 0.457442
Si Si4 0.862112 0.639502 0.490366
Si Si5 0.628257 0.983393 0.651725
Si Si6 0.267837 0.158937 0.782699
O O1 0.500000 0.500000 0.500000
O O2 0.300453 0.434143 0.114448
O O3 0.323458 0.408259 0.304788
O O4 0.251016 0.581456 0.137648
O O5 0.437092 0.673125 0.718272
O O6 0.391123 0.810525 0.533252
O O7 0.750000 0.250000 0.500000
O O8 0.783593 0.405031 0.659910
O O9 0.898223 0.565230 0.475277
O O10 0.800348 0.740316 0.356114
O O11 0.000000 0.660869 0.750000
O O12 0.500000 0.000000 0.500000
O O13 0.692580 0.090430 0.730025
#
# Coordination Sequence:
#
# PCOD9305016 Si02
#       6
#     8   4   8   8   8   8
#     4  11  25  43  68 100 137 176 228 277 339 398
#     4  12  22  42  70  94 134 170 234 272 334 388
#     4  12  23  42  69  99 128 176 226 277 326 398
#     4  11  24  45  66  97 137 181 219 278 344 398
#     4  11  24  41  66  99 129 173 229 271 338 391
#     4  11  25  43  67  99 134 178 220 284 331 406
#
# _framework density 19.293146
#
# number of rings (size 3 to 8) (size 9 to 14) (size 15 to 20)
#    0.000    0.727    3.636    3.273    7.636    2.909 
#    0.000    2.727    0.000    0.000    0.000    0.000 
#    0.000    0.000    0.000    0.000    0.000    0.000 
#
# Total GULP energy -122880.946835 kJ/mol
# GULP energy per Si atom -5585.497583 kJ/mol
# Density = 1.924923 g / cm^3
# Si number density = 19.293146 Si / 1000 Ang^3
#
#
#
# Elastic Constant Matrix: (Units=GPa)
#
#
# Indices 1 2 3 4 5 6 
#
# 1 118.6703 32.1714 36.7888 0.0000 29.6982 0.0000
# 2 32.1714 100.7454 51.0753 0.0000 11.0947 0.0000
# 3 36.7888 51.0753 125.0133 0.0000 8.6067 0.0000
# 4 0.0000 0.0000 0.0000 27.7975 0.0000 -2.4465
# 5 29.6982 11.0947 8.6067 0.0000 42.7775 0.0000
# 6 0.0000 0.0000 0.0000 -2.4465 0.0000 45.3448
#
#
#
# Elastic Compliance Matrix: (Units=1/GPa)
#
#
# Indices 1 2 3 4 5 6 
#
# 1 0.011308 -0.001766 -0.002127 0.000000 -0.006964 0.000000
# 2 -0.001766 0.013012 -0.004714 0.000000 -0.001200 0.000000
# 3 -0.002127 -0.004714 0.010511 0.000000 0.000584 0.000000
# 4 0.000000 0.000000 0.000000 0.036146 0.000000 0.001950
# 5 -0.006964 -0.001200 0.000584 0.000000 0.028406 0.000000
# 6 0.000000 0.000000 0.000000 0.001950 0.000000 0.022158
#
#
# Mechanical properties :
#
#
# Convention : Reuss Voigt Hill
#
# Bulk Modulus (GPa) = 56.76165 64.94445 60.85305
# Shear Modulus (GPa) = 34.57208 38.14352 36.35780
#
# Velocity S-wave (km/s) = 4.23772 4.45123 4.34578
# Velocity P-wave (km/s) = 7.30950 7.75583 7.53597
#
# Compressibility (1/GPa) = 0.01761753
#
# Stress axis : x y z
#
# Youngs Moduli (GPa) = 88.43606 76.85292 95.14160
#
# Poissons Ratio (x) = 0.13570 0.20234
# Poissons Ratio (y) = 0.15616 0.44848
# Poissons Ratio (z) = 0.18808 0.36227
#
# Static dielectric constant tensor:
#      x y z
#    x 1.554130 0.000000 -0.094850 
#    y 0.000000 1.700380 0.000000 
#    z -0.094850 0.000000 1.627470 
# 
# From -- ./inp_files/142221.got.cif
#   From: 2010.05.17/outbox.cif.g08.bks.cpg/sg15_72_cif.got.tgz:142221.got - 2010.06.03 18:47:42.
