data_PCOD9305112
_publ_section_title
;
Structure prediction by ZEFSAII (Michael W. Deem and Ramdas Pophale) SiO2 
 PCOD9305112
Probable space group: C 2/C
;
_chemical_formula_sum "Si O2"
_cell_formula_units_Z 56
_cell_length_a 18.800077
_cell_length_b 5.377695
_cell_length_c 27.108645
_cell_angle_alpha 90.000000
_cell_angle_beta 74.820345
_cell_angle_gamma 90.000000
_cell_volume 2645.088524
_symmetry_space_group_name_H-M "C 2/C"
_symmetry_group_IT_number 15
_symmetry_cell_setting 'monoclinic'
loop_
_space_group_symop_operation_xyz
x,y,z
-x,y,1/2-z
-x,-y,-z
x,-y,1/2+z
1/2+x,1/2+y,z
1/2-x,1/2+y,1/2-z
1/2-x,1/2-y,-z
1/2+x,1/2-y,1/2+z
loop_
_atom_site_type_symbol
_atom_site_label
_atom_site_fract_x
_atom_site_fract_y
_atom_site_fract_z
Si Si1 0.543215 0.746245 0.477177
Si Si2 0.936688 0.838783 0.226985
Si Si3 0.963607 0.187325 0.137637
Si Si4 0.677537 0.049592 0.790616
Si Si5 0.317295 0.642565 0.304350
Si Si6 0.331827 0.700447 0.966053
Si Si7 0.630685 0.190804 0.600935
O O1 0.500000 0.500000 0.500000
O O2 0.553103 0.704680 0.417246
O O3 0.616583 0.739116 0.495917
O O4 0.500000 0.000000 0.500000
O O5 0.866745 0.691595 0.219114
O O6 0.000000 0.714697 0.250000
O O7 0.973413 0.942793 0.170070
O O8 0.895692 0.031305 0.271702
O O9 0.890133 0.296492 0.175013
O O10 0.043060 0.316095 0.126978
O O11 0.745724 0.034429 0.815668
O O12 0.705175 0.169188 0.734909
O O13 0.328333 0.762203 0.355141
O O14 0.349352 0.429627 0.938063
O O15 0.349010 0.925862 0.925627
O O16 0.250000 0.750000 0.000000
#
# Coordination Sequence:
#
# PCOD9305112 Si02
#       7
#     8   8   8   8   8   8   8
#     4  12  25  48  75 102 146 185 236 302 353 424
#     4  11  24  42  69  99 145 181 237 287 349 437
#     4  11  26  42  70 106 132 190 238 286 361 416
#     4  11  26  43  69 100 146 183 242 288 361 425
#     4  11  25  45  67 104 143 191 231 299 355 425
#     4  12  28  50  73 109 144 189 238 298 364 426
#     4  12  27  47  78 106 146 186 242 297 359 427
#
# _framework density 21.171312
#
# number of rings (size 3 to 8) (size 9 to 14) (size 15 to 20)
#    0.000    0.571    5.714    0.429   10.000    1.143 
#    0.000    0.000    0.000    0.000    0.000    0.000 
#    0.000    0.000    0.000    0.000    0.000    0.000 
#
# Total GULP energy -156147.961603 kJ/mol
# GULP energy per Si atom -5576.712914 kJ/mol
# Density = 2.112313 g / cm^3
# Si number density = 21.171312 Si / 1000 Ang^3
#
#
#
# Elastic Constant Matrix: (Units=GPa)
#
#
# Indices 1 2 3 4 5 6 
#
# 1 147.5604 0.8599 46.8894 0.0002 15.5802 -0.0029
# 2 0.8599 63.3494 17.6947 -0.0030 -3.8174 -0.0018
# 3 46.8894 17.6947 99.4171 0.0006 19.5313 -0.0015
# 4 0.0002 -0.0030 0.0006 14.4302 0.0006 5.8585
# 5 15.5802 -3.8174 19.5313 0.0006 45.6030 -0.0017
# 6 -0.0029 -0.0018 -0.0015 5.8585 -0.0017 26.9975
#
#
#
# Elastic Compliance Matrix: (Units=1/GPa)
#
#
# Indices 1 2 3 4 5 6 
#
# 1 0.008079 0.000874 -0.003754 0.000000 -0.001079 0.000001
# 2 0.000874 0.017065 -0.004009 0.000003 0.002847 0.000000
# 3 -0.003754 -0.004009 0.013492 -0.000001 -0.004831 0.000000
# 4 0.000000 0.000003 -0.000001 0.075994 -0.000001 -0.016491
# 5 -0.001079 0.002847 -0.004831 -0.000001 0.024605 0.000002
# 6 0.000001 0.000000 0.000000 -0.016491 0.000002 0.040619
#
#
# Mechanical properties :
#
#
# Convention : Reuss Voigt Hill
#
# Bulk Modulus (GPa) = 40.22862 49.02388 44.62625
# Shear Modulus (GPa) = 24.76280 33.73168 29.24724
#
# Velocity S-wave (km/s) = 3.42371 3.99591 3.72083
# Velocity P-wave (km/s) = 5.88827 6.67052 6.29157
#
# Compressibility (1/GPa) = 0.02485792
#
# Stress axis : x y z
#
# Youngs Moduli (GPa) = 123.78493 58.59999 74.11975
#
# Poissons Ratio (x) = -0.05120 0.27822
# Poissons Ratio (y) = -0.10816 0.29712
# Poissons Ratio (z) = 0.46465 0.23491
#
# Static dielectric constant tensor:
#      x y z
#    x 2.391330 0.000010 0.134870 
#    y 0.000010 1.877380 0.000000 
#    z 0.134870 0.000000 1.786880 
# 
# From -- ./inp_files/297727.got.cif
#   From: 2010.05.17/outbox.cif.g08.bks.cpg/sg15_149_cif.got.tgz:297727.got - 2010.06.03 18:47:42.
