data_PCOD9305642
_publ_section_title
;
Structure prediction by ZEFSAII (Michael W. Deem and Ramdas Pophale) SiO2 
 PCOD9305642
Probable space group: C 2/C
;
_chemical_formula_sum "Si O2"
_cell_formula_units_Z 24
_cell_length_a 17.756471
_cell_length_b 6.394518
_cell_length_c 14.881819
_cell_angle_alpha 90.000000
_cell_angle_beta 148.812601
_cell_angle_gamma 90.000000
_cell_volume 875.014281
_symmetry_space_group_name_H-M "C 2/C"
_symmetry_group_IT_number 15
_symmetry_cell_setting 'monoclinic'
loop_
_space_group_symop_operation_xyz
x,y,z
-x,y,1/2-z
-x,-y,-z
x,-y,1/2+z
1/2+x,1/2+y,z
1/2-x,1/2+y,1/2-z
1/2-x,1/2-y,-z
1/2+x,1/2-y,1/2+z
loop_
_atom_site_type_symbol
_atom_site_label
_atom_site_fract_x
_atom_site_fract_y
_atom_site_fract_z
Si Si1 0.136353 0.005811 0.847026
Si Si2 0.848376 0.412624 0.727923
Si Si3 0.124483 0.832581 0.655886
O O1 0.067616 0.219497 0.732475
O O2 0.000000 0.885420 0.750000
O O3 0.204408 0.908436 0.828008
O O4 0.250752 0.024377 0.042689
O O5 0.925515 0.606751 0.856123
O O6 0.738472 0.323931 0.691701
O O7 0.000000 0.000000 0.500000
#
# Coordination Sequence:
#
# PCOD9305642 Si02
#       3
#     8   8   8
#     4  11  24  46  71 105 143 186 240 296 361 425
#     4  11  25  45  70 104 147 185 238 302 354 427
#     4  12  24  45  72 104 142 190 239 291 364 427
#
# _framework density 27.428124
#
# number of rings (size 3 to 8) (size 9 to 14) (size 15 to 20)
#    0.000    0.667    6.667    1.000    0.000    2.667 
#   12.000    0.000    0.000    0.000    0.000    0.000 
#    0.000    0.000    0.000    0.000    0.000    0.000 
#
# Total GULP energy -66985.918277 kJ/mol
# GULP energy per Si atom -5582.159856 kJ/mol
# Density = 2.736570 g / cm^3
# Si number density = 27.428124 Si / 1000 Ang^3
#
#
#
# Elastic Constant Matrix: (Units=GPa)
#
#
# Indices 1 2 3 4 5 6 
#
# 1 163.8557 22.8310 59.2874 0.0000 -56.3379 0.0000
# 2 22.8310 132.6428 53.8477 0.0000 -24.7235 0.0000
# 3 59.2874 53.8477 154.6036 0.0000 -52.2489 0.0000
# 4 0.0000 0.0000 0.0000 49.6170 0.0000 -14.3660
# 5 -56.3379 -24.7235 -52.2489 0.0000 58.5712 0.0000
# 6 0.0000 0.0000 0.0000 -14.3660 0.0000 33.1459
#
#
#
# Elastic Compliance Matrix: (Units=1/GPa)
#
#
# Indices 1 2 3 4 5 6 
#
# 1 0.009192 0.000294 -0.000855 0.000000 0.008202 0.000000
# 2 0.000294 0.008871 -0.002636 0.000000 0.001676 0.000000
# 3 -0.000855 -0.002636 0.010107 0.000000 0.007081 0.000000
# 4 0.000000 0.000000 0.000000 0.023047 0.000000 0.009989
# 5 0.008202 0.001676 0.007081 0.000000 0.031987 0.000000
# 6 0.000000 0.000000 0.000000 0.009989 0.000000 0.034499
#
#
# Mechanical properties :
#
#
# Convention : Reuss Voigt Hill
#
# Bulk Modulus (GPa) = 45.92403 80.33712 63.13058
# Shear Modulus (GPa) = 38.06474 49.27587 43.67030
#
# Velocity S-wave (km/s) = 3.72936 4.24317 3.99453
# Velocity P-wave (km/s) = 5.94339 7.30476 6.65896
#
# Compressibility (1/GPa) = 0.02177509
#
# Stress axis : x y z
#
# Youngs Moduli (GPa) = 108.79541 112.72753 98.93847
#
# Poissons Ratio (x) = -0.03313 0.08461
# Poissons Ratio (y) = -0.03198 0.26081
# Poissons Ratio (z) = 0.09304 0.29716
#
# Static dielectric constant tensor:
#      x y z
#    x 1.941630 0.000000 -0.012480 
#    y 0.000000 2.428510 0.000000 
#    z -0.012480 0.000000 2.072740 
# 
# From -- ./inp_files/108773.got.cif
#   From: 2010.05.17/outbox.cif.g08.bks.cpg/sg15_55_cif.got.tgz:108773.got - 2010.06.03 18:47:42.
