data_PCOD9305254
_publ_section_title
;
Structure prediction by ZEFSAII (Michael W. Deem and Ramdas Pophale) SiO2 
 PCOD9305254
Probable space group: C 2/C
;
_chemical_formula_sum "Si O2"
_cell_formula_units_Z 24
_cell_length_a 9.884362
_cell_length_b 4.926600
_cell_length_c 20.521153
_cell_angle_alpha 90.000000
_cell_angle_beta 72.363393
_cell_angle_gamma 90.000000
_cell_volume 952.334169
_symmetry_space_group_name_H-M "C 2/C"
_symmetry_group_IT_number 15
_symmetry_cell_setting 'monoclinic'
loop_
_space_group_symop_operation_xyz
x,y,z
-x,y,1/2-z
-x,-y,-z
x,-y,1/2+z
1/2+x,1/2+y,z
1/2-x,1/2+y,1/2-z
1/2-x,1/2-y,-z
1/2+x,1/2-y,1/2+z
loop_
_atom_site_type_symbol
_atom_site_label
_atom_site_fract_x
_atom_site_fract_y
_atom_site_fract_z
Si Si1 0.091891 0.850120 0.542337
Si Si2 0.055019 0.364494 0.633341
Si Si3 0.694344 0.978533 0.236791
O O1 0.250000 0.750000 0.500000
O O2 0.021678 0.577664 0.581092
O O3 0.097548 0.077356 0.597944
O O4 0.000000 0.000000 0.500000
O O5 0.178471 0.478393 0.662389
O O6 0.923286 0.368035 0.701673
O O7 0.823023 0.166718 0.242054
#
# Coordination Sequence:
#
# PCOD9305254 Si02
#       3
#     8   8   8
#     4  12  28  47  74 104 149 200 245 304 371 456
#     4  11  26  46  70 108 141 186 253 300 379 444
#     4  11  24  43  76 102 140 187 236 321 370 438
#
# _framework density 25.201236999999999
#
# number of rings (size 3 to 8) (size 9 to 14) (size 15 to 20)
#    0.000    0.667    0.000    6.000   14.000    5.333 
#    0.000    0.000    0.000    0.000    0.000    0.000 
#    0.000    0.000    0.000    0.000    0.000    0.000 
#
# Total GULP energy -67078.436031 kJ/mol
# GULP energy per Si atom -5589.869669 kJ/mol
# Density = 2.514388 g / cm^3
# Si number density = 25.201237 Si / 1000 Ang^3
#
#
#
# Elastic Constant Matrix: (Units=GPa)
#
#
# Indices 1 2 3 4 5 6 
#
# 1 46.0979 25.6611 24.4531 0.0000 9.1094 0.0000
# 2 25.6611 178.0584 49.7706 0.0001 -15.9452 0.0001
# 3 24.4531 49.7706 106.7101 -0.0001 -4.7450 0.0000
# 4 0.0000 0.0001 -0.0001 53.2375 0.0000 6.2125
# 5 9.1094 -15.9452 -4.7450 0.0000 34.2144 0.0000
# 6 0.0000 0.0001 0.0000 6.2125 0.0000 32.9915
#
#
#
# Elastic Compliance Matrix: (Units=1/GPa)
#
#
# Indices 1 2 3 4 5 6 
#
# 1 0.028429 -0.003499 -0.005325 0.000000 -0.009938 0.000000
# 2 -0.003499 0.007129 -0.002348 0.000000 0.003928 0.000000
# 3 -0.005325 -0.002348 0.011774 0.000000 0.001956 0.000000
# 4 0.000000 0.000000 0.000000 0.019206 0.000000 -0.003617
# 5 -0.009938 0.003928 0.001956 0.000000 0.033975 0.000000
# 6 0.000000 0.000000 0.000000 -0.003617 0.000000 0.030992
#
#
# Mechanical properties :
#
#
# Convention : Reuss Voigt Hill
#
# Bulk Modulus (GPa) = 40.01995 58.95956 49.48975
# Shear Modulus (GPa) = 30.83056 39.48746 35.15901
#
# Velocity S-wave (km/s) = 3.50147 3.96269 3.73920
# Velocity P-wave (km/s) = 5.67994 6.66209 6.19052
#
# Compressibility (1/GPa) = 0.02498754
#
# Stress axis : x y z
#
# Youngs Moduli (GPa) = 35.17545 140.28145 84.93537
#
# Poissons Ratio (x) = 0.49080 0.45225
# Poissons Ratio (y) = 0.12307 0.19946
# Poissons Ratio (z) = 0.18730 0.32944
#
# Static dielectric constant tensor:
#      x y z
#    x 2.443580 0.000000 -0.007450 
#    y 0.000000 2.116970 0.000000 
#    z -0.007450 0.000000 1.963340 
# 
# From -- ./inp_files/194403.got.cif
#   From: 2010.05.17/outbox.cif.g08.bks.cpg/sg15_98_cif.got.tgz:194403.got - 2010.06.03 18:47:42.
