data_PCOD9305338
_publ_section_title
;
Structure prediction by ZEFSAII (Michael W. Deem and Ramdas Pophale) SiO2 
 PCOD9305338
Probable space group: C 2/C
;
_chemical_formula_sum "Si O2"
_cell_formula_units_Z 40
_cell_length_a 17.027920
_cell_length_b 7.188812
_cell_length_c 26.262460
_cell_angle_alpha 90.000000
_cell_angle_beta 147.847697
_cell_angle_gamma 90.000000
_cell_volume 1710.826133
_symmetry_space_group_name_H-M "C 2/C"
_symmetry_group_IT_number 15
_symmetry_cell_setting 'monoclinic'
loop_
_space_group_symop_operation_xyz
x,y,z
-x,y,1/2-z
-x,-y,-z
x,-y,1/2+z
1/2+x,1/2+y,z
1/2-x,1/2+y,1/2-z
1/2-x,1/2-y,-z
1/2+x,1/2-y,1/2+z
loop_
_atom_site_type_symbol
_atom_site_label
_atom_site_fract_x
_atom_site_fract_y
_atom_site_fract_z
Si Si1 0.342429 0.241318 0.481214
Si Si2 0.420019 0.997006 0.658395
Si Si3 0.887590 0.747227 0.388019
Si Si4 0.716459 0.804216 0.039934
Si Si5 0.880357 0.402199 0.322228
O O1 0.215210 0.372524 0.432775
O O2 0.359151 0.290853 0.430941
O O3 0.500947 0.254440 0.596298
O O4 0.293503 0.024399 0.457177
O O5 0.500000 0.091517 0.750000
O O6 0.532783 0.980296 0.673619
O O7 0.348304 0.806304 0.639363
O O8 0.861758 0.527939 0.361919
O O9 0.771422 0.842062 0.286316
O O10 0.058713 0.779183 0.469445
O O11 0.750000 0.750000 0.000000
#
# Coordination Sequence:
#
# PCOD9305338 Si02
#       5
#     8   8   8   8   8
#     4  11  25  47  71 101 145 181 232 292 347 408
#     4  12  25  45  70 105 138 184 236 281 349 421
#     4  11  25  45  70 104 139 184 233 289 351 409
#     4  11  24  45  70 100 139 184 230 285 347 411
#     4  11  24  44  70 101 139 180 231 284 352 412
#
# _framework density 23.380517000000001
#
# number of rings (size 3 to 8) (size 9 to 14) (size 15 to 20)
#    0.000    0.800    6.000    3.000    2.800    4.800 
#    0.000    0.000    0.000    0.000    0.000    0.000 
#    0.000    0.000    0.000    0.000    0.000    0.000 
#
# Total GULP energy -111853.618341 kJ/mol
# GULP energy per Si atom -5592.680917 kJ/mol
# Density = 2.332730 g / cm^3
# Si number density = 23.380517 Si / 1000 Ang^3
#
#
#
# Elastic Constant Matrix: (Units=GPa)
#
#
# Indices 1 2 3 4 5 6 
#
# 1 86.1509 7.1272 12.5758 0.0000 5.0264 0.0000
# 2 7.1272 64.6815 20.8785 0.0000 20.5822 0.0000
# 3 12.5758 20.8785 117.9570 0.0000 9.3079 0.0000
# 4 0.0000 0.0000 0.0000 39.2059 0.0000 -1.1134
# 5 5.0264 20.5822 9.3079 0.0000 40.1647 0.0000
# 6 0.0000 0.0000 0.0000 -1.1134 0.0000 28.6234
#
#
#
# Elastic Compliance Matrix: (Units=1/GPa)
#
#
# Indices 1 2 3 4 5 6 
#
# 1 0.011873 -0.000678 -0.001076 0.000000 -0.000889 0.000000
# 2 -0.000678 0.019309 -0.002619 0.000000 -0.009203 0.000000
# 3 -0.001076 -0.002619 0.009106 0.000000 -0.000633 0.000000
# 4 0.000000 0.000000 0.000000 0.025535 0.000000 0.000993
# 5 -0.000889 -0.009203 -0.000633 0.000000 0.029872 0.000000
# 6 0.000000 0.000000 0.000000 0.000993 0.000000 0.034975
#
#
# Mechanical properties :
#
#
# Convention : Reuss Voigt Hill
#
# Bulk Modulus (GPa) = 31.70421 38.88361 35.29391
# Shear Modulus (GPa) = 33.34925 36.81266 35.08095
#
# Velocity S-wave (km/s) = 3.78083 3.97230 3.87775
# Velocity P-wave (km/s) = 5.71394 6.14051 5.93106
#
# Compressibility (1/GPa) = 0.03154155
#
# Stress axis : x y z
#
# Youngs Moduli (GPa) = 84.22816 51.78932 109.81858
#
# Poissons Ratio (x) = 0.03512 0.11812
# Poissons Ratio (y) = 0.05712 0.28764
# Poissons Ratio (z) = 0.09059 0.13565
#
# Static dielectric constant tensor:
#      x y z
#    x 1.835260 0.000000 0.001110 
#    y 0.000000 1.967080 0.000000 
#    z 0.001110 0.000000 1.942400 
# 
# From -- ./inp_files/150593.got.cif
#   From: 2010.05.17/outbox.cif.g08.bks.cpg/sg15_76_cif.got.tgz:150593.got - 2010.06.03 18:47:42.
