data_PCOD9305322
_publ_section_title
;
Structure prediction by ZEFSAII (Michael W. Deem and Ramdas Pophale) SiO2 
 PCOD9305322
Probable space group: C 2/C
;
_chemical_formula_sum "Si O2"
_cell_formula_units_Z 40
_cell_length_a 23.511518
_cell_length_b 9.413904
_cell_length_c 8.259788
_cell_angle_alpha 90.000000
_cell_angle_beta 97.143292
_cell_angle_gamma 90.000000
_cell_volume 1813.991744
_symmetry_space_group_name_H-M "C 2/C"
_symmetry_group_IT_number 15
_symmetry_cell_setting 'monoclinic'
loop_
_space_group_symop_operation_xyz
x,y,z
-x,y,1/2-z
-x,-y,-z
x,-y,1/2+z
1/2+x,1/2+y,z
1/2-x,1/2+y,1/2-z
1/2-x,1/2-y,-z
1/2+x,1/2-y,1/2+z
loop_
_atom_site_type_symbol
_atom_site_label
_atom_site_fract_x
_atom_site_fract_y
_atom_site_fract_z
Si Si1 0.067666 0.297026 0.783778
Si Si2 0.356476 0.446591 0.323923
Si Si3 0.736517 0.144472 0.643961
Si Si4 0.152460 0.786846 0.837424
Si Si5 0.878470 0.481270 0.984171
O O1 0.099635 0.149690 0.761555
O O2 0.092025 0.399620 0.651833
O O3 0.000000 0.281222 0.750000
O O4 0.087038 0.379850 0.950720
O O5 0.294090 0.431278 0.220319
O O6 0.350369 0.380836 0.500374
O O7 0.373091 0.611132 0.310749
O O8 0.750000 0.250000 0.500000
O O9 0.713162 0.237128 0.786167
O O10 0.686213 0.034570 0.576969
O O11 0.123294 0.638498 0.875771
#
# Coordination Sequence:
#
# PCOD9305322 Si02
#       5
#     8   8   8   8   8
#     4  11  24  46  69  97 136 181 233 278 335 409
#     4  11  26  41  66 100 138 184 219 280 344 409
#     4  12  24  40  69 100 142 176 225 286 343 410
#     4  11  26  43  65 102 141 176 227 278 349 408
#     4  11  24  44  69 103 133 178 230 287 339 400
#
# _framework density 22.050816999999999
#
# number of rings (size 3 to 8) (size 9 to 14) (size 15 to 20)
#    0.000    0.800    4.000    2.400   11.200    0.000 
#    0.000    5.000    0.000    0.000    0.000    0.000 
#    0.000    0.000    0.000    0.000    0.000    0.000 
#
# Total GULP energy -111834.432653 kJ/mol
# GULP energy per Si atom -5591.721633 kJ/mol
# Density = 2.200063 g / cm^3
# Si number density = 22.050817 Si / 1000 Ang^3
#
#
#
# Elastic Constant Matrix: (Units=GPa)
#
#
# Indices 1 2 3 4 5 6 
#
# 1 118.0836 64.6816 -1.9494 0.0000 12.4101 0.0000
# 2 64.6816 148.2673 40.6093 0.0000 -4.1423 0.0000
# 3 -1.9494 40.6093 34.3379 0.0000 3.1344 0.0000
# 4 0.0000 0.0000 0.0000 53.6498 0.0000 -5.9061
# 5 12.4101 -4.1423 3.1344 0.0000 16.3537 0.0000
# 6 0.0000 0.0000 0.0000 -5.9061 0.0000 12.8555
#
#
#
# Elastic Compliance Matrix: (Units=1/GPa)
#
#
# Indices 1 2 3 4 5 6 
#
# 1 0.019001 -0.014415 0.020128 0.000000 -0.021928 0.000000
# 2 -0.014415 0.021308 -0.027999 0.000000 0.021703 0.000000
# 3 0.020128 -0.027999 0.066585 0.000000 -0.035128 0.000000
# 4 0.000000 0.000000 0.000000 0.019632 0.000000 0.009020
# 5 -0.021928 0.021703 -0.035128 0.000000 0.090018 0.000000
# 6 0.000000 0.000000 0.000000 0.009020 0.000000 0.081932
#
#
# Mechanical properties :
#
#
# Convention : Reuss Voigt Hill
#
# Bulk Modulus (GPa) = 16.04574 56.37464 36.21019
# Shear Modulus (GPa) = 13.74294 29.72828 21.73561
#
# Velocity S-wave (km/s) = 2.49919 3.67573 3.14300
# Velocity P-wave (km/s) = 3.95227 6.60575 5.44318
#
# Compressibility (1/GPa) = 0.06232184
#
# Stress axis : x y z
#
# Youngs Moduli (GPa) = 52.62783 46.93031 15.01847
#
# Poissons Ratio (x) = 0.67649 -0.30229
# Poissons Ratio (y) = 0.75862 0.42051
# Poissons Ratio (z) = -1.05929 1.31402
#
# Static dielectric constant tensor:
#      x y z
#    x 1.732730 0.000000 -0.011610 
#    y 0.000000 1.813800 0.000000 
#    z -0.011610 0.000000 1.880910 
# 
# From -- ./inp_files/59923.got.cif
#   From: 2010.05.17/outbox.cif.g08.bks.cpg/sg15_30_cif.got.tgz:59923.got - 2010.06.03 18:47:42.
