data_PCOD9305508
_publ_section_title
;
Structure prediction by ZEFSAII (Michael W. Deem and Ramdas Pophale) SiO2 
 PCOD9305508
Probable space group: C 2/C
;
_chemical_formula_sum "Si O2"
_cell_formula_units_Z 44
_cell_length_a 10.484133
_cell_length_b 13.405103
_cell_length_c 25.213634
_cell_angle_alpha 90.000000
_cell_angle_beta 32.273164
_cell_angle_gamma 90.000000
_cell_volume 1892.099232
_symmetry_space_group_name_H-M "C 2/C"
_symmetry_group_IT_number 15
_symmetry_cell_setting 'monoclinic'
loop_
_space_group_symop_operation_xyz
x,y,z
-x,y,1/2-z
-x,-y,-z
x,-y,1/2+z
1/2+x,1/2+y,z
1/2-x,1/2+y,1/2-z
1/2-x,1/2-y,-z
1/2+x,1/2-y,1/2+z
loop_
_atom_site_type_symbol
_atom_site_label
_atom_site_fract_x
_atom_site_fract_y
_atom_site_fract_z
Si Si1 0.675452 0.187704 0.148078
Si Si2 0.000000 0.314577 0.250000
Si Si3 0.813610 0.357200 0.681811
Si Si4 0.409698 0.508248 0.373555
Si Si5 0.997137 0.360983 0.005042
Si Si6 0.143553 0.978477 0.396830
O O1 0.500000 0.244984 0.250000
O O2 0.526475 0.158151 0.148369
O O3 0.904112 0.252370 0.052456
O O4 0.745874 0.086855 0.153815
O O5 0.150291 0.241873 0.234955
O O6 0.170848 0.390303 0.158917
O O7 0.633523 0.445894 0.762869
O O8 0.923786 0.368074 0.584434
O O9 0.230242 0.433496 0.406708
O O10 0.497497 0.452773 0.395482
O O11 0.231161 0.598808 0.452636
O O12 0.000000 0.000000 0.500000
#
# Coordination Sequence:
#
# PCOD9305508 Si02
#       6
#     8   4   8   8   8   8
#     4  12  25  43  67 103 142 176 239 292 350 414
#     4  12  24  44  70  96 132 196 228 282 358 406
#     4  12  23  46  70 102 141 186 237 289 350 429
#     4  11  24  45  71 101 140 179 242 284 353 418
#     4  11  25  43  72 104 137 189 231 294 355 415
#     4  12  25  44  68  99 139 184 231 290 351 421
#
# _framework density 23.254594999999998
#
# number of rings (size 3 to 8) (size 9 to 14) (size 15 to 20)
#    0.000    0.364    4.545    3.818    0.000    5.091 
#    0.000    0.000    0.000    0.000    0.000    0.000 
#    0.000    0.000    0.000    0.000    0.000    0.000 
#
# Total GULP energy -123066.964760 kJ/mol
# GULP energy per Si atom -5593.952944 kJ/mol
# Density = 2.320167 g / cm^3
# Si number density = 23.254595 Si / 1000 Ang^3
#
#
#
# Elastic Constant Matrix: (Units=GPa)
#
#
# Indices 1 2 3 4 5 6 
#
# 1 33.2857 -4.0031 -15.9255 -0.0008 -4.3484 0.0006
# 2 -4.0031 74.9331 23.0329 -0.0028 -6.8769 0.0006
# 3 -15.9255 23.0329 109.3130 -0.0092 11.9889 -0.0004
# 4 -0.0008 -0.0028 -0.0092 56.9022 0.0013 -8.1978
# 5 -4.3484 -6.8769 11.9889 0.0013 34.4346 0.0006
# 6 0.0006 0.0006 -0.0004 -8.1978 0.0006 22.5432
#
#
#
# Elastic Compliance Matrix: (Units=1/GPa)
#
#
# Indices 1 2 3 4 5 6 
#
# 1 0.032539 0.000669 0.004298 0.000001 0.002746 -0.000001
# 2 0.000669 0.014848 -0.003499 0.000000 0.004268 -0.000001
# 3 0.004298 -0.003499 0.010947 0.000002 -0.003967 0.000001
# 4 0.000001 0.000000 0.000002 0.018546 -0.000001 0.006744
# 5 0.002746 0.004268 -0.003967 -0.000001 0.031621 -0.000002
# 6 -0.000001 -0.000001 0.000001 0.006744 -0.000002 0.046812
#
#
# Mechanical properties :
#
#
# Convention : Reuss Voigt Hill
#
# Bulk Modulus (GPa) = 16.32122 24.86004 20.59063
# Shear Modulus (GPa) = 28.93535 37.07116 33.00325
#
# Velocity S-wave (km/s) = 3.53127 3.99700 3.77133
# Velocity P-wave (km/s) = 4.86418 5.65818 5.27613
#
# Compressibility (1/GPa) = 0.06126994
#
# Stress axis : x y z
#
# Youngs Moduli (GPa) = 30.73265 67.34788 91.35196
#
# Poissons Ratio (x) = -0.04506 -0.39266
# Poissons Ratio (y) = -0.02056 0.31966
# Poissons Ratio (z) = -0.13210 0.23567
#
# Static dielectric constant tensor:
#      x y z
#    x 1.946940 -0.000010 0.022980 
#    y -0.000010 1.937600 -0.000010 
#    z 0.022980 -0.000010 1.994800 
# 
# From -- ./inp_files/292796.got.cif
#   From: 2010.05.17/outbox.cif.g08.bks.cpg/sg15_147_cif.got.tgz:292796.got - 2010.06.03 18:47:42.
