data_PCOD9305381
_publ_section_title
;
Structure prediction by ZEFSAII (Michael W. Deem and Ramdas Pophale) SiO2 
 PCOD9305381
Probable space group: C 2/C
;
_chemical_formula_sum "Si O2"
_cell_formula_units_Z 60
_cell_length_a 11.689096
_cell_length_b 8.989933
_cell_length_c 24.727438
_cell_angle_alpha 90.000000
_cell_angle_beta 84.268251
_cell_angle_gamma 90.000000
_cell_volume 2585.471468
_symmetry_space_group_name_H-M "C 2/C"
_symmetry_group_IT_number 15
_symmetry_cell_setting 'monoclinic'
loop_
_space_group_symop_operation_xyz
x,y,z
-x,y,1/2-z
-x,-y,-z
x,-y,1/2+z
1/2+x,1/2+y,z
1/2-x,1/2+y,1/2-z
1/2-x,1/2-y,-z
1/2+x,1/2-y,1/2+z
loop_
_atom_site_type_symbol
_atom_site_label
_atom_site_fract_x
_atom_site_fract_y
_atom_site_fract_z
Si Si1 0.473945 0.578252 0.558035
Si Si2 0.311257 0.379103 0.635390
Si Si3 0.354781 0.155112 0.854453
Si Si4 0.000000 0.249641 0.750000
Si Si5 0.262433 0.810357 0.239660
Si Si6 0.729585 0.348446 0.053106
Si Si7 0.925182 0.483087 0.669731
Si Si8 0.303826 0.842893 0.571929
O O1 0.500000 0.500000 0.500000
O O2 0.419529 0.469536 0.605974
O O3 0.595058 0.640880 0.572789
O O4 0.384566 0.710320 0.548698
O O5 0.209861 0.499271 0.631256
O O6 0.301995 0.322510 0.697465
O O7 0.290907 0.233541 0.599861
O O8 0.307216 0.209442 0.798575
O O9 0.314308 0.270915 0.901315
O O10 0.488347 0.118128 0.846327
O O11 0.875881 0.170760 0.755434
O O12 0.995116 0.357696 0.698538
O O13 0.326410 0.955217 0.213477
O O14 0.776965 0.513038 0.038144
O O15 0.750000 0.250000 0.000000
O O16 0.870515 0.409941 0.620244
#
# Coordination Sequence:
#
# PCOD9305381 Si02
#       8
#     8   8   8   4   8   8   8   8
#     4  11  26  50  73 107 147 183 244 318 369 435
#     4  11  24  46  71 107 147 187 245 302 358 442
#     4  11  24  44  72 108 147 195 241 296 361 439
#     4  12  24  42  66 102 152 196 232 302 342 432
#     4  12  23  40  74 106 146 200 238 290 368 427
#     4  12  26  48  73 105 142 191 247 309 378 438
#     4  12  22  44  67 101 147 192 242 294 352 432
#     4  11  27  45  76 108 141 194 248 293 383 443
#
# _framework density 23.206600000000002
#
# number of rings (size 3 to 8) (size 9 to 14) (size 15 to 20)
#    0.000    0.533    6.667    0.800    1.867    1.067 
#    0.000    1.333    0.000    0.000    0.000    0.000 
#    0.000    0.000    0.000    0.000    0.000    0.000 
#
# Total GULP energy -167989.515944 kJ/mol
# GULP energy per Si atom -5599.650531 kJ/mol
# Density = 2.315378 g / cm^3
# Si number density = 23.206600 Si / 1000 Ang^3
#
#
#
# Elastic Constant Matrix: (Units=GPa)
#
#
# Indices 1 2 3 4 5 6 
#
# 1 149.3450 42.4679 20.7460 0.0000 -28.0960 0.0000
# 2 42.4679 125.7905 40.2066 0.0000 -16.9098 0.0000
# 3 20.7460 40.2066 50.2385 0.0000 -14.9160 0.0000
# 4 0.0000 0.0000 0.0000 45.8623 0.0000 -5.5539
# 5 -28.0960 -16.9098 -14.9160 0.0000 29.2105 0.0000
# 6 0.0000 0.0000 0.0000 -5.5539 0.0000 37.9187
#
#
#
# Elastic Compliance Matrix: (Units=1/GPa)
#
#
# Indices 1 2 3 4 5 6 
#
# 1 0.008592 -0.001991 0.000185 0.000000 0.007206 0.000000
# 2 -0.001991 0.011259 -0.008041 0.000000 0.000496 0.000000
# 3 0.000185 -0.008041 0.029391 0.000000 0.010531 0.000000
# 4 0.000000 0.000000 0.000000 0.022198 0.000000 0.003251
# 5 0.007206 0.000496 0.010531 0.000000 0.046830 0.000000
# 6 0.000000 0.000000 0.000000 0.003251 0.000000 0.026848
#
#
# Mechanical properties :
#
#
# Convention : Reuss Voigt Hill
#
# Bulk Modulus (GPa) = 33.84410 59.13502 46.48956
# Shear Modulus (GPa) = 28.62673 37.39519 33.01096
#
# Velocity S-wave (km/s) = 3.51602 4.01858 3.77567
# Velocity P-wave (km/s) = 5.57662 6.86071 6.25172
#
# Compressibility (1/GPa) = 0.02954724
#
# Stress axis : x y z
#
# Youngs Moduli (GPa) = 116.38621 88.81906 34.02436
#
# Poissons Ratio (x) = 0.17686 -0.00629
# Poissons Ratio (y) = 0.23175 0.27359
# Poissons Ratio (z) = -0.02153 0.71419
#
# Static dielectric constant tensor:
#      x y z
#    x 1.875230 0.000000 0.018280 
#    y 0.000000 1.888110 0.000000 
#    z 0.018280 0.000000 1.872070 
# 
# From -- ./inp_files/291586.got.cif
#   From: 2010.05.17/outbox.cif.g08.bks.cpg/sg15_146_cif.got.tgz:291586.got - 2010.06.03 18:47:42.
