data_PCOD9305916
_publ_section_title
;
Structure prediction by ZEFSAII (Michael W. Deem and Ramdas Pophale) SiO2 
 PCOD9305916
Probable space group: C 2/C
;
_chemical_formula_sum "Si O2"
_cell_formula_units_Z 40
_cell_length_a 6.623995
_cell_length_b 12.813449
_cell_length_c 30.045818
_cell_angle_alpha 90.000000
_cell_angle_beta 140.962021
_cell_angle_gamma 90.000000
_cell_volume 1606.190796
_symmetry_space_group_name_H-M "C 2/C"
_symmetry_group_IT_number 15
_symmetry_cell_setting 'monoclinic'
loop_
_space_group_symop_operation_xyz
x,y,z
-x,y,1/2-z
-x,-y,-z
x,-y,1/2+z
1/2+x,1/2+y,z
1/2-x,1/2+y,1/2-z
1/2-x,1/2-y,-z
1/2+x,1/2-y,1/2+z
loop_
_atom_site_type_symbol
_atom_site_label
_atom_site_fract_x
_atom_site_fract_y
_atom_site_fract_z
Si Si1 0.541310 0.477080 0.567044
Si Si2 0.505031 0.301407 0.803113
Si Si3 0.198738 0.607074 0.670777
Si Si4 0.355131 0.513500 0.814468
Si Si5 0.204258 0.347108 0.959658
O O1 0.543464 0.470608 0.620019
O O2 0.558092 0.371201 0.541269
O O3 0.263652 0.551100 0.500445
O O4 0.877882 0.539067 0.615399
O O5 0.500000 0.276676 0.750000
O O6 0.382400 0.213143 0.816681
O O7 0.319803 0.408941 0.779149
O O8 0.863019 0.330475 0.879060
O O9 0.500000 0.561683 0.750000
O O10 0.373279 0.597983 0.652964
O O11 0.000000 0.561271 0.750000
O O12 0.250000 0.250000 0.000000
#
# Coordination Sequence:
#
# PCOD9305916 Si02
#       5
#     8   8   8   8   8
#     4  11  25  46  77 108 153 205 252 311 387 454
#     4  12  27  48  77 113 150 198 258 317 384 463
#     4  12  25  45  75 111 147 200 254 311 379 451
#     4  12  25  47  76 112 150 199 259 321 379 453
#     4  11  24  48  76 108 159 199 252 319 379 464
#
# _framework density 24.903642999999999
#
# number of rings (size 3 to 8) (size 9 to 14) (size 15 to 20)
#    0.000    0.400    6.000    2.400    2.800    2.400 
#    0.000    2.000    0.000    0.000    0.000    0.000 
#    0.000    0.000    0.000    0.000    0.000    0.000 
#
# Total GULP energy -111781.499670 kJ/mol
# GULP energy per Si atom -5589.074983 kJ/mol
# Density = 2.484696 g / cm^3
# Si number density = 24.903643 Si / 1000 Ang^3
#
#
#
# Elastic Constant Matrix: (Units=GPa)
#
#
# Indices 1 2 3 4 5 6 
#
# 1 135.5401 98.0595 28.2858 0.0000 -21.6038 -0.0005
# 2 98.0595 156.6552 42.6724 0.0000 -11.9500 0.0002
# 3 28.2858 42.6724 123.4859 0.0000 -3.9983 0.0003
# 4 0.0000 0.0000 0.0000 28.2302 0.0000 -0.0671
# 5 -21.6038 -11.9500 -3.9983 0.0000 49.6235 -0.0001
# 6 -0.0005 0.0002 0.0003 -0.0671 -0.0001 -5.9956
#
#
#
# Elastic Compliance Matrix: (Units=1/GPa)
#
#
# Indices 1 2 3 4 5 6 
#
# 1 0.014276 -0.008573 -0.000173 0.000000 0.004137 -0.000001
# 2 -0.008573 0.012309 -0.002321 0.000000 -0.000955 0.000001
# 3 -0.000173 -0.002321 0.008943 0.000000 0.000086 0.000000
# 4 0.000000 0.000000 0.000000 0.035422 0.000000 -0.000396
# 5 0.004137 -0.000955 0.000086 0.000000 0.021730 -0.000001
# 6 -0.000001 0.000001 0.000000 -0.000396 -0.000001 -0.166784
#
#
# Mechanical properties :
#
#
# Convention : Reuss Voigt Hill
#
# Bulk Modulus (GPa) = 74.66774 83.74630 79.20702
# Shear Modulus (GPa) = -105.25297 30.81584 -37.21856
#
# Velocity S-wave (km/s) = -6.50814 3.52149 -3.87007
# Velocity P-wave (km/s) = 5.14069 7.08771 3.45029
#
# Compressibility (1/GPa) = 0.01339266
#
# Stress axis : x y z
#
# Youngs Moduli (GPa) = 70.04748 81.23916 111.82436
#
# Poissons Ratio (x) = 0.69650 0.01940
# Poissons Ratio (y) = 0.60054 0.25952
# Poissons Ratio (z) = 0.01215 0.18854
#
# Static dielectric constant tensor:
#      x y z
#    x 2.310130 0.000000 -0.067650 
#    y 0.000000 2.009690 0.000000 
#    z -0.067650 0.000000 1.991600 
# 
# From -- ./inp_files/305277.got.cif
#   From: 2010.05.17/outbox.cif.g08.bks.cpg/sg15_153_cif.got.tgz:305277.got - 2010.06.03 18:47:42.
