data_PCOD9305166
_publ_section_title
;
Structure prediction by ZEFSAII (Michael W. Deem and Ramdas Pophale) SiO2 
 PCOD9305166
Probable space group: C 2/C
;
_chemical_formula_sum "Si O2"
_cell_formula_units_Z 52
_cell_length_a 5.307797
_cell_length_b 26.188973
_cell_length_c 17.084110
_cell_angle_alpha 90.000000
_cell_angle_beta 106.892952
_cell_angle_gamma 90.000000
_cell_volume 2272.315818
_symmetry_space_group_name_H-M "C 2/C"
_symmetry_group_IT_number 15
_symmetry_cell_setting 'monoclinic'
loop_
_space_group_symop_operation_xyz
x,y,z
-x,y,1/2-z
-x,-y,-z
x,-y,1/2+z
1/2+x,1/2+y,z
1/2-x,1/2+y,1/2-z
1/2-x,1/2-y,-z
1/2+x,1/2-y,1/2+z
loop_
_atom_site_type_symbol
_atom_site_label
_atom_site_fract_x
_atom_site_fract_y
_atom_site_fract_z
Si Si1 0.500000 0.002564 0.750000
Si Si2 0.500000 0.381711 0.750000
Si Si3 0.176687 0.040060 0.964793
Si Si4 0.000000 0.313132 0.750000
Si Si5 0.882648 0.236406 0.594957
Si Si6 0.652738 0.405090 0.190551
Si Si7 0.941004 0.311511 0.158298
Si Si8 0.389451 0.947641 0.885551
O O1 0.738417 0.041865 0.764894
O O2 0.552193 0.964978 0.825174
O O3 0.260242 0.347356 0.760052
O O4 0.643745 0.415496 0.830959
O O5 0.018575 0.079710 0.899102
O O6 0.306510 0.001286 0.915497
O O7 0.396597 0.071453 0.033146
O O8 0.000000 0.000000 0.000000
O O9 0.058056 0.280206 0.834135
O O10 0.750000 0.250000 0.500000
O O11 0.678093 0.199461 0.621650
O O12 0.166328 0.211570 0.604319
O O13 0.500000 0.379317 0.250000
O O14 0.877198 0.370289 0.171478
O O15 0.000000 0.288127 0.250000
#
# Coordination Sequence:
#
# PCOD9305166 Si02
#       8
#     4   4   8   4   8   8   8   8
#     4  12  21  40  71  96 144 202 259 290 365 442
#     4  12  28  48  79 107 148 197 261 312 378 450
#     4  11  24  43  66 101 154 204 249 308 367 437
#     4  12  27  52  80 109 148 195 250 326 393 476
#     4  12  27  53  81 112 147 195 245 310 403 478
#     4  12  24  41  70 111 146 197 255 306 374 444
#     4  12  24  47  79 109 151 187 240 318 378 457
#     4  11  25  44  68 100 146 207 252 308 365 431
#
# _framework density 22.884142000000001
#
# number of rings (size 3 to 8) (size 9 to 14) (size 15 to 20)
#    0.000    0.308    5.385    3.692    2.154    1.231 
#    2.769    0.000    0.000    0.000    0.000    0.000 
#    0.000    0.000    0.000    0.000    0.000    0.000 
#
# Total GULP energy -145245.001261 kJ/mol
# GULP energy per Si atom -5586.346202 kJ/mol
# Density = 2.283206 g / cm^3
# Si number density = 22.884142 Si / 1000 Ang^3
#
#
#
# Elastic Constant Matrix: (Units=GPa)
#
#
# Indices 1 2 3 4 5 6 
#
# 1 118.1607 41.2072 42.9598 0.0000 23.6974 0.0000
# 2 41.2072 77.0322 51.7299 0.0000 16.6814 0.0000
# 3 42.9598 51.7299 178.7280 0.0000 40.2432 0.0000
# 4 0.0000 0.0000 0.0000 23.6059 0.0000 10.0793
# 5 23.6974 16.6814 40.2432 0.0000 52.2500 0.0000
# 6 0.0000 0.0000 0.0000 10.0793 0.0000 47.7955
#
#
#
# Elastic Compliance Matrix: (Units=1/GPa)
#
#
# Indices 1 2 3 4 5 6 
#
# 1 0.010953 -0.004835 -0.000559 0.000000 -0.002993 0.000000
# 2 -0.004835 0.018402 -0.004035 0.000000 -0.000575 0.000000
# 3 -0.000559 -0.004035 0.007924 0.000000 -0.004562 0.000000
# 4 0.000000 0.000000 0.000000 0.046554 0.000000 -0.009818
# 5 -0.002993 -0.000575 -0.004562 0.000000 0.024193 0.000000
# 6 0.000000 0.000000 0.000000 -0.009818 0.000000 0.022993
#
#
# Mechanical properties :
#
#
# Convention : Reuss Voigt Hill
#
# Bulk Modulus (GPa) = 54.28592 71.74607 63.01600
# Shear Modulus (GPa) = 32.04756 40.59853 36.32305
#
# Velocity S-wave (km/s) = 3.74629 4.21656 3.98836
# Velocity P-wave (km/s) = 6.51816 7.42468 6.98614
#
# Compressibility (1/GPa) = 0.01842098
#
# Stress axis : x y z
#
# Youngs Moduli (GPa) = 91.29973 54.34201 126.19301
#
# Poissons Ratio (x) = 0.26277 0.07057
# Poissons Ratio (y) = 0.44147 0.50913
# Poissons Ratio (z) = 0.05106 0.21924
#
# Static dielectric constant tensor:
#      x y z
#    x 1.903010 0.000000 0.133250 
#    y 0.000000 1.858960 0.000000 
#    z 0.133250 0.000000 1.719020 
# 
# From -- ./inp_files/130904.got.cif
#   From: 2010.05.17/outbox.cif.g08.bks.cpg/sg15_66_cif.got.tgz:130904.got - 2010.06.03 18:47:42.
