data_PCOD9305589
_publ_section_title
;
Structure prediction by ZEFSAII (Michael W. Deem and Ramdas Pophale) SiO2 
 PCOD9305589
Probable space group: C 2/C
;
_chemical_formula_sum "Si O2"
_cell_formula_units_Z 36
_cell_length_a 5.217678
_cell_length_b 29.341288
_cell_length_c 10.590228
_cell_angle_alpha 90.000000
_cell_angle_beta 71.063800
_cell_angle_gamma 90.000000
_cell_volume 1533.550345
_symmetry_space_group_name_H-M "C 2/C"
_symmetry_group_IT_number 15
_symmetry_cell_setting 'monoclinic'
loop_
_space_group_symop_operation_xyz
x,y,z
-x,y,1/2-z
-x,-y,-z
x,-y,1/2+z
1/2+x,1/2+y,z
1/2-x,1/2+y,1/2-z
1/2-x,1/2-y,-z
1/2+x,1/2-y,1/2+z
loop_
_atom_site_type_symbol
_atom_site_label
_atom_site_fract_x
_atom_site_fract_y
_atom_site_fract_z
Si Si1 0.000000 0.643339 0.750000
Si Si2 0.157997 0.493795 0.347066
Si Si3 0.500000 0.420136 0.750000
Si Si4 0.264376 0.661516 0.444277
Si Si5 0.309040 0.214665 0.382128
Si Si6 0.500000 0.581699 0.750000
O O1 0.137769 0.666356 0.604979
O O2 0.250483 0.613667 0.759772
O O3 0.262879 0.542346 0.278545
O O4 0.381874 0.456942 0.361543
O O5 0.000000 0.473974 0.250000
O O6 0.000000 0.500000 0.500000
O O7 0.602679 0.386637 0.620822
O O8 0.518159 0.695516 0.388669
O O9 0.010310 0.674210 0.396086
O O10 0.500000 0.239162 0.250000
O O11 0.250000 0.250000 0.500000
#
# Coordination Sequence:
#
# PCOD9305589 Si02
#       6
#     4   8   4   8   8   4
#     4  12  26  44  75 104 155 192 249 310 371 434
#     4  11  26  44  72 104 146 201 258 305 378 437
#     4  11  26  42  73 102 150 190 246 318 359 434
#     4  12  27  48  74 114 144 193 244 305 374 442
#     4  12  27  50  78 107 149 189 244 295 371 457
#     4  11  24  46  66 102 145 194 253 298 358 436
#
# _framework density 23.47494
#
# number of rings (size 3 to 8) (size 9 to 14) (size 15 to 20)
#    0.000    0.444    3.333    3.333    9.333    1.778 
#    0.000    0.000    0.000    0.000    0.000    0.000 
#    0.000    0.000    0.000    0.000    0.000    0.000 
#
# Total GULP energy -100255.916839 kJ/mol
# GULP energy per Si atom -5569.773158 kJ/mol
# Density = 2.342151 g / cm^3
# Si number density = 23.474940 Si / 1000 Ang^3
#
#
#
# Elastic Constant Matrix: (Units=GPa)
#
#
# Indices 1 2 3 4 5 6 
#
# 1 120.0290 34.2532 50.4305 0.0000 -30.1602 0.0000
# 2 34.2532 38.9608 10.2613 0.0000 1.0878 0.0000
# 3 50.4305 10.2613 188.6002 0.0000 -26.9353 0.0000
# 4 0.0000 0.0000 0.0000 -60.1001 0.0000 17.6978
# 5 -30.1602 1.0878 -26.9353 0.0000 34.2874 0.0000
# 6 0.0000 0.0000 0.0000 17.6978 0.0000 11.3298
#
#
#
# Elastic Compliance Matrix: (Units=1/GPa)
#
#
# Indices 1 2 3 4 5 6 
#
# 1 0.016679 -0.014603 -0.001694 0.000000 0.013804 0.000000
# 2 -0.014603 0.038971 -0.000255 0.000000 -0.014282 0.000000
# 3 -0.001694 -0.000255 0.006260 0.000000 0.003436 0.000000
# 4 0.000000 0.000000 0.000000 -0.011397 0.000000 0.017802
# 5 0.013804 -0.014282 0.003436 0.000000 0.044460 0.000000
# 6 0.000000 0.000000 0.000000 0.017802 0.000000 0.060455
#
#
# Mechanical properties :
#
#
# Convention : Reuss Voigt Hill
#
# Bulk Modulus (GPa) = 34.71543 59.72000 47.21772
# Shear Modulus (GPa) = 25.23550 13.94641 19.59095
#
# Velocity S-wave (km/s) = 3.28227 2.44006 2.89199
# Velocity P-wave (km/s) = 5.40230 5.78218 5.59546
#
# Compressibility (1/GPa) = 0.02880563
#
# Stress axis : x y z
#
# Youngs Moduli (GPa) = 59.95624 25.65995 159.75182
#
# Poissons Ratio (x) = 0.37471 0.27060
# Poissons Ratio (y) = 0.87553 0.04080
# Poissons Ratio (z) = 0.10156 0.00655
#
# Static dielectric constant tensor:
#      x y z
#    x 1.958880 0.000000 0.027320 
#    y 0.000000 1.942840 0.000000 
#    z 0.027320 0.000000 1.929680 
# 
# From -- ./inp_files/73557.got.cif
#   From: 2010.05.17/outbox.cif.g08.bks.cpg/sg15_37_cif.got.tgz:73557.got - 2010.06.03 18:47:42.
