data_PCOD9305397
_publ_section_title
;
Structure prediction by ZEFSAII (Michael W. Deem and Ramdas Pophale) SiO2 
 PCOD9305397
Probable space group: C 2/C
;
_chemical_formula_sum "Si O2"
_cell_formula_units_Z 44
_cell_length_a 7.184043
_cell_length_b 11.790718
_cell_length_c 27.832382
_cell_angle_alpha 90.000000
_cell_angle_beta 58.624069
_cell_angle_gamma 90.000000
_cell_volume 2012.798191
_symmetry_space_group_name_H-M "C 2/C"
_symmetry_group_IT_number 15
_symmetry_cell_setting 'monoclinic'
loop_
_space_group_symop_operation_xyz
x,y,z
-x,y,1/2-z
-x,-y,-z
x,-y,1/2+z
1/2+x,1/2+y,z
1/2-x,1/2+y,1/2-z
1/2-x,1/2-y,-z
1/2+x,1/2-y,1/2+z
loop_
_atom_site_type_symbol
_atom_site_label
_atom_site_fract_x
_atom_site_fract_y
_atom_site_fract_z
Si Si1 0.709434 0.630365 0.358803
Si Si2 0.467031 0.761246 0.606650
Si Si3 0.009165 0.334827 0.166352
Si Si4 0.994311 0.510839 0.927404
Si Si5 0.864004 0.042596 0.952772
Si Si6 0.000000 0.475853 0.250000
O O1 0.590733 0.722091 0.341939
O O2 0.539103 0.548015 0.409379
O O3 0.849683 0.552824 0.303920
O O4 0.860528 0.701810 0.375543
O O5 0.246648 0.701482 0.654526
O O6 0.543369 0.669782 0.556675
O O7 0.421328 0.882688 0.589811
O O8 0.020759 0.422875 0.120416
O O9 0.882914 0.395090 0.226698
O O10 0.170612 0.562245 0.939743
O O11 0.758157 0.503668 0.984022
#
# Coordination Sequence:
#
# PCOD9305397 Si02
#       6
#     8   8   8   8   8   4
#     4  12  27  47  71 103 142 181 236 293 344 418
#     4  12  23  46  72 106 138 186 229 276 354 414
#     4  12  27  47  71 103 142 181 236 293 344 418
#     4  11  24  44  73 107 144 185 227 283 353 420
#     4  11  24  44  73 107 144 185 227 283 353 420
#     4  12  28  48  72 102 132 190 240 282 356 400
#
# _framework density 21.860113999999999
#
# number of rings (size 3 to 8) (size 9 to 14) (size 15 to 20)
#    0.000    0.364    7.273    0.545    2.545    5.091 
#    0.000    1.818    0.000    0.000    0.000    0.000 
#    0.000    0.000    0.000    0.000    0.000    0.000 
#
# Total GULP energy -122908.911858 kJ/mol
# GULP energy per Si atom -5586.768721 kJ/mol
# Density = 2.181036 g / cm^3
# Si number density = 21.860114 Si / 1000 Ang^3
#
#
#
# Elastic Constant Matrix: (Units=GPa)
#
#
# Indices 1 2 3 4 5 6 
#
# 1 59.4394 6.5903 7.4920 0.0000 4.8381 0.0000
# 2 6.5903 131.3157 29.5914 0.0000 5.6783 0.0000
# 3 7.4920 29.5914 102.4984 0.0000 18.9047 0.0000
# 4 0.0000 0.0000 0.0000 30.3076 0.0000 5.7661
# 5 4.8381 5.6783 18.9047 0.0000 22.2652 0.0000
# 6 0.0000 0.0000 0.0000 5.7661 0.0000 25.8310
#
#
#
# Elastic Compliance Matrix: (Units=1/GPa)
#
#
# Indices 1 2 3 4 5 6 
#
# 1 0.017212 -0.000615 -0.000498 0.000000 -0.003161 0.000000
# 2 -0.000615 0.008167 -0.002316 0.000000 0.000017 0.000000
# 3 -0.000498 -0.002316 0.012251 0.000000 -0.009703 0.000000
# 4 0.000000 0.000000 0.000000 0.034458 0.000000 -0.007692
# 5 -0.003161 0.000017 -0.009703 0.000000 0.053834 0.000000
# 6 0.000000 0.000000 0.000000 -0.007692 0.000000 0.040430
#
#
# Mechanical properties :
#
#
# Convention : Reuss Voigt Hill
#
# Bulk Modulus (GPa) = 32.49622 42.28896 37.39259
# Shear Modulus (GPa) = 27.25273 32.31943 29.78608
#
# Velocity S-wave (km/s) = 3.53468 3.84925 3.69531
# Velocity P-wave (km/s) = 5.61751 6.25643 5.94556
#
# Compressibility (1/GPa) = 0.03077281
#
# Stress axis : x y z
#
# Youngs Moduli (GPa) = 58.09884 122.43971 81.62662
#
# Poissons Ratio (x) = 0.07530 0.04061
# Poissons Ratio (y) = 0.03573 0.18906
# Poissons Ratio (z) = 0.02891 0.28359
#
# Static dielectric constant tensor:
#      x y z
#    x 1.853900 0.000000 -0.015500 
#    y 0.000000 1.787050 0.000000 
#    z -0.015500 0.000000 1.782500 
# 
# From -- ./inp_files/287869.got.cif
#   From: 2010.05.17/outbox.cif.g08.bks.cpg/sg15_144_cif.got.tgz:287869.got - 2010.06.03 18:47:42.
