data_PCOD9305776
_publ_section_title
;
Structure prediction by ZEFSAII (Michael W. Deem and Ramdas Pophale) SiO2 
 PCOD9305776
Probable space group: C 2/C
;
_chemical_formula_sum "Si O2"
_cell_formula_units_Z 60
_cell_length_a 16.738360
_cell_length_b 9.155202
_cell_length_c 16.354391
_cell_angle_alpha 90.000000
_cell_angle_beta 88.704869
_cell_angle_gamma 90.000000
_cell_volume 2505.556786
_symmetry_space_group_name_H-M "C 2/C"
_symmetry_group_IT_number 15
_symmetry_cell_setting 'monoclinic'
loop_
_space_group_symop_operation_xyz
x,y,z
-x,y,1/2-z
-x,-y,-z
x,-y,1/2+z
1/2+x,1/2+y,z
1/2-x,1/2+y,1/2-z
1/2-x,1/2-y,-z
1/2+x,1/2-y,1/2+z
loop_
_atom_site_type_symbol
_atom_site_label
_atom_site_fract_x
_atom_site_fract_y
_atom_site_fract_z
Si Si1 0.500000 0.002832 0.250000
Si Si2 0.448612 0.576326 0.624714
Si Si3 0.441204 0.754598 0.149300
Si Si4 0.654480 0.745302 0.002593
Si Si5 0.908095 0.550192 0.509869
Si Si6 0.829793 0.231784 0.311053
Si Si7 0.398697 0.211202 0.345991
Si Si8 0.803062 0.079978 0.755189
O O1 0.426174 0.108895 0.270010
O O2 0.492837 0.896672 0.172804
O O3 0.473284 0.405361 0.625187
O O4 0.396230 0.626552 0.547437
O O5 0.525390 0.681756 0.634547
O O6 0.385532 0.583908 0.701158
O O7 0.391146 0.738450 0.234019
O O8 0.394879 0.817879 0.072875
O O9 0.634125 0.736392 0.099361
O O10 0.633135 0.901038 0.964082
O O11 0.750000 0.750000 0.000000
O O12 0.882068 0.608608 0.422790
O O13 0.000000 0.500000 0.500000
O O14 0.767535 0.362454 0.299795
O O15 0.787832 0.076187 0.295580
O O16 0.321666 0.304612 0.325616
#
# Coordination Sequence:
#
# PCOD9305776 Si02
#       8
#     4   8   8   8   8   8   8   8
#     4  12  22  40  74  98 142 190 228 302 352 424
#     4  11  24  47  71 109 145 182 242 303 359 429
#     4  11  28  43  70 107 151 182 241 302 360 431
#     4  12  26  48  76 103 147 192 243 299 367 435
#     4  12  26  46  70 112 140 191 247 293 364 436
#     4  11  28  46  71 103 146 188 241 295 362 438
#     4  12  25  44  76 102 143 187 243 297 361 428
#     4  11  26  45  70 105 136 195 235 290 367 430
#
# _framework density 23.946773
#
# number of rings (size 3 to 8) (size 9 to 14) (size 15 to 20)
#    0.000    0.533    5.333    0.800   11.200    0.533 
#    0.000    1.333    0.000    0.000    0.000    0.000 
#    0.000    0.000    0.000    0.000    0.000    0.000 
#
# Total GULP energy -167815.906408 kJ/mol
# GULP energy per Si atom -5593.863547 kJ/mol
# Density = 2.389227 g / cm^3
# Si number density = 23.946773 Si / 1000 Ang^3
#
#
#
# Elastic Constant Matrix: (Units=GPa)
#
#
# Indices 1 2 3 4 5 6 
#
# 1 60.2125 13.8432 -1.2271 0.0000 5.5350 0.0000
# 2 13.8432 140.9492 19.0542 0.0000 5.2727 0.0000
# 3 -1.2271 19.0542 106.4398 0.0000 6.8116 0.0000
# 4 0.0000 0.0000 0.0000 36.4637 0.0000 10.4210
# 5 5.5350 5.2727 6.8116 0.0000 29.9773 0.0000
# 6 0.0000 0.0000 0.0000 10.4210 0.0000 23.8996
#
#
#
# Elastic Compliance Matrix: (Units=1/GPa)
#
#
# Indices 1 2 3 4 5 6 
#
# 1 0.017289 -0.001678 0.000695 0.000000 -0.003055 0.000000
# 2 -0.001678 0.007463 -0.001310 0.000000 -0.000705 0.000000
# 3 0.000695 -0.001310 0.009773 0.000000 -0.002119 0.000000
# 4 0.000000 0.000000 0.000000 0.031329 0.000000 -0.013660
# 5 -0.003055 -0.000705 -0.002119 0.000000 0.034528 0.000000
# 6 0.000000 0.000000 0.000000 -0.013660 0.000000 0.047798
#
#
# Mechanical properties :
#
#
# Convention : Reuss Voigt Hill
#
# Bulk Modulus (GPa) = 33.40098 41.21580 37.30839
# Shear Modulus (GPa) = 30.72299 36.46353 33.59326
#
# Velocity S-wave (km/s) = 3.58574 3.90640 3.74950
# Velocity P-wave (km/s) = 5.57868 6.13151 5.86162
#
# Compressibility (1/GPa) = 0.02993924
#
# Stress axis : x y z
#
# Youngs Moduli (GPa) = 57.84175 133.99397 102.32150
#
# Poissons Ratio (x) = 0.22480 -0.07113
# Poissons Ratio (y) = 0.09704 0.13406
# Poissons Ratio (z) = -0.04021 0.17556
#
# Static dielectric constant tensor:
#      x y z
#    x 1.950970 0.000000 0.005780 
#    y 0.000000 1.912150 0.000000 
#    z 0.005780 0.000000 1.938640 
# 
# From -- ./inp_files/209608.got.cif
#   From: 2010.05.17/outbox.cif.g08.bks.cpg/sg15_105_cif.got.tgz:209608.got - 2010.06.03 18:47:42.
