data_PCOD9305615
_publ_section_title
;
Structure prediction by ZEFSAII (Michael W. Deem and Ramdas Pophale) SiO2 
 PCOD9305615
Probable space group: C 2/C
;
_chemical_formula_sum "Si O2"
_cell_formula_units_Z 56
_cell_length_a 23.638266
_cell_length_b 6.572575
_cell_length_c 24.196912
_cell_angle_alpha 90.000000
_cell_angle_beta 135.078847
_cell_angle_gamma 90.000000
_cell_volume 2654.591137
_symmetry_space_group_name_H-M "C 2/C"
_symmetry_group_IT_number 15
_symmetry_cell_setting 'monoclinic'
loop_
_space_group_symop_operation_xyz
x,y,z
-x,y,1/2-z
-x,-y,-z
x,-y,1/2+z
1/2+x,1/2+y,z
1/2-x,1/2+y,1/2-z
1/2-x,1/2-y,-z
1/2+x,1/2-y,1/2+z
loop_
_atom_site_type_symbol
_atom_site_label
_atom_site_fract_x
_atom_site_fract_y
_atom_site_fract_z
Si Si1 0.484699 0.154044 0.635239
Si Si2 0.371107 0.227703 0.034802
Si Si3 0.195530 0.309946 0.657019
Si Si4 0.581386 0.511075 0.331308
Si Si5 0.161658 0.486855 0.751034
Si Si6 0.562424 0.566873 0.497546
Si Si7 0.723584 0.377611 0.365172
O O1 0.446466 0.278909 0.659754
O O2 0.480719 0.307602 0.580715
O O3 0.428768 0.963692 0.582427
O O4 0.575295 0.079625 0.705372
O O5 0.398674 0.368583 0.003003
O O6 0.282559 0.155546 0.957643
O O7 0.382128 0.367275 0.096161
O O8 0.159283 0.360044 0.691909
O O9 0.130001 0.204229 0.572782
O O10 0.226081 0.513319 0.648042
O O11 0.271290 0.158799 0.712642
O O12 0.500000 0.417932 0.250000
O O13 0.649403 0.519709 0.331908
O O14 0.189752 0.334099 0.818626
O O15 0.500000 0.500000 0.500000
#
# Coordination Sequence:
#
# PCOD9305615 Si02
#       7
#     8   8   8   8   8   8   8
#     4  11  26  45  70 100 138 185 235 290 351 416
#     4  11  24  46  69 105 137 184 239 287 352 421
#     4  12  25  43  69 107 145 184 236 289 357 425
#     4  11  26  47  69 101 137 184 241 290 349 422
#     4  12  26  43  72 107 145 186 234 296 356 421
#     4  11  25  42  69 101 142 184 235 283 350 426
#     4  12  25  46  73 102 143 187 234 294 356 423
#
# _framework density 21.095527000000001
#
# number of rings (size 3 to 8) (size 9 to 14) (size 15 to 20)
#    0.000    0.571    4.286    3.000    4.000    6.857 
#    0.000    0.000    0.000    0.000    0.000    0.000 
#    0.000    0.000    0.000    0.000    0.000    0.000 
#
# Total GULP energy -156735.078288 kJ/mol
# GULP energy per Si atom -5597.681367 kJ/mol
# Density = 2.104751 g / cm^3
# Si number density = 21.095527 Si / 1000 Ang^3
#
#
#
# Elastic Constant Matrix: (Units=GPa)
#
#
# Indices 1 2 3 4 5 6 
#
# 1 68.1723 16.1214 21.8178 -0.0002 23.3503 0.0017
# 2 16.1214 86.9286 28.6985 0.0006 18.2351 -0.0016
# 3 21.8178 28.6985 111.0324 0.0001 20.4700 0.0001
# 4 -0.0002 0.0006 0.0001 33.6552 0.0004 9.7534
# 5 23.3503 18.2351 20.4700 0.0004 34.3725 -0.0003
# 6 0.0017 -0.0016 0.0001 9.7534 -0.0003 26.1404
#
#
#
# Elastic Compliance Matrix: (Units=1/GPa)
#
#
# Indices 1 2 3 4 5 6 
#
# 1 0.019378 -0.000604 -0.001442 0.000001 -0.011985 -0.000002
# 2 -0.000604 0.013526 -0.002393 0.000000 -0.005341 0.000001
# 3 -0.001442 -0.002393 0.010664 0.000000 -0.004102 0.000000
# 4 0.000001 0.000000 0.000000 0.033315 -0.000001 -0.012431
# 5 -0.011985 -0.005341 -0.004102 -0.000001 0.042511 0.000001
# 6 -0.000002 0.000001 0.000000 -0.012431 0.000001 0.042893
#
#
# Mechanical properties :
#
#
# Convention : Reuss Voigt Hill
#
# Bulk Modulus (GPa) = 28.82562 44.37874 36.60218
# Shear Modulus (GPa) = 27.36294 32.13333 29.74814
#
# Velocity S-wave (km/s) = 3.60543 3.90709 3.75929
# Velocity P-wave (km/s) = 5.57011 6.43712 6.01925
#
# Compressibility (1/GPa) = 0.03469136
#
# Stress axis : x y z
#
# Youngs Moduli (GPa) = 51.60461 73.93222 93.76923
#
# Poissons Ratio (x) = 0.04462 0.13523
# Poissons Ratio (y) = 0.03114 0.22437
# Poissons Ratio (z) = 0.07442 0.17691
#
# Static dielectric constant tensor:
#      x y z
#    x 1.746600 0.000000 -0.010040 
#    y 0.000000 1.738990 0.000000 
#    z -0.010040 0.000000 1.759450 
# 
# From -- ./inp_files/302954.got.cif
#   From: 2010.05.17/outbox.cif.g08.bks.cpg/sg15_152_cif.got.tgz:302954.got - 2010.06.03 18:47:42.
