data_PCOD9305247
_publ_section_title
;
Structure prediction by ZEFSAII (Michael W. Deem and Ramdas Pophale) SiO2 
 PCOD9305247
Probable space group: C 2/C
;
_chemical_formula_sum "Si O2"
_cell_formula_units_Z 64
_cell_length_a 17.451346
_cell_length_b 21.926615
_cell_length_c 23.545131
_cell_angle_alpha 90.000000
_cell_angle_beta 160.641173
_cell_angle_gamma 90.000000
_cell_volume 2986.504747
_symmetry_space_group_name_H-M "C 2/C"
_symmetry_group_IT_number 15
_symmetry_cell_setting 'monoclinic'
loop_
_space_group_symop_operation_xyz
x,y,z
-x,y,1/2-z
-x,-y,-z
x,-y,1/2+z
1/2+x,1/2+y,z
1/2-x,1/2+y,1/2-z
1/2-x,1/2-y,-z
1/2+x,1/2-y,1/2+z
loop_
_atom_site_type_symbol
_atom_site_label
_atom_site_fract_x
_atom_site_fract_y
_atom_site_fract_z
Si Si1 0.501938 0.626718 0.819749
Si Si2 0.116602 0.477988 0.894335
Si Si3 0.351197 0.654801 0.972164
Si Si4 0.750239 0.706229 0.393661
Si Si5 0.781448 0.612066 0.209689
Si Si6 0.122140 0.617142 0.920817
Si Si7 0.477740 0.821663 0.522872
Si Si8 0.262096 0.297939 0.921931
O O1 0.500000 0.631818 0.750000
O O2 0.229846 0.635033 0.645341
O O3 0.658836 0.567028 0.945376
O O4 0.621633 0.681915 0.937917
O O5 0.164224 0.545259 0.950799
O O6 0.000000 0.481980 0.750000
O O7 0.916448 0.449674 0.793668
O O8 0.373823 0.727648 0.981920
O O9 0.314505 0.642614 0.012534
O O10 0.119563 0.634132 0.777542
O O11 0.547994 0.613953 0.081806
O O12 0.500000 0.716044 0.250000
O O13 0.863917 0.654009 0.511596
O O14 0.806007 0.684410 0.368569
O O15 0.740128 0.642806 0.120021
O O16 0.948074 0.653434 0.364225
O O17 0.382872 0.754688 0.470581
O O18 0.000000 0.280201 0.750000
#
# Coordination Sequence:
#
# PCOD9305247 Si02
#       8
#     8   8   8   8   8   8   8   8
#     4  12  24  45  70 103 148 191 231 295 352 429
#     4  12  24  50  72 100 145 192 245 288 347 434
#     4  11  24  43  75 105 139 182 242 303 353 425
#     4  12  26  46  74 105 148 180 230 308 372 421
#     4  12  24  43  69 106 146 190 235 294 353 428
#     4  11  26  48  73 104 133 194 248 291 362 418
#     4  12  27  41  68 111 145 186 236 292 371 434
#     4  12  23  40  69 105 149 192 236 291 361 431
#
# _framework density 21.429732999999999
#
# number of rings (size 3 to 8) (size 9 to 14) (size 15 to 20)
#    0.000    0.250    7.500    2.250    3.500    2.500 
#    2.250    0.625    0.000    0.000    0.000    0.000 
#    0.000    0.000    0.000    0.000    0.000    0.000 
#
# Total GULP energy -178754.658862 kJ/mol
# GULP energy per Si atom -5586.083089 kJ/mol
# Density = 2.138096 g / cm^3
# Si number density = 21.429733 Si / 1000 Ang^3
#
#
#
# Elastic Constant Matrix: (Units=GPa)
#
#
# Indices 1 2 3 4 5 6 
#
# 1 99.6847 17.2512 18.1383 0.2069 1.2732 0.2808
# 2 17.2512 84.2869 5.4930 -0.6565 -0.3487 -0.4379
# 3 18.1383 5.4930 77.0151 -0.9113 10.3457 -0.7626
# 4 0.2069 -0.6565 -0.9113 140.2470 -0.0882 118.9199
# 5 1.2732 -0.3487 10.3457 -0.0882 36.3543 -0.1322
# 6 0.2808 -0.4379 -0.7626 118.9199 -0.1322 153.9068
#
#
#
# Elastic Compliance Matrix: (Units=1/GPa)
#
#
# Indices 1 2 3 4 5 6 
#
# 1 0.010828 -0.002056 -0.002444 -0.000028 0.000296 -0.000016
# 2 -0.002056 0.012315 -0.000436 0.000078 0.000314 -0.000023
# 3 -0.002444 -0.000436 0.014121 0.000092 -0.003937 -0.000001
# 4 -0.000028 0.000078 0.000092 0.020679 -0.000032 -0.015978
# 5 0.000296 0.000314 -0.003937 -0.000032 0.028620 0.000030
# 6 -0.000016 -0.000023 -0.000001 -0.015978 0.000030 0.018843
#
#
# Mechanical properties :
#
#
# Convention : Reuss Voigt Hill
#
# Bulk Modulus (GPa) = 36.50509 38.08351 37.29430
# Shear Modulus (GPa) = 40.18992 80.77523 60.48258
#
# Velocity S-wave (km/s) = 4.33532 6.14613 5.31836
# Velocity P-wave (km/s) = 6.49090 8.25690 7.42658
#
# Compressibility (1/GPa) = 0.02739344
#
# Stress axis : x y z
#
# Youngs Moduli (GPa) = 92.34931 81.20023 70.81620
#
# Poissons Ratio (x) = 0.16695 0.17307
# Poissons Ratio (y) = 0.18988 0.03085
# Poissons Ratio (z) = 0.22570 0.03537
#
# Static dielectric constant tensor:
#      x y z
#    x 1.797770 0.000460 0.008530 
#    y 0.000460 1.844750 -0.000270 
#    z 0.008530 -0.000270 1.850650 
# 
# From -- ./inp_files/278134.got.cif
#   From: 2010.05.17/outbox.cif.g08.bks.cpg/sg15_140_cif.got.tgz:278134.got - 2010.06.03 18:47:42.
