data_PCOD9305509
_publ_section_title
;
Structure prediction by ZEFSAII (Michael W. Deem and Ramdas Pophale) SiO2 
 PCOD9305509
Probable space group: C 2/C
;
_chemical_formula_sum "Si O2"
_cell_formula_units_Z 52
_cell_length_a 16.742698
_cell_length_b 6.557714
_cell_length_c 24.830232
_cell_angle_alpha 90.000000
_cell_angle_beta 114.065151
_cell_angle_gamma 90.000000
_cell_volume 2489.250764
_symmetry_space_group_name_H-M "C 2/C"
_symmetry_group_IT_number 15
_symmetry_cell_setting 'monoclinic'
loop_
_space_group_symop_operation_xyz
x,y,z
-x,y,1/2-z
-x,-y,-z
x,-y,1/2+z
1/2+x,1/2+y,z
1/2-x,1/2+y,1/2-z
1/2-x,1/2-y,-z
1/2+x,1/2-y,1/2+z
loop_
_atom_site_type_symbol
_atom_site_label
_atom_site_fract_x
_atom_site_fract_y
_atom_site_fract_z
Si Si1 0.064783 0.366788 0.872660
Si Si2 0.500000 0.049008 0.750000
Si Si3 0.823382 0.897675 0.843672
Si Si4 0.990397 0.036411 0.561474
Si Si5 0.291932 0.417070 0.139814
Si Si6 0.169731 0.766611 0.937600
Si Si7 0.681042 0.755411 0.275513
O O1 0.123625 0.204621 0.856586
O O2 0.126280 0.555160 0.906925
O O3 0.997237 0.432477 0.806903
O O4 0.028577 0.258828 0.916828
O O5 0.411025 0.176621 0.724238
O O6 0.784636 0.747742 0.878589
O O7 0.829159 0.765938 0.790949
O O8 0.918446 0.971383 0.886551
O O9 0.755384 0.083097 0.813816
O O10 0.909581 0.897214 0.558941
O O11 0.000000 0.000000 0.500000
O O12 0.286862 0.608111 0.099095
O O13 0.301201 0.526583 0.199377
O O14 0.250000 0.750000 0.000000
#
# Coordination Sequence:
#
# PCOD9305509 Si02
#       7
#     8   4   8   8   8   8   8
#     4  11  26  46  72 106 140 193 235 300 360 431
#     4  12  24  44  72 102 144 180 244 290 364 436
#     4  12  26  46  69 107 147 185 242 295 371 422
#     4  11  30  47  73 107 147 190 239 302 360 435
#     4  11  24  45  71 101 140 188 234 293 356 425
#     4  11  26  50  76 102 136 194 245 289 360 436
#     4  12  26  43  70 107 141 188 231 302 360 432
#
# _framework density 20.889821999999999
#
# number of rings (size 3 to 8) (size 9 to 14) (size 15 to 20)
#    0.000    0.615    4.615    0.923   12.923    3.077 
#    0.000    0.000    0.000    0.000    0.000    0.000 
#    0.000    0.000    0.000    0.000    0.000    0.000 
#
# Total GULP energy -145168.546175 kJ/mol
# GULP energy per Si atom -5583.405622 kJ/mol
# Density = 2.084228 g / cm^3
# Si number density = 20.889822 Si / 1000 Ang^3
#
#
#
# Elastic Constant Matrix: (Units=GPa)
#
#
# Indices 1 2 3 4 5 6 
#
# 1 104.2675 35.8058 45.4055 0.0000 7.6553 0.0000
# 2 35.8058 106.4279 54.3727 0.0000 3.0725 0.0000
# 3 45.4055 54.3727 128.2772 0.0000 9.6428 0.0000
# 4 0.0000 0.0000 0.0000 22.1157 0.0000 -9.2821
# 5 7.6553 3.0725 9.6428 0.0000 45.8714 0.0000
# 6 0.0000 0.0000 0.0000 -9.2821 0.0000 36.6051
#
#
#
# Elastic Compliance Matrix: (Units=1/GPa)
#
#
# Indices 1 2 3 4 5 6 
#
# 1 0.011839 -0.002365 -0.003100 0.000000 -0.001166 0.000000
# 2 -0.002365 0.012469 -0.004486 0.000000 0.000503 0.000000
# 3 -0.003100 -0.004486 0.010905 0.000000 -0.001475 0.000000
# 4 0.000000 0.000000 0.000000 0.050602 0.000000 0.012831
# 5 -0.001166 0.000503 -0.001475 0.000000 0.022271 0.000000
# 6 0.000000 0.000000 0.000000 0.012831 0.000000 0.030572
#
#
# Mechanical properties :
#
#
# Convention : Reuss Voigt Hill
#
# Bulk Modulus (GPa) = 65.31611 67.79338 66.55474
# Shear Modulus (GPa) = 30.55036 34.47769 32.51402
#
# Velocity S-wave (km/s) = 3.82835 4.06699 3.94947
# Velocity P-wave (km/s) = 7.13278 7.38763 7.26132
#
# Compressibility (1/GPa) = 0.01531016
#
# Stress axis : x y z
#
# Youngs Moduli (GPa) = 84.46926 80.19872 91.69944
#
# Poissons Ratio (x) = 0.18970 0.28429
# Poissons Ratio (y) = 0.19980 0.41134
# Poissons Ratio (z) = 0.26187 0.35975
#
# Static dielectric constant tensor:
#      x y z
#    x 1.766570 0.000000 -0.053320 
#    y 0.000000 1.774440 0.000000 
#    z -0.053320 0.000000 1.950150 
# 
# From -- ./inp_files/297840.got.cif
#   From: 2010.05.17/outbox.cif.g08.bks.cpg/sg15_149_cif.got.tgz:297840.got - 2010.06.03 18:47:42.
