data_PCOD9305877
_publ_section_title
;
Structure prediction by ZEFSAII (Michael W. Deem and Ramdas Pophale) SiO2 
 PCOD9305877
Probable space group: C 2/C
;
_chemical_formula_sum "Si O2"
_cell_formula_units_Z 44
_cell_length_a 25.377122
_cell_length_b 8.542929
_cell_length_c 24.850260
_cell_angle_alpha 90.000000
_cell_angle_beta 22.924404
_cell_angle_gamma 90.000000
_cell_volume 2098.484232
_symmetry_space_group_name_H-M "C 2/C"
_symmetry_group_IT_number 15
_symmetry_cell_setting 'monoclinic'
loop_
_space_group_symop_operation_xyz
x,y,z
-x,y,1/2-z
-x,-y,-z
x,-y,1/2+z
1/2+x,1/2+y,z
1/2-x,1/2+y,1/2-z
1/2-x,1/2-y,-z
1/2+x,1/2-y,1/2+z
loop_
_atom_site_type_symbol
_atom_site_label
_atom_site_fract_x
_atom_site_fract_y
_atom_site_fract_z
Si Si1 0.030390 0.735922 0.111920
Si Si2 0.463220 0.141205 0.897203
Si Si3 0.745476 0.803122 0.683476
Si Si4 0.179570 0.811763 0.620456
Si Si5 0.610816 0.902048 0.361982
Si Si6 0.000000 0.092099 0.750000
O O1 0.036359 0.547323 0.107190
O O2 0.044222 0.802686 0.158467
O O3 0.888152 0.773448 0.216890
O O4 0.146094 0.806551 0.965858
O O5 0.556215 0.213367 0.762300
O O6 0.530854 0.187812 0.890129
O O7 0.306346 0.187400 0.041686
O O8 0.806547 0.704178 0.674929
O O9 0.705960 0.972899 0.742743
O O10 0.250000 0.750000 0.500000
O O11 0.117005 0.979296 0.663380
O O12 0.500000 0.000000 0.500000
#
# Coordination Sequence:
#
# PCOD9305877 Si02
#       6
#     8   8   8   8   8   4
#     4  11  27  46  71 106 140 187 232 295 342 426
#     4  11  26  46  72  97 146 176 236 287 349 410
#     4  11  24  48  72 103 144 178 238 280 356 410
#     4  12  26  47  68 103 136 184 235 288 347 420
#     4  11  25  46  71 105 140 184 226 294 346 416
#     4  12  28  42  76 100 142 186 240 280 366 400
#
# _framework density 20.967517000000001
#
# number of rings (size 3 to 8) (size 9 to 14) (size 15 to 20)
#    0.000    0.727    5.455    1.091   10.182    2.182 
#    0.000    0.000    0.000    0.000    0.000    0.000 
#    0.000    0.000    0.000    0.000    0.000    0.000 
#
# Total GULP energy -123056.615008 kJ/mol
# GULP energy per Si atom -5593.482500 kJ/mol
# Density = 2.091979 g / cm^3
# Si number density = 20.967517 Si / 1000 Ang^3
#
#
#
# Elastic Constant Matrix: (Units=GPa)
#
#
# Indices 1 2 3 4 5 6 
#
# 1 151.7284 -5.8210 29.7132 -0.0011 -9.2886 -0.0007
# 2 -5.8210 43.6054 19.2923 0.0017 6.9428 0.0001
# 3 29.7132 19.2923 136.1238 0.0001 -1.4784 0.0005
# 4 -0.0011 0.0017 0.0001 21.8587 0.0005 -2.8731
# 5 -9.2886 6.9428 -1.4784 0.0005 49.9780 0.0000
# 6 -0.0007 0.0001 0.0005 -2.8731 0.0000 33.3025
#
#
#
# Elastic Compliance Matrix: (Units=1/GPa)
#
#
# Indices 1 2 3 4 5 6 
#
# 1 0.007057 0.001549 -0.001749 0.000000 0.001045 0.000000
# 2 0.001549 0.025436 -0.003980 -0.000002 -0.003363 0.000000
# 3 -0.001749 -0.003980 0.008297 0.000000 0.000473 0.000000
# 4 0.000000 -0.000002 0.000000 0.046273 0.000000 0.003992
# 5 0.001045 -0.003363 0.000473 0.000000 0.020684 0.000000
# 6 0.000000 0.000000 0.000000 0.003992 0.000000 0.030372
#
#
# Mechanical properties :
#
#
# Convention : Reuss Voigt Hill
#
# Bulk Modulus (GPa) = 30.83392 46.42515 38.62953
# Shear Modulus (GPa) = 31.78897 40.24607 36.01752
#
# Velocity S-wave (km/s) = 3.89794 4.38590 4.14910
# Velocity P-wave (km/s) = 5.91575 6.91648 6.43560
#
# Compressibility (1/GPa) = 0.03243182
#
# Stress axis : x y z
#
# Youngs Moduli (GPa) = 141.71279 39.31438 120.52424
#
# Poissons Ratio (x) = -0.06091 0.21074
# Poissons Ratio (y) = -0.21955 0.47964
# Poissons Ratio (z) = 0.24779 0.15646
#
# Static dielectric constant tensor:
#      x y z
#    x 1.770760 0.000000 -0.026770 
#    y 0.000000 1.742720 0.000000 
#    z -0.026770 0.000000 1.737340 
# 
# From -- ./inp_files/68491.got.cif
#   From: 2010.05.17/outbox.cif.g08.bks.cpg/sg15_35_cif.got.tgz:68491.got - 2010.06.03 18:47:42.
