data_PCOD9305036
_publ_section_title
;
Structure prediction by ZEFSAII (Michael W. Deem and Ramdas Pophale) SiO2 
 PCOD9305036
Probable space group: C 2/C
;
_chemical_formula_sum "Si O2"
_cell_formula_units_Z 48
_cell_length_a 5.512141
_cell_length_b 31.076026
_cell_length_c 13.096741
_cell_angle_alpha 90.000000
_cell_angle_beta 113.723954
_cell_angle_gamma 90.000000
_cell_volume 2053.831252
_symmetry_space_group_name_H-M "C 2/C"
_symmetry_group_IT_number 15
_symmetry_cell_setting 'monoclinic'
loop_
_space_group_symop_operation_xyz
x,y,z
-x,y,1/2-z
-x,-y,-z
x,-y,1/2+z
1/2+x,1/2+y,z
1/2-x,1/2+y,1/2-z
1/2-x,1/2-y,-z
1/2+x,1/2-y,1/2+z
loop_
_atom_site_type_symbol
_atom_site_label
_atom_site_fract_x
_atom_site_fract_y
_atom_site_fract_z
Si Si1 0.500000 0.252291 0.750000
Si Si2 0.738680 0.528187 0.431067
Si Si3 0.000000 0.902462 0.750000
Si Si4 0.500000 0.888650 0.250000
Si Si5 0.851439 0.325997 0.821375
Si Si6 0.330582 0.138207 0.933232
Si Si7 0.974647 0.058283 0.890741
Si Si8 0.000000 0.800594 0.250000
O O1 0.670476 0.288257 0.840821
O O2 0.271629 0.224338 0.765949
O O3 0.699573 0.565630 0.342417
O O4 0.649527 0.551843 0.518866
O O5 0.537451 0.489933 0.369192
O O6 0.000000 0.500000 0.500000
O O7 0.799921 0.866160 0.759958
O O8 0.494459 0.864010 0.141225
O O9 0.244385 0.918934 0.214692
O O10 0.000000 0.305477 0.750000
O O11 0.022456 0.344003 0.943267
O O12 0.085546 0.168563 0.858450
O O13 0.222240 0.090442 0.938517
#
# Coordination Sequence:
#
# PCOD9305036 Si02
#       8
#     4   8   4   4   8   8   8   4
#     4  11  27  54  76 121 152 203 258 322 412 468
#     4  11  25  42  66 103 149 196 256 313 380 451
#     4  11  24  41  69  98 140 200 252 306 380 461
#     4  12  23  44  69 109 152 198 259 311 392 447
#     4  11  25  51  76 107 154 200 258 320 393 479
#     4  12  26  46  79 112 152 204 254 322 388 472
#     4  11  24  42  65 105 146 195 250 312 378 447
#     4  12  26  51  78 122 154 199 263 321 406 478
#
# _framework density 23.370956
#
# number of rings (size 3 to 8) (size 9 to 14) (size 15 to 20)
#    0.000    0.667    2.500    4.500    4.667    4.000 
#    0.000    0.000    0.000    0.000    0.000    0.000 
#    0.000    0.000    0.000    0.000    0.000    0.000 
#
# Total GULP energy -133817.143598 kJ/mol
# GULP energy per Si atom -5575.714317 kJ/mol
# Density = 2.331776 g / cm^3
# Si number density = 23.370956 Si / 1000 Ang^3
#
#
#
# Elastic Constant Matrix: (Units=GPa)
#
#
# Indices 1 2 3 4 5 6 
#
# 1 109.0717 47.8125 28.5909 0.0000 -5.5065 0.0000
# 2 47.8125 148.6287 25.6601 0.0000 3.7337 0.0000
# 3 28.5909 25.6601 94.4516 0.0000 -4.3730 0.0000
# 4 0.0000 0.0000 0.0000 14.9141 0.0000 6.7909
# 5 -5.5065 3.7337 -4.3730 0.0000 28.2638 0.0000
# 6 0.0000 0.0000 0.0000 6.7909 0.0000 54.5216
#
#
#
# Elastic Compliance Matrix: (Units=1/GPa)
#
#
# Indices 1 2 3 4 5 6 
#
# 1 0.011366 -0.003292 -0.002441 0.000000 0.002272 0.000000
# 2 -0.003292 0.008056 -0.001280 0.000000 -0.001904 0.000000
# 3 -0.002441 -0.001280 0.011744 0.000000 0.001511 0.000000
# 4 0.000000 0.000000 0.000000 0.071082 0.000000 -0.008854
# 5 0.002272 -0.001904 0.001511 0.000000 0.036309 0.000000
# 6 0.000000 0.000000 0.000000 -0.008854 0.000000 0.019444
#
#
# Mechanical properties :
#
#
# Convention : Reuss Voigt Hill
#
# Bulk Modulus (GPa) = 58.34451 61.80879 60.07665
# Shear Modulus (GPa) = 28.13092 36.21246 32.17169
#
# Velocity S-wave (km/s) = 3.47316 3.94059 3.71424
# Velocity P-wave (km/s) = 6.41112 6.87085 6.64497
#
# Compressibility (1/GPa) = 0.01713957
#
# Stress axis : x y z
#
# Youngs Moduli (GPa) = 87.98274 124.13083 85.14926
#
# Poissons Ratio (x) = 0.40863 0.20785
# Poissons Ratio (y) = 0.28963 0.10901
# Poissons Ratio (z) = 0.21477 0.15892
#
# Static dielectric constant tensor:
#      x y z
#    x 2.034020 0.000000 0.005790 
#    y 0.000000 1.869190 0.000000 
#    z 0.005790 0.000000 1.993800 
# 
# From -- ./inp_files/130992.got.cif
#   From: 2010.05.17/outbox.cif.g08.bks.cpg/sg15_66_cif.got.tgz:130992.got - 2010.06.03 18:47:42.
