data_PCOD9305591
_publ_section_title
;
Structure prediction by ZEFSAII (Michael W. Deem and Ramdas Pophale) SiO2 
 PCOD9305591
Probable space group: C 2/C
;
_chemical_formula_sum "Si O2"
_cell_formula_units_Z 60
_cell_length_a 23.659097
_cell_length_b 8.732108
_cell_length_c 14.742283
_cell_angle_alpha 90.000000
_cell_angle_beta 114.763063
_cell_angle_gamma 90.000000
_cell_volume 2765.608297
_symmetry_space_group_name_H-M "C 2/C"
_symmetry_group_IT_number 15
_symmetry_cell_setting 'monoclinic'
loop_
_space_group_symop_operation_xyz
x,y,z
-x,y,1/2-z
-x,-y,-z
x,-y,1/2+z
1/2+x,1/2+y,z
1/2-x,1/2+y,1/2-z
1/2-x,1/2-y,-z
1/2+x,1/2-y,1/2+z
loop_
_atom_site_type_symbol
_atom_site_label
_atom_site_fract_x
_atom_site_fract_y
_atom_site_fract_z
Si Si1 0.716332 0.404130 0.767452
Si Si2 0.179033 0.733932 0.918671
Si Si3 0.526587 0.135629 0.581949
Si Si4 0.000000 0.482595 0.750000
Si Si5 0.915874 0.871550 0.498513
Si Si6 0.867984 0.199700 0.448760
Si Si7 0.867598 0.386241 0.622129
Si Si8 0.670391 0.265281 0.216803
O O1 0.678622 0.317011 0.820689
O O2 0.687834 0.363031 0.650163
O O3 0.709853 0.585284 0.771044
O O4 0.786611 0.344999 0.814506
O O5 0.159659 0.556705 0.902186
O O6 0.250000 0.750000 0.000000
O O7 0.131261 0.814071 0.955200
O O8 0.480332 0.281615 0.551131
O O9 0.592440 0.182722 0.584939
O O10 0.500000 0.000000 0.500000
O O11 0.529205 0.079293 0.687315
O O12 0.057176 0.391445 0.832051
O O13 0.886829 0.821744 0.382442
O O14 0.912910 0.055136 0.500719
O O15 0.845397 0.281145 0.524547
O O16 0.850454 0.318168 0.707215
#
# Coordination Sequence:
#
# PCOD9305591 Si02
#       8
#     8   8   8   4   8   8   8   8
#     4  11  25  44  67 101 136 179 226 283 343 409
#     4  12  24  43  71 100 137 177 226 282 345 409
#     4  12  23  45  71  97 135 177 227 280 340 411
#     4  12  24  44  72 104 132 184 232 278 340 406
#     4  11  24  46  67 101 135 174 227 285 346 404
#     4  11  26  44  69 100 134 181 225 283 345 407
#     4  12  26  45  70 102 136 183 230 281 340 412
#     4  11  25  43  70  98 136 179 226 282 341 409
#
# _framework density 21.695046000000001
#
# number of rings (size 3 to 8) (size 9 to 14) (size 15 to 20)
#    0.000    0.533    4.000    3.600    3.733    2.667 
#    0.000    0.000    0.000    0.000    0.000    0.000 
#    0.000    0.000    0.000    0.000    0.000    0.000 
#
# Total GULP energy -167987.693266 kJ/mol
# GULP energy per Si atom -5599.589776 kJ/mol
# Density = 2.164567 g / cm^3
# Si number density = 21.695046 Si / 1000 Ang^3
#
#
#
# Elastic Constant Matrix: (Units=GPa)
#
#
# Indices 1 2 3 4 5 6 
#
# 1 62.3306 5.3004 2.1053 0.0000 -20.5500 0.0000
# 2 5.3004 87.5643 21.4609 0.0000 -11.8720 0.0000
# 3 2.1053 21.4609 77.9378 0.0000 -29.6365 0.0000
# 4 0.0000 0.0000 0.0000 37.0055 0.0000 -10.8089
# 5 -20.5500 -11.8720 -29.6365 0.0000 49.7549 0.0000
# 6 0.0000 0.0000 0.0000 -10.8089 0.0000 31.5520
#
#
#
# Elastic Compliance Matrix: (Units=1/GPa)
#
#
# Indices 1 2 3 4 5 6 
#
# 1 0.019215 -0.000666 0.003389 0.000000 0.009797 0.000000
# 2 -0.000666 0.012324 -0.003053 0.000000 0.000847 0.000000
# 3 0.003389 -0.003053 0.017887 0.000000 0.011326 0.000000
# 4 0.000000 0.000000 0.000000 0.030028 0.000000 0.010287
# 5 0.009797 0.000847 0.011326 0.000000 0.031093 0.000000
# 6 0.000000 0.000000 0.000000 0.010287 0.000000 0.035218
#
#
# Mechanical properties :
#
#
# Convention : Reuss Voigt Hill
#
# Bulk Modulus (GPa) = 20.50589 31.72955 26.11772
# Shear Modulus (GPa) = 30.73542 36.92687 33.83115
#
# Velocity S-wave (km/s) = 3.76799 4.13011 3.95320
# Velocity P-wave (km/s) = 5.32942 6.11562 5.73601
#
# Compressibility (1/GPa) = 0.04876649
#
# Stress axis : x y z
#
# Youngs Moduli (GPa) = 52.04144 81.14486 55.90770
#
# Poissons Ratio (x) = 0.05401 -0.18950
# Poissons Ratio (y) = 0.03464 0.17071
# Poissons Ratio (z) = -0.17639 0.24777
#
# Static dielectric constant tensor:
#      x y z
#    x 1.773310 0.000000 0.031720 
#    y 0.000000 1.771630 0.000000 
#    z 0.031720 0.000000 1.787950 
# 
# From -- ./inp_files/172439.got.cif
#   From: 2010.05.17/outbox.cif.g08.bks.cpg/sg15_87_cif.got.tgz:172439.got - 2010.06.03 18:47:42.
