data_PCOD9305303
_publ_section_title
;
Structure prediction by ZEFSAII (Michael W. Deem and Ramdas Pophale) SiO2 
 PCOD9305303
Probable space group: C 2/C
;
_chemical_formula_sum "Si O2"
_cell_formula_units_Z 60
_cell_length_a 11.813252
_cell_length_b 14.592733
_cell_length_c 16.566555
_cell_angle_alpha 90.000000
_cell_angle_beta 70.114050
_cell_angle_gamma 90.000000
_cell_volume 2685.578185
_symmetry_space_group_name_H-M "C 2/C"
_symmetry_group_IT_number 15
_symmetry_cell_setting 'monoclinic'
loop_
_space_group_symop_operation_xyz
x,y,z
-x,y,1/2-z
-x,-y,-z
x,-y,1/2+z
1/2+x,1/2+y,z
1/2-x,1/2+y,1/2-z
1/2-x,1/2-y,-z
1/2+x,1/2-y,1/2+z
loop_
_atom_site_type_symbol
_atom_site_label
_atom_site_fract_x
_atom_site_fract_y
_atom_site_fract_z
Si Si1 0.434661 0.833590 0.036404
Si Si2 0.500000 0.176607 0.250000
Si Si3 0.750728 0.070354 0.169374
Si Si4 0.722068 0.542401 0.530881
Si Si5 0.107008 0.767879 0.788283
Si Si6 0.736251 0.370875 0.340722
Si Si7 0.028470 0.185182 0.594988
Si Si8 0.198720 0.352404 0.004225
O O1 0.427260 0.798232 0.129309
O O2 0.574460 0.855142 0.986453
O O3 0.345440 0.915201 0.036006
O O4 0.405085 0.746011 0.988309
O O5 0.619576 0.114677 0.215234
O O6 0.495740 0.245032 0.326826
O O7 0.777076 0.059793 0.066620
O O8 0.847810 0.136904 0.186150
O O9 0.757310 0.968251 0.204411
O O10 0.613850 0.600385 0.594830
O O11 0.716301 0.433551 0.548359
O O12 0.218124 0.715836 0.719260
O O13 0.000000 0.777444 0.750000
O O14 0.600056 0.353188 0.402527
O O15 0.822016 0.379872 0.397613
O O16 0.250000 0.250000 0.000000
#
# Coordination Sequence:
#
# PCOD9305303 Si02
#       8
#     8   4   8   8   8   8   8   8
#     4  12  23  44  73 103 139 184 236 288 353 418
#     4  12  24  44  74 100 144 176 236 298 346 416
#     4  11  25  46  73 101 137 187 232 291 357 413
#     4  11  25  44  73 105 136 186 243 287 355 426
#     4  12  25  47  69 101 144 182 231 293 349 424
#     4  11  26  45  68 101 138 186 233 287 357 416
#     4  12  24  45  71 102 140 181 234 298 352 413
#     4  11  24  44  68 104 144 185 231 290 351 419
#
# _framework density 22.341559
#
# number of rings (size 3 to 8) (size 9 to 14) (size 15 to 20)
#    0.000    0.533    6.667    1.600    0.933    3.200 
#    6.000    0.000    0.000    0.000    0.000    0.000 
#    0.000    0.000    0.000    0.000    0.000    0.000 
#
# Total GULP energy -167753.176302 kJ/mol
# GULP energy per Si atom -5591.772543 kJ/mol
# Density = 2.229071 g / cm^3
# Si number density = 22.341559 Si / 1000 Ang^3
#
#
#
# Elastic Constant Matrix: (Units=GPa)
#
#
# Indices 1 2 3 4 5 6 
#
# 1 100.2649 54.9961 5.9562 0.0000 0.9765 0.0000
# 2 54.9961 160.2785 3.1402 0.0000 2.4243 0.0000
# 3 5.9562 3.1402 29.4458 0.0000 8.5275 0.0000
# 4 0.0000 0.0000 0.0000 19.6564 0.0000 10.7639
# 5 0.9765 2.4243 8.5275 0.0000 31.7121 0.0000
# 6 0.0000 0.0000 0.0000 10.7639 0.0000 11.6689
#
#
#
# Elastic Compliance Matrix: (Units=1/GPa)
#
#
# Indices 1 2 3 4 5 6 
#
# 1 0.012418 -0.004226 -0.002217 0.000000 0.000537 0.000000
# 2 -0.004226 0.007693 0.000181 0.000000 -0.000507 0.000000
# 3 -0.002217 0.000181 0.037277 0.000000 -0.009969 0.000000
# 4 0.000000 0.000000 0.000000 0.102804 0.000000 -0.094831
# 5 0.000537 -0.000507 -0.009969 0.000000 0.034237 0.000000
# 6 0.000000 0.000000 0.000000 -0.094831 0.000000 0.173175
#
#
# Mechanical properties :
#
#
# Convention : Reuss Voigt Hill
#
# Bulk Modulus (GPa) = 22.28886 46.46380 34.37633
# Shear Modulus (GPa) = 12.65564 27.66726 20.16145
#
# Velocity S-wave (km/s) = 2.38263 3.52288 3.00729
# Velocity P-wave (km/s) = 4.19133 6.11471 5.24199
#
# Compressibility (1/GPa) = 0.04486546
#
# Stress axis : x y z
#
# Youngs Moduli (GPa) = 80.52958 129.98535 26.82631
#
# Poissons Ratio (x) = 0.54926 0.05946
# Poissons Ratio (y) = 0.34028 -0.00486
# Poissons Ratio (z) = 0.17851 -0.02354
#
# Static dielectric constant tensor:
#      x y z
#    x 1.835990 0.000000 -0.015240 
#    y 0.000000 1.844740 0.000000 
#    z -0.015240 0.000000 1.874960 
# 
# From -- ./inp_files/198271.got.cif
#   From: 2010.05.17/outbox.cif.g08.bks.cpg/sg15_100_cif.got.tgz:198271.got - 2010.06.03 18:47:42.
