data_PCOD9305393
_publ_section_title
;
Structure prediction by ZEFSAII (Michael W. Deem and Ramdas Pophale) SiO2 
 PCOD9305393
Probable space group: C 2/C
;
_chemical_formula_sum "Si O2"
_cell_formula_units_Z 40
_cell_length_a 12.178254
_cell_length_b 6.589169
_cell_length_c 22.598549
_cell_angle_alpha 90.000000
_cell_angle_beta 124.795352
_cell_angle_gamma 90.000000
_cell_volume 1489.164904
_symmetry_space_group_name_H-M "C 2/C"
_symmetry_group_IT_number 15
_symmetry_cell_setting 'monoclinic'
loop_
_space_group_symop_operation_xyz
x,y,z
-x,y,1/2-z
-x,-y,-z
x,-y,1/2+z
1/2+x,1/2+y,z
1/2-x,1/2+y,1/2-z
1/2-x,1/2-y,-z
1/2+x,1/2-y,1/2+z
loop_
_atom_site_type_symbol
_atom_site_label
_atom_site_fract_x
_atom_site_fract_y
_atom_site_fract_z
Si Si1 0.815275 0.007561 0.184468
Si Si2 0.905262 0.302739 0.962555
Si Si3 0.646938 0.585735 0.997336
Si Si4 0.150268 0.402483 0.843870
Si Si5 0.600901 0.865269 0.209606
O O1 0.733378 0.135717 0.110649
O O2 0.698844 0.893578 0.185555
O O3 0.889861 0.147799 0.255466
O O4 0.893150 0.831786 0.173640
O O5 0.875946 0.159558 0.010986
O O6 0.000000 0.500000 0.000000
O O7 0.000248 0.176610 0.947367
O O8 0.706891 0.596097 0.082019
O O9 0.750000 0.750000 0.000000
O O10 0.149912 0.489841 0.778073
O O11 0.045845 0.543670 0.847292
#
# Coordination Sequence:
#
# PCOD9305393 Si02
#       5
#     8   8   8   8   8
#     4  12  23  48  73 103 149 186 242 305 365 439
#     4  11  24  44  73 104 143 192 241 308 370 438
#     4  11  24  46  72 103 145 189 247 300 367 449
#     4  11  24  45  70 106 142 184 242 298 359 441
#     4  11  25  43  72 105 138 193 236 294 369 430
#
# _framework density 26.860693000000001
#
# number of rings (size 3 to 8) (size 9 to 14) (size 15 to 20)
#    0.000    0.800    6.000    1.200    0.000    4.000 
#    0.000    0.000    0.000    0.000    0.000    0.000 
#    0.000    0.000    0.000    0.000    0.000    0.000 
#
# Total GULP energy -111724.421688 kJ/mol
# GULP energy per Si atom -5586.221084 kJ/mol
# Density = 2.679956 g / cm^3
# Si number density = 26.860693 Si / 1000 Ang^3
#
#
#
# Elastic Constant Matrix: (Units=GPa)
#
#
# Indices 1 2 3 4 5 6 
#
# 1 126.2378 67.1681 2.4190 0.0000 10.9704 0.0000
# 2 67.1681 204.9793 30.9551 0.0000 14.7127 0.0000
# 3 2.4190 30.9551 55.4669 0.0000 11.0259 0.0000
# 4 0.0000 0.0000 0.0000 46.3634 0.0000 6.6870
# 5 10.9704 14.7127 11.0259 0.0000 29.0774 0.0000
# 6 0.0000 0.0000 0.0000 6.6870 0.0000 56.7952
#
#
#
# Elastic Compliance Matrix: (Units=1/GPa)
#
#
# Indices 1 2 3 4 5 6 
#
# 1 0.009907 -0.003346 0.001992 0.000000 -0.002800 0.000000
# 2 -0.003346 0.006536 -0.003348 0.000000 -0.000775 0.000000
# 3 0.001992 -0.003348 0.021223 0.000000 -0.007105 0.000000
# 4 0.000000 0.000000 0.000000 0.021941 0.000000 -0.002583
# 5 -0.002800 -0.000775 -0.007105 0.000000 0.038534 0.000000
# 6 0.000000 0.000000 0.000000 -0.002583 0.000000 0.017911
#
#
# Mechanical properties :
#
#
# Convention : Reuss Voigt Hill
#
# Bulk Modulus (GPa) = 35.38302 65.30757 50.34530
# Shear Modulus (GPa) = 37.07077 45.52333 41.29705
#
# Velocity S-wave (km/s) = 3.71902 4.12125 3.92529
# Velocity P-wave (km/s) = 5.62520 6.85657 6.27118
#
# Compressibility (1/GPa) = 0.02826214
#
# Stress axis : x y z
#
# Youngs Moduli (GPa) = 100.93693 152.99273 47.11960
#
# Poissons Ratio (x) = 0.51195 -0.09386
# Poissons Ratio (y) = 0.33776 0.15774
# Poissons Ratio (z) = -0.20107 0.51218
#
# Static dielectric constant tensor:
#      x y z
#    x 2.128180 0.000000 0.026580 
#    y 0.000000 2.259140 0.000000 
#    z 0.026580 0.000000 2.030790 
# 
# From -- ./inp_files/312188.got.cif
#   From: 2010.05.17/outbox.cif.g08.bks.cpg/sg15_157_cif.got.tgz:312188.got - 2010.06.03 18:47:42.
