data_PCOD9305341
_publ_section_title
;
Structure prediction by ZEFSAII (Michael W. Deem and Ramdas Pophale) SiO2 
 PCOD9305341
Probable space group: C 2/C
;
_chemical_formula_sum "Si O2"
_cell_formula_units_Z 36
_cell_length_a 19.293347
_cell_length_b 10.863333
_cell_length_c 14.986198
_cell_angle_alpha 90.000000
_cell_angle_beta 151.292664
_cell_angle_gamma 90.000000
_cell_volume 1508.714594
_symmetry_space_group_name_H-M "C 2/C"
_symmetry_group_IT_number 15
_symmetry_cell_setting 'monoclinic'
loop_
_space_group_symop_operation_xyz
x,y,z
-x,y,1/2-z
-x,-y,-z
x,-y,1/2+z
1/2+x,1/2+y,z
1/2-x,1/2+y,1/2-z
1/2-x,1/2-y,-z
1/2+x,1/2-y,1/2+z
loop_
_atom_site_type_symbol
_atom_site_label
_atom_site_fract_x
_atom_site_fract_y
_atom_site_fract_z
Si Si1 0.901571 0.508964 0.802098
Si Si2 0.022386 0.086114 0.669447
Si Si3 0.500000 0.825137 0.250000
Si Si4 0.772478 0.733986 0.176587
Si Si5 0.620703 0.343991 0.025461
O O1 0.855280 0.374251 0.718610
O O2 0.759649 0.572348 0.679018
O O3 0.952065 0.589633 0.776850
O O4 0.000000 0.500000 0.000000
O O5 0.891399 0.183155 0.495812
O O6 0.000000 0.071360 0.750000
O O7 0.178167 0.142247 0.819071
O O8 0.004026 0.948169 0.607968
O O9 0.610273 0.732671 0.422911
O O10 0.852463 0.753686 0.361802
#
# Coordination Sequence:
#
# PCOD9305341 Si02
#       5
#     8   8   4   8   8
#     4  11  24  45  69 104 139 187 233 293 357 408
#     4  11  24  45  69 105 141 185 235 290 354 418
#     4  12  24  46  72 100 142 182 246 280 350 428
#     4  11  24  44  70 102 144 184 233 288 358 417
#     4  11  24  46  71 100 140 184 240 285 347 427
#
# _framework density 23.861371999999999
#
# number of rings (size 3 to 8) (size 9 to 14) (size 15 to 20)
#    0.000    0.889    3.333    3.333    1.556    0.000 
#    8.000    0.000    0.000    0.000    0.000    0.000 
#    0.000    0.000    0.000    0.000    0.000    0.000 
#
# Total GULP energy -100513.958338 kJ/mol
# GULP energy per Si atom -5584.108797 kJ/mol
# Density = 2.380706 g / cm^3
# Si number density = 23.861372 Si / 1000 Ang^3
#
#
#
# Elastic Constant Matrix: (Units=GPa)
#
#
# Indices 1 2 3 4 5 6 
#
# 1 37.6414 12.1440 11.0602 0.0000 -17.7119 0.0000
# 2 12.1440 112.5298 36.3743 0.0000 4.9573 0.0000
# 3 11.0602 36.3743 79.0513 0.0000 -25.4706 0.0000
# 4 0.0000 0.0000 0.0000 50.7976 0.0000 -4.0735
# 5 -17.7119 4.9573 -25.4706 0.0000 36.1751 0.0000
# 6 0.0000 0.0000 0.0000 -4.0735 0.0000 43.4471
#
#
#
# Elastic Compliance Matrix: (Units=1/GPa)
#
#
# Indices 1 2 3 4 5 6 
#
# 1 0.038253 -0.006903 0.005385 0.000000 0.023467 0.000000
# 2 -0.006903 0.012894 -0.008570 0.000000 -0.011180 0.000000
# 3 0.005385 -0.008570 0.022076 0.000000 0.019354 0.000000
# 4 0.000000 0.000000 0.000000 0.019835 0.000000 0.001860
# 5 0.023467 -0.011180 0.019354 0.000000 0.054293 0.000000
# 6 0.000000 0.000000 0.000000 0.001860 0.000000 0.023191
#
#
# Mechanical properties :
#
#
# Convention : Reuss Voigt Hill
#
# Bulk Modulus (GPa) = 18.85047 38.70885 28.77966
# Shear Modulus (GPa) = 23.99242 37.39356 30.69299
#
# Velocity S-wave (km/s) = 3.17439 3.96298 3.59040
# Velocity P-wave (km/s) = 4.62091 6.09900 5.41067
#
# Compressibility (1/GPa) = 0.05304909
#
# Stress axis : x y z
#
# Youngs Moduli (GPa) = 26.14145 77.55515 45.29851
#
# Poissons Ratio (x) = 0.53535 -0.24395
# Poissons Ratio (y) = 0.18045 0.38819
# Poissons Ratio (z) = -0.14078 0.66462
#
# Static dielectric constant tensor:
#      x y z
#    x 1.899630 0.000000 -0.010880 
#    y 0.000000 2.119580 0.000000 
#    z -0.010880 0.000000 1.954260 
# 
# From -- ./inp_files/167788.got.cif
#   From: 2010.05.17/outbox.cif.g08.bks.cpg/sg15_84_cif.got.tgz:167788.got - 2010.06.03 18:47:42.
