data_PCOD9305136
_publ_section_title
;
Structure prediction by ZEFSAII (Michael W. Deem and Ramdas Pophale) SiO2 
 PCOD9305136
Probable space group: C 2/C
;
_chemical_formula_sum "Si O2"
_cell_formula_units_Z 40
_cell_length_a 6.580722
_cell_length_b 17.649094
_cell_length_c 16.648757
_cell_angle_alpha 90.000000
_cell_angle_beta 97.778198
_cell_angle_gamma 90.000000
_cell_volume 1915.858874
_symmetry_space_group_name_H-M "C 2/C"
_symmetry_group_IT_number 15
_symmetry_cell_setting 'monoclinic'
loop_
_space_group_symop_operation_xyz
x,y,z
-x,y,1/2-z
-x,-y,-z
x,-y,1/2+z
1/2+x,1/2+y,z
1/2-x,1/2+y,1/2-z
1/2-x,1/2-y,-z
1/2+x,1/2-y,1/2+z
loop_
_atom_site_type_symbol
_atom_site_label
_atom_site_fract_x
_atom_site_fract_y
_atom_site_fract_z
Si Si1 0.658133 0.215137 0.828672
Si Si2 0.853669 0.204135 0.434632
Si Si3 0.717742 0.983497 0.547983
Si Si4 0.451217 0.595801 0.928645
Si Si5 0.556454 0.862291 0.666717
O O1 0.500000 0.193379 0.750000
O O2 0.506285 0.243911 0.891200
O O3 0.813121 0.148455 0.864136
O O4 0.799954 0.287768 0.813684
O O5 0.750000 0.250000 0.500000
O O6 0.664013 0.165506 0.378641
O O7 0.986730 0.144559 0.490389
O O8 0.821113 0.966929 0.466820
O O9 0.676584 0.917708 0.611801
O O10 0.500000 0.000000 0.500000
O O11 0.846696 0.053179 0.593402
O O12 0.500000 0.897792 0.750000
#
# Coordination Sequence:
#
# PCOD9305136 Si02
#       5
#     8   8   8   8   8
#     4  12  25  43  71 105 141 179 236 298 356 421
#     4  12  22  39  75 103 130 177 237 288 345 413
#     4  11  24  44  72  98 137 186 235 279 351 429
#     4  11  24  42  73 101 133 181 237 288 339 424
#     4  12  24  43  72 102 139 185 230 295 361 423
#
# _framework density 20.878364999999999
#
# number of rings (size 3 to 8) (size 9 to 14) (size 15 to 20)
#    0.000    0.400    8.000    1.800    0.000    0.000 
#    0.000    1.000    8.800    0.000    0.000    0.000 
#    0.000    0.000    0.000    0.000    0.000    0.000 
#
# Total GULP energy -111474.342042 kJ/mol
# GULP energy per Si atom -5573.717102 kJ/mol
# Density = 2.083084 g / cm^3
# Si number density = 20.878365 Si / 1000 Ang^3
#
#
#
# Elastic Constant Matrix: (Units=GPa)
#
#
# Indices 1 2 3 4 5 6 
#
# 1 128.3307 49.5260 44.0785 0.0000 26.4245 0.0000
# 2 49.5260 84.3033 44.6296 0.0000 17.1236 0.0000
# 3 44.0785 44.6296 97.9058 0.0000 24.9497 0.0000
# 4 0.0000 0.0000 0.0000 16.1352 0.0000 0.7274
# 5 26.4245 17.1236 24.9497 0.0000 47.6545 0.0000
# 6 0.0000 0.0000 0.0000 0.7274 0.0000 37.7211
#
#
#
# Elastic Compliance Matrix: (Units=1/GPa)
#
#
# Indices 1 2 3 4 5 6 
#
# 1 0.010979 -0.004749 -0.001918 0.000000 -0.003378 0.000000
# 2 -0.004749 0.017887 -0.005826 0.000000 -0.000744 0.000000
# 3 -0.001918 -0.005826 0.014919 0.000000 -0.004654 0.000000
# 4 0.000000 0.000000 0.000000 0.062030 0.000000 -0.001196
# 5 -0.003378 -0.000744 -0.004654 0.000000 0.025561 0.000000
# 6 0.000000 0.000000 0.000000 -0.001196 0.000000 0.026533
#
#
# Mechanical properties :
#
#
# Convention : Reuss Voigt Hill
#
# Bulk Modulus (GPa) = 53.19053 65.22311 59.20682
# Shear Modulus (GPa) = 26.43234 31.78920 29.11077
#
# Velocity S-wave (km/s) = 3.56197 3.90627 3.73809
# Velocity P-wave (km/s) = 6.51526 7.18698 6.85934
#
# Compressibility (1/GPa) = 0.01880034
#
# Stress axis : x y z
#
# Youngs Moduli (GPa) = 91.08166 55.90601 67.02829
#
# Poissons Ratio (x) = 0.26548 0.12853
# Poissons Ratio (y) = 0.43253 0.39052
# Poissons Ratio (z) = 0.17465 0.32572
#
# Static dielectric constant tensor:
#      x y z
#    x 1.819630 0.000000 -0.071010 
#    y 0.000000 1.764510 0.000000 
#    z -0.071010 0.000000 1.662980 
# 
# From -- ./inp_files/184215.got.cif
#   From: 2010.05.17/outbox.cif.g08.bks.cpg/sg15_93_cif.got.tgz:184215.got - 2010.06.03 18:47:42.
