data_PCOD9305022
_publ_section_title
;
Structure prediction by ZEFSAII (Michael W. Deem and Ramdas Pophale) SiO2 
 PCOD9305022
Probable space group: C 2/C
;
_chemical_formula_sum "Si O2"
_cell_formula_units_Z 36
_cell_length_a 6.802636
_cell_length_b 21.497569
_cell_length_c 12.615213
_cell_angle_alpha 90.000000
_cell_angle_beta 74.556041
_cell_angle_gamma 90.000000
_cell_volume 1778.235466
_symmetry_space_group_name_H-M "C 2/C"
_symmetry_group_IT_number 15
_symmetry_cell_setting 'monoclinic'
loop_
_space_group_symop_operation_xyz
x,y,z
-x,y,1/2-z
-x,-y,-z
x,-y,1/2+z
1/2+x,1/2+y,z
1/2-x,1/2+y,1/2-z
1/2-x,1/2-y,-z
1/2+x,1/2-y,1/2+z
loop_
_atom_site_type_symbol
_atom_site_label
_atom_site_fract_x
_atom_site_fract_y
_atom_site_fract_z
Si Si1 0.402008 0.945910 0.878539
Si Si2 0.198708 0.574537 0.530803
Si Si3 0.407402 0.662071 0.029919
Si Si4 0.293240 0.271132 0.327007
Si Si5 0.000000 0.644090 0.750000
O O1 0.500000 0.955000 0.750000
O O2 0.266017 0.885034 0.906970
O O3 0.262390 0.005250 0.930043
O O4 0.583132 0.936932 0.937371
O O5 0.384205 0.622918 0.494058
O O6 0.047259 0.603856 0.639715
O O7 0.376808 0.722546 0.108218
O O8 0.358749 0.686857 0.918534
O O9 0.500000 0.241566 0.250000
O O10 0.192139 0.313559 0.252041
#
# Coordination Sequence:
#
# PCOD9305022 Si02
#       5
#     8   8   8   8   4
#     4  11  24  43  67  99 137 170 218 278 333 396
#     4  11  24  43  69  98 130 177 221 273 337 397
#     4  11  24  42  65  99 131 173 225 274 328 402
#     4  11  24  41  67  96 134 177 223 276 331 391
#     4  12  22  44  70  94 130 180 222 274 336 402
#
# _framework density 20.244786000000001
#
# number of rings (size 3 to 8) (size 9 to 14) (size 15 to 20)
#    0.000    0.889    5.556    1.333    0.000    5.333 
#    0.000    0.000    0.000    0.000    0.000    0.000 
#    0.000    0.000    0.000    0.000    0.000    0.000 
#
# Total GULP energy -100521.396738 kJ/mol
# GULP energy per Si atom -5584.522041 kJ/mol
# Density = 2.019871 g / cm^3
# Si number density = 20.244786 Si / 1000 Ang^3
#
#
#
# Elastic Constant Matrix: (Units=GPa)
#
#
# Indices 1 2 3 4 5 6 
#
# 1 47.8808 35.4016 40.4338 0.0000 -8.0454 0.0000
# 2 35.4016 100.7812 32.7551 0.0000 2.0776 0.0000
# 3 40.4338 32.7551 121.5108 0.0000 7.5059 0.0000
# 4 0.0000 0.0000 0.0000 138.1994 0.0000 34.5956
# 5 -8.0454 2.0776 7.5059 0.0000 23.3340 0.0000
# 6 0.0000 0.0000 0.0000 34.5956 0.0000 65.1941
#
#
#
# Elastic Compliance Matrix: (Units=1/GPa)
#
#
# Indices 1 2 3 4 5 6 
#
# 1 0.043434 -0.011586 -0.012568 0.000000 0.020050 0.000000
# 2 -0.011586 0.013966 0.000422 0.000000 -0.005374 0.000000
# 3 -0.012568 0.000422 0.012823 0.000000 -0.008496 0.000000
# 4 0.000000 0.000000 0.000000 0.008344 0.000000 -0.004428
# 5 0.020050 -0.005374 -0.008496 0.000000 0.052980 0.000000
# 6 0.000000 0.000000 0.000000 -0.004428 0.000000 0.017689
#
#
# Mechanical properties :
#
#
# Convention : Reuss Voigt Hill
#
# Bulk Modulus (GPa) = 43.93791 54.15042 49.04416
# Shear Modulus (GPa) = 24.47561 56.11767 40.29664
#
# Velocity S-wave (km/s) = 3.48082 5.27065 4.46631
# Velocity P-wave (km/s) = 6.15672 7.99034 7.13270
#
# Compressibility (1/GPa) = 0.02275939
#
# Stress axis : x y z
#
# Youngs Moduli (GPa) = 23.02352 71.60442 77.98542
#
# Poissons Ratio (x) = 0.82957 0.98016
# Poissons Ratio (y) = 0.26674 -0.03295
# Poissons Ratio (z) = 0.28937 -0.03025
#
# Static dielectric constant tensor:
#      x y z
#    x 1.703030 0.000000 -0.011070 
#    y 0.000000 1.715310 0.000000 
#    z -0.011070 0.000000 1.696250 
# 
# From -- ./inp_files/72438.got.cif
#   From: 2010.05.17/outbox.cif.g08.bks.cpg/sg15_37_cif.got.tgz:72438.got - 2010.06.03 18:47:42.
