data_PCOD9305730
_publ_section_title
;
Structure prediction by ZEFSAII (Michael W. Deem and Ramdas Pophale) SiO2 
 PCOD9305730
Probable space group: C 2/C
;
_chemical_formula_sum "Si O2"
_cell_formula_units_Z 56
_cell_length_a 11.490855
_cell_length_b 14.959926
_cell_length_c 14.571214
_cell_angle_alpha 90.000000
_cell_angle_beta 87.427818
_cell_angle_gamma 90.000000
_cell_volume 2502.302119
_symmetry_space_group_name_H-M "C 2/C"
_symmetry_group_IT_number 15
_symmetry_cell_setting 'monoclinic'
loop_
_space_group_symop_operation_xyz
x,y,z
-x,y,1/2-z
-x,-y,-z
x,-y,1/2+z
1/2+x,1/2+y,z
1/2-x,1/2+y,1/2-z
1/2-x,1/2-y,-z
1/2+x,1/2-y,1/2+z
loop_
_atom_site_type_symbol
_atom_site_label
_atom_site_fract_x
_atom_site_fract_y
_atom_site_fract_z
Si Si1 0.121196 0.449373 0.195077
Si Si2 0.877025 0.711055 0.303269
Si Si3 0.725486 0.610408 0.152626
Si Si4 0.864884 0.074556 0.792610
Si Si5 0.140734 0.688994 0.989346
Si Si6 0.456991 0.249880 0.849637
Si Si7 0.362631 0.003659 0.008242
O O1 0.240001 0.444994 0.247368
O O2 0.085271 0.349070 0.171323
O O3 0.000000 0.485182 0.250000
O O4 0.166570 0.488675 0.097169
O O5 0.784645 0.652242 0.244689
O O6 0.848893 0.817918 0.313714
O O7 0.900531 0.675690 0.404968
O O8 0.000000 0.704978 0.250000
O O9 0.640362 0.522604 0.155433
O O10 0.648972 0.690244 0.114987
O O11 0.822681 0.581753 0.076110
O O12 0.000000 0.074476 0.750000
O O13 0.250000 0.750000 0.000000
O O14 0.175658 0.591839 0.950866
O O15 0.054369 0.737724 0.923063
O O16 0.500000 0.288614 0.750000
O O17 0.500000 0.000000 0.000000
#
# Coordination Sequence:
#
# PCOD9305730 Si02
#       7
#     8   8   8   8   8   8   8
#     4  11  24  46  78 103 146 195 245 308 367 437
#     4  11  25  46  70 104 145 191 238 301 362 430
#     4  12  25  44  74 106 148 193 244 302 369 441
#     4  11  25  46  72 107 147 193 247 302 370 437
#     4  12  26  46  71 104 146 188 240 301 366 432
#     4  11  25  46  74 104 143 192 243 296 372 432
#     4  12  25  43  71 110 140 190 257 303 361 439
#
# _framework density 22.379391999999999
#
# number of rings (size 3 to 8) (size 9 to 14) (size 15 to 20)
#    0.000    0.571    2.857    4.714    4.000    5.143 
#    0.000    2.143    0.000    0.000    0.000    0.000 
#    0.000    0.000    0.000    0.000    0.000    0.000 
#
# Total GULP energy -155926.761614 kJ/mol
# GULP energy per Si atom -5568.812915 kJ/mol
# Density = 2.232846 g / cm^3
# Si number density = 22.379392 Si / 1000 Ang^3
#
#
#
# Elastic Constant Matrix: (Units=GPa)
#
#
# Indices 1 2 3 4 5 6 
#
# 1 110.0338 35.8493 41.9544 0.0000 0.5814 0.0000
# 2 35.8493 124.6035 33.6261 0.0000 -4.7988 0.0000
# 3 41.9544 33.6261 124.5911 0.0000 -2.7572 0.0000
# 4 0.0000 0.0000 0.0000 262.4174 0.0000 -140.7902
# 5 0.5814 -4.7988 -2.7572 0.0000 30.9802 0.0000
# 6 0.0000 0.0000 0.0000 -140.7902 0.0000 116.2864
#
#
#
# Elastic Compliance Matrix: (Units=1/GPa)
#
#
# Indices 1 2 3 4 5 6 
#
# 1 0.011048 -0.002375 -0.003098 0.000000 -0.000851 0.000000
# 2 -0.002375 0.009207 -0.001656 0.000000 0.001323 0.000000
# 3 -0.003098 -0.001656 0.009531 0.000000 0.000650 0.000000
# 4 0.000000 0.000000 0.000000 0.010874 0.000000 0.013166
# 5 -0.000851 0.001323 0.000650 0.000000 0.032557 0.000000
# 6 0.000000 0.000000 0.000000 0.013166 0.000000 0.024539
#
#
# Mechanical properties :
#
#
# Convention : Reuss Voigt Hill
#
# Bulk Modulus (GPa) = 64.40285 64.67645 64.53965
# Shear Modulus (GPa) = 42.66587 98.45670 70.56129
#
# Velocity S-wave (km/s) = 4.37106 6.64002 5.62121
# Velocity P-wave (km/s) = 7.36988 9.36746 8.42806
#
# Compressibility (1/GPa) = 0.01552726
#
# Stress axis : x y z
#
# Youngs Moduli (GPa) = 90.51673 108.61767 104.92431
#
# Poissons Ratio (x) = 0.25799 0.32505
# Poissons Ratio (y) = 0.21500 0.17372
# Poissons Ratio (z) = 0.28041 0.17983
#
# Static dielectric constant tensor:
#      x y z
#    x 1.680450 0.000000 -0.042850 
#    y 0.000000 1.784940 0.000000 
#    z -0.042850 0.000000 1.945050 
# 
# From -- ./inp_files/144242.got.cif
#   From: 2010.05.17/outbox.cif.g08.bks.cpg/sg15_73_cif.got.tgz:144242.got - 2010.06.03 18:47:42.
