data_PCOD9305442
_publ_section_title
;
Structure prediction by ZEFSAII (Michael W. Deem and Ramdas Pophale) SiO2 
 PCOD9305442
Probable space group: C 2/C
;
_chemical_formula_sum "Si O2"
_cell_formula_units_Z 40
_cell_length_a 23.373439
_cell_length_b 7.235403
_cell_length_c 13.631523
_cell_angle_alpha 90.000000
_cell_angle_beta 62.502191
_cell_angle_gamma 90.000000
_cell_volume 2044.877476
_symmetry_space_group_name_H-M "C 2/C"
_symmetry_group_IT_number 15
_symmetry_cell_setting 'monoclinic'
loop_
_space_group_symop_operation_xyz
x,y,z
-x,y,1/2-z
-x,-y,-z
x,-y,1/2+z
1/2+x,1/2+y,z
1/2-x,1/2+y,1/2-z
1/2-x,1/2-y,-z
1/2+x,1/2-y,1/2+z
loop_
_atom_site_type_symbol
_atom_site_label
_atom_site_fract_x
_atom_site_fract_y
_atom_site_fract_z
Si Si1 0.271742 0.100587 0.861960
Si Si2 0.820509 0.976914 0.897417
Si Si3 0.668612 0.756748 0.792264
Si Si4 0.041070 0.990403 0.119768
Si Si5 0.021214 0.711907 0.479509
O O1 0.317309 0.267011 0.860452
O O2 0.213042 0.191405 0.847279
O O3 0.307365 0.953939 0.765918
O O4 0.241066 0.004685 0.982350
O O5 0.884451 0.007924 0.910009
O O6 0.821606 0.112713 0.804261
O O7 0.594150 0.767396 0.881827
O O8 0.000000 0.961498 0.250000
O O9 0.020931 0.182211 0.083690
O O10 0.024905 0.828834 0.055746
O O11 0.000000 0.500000 0.500000
#
# Coordination Sequence:
#
# PCOD9305442 Si02
#       5
#     8   8   8   8   8
#     4  11  25  41  68 100 129 172 217 271 330 390
#     4  11  24  45  65  97 134 170 219 267 329 399
#     4  12  23  43  67  97 133 169 218 274 330 387
#     4  11  24  45  69  94 135 176 217 274 335 390
#     4  11  27  43  67 101 131 173 227 276 327 394
#
# _framework density 19.561074000000001
#
# number of rings (size 3 to 8) (size 9 to 14) (size 15 to 20)
#    0.000    0.800    6.000    0.600    2.800    4.000 
#    0.000    0.000    0.000    0.000    0.000    0.000 
#    0.000    0.000    0.000    0.000    0.000    0.000 
#
# Total GULP energy -111865.395844 kJ/mol
# GULP energy per Si atom -5593.269792 kJ/mol
# Density = 1.951655 g / cm^3
# Si number density = 19.561074 Si / 1000 Ang^3
#
#
#
# Elastic Constant Matrix: (Units=GPa)
#
#
# Indices 1 2 3 4 5 6 
#
# 1 91.3075 25.8911 3.3286 0.0000 0.1229 0.0000
# 2 25.8911 76.9449 3.3301 0.0000 1.1496 0.0000
# 3 3.3286 3.3301 46.2027 0.0000 12.0896 0.0000
# 4 0.0000 0.0000 0.0000 25.0755 0.0000 0.1288
# 5 0.1229 1.1496 12.0896 0.0000 23.6387 0.0000
# 6 0.0000 0.0000 0.0000 0.1288 0.0000 23.5990
#
#
#
# Elastic Compliance Matrix: (Units=1/GPa)
#
#
# Indices 1 2 3 4 5 6 
#
# 1 0.012128 -0.004058 -0.000712 0.000000 0.000498 0.000000
# 2 -0.004058 0.014395 -0.000655 0.000000 -0.000344 0.000000
# 3 -0.000712 -0.000655 0.025091 0.000000 -0.012797 0.000000
# 4 0.000000 0.000000 0.000000 0.039881 0.000000 -0.000218
# 5 0.000498 -0.000344 -0.012797 0.000000 0.048862 0.000000
# 6 0.000000 0.000000 0.000000 -0.000218 0.000000 0.042376
#
#
# Mechanical properties :
#
#
# Convention : Reuss Voigt Hill
#
# Bulk Modulus (GPa) = 24.53100 31.06166 27.79633
# Shear Modulus (GPa) = 24.13480 26.58965 25.36222
#
# Velocity S-wave (km/s) = 3.51638 3.69089 3.60469
# Velocity P-wave (km/s) = 5.39023 5.83758 5.61836
#
# Compressibility (1/GPa) = 0.04076475
#
# Stress axis : x y z
#
# Youngs Moduli (GPa) = 82.45506 69.46803 39.85542
#
# Poissons Ratio (x) = 0.28187 0.02836
# Poissons Ratio (y) = 0.33456 0.02612
# Poissons Ratio (z) = 0.05868 0.04552
#
# Static dielectric constant tensor:
#      x y z
#    x 1.661820 0.000000 0.000300 
#    y 0.000000 1.659020 0.000000 
#    z 0.000300 0.000000 1.681860 
# 
# From -- ./inp_files/170737.got.cif
#   From: 2010.05.17/outbox.cif.g08.bks.cpg/sg15_86_cif.got.tgz:170737.got - 2010.06.03 18:47:42.
