data_PCOD9305655
_publ_section_title
;
Structure prediction by ZEFSAII (Michael W. Deem and Ramdas Pophale) SiO2 
 PCOD9305655
Probable space group: C 2/C
;
_chemical_formula_sum "Si O2"
_cell_formula_units_Z 48
_cell_length_a 7.635117
_cell_length_b 27.536664
_cell_length_c 13.269525
_cell_angle_alpha 90.000000
_cell_angle_beta 47.069741
_cell_angle_gamma 90.000000
_cell_volume 2042.688834
_symmetry_space_group_name_H-M "C 2/C"
_symmetry_group_IT_number 15
_symmetry_cell_setting 'monoclinic'
loop_
_space_group_symop_operation_xyz
x,y,z
-x,y,1/2-z
-x,-y,-z
x,-y,1/2+z
1/2+x,1/2+y,z
1/2-x,1/2+y,1/2-z
1/2-x,1/2-y,-z
1/2+x,1/2-y,1/2+z
loop_
_atom_site_type_symbol
_atom_site_label
_atom_site_fract_x
_atom_site_fract_y
_atom_site_fract_z
Si Si1 0.709623 0.558291 0.581953
Si Si2 0.212695 0.349387 0.585154
Si Si3 0.113222 0.698188 0.433536
Si Si4 0.500000 0.619481 0.250000
Si Si5 0.000000 0.612385 0.750000
Si Si6 0.273564 0.050912 0.009101
Si Si7 0.798789 0.194196 0.585516
O O1 0.500000 0.564199 0.750000
O O2 0.713119 0.599982 0.496249
O O3 0.690931 0.504504 0.541977
O O4 0.979924 0.557680 0.522811
O O5 0.435990 0.322102 0.547622
O O6 0.000000 0.354810 0.750000
O O7 0.134672 0.314681 0.521942
O O8 0.278220 0.655033 0.328188
O O9 0.198670 0.751969 0.371285
O O10 0.146216 0.695113 0.541434
O O11 0.439957 0.583319 0.363693
O O12 0.855024 0.575962 0.875858
O O13 0.797333 0.652443 0.802397
#
# Coordination Sequence:
#
# PCOD9305655 Si02
#       7
#     8   8   8   4   4   8   8
#     4  11  24  47  67 101 145 193 237 294 369 437
#     4  12  26  44  73 112 144 185 244 303 358 428
#     4  11  24  46  72 102 146 192 233 296 359 430
#     4  12  19  46  72 102 134 196 235 290 366 434
#     4  12  23  44  66 108 136 178 237 302 348 426
#     4  11  25  42  74 100 142 191 238 296 371 429
#     4  11  25  45  73 106 141 193 243 290 362 431
#
# _framework density 23.498439000000001
#
# number of rings (size 3 to 8) (size 9 to 14) (size 15 to 20)
#    0.000    0.667    4.167    3.000    1.167    1.333 
#    0.000    3.333    0.000    0.000    0.000    0.000 
#    0.000    0.000    0.000    0.000    0.000    0.000 
#
# Total GULP energy -134056.266730 kJ/mol
# GULP energy per Si atom -5585.677780 kJ/mol
# Density = 2.344496 g / cm^3
# Si number density = 23.498439 Si / 1000 Ang^3
#
#
#
# Elastic Constant Matrix: (Units=GPa)
#
#
# Indices 1 2 3 4 5 6 
#
# 1 50.7104 32.5131 -1.2142 0.0000 11.7008 0.0000
# 2 32.5131 179.2912 72.7145 0.0000 11.0194 0.0000
# 3 -1.2142 72.7145 136.7297 0.0000 4.5800 0.0000
# 4 0.0000 0.0000 0.0000 7.6769 0.0000 4.5313
# 5 11.7008 11.0194 4.5800 0.0000 18.3215 0.0000
# 6 0.0000 0.0000 0.0000 4.5313 0.0000 19.6903
#
#
#
# Elastic Compliance Matrix: (Units=1/GPa)
#
#
# Indices 1 2 3 4 5 6 
#
# 1 0.026646 -0.005387 0.003593 0.000000 -0.014675 0.000000
# 2 -0.005387 0.008412 -0.004505 0.000000 -0.000492 0.000000
# 3 0.003593 -0.004505 0.009810 0.000000 -0.002038 0.000000
# 4 0.000000 0.000000 0.000000 0.150737 0.000000 -0.034689
# 5 -0.014675 -0.000492 -0.002038 0.000000 0.064759 0.000000
# 6 0.000000 0.000000 0.000000 -0.034689 0.000000 0.058769
#
#
# Mechanical properties :
#
#
# Convention : Reuss Voigt Hill
#
# Bulk Modulus (GPa) = 30.98888 63.86200 47.42544
# Shear Modulus (GPa) = 14.59911 26.65225 20.62568
#
# Velocity S-wave (km/s) = 2.49525 3.37146 2.96589
# Velocity P-wave (km/s) = 4.63875 6.51090 5.65287
#
# Compressibility (1/GPa) = 0.03226965
#
# Stress axis : x y z
#
# Youngs Moduli (GPa) = 37.52879 118.88103 101.94109
#
# Poissons Ratio (x) = 0.64047 -0.36631
# Poissons Ratio (y) = 0.20218 0.45923
# Poissons Ratio (z) = -0.13485 0.53554
#
# Static dielectric constant tensor:
#      x y z
#    x 2.021220 0.000000 -0.018070 
#    y 0.000000 1.857700 0.000000 
#    z -0.018070 0.000000 1.918880 
# 
# From -- ./inp_files/138978.got.cif
#   From: 2010.05.17/outbox.cif.g08.bks.cpg/sg15_70_cif.got.tgz:138978.got - 2010.06.03 18:47:42.
