data_PCOD9305056
_publ_section_title
;
Structure prediction by ZEFSAII (Michael W. Deem and Ramdas Pophale) SiO2 
 PCOD9305056
Probable space group: C 2/C
;
_chemical_formula_sum "Si O2"
_cell_formula_units_Z 40
_cell_length_a 27.390185
_cell_length_b 14.236225
_cell_length_c 7.476663
_cell_angle_alpha 90.000000
_cell_angle_beta 148.935660
_cell_angle_gamma 90.000000
_cell_volume 1504.345427
_symmetry_space_group_name_H-M "C 2/C"
_symmetry_group_IT_number 15
_symmetry_cell_setting 'monoclinic'
loop_
_space_group_symop_operation_xyz
x,y,z
-x,y,1/2-z
-x,-y,-z
x,-y,1/2+z
1/2+x,1/2+y,z
1/2-x,1/2+y,1/2-z
1/2-x,1/2-y,-z
1/2+x,1/2-y,1/2+z
loop_
_atom_site_type_symbol
_atom_site_label
_atom_site_fract_x
_atom_site_fract_y
_atom_site_fract_z
Si Si1 0.650534 0.585912 0.194503
Si Si2 0.840622 0.127763 0.678763
Si Si3 0.500000 0.710999 0.750000
Si Si4 0.869310 0.671431 0.395150
Si Si5 0.500000 0.032903 0.750000
Si Si6 0.136202 0.372583 0.036263
O O1 0.650996 0.473584 0.205856
O O2 0.754717 0.624521 0.563461
O O3 0.623781 0.612707 0.908869
O O4 0.572945 0.637896 0.072845
O O5 0.884649 0.218637 0.912302
O O6 0.728893 0.154396 0.314616
O O7 0.423833 0.781956 0.597826
O O8 0.956233 0.613493 0.750537
O O9 0.858542 0.623744 0.163895
O O10 0.416142 0.959174 0.531622
#
# Coordination Sequence:
#
# PCOD9305056 Si02
#       6
#     8   8   4   8   4   8
#     4  12  25  50  72 105 147 194 241 296 359 432
#     4  11  26  45  74 102 147 194 232 296 362 422
#     4  11  26  43  74 106 142 195 240 291 360 428
#     4  11  24  47  70 114 140 185 240 296 368 420
#     4  11  24  41  80 112 140 181 242 305 352 436
#     4  11  24  48  75 108 143 189 240 302 361 427
#
# _framework density 26.589635999999999
#
# number of rings (size 3 to 8) (size 9 to 14) (size 15 to 20)
#    0.000    0.800    4.000    2.400    0.000    4.800 
#    7.200    0.000    0.000    0.000    0.000    0.000 
#    0.000    0.000    0.000    0.000    0.000    0.000 
#
# Total GULP energy -111686.552521 kJ/mol
# GULP energy per Si atom -5584.327626 kJ/mol
# Density = 2.652912 g / cm^3
# Si number density = 26.589636 Si / 1000 Ang^3
#
#
#
# Elastic Constant Matrix: (Units=GPa)
#
#
# Indices 1 2 3 4 5 6 
#
# 1 101.8990 54.2752 48.5233 0.0000 15.6297 0.0000
# 2 54.2752 260.1729 69.6664 0.0000 14.2525 0.0000
# 3 48.5233 69.6664 116.4295 0.0000 49.8870 0.0000
# 4 0.0000 0.0000 0.0000 23.0887 0.0000 44.4039
# 5 15.6297 14.2525 49.8870 0.0000 43.2713 0.0000
# 6 0.0000 0.0000 0.0000 44.4039 0.0000 12.8487
#
#
#
# Elastic Compliance Matrix: (Units=1/GPa)
#
#
# Indices 1 2 3 4 5 6 
#
# 1 0.012785 -0.001329 -0.005418 0.000000 0.002067 0.000000
# 2 -0.001329 0.004960 -0.003794 0.000000 0.003220 0.000000
# 3 -0.005418 -0.003794 0.023207 0.000000 -0.023548 0.000000
# 4 0.000000 0.000000 0.000000 -0.007671 0.000000 0.026509
# 5 0.002067 0.003220 -0.023548 0.000000 0.048451 0.000000
# 6 0.000000 0.000000 0.000000 0.026509 0.000000 -0.013784
#
#
# Mechanical properties :
#
#
# Convention : Reuss Voigt Hill
#
# Bulk Modulus (GPa) = 50.32919 91.49235 70.91077
# Shear Modulus (GPa) = 52.27119 36.24418 44.25769
#
# Velocity S-wave (km/s) = 4.43860 3.69602 4.08422
# Velocity P-wave (km/s) = 6.72588 7.25932 6.99769
#
# Compressibility (1/GPa) = 0.01986919
#
# Stress axis : x y z
#
# Youngs Moduli (GPa) = 78.21737 201.59698 43.09072
#
# Poissons Ratio (x) = 0.26801 0.23348
# Poissons Ratio (y) = 0.10399 0.16348
# Poissons Ratio (z) = 0.42380 0.76482
#
# Static dielectric constant tensor:
#      x y z
#    x 2.109760 0.000000 -0.150180 
#    y 0.000000 2.053220 0.000000 
#    z -0.150180 0.000000 3.172760 
# 
# From -- ./inp_files/70224.got.cif
#   From: 2010.05.17/outbox.cif.g08.bks.cpg/sg15_36_cif.got.tgz:70224.got - 2010.06.03 18:47:42.
