data_PCOD9306821
_publ_section_title
;
Structure prediction by ZEFSAII (Michael W. Deem and Ramdas Pophale) SiO2 
 PCOD9306821
Probable space group: C 2/C
;
_chemical_formula_sum "Si O2"
_cell_formula_units_Z 24
_cell_length_a 5.149700
_cell_length_b 26.057883
_cell_length_c 9.103540
_cell_angle_alpha 90.000000
_cell_angle_beta 121.388658
_cell_angle_gamma 90.000000
_cell_volume 1042.829244
_symmetry_space_group_name_H-M "C 2/C"
_symmetry_group_IT_number 15
_symmetry_cell_setting 'monoclinic'
loop_
_space_group_symop_operation_xyz
x,y,z
-x,y,1/2-z
-x,-y,-z
x,-y,1/2+z
1/2+x,1/2+y,z
1/2-x,1/2+y,1/2-z
1/2-x,1/2-y,-z
1/2+x,1/2-y,1/2+z
loop_
_atom_site_type_symbol
_atom_site_label
_atom_site_fract_x
_atom_site_fract_y
_atom_site_fract_z
Si Si1 0.792561 0.532929 0.047541
Si Si2 0.000000 0.203571 0.250000
Si Si3 0.500000 0.723711 0.750000
Si Si4 0.295916 0.352523 0.944998
O O1 0.688234 0.590885 0.981136
O O2 0.000000 0.539104 0.250000
O O3 0.500000 0.500000 0.000000
O O4 0.000000 0.500000 0.000000
O O5 0.265667 0.241358 0.273043
O O6 0.943314 0.165635 0.094336
O O7 0.315806 0.688374 0.581432
O O8 0.000000 0.351692 0.750000
#
# Coordination Sequence:
#
# PCOD9306821 Si02
#       4
#     8   4   4   8
#     4  11  27  47  75 106 144 187 242 303 364 430
#     4  12  26  48  71 108 147 190 240 294 356 426
#     4  12  28  44  75 106 145 194 238 290 356 434
#     4  11  28  47  74 106 147 187 241 297 359 425
#
# _framework density 23.014313000000001
#
# number of rings (size 3 to 8) (size 9 to 14) (size 15 to 20)
#    0.000    0.667    1.667    3.000   18.667    0.000 
#    0.000    0.000    0.000    0.000    0.000    0.000 
#    0.000    0.000    0.000    0.000    0.000    0.000 
#
# Total GULP energy -67055.718489 kJ/mol
# GULP energy per Si atom -5587.976541 kJ/mol
# Density = 2.296193 g / cm^3
# Si number density = 23.014313 Si / 1000 Ang^3
#
#
#
# Elastic Constant Matrix: (Units=GPa)
#
#
# Indices 1 2 3 4 5 6 
#
# 1 182.2529 108.3372 33.8086 0.0000 -20.4746 0.0000
# 2 108.3372 250.2344 52.6805 0.0000 -22.7151 0.0000
# 3 33.8086 52.6805 92.4509 0.0000 -12.1276 0.0000
# 4 0.0000 0.0000 0.0000 42.9026 0.0000 -7.7288
# 5 -20.4746 -22.7151 -12.1276 0.0000 40.3469 0.0000
# 6 0.0000 0.0000 0.0000 -7.7288 0.0000 21.4634
#
#
#
# Elastic Compliance Matrix: (Units=1/GPa)
#
#
# Indices 1 2 3 4 5 6 
#
# 1 0.007611 -0.002938 -0.000853 0.000000 0.001952 0.000000
# 2 -0.002938 0.005812 -0.002086 0.000000 0.001154 0.000000
# 3 -0.000853 -0.002086 0.012603 0.000000 0.002181 0.000000
# 4 0.000000 0.000000 0.000000 0.024926 0.000000 0.008975
# 5 0.001952 0.001154 0.002181 0.000000 0.027081 0.000000
# 6 0.000000 0.000000 0.000000 0.008975 0.000000 0.049823
#
#
# Mechanical properties :
#
#
# Convention : Reuss Voigt Hill
#
# Bulk Modulus (GPa) = 70.06790 101.62120 85.84455
# Shear Modulus (GPa) = 34.63375 42.95005 38.79190
#
# Velocity S-wave (km/s) = 3.88348 4.32468 4.11001
# Velocity P-wave (km/s) = 7.11478 8.31797 7.73979
#
# Compressibility (1/GPa) = 0.01427187
#
# Stress axis : x y z
#
# Youngs Moduli (GPa) = 131.38786 172.04718 79.34469
#
# Poissons Ratio (x) = 0.50555 0.06767
# Poissons Ratio (y) = 0.38607 0.16552
# Poissons Ratio (z) = 0.11206 0.35890
#
# Static dielectric constant tensor:
#      x y z
#    x 1.899760 0.000000 0.004770 
#    y 0.000000 1.938960 0.000000 
#    z 0.004770 0.000000 1.878210 
# 
# From -- ./inp_files/19579.got.cif
#   From: 2010.05.17/outbox.cif.g08.bks.cpg/sg15_10_cif.got.tgz:19579.got - 2010.06.03 18:47:42.
