data_PCOD9306714
_publ_section_title
;
Structure prediction by ZEFSAII (Michael W. Deem and Ramdas Pophale) SiO2 
 PCOD9306714
Probable space group: C 2/C
;
_chemical_formula_sum "Si O2"
_cell_formula_units_Z 28
_cell_length_a 4.972858
_cell_length_b 22.514472
_cell_length_c 10.009214
_cell_angle_alpha 90.000000
_cell_angle_beta 92.844742
_cell_angle_gamma 90.000000
_cell_volume 1119.263348
_symmetry_space_group_name_H-M "C 2/C"
_symmetry_group_IT_number 15
_symmetry_cell_setting 'monoclinic'
loop_
_space_group_symop_operation_xyz
x,y,z
-x,y,1/2-z
-x,-y,-z
x,-y,1/2+z
1/2+x,1/2+y,z
1/2-x,1/2+y,1/2-z
1/2-x,1/2-y,-z
1/2+x,1/2-y,1/2+z
loop_
_atom_site_type_symbol
_atom_site_label
_atom_site_fract_x
_atom_site_fract_y
_atom_site_fract_z
Si Si1 0.750000 0.750000 0.000000
Si Si2 0.500000 0.106106 0.750000
Si Si3 0.500000 0.898623 0.750000
Si Si4 0.000000 0.808071 0.250000
Si Si5 0.696077 0.503005 0.626670
Si Si6 0.000000 0.817468 0.750000
O O1 0.504710 0.728642 0.887424
O O2 0.902262 0.780184 0.874670
O O3 0.255736 0.148937 0.779704
O O4 0.385653 0.060573 0.637227
O O5 0.373481 0.943923 0.640526
O O6 0.253973 0.859084 0.794694
O O7 0.500000 0.505859 0.750000
O O8 0.500000 0.500000 0.500000
#
# Coordination Sequence:
#
# PCOD9306714 Si02
#       6
#     4   4   4   4   8   4
#     4  12  32  56  84 124 166 222 302 356 420 502
#     4  11  27  50  81 118 167 220 271 343 432 502
#     4  11  27  50  83 122 167 218 273 341 434 502
#     4  12  29  53  83 116 167 223 285 358 424 500
#     4  11  26  48  77 125 165 215 271 337 411 542
#     4  12  29  53  85 122 169 225 279 364 422 504
#
# _framework density 25.016452000000001
#
# number of rings (size 3 to 8) (size 9 to 14) (size 15 to 20)
#    0.000    0.571    2.857    1.714    4.000   19.429 
#    0.000    0.000    0.000    0.000    0.000    0.000 
#    0.000    0.000    0.000    0.000    0.000    0.000 
#
# Total GULP energy -77946.505569 kJ/mol
# GULP energy per Si atom -5567.607541 kJ/mol
# Density = 2.495951 g / cm^3
# Si number density = 25.016452 Si / 1000 Ang^3
#
#
#
# Elastic Constant Matrix: (Units=GPa)
#
#
# Indices 1 2 3 4 5 6 
#
# 1 193.3819 73.2850 44.7879 0.0000 19.2459 0.0000
# 2 73.2850 110.0745 28.6709 0.0000 11.6974 0.0000
# 3 44.7879 28.6709 207.3440 0.0000 44.0370 0.0000
# 4 0.0000 0.0000 0.0000 14.3029 0.0000 29.0273
# 5 19.2459 11.6974 44.0370 0.0000 51.0039 0.0000
# 6 0.0000 0.0000 0.0000 29.0273 0.0000 67.1163
#
#
#
# Elastic Compliance Matrix: (Units=1/GPa)
#
#
# Indices 1 2 3 4 5 6 
#
# 1 0.007125 -0.004448 -0.000697 0.000000 -0.001066 0.000000
# 2 -0.004448 0.012269 -0.000606 0.000000 -0.000612 0.000000
# 3 -0.000697 -0.000606 0.006088 0.000000 -0.004855 0.000000
# 4 0.000000 0.000000 0.000000 0.571798 0.000000 -0.247298
# 5 -0.001066 -0.000612 -0.004855 0.000000 0.024341 0.000000
# 6 0.000000 0.000000 0.000000 -0.247298 0.000000 0.121854
#
#
# Mechanical properties :
#
#
# Convention : Reuss Voigt Hill
#
# Bulk Modulus (GPa) = 71.53467 89.36534 80.45000
# Shear Modulus (GPa) = 6.58209 50.75508 28.66858
#
# Velocity S-wave (km/s) = 1.62383 4.50918 3.38892
# Velocity P-wave (km/s) = 5.67211 7.93161 6.89505
#
# Compressibility (1/GPa) = 0.01397924
#
# Stress axis : x y z
#
# Youngs Moduli (GPa) = 140.36029 81.50483 164.24803
#
# Poissons Ratio (x) = 0.36257 0.11455
# Poissons Ratio (y) = 0.62438 0.09947
# Poissons Ratio (z) = 0.09789 0.04936
#
# Static dielectric constant tensor:
#      x y z
#    x 2.000750 0.000000 -0.036430 
#    y 0.000000 2.058960 0.000000 
#    z -0.036430 0.000000 1.954570 
# 
# From -- ./inp_files/19550.got.cif
#   From: 2010.05.17/outbox.cif.g08.bks.cpg/sg15_10_cif.got.tgz:19550.got - 2010.06.03 18:47:42.
