data_PCOD9306974
_publ_section_title
;
Structure prediction by ZEFSAII (Michael W. Deem and Ramdas Pophale) SiO2 
 PCOD9306974
Probable space group: C 2/C
;
_chemical_formula_sum "Si O2"
_cell_formula_units_Z 44
_cell_length_a 22.363195
_cell_length_b 5.255622
_cell_length_c 23.786535
_cell_angle_alpha 90.000000
_cell_angle_beta 140.043916
_cell_angle_gamma 90.000000
_cell_volume 1795.393445
_symmetry_space_group_name_H-M "C 2/C"
_symmetry_group_IT_number 15
_symmetry_cell_setting 'monoclinic'
loop_
_space_group_symop_operation_xyz
x,y,z
-x,y,1/2-z
-x,-y,-z
x,-y,1/2+z
1/2+x,1/2+y,z
1/2-x,1/2+y,1/2-z
1/2-x,1/2-y,-z
1/2+x,1/2-y,1/2+z
loop_
_atom_site_type_symbol
_atom_site_label
_atom_site_fract_x
_atom_site_fract_y
_atom_site_fract_z
Si Si1 0.827761 0.064338 0.607937
Si Si2 0.405818 0.121011 0.263418
Si Si3 0.500000 0.796992 0.250000
Si Si4 0.146510 0.610902 0.033009
Si Si5 0.432568 0.617568 0.568525
Si Si6 0.260991 0.782932 0.223772
O O1 0.840504 0.282551 0.665004
O O2 0.857571 0.138109 0.566394
O O3 0.731014 0.925128 0.549327
O O4 0.909467 0.870593 0.682779
O O5 0.461623 0.344826 0.334330
O O6 0.492190 0.974623 0.297822
O O7 0.349407 0.927035 0.260743
O O8 0.194209 0.683360 0.126091
O O9 0.092370 0.344397 0.992230
O O10 0.082804 0.843668 0.968866
O O11 0.282498 0.523248 0.273379
#
# Coordination Sequence:
#
# PCOD9306974 Si02
#       6
#     8   8   4   8   8   8
#     4  12  23  41  69 108 156 197 227 281 363 461
#     4  12  25  44  74 108 146 193 245 287 353 445
#     4  12  20  40  72 108 146 178 250 278 354 424
#     4  12  27  44  70 107 148 185 242 297 365 424
#     4  12  25  43  69 115 151 183 223 304 375 425
#     4  12  28  52  76  97 135 201 260 298 343 427
#
# _framework density 24.507164
#
# number of rings (size 3 to 8) (size 9 to 14) (size 15 to 20)
#    0.000    0.000    5.455    5.455    0.000    0.000 
#    0.000    5.455    0.000    0.000    0.000    0.000 
#    0.000    0.000    0.000    0.000    0.000    0.000 
#
# Total GULP energy -123230.607382 kJ/mol
# GULP energy per Si atom -5601.391245 kJ/mol
# Density = 2.445138 g / cm^3
# Si number density = 24.507164 Si / 1000 Ang^3
#
#
#
# Elastic Constant Matrix: (Units=GPa)
#
#
# Indices 1 2 3 4 5 6 
#
# 1 67.0684 29.3455 11.4780 0.0019 -12.6325 0.0038
# 2 29.3455 160.3068 46.4799 -0.0219 -8.6613 0.0214
# 3 11.4780 46.4799 74.2043 0.0064 -13.1777 0.0131
# 4 0.0019 -0.0219 0.0064 77.8728 -0.0055 4.0921
# 5 -12.6325 -8.6613 -13.1777 -0.0055 22.3181 -0.0072
# 6 0.0038 0.0214 0.0131 4.0921 -0.0072 49.8818
#
#
#
# Elastic Compliance Matrix: (Units=1/GPa)
#
#
# Indices 1 2 3 4 5 6 
#
# 1 0.017855 -0.002986 0.000779 -0.000001 0.009408 0.000001
# 2 -0.002986 0.008122 -0.004878 0.000003 -0.001418 -0.000002
# 3 0.000779 -0.004878 0.018045 -0.000002 0.009203 -0.000001
# 4 -0.000001 0.000003 -0.000002 0.012897 0.000002 -0.001058
# 5 0.009408 -0.001418 0.009203 0.000002 0.055015 0.000005
# 6 0.000001 -0.000002 -0.000001 -0.001058 0.000005 0.020134
#
#
# Mechanical properties :
#
#
# Convention : Reuss Voigt Hill
#
# Bulk Modulus (GPa) = 33.49636 52.90957 43.20297
# Shear Modulus (GPa) = 32.01242 44.29964 38.15603
#
# Velocity S-wave (km/s) = 3.61813 4.25622 3.95008
# Velocity P-wave (km/s) = 5.58141 6.76685 6.20251
#
# Compressibility (1/GPa) = 0.02985399
#
# Stress axis : x y z
#
# Youngs Moduli (GPa) = 56.00565 123.11820 55.41625
#
# Poissons Ratio (x) = 0.36766 -0.04319
# Poissons Ratio (y) = 0.16725 0.27029
# Poissons Ratio (z) = -0.04365 0.60051
#
# Static dielectric constant tensor:
#      x y z
#    x 1.973510 0.000000 -0.059790 
#    y 0.000000 1.951600 0.000010 
#    z -0.059790 0.000010 1.990020 
# 
# From -- ./inp_files/281253.got.cif
#   From: 2010.05.17/outbox.cif.g08.bks.cpg/sg15_141_cif.got.tgz:281253.got - 2010.06.03 18:47:42.
