data_PCOD9306428
_publ_section_title
;
Structure prediction by ZEFSAII (Michael W. Deem and Ramdas Pophale) SiO2 
 PCOD9306428
Probable space group: C 2/C
;
_chemical_formula_sum "Si O2"
_cell_formula_units_Z 32
_cell_length_a 12.798859
_cell_length_b 7.310681
_cell_length_c 13.393596
_cell_angle_alpha 90.000000
_cell_angle_beta 81.830466
_cell_angle_gamma 90.000000
_cell_volume 1240.499285
_symmetry_space_group_name_H-M "C 2/C"
_symmetry_group_IT_number 15
_symmetry_cell_setting 'monoclinic'
loop_
_space_group_symop_operation_xyz
x,y,z
-x,y,1/2-z
-x,-y,-z
x,-y,1/2+z
1/2+x,1/2+y,z
1/2-x,1/2+y,1/2-z
1/2-x,1/2-y,-z
1/2+x,1/2-y,1/2+z
loop_
_atom_site_type_symbol
_atom_site_label
_atom_site_fract_x
_atom_site_fract_y
_atom_site_fract_z
Si Si1 0.396707 0.626586 0.492717
Si Si2 0.091113 0.807442 0.296116
Si Si3 0.755488 0.857872 0.396761
Si Si4 0.518717 0.080810 0.859350
O O1 0.500000 0.500000 0.500000
O O2 0.351410 0.626148 0.611485
O O3 0.317685 0.540244 0.423043
O O4 0.437324 0.820277 0.443969
O O5 0.178997 0.766712 0.201967
O O6 0.020693 0.638909 0.348269
O O7 0.000000 0.922181 0.250000
O O8 0.750000 0.750000 0.500000
O O9 0.637146 0.879334 0.376421
O O10 0.500000 0.149815 0.750000
#
# Coordination Sequence:
#
# PCOD9306428 Si02
#       4
#     8   8   8   8
#     4  12  25  46  79 108 157 204 257 322 393 460
#     4  11  25  48  74 108 158 201 258 323 383 469
#     4  12  27  47  79 117 156 204 261 321 394 469
#     4  11  28  48  75 113 158 200 265 319 394 462
#
# _framework density 25.796064999999999
#
# number of rings (size 3 to 8) (size 9 to 14) (size 15 to 20)
#    0.000    0.500    5.000    0.750   10.500    3.000 
#    0.000    0.000    0.000    0.000    0.000    0.000 
#    0.000    0.000    0.000    0.000    0.000    0.000 
#
# Total GULP energy -89515.914810 kJ/mol
# GULP energy per Si atom -5594.744676 kJ/mol
# Density = 2.573735 g / cm^3
# Si number density = 25.796065 Si / 1000 Ang^3
#
#
#
# Elastic Constant Matrix: (Units=GPa)
#
#
# Indices 1 2 3 4 5 6 
#
# 1 134.9447 17.8201 54.8097 0.0000 27.6984 0.0000
# 2 17.8201 77.2144 28.8985 0.0000 -1.6758 0.0000
# 3 54.8097 28.8985 228.0710 0.0000 -0.8729 0.0000
# 4 0.0000 0.0000 0.0000 17.0827 0.0000 -19.7538
# 5 27.6984 -1.6758 -0.8729 0.0000 60.3185 0.0000
# 6 0.0000 0.0000 0.0000 -19.7538 0.0000 3.3631
#
#
#
# Elastic Compliance Matrix: (Units=1/GPa)
#
#
# Indices 1 2 3 4 5 6 
#
# 1 0.009343 -0.001474 -0.002075 0.000000 -0.004361 0.000000
# 2 -0.001474 0.013836 -0.001395 0.000000 0.001041 0.000000
# 3 -0.002075 -0.001395 0.005064 0.000000 0.000987 0.000000
# 4 0.000000 0.000000 0.000000 -0.010107 0.000000 -0.059363
# 5 -0.004361 0.001041 0.000987 0.000000 0.018625 0.000000
# 6 0.000000 0.000000 0.000000 -0.059363 0.000000 -0.051336
#
#
# Mechanical properties :
#
#
# Convention : Reuss Voigt Hill
#
# Bulk Modulus (GPa) = 54.48345 71.47630 62.97988
# Shear Modulus (GPa) = 3493.42064 38.73299 1766.07681
#
# Velocity S-wave (km/s) = 36.84000 3.87913 26.19383
# Velocity P-wave (km/s) = 42.78723 6.91606 30.64783
#
# Compressibility (1/GPa) = 0.01835420
#
# Stress axis : x y z
#
# Youngs Moduli (GPa) = 107.02932 72.27615 197.47880
#
# Poissons Ratio (x) = 0.10655 0.40982
# Poissons Ratio (y) = 0.15779 0.27545
# Poissons Ratio (z) = 0.22211 0.10081
#
# Static dielectric constant tensor:
#      x y z
#    x 2.058390 0.000000 0.079400 
#    y 0.000000 2.184350 0.000000 
#    z 0.079400 0.000000 2.203840 
# 
# From -- ./inp_files/93515.got.cif
#   From: 2010.05.17/outbox.cif.g08.bks.cpg/sg15_47_cif.got.tgz:93515.got - 2010.06.03 18:47:42.
