data_PCOD9306598
_publ_section_title
;
Structure prediction by ZEFSAII (Michael W. Deem and Ramdas Pophale) SiO2 
 PCOD9306598
Probable space group: C 2/C
;
_chemical_formula_sum "Si O2"
_cell_formula_units_Z 32
_cell_length_a 8.771433
_cell_length_b 20.047012
_cell_length_c 8.960803
_cell_angle_alpha 90.000000
_cell_angle_beta 105.835418
_cell_angle_gamma 90.000000
_cell_volume 1515.879037
_symmetry_space_group_name_H-M "C 2/C"
_symmetry_group_IT_number 15
_symmetry_cell_setting 'monoclinic'
loop_
_space_group_symop_operation_xyz
x,y,z
-x,y,1/2-z
-x,-y,-z
x,-y,1/2+z
1/2+x,1/2+y,z
1/2-x,1/2+y,1/2-z
1/2-x,1/2-y,-z
1/2+x,1/2-y,1/2+z
loop_
_atom_site_type_symbol
_atom_site_label
_atom_site_fract_x
_atom_site_fract_y
_atom_site_fract_z
Si Si1 0.807513 0.760311 0.185250
Si Si2 0.665619 0.397270 0.206469
Si Si3 0.669108 0.646929 0.368019
Si Si4 0.881748 0.523122 0.339523
O O1 0.747913 0.835982 0.191451
O O2 0.743819 0.711064 0.300177
O O3 0.000000 0.759241 0.250000
O O4 0.750000 0.750000 0.000000
O O5 0.500000 0.411209 0.250000
O O6 0.775237 0.462681 0.244840
O O7 0.640522 0.362991 0.037748
O O8 0.500000 0.639900 0.250000
O O9 0.772167 0.582525 0.360338
O O10 0.000000 0.551666 0.250000
O O11 0.000000 0.500000 0.500000
#
# Coordination Sequence:
#
# PCOD9306598 Si02
#       4
#     8   8   8   8
#     4  11  26  46  74 105 143 186 236 297 357 429
#     4  11  26  46  69 102 143 186 235 289 355 423
#     4  12  26  45  72 103 142 188 234 294 356 424
#     4  12  27  45  72 105 140 186 236 295 354 421
#
# _framework density 21.109863000000001
#
# number of rings (size 3 to 8) (size 9 to 14) (size 15 to 20)
#    0.000    0.500    2.500    5.250   10.500    3.000 
#    0.000    0.000    0.000    0.000    0.000    0.000 
#    0.000    0.000    0.000    0.000    0.000    0.000 
#
# Total GULP energy -89197.870527 kJ/mol
# GULP energy per Si atom -5574.866908 kJ/mol
# Density = 2.106182 g / cm^3
# Si number density = 21.109863 Si / 1000 Ang^3
#
#
#
# Elastic Constant Matrix: (Units=GPa)
#
#
# Indices 1 2 3 4 5 6 
#
# 1 105.1305 22.5438 16.7363 0.0000 -9.9671 0.0000
# 2 22.5438 68.9926 -20.9076 0.0000 -3.7517 0.0000
# 3 16.7363 -20.9076 81.5415 0.0000 -13.9890 0.0000
# 4 0.0000 0.0000 0.0000 28.3284 0.0000 -8.8878
# 5 -9.9671 -3.7517 -13.9890 0.0000 37.1994 0.0000
# 6 0.0000 0.0000 0.0000 -8.8878 0.0000 28.3182
#
#
#
# Elastic Compliance Matrix: (Units=1/GPa)
#
#
# Indices 1 2 3 4 5 6 
#
# 1 0.011123 -0.004540 -0.003222 0.000000 0.001311 0.000000
# 2 -0.004540 0.017960 0.006028 0.000000 0.002862 0.000000
# 3 -0.003222 0.006028 0.015422 0.000000 0.005544 0.000000
# 4 0.000000 0.000000 0.000000 0.039156 0.000000 0.012289
# 5 0.001311 0.002862 0.005544 0.000000 0.029607 0.000000
# 6 0.000000 0.000000 0.000000 0.012289 0.000000 0.039170
#
#
# Mechanical properties :
#
#
# Convention : Reuss Voigt Hill
#
# Bulk Modulus (GPa) = 24.36856 32.48995 28.42925
# Shear Modulus (GPa) = 29.48402 34.58867 32.03634
#
# Velocity S-wave (km/s) = 3.74129 4.05224 3.89987
# Velocity P-wave (km/s) = 5.49834 6.10889 5.81164
#
# Compressibility (1/GPa) = 0.04103649
#
# Stress axis : x y z
#
# Youngs Moduli (GPa) = 89.90694 55.67964 64.84389
#
# Poissons Ratio (x) = 0.25276 0.20893
# Poissons Ratio (y) = 0.40813 -0.39086
# Poissons Ratio (z) = 0.28968 -0.33562
#
# Static dielectric constant tensor:
#      x y z
#    x 1.733670 0.000000 -0.085940 
#    y 0.000000 1.700870 0.000000 
#    z -0.085940 0.000000 1.883530 
# 
# From -- ./inp_files/22347.got.cif
#   From: 2010.05.17/outbox.cif.g08.bks.cpg/sg15_12_cif.got.tgz:22347.got - 2010.06.03 18:47:42.
