data_PCOD9306013
_publ_section_title
;
Structure prediction by ZEFSAII (Michael W. Deem and Ramdas Pophale) SiO2 
 PCOD9306013
Probable space group: C 2/C
;
_chemical_formula_sum "Si O2"
_cell_formula_units_Z 48
_cell_length_a 13.354906
_cell_length_b 20.890674
_cell_length_c 12.602770
_cell_angle_alpha 90.000000
_cell_angle_beta 139.561667
_cell_angle_gamma 90.000000
_cell_volume 2280.635234
_symmetry_space_group_name_H-M "C 2/C"
_symmetry_group_IT_number 15
_symmetry_cell_setting 'monoclinic'
loop_
_space_group_symop_operation_xyz
x,y,z
-x,y,1/2-z
-x,-y,-z
x,-y,1/2+z
1/2+x,1/2+y,z
1/2-x,1/2+y,1/2-z
1/2-x,1/2-y,-z
1/2+x,1/2-y,1/2+z
loop_
_atom_site_type_symbol
_atom_site_label
_atom_site_fract_x
_atom_site_fract_y
_atom_site_fract_z
Si Si1 0.603074 0.185989 0.546634
Si Si2 0.678039 0.559763 0.065053
Si Si3 0.027187 0.813982 0.147580
Si Si4 0.739723 0.007725 0.677693
Si Si5 0.500000 0.888229 0.750000
Si Si6 0.007775 0.416692 0.130116
Si Si7 0.500000 0.526297 0.750000
O O1 0.787173 0.183963 0.717790
O O2 0.544856 0.258031 0.482471
O O3 0.563480 0.151354 0.402119
O O4 0.508290 0.148848 0.562291
O O5 0.669338 0.544525 0.180932
O O6 0.855422 0.571635 0.177144
O O7 0.577240 0.622718 0.956879
O O8 0.600497 0.503576 0.931882
O O9 0.000000 0.798389 0.250000
O O10 0.621802 0.967468 0.511697
O O11 0.659566 0.050053 0.702681
O O12 0.849352 0.050287 0.692923
O O13 0.000000 0.408129 0.250000
#
# Coordination Sequence:
#
# PCOD9306013 Si02
#       7
#     8   8   8   8   4   8   4
#     4  12  24  41  67  97 133 177 225 286 346 394
#     4  12  23  38  65  97 137 172 223 279 349 398
#     4  12  23  40  66 101 133 173 223 295 342 394
#     4  11  25  41  70  98 134 185 225 281 338 403
#     4  12  20  37  64  96 132 169 226 282 342 402
#     4  11  25  46  68  99 139 184 229 272 336 416
#     4  12  24  41  62 104 140 173 224 290 338 400
#
# _framework density 21.046768
#
# number of rings (size 3 to 8) (size 9 to 14) (size 15 to 20)
#    0.000    0.333    5.000    5.000    3.500    1.333 
#    0.000    0.833    1.833    0.000    0.000    0.000 
#    0.000    0.000    0.000    0.000    0.000    0.000 
#
# Total GULP energy -133716.183966 kJ/mol
# GULP energy per Si atom -5571.507665 kJ/mol
# Density = 2.099886 g / cm^3
# Si number density = 21.046768 Si / 1000 Ang^3
#
#
#
# Elastic Constant Matrix: (Units=GPa)
#
#
# Indices 1 2 3 4 5 6 
#
# 1 152.2443 54.1859 53.4100 0.0000 -0.8003 0.0000
# 2 54.1859 87.0874 39.6495 0.0000 -1.4541 0.0000
# 3 53.4100 39.6495 117.6821 0.0000 3.7744 0.0000
# 4 0.0000 0.0000 0.0000 30.1371 0.0000 -1.5517
# 5 -0.8003 -1.4541 3.7744 0.0000 51.1280 0.0000
# 6 0.0000 0.0000 0.0000 -1.5517 0.0000 7.3340
#
#
#
# Elastic Compliance Matrix: (Units=1/GPa)
#
#
# Indices 1 2 3 4 5 6 
#
# 1 0.009073 -0.004446 -0.002627 0.000000 0.000209 0.000000
# 2 -0.004446 0.015769 -0.003315 0.000000 0.000624 0.000000
# 3 -0.002627 -0.003315 0.010836 0.000000 -0.000935 0.000000
# 4 0.000000 0.000000 0.000000 0.033547 0.000000 0.007098
# 5 0.000209 0.000624 -0.000935 0.000000 0.019649 0.000000
# 6 0.000000 0.000000 0.000000 0.007098 0.000000 0.137853
#
#
# Mechanical properties :
#
#
# Convention : Reuss Voigt Hill
#
# Bulk Modulus (GPa) = 67.10003 72.38940 69.74472
# Shear Modulus (GPa) = 19.80427 31.70439 25.75433
#
# Velocity S-wave (km/s) = 3.07084 3.88542 3.50190
# Velocity P-wave (km/s) = 6.67263 7.38904 7.03995
#
# Compressibility (1/GPa) = 0.01490312
#
# Stress axis : x y z
#
# Youngs Moduli (GPa) = 110.21211 63.41668 92.28095
#
# Poissons Ratio (x) = 0.28196 0.24240
# Poissons Ratio (y) = 0.49001 0.30591
# Poissons Ratio (z) = 0.28950 0.21022
#
# Static dielectric constant tensor:
#      x y z
#    x 1.754150 0.000000 0.015240 
#    y 0.000000 1.867320 0.000000 
#    z 0.015240 0.000000 1.808560 
# 
# From -- ./inp_files/89818.got.cif
#   From: 2010.05.17/outbox.cif.g08.bks.cpg/sg15_45_cif.got.tgz:89818.got - 2010.06.03 18:47:42.
