data_PCOD9306801
_publ_section_title
;
Structure prediction by ZEFSAII (Michael W. Deem and Ramdas Pophale) SiO2 
 PCOD9306801
Probable space group: C 2/C
;
_chemical_formula_sum "Si O2"
_cell_formula_units_Z 28
_cell_length_a 11.491134
_cell_length_b 22.761029
_cell_length_c 4.918606
_cell_angle_alpha 90.000000
_cell_angle_beta 119.491089
_cell_angle_gamma 90.000000
_cell_volume 1119.777663
_symmetry_space_group_name_H-M "C 2/C"
_symmetry_group_IT_number 15
_symmetry_cell_setting 'monoclinic'
loop_
_space_group_symop_operation_xyz
x,y,z
-x,y,1/2-z
-x,-y,-z
x,-y,1/2+z
1/2+x,1/2+y,z
1/2-x,1/2+y,1/2-z
1/2-x,1/2-y,-z
1/2+x,1/2-y,1/2+z
loop_
_atom_site_type_symbol
_atom_site_label
_atom_site_fract_x
_atom_site_fract_y
_atom_site_fract_z
Si Si1 0.381272 0.752572 0.328751
Si Si2 0.277344 0.348122 0.093745
Si Si3 0.229966 0.038418 0.241207
Si Si4 0.500000 0.595799 0.250000
O O1 0.500000 0.752185 0.250000
O O2 0.352644 0.812536 0.456519
O O3 0.250000 0.750000 0.000000
O O4 0.363916 0.697823 0.513022
O O5 0.225003 0.401510 0.848070
O O6 0.379718 0.370224 0.450638
O O7 0.925169 0.056124 0.385993
O O8 0.266417 0.014184 0.579034
#
# Coordination Sequence:
#
# PCOD9306801 Si02
#       4
#     8   8   8   4
#     4  11  28  50  74 107 146 201 253 310 375 446
#     4  11  27  43  72 106 153 194 251 310 378 446
#     4  12  25  40  68 109 152 195 247 311 378 443
#     4  12  24  40  68 110 152 198 240 314 378 446
#
# _framework density 25.004961000000002
#
# number of rings (size 3 to 8) (size 9 to 14) (size 15 to 20)
#    0.000    0.571    2.857    3.429   12.000    3.429 
#    0.000    0.000    0.000    1.714    0.000    0.000 
#    0.000    0.000    0.000    0.000    0.000    0.000 
#
# Total GULP energy -78229.819964 kJ/mol
# GULP energy per Si atom -5587.844283 kJ/mol
# Density = 2.494805 g / cm^3
# Si number density = 25.004961 Si / 1000 Ang^3
#
#
#
# Elastic Constant Matrix: (Units=GPa)
#
#
# Indices 1 2 3 4 5 6 
#
# 1 147.4100 35.6330 27.6610 0.0000 -29.1260 0.0000
# 2 35.6330 114.9898 6.1981 0.0000 -29.4661 0.0000
# 3 27.6610 6.1981 111.7600 0.0000 -22.5624 0.0000
# 4 0.0000 0.0000 0.0000 37.7331 0.0000 -3.1003
# 5 -29.1260 -29.4661 -22.5624 0.0000 44.4120 0.0000
# 6 0.0000 0.0000 0.0000 -3.1003 0.0000 -7.8907
#
#
#
# Elastic Compliance Matrix: (Units=1/GPa)
#
#
# Indices 1 2 3 4 5 6 
#
# 1 0.008101 -0.001492 -0.001169 0.000000 0.003729 0.000000
# 2 -0.001492 0.010837 0.001139 0.000000 0.006791 0.000000
# 3 -0.001169 0.001139 0.010220 0.000000 0.005181 0.000000
# 4 0.000000 0.000000 0.000000 0.025673 0.000000 -0.010087
# 5 0.003729 0.006791 0.005181 0.000000 0.032099 0.000000
# 6 0.000000 0.000000 0.000000 -0.010087 0.000000 -0.122769
#
#
# Mechanical properties :
#
#
# Convention : Reuss Voigt Hill
#
# Bulk Modulus (GPa) = 38.29393 57.01601 47.65497
# Shear Modulus (GPa) = -207.55724 35.16205 -86.19760
#
# Velocity S-wave (km/s) = -9.12067 3.75401 -5.87767
# Velocity P-wave (km/s) = 9.77587 6.45302 5.19260
#
# Compressibility (1/GPa) = 0.02611380
#
# Stress axis : x y z
#
# Youngs Moduli (GPa) = 123.44833 92.27310 97.84805
#
# Poissons Ratio (x) = 0.13764 0.11443
# Poissons Ratio (y) = 0.18415 -0.11146
# Poissons Ratio (z) = 0.14437 -0.10511
#
# Static dielectric constant tensor:
#      x y z
#    x 2.099870 0.000000 -0.080830 
#    y 0.000000 2.105960 0.000000 
#    z -0.080830 0.000000 1.980430 
# 
# From -- ./inp_files/3919.got.cif
#   From: 2010.05.17/outbox.cif.g08.bks.cpg/sg15_2_cif.got.tgz:3919.got - 2010.06.03 18:47:42.
