data_PCOD9306097
_publ_section_title
;
Structure prediction by ZEFSAII (Michael W. Deem and Ramdas Pophale) SiO2 
 PCOD9306097
Probable space group: C 2/C
;
_chemical_formula_sum "Si O2"
_cell_formula_units_Z 52
_cell_length_a 10.048459
_cell_length_b 15.283312
_cell_length_c 16.920842
_cell_angle_alpha 90.000000
_cell_angle_beta 122.714838
_cell_angle_gamma 90.000000
_cell_volume 2186.383664
_symmetry_space_group_name_H-M "C 2/C"
_symmetry_group_IT_number 15
_symmetry_cell_setting 'monoclinic'
loop_
_space_group_symop_operation_xyz
x,y,z
-x,y,1/2-z
-x,-y,-z
x,-y,1/2+z
1/2+x,1/2+y,z
1/2-x,1/2+y,1/2-z
1/2-x,1/2-y,-z
1/2+x,1/2-y,1/2+z
loop_
_atom_site_type_symbol
_atom_site_label
_atom_site_fract_x
_atom_site_fract_y
_atom_site_fract_z
Si Si1 0.000000 0.227057 0.250000
Si Si2 0.214566 0.629348 0.867583
Si Si3 0.853453 0.093570 0.742937
Si Si4 0.336979 0.420705 0.794606
Si Si5 0.484581 0.048415 0.159695
Si Si6 0.808958 0.359308 0.460461
Si Si7 0.432489 0.667990 0.481331
O O1 0.098420 0.289042 0.340001
O O2 0.113770 0.163376 0.238269
O O3 0.263854 0.631957 0.790445
O O4 0.117455 0.540698 0.857864
O O5 0.382768 0.643198 0.963663
O O6 0.733453 0.088068 0.630944
O O7 0.000000 0.146547 0.750000
O O8 0.938576 0.006503 0.807071
O O9 0.172163 0.458897 0.711100
O O10 0.348293 0.393442 0.889356
O O11 0.500000 0.098171 0.250000
O O12 0.419084 0.096350 0.061983
O O13 0.647525 0.346227 0.459003
O O14 0.889595 0.269616 0.455981
#
# Coordination Sequence:
#
# PCOD9306097 Si02
#       7
#     4   8   8   8   8   8   8
#     4  12  26  46  72 106 150 198 244 320 384 448
#     4  12  25  48  75 107 152 199 250 309 388 436
#     4  12  24  44  71 110 144 195 249 309 356 458
#     4  12  26  47  73 107 150 193 253 312 385 442
#     4  12  24  47  75 106 149 200 249 309 373 452
#     4  11  25  44  72 114 150 200 255 306 375 446
#     4  11  25  45  74 110 153 199 247 317 380 447
#
# _framework density 23.783564999999999
#
# number of rings (size 3 to 8) (size 9 to 14) (size 15 to 20)
#    0.000    0.308    6.154    1.846    2.154    2.462 
#    0.000    1.538    0.000    0.000    0.000    0.000 
#    0.000    0.000    0.000    0.000    0.000    0.000 
#
# Total GULP energy -145082.436605 kJ/mol
# GULP energy per Si atom -5580.093716 kJ/mol
# Density = 2.372943 g / cm^3
# Si number density = 23.783565 Si / 1000 Ang^3
#
#
#
# Elastic Constant Matrix: (Units=GPa)
#
#
# Indices 1 2 3 4 5 6 
#
# 1 106.7795 59.6660 45.3817 0.0000 16.3828 0.0000
# 2 59.6660 119.0616 59.5785 0.0000 3.2424 0.0000
# 3 45.3817 59.5785 152.8630 0.0000 3.9332 0.0000
# 4 0.0000 0.0000 0.0000 40.4846 0.0000 -7.0992
# 5 16.3828 3.2424 3.9332 0.0000 53.6719 0.0000
# 6 0.0000 0.0000 0.0000 -7.0992 0.0000 35.2437
#
#
#
# Elastic Compliance Matrix: (Units=1/GPa)
#
#
# Indices 1 2 3 4 5 6 
#
# 1 0.014082 -0.006100 -0.001705 0.000000 -0.003805 0.000000
# 2 -0.006100 0.013082 -0.003322 0.000000 0.001315 0.000000
# 3 -0.001705 -0.003322 0.008340 0.000000 0.000110 0.000000
# 4 0.000000 0.000000 0.000000 0.025605 0.000000 0.005158
# 5 -0.003805 0.001315 0.000110 0.000000 0.019706 0.000000
# 6 0.000000 0.000000 0.000000 0.005158 0.000000 0.029413
#
#
# Mechanical properties :
#
#
# Convention : Reuss Voigt Hill
#
# Bulk Modulus (GPa) = 75.47037 78.66181 77.06609
# Shear Modulus (GPa) = 36.52322 40.15190 38.33756
#
# Velocity S-wave (km/s) = 3.92299 4.11325 4.01925
# Velocity P-wave (km/s) = 7.23331 7.46353 7.34932
#
# Compressibility (1/GPa) = 0.01325023
#
# Stress axis : x y z
#
# Youngs Moduli (GPa) = 71.01130 76.43862 119.90597
#
# Poissons Ratio (x) = 0.46629 0.20447
# Poissons Ratio (y) = 0.43318 0.39829
# Poissons Ratio (z) = 0.12109 0.25391
#
# Static dielectric constant tensor:
#      x y z
#    x 2.147900 0.000000 0.064510 
#    y 0.000000 1.916880 0.000000 
#    z 0.064510 0.000000 1.879000 
# 
# From -- ./inp_files/198044.got.cif
#   From: 2010.05.17/outbox.cif.g08.bks.cpg/sg15_100_cif.got.tgz:198044.got - 2010.06.03 18:47:42.
