data_PCOD9306858
_publ_section_title
;
Structure prediction by ZEFSAII (Michael W. Deem and Ramdas Pophale) SiO2 
 PCOD9306858
Probable space group: C 2/C
;
_chemical_formula_sum "Si O2"
_cell_formula_units_Z 28
_cell_length_a 13.022896
_cell_length_b 7.660346
_cell_length_c 10.818444
_cell_angle_alpha 90.000000
_cell_angle_beta 106.819387
_cell_angle_gamma 90.000000
_cell_volume 1033.078373
_symmetry_space_group_name_H-M "C 2/C"
_symmetry_group_IT_number 15
_symmetry_cell_setting 'monoclinic'
loop_
_space_group_symop_operation_xyz
x,y,z
-x,y,1/2-z
-x,-y,-z
x,-y,1/2+z
1/2+x,1/2+y,z
1/2-x,1/2+y,1/2-z
1/2-x,1/2-y,-z
1/2+x,1/2-y,1/2+z
loop_
_atom_site_type_symbol
_atom_site_label
_atom_site_fract_x
_atom_site_fract_y
_atom_site_fract_z
Si Si1 0.405382 0.660525 0.121824
Si Si2 0.665392 0.839106 0.642295
Si Si3 0.365412 0.724583 0.600526
Si Si4 0.500000 0.000000 0.000000
O O1 0.500000 0.685133 0.250000
O O2 0.286678 0.673807 0.139503
O O3 0.409973 0.462454 0.074430
O O4 0.410335 0.792246 0.006274
O O5 0.647327 0.723683 0.755317
O O6 0.612251 0.026888 0.634622
O O7 0.250000 0.750000 0.500000
O O8 0.440411 0.881837 0.588617
#
# Coordination Sequence:
#
# PCOD9306858 Si02
#       4
#     8   8   8   4
#     4  11  27  50  81 115 162 216 270 344 415 498
#     4  11  28  50  77 119 157 215 276 333 423 489
#     4  12  28  50  79 117 162 213 273 342 412 498
#     4  12  26  50  74 110 158 206 268 334 400 488
#
# _framework density 27.103462
#
# number of rings (size 3 to 8) (size 9 to 14) (size 15 to 20)
#    0.000    0.571    2.857    2.571    8.000    4.571 
#    5.143    0.000    0.000    0.000    0.000    0.000 
#    0.000    0.000    0.000    0.000    0.000    0.000 
#
# Total GULP energy -78198.052831 kJ/mol
# GULP energy per Si atom -5585.575202 kJ/mol
# Density = 2.704177 g / cm^3
# Si number density = 27.103462 Si / 1000 Ang^3
#
#
#
# Elastic Constant Matrix: (Units=GPa)
#
#
# Indices 1 2 3 4 5 6 
#
# 1 221.2638 33.9443 96.1807 0.0000 13.6653 0.0000
# 2 33.9443 142.3422 76.4639 0.0000 -12.8253 0.0000
# 3 96.1807 76.4639 137.0505 0.0000 36.9333 0.0000
# 4 0.0000 0.0000 0.0000 51.1359 0.0000 1.4668
# 5 13.6653 -12.8253 36.9333 0.0000 65.3810 0.0000
# 6 0.0000 0.0000 0.0000 1.4668 0.0000 45.4436
#
#
#
# Elastic Compliance Matrix: (Units=1/GPa)
#
#
# Indices 1 2 3 4 5 6 
#
# 1 0.007051 0.002404 -0.007101 0.000000 0.003009 0.000000
# 2 0.002404 0.013395 -0.011481 0.000000 0.008611 0.000000
# 3 -0.007101 -0.011481 0.022285 0.000000 -0.013357 0.000000
# 4 0.000000 0.000000 0.000000 0.019574 0.000000 -0.000632
# 5 0.003009 0.008611 -0.013357 0.000000 0.023900 0.000000
# 6 0.000000 0.000000 0.000000 -0.000632 0.000000 0.022026
#
#
# Mechanical properties :
#
#
# Convention : Reuss Voigt Hill
#
# Bulk Modulus (GPa) = 96.37833 101.53715 98.95774
# Shear Modulus (GPa) = 34.71101 51.99660 43.35380
#
# Velocity S-wave (km/s) = 3.58255 4.38476 4.00380
# Velocity P-wave (km/s) = 7.26288 7.94852 7.61342
#
# Compressibility (1/GPa) = 0.01037578
#
# Stress axis : x y z
#
# Youngs Moduli (GPa) = 141.81437 74.65211 44.87331
#
# Poissons Ratio (x) = -0.17946 0.31863
# Poissons Ratio (y) = -0.34091 0.51520
# Poissons Ratio (z) = 1.00699 0.85710
#
# Static dielectric constant tensor:
#      x y z
#    x 2.358590 0.000000 0.056010 
#    y 0.000000 2.635220 0.000000 
#    z 0.056010 0.000000 2.154200 
# 
# From -- ./inp_files/93071.got.cif
#   From: 2010.05.17/outbox.cif.g08.bks.cpg/sg15_47_cif.got.tgz:93071.got - 2010.06.03 18:47:42.
