data_PCOD9306387
_publ_section_title
;
Structure prediction by ZEFSAII (Michael W. Deem and Ramdas Pophale) SiO2 
 PCOD9306387
Probable space group: C 2/C
;
_chemical_formula_sum "Si O2"
_cell_formula_units_Z 48
_cell_length_a 11.756606
_cell_length_b 14.409815
_cell_length_c 20.966923
_cell_angle_alpha 90.000000
_cell_angle_beta 36.227670
_cell_angle_gamma 90.000000
_cell_volume 2099.225537
_symmetry_space_group_name_H-M "C 2/C"
_symmetry_group_IT_number 15
_symmetry_cell_setting 'monoclinic'
loop_
_space_group_symop_operation_xyz
x,y,z
-x,y,1/2-z
-x,-y,-z
x,-y,1/2+z
1/2+x,1/2+y,z
1/2-x,1/2+y,1/2-z
1/2-x,1/2-y,-z
1/2+x,1/2-y,1/2+z
loop_
_atom_site_type_symbol
_atom_site_label
_atom_site_fract_x
_atom_site_fract_y
_atom_site_fract_z
Si Si1 0.382682 0.593483 0.048168
Si Si2 0.047619 0.737154 0.058198
Si Si3 0.901197 0.598521 0.027370
Si Si4 0.500000 0.688464 0.250000
Si Si5 0.828135 0.733262 0.276114
Si Si6 0.437511 0.852312 0.174633
Si Si7 0.000000 0.499875 0.750000
O O1 0.341792 0.665069 0.124459
O O2 0.162050 0.559396 0.140464
O O3 0.500000 0.500000 0.000000
O O4 0.490625 0.658868 0.948915
O O5 0.038116 0.672046 0.001867
O O6 0.915435 0.693354 0.171654
O O7 0.250000 0.750000 0.000000
O O8 0.688439 0.625098 0.150776
O O9 0.000000 0.500000 0.000000
O O10 0.903847 0.618301 0.949968
O O11 0.479579 0.760546 0.198908
O O12 0.743439 0.829470 0.288548
O O13 0.000000 0.744361 0.250000
O O14 0.408462 0.934585 0.237786
#
# Coordination Sequence:
#
# PCOD9306387 Si02
#       7
#     8   8   8   4   8   8   4
#     4  12  26  44  76 110 143 196 250 303 373 441
#     4  12  24  49  72 103 149 198 242 310 378 442
#     4  12  28  49  74 114 153 195 253 320 374 448
#     4  11  26  52  77 104 156 208 245 310 379 460
#     4  12  23  47  77 104 147 196 252 309 373 443
#     4  11  25  47  80 104 151 200 251 302 386 442
#     4  11  26  48  73 116 148 190 251 320 353 468
#
# _framework density 22.865575
#
# number of rings (size 3 to 8) (size 9 to 14) (size 15 to 20)
#    0.000    0.333    5.833    1.500    7.000    1.333 
#    4.500    0.000    0.000    0.000    0.000    0.000 
#    0.000    0.000    0.000    0.000    0.000    0.000 
#
# Total GULP energy -133791.737110 kJ/mol
# GULP energy per Si atom -5574.655713 kJ/mol
# Density = 2.281353 g / cm^3
# Si number density = 22.865575 Si / 1000 Ang^3
#
#
#
# Elastic Constant Matrix: (Units=GPa)
#
#
# Indices 1 2 3 4 5 6 
#
# 1 99.3867 55.4086 41.5872 -0.0001 16.9290 0.0002
# 2 55.4086 160.4024 47.5081 0.0005 0.8617 -0.0001
# 3 41.5872 47.5081 143.9353 0.0012 24.6996 -0.0002
# 4 -0.0001 0.0005 0.0012 30.5520 0.0001 -5.1052
# 5 16.9290 0.8617 24.6996 0.0001 39.4458 -0.0001
# 6 0.0002 -0.0001 -0.0002 -5.1052 -0.0001 29.6475
#
#
#
# Elastic Compliance Matrix: (Units=1/GPa)
#
#
# Indices 1 2 3 4 5 6 
#
# 1 0.014024 -0.004280 -0.001818 0.000000 -0.004787 0.000000
# 2 -0.004280 0.008289 -0.001998 0.000000 0.002907 0.000000
# 3 -0.001818 -0.001998 0.008953 0.000000 -0.004782 0.000000
# 4 0.000000 0.000000 0.000000 0.033701 0.000000 0.005803
# 5 -0.004787 0.002907 -0.004782 0.000000 0.030337 0.000000
# 6 0.000000 0.000000 0.000000 0.005803 0.000000 0.034729
#
#
# Mechanical properties :
#
#
# Convention : Reuss Voigt Hill
#
# Bulk Modulus (GPa) = 66.34042 76.97025 71.65534
# Shear Modulus (GPa) = 33.05807 37.21043 35.13425
#
# Velocity S-wave (km/s) = 3.80644 4.03843 3.92415
# Velocity P-wave (km/s) = 6.95664 7.44851 7.20677
#
# Compressibility (1/GPa) = 0.01507377
#
# Stress axis : x y z
#
# Youngs Moduli (GPa) = 71.30650 120.64103 111.69570
#
# Poissons Ratio (x) = 0.51638 0.20303
# Poissons Ratio (y) = 0.30521 0.22318
# Poissons Ratio (z) = 0.12961 0.24105
#
# Static dielectric constant tensor:
#      x y z
#    x 1.868300 0.000000 -0.026730 
#    y 0.000000 1.908760 0.000000 
#    z -0.026730 0.000000 2.021090 
# 
# From -- ./inp_files/238984.got.cif
#   From: 2010.05.17/outbox.cif.g08.bks.cpg/sg15_120_cif.got.tgz:238984.got - 2010.06.03 18:47:42.
