data_PCOD9306675
_publ_section_title
;
Structure prediction by ZEFSAII (Michael W. Deem and Ramdas Pophale) SiO2 
 PCOD9306675
Probable space group: C 2/C
;
_chemical_formula_sum "Si O2"
_cell_formula_units_Z 36
_cell_length_a 16.612094
_cell_length_b 16.043791
_cell_length_c 8.922912
_cell_angle_alpha 90.000000
_cell_angle_beta 34.433097
_cell_angle_gamma 90.000000
_cell_volume 1344.705652
_symmetry_space_group_name_H-M "C 2/C"
_symmetry_group_IT_number 15
_symmetry_cell_setting 'monoclinic'
loop_
_space_group_symop_operation_xyz
x,y,z
-x,y,1/2-z
-x,-y,-z
x,-y,1/2+z
1/2+x,1/2+y,z
1/2-x,1/2+y,1/2-z
1/2-x,1/2-y,-z
1/2+x,1/2-y,1/2+z
loop_
_atom_site_type_symbol
_atom_site_label
_atom_site_fract_x
_atom_site_fract_y
_atom_site_fract_z
Si Si1 0.737779 0.976982 0.804750
Si Si2 0.672751 0.199565 0.510937
Si Si3 0.887528 0.925357 0.304126
Si Si4 0.000000 0.607834 0.250000
Si Si5 0.535954 0.750854 0.939430
O O1 0.862998 0.030824 0.686152
O O2 0.749270 0.943156 0.618562
O O3 0.613228 0.043743 0.008028
O O4 0.736825 0.892800 0.906418
O O5 0.500000 0.170562 0.750000
O O6 0.663057 0.250112 0.368611
O O7 0.630737 0.251340 0.732408
O O8 0.935378 0.832090 0.196832
O O9 0.000000 0.958499 0.250000
O O10 0.041273 0.671361 0.320617
#
# Coordination Sequence:
#
# PCOD9306675 Si02
#       5
#     8   8   8   4   8
#     4  12  28  47  80 110 158 193 259 315 377 452
#     4  11  26  48  74 110 149 205 247 310 378 455
#     4  12  27  51  76 116 151 205 249 315 382 462
#     4  12  26  50  80 120 144 202 258 322 376 442
#     4  11  26  47  78 108 154 192 258 309 378 452
#
# _framework density 26.771659
#
# number of rings (size 3 to 8) (size 9 to 14) (size 15 to 20)
#    0.000    0.444    1.111    6.000    6.222    4.444 
#    0.000    0.000    0.000    0.000    0.000    0.000 
#    0.000    0.000    0.000    0.000    0.000    0.000 
#
# Total GULP energy -100405.909883 kJ/mol
# GULP energy per Si atom -5578.106105 kJ/mol
# Density = 2.671073 g / cm^3
# Si number density = 26.771659 Si / 1000 Ang^3
#
#
#
# Elastic Constant Matrix: (Units=GPa)
#
#
# Indices 1 2 3 4 5 6 
#
# 1 296.9113 199.0177 106.2044 -0.0001 -5.7433 0.0000
# 2 199.0177 332.7991 164.4915 0.0000 -2.0036 0.0000
# 3 106.2044 164.4915 157.0731 0.0000 18.3317 0.0000
# 4 -0.0001 0.0000 0.0000 32.9018 0.0000 11.3998
# 5 -5.7433 -2.0036 18.3317 0.0000 47.3773 0.0000
# 6 0.0000 0.0000 0.0000 11.3998 0.0000 50.2067
#
#
#
# Elastic Compliance Matrix: (Units=1/GPa)
#
#
# Indices 1 2 3 4 5 6 
#
# 1 0.005679 -0.002990 -0.000811 0.000000 0.000876 0.000000
# 2 -0.002990 0.008214 -0.006890 0.000000 0.002651 0.000000
# 3 -0.000811 -0.006890 0.014846 0.000000 -0.006134 0.000000
# 4 0.000000 0.000000 0.000000 0.032989 0.000000 -0.007490
# 5 0.000876 0.002651 -0.006134 0.000000 0.023699 0.000000
# 6 0.000000 0.000000 0.000000 -0.007490 0.000000 0.021618
#
#
# Mechanical properties :
#
#
# Convention : Reuss Voigt Hill
#
# Bulk Modulus (GPa) = 135.91128 191.80118 163.85623
# Shear Modulus (GPa) = 38.20291 47.23514 42.71903
#
# Velocity S-wave (km/s) = 3.78165 4.20500 3.99893
# Velocity P-wave (km/s) = 8.36331 9.76601 9.09175
#
# Compressibility (1/GPa) = 0.00735774
#
# Stress axis : x y z
#
# Youngs Moduli (GPa) = 176.07696 121.73622 67.35906
#
# Poissons Ratio (x) = 0.36403 0.05461
# Poissons Ratio (y) = 0.52653 0.46410
# Poissons Ratio (z) = 0.14275 0.83875
#
# Static dielectric constant tensor:
#      x y z
#    x 8.607050 0.000000 5.074030 
#    y 0.000000 2.010980 0.000000 
#    z 5.074030 0.000000 5.820200 
# 
# From -- ./inp_files/48265.got.cif
#   From: 2010.05.17/outbox.cif.g08.bks.cpg/sg15_25_cif.got.tgz:48265.got - 2010.06.03 18:47:42.
