data_PCOD9306078
_publ_section_title
;
Structure prediction by ZEFSAII (Michael W. Deem and Ramdas Pophale) SiO2 
 PCOD9306078
Probable space group: C 2/C
;
_chemical_formula_sum "Si O2"
_cell_formula_units_Z 48
_cell_length_a 17.370656
_cell_length_b 18.711020
_cell_length_c 20.237587
_cell_angle_alpha 90.000000
_cell_angle_beta 159.225214
_cell_angle_gamma 90.000000
_cell_volume 2333.071999
_symmetry_space_group_name_H-M "C 2/C"
_symmetry_group_IT_number 15
_symmetry_cell_setting 'monoclinic'
loop_
_space_group_symop_operation_xyz
x,y,z
-x,y,1/2-z
-x,-y,-z
x,-y,1/2+z
1/2+x,1/2+y,z
1/2-x,1/2+y,1/2-z
1/2-x,1/2-y,-z
1/2+x,1/2-y,1/2+z
loop_
_atom_site_type_symbol
_atom_site_label
_atom_site_fract_x
_atom_site_fract_y
_atom_site_fract_z
Si Si1 0.659471 0.922680 0.815760
Si Si2 0.416644 0.666310 0.818247
Si Si3 0.442862 0.183979 0.862633
Si Si4 0.159282 0.299266 0.989268
Si Si5 0.791009 0.581312 0.629383
Si Si6 0.562715 0.329798 0.724034
O O1 0.500000 0.931904 0.750000
O O2 0.518613 0.860813 0.666799
O O3 0.703163 0.004255 0.829821
O O4 0.898151 0.892309 0.022537
O O5 0.345153 0.668639 0.684404
O O6 0.202835 0.668506 0.690520
O O7 0.537769 0.739492 0.933827
O O8 0.322108 0.141067 0.708741
O O9 0.466296 0.264034 0.851028
O O10 0.682650 0.154603 0.068422
O O11 0.250000 0.250000 0.000000
O O12 0.582425 0.603904 0.418286
O O13 0.000000 0.585868 0.750000
O O14 0.500000 0.310268 0.750000
#
# Coordination Sequence:
#
# PCOD9306078 Si02
#       6
#     8   8   8   8   8   8
#     4  11  25  44  69  99 137 179 222 281 336 401
#     4  12  25  41  67 104 134 175 224 283 339 399
#     4  12  25  41  69 102 137 174 224 282 337 398
#     4  12  23  42  71 101 133 177 230 277 331 400
#     4  11  25  46  68 100 137 178 226 275 338 403
#     4  12  23  42  71 100 131 180 229 276 326 406
#
# _framework density 20.573734000000002
#
# number of rings (size 3 to 8) (size 9 to 14) (size 15 to 20)
#    0.000    0.333    6.667    2.500    0.000    3.333 
#    0.000    1.667    0.000    0.000    0.000    0.000 
#    0.000    0.000    0.000    0.000    0.000    0.000 
#
# Total GULP energy -133759.161280 kJ/mol
# GULP energy per Si atom -5573.298387 kJ/mol
# Density = 2.052691 g / cm^3
# Si number density = 20.573734 Si / 1000 Ang^3
#
#
#
# Elastic Constant Matrix: (Units=GPa)
#
#
# Indices 1 2 3 4 5 6 
#
# 1 94.6610 14.0352 46.1079 -0.0009 20.6521 -0.0002
# 2 14.0352 92.6866 24.5308 0.0395 -3.6622 0.0239
# 3 46.1079 24.5308 144.0450 0.0913 9.1014 0.0648
# 4 -0.0009 0.0395 0.0913 -17.0234 0.0301 -50.9645
# 5 20.6521 -3.6622 9.1014 0.0301 36.7002 0.0218
# 6 -0.0002 0.0239 0.0648 -50.9645 0.0218 -36.7727
#
#
#
# Elastic Compliance Matrix: (Units=1/GPa)
#
#
# Indices 1 2 3 4 5 6 
#
# 1 0.014221 -0.001417 -0.003857 0.000000 -0.007187 -0.000013
# 2 -0.001417 0.011536 -0.001660 -0.000001 0.002360 0.000008
# 3 -0.003857 -0.001660 0.008465 0.000000 -0.000095 0.000014
# 4 0.000000 -0.000001 0.000000 0.018653 0.000000 -0.025852
# 5 -0.007187 0.002360 -0.000095 0.000000 0.031551 0.000021
# 6 -0.000013 0.000008 0.000014 -0.025852 0.000021 0.008635
#
#
# Mechanical properties :
#
#
# Convention : Reuss Voigt Hill
#
# Bulk Modulus (GPa) = 49.12725 55.63785 52.38255
# Shear Modulus (GPa) = 43.96990 13.02873 28.49932
#
# Velocity S-wave (km/s) = 4.62799 2.51922 3.72590
# Velocity P-wave (km/s) = 7.24487 5.96354 6.63521
#
# Compressibility (1/GPa) = 0.02035530
#
# Stress axis : x y z
#
# Youngs Moduli (GPa) = 70.32082 86.68340 118.12710
#
# Poissons Ratio (x) = 0.12280 0.45556
# Poissons Ratio (y) = 0.09962 0.19612
# Poissons Ratio (z) = 0.27119 0.14392
#
# Static dielectric constant tensor:
#      x y z
#    x 1.841380 -0.000040 0.003880 
#    y -0.000040 1.783150 -0.000020 
#    z 0.003880 -0.000020 1.729100 
# 
# From -- ./inp_files/249738.got.cif
#   From: 2010.05.17/outbox.cif.g08.bks.cpg/sg15_125_cif.got.tgz:249738.got - 2010.06.03 18:47:42.
