data_PCOD9306120
_publ_section_title
;
Structure prediction by ZEFSAII (Michael W. Deem and Ramdas Pophale) SiO2 
 PCOD9306120
Probable space group: C 2/C
;
_chemical_formula_sum "Si O2"
_cell_formula_units_Z 52
_cell_length_a 8.986032
_cell_length_b 11.699278
_cell_length_c 24.729013
_cell_angle_alpha 90.000000
_cell_angle_beta 62.219605
_cell_angle_gamma 90.000000
_cell_volume 2300.115880
_symmetry_space_group_name_H-M "C 2/C"
_symmetry_group_IT_number 15
_symmetry_cell_setting 'monoclinic'
loop_
_space_group_symop_operation_xyz
x,y,z
-x,y,1/2-z
-x,-y,-z
x,-y,1/2+z
1/2+x,1/2+y,z
1/2-x,1/2+y,1/2-z
1/2-x,1/2-y,-z
1/2+x,1/2-y,1/2+z
loop_
_atom_site_type_symbol
_atom_site_label
_atom_site_fract_x
_atom_site_fract_y
_atom_site_fract_z
Si Si1 0.500000 0.718954 0.250000
Si Si2 0.226507 0.479836 0.916917
Si Si3 0.611837 0.105754 0.159710
Si Si4 0.249106 0.468677 0.747279
Si Si5 0.011288 0.855519 0.328564
Si Si6 0.845355 0.476978 0.449595
Si Si7 0.260049 0.214901 0.879710
O O1 0.645882 0.634775 0.245527
O O2 0.578909 0.789929 0.187697
O O3 0.371112 0.548784 0.861985
O O4 0.235956 0.346245 0.900713
O O5 0.043311 0.526725 0.931171
O O6 0.246886 0.492484 0.977951
O O7 0.434551 0.039051 0.195895
O O8 0.729338 0.058342 0.186923
O O9 0.570452 0.237664 0.176562
O O10 0.680062 0.079901 0.088722
O O11 0.347225 0.587999 0.733849
O O12 0.103945 0.824281 0.369286
O O13 0.788783 0.365248 0.426252
#
# Coordination Sequence:
#
# PCOD9306120 Si02
#       7
#     4   8   8   8   8   8   8
#     4  12  24  44  72 102 140 178 230 286 350 412
#     4  11  26  48  70 104 139 186 238 285 349 416
#     4  11  25  46  67 107 139 183 235 278 360 420
#     4  11  25  45  67 101 143 178 225 288 350 413
#     4  12  25  44  71  99 139 181 226 288 340 420
#     4  11  25  47  72  99 145 185 232 296 342 412
#     4  12  25  47  69 103 141 181 234 287 349 419
#
# _framework density 22.607555000000001
#
# number of rings (size 3 to 8) (size 9 to 14) (size 15 to 20)
#    0.000    0.615    6.154    0.462    4.308    2.462 
#    0.000    0.000    0.000    0.000    0.000    0.000 
#    0.000    0.000    0.000    0.000    0.000    0.000 
#
# Total GULP energy -145702.718838 kJ/mol
# GULP energy per Si atom -5603.950725 kJ/mol
# Density = 2.255610 g / cm^3
# Si number density = 22.607555 Si / 1000 Ang^3
#
#
#
# Elastic Constant Matrix: (Units=GPa)
#
#
# Indices 1 2 3 4 5 6 
#
# 1 56.4095 20.9473 5.0904 0.0000 12.2355 0.0000
# 2 20.9473 134.2261 3.0907 0.0000 -8.0576 0.0000
# 3 5.0904 3.0907 80.6005 0.0000 18.9117 0.0000
# 4 0.0000 0.0000 0.0000 29.3413 0.0000 7.1751
# 5 12.2355 -8.0576 18.9117 0.0000 34.2177 0.0000
# 6 0.0000 0.0000 0.0000 7.1751 0.0000 30.4374
#
#
#
# Elastic Compliance Matrix: (Units=1/GPa)
#
#
# Indices 1 2 3 4 5 6 
#
# 1 0.021003 -0.003834 0.000913 0.000000 -0.008918 0.000000
# 2 -0.003834 0.008303 -0.000984 0.000000 0.003870 0.000000
# 3 0.000913 -0.000984 0.014383 0.000000 -0.008508 0.000000
# 4 0.000000 0.000000 0.000000 0.036166 0.000000 -0.008526
# 5 -0.008918 0.003870 -0.008508 0.000000 0.038027 0.000000
# 6 0.000000 0.000000 0.000000 -0.008526 0.000000 0.034864
#
#
# Mechanical properties :
#
#
# Convention : Reuss Voigt Hill
#
# Bulk Modulus (GPa) = 27.87164 36.61031 32.24098
# Shear Modulus (GPa) = 28.98251 34.93980 31.96116
#
# Velocity S-wave (km/s) = 3.58436 3.93554 3.76405
# Velocity P-wave (km/s) = 5.43005 6.07291 5.76046
#
# Compressibility (1/GPa) = 0.03587876
#
# Stress axis : x y z
#
# Youngs Moduli (GPa) = 47.61187 120.43167 69.52579
#
# Poissons Ratio (x) = 0.46175 -0.06347
# Poissons Ratio (y) = 0.18255 0.06844
# Poissons Ratio (z) = -0.04347 0.11855
#
# Static dielectric constant tensor:
#      x y z
#    x 1.829450 0.000000 0.021170 
#    y 0.000000 1.810900 0.000000 
#    z 0.021170 0.000000 1.845640 
# 
# From -- ./inp_files/287895.got.cif
#   From: 2010.05.17/outbox.cif.g08.bks.cpg/sg15_144_cif.got.tgz:287895.got - 2010.06.03 18:47:42.
