data_PCOD9306751
_publ_section_title
;
Structure prediction by ZEFSAII (Michael W. Deem and Ramdas Pophale) SiO2 
 PCOD9306751
Probable space group: C 2/C
;
_chemical_formula_sum "Si O2"
_cell_formula_units_Z 40
_cell_length_a 14.039173
_cell_length_b 19.009161
_cell_length_c 12.942344
_cell_angle_alpha 90.000000
_cell_angle_beta 148.344847
_cell_angle_gamma 90.000000
_cell_volume 1812.657790
_symmetry_space_group_name_H-M "C 2/C"
_symmetry_group_IT_number 15
_symmetry_cell_setting 'monoclinic'
loop_
_space_group_symop_operation_xyz
x,y,z
-x,y,1/2-z
-x,-y,-z
x,-y,1/2+z
1/2+x,1/2+y,z
1/2-x,1/2+y,1/2-z
1/2-x,1/2-y,-z
1/2+x,1/2-y,1/2+z
loop_
_atom_site_type_symbol
_atom_site_label
_atom_site_fract_x
_atom_site_fract_y
_atom_site_fract_z
Si Si1 0.795780 0.311552 0.953845
Si Si2 0.421457 0.942318 0.782724
Si Si3 0.607800 0.092310 0.665456
Si Si4 0.838313 0.181265 0.527539
Si Si5 0.966907 0.814679 0.509928
O O1 0.606086 0.336064 0.729856
O O2 0.750000 0.250000 0.000000
O O3 0.943820 0.375673 0.086971
O O4 0.895001 0.262649 0.963629
O O5 0.500000 0.973428 0.750000
O O6 0.302198 0.879880 0.626243
O O7 0.340572 0.011514 0.762052
O O8 0.543653 0.908701 0.986500
O O9 0.789875 0.137032 0.845898
O O10 0.750000 0.250000 0.500000
O O11 0.928403 0.192448 0.499923
O O12 0.000000 0.155961 0.750000
#
# Coordination Sequence:
#
# PCOD9306751 Si02
#       5
#     8   8   8   8   8
#     4  12  26  45  73 110 147 198 251 317 377 447
#     4  11  26  50  74 105 157 201 248 319 396 461
#     4  11  27  50  74 110 154 200 255 318 388 473
#     4  12  26  45  77 113 149 198 257 319 389 462
#     4  12  25  44  75 108 149 191 256 317 374 452
#
# _framework density 22.067045
#
# number of rings (size 3 to 8) (size 9 to 14) (size 15 to 20)
#    0.000    0.400    4.000    3.600    5.600    0.800 
#    3.600    0.000    0.000    0.000    0.000    0.000 
#    0.000    0.000    0.000    0.000    0.000    0.000 
#
# Total GULP energy -111513.751461 kJ/mol
# GULP energy per Si atom -5575.687573 kJ/mol
# Density = 2.201682 g / cm^3
# Si number density = 22.067045 Si / 1000 Ang^3
#
#
#
# Elastic Constant Matrix: (Units=GPa)
#
#
# Indices 1 2 3 4 5 6 
#
# 1 95.5696 17.4326 52.2006 0.0000 -18.7889 0.0000
# 2 17.4326 129.1956 78.9906 0.0000 -0.4415 0.0000
# 3 52.2006 78.9906 173.8472 0.0000 -11.2877 0.0000
# 4 0.0000 0.0000 0.0000 152.1493 0.0000 -39.8424
# 5 -18.7889 -0.4415 -11.2877 0.0000 36.7328 0.0000
# 6 0.0000 0.0000 0.0000 -39.8424 0.0000 25.1215
#
#
#
# Elastic Compliance Matrix: (Units=1/GPa)
#
#
# Indices 1 2 3 4 5 6 
#
# 1 0.013678 0.000632 -0.004019 0.000000 0.005769 0.000000
# 2 0.000632 0.010817 -0.005179 0.000000 -0.001138 0.000000
# 3 -0.004019 -0.005179 0.009361 0.000000 0.000758 0.000000
# 4 0.000000 0.000000 0.000000 0.011241 0.000000 0.017828
# 5 0.005769 -0.001138 0.000758 0.000000 0.030394 0.000000
# 6 0.000000 0.000000 0.000000 0.017828 0.000000 0.068082
#
#
# Mechanical properties :
#
#
# Convention : Reuss Voigt Hill
#
# Bulk Modulus (GPa) = 59.79538 77.31777 68.55658
# Shear Modulus (GPa) = 30.06967 59.46664 44.76816
#
# Velocity S-wave (km/s) = 3.69541 5.19679 4.50903
# Velocity P-wave (km/s) = 6.73529 8.43342 7.63173
#
# Compressibility (1/GPa) = 0.01672370
#
# Stress axis : x y z
#
# Youngs Moduli (GPa) = 73.11040 92.44456 106.82247
#
# Poissons Ratio (x) = -0.05839 0.42937
# Poissons Ratio (y) = -0.04618 0.55319
# Poissons Ratio (z) = 0.29387 0.47873
#
# Static dielectric constant tensor:
#      x y z
#    x 1.838360 0.000000 0.009640 
#    y 0.000000 1.711740 0.000000 
#    z 0.009640 0.000000 1.902120 
# 
# From -- ./inp_files/155599.got.cif
#   From: 2010.05.17/outbox.cif.g08.bks.cpg/sg15_78_cif.got.tgz:155599.got - 2010.06.03 18:47:42.
