data_PCOD9306926
_publ_section_title
;
Structure prediction by ZEFSAII (Michael W. Deem and Ramdas Pophale) SiO2 
 PCOD9306926
Probable space group: C 2/C
;
_chemical_formula_sum "Si O2"
_cell_formula_units_Z 28
_cell_length_a 16.106886
_cell_length_b 7.622353
_cell_length_c 15.580539
_cell_angle_alpha 90.000000
_cell_angle_beta 32.376087
_cell_angle_gamma 90.000000
_cell_volume 1024.287328
_symmetry_space_group_name_H-M "C 2/C"
_symmetry_group_IT_number 15
_symmetry_cell_setting 'monoclinic'
loop_
_space_group_symop_operation_xyz
x,y,z
-x,y,1/2-z
-x,-y,-z
x,-y,1/2+z
1/2+x,1/2+y,z
1/2-x,1/2+y,1/2-z
1/2-x,1/2-y,-z
1/2+x,1/2-y,1/2+z
loop_
_atom_site_type_symbol
_atom_site_label
_atom_site_fract_x
_atom_site_fract_y
_atom_site_fract_z
Si Si1 0.626660 0.101293 0.797572
Si Si2 0.901426 0.848980 0.531811
Si Si3 0.281057 0.881966 0.549529
Si Si4 0.500000 0.630299 0.750000
O O1 0.595535 0.162650 0.922094
O O2 0.723861 0.271641 0.681087
O O3 0.731569 0.935938 0.683834
O O4 0.463784 0.092272 0.892118
O O5 0.950185 0.813940 0.390980
O O6 0.000000 0.000000 0.500000
O O7 0.250000 0.750000 0.500000
O O8 0.160284 0.034632 0.637622
#
# Coordination Sequence:
#
# PCOD9306926 Si02
#       4
#     8   8   8   4
#     4  12  24  42  74 103 142 182 238 288 354 409
#     4  12  25  46  70 106 143 185 233 296 348 421
#     4  12  19  37  72 106 131 179 250 285 326 414
#     4  12  24  42  74 106 144 180 240 292 350 416
#
# _framework density 27.336079999999999
#
# number of rings (size 3 to 8) (size 9 to 14) (size 15 to 20)
#    0.000    0.000   11.429    0.000    0.000    1.143 
#    0.000    1.429    0.000    1.714    0.000    0.000 
#    0.000    0.000    0.000    0.000    0.000    0.000 
#
# Total GULP energy -78401.650016 kJ/mol
# GULP energy per Si atom -5600.117858 kJ/mol
# Density = 2.727386 g / cm^3
# Si number density = 27.336080 Si / 1000 Ang^3
#
#
#
# Elastic Constant Matrix: (Units=GPa)
#
#
# Indices 1 2 3 4 5 6 
#
# 1 161.2467 55.6507 124.1175 0.0000 -14.1151 0.0000
# 2 55.6507 110.1962 72.2225 0.0000 -7.2917 0.0000
# 3 124.1175 72.2225 202.3739 0.0000 -6.4588 0.0000
# 4 0.0000 0.0000 0.0000 34.8277 0.0000 -1.3728
# 5 -14.1151 -7.2917 -6.4588 0.0000 113.2383 0.0000
# 6 0.0000 0.0000 0.0000 -1.3728 0.0000 37.5374
#
#
#
# Elastic Compliance Matrix: (Units=1/GPa)
#
#
# Indices 1 2 3 4 5 6 
#
# 1 0.012077 -0.001565 -0.006816 0.000000 0.001016 0.000000
# 2 -0.001565 0.012079 -0.003339 0.000000 0.000392 0.000000
# 3 -0.006816 -0.003339 0.010298 0.000000 -0.000477 0.000000
# 4 0.000000 0.000000 0.000000 0.028754 0.000000 0.001052
# 5 0.001016 0.000392 -0.000477 0.000000 0.008956 0.000000
# 6 0.000000 0.000000 0.000000 0.001052 0.000000 0.026679
#
#
# Mechanical properties :
#
#
# Convention : Reuss Voigt Hill
#
# Bulk Modulus (GPa) = 90.78251 108.64426 99.71338
# Shear Modulus (GPa) = 39.69709 51.90907 45.80308
#
# Velocity S-wave (km/s) = 3.81489 4.36239 4.09779
# Velocity P-wave (km/s) = 7.25854 8.07491 7.67758
#
# Compressibility (1/GPa) = 0.01101534
#
# Stress axis : x y z
#
# Youngs Moduli (GPa) = 82.79919 82.78875 97.10504
#
# Poissons Ratio (x) = 0.12953 0.66191
# Poissons Ratio (y) = 0.12955 0.32419
# Poissons Ratio (z) = 0.56439 0.27640
#
# Static dielectric constant tensor:
#      x y z
#    x 2.070560 0.000000 0.083360 
#    y 0.000000 1.951010 0.000000 
#    z 0.083360 0.000000 2.236950 
# 
# From -- ./inp_files/65313.got.cif
#   From: 2010.05.17/outbox.cif.g08.bks.cpg/sg15_33_cif.got.tgz:65313.got - 2010.06.03 18:47:42.
