data_PCOD9306147
_publ_section_title
;
Structure prediction by ZEFSAII (Michael W. Deem and Ramdas Pophale) SiO2 
 PCOD9306147
Probable space group: C 2/C
;
_chemical_formula_sum "Si O2"
_cell_formula_units_Z 44
_cell_length_a 12.419064
_cell_length_b 21.643251
_cell_length_c 8.321000
_cell_angle_alpha 90.000000
_cell_angle_beta 70.596605
_cell_angle_gamma 90.000000
_cell_volume 2109.560791
_symmetry_space_group_name_H-M "C 2/C"
_symmetry_group_IT_number 15
_symmetry_cell_setting 'monoclinic'
loop_
_space_group_symop_operation_xyz
x,y,z
-x,y,1/2-z
-x,-y,-z
x,-y,1/2+z
1/2+x,1/2+y,z
1/2-x,1/2+y,1/2-z
1/2-x,1/2-y,-z
1/2+x,1/2-y,1/2+z
loop_
_atom_site_type_symbol
_atom_site_label
_atom_site_fract_x
_atom_site_fract_y
_atom_site_fract_z
Si Si1 0.306376 0.536471 0.155932
Si Si2 0.055464 0.561751 0.396857
Si Si3 0.867835 0.080086 0.784364
Si Si4 0.847553 0.812742 0.079846
Si Si5 0.000000 0.888565 0.750000
Si Si6 0.908617 0.685917 0.930926
O O1 0.189300 0.550673 0.302548
O O2 0.327581 0.463278 0.158178
O O3 0.410845 0.569936 0.194333
O O4 0.302114 0.560066 0.976364
O O5 0.048155 0.622381 0.511504
O O6 0.000000 0.572522 0.250000
O O7 0.000000 0.500000 0.500000
O O8 0.855333 0.150713 0.742262
O O9 0.000000 0.066941 0.750000
O O10 0.717094 0.819291 0.085418
O O11 0.889509 0.742235 0.064434
O O12 0.928957 0.847178 0.910787
O O13 0.000000 0.704010 0.750000
#
# Coordination Sequence:
#
# PCOD9306147 Si02
#       6
#     8   8   8   8   4   8
#     4  12  25  42  69 106 143 182 232 295 354 419
#     4  12  28  47  70 103 144 188 237 288 352 430
#     4  12  24  40  67 103 140 178 225 292 355 413
#     4  11  25  45  71 102 139 185 239 292 357 429
#     4  12  20  46  72 102 146 180 236 296 360 410
#     4  11  26  47  72 101 139 190 236 291 354 429
#
# _framework density 20.857424000000002
#
# number of rings (size 3 to 8) (size 9 to 14) (size 15 to 20)
#    0.000    0.364    5.455    3.273    7.636    0.727 
#    0.000    0.909    0.000    0.000    0.000    0.000 
#    0.000    0.000    0.000    0.000    0.000    0.000 
#
# Total GULP energy -123114.392986 kJ/mol
# GULP energy per Si atom -5596.108772 kJ/mol
# Density = 2.080995 g / cm^3
# Si number density = 20.857424 Si / 1000 Ang^3
#
#
#
# Elastic Constant Matrix: (Units=GPa)
#
#
# Indices 1 2 3 4 5 6 
#
# 1 86.1189 30.4816 28.9154 0.0000 -17.3700 0.0000
# 2 30.4816 141.8095 48.6529 0.0000 6.8585 0.0000
# 3 28.9154 48.6529 99.8234 0.0000 -5.9486 0.0000
# 4 0.0000 0.0000 0.0000 28.5323 0.0000 0.3712
# 5 -17.3700 6.8585 -5.9486 0.0000 33.3702 0.0000
# 6 0.0000 0.0000 0.0000 0.3712 0.0000 25.4269
#
#
#
# Elastic Compliance Matrix: (Units=1/GPa)
#
#
# Indices 1 2 3 4 5 6 
#
# 1 0.015039 -0.002743 -0.002546 0.000000 0.007938 0.000000
# 2 -0.002743 0.009180 -0.003919 0.000000 -0.004013 0.000000
# 3 -0.002546 -0.003919 0.012770 0.000000 0.001756 0.000000
# 4 0.000000 0.000000 0.000000 0.035055 0.000000 -0.000512
# 5 0.007938 -0.004013 0.001756 0.000000 0.035237 0.000000
# 6 0.000000 0.000000 0.000000 -0.000512 0.000000 0.039336
#
#
# Mechanical properties :
#
#
# Convention : Reuss Voigt Hill
#
# Bulk Modulus (GPa) = 53.84297 60.42795 57.13546
# Shear Modulus (GPa) = 29.20180 32.11267 30.65723
#
# Velocity S-wave (km/s) = 3.74581 3.92807 3.83802
# Velocity P-wave (km/s) = 6.67674 7.04328 6.86246
#
# Compressibility (1/GPa) = 0.01857253
#
# Stress axis : x y z
#
# Youngs Moduli (GPa) = 66.49529 108.93433 78.30896
#
# Poissons Ratio (x) = 0.29879 0.19940
# Poissons Ratio (y) = 0.18238 0.30688
# Poissons Ratio (z) = 0.16932 0.42689
#
# Static dielectric constant tensor:
#      x y z
#    x 1.728920 0.000000 0.009200 
#    y 0.000000 1.777830 0.000000 
#    z 0.009200 0.000000 1.755010 
# 
# From -- ./inp_files/30751.got.cif
#   From: 2010.05.17/outbox.cif.g08.bks.cpg/sg15_16_cif.got.tgz:30751.got - 2010.06.03 18:47:42.
