data_PCOD9306711
_publ_section_title
;
Structure prediction by ZEFSAII (Michael W. Deem and Ramdas Pophale) SiO2 
 PCOD9306711
Probable space group: C 2/C
;
_chemical_formula_sum "Si O2"
_cell_formula_units_Z 44
_cell_length_a 10.537318
_cell_length_b 13.159695
_cell_length_c 12.203948
_cell_angle_alpha 90.000000
_cell_angle_beta 90.397863
_cell_angle_gamma 90.000000
_cell_volume 1692.254930
_symmetry_space_group_name_H-M "C 2/C"
_symmetry_group_IT_number 15
_symmetry_cell_setting 'monoclinic'
loop_
_space_group_symop_operation_xyz
x,y,z
-x,y,1/2-z
-x,-y,-z
x,-y,1/2+z
1/2+x,1/2+y,z
1/2-x,1/2+y,1/2-z
1/2-x,1/2-y,-z
1/2+x,1/2-y,1/2+z
loop_
_atom_site_type_symbol
_atom_site_label
_atom_site_fract_x
_atom_site_fract_y
_atom_site_fract_z
Si Si1 0.290977 0.437757 0.992504
Si Si2 0.819936 0.637918 0.232871
Si Si3 0.575751 0.637362 0.533428
Si Si4 0.444653 0.961855 0.384536
Si Si5 0.897965 0.271054 0.161270
Si Si6 0.000000 0.799627 0.250000
O O1 0.246756 0.415662 0.869284
O O2 0.320908 0.557094 0.007689
O O3 0.430757 0.392971 0.008164
O O4 0.184530 0.402141 0.079271
O O5 0.890053 0.554895 0.310509
O O6 0.727329 0.713522 0.298392
O O7 0.916624 0.720034 0.181192
O O8 0.593377 0.738858 0.465130
O O9 0.580278 0.637479 0.664685
O O10 0.559485 0.889412 0.341685
O O11 0.500000 0.000000 0.500000
O O12 0.000000 0.227533 0.250000
#
# Coordination Sequence:
#
# PCOD9306711 Si02
#       6
#     8   8   8   8   8   4
#     4  11  26  48  77 110 157 206 268 327 413 483
#     4  12  27  51  76 116 161 206 266 339 402 492
#     4  11  26  49  77 112 152 210 264 333 406 484
#     4  12  29  47  78 113 159 208 265 333 405 484
#     4  12  27  48  81 117 157 208 270 333 404 486
#     4  12  30  46  76 112 156 208 270 326 410 482
#
# _framework density 26.000810000000001
#
# number of rings (size 3 to 8) (size 9 to 14) (size 15 to 20)
#    0.000    0.364    3.636    3.273   11.455    2.909 
#    0.000    0.000    0.000    0.000    0.000    0.000 
#    0.000    0.000    0.000    0.000    0.000    0.000 
#
# Total GULP energy -122855.917065 kJ/mol
# GULP energy per Si atom -5584.359867 kJ/mol
# Density = 2.594163 g / cm^3
# Si number density = 26.000810 Si / 1000 Ang^3
#
#
#
# Elastic Constant Matrix: (Units=GPa)
#
#
# Indices 1 2 3 4 5 6 
#
# 1 121.8467 50.3975 20.7218 0.0000 -9.3658 0.0000
# 2 50.3975 112.3511 32.2909 0.0000 -5.6862 0.0000
# 3 20.7218 32.2909 95.1278 0.0000 5.8428 0.0000
# 4 0.0000 0.0000 0.0000 40.4977 0.0000 -4.4597
# 5 -9.3658 -5.6862 5.8428 0.0000 53.5795 0.0000
# 6 0.0000 0.0000 0.0000 -4.4597 0.0000 42.5281
#
#
#
# Elastic Compliance Matrix: (Units=1/GPa)
#
#
# Indices 1 2 3 4 5 6 
#
# 1 0.010229 -0.004267 -0.000868 0.000000 0.001430 0.000000
# 2 -0.004267 0.011751 -0.003111 0.000000 0.000841 0.000000
# 3 -0.000868 -0.003111 0.011866 0.000000 -0.001776 0.000000
# 4 0.000000 0.000000 0.000000 0.024981 0.000000 0.002620
# 5 0.001430 0.000841 -0.001776 0.000000 0.019197 0.000000
# 6 0.000000 0.000000 0.000000 0.002620 0.000000 0.023789
#
#
# Mechanical properties :
#
#
# Convention : Reuss Voigt Hill
#
# Bulk Modulus (GPa) = 57.61818 59.57176 58.59497
# Shear Modulus (GPa) = 40.29331 42.38210 41.33770
#
# Velocity S-wave (km/s) = 3.94089 4.04174 3.99163
# Velocity P-wave (km/s) = 6.55101 6.68896 6.62034
#
# Compressibility (1/GPa) = 0.01735563
#
# Stress axis : x y z
#
# Youngs Moduli (GPa) = 97.75812 85.09653 84.27199
#
# Poissons Ratio (x) = 0.36309 0.07313
# Poissons Ratio (y) = 0.41712 0.26218
# Poissons Ratio (z) = 0.08483 0.26475
#
# Static dielectric constant tensor:
#      x y z
#    x 2.132250 0.000000 -0.007350 
#    y 0.000000 2.027270 0.000000 
#    z -0.007350 0.000000 2.038920 
# 
# From -- ./inp_files/86163.got.cif
#   From: 2010.05.17/outbox.cif.g08.bks.cpg/sg15_44_cif.got.tgz:86163.got - 2010.06.03 18:47:42.
