data_PCOD9306945
_publ_section_title
;
Structure prediction by ZEFSAII (Michael W. Deem and Ramdas Pophale) SiO2 
 PCOD9306945
Probable space group: C 2/C
;
_chemical_formula_sum "Si O2"
_cell_formula_units_Z 40
_cell_length_a 4.885987
_cell_length_b 19.567425
_cell_length_c 20.123085
_cell_angle_alpha 90.000000
_cell_angle_beta 97.347703
_cell_angle_gamma 90.000000
_cell_volume 1908.092967
_symmetry_space_group_name_H-M "C 2/C"
_symmetry_group_IT_number 15
_symmetry_cell_setting 'monoclinic'
loop_
_space_group_symop_operation_xyz
x,y,z
-x,y,1/2-z
-x,-y,-z
x,-y,1/2+z
1/2+x,1/2+y,z
1/2-x,1/2+y,1/2-z
1/2-x,1/2-y,-z
1/2+x,1/2-y,1/2+z
loop_
_atom_site_type_symbol
_atom_site_label
_atom_site_fract_x
_atom_site_fract_y
_atom_site_fract_z
Si Si1 0.666029 0.433238 0.022940
Si Si2 0.198475 0.406316 0.101596
Si Si3 0.031669 0.256951 0.053029
Si Si4 0.947888 0.119513 0.382554
Si Si5 0.089322 0.540317 0.176653
O O1 0.987306 0.440773 0.043158
O O2 0.510189 0.406027 0.084044
O O3 0.500000 0.500000 0.000000
O O4 0.605892 0.388773 0.957167
O O5 0.080689 0.329324 0.092592
O O6 0.164868 0.461609 0.159757
O O7 0.090665 0.200635 0.112698
O O8 0.750000 0.250000 0.000000
O O9 0.250000 0.250000 0.000000
O O10 0.149038 0.087604 0.333539
O O11 0.668927 0.074544 0.370995
O O12 0.000000 0.543517 0.250000
#
# Coordination Sequence:
#
# PCOD9306945 Si02
#       5
#     8   8   8   8   8
#     4  12  20  33  63  97 120 150 193 259 323 360
#     4  12  22  38  61  92 128 153 197 252 310 372
#     4  12  23  37  61 100 132 152 186 251 336 387
#     4  12  23  40  64  93 129 155 201 261 310 369
#     4  12  26  43  62  85 120 175 222 248 282 354
#
# _framework density 20.963341
#
# number of rings (size 3 to 8) (size 9 to 14) (size 15 to 20)
#    0.000    0.000    8.000    3.600    0.000    0.000 
#    0.000    2.000    0.000    0.000    0.000    0.000 
#    0.000    0.000    0.000    0.000    0.000    0.000 
#
# Total GULP energy -111401.826704 kJ/mol
# GULP energy per Si atom -5570.091335 kJ/mol
# Density = 2.091563 g / cm^3
# Si number density = 20.963341 Si / 1000 Ang^3
#
#
#
# Elastic Constant Matrix: (Units=GPa)
#
#
# Indices 1 2 3 4 5 6 
#
# 1 113.9086 10.7482 23.9544 0.0000 -29.9098 0.0000
# 2 10.7482 166.1743 52.2528 0.0000 -30.5091 0.0000
# 3 23.9544 52.2528 74.1728 0.0000 -22.1401 0.0000
# 4 0.0000 0.0000 0.0000 10.7715 0.0000 0.3335
# 5 -29.9098 -30.5091 -22.1401 0.0000 28.4562 0.0000
# 6 0.0000 0.0000 0.0000 0.3335 0.0000 21.9927
#
#
#
# Elastic Compliance Matrix: (Units=1/GPa)
#
#
# Indices 1 2 3 4 5 6 
#
# 1 0.012735 0.002314 -0.001312 0.000000 0.014846 0.000000
# 2 0.002314 0.008811 -0.004440 0.000000 0.008425 0.000000
# 3 -0.001312 -0.004440 0.019799 0.000000 0.009266 0.000000
# 4 0.000000 0.000000 0.000000 0.092881 0.000000 -0.001408
# 5 0.014846 0.008425 0.009266 0.000000 0.066988 0.000000
# 6 0.000000 0.000000 0.000000 -0.001408 0.000000 0.045491
#
#
# Mechanical properties :
#
#
# Convention : Reuss Voigt Hill
#
# Bulk Modulus (GPa) = 29.01019 58.68516 43.84768
# Shear Modulus (GPa) = 18.86302 30.06411 24.46356
#
# Velocity S-wave (km/s) = 3.00294 3.79110 3.41980
# Velocity P-wave (km/s) = 5.08843 6.87155 6.04608
#
# Compressibility (1/GPa) = 0.03447064
#
# Stress axis : x y z
#
# Youngs Moduli (GPa) = 78.52594 113.49535 50.50729
#
# Poissons Ratio (x) = -0.26268 0.06625
# Poissons Ratio (y) = -0.18175 0.22424
# Poissons Ratio (z) = 0.10301 0.50389
#
# Static dielectric constant tensor:
#      x y z
#    x 1.778530 0.000000 0.006810 
#    y 0.000000 2.311580 0.000000 
#    z 0.006810 0.000000 1.813460 
# 
# From -- ./inp_files/184662.got.cif
#   From: 2010.05.17/outbox.cif.g08.bks.cpg/sg15_93_cif.got.tgz:184662.got - 2010.06.03 18:47:42.
