data_PCOD9306746
_publ_section_title
;
Structure prediction by ZEFSAII (Michael W. Deem and Ramdas Pophale) SiO2 
 PCOD9306746
Probable space group: C 2/C
;
_chemical_formula_sum "Si O2"
_cell_formula_units_Z 48
_cell_length_a 8.572725
_cell_length_b 10.821567
_cell_length_c 23.191760
_cell_angle_alpha 90.000000
_cell_angle_beta 70.768275
_cell_angle_gamma 90.000000
_cell_volume 2031.440232
_symmetry_space_group_name_H-M "C 2/C"
_symmetry_group_IT_number 15
_symmetry_cell_setting 'monoclinic'
loop_
_space_group_symop_operation_xyz
x,y,z
-x,y,1/2-z
-x,-y,-z
x,-y,1/2+z
1/2+x,1/2+y,z
1/2-x,1/2+y,1/2-z
1/2-x,1/2-y,-z
1/2+x,1/2-y,1/2+z
loop_
_atom_site_type_symbol
_atom_site_label
_atom_site_fract_x
_atom_site_fract_y
_atom_site_fract_z
Si Si1 0.811138 0.112995 0.793284
Si Si2 0.304522 0.111447 0.262345
Si Si3 0.840033 0.971086 0.414483
Si Si4 0.736798 0.772745 0.932446
Si Si5 0.706391 0.480940 0.389247
Si Si6 0.865778 0.637294 0.468248
O O1 0.748548 0.243507 0.772921
O O2 0.817428 0.116315 0.862199
O O3 0.000000 0.099151 0.750000
O O4 0.722203 0.983514 0.787484
O O5 0.500000 0.118562 0.250000
O O6 0.220695 0.033170 0.323769
O O7 0.682411 0.957540 0.475112
O O8 0.013577 0.954057 0.425961
O O9 0.848121 0.114797 0.397932
O O10 0.787780 0.650601 0.892124
O O11 0.550287 0.814942 0.941492
O O12 0.750000 0.750000 0.000000
O O13 0.795836 0.578119 0.419036
O O14 0.750000 0.750000 0.500000
#
# Coordination Sequence:
#
# PCOD9306746 Si02
#       6
#     8   8   8   8   8   8
#     4  11  26  50  71 103 140 188 242 297 359 424
#     4  11  28  46  76 103 142 189 242 298 362 428
#     4  12  25  45  73 101 145 190 238 297 356 432
#     4  12  27  44  71 108 146 187 241 288 362 437
#     4  12  26  47  69 106 144 185 239 298 358 426
#     4  12  24  44  72 101 147 188 229 296 362 423
#
# _framework density 23.628557000000001
#
# number of rings (size 3 to 8) (size 9 to 14) (size 15 to 20)
#    0.000    0.333    5.000    3.000    4.667    2.000 
#    0.000    0.000    0.000    0.000    0.000    0.000 
#    0.000    0.000    0.000    0.000    0.000    0.000 
#
# Total GULP energy -134160.190769 kJ/mol
# GULP energy per Si atom -5590.007949 kJ/mol
# Density = 2.357478 g / cm^3
# Si number density = 23.628557 Si / 1000 Ang^3
#
#
#
# Elastic Constant Matrix: (Units=GPa)
#
#
# Indices 1 2 3 4 5 6 
#
# 1 65.3758 20.0197 6.3916 0.0000 12.1293 0.0000
# 2 20.0197 161.1372 -18.9240 0.0000 22.6266 0.0000
# 3 6.3916 -18.9240 54.0346 0.0000 13.7144 0.0000
# 4 0.0000 0.0000 0.0000 35.5369 0.0000 4.2206
# 5 12.1293 22.6266 13.7144 0.0000 30.0647 0.0000
# 6 0.0000 0.0000 0.0000 4.2206 0.0000 34.4692
#
#
#
# Elastic Compliance Matrix: (Units=1/GPa)
#
#
# Indices 1 2 3 4 5 6 
#
# 1 0.016825 -0.001522 -0.001234 0.000000 -0.005080 0.000000
# 2 -0.001522 0.008061 0.004962 0.000000 -0.007716 0.000000
# 3 -0.001234 0.004962 0.023989 0.000000 -0.014179 0.000000
# 4 0.000000 0.000000 0.000000 0.028555 0.000000 -0.003496
# 5 -0.005080 -0.007716 -0.014179 0.000000 0.047586 0.000000
# 6 0.000000 0.000000 0.000000 -0.003496 0.000000 0.029440
#
#
# Mechanical properties :
#
#
# Convention : Reuss Voigt Hill
#
# Bulk Modulus (GPa) = 18.76644 32.83580 25.80112
# Shear Modulus (GPa) = 29.79609 38.21817 34.00713
#
# Velocity S-wave (km/s) = 3.55494 4.02612 3.79785
# Velocity P-wave (km/s) = 4.98093 5.96152 5.49315
#
# Compressibility (1/GPa) = 0.05328662
#
# Stress axis : x y z
#
# Youngs Moduli (GPa) = 59.43422 124.05161 41.68565
#
# Poissons Ratio (x) = 0.18881 0.05144
# Poissons Ratio (y) = 0.09046 -0.20683
# Poissons Ratio (z) = 0.07334 -0.61550
#
# Static dielectric constant tensor:
#      x y z
#    x 2.384670 0.000000 -0.182850 
#    y 0.000000 2.103380 0.000000 
#    z -0.182850 0.000000 2.112510 
# 
# From -- ./inp_files/263246.got.cif
#   From: 2010.05.17/outbox.cif.g08.bks.cpg/sg15_132_cif.got.tgz:263246.got - 2010.06.03 18:47:42.
