data_PCOD9306257
_publ_section_title
;
Structure prediction by ZEFSAII (Michael W. Deem and Ramdas Pophale) SiO2 
 PCOD9306257
Probable space group: C 2/C
;
_chemical_formula_sum "Si O2"
_cell_formula_units_Z 56
_cell_length_a 17.208313
_cell_length_b 6.052057
_cell_length_c 26.214568
_cell_angle_alpha 90.000000
_cell_angle_beta 120.065070
_cell_angle_gamma 90.000000
_cell_volume 2362.813850
_symmetry_space_group_name_H-M "C 2/C"
_symmetry_group_IT_number 15
_symmetry_cell_setting 'monoclinic'
loop_
_space_group_symop_operation_xyz
x,y,z
-x,y,1/2-z
-x,-y,-z
x,-y,1/2+z
1/2+x,1/2+y,z
1/2-x,1/2+y,1/2-z
1/2-x,1/2-y,-z
1/2+x,1/2-y,1/2+z
loop_
_atom_site_type_symbol
_atom_site_label
_atom_site_fract_x
_atom_site_fract_y
_atom_site_fract_z
Si Si1 0.959433 0.812811 0.524534
Si Si2 0.435484 0.554779 0.134591
Si Si3 0.108003 0.187702 0.734175
Si Si4 0.747664 0.163400 0.194948
Si Si5 0.368762 0.956269 0.171573
Si Si6 0.126667 0.472830 0.070428
Si Si7 0.272879 0.750835 0.566170
O O1 0.944684 0.896786 0.577089
O O2 0.879279 0.686158 0.468483
O O3 0.029796 0.611555 0.554307
O O4 0.000000 0.000000 0.500000
O O5 0.514566 0.384000 0.176813
O O6 0.335527 0.452529 0.104812
O O7 0.435769 0.763758 0.173650
O O8 0.183128 0.290826 0.721222
O O9 0.097125 0.350070 0.779140
O O10 0.159088 0.960863 0.764181
O O11 0.781877 0.371185 0.174180
O O12 0.685462 0.019749 0.138515
O O13 0.329959 0.047008 0.105534
O O14 0.176473 0.271724 0.059753
O O15 0.250000 0.750000 0.500000
#
# Coordination Sequence:
#
# PCOD9306257 Si02
#       7
#     8   8   8   8   8   8   8
#     4  11  26  46  77 110 157 203 249 329 382 472
#     4  12  29  48  77 120 155 207 263 324 405 466
#     4  12  28  49  80 115 152 207 270 326 399 469
#     4  12  26  47  78 113 146 206 264 321 391 474
#     4  12  27  51  77 106 159 203 250 334 383 474
#     4  11  25  46  71 113 146 196 266 300 392 472
#     4  12  27  46  75 111 155 203 255 316 393 471
#
# _framework density 23.700555000000001
#
# number of rings (size 3 to 8) (size 9 to 14) (size 15 to 20)
#    0.000    0.286    4.286    2.571    8.000    9.143 
#    0.000    0.000    0.000    0.000    0.000    0.000 
#    0.000    0.000    0.000    0.000    0.000    0.000 
#
# Total GULP energy -156479.937162 kJ/mol
# GULP energy per Si atom -5588.569184 kJ/mol
# Density = 2.364661 g / cm^3
# Si number density = 23.700555 Si / 1000 Ang^3
#
#
#
# Elastic Constant Matrix: (Units=GPa)
#
#
# Indices 1 2 3 4 5 6 
#
# 1 82.7658 18.2249 30.9373 0.0000 -6.8167 0.0000
# 2 18.2249 49.9518 13.2090 0.0000 -10.2786 0.0000
# 3 30.9373 13.2090 93.8287 0.0000 -16.1125 0.0000
# 4 0.0000 0.0000 0.0000 41.0132 0.0000 -5.7193
# 5 -6.8167 -10.2786 -16.1125 0.0000 42.5834 0.0000
# 6 0.0000 0.0000 0.0000 -5.7193 0.0000 38.6511
#
#
#
# Elastic Compliance Matrix: (Units=1/GPa)
#
#
# Indices 1 2 3 4 5 6 
#
# 1 0.014588 -0.004258 -0.004263 0.000000 -0.000306 0.000000
# 2 -0.004258 0.022757 -0.001041 0.000000 0.004417 0.000000
# 3 -0.004263 -0.001041 0.012887 0.000000 0.003942 0.000000
# 4 0.000000 0.000000 0.000000 0.024896 0.000000 0.003684
# 5 -0.000306 0.004417 0.003942 0.000000 0.025992 0.000000
# 6 0.000000 0.000000 0.000000 0.003684 0.000000 0.026418
#
#
# Mechanical properties :
#
#
# Convention : Reuss Voigt Hill
#
# Bulk Modulus (GPa) = 32.14638 39.03207 35.58923
# Shear Modulus (GPa) = 31.84060 35.39456 33.61758
#
# Velocity S-wave (km/s) = 3.66929 3.86865 3.77029
# Velocity P-wave (km/s) = 5.61646 6.03820 5.83115
#
# Compressibility (1/GPa) = 0.03110770
#
# Stress axis : x y z
#
# Youngs Moduli (GPa) = 68.54827 43.94221 77.59813
#
# Poissons Ratio (x) = 0.18711 0.33081
# Poissons Ratio (y) = 0.29188 0.08079
# Poissons Ratio (z) = 0.29223 0.04575
#
# Static dielectric constant tensor:
#      x y z
#    x 1.790040 0.000000 0.020810 
#    y 0.000000 1.957930 0.000000 
#    z 0.020810 0.000000 1.827730 
# 
# From -- ./inp_files/297794.got.cif
#   From: 2010.05.17/outbox.cif.g08.bks.cpg/sg15_149_cif.got.tgz:297794.got - 2010.06.03 18:47:42.
