data_PCOD9306767
_publ_section_title
;
Structure prediction by ZEFSAII (Michael W. Deem and Ramdas Pophale) SiO2 
 PCOD9306767
Probable space group: C 2/C
;
_chemical_formula_sum "Si O2"
_cell_formula_units_Z 24
_cell_length_a 14.121250
_cell_length_b 5.056083
_cell_length_c 21.850959
_cell_angle_alpha 90.000000
_cell_angle_beta 37.451872
_cell_angle_gamma 90.000000
_cell_volume 948.700503
_symmetry_space_group_name_H-M "C 2/C"
_symmetry_group_IT_number 15
_symmetry_cell_setting 'monoclinic'
loop_
_space_group_symop_operation_xyz
x,y,z
-x,y,1/2-z
-x,-y,-z
x,-y,1/2+z
1/2+x,1/2+y,z
1/2-x,1/2+y,1/2-z
1/2-x,1/2-y,-z
1/2+x,1/2-y,1/2+z
loop_
_atom_site_type_symbol
_atom_site_label
_atom_site_fract_x
_atom_site_fract_y
_atom_site_fract_z
Si Si1 0.934420 0.188885 0.840654
Si Si2 0.143702 0.148970 0.297263
Si Si3 0.914109 0.482740 0.478263
O O1 0.942939 0.345560 0.900924
O O2 0.000000 0.358054 0.750000
O O3 0.765737 0.056042 0.920178
O O4 0.066641 0.965285 0.776750
O O5 0.245209 0.412198 0.236816
O O6 0.991640 0.206416 0.416987
O O7 0.000000 0.500000 0.500000
#
# Coordination Sequence:
#
# PCOD9306767 Si02
#       3
#     8   8   8
#     4  11  26  50  80 123 165 219 277 341 410 492
#     4  12  25  50  80 117 162 217 266 334 408 485
#     4  11  26  50  84 121 165 217 276 341 411 493
#
# _framework density 25.297761999999999
#
# number of rings (size 3 to 8) (size 9 to 14) (size 15 to 20)
#    0.000    0.667    3.333    3.000    0.000    2.667 
#    6.000    0.000    0.000    0.000    0.000    0.000 
#    0.000    0.000    0.000    0.000    0.000    0.000 
#
# Total GULP energy -66821.437147 kJ/mol
# GULP energy per Si atom -5568.453096 kJ/mol
# Density = 2.524018 g / cm^3
# Si number density = 25.297762 Si / 1000 Ang^3
#
#
#
# Elastic Constant Matrix: (Units=GPa)
#
#
# Indices 1 2 3 4 5 6 
#
# 1 215.4337 62.8597 87.1894 0.0018 -14.3413 0.0013
# 2 62.8597 111.3220 49.1567 0.0110 2.4091 0.0004
# 3 87.1894 49.1567 195.8957 -0.0008 6.2788 0.0006
# 4 0.0018 0.0110 -0.0008 63.7668 -0.0011 -31.3846
# 5 -14.3413 2.4091 6.2788 -0.0011 58.1228 0.0010
# 6 0.0013 0.0004 0.0006 -31.3846 0.0010 61.4947
#
#
#
# Elastic Compliance Matrix: (Units=1/GPa)
#
#
# Indices 1 2 3 4 5 6 
#
# 1 0.006477 -0.002698 -0.002269 0.000000 0.001955 0.000000
# 2 -0.002698 0.011227 -0.001586 -0.000003 -0.000960 -0.000001
# 3 -0.002269 -0.001586 0.006551 0.000001 -0.001202 0.000000
# 4 0.000000 -0.000003 0.000001 0.020943 0.000000 0.010688
# 5 0.001955 -0.000960 -0.001202 0.000000 0.017857 0.000000
# 6 0.000000 -0.000001 0.000000 0.010688 0.000000 0.021717
#
#
# Mechanical properties :
#
#
# Convention : Reuss Voigt Hill
#
# Bulk Modulus (GPa) = 89.67864 102.34032 96.00948
# Shear Modulus (GPa) = 49.21572 58.23990 53.72781
#
# Velocity S-wave (km/s) = 4.41552 4.80330 4.61349
# Velocity P-wave (km/s) = 7.84359 8.44420 8.14943
#
# Compressibility (1/GPa) = 0.01115093
#
# Stress axis : x y z
#
# Youngs Moduli (GPa) = 154.38467 89.06743 152.65149
#
# Poissons Ratio (x) = 0.24031 0.34630
# Poissons Ratio (y) = 0.41655 0.24206
# Poissons Ratio (z) = 0.35023 0.14123
#
# Static dielectric constant tensor:
#      x y z
#    x 2.162400 0.000000 0.181380 
#    y 0.000000 2.143620 0.000000 
#    z 0.181380 0.000000 2.200110 
# 
# From -- ./inp_files/149406.got.cif
#   From: 2010.05.17/outbox.cif.g08.bks.cpg/sg15_75_cif.got.tgz:149406.got - 2010.06.03 18:47:42.
