data_PCOD9306002
_publ_section_title
;
Structure prediction by ZEFSAII (Michael W. Deem and Ramdas Pophale) SiO2 
 PCOD9306002
Probable space group: C 2/C
;
_chemical_formula_sum "Si O2"
_cell_formula_units_Z 44
_cell_length_a 13.497326
_cell_length_b 18.974014
_cell_length_c 8.862202
_cell_angle_alpha 90.000000
_cell_angle_beta 66.725460
_cell_angle_gamma 90.000000
_cell_volume 2084.901143
_symmetry_space_group_name_H-M "C 2/C"
_symmetry_group_IT_number 15
_symmetry_cell_setting 'monoclinic'
loop_
_space_group_symop_operation_xyz
x,y,z
-x,y,1/2-z
-x,-y,-z
x,-y,1/2+z
1/2+x,1/2+y,z
1/2-x,1/2+y,1/2-z
1/2-x,1/2-y,-z
1/2+x,1/2-y,1/2+z
loop_
_atom_site_type_symbol
_atom_site_label
_atom_site_fract_x
_atom_site_fract_y
_atom_site_fract_z
Si Si1 0.500000 0.205047 0.750000
Si Si2 0.563744 0.695087 0.486578
Si Si3 0.242732 0.856810 0.691810
Si Si4 0.701714 0.888272 0.153369
Si Si5 0.333597 0.291363 0.261023
Si Si6 0.581937 0.971034 0.823758
O O1 0.462333 0.250435 0.631121
O O2 0.399859 0.155912 0.845892
O O3 0.637425 0.636594 0.360968
O O4 0.635996 0.723115 0.583169
O O5 0.446409 0.680430 0.624534
O O6 0.215221 0.873341 0.533591
O O7 0.289362 0.778425 0.701927
O O8 0.335309 0.912209 0.674536
O O9 0.747622 0.852629 0.277278
O O10 0.654794 0.965249 0.213651
O O11 0.500000 0.940829 0.750000
O O12 0.500000 0.000000 0.000000
#
# Coordination Sequence:
#
# PCOD9306002 Si02
#       6
#     4   8   8   8   8   8
#     4  12  20  40  68  98 138 172 226 276 340 400
#     4  11  25  40  66 104 135 178 228 288 339 402
#     4  12  24  42  67 100 136 181 226 283 341 409
#     4  12  24  44  68 101 140 184 224 281 345 412
#     4  11  25  43  68 104 137 179 233 287 343 406
#     4  12  27  44  68 103 140 181 226 283 348 409
#
# _framework density 21.104116999999999
#
# number of rings (size 3 to 8) (size 9 to 14) (size 15 to 20)
#    0.000    0.364    6.364    2.182    5.091    0.000 
#    0.000    0.909    0.000    2.182    0.000    0.000 
#    0.000    0.000    0.000    0.000    0.000    0.000 
#
# Total GULP energy -122819.164714 kJ/mol
# GULP energy per Si atom -5582.689305 kJ/mol
# Density = 2.105608 g / cm^3
# Si number density = 21.104117 Si / 1000 Ang^3
#
#
#
# Elastic Constant Matrix: (Units=GPa)
#
#
# Indices 1 2 3 4 5 6 
#
# 1 109.9858 33.8968 21.4490 0.0000 11.1236 0.0000
# 2 33.8968 67.9803 10.8300 0.0000 4.2102 0.0000
# 3 21.4490 10.8300 97.8829 0.0000 -3.1980 0.0000
# 4 0.0000 0.0000 0.0000 17.2905 0.0000 -3.8466
# 5 11.1236 4.2102 -3.1980 0.0000 46.0224 0.0000
# 6 0.0000 0.0000 0.0000 -3.8466 0.0000 43.5182
#
#
#
# Elastic Compliance Matrix: (Units=1/GPa)
#
#
# Indices 1 2 3 4 5 6 
#
# 1 0.011318 -0.005179 -0.001986 0.000000 -0.002400 0.000000
# 2 -0.005179 0.017446 -0.000809 0.000000 -0.000401 0.000000
# 3 -0.001986 -0.000809 0.010783 0.000000 0.001303 0.000000
# 4 0.000000 0.000000 0.000000 0.058995 0.000000 0.005215
# 5 -0.002400 -0.000401 0.001303 0.000000 0.022436 0.000000
# 6 0.000000 0.000000 0.000000 0.005215 0.000000 0.023440
#
#
# Mechanical properties :
#
#
# Convention : Reuss Voigt Hill
#
# Bulk Modulus (GPa) = 42.36921 45.35562 43.86242
# Shear Modulus (GPa) = 29.72105 35.34442 32.53274
#
# Velocity S-wave (km/s) = 3.75681 4.09683 3.93050
# Velocity P-wave (km/s) = 6.24004 6.62697 6.43641
#
# Compressibility (1/GPa) = 0.02360204
#
# Stress axis : x y z
#
# Youngs Moduli (GPa) = 88.35498 57.32005 92.73495
#
# Poissons Ratio (x) = 0.29683 0.18413
# Poissons Ratio (y) = 0.45755 0.07498
# Poissons Ratio (z) = 0.17543 0.04635
#
# Static dielectric constant tensor:
#      x y z
#    x 1.746360 0.000000 0.027760 
#    y 0.000000 1.715760 0.000000 
#    z 0.027760 0.000000 1.995170 
# 
# From -- ./inp_files/39051.got.cif
#   From: 2010.05.17/outbox.cif.g08.bks.cpg/sg15_20_cif.got.tgz:39051.got - 2010.06.03 18:47:42.
