data_PCOD9306279
_publ_section_title
;
Structure prediction by ZEFSAII (Michael W. Deem and Ramdas Pophale) SiO2 
 PCOD9306279
Probable space group: C 2/C
;
_chemical_formula_sum "Si O2"
_cell_formula_units_Z 44
_cell_length_a 9.586793
_cell_length_b 18.948821
_cell_length_c 12.080651
_cell_angle_alpha 90.000000
_cell_angle_beta 69.806233
_cell_angle_gamma 90.000000
_cell_volume 2059.654190
_symmetry_space_group_name_H-M "C 2/C"
_symmetry_group_IT_number 15
_symmetry_cell_setting 'monoclinic'
loop_
_space_group_symop_operation_xyz
x,y,z
-x,y,1/2-z
-x,-y,-z
x,-y,1/2+z
1/2+x,1/2+y,z
1/2-x,1/2+y,1/2-z
1/2-x,1/2-y,-z
1/2+x,1/2-y,1/2+z
loop_
_atom_site_type_symbol
_atom_site_label
_atom_site_fract_x
_atom_site_fract_y
_atom_site_fract_z
Si Si1 0.658938 0.791616 0.931211
Si Si2 0.236974 0.471520 0.208611
Si Si3 0.615271 0.695036 0.532866
Si Si4 0.000000 0.897367 0.250000
Si Si5 0.645129 0.623193 0.286052
Si Si6 0.538748 0.935415 0.068773
O O1 0.535708 0.739244 0.919968
O O2 0.767924 0.816897 0.805008
O O3 0.750000 0.750000 0.000000
O O4 0.577657 0.861227 0.002099
O O5 0.396806 0.441195 0.195315
O O6 0.250398 0.554318 0.232357
O O7 0.184289 0.458269 0.098462
O O8 0.107056 0.433269 0.313829
O O9 0.750000 0.750000 0.500000
O O10 0.611303 0.646169 0.641613
O O11 0.612885 0.651060 0.418612
O O12 0.500000 0.607000 0.250000
O O13 0.500000 0.000000 0.000000
#
# Coordination Sequence:
#
# PCOD9306279 Si02
#       6
#     8   8   8   4   8   8
#     4  12  25  47  74 102 147 193 242 301 370 442
#     4  11  26  43  74 105 144 188 243 304 361 442
#     4  12  28  45  73 104 145 187 242 297 367 445
#     4  12  26  48  70 106 144 190 234 300 366 432
#     4  12  26  46  72 107 142 192 243 304 369 434
#     4  11  25  46  73 104 141 190 244 301 366 435
#
# _framework density 21.36281
#
# number of rings (size 3 to 8) (size 9 to 14) (size 15 to 20)
#    0.000    0.364    4.545    3.273    5.091    3.636 
#    0.000    0.000    0.000    0.000    0.000    0.000 
#    0.000    0.000    0.000    0.000    0.000    0.000 
#
# Total GULP energy -123074.611681 kJ/mol
# GULP energy per Si atom -5594.300531 kJ/mol
# Density = 2.131419 g / cm^3
# Si number density = 21.362810 Si / 1000 Ang^3
#
#
#
# Elastic Constant Matrix: (Units=GPa)
#
#
# Indices 1 2 3 4 5 6 
#
# 1 95.7354 8.5963 -5.8208 0.0000 16.1452 0.0000
# 2 8.5963 79.1870 25.2969 0.0000 8.6228 0.0000
# 3 -5.8208 25.2969 87.8840 0.0000 8.2686 0.0000
# 4 0.0000 0.0000 0.0000 19.6802 0.0000 -4.7366
# 5 16.1452 8.6228 8.2686 0.0000 35.5976 0.0000
# 6 0.0000 0.0000 0.0000 -4.7366 0.0000 49.8364
#
#
#
# Elastic Compliance Matrix: (Units=1/GPa)
#
#
# Indices 1 2 3 4 5 6 
#
# 1 0.011548 -0.001187 0.001607 0.000000 -0.005323 0.000000
# 2 -0.001187 0.014249 -0.003993 0.000000 -0.001985 0.000000
# 3 0.001607 -0.003993 0.012894 0.000000 -0.002757 0.000000
# 4 0.000000 0.000000 0.000000 0.052002 0.000000 0.004942
# 5 -0.005323 -0.001985 -0.002757 0.000000 0.031627 0.000000
# 6 0.000000 0.000000 0.000000 0.004942 0.000000 0.020535
#
#
# Mechanical properties :
#
#
# Convention : Reuss Voigt Hill
#
# Bulk Modulus (GPa) = 31.70188 35.43903 33.57045
# Shear Modulus (GPa) = 31.14938 36.67177 33.91058
#
# Velocity S-wave (km/s) = 3.82267 4.14770 3.98850
# Velocity P-wave (km/s) = 5.86137 6.28992 6.07942
#
# Compressibility (1/GPa) = 0.03154387
#
# Stress axis : x y z
#
# Youngs Moduli (GPa) = 86.59872 70.17962 77.55579
#
# Poissons Ratio (x) = 0.08333 -0.12467
# Poissons Ratio (y) = 0.10283 0.30971
# Poissons Ratio (z) = -0.13920 0.28025
#
# Static dielectric constant tensor:
#      x y z
#    x 2.053130 0.000000 0.061580 
#    y 0.000000 1.678940 0.000000 
#    z 0.061580 0.000000 1.826980 
# 
# From -- ./inp_files/78141.got.cif
#   From: 2010.05.17/outbox.cif.g08.bks.cpg/sg15_40_cif.got.tgz:78141.got - 2010.06.03 18:47:42.
