data_PCOD9306021
_publ_section_title
;
Structure prediction by ZEFSAII (Michael W. Deem and Ramdas Pophale) SiO2 
 PCOD9306021
Probable space group: C 2/C
;
_chemical_formula_sum "Si O2"
_cell_formula_units_Z 40
_cell_length_a 8.438556
_cell_length_b 23.855539
_cell_length_c 15.863250
_cell_angle_alpha 90.000000
_cell_angle_beta 34.418099
_cell_angle_gamma 90.000000
_cell_volume 1804.982157
_symmetry_space_group_name_H-M "C 2/C"
_symmetry_group_IT_number 15
_symmetry_cell_setting 'monoclinic'
loop_
_space_group_symop_operation_xyz
x,y,z
-x,y,1/2-z
-x,-y,-z
x,-y,1/2+z
1/2+x,1/2+y,z
1/2-x,1/2+y,1/2-z
1/2-x,1/2-y,-z
1/2+x,1/2-y,1/2+z
loop_
_atom_site_type_symbol
_atom_site_label
_atom_site_fract_x
_atom_site_fract_y
_atom_site_fract_z
Si Si1 0.779817 0.588291 0.675186
Si Si2 0.911632 0.902303 0.876154
Si Si3 0.205927 0.286780 0.275570
Si Si4 0.937111 0.197047 0.496621
Si Si5 0.277852 0.503879 0.171108
O O1 0.500000 0.569473 0.750000
O O2 0.770135 0.655184 0.685408
O O3 0.774516 0.557302 0.767257
O O4 0.092278 0.576807 0.504596
O O5 0.944039 0.862731 0.944516
O O6 0.000000 0.872561 0.750000
O O7 0.109206 0.955155 0.806600
O O8 0.185775 0.233762 0.346319
O O9 0.884355 0.284887 0.382705
O O10 0.426982 0.293823 0.102127
O O11 0.000000 0.526786 0.250000
O O12 0.500000 0.500000 0.000000
#
# Coordination Sequence:
#
# PCOD9306021 Si02
#       5
#     8   8   8   8   8
#     4  11  25  43  66  96 136 175 218 271 333 391
#     4  11  25  42  66  99 134 173 221 274 328 392
#     4   9  19  36  64  94 127 171 218 266 322 391
#     4   9  19  36  64  95 128 169 219 266 326 383
#     4  12  25  44  68  94 129 172 222 275 333 393
#
# _framework density 22.160885
#
# number of rings (size 3 to 8) (size 9 to 14) (size 15 to 20)
#    0.000    1.600    2.000    1.800   14.000    1.600 
#    0.000    2.000    0.000    0.000    0.000    0.000 
#    0.000    0.000    0.000    0.000    0.000    0.000 
#
# Total GULP energy -111464.809895 kJ/mol
# GULP energy per Si atom -5573.240495 kJ/mol
# Density = 2.211045 g / cm^3
# Si number density = 22.160885 Si / 1000 Ang^3
#
#
#
# Elastic Constant Matrix: (Units=GPa)
#
#
# Indices 1 2 3 4 5 6 
#
# 1 78.8412 12.1451 48.7500 0.0000 -17.2525 -0.0001
# 2 12.1451 59.6202 19.5990 0.0000 -11.7848 0.0000
# 3 48.7500 19.5990 124.0835 -0.0004 2.0561 0.0003
# 4 0.0000 0.0000 -0.0004 34.1436 0.0000 -6.5981
# 5 -17.2525 -11.7848 2.0561 0.0000 31.0343 0.0000
# 6 -0.0001 0.0000 0.0003 -6.5981 0.0000 7.7342
#
#
#
# Elastic Compliance Matrix: (Units=1/GPa)
#
#
# Indices 1 2 3 4 5 6 
#
# 1 0.020394 0.001028 -0.008378 0.000000 0.012282 0.000000
# 2 0.001028 0.019359 -0.003597 0.000000 0.008161 0.000000
# 3 -0.008378 -0.003597 0.012032 0.000000 -0.006820 -0.000001
# 4 0.000000 0.000000 0.000000 0.035070 0.000000 0.029918
# 5 0.012282 0.008161 -0.006820 0.000000 0.042601 0.000000
# 6 0.000000 0.000000 -0.000001 0.029918 0.000000 0.154818
#
#
# Mechanical properties :
#
#
# Convention : Reuss Voigt Hill
#
# Bulk Modulus (GPa) = 33.45604 47.05925 40.25764
# Shear Modulus (GPa) = 15.81624 26.71915 21.26769
#
# Velocity S-wave (km/s) = 2.67442 3.47607 3.10126
# Velocity P-wave (km/s) = 4.96652 6.11491 5.57039
#
# Compressibility (1/GPa) = 0.02988997
#
# Stress axis : x y z
#
# Youngs Moduli (GPa) = 49.03505 51.65571 83.11310
#
# Poissons Ratio (x) = -0.05308 0.69633
# Poissons Ratio (y) = -0.05039 0.29893
# Poissons Ratio (z) = 0.41082 0.18579
#
# Static dielectric constant tensor:
#      x y z
#    x 1.962460 0.000000 -0.067880 
#    y 0.000000 1.828140 0.000000 
#    z -0.067880 0.000000 1.900740 
# 
# From -- ./inp_files/193422.got.cif
#   From: 2010.05.17/outbox.cif.g08.bks.cpg/sg15_97_cif.got.tgz:193422.got - 2010.06.03 18:47:42.
