data_PCOD9306523
_publ_section_title
;
Structure prediction by ZEFSAII (Michael W. Deem and Ramdas Pophale) SiO2 
 PCOD9306523
Probable space group: C 2/C
;
_chemical_formula_sum "Si O2"
_cell_formula_units_Z 40
_cell_length_a 18.542955
_cell_length_b 5.636231
_cell_length_c 18.535417
_cell_angle_alpha 90.000000
_cell_angle_beta 133.533015
_cell_angle_gamma 90.000000
_cell_volume 1404.412486
_symmetry_space_group_name_H-M "C 2/C"
_symmetry_group_IT_number 15
_symmetry_cell_setting 'monoclinic'
loop_
_space_group_symop_operation_xyz
x,y,z
-x,y,1/2-z
-x,-y,-z
x,-y,1/2+z
1/2+x,1/2+y,z
1/2-x,1/2+y,1/2-z
1/2-x,1/2-y,-z
1/2+x,1/2-y,1/2+z
loop_
_atom_site_type_symbol
_atom_site_label
_atom_site_fract_x
_atom_site_fract_y
_atom_site_fract_z
Si Si1 0.464063 0.257632 0.807797
Si Si2 0.781437 0.986979 0.809297
Si Si3 0.684057 0.236843 0.026067
Si Si4 0.417573 0.827717 0.477458
Si Si5 0.453048 0.752255 0.797592
O O1 0.500000 0.244325 0.750000
O O2 0.568840 0.261035 0.921983
O O3 0.400947 0.498206 0.765673
O O4 0.408013 0.010231 0.783665
O O5 0.769525 0.246308 0.761130
O O6 0.892040 0.866401 0.899432
O O7 0.776763 0.067157 0.891365
O O8 0.037732 0.236055 0.916871
O O9 0.750000 0.250000 0.000000
O O10 0.677121 0.985681 0.063507
O O11 0.500000 0.000000 0.500000
O O12 0.500000 0.762111 0.750000
#
# Coordination Sequence:
#
# PCOD9306523 Si02
#       5
#     8   8   8   8   8
#     4   9  18  38  64 102 142 182 243 318 385 443
#     4  12  26  54  77 122 167 222 270 340 424 514
#     4  11  25  50  81 115 162 216 276 340 417 498
#     4  11  25  50  81 115 162 216 276 340 417 498
#     4   9  18  38  64 102 142 182 243 318 385 443
#
# _framework density 28.481660000000002
#
# number of rings (size 3 to 8) (size 9 to 14) (size 15 to 20)
#    0.000    1.600    4.000    0.000    0.000    1.600 
#   14.400    4.000    0.000    0.000    0.000    0.000 
#    0.000    0.000    0.000    0.000    0.000    0.000 
#
# Total GULP energy -111641.162738 kJ/mol
# GULP energy per Si atom -5582.058137 kJ/mol
# Density = 2.841683 g / cm^3
# Si number density = 28.481660 Si / 1000 Ang^3
#
#
#
# Elastic Constant Matrix: (Units=GPa)
#
#
# Indices 1 2 3 4 5 6 
#
# 1 154.2373 76.3017 51.0334 0.0000 -32.0023 0.0000
# 2 76.3017 304.9857 54.6315 0.0000 -13.3667 0.0000
# 3 51.0334 54.6315 222.6349 0.0000 -16.4741 0.0000
# 4 0.0000 0.0000 0.0000 43.0843 0.0000 -1.5957
# 5 -32.0023 -13.3667 -16.4741 0.0000 53.9651 0.0000
# 6 0.0000 0.0000 0.0000 -1.5957 0.0000 49.8218
#
#
#
# Elastic Compliance Matrix: (Units=1/GPa)
#
#
# Indices 1 2 3 4 5 6 
#
# 1 0.008657 -0.001755 -0.001234 0.000000 0.004322 0.000000
# 2 -0.001755 0.003805 -0.000551 0.000000 -0.000267 0.000000
# 3 -0.001234 -0.000551 0.004957 0.000000 0.000645 0.000000
# 4 0.000000 0.000000 0.000000 0.023238 0.000000 0.000744
# 5 0.004322 -0.000267 0.000645 0.000000 0.021225 0.000000
# 6 0.000000 0.000000 0.000000 0.000744 0.000000 0.020095
#
#
# Mechanical properties :
#
#
# Convention : Reuss Voigt Hill
#
# Bulk Modulus (GPa) = 96.72162 116.19900 106.46031
# Shear Modulus (GPa) = 54.05167 62.70033 58.37600
#
# Velocity S-wave (km/s) = 4.36107 4.69703 4.53216
# Velocity P-wave (km/s) = 7.70659 8.38466 8.05276
#
# Compressibility (1/GPa) = 0.01033895
#
# Stress axis : x y z
#
# Youngs Moduli (GPa) = 115.51398 262.81052 201.71684
#
# Poissons Ratio (x) = 0.46133 0.24888
# Poissons Ratio (y) = 0.20277 0.11116
# Poissons Ratio (z) = 0.14252 0.14482
#
# Static dielectric constant tensor:
#      x y z
#    x 2.469000 0.000000 0.202700 
#    y 0.000000 2.436110 0.000000 
#    z 0.202700 0.000000 2.345300 
# 
# From -- ./inp_files/275749.got.cif
#   From: 2010.05.17/outbox.cif.g08.bks.cpg/sg15_138_cif.got.tgz:275749.got - 2010.06.03 18:47:42.
