data_PCOD9306418
_publ_section_title
;
Structure prediction by ZEFSAII (Michael W. Deem and Ramdas Pophale) SiO2 
 PCOD9306418
Probable space group: C 2/C
;
_chemical_formula_sum "Si O2"
_cell_formula_units_Z 48
_cell_length_a 19.113453
_cell_length_b 6.938776
_cell_length_c 20.689649
_cell_angle_alpha 90.000000
_cell_angle_beta 123.388014
_cell_angle_gamma 90.000000
_cell_volume 2291.091193
_symmetry_space_group_name_H-M "C 2/C"
_symmetry_group_IT_number 15
_symmetry_cell_setting 'monoclinic'
loop_
_space_group_symop_operation_xyz
x,y,z
-x,y,1/2-z
-x,-y,-z
x,-y,1/2+z
1/2+x,1/2+y,z
1/2-x,1/2+y,1/2-z
1/2-x,1/2-y,-z
1/2+x,1/2-y,1/2+z
loop_
_atom_site_type_symbol
_atom_site_label
_atom_site_fract_x
_atom_site_fract_y
_atom_site_fract_z
Si Si1 0.202073 0.442080 0.369546
Si Si2 0.381334 0.342217 0.407153
Si Si3 0.588030 0.065518 0.192622
Si Si4 0.620224 0.563525 0.383655
Si Si5 0.487409 0.300072 0.918990
Si Si6 0.000000 0.812500 0.250000
Si Si7 0.250000 0.250000 0.000000
O O1 0.293879 0.361556 0.399018
O O2 0.155170 0.496537 0.279354
O O3 0.150423 0.273850 0.378277
O O4 0.209612 0.627955 0.418493
O O5 0.374066 0.213114 0.339906
O O6 0.452441 0.251982 0.489985
O O7 0.415538 0.554677 0.406606
O O8 0.516696 0.177192 0.197021
O O9 0.549948 0.885138 0.134964
O O10 0.546691 0.586154 0.399064
O O11 0.578821 0.450343 0.302805
O O12 0.695447 0.441873 0.451638
#
# Coordination Sequence:
#
# PCOD9306418 Si02
#       7
#     8   8   8   8   8   4   4
#     4  12  28  46  74 110 145 193 242 297 368 430
#     4  11  27  47  69 107 142 193 239 301 368 433
#     4  12  26  44  74 106 144 195 237 301 361 430
#     4  12  25  47  74 106 142 186 242 298 353 434
#     4  11  25  48  73 101 146 187 243 297 361 433
#     4  12  24  46  74 108 146 186 250 296 358 432
#     4  12  26  48  74 106 146 184 242 300 364 430
#
# _framework density 20.950717000000001
#
# number of rings (size 3 to 8) (size 9 to 14) (size 15 to 20)
#    0.000    0.333    5.000    3.000    2.333    1.333 
#    0.000    0.000    0.000    0.000    0.000    0.000 
#    0.000    0.000    0.000    0.000    0.000    0.000 
#
# Total GULP energy -133848.400788 kJ/mol
# GULP energy per Si atom -5577.016700 kJ/mol
# Density = 2.090303 g / cm^3
# Si number density = 20.950717 Si / 1000 Ang^3
#
#
#
# Elastic Constant Matrix: (Units=GPa)
#
#
# Indices 1 2 3 4 5 6 
#
# 1 27.9316 5.5946 10.2968 0.0000 0.0957 0.0000
# 2 5.5946 56.3028 33.5931 0.0000 -4.9205 0.0000
# 3 10.2968 33.5931 94.6211 0.0000 -4.5345 0.0000
# 4 0.0000 0.0000 0.0000 28.5959 0.0000 -5.2933
# 5 0.0957 -4.9205 -4.5345 0.0000 19.6859 0.0000
# 6 0.0000 0.0000 0.0000 -5.2933 0.0000 22.6726
#
#
#
# Elastic Compliance Matrix: (Units=1/GPa)
#
#
# Indices 1 2 3 4 5 6 
#
# 1 0.037455 -0.001743 -0.003526 0.000000 -0.001430 0.000000
# 2 -0.001743 0.022905 -0.007753 0.000000 0.003948 0.000000
# 3 -0.003526 -0.007753 0.013765 0.000000 0.001250 0.000000
# 4 0.000000 0.000000 0.000000 0.036550 0.000000 0.008533
# 5 -0.001430 0.003948 0.001250 0.000000 0.052079 0.000000
# 6 0.000000 0.000000 0.000000 0.008533 0.000000 0.046098
#
#
# Mechanical properties :
#
#
# Convention : Reuss Voigt Hill
#
# Bulk Modulus (GPa) = 20.79804 30.86939 25.83372
# Shear Modulus (GPa) = 19.92638 22.81561 21.37099
#
# Velocity S-wave (km/s) = 3.08735 3.30360 3.19730
# Velocity P-wave (km/s) = 4.76000 5.41461 5.09782
#
# Compressibility (1/GPa) = 0.04808145
#
# Stress axis : x y z
#
# Youngs Moduli (GPa) = 26.69840 43.65814 72.65024
#
# Poissons Ratio (x) = 0.07611 0.25613
# Poissons Ratio (y) = 0.04654 0.56326
# Poissons Ratio (z) = 0.09413 0.33849
#
# Static dielectric constant tensor:
#      x y z
#    x 1.734250 0.000000 -0.005000 
#    y 0.000000 1.704510 0.000000 
#    z -0.005000 0.000000 1.765290 
# 
# From -- ./inp_files/279060.got.cif
#   From: 2010.05.17/outbox.cif.g08.bks.cpg/sg15_140_cif.got.tgz:279060.got - 2010.06.03 18:47:42.
