data_PCOD9306483
_publ_section_title
;
Structure prediction by ZEFSAII (Michael W. Deem and Ramdas Pophale) SiO2 
 PCOD9306483
Probable space group: C 2/C
;
_chemical_formula_sum "Si O2"
_cell_formula_units_Z 44
_cell_length_a 15.096539
_cell_length_b 13.033135
_cell_length_c 15.743091
_cell_angle_alpha 90.000000
_cell_angle_beta 151.328031
_cell_angle_gamma 90.000000
_cell_volume 1486.179912
_symmetry_space_group_name_H-M "C 2/C"
_symmetry_group_IT_number 15
_symmetry_cell_setting 'monoclinic'
loop_
_space_group_symop_operation_xyz
x,y,z
-x,y,1/2-z
-x,-y,-z
x,-y,1/2+z
1/2+x,1/2+y,z
1/2-x,1/2+y,1/2-z
1/2-x,1/2-y,-z
1/2+x,1/2-y,1/2+z
loop_
_atom_site_type_symbol
_atom_site_label
_atom_site_fract_x
_atom_site_fract_y
_atom_site_fract_z
Si Si1 0.091773 0.284247 0.699976
Si Si2 0.600179 0.362112 0.661574
Si Si3 0.835437 0.896619 0.024373
Si Si4 0.500000 0.241822 0.750000
Si Si5 0.783303 0.591646 0.667464
Si Si6 0.654073 0.980465 0.037036
O O1 0.265356 0.294810 0.782958
O O2 0.170066 0.322990 0.856657
O O3 0.008958 0.174705 0.654150
O O4 0.947481 0.369696 0.541928
O O5 0.548873 0.310587 0.709271
O O6 0.400658 0.359409 0.447931
O O7 0.717256 0.464626 0.784585
O O8 0.813382 0.985408 0.937439
O O9 0.213671 0.957558 0.431761
O O10 0.335234 0.158692 0.627257
O O11 0.981333 0.560381 0.874795
#
# Coordination Sequence:
#
# PCOD9306483 Si02
#       6
#     8   8   8   4   8   8
#     4  11  27  49  77 122 161 215 270 343 415 492
#     4  12  29  48  81 119 158 220 271 341 416 489
#     4  11  25  51  78 117 165 217 269 346 415 497
#     4  12  26  48  76 110 156 208 278 330 400 496
#     4  11  25  49  75 111 155 209 271 333 405 486
#     4  11  25  52  80 115 161 213 276 334 413 501
#
# _framework density 29.606107000000002
#
# number of rings (size 3 to 8) (size 9 to 14) (size 15 to 20)
#    0.000    0.727    1.818    4.364    7.636    2.909 
#    3.273    0.000    0.000    0.000    0.000    0.000 
#    0.000    0.000    0.000    0.000    0.000    0.000 
#
# Total GULP energy -123058.018467 kJ/mol
# GULP energy per Si atom -5593.546294 kJ/mol
# Density = 2.953872 g / cm^3
# Si number density = 29.606107 Si / 1000 Ang^3
#
#
#
# Elastic Constant Matrix: (Units=GPa)
#
#
# Indices 1 2 3 4 5 6 
#
# 1 170.0443 40.7274 80.8820 -0.0002 23.5232 0.0002
# 2 40.7274 132.9765 70.7641 0.0052 -0.4259 0.0014
# 3 80.8820 70.7641 203.1765 0.0070 42.8542 0.0022
# 4 -0.0002 0.0052 0.0070 46.4603 0.0009 -3.7867
# 5 23.5232 -0.4259 42.8542 0.0009 62.5794 0.0000
# 6 0.0002 0.0014 0.0022 -3.7867 0.0000 46.3483
#
#
#
# Elastic Compliance Matrix: (Units=1/GPa)
#
#
# Indices 1 2 3 4 5 6 
#
# 1 0.007404 -0.001027 -0.002339 0.000001 -0.001188 0.000000
# 2 -0.001027 0.009764 -0.003609 -0.000001 0.002924 0.000000
# 3 -0.002339 -0.003609 0.008100 -0.000001 -0.004692 0.000000
# 4 0.000001 -0.000001 -0.000001 0.021668 0.000000 0.001770
# 5 -0.001188 0.002924 -0.004692 0.000000 0.019659 0.000000
# 6 0.000000 0.000000 0.000000 0.001770 0.000000 0.021720
#
#
# Mechanical properties :
#
#
# Convention : Reuss Voigt Hill
#
# Bulk Modulus (GPa) = 88.35110 98.99380 93.67245
# Shear Modulus (GPa) = 47.15333 51.99919 49.57626
#
# Velocity S-wave (km/s) = 3.99518 4.19545 4.09654
# Velocity P-wave (km/s) = 7.15464 7.54842 7.35417
#
# Compressibility (1/GPa) = 0.01131848
#
# Stress axis : x y z
#
# Youngs Moduli (GPa) = 135.06788 102.41342 123.46398
#
# Poissons Ratio (x) = 0.10513 0.28880
# Poissons Ratio (y) = 0.13866 0.44556
# Poissons Ratio (z) = 0.31595 0.36959
#
# Static dielectric constant tensor:
#      x y z
#    x 2.341360 0.000000 -0.044490 
#    y 0.000000 2.551170 0.000000 
#    z -0.044490 0.000000 2.425510 
# 
# From -- ./inp_files/280207.got.cif
#   From: 2010.05.17/outbox.cif.g08.bks.cpg/sg15_141_cif.got.tgz:280207.got - 2010.06.03 18:47:42.
