data_PCOD9306662
_publ_section_title
;
Structure prediction by ZEFSAII (Michael W. Deem and Ramdas Pophale) SiO2 
 PCOD9306662
Probable space group: C 2/C
;
_chemical_formula_sum "Si O2"
_cell_formula_units_Z 48
_cell_length_a 13.567465
_cell_length_b 17.240863
_cell_length_c 8.943058
_cell_angle_alpha 90.000000
_cell_angle_beta 85.746471
_cell_angle_gamma 90.000000
_cell_volume 2086.151743
_symmetry_space_group_name_H-M "C 2/C"
_symmetry_group_IT_number 15
_symmetry_cell_setting 'monoclinic'
loop_
_space_group_symop_operation_xyz
x,y,z
-x,y,1/2-z
-x,-y,-z
x,-y,1/2+z
1/2+x,1/2+y,z
1/2-x,1/2+y,1/2-z
1/2-x,1/2-y,-z
1/2+x,1/2-y,1/2+z
loop_
_atom_site_type_symbol
_atom_site_label
_atom_site_fract_x
_atom_site_fract_y
_atom_site_fract_z
Si Si1 0.067999 0.051658 0.886544
Si Si2 0.383378 0.983203 0.537337
Si Si3 0.422656 0.272883 0.123045
Si Si4 0.227892 0.768363 0.828537
Si Si5 0.410245 0.161466 0.851420
Si Si6 0.243217 0.556211 0.165020
O O1 0.086323 0.139524 0.937694
O O2 0.000000 0.061058 0.750000
O O3 0.169524 0.006839 0.841444
O O4 0.000000 0.000000 0.000000
O O5 0.355206 0.909834 0.435183
O O6 0.342890 0.960143 0.704028
O O7 0.500000 0.000000 0.500000
O O8 0.315308 0.052948 0.485445
O O9 0.500000 0.268295 0.250000
O O10 0.321799 0.247919 0.213166
O O11 0.445288 0.215541 0.984401
O O12 0.146463 0.714287 0.761191
O O13 0.207799 0.859977 0.819458
O O14 0.250000 0.750000 0.000000
O O15 0.500000 0.125337 0.750000
#
# Coordination Sequence:
#
# PCOD9306662 Si02
#       6
#     8   8   8   8   8   8
#     4  11  27  45  74 107 146 189 242 306 372 447
#     4  12  28  49  75 112 148 200 251 314 386 459
#     4  11  26  47  74 106 146 190 248 307 378 453
#     4  12  29  46  76 108 148 199 252 313 381 450
#     4  12  27  48  76 106 150 195 251 313 380 459
#     4  12  28  47  77 107 153 193 254 311 380 458
#
# _framework density 23.008872
#
# number of rings (size 3 to 8) (size 9 to 14) (size 15 to 20)
#    0.000    0.333    1.667    5.000   21.000    0.000 
#    0.000    0.000    0.000    0.000    0.000    0.000 
#    0.000    0.000    0.000    0.000    0.000    0.000 
#
# Total GULP energy -134323.711994 kJ/mol
# GULP energy per Si atom -5596.821333 kJ/mol
# Density = 2.295650 g / cm^3
# Si number density = 23.008872 Si / 1000 Ang^3
#
#
#
# Elastic Constant Matrix: (Units=GPa)
#
#
# Indices 1 2 3 4 5 6 
#
# 1 82.7763 10.1410 -0.9329 0.0000 -0.4467 0.0000
# 2 10.1410 121.2153 23.5614 0.0000 2.2081 0.0000
# 3 -0.9329 23.5614 106.5519 0.0000 -6.6957 0.0000
# 4 0.0000 0.0000 0.0000 40.1573 0.0000 0.2804
# 5 -0.4467 2.2081 -6.6957 0.0000 43.8325 0.0000
# 6 0.0000 0.0000 0.0000 0.2804 0.0000 28.1522
#
#
#
# Elastic Compliance Matrix: (Units=1/GPa)
#
#
# Indices 1 2 3 4 5 6 
#
# 1 0.012221 -0.001098 0.000364 0.000000 0.000235 0.000000
# 2 -0.001098 0.008742 -0.001990 0.000000 -0.000756 0.000000
# 3 0.000364 -0.001990 0.009930 0.000000 0.001621 0.000000
# 4 0.000000 0.000000 0.000000 0.024904 0.000000 -0.000248
# 5 0.000235 -0.000756 0.001621 0.000000 0.023102 0.000000
# 6 0.000000 0.000000 0.000000 -0.000248 0.000000 0.035524
#
#
# Mechanical properties :
#
#
# Convention : Reuss Voigt Hill
#
# Bulk Modulus (GPa) = 39.29809 41.78694 40.54251
# Shear Modulus (GPa) = 38.95555 40.94667 39.95111
#
# Velocity S-wave (km/s) = 4.11915 4.22311 4.17146
# Velocity P-wave (km/s) = 6.30395 6.47921 6.39218
#
# Compressibility (1/GPa) = 0.02544653
#
# Stress axis : x y z
#
# Youngs Moduli (GPa) = 81.82910 114.38743 100.70251
#
# Poissons Ratio (x) = 0.12554 -0.03671
# Poissons Ratio (y) = 0.08981 0.20042
# Poissons Ratio (z) = -0.02983 0.22766
#
# Static dielectric constant tensor:
#      x y z
#    x 1.788020 0.000000 0.060300 
#    y 0.000000 1.734340 0.000000 
#    z 0.060300 0.000000 1.816120 
# 
# From -- ./inp_files/39653.got.cif
#   From: 2010.05.17/outbox.cif.g08.bks.cpg/sg15_20_cif.got.tgz:39653.got - 2010.06.03 18:47:42.
