data_PCOD9306320
_publ_section_title
;
Structure prediction by ZEFSAII (Michael W. Deem and Ramdas Pophale) SiO2 
 PCOD9306320
Probable space group: C 2/C
;
_chemical_formula_sum "Si O2"
_cell_formula_units_Z 24
_cell_length_a 6.930591
_cell_length_b 7.718920
_cell_length_c 25.658577
_cell_angle_alpha 90.000000
_cell_angle_beta 45.456064
_cell_angle_gamma 90.000000
_cell_volume 978.304189
_symmetry_space_group_name_H-M "C 2/C"
_symmetry_group_IT_number 15
_symmetry_cell_setting 'monoclinic'
loop_
_space_group_symop_operation_xyz
x,y,z
-x,y,1/2-z
-x,-y,-z
x,-y,1/2+z
1/2+x,1/2+y,z
1/2-x,1/2+y,1/2-z
1/2-x,1/2-y,-z
1/2+x,1/2-y,1/2+z
loop_
_atom_site_type_symbol
_atom_site_label
_atom_site_fract_x
_atom_site_fract_y
_atom_site_fract_z
Si Si1 0.279887 0.686950 0.168104
Si Si2 0.617556 0.182727 0.957797
Si Si3 0.309946 0.675201 0.601742
O O1 0.340477 0.824454 0.111487
O O2 0.261929 0.507508 0.139245
O O3 0.541186 0.707450 0.155854
O O4 0.000000 0.716506 0.250000
O O5 0.913699 0.235674 0.922884
O O6 0.404918 0.317919 0.023032
O O7 0.500000 0.000000 0.000000
#
# Coordination Sequence:
#
# PCOD9306320 Si02
#       3
#     8   8   8
#     4  12  29  45  72 105 153 192 243 310 378 444
#     4  11  25  46  79 108 141 194 252 309 366 447
#     4  11  26  47  72 107 143 194 246 302 373 445
#
# _framework density 24.532247999999999
#
# number of rings (size 3 to 8) (size 9 to 14) (size 15 to 20)
#    0.000    0.667    3.333    2.000   14.000    0.000 
#    0.000    1.667    0.000    0.000    0.000    0.000 
#    0.000    0.000    0.000    0.000    0.000    0.000 
#
# Total GULP energy -67052.325678 kJ/mol
# GULP energy per Si atom -5587.693806 kJ/mol
# Density = 2.447641 g / cm^3
# Si number density = 24.532248 Si / 1000 Ang^3
#
#
#
# Elastic Constant Matrix: (Units=GPa)
#
#
# Indices 1 2 3 4 5 6 
#
# 1 122.5918 41.4613 97.3698 0.0000 -38.9746 0.0000
# 2 41.4613 131.7493 64.6799 0.0000 -12.0105 0.0000
# 3 97.3698 64.6799 225.7828 -0.0001 -51.9368 0.0000
# 4 0.0000 0.0000 -0.0001 23.4229 0.0000 -1.2720
# 5 -38.9746 -12.0105 -51.9368 0.0000 45.8085 0.0000
# 6 0.0000 0.0000 0.0000 -1.2720 0.0000 32.8655
#
#
#
# Elastic Compliance Matrix: (Units=1/GPa)
#
#
# Indices 1 2 3 4 5 6 
#
# 1 0.014184 -0.001880 -0.003945 0.000000 0.007103 0.000000
# 2 -0.001880 0.009100 -0.002185 0.000000 -0.001691 0.000000
# 3 -0.003945 -0.002185 0.007917 0.000000 0.005047 0.000000
# 4 0.000000 0.000000 0.000000 0.042783 0.000000 0.001656
# 5 0.007103 -0.001691 0.005047 0.000000 0.033152 0.000000
# 6 0.000000 0.000000 0.000000 0.001656 0.000000 0.030491
#
#
# Mechanical properties :
#
#
# Convention : Reuss Voigt Hill
#
# Bulk Modulus (GPa) = 65.86525 98.57177 82.21851
# Shear Modulus (GPa) = 31.50428 38.86023 35.18225
#
# Velocity S-wave (km/s) = 3.58746 3.98433 3.79109
# Velocity P-wave (km/s) = 6.63826 7.83800 7.26294
#
# Compressibility (1/GPa) = 0.01518251
#
# Stress axis : x y z
#
# Youngs Moduli (GPa) = 70.50161 109.88522 126.30698
#
# Poissons Ratio (x) = 0.20655 0.49823
# Poissons Ratio (y) = 0.13252 0.27602
# Poissons Ratio (z) = 0.27810 0.24014
#
# Static dielectric constant tensor:
#      x y z
#    x 2.125900 0.000000 0.058880 
#    y 0.000000 2.020120 0.000000 
#    z 0.058880 0.000000 1.879310 
# 
# From -- ./inp_files/131227.got.cif
#   From: 2010.05.17/outbox.cif.g08.bks.cpg/sg15_66_cif.got.tgz:131227.got - 2010.06.03 18:47:42.
