data_PCOD9306632
_publ_section_title
;
Structure prediction by ZEFSAII (Michael W. Deem and Ramdas Pophale) SiO2 
 PCOD9306632
Probable space group: C 2/C
;
_chemical_formula_sum "Si O2"
_cell_formula_units_Z 36
_cell_length_a 13.799781
_cell_length_b 4.850495
_cell_length_c 19.627093
_cell_angle_alpha 90.000000
_cell_angle_beta 99.410984
_cell_angle_gamma 90.000000
_cell_volume 1296.072516
_symmetry_space_group_name_H-M "C 2/C"
_symmetry_group_IT_number 15
_symmetry_cell_setting 'monoclinic'
loop_
_space_group_symop_operation_xyz
x,y,z
-x,y,1/2-z
-x,-y,-z
x,-y,1/2+z
1/2+x,1/2+y,z
1/2-x,1/2+y,1/2-z
1/2-x,1/2-y,-z
1/2+x,1/2-y,1/2+z
loop_
_atom_site_type_symbol
_atom_site_label
_atom_site_fract_x
_atom_site_fract_y
_atom_site_fract_z
Si Si1 0.112451 0.206621 0.524761
Si Si2 0.053951 0.600138 0.396930
Si Si3 0.000000 0.672504 0.750000
Si Si4 0.809838 0.045107 0.272469
Si Si5 0.274489 0.777289 0.413487
O O1 0.077243 0.342096 0.450021
O O2 0.190944 0.417407 0.566753
O O3 0.020753 0.215889 0.566585
O O4 0.170272 0.920695 0.526120
O O5 0.007991 0.504422 0.320124
O O6 0.159208 0.731790 0.392491
O O7 0.904964 0.867421 0.742231
O O8 0.719306 0.227152 0.232865
O O9 0.820636 0.158740 0.349463
#
# Coordination Sequence:
#
# PCOD9306632 Si02
#       5
#     8   8   4   8   8
#     4  11  27  49  74 110 143 189 245 299 355 433
#     4  11  26  46  77 107 148 190 242 296 366 423
#     4  12  26  48  74 108 148 194 236 302 360 434
#     4  12  27  48  71 106 148 189 241 294 361 431
#     4  12  25  48  78 102 145 191 241 298 358 427
#
# _framework density 27.776225
#
# number of rings (size 3 to 8) (size 9 to 14) (size 15 to 20)
#    0.000    0.444    4.444    2.667    0.000    8.000 
#    0.000    0.000    0.000    0.000    0.000    0.000 
#    0.000    0.000    0.000    0.000    0.000    0.000 
#
# Total GULP energy -101239.626832 kJ/mol
# GULP energy per Si atom -5624.423713 kJ/mol
# Density = 2.771301 g / cm^3
# Si number density = 27.776225 Si / 1000 Ang^3
#
#
#
# Elastic Constant Matrix: (Units=GPa)
#
#
# Indices 1 2 3 4 5 6 
#
# 1 193.8792 45.1707 4.2139 0.0000 11.5176 0.0000
# 2 45.1707 116.5764 6.1477 0.0000 17.7609 0.0000
# 3 4.2139 6.1477 156.5012 0.0000 15.5290 0.0000
# 4 0.0000 0.0000 0.0000 34.0536 0.0000 11.0782
# 5 11.5176 17.7609 15.5290 0.0000 37.8274 0.0000
# 6 0.0000 0.0000 0.0000 11.0782 0.0000 41.1821
#
#
#
# Elastic Compliance Matrix: (Units=1/GPa)
#
#
# Indices 1 2 3 4 5 6 
#
# 1 0.005689 -0.002090 0.000004 0.000000 -0.000752 0.000000
# 2 -0.002090 0.010008 0.000069 0.000000 -0.004091 0.000000
# 3 0.000004 0.000069 0.006662 0.000000 -0.002768 0.000000
# 4 0.000000 0.000000 0.000000 0.032182 0.000000 -0.008657
# 5 -0.000752 -0.004091 -0.002768 0.000000 0.029722 0.000000
# 6 0.000000 0.000000 0.000000 -0.008657 0.000000 0.026611
#
#
# Mechanical properties :
#
#
# Convention : Reuss Voigt Hill
#
# Bulk Modulus (GPa) = 54.57418 64.22460 59.39939
# Shear Modulus (GPa) = 41.31671 50.04090 45.67881
#
# Velocity S-wave (km/s) = 3.86098 4.24910 4.05968
# Velocity P-wave (km/s) = 6.29020 6.87353 6.58833
#
# Compressibility (1/GPa) = 0.01832368
#
# Stress axis : x y z
#
# Youngs Moduli (GPa) = 175.76464 99.92478 150.11408
#
# Poissons Ratio (x) = 0.20885 -0.00054
# Poissons Ratio (y) = 0.36736 -0.01037
# Poissons Ratio (z) = -0.00063 -0.00690
#
# Static dielectric constant tensor:
#      x y z
#    x 2.144690 0.000000 -0.013180 
#    y 0.000000 2.083510 0.000000 
#    z -0.013180 0.000000 2.213020 
# 
# From -- ./inp_files/241435.got.cif
#   From: 2010.05.17/outbox.cif.g08.bks.cpg/sg15_121_cif.got.tgz:241435.got - 2010.06.03 18:47:42.
