data_PCOD9306438
_publ_section_title
;
Structure prediction by ZEFSAII (Michael W. Deem and Ramdas Pophale) SiO2 
 PCOD9306438
Probable space group: C 2/C
;
_chemical_formula_sum "Si O2"
_cell_formula_units_Z 44
_cell_length_a 5.478667
_cell_length_b 21.443352
_cell_length_c 16.698422
_cell_angle_alpha 90.000000
_cell_angle_beta 100.942858
_cell_angle_gamma 90.000000
_cell_volume 1926.076602
_symmetry_space_group_name_H-M "C 2/C"
_symmetry_group_IT_number 15
_symmetry_cell_setting 'monoclinic'
loop_
_space_group_symop_operation_xyz
x,y,z
-x,y,1/2-z
-x,-y,-z
x,-y,1/2+z
1/2+x,1/2+y,z
1/2-x,1/2+y,1/2-z
1/2-x,1/2-y,-z
1/2+x,1/2-y,1/2+z
loop_
_atom_site_type_symbol
_atom_site_label
_atom_site_fract_x
_atom_site_fract_y
_atom_site_fract_z
Si Si1 0.999819 0.360057 0.618199
Si Si2 0.332812 0.057257 0.963744
Si Si3 0.592482 0.553370 0.665357
Si Si4 0.000000 0.541730 0.250000
Si Si5 0.940265 0.648772 0.651866
Si Si6 0.490455 0.291149 0.846448
O O1 0.857191 0.394778 0.537814
O O2 0.777702 0.318733 0.643928
O O3 0.097068 0.411852 0.687653
O O4 0.253398 0.324488 0.608657
O O5 0.416780 0.098218 0.892156
O O6 0.083235 0.026890 0.914053
O O7 0.500000 0.000000 0.000000
O O8 0.500000 0.562392 0.750000
O O9 0.663335 0.621186 0.634336
O O10 0.808753 0.503393 0.693638
O O11 0.988234 0.718603 0.627810
O O12 0.000000 0.644663 0.750000
O O13 0.500000 0.293660 0.750000
#
# Coordination Sequence:
#
# PCOD9306438 Si02
#       6
#     8   8   8   4   8   8
#     4  12  28  48  77 113 153 202 250 321 383 454
#     4  12  29  47  74 115 155 197 254 317 384 450
#     4  12  24  46  75 106 147 198 254 313 380 454
#     4  12  26  46  74 108 148 204 254 306 398 450
#     4  11  25  48  76 110 143 202 256 312 379 450
#     4  11  26  50  78 108 150 203 262 311 376 456
#
# _framework density 22.844366999999998
#
# number of rings (size 3 to 8) (size 9 to 14) (size 15 to 20)
#    0.000    0.364    4.545    2.182   10.182    2.909 
#    0.000    0.000    0.000    0.000    0.000    0.000 
#    0.000    0.000    0.000    0.000    0.000    0.000 
#
# Total GULP energy -122840.413021 kJ/mol
# GULP energy per Si atom -5583.655137 kJ/mol
# Density = 2.279237 g / cm^3
# Si number density = 22.844367 Si / 1000 Ang^3
#
#
#
# Elastic Constant Matrix: (Units=GPa)
#
#
# Indices 1 2 3 4 5 6 
#
# 1 77.4511 47.6446 16.6232 0.0000 30.6683 0.0000
# 2 47.6446 147.0479 37.7972 0.0000 12.9921 0.0000
# 3 16.6232 37.7972 110.1465 0.0000 34.5038 0.0000
# 4 0.0000 0.0000 0.0000 32.2766 0.0000 -1.2009
# 5 30.6683 12.9921 34.5038 0.0000 50.5265 0.0000
# 6 0.0000 0.0000 0.0000 -1.2009 0.0000 23.8307
#
#
#
# Elastic Compliance Matrix: (Units=1/GPa)
#
#
# Indices 1 2 3 4 5 6 
#
# 1 0.021760 -0.006688 0.003320 0.000000 -0.013755 0.000000
# 2 -0.006688 0.009516 -0.003513 0.000000 0.004012 0.000000
# 3 0.003320 -0.003513 0.012889 0.000000 -0.009913 0.000000
# 4 0.000000 0.000000 0.000000 0.031040 0.000000 0.001564
# 5 -0.013755 0.004012 -0.009913 0.000000 0.033879 0.000000
# 6 0.000000 0.000000 0.000000 0.001564 0.000000 0.042041
#
#
# Mechanical properties :
#
#
# Convention : Reuss Voigt Hill
#
# Bulk Modulus (GPa) = 32.89233 59.86394 46.37814
# Shear Modulus (GPa) = 28.56793 36.83212 32.70003
#
# Velocity S-wave (km/s) = 3.54014 4.01971 3.78752
# Velocity P-wave (km/s) = 5.58031 6.91420 6.28275
#
# Compressibility (1/GPa) = 0.03040222
#
# Stress axis : x y z
#
# Youngs Moduli (GPa) = 45.95619 105.08527 77.58822
#
# Poissons Ratio (x) = 0.70286 -0.25759
# Poissons Ratio (y) = 0.30737 0.27254
# Poissons Ratio (z) = -0.15257 0.36913
#
# Static dielectric constant tensor:
#      x y z
#    x 2.174720 0.000000 -0.037550 
#    y 0.000000 1.821450 0.000000 
#    z -0.037550 0.000000 1.869510 
# 
# From -- ./inp_files/184996.got.cif
#   From: 2010.05.17/outbox.cif.g08.bks.cpg/sg15_93_cif.got.tgz:184996.got - 2010.06.03 18:47:42.
