data_PCOD9306990
_publ_section_title
;
Structure prediction by ZEFSAII (Michael W. Deem and Ramdas Pophale) SiO2 
 PCOD9306990
Probable space group: C 2/C
;
_chemical_formula_sum "Si O2"
_cell_formula_units_Z 48
_cell_length_a 23.654393
_cell_length_b 20.058309
_cell_length_c 5.425510
_cell_angle_alpha 90.000000
_cell_angle_beta 131.439297
_cell_angle_gamma 90.000000
_cell_volume 1929.787470
_symmetry_space_group_name_H-M "C 2/C"
_symmetry_group_IT_number 15
_symmetry_cell_setting 'monoclinic'
loop_
_space_group_symop_operation_xyz
x,y,z
-x,y,1/2-z
-x,-y,-z
x,-y,1/2+z
1/2+x,1/2+y,z
1/2-x,1/2+y,1/2-z
1/2-x,1/2-y,-z
1/2+x,1/2-y,1/2+z
loop_
_atom_site_type_symbol
_atom_site_label
_atom_site_fract_x
_atom_site_fract_y
_atom_site_fract_z
Si Si1 0.671737 0.536707 0.854136
Si Si2 0.609247 0.148850 0.418145
Si Si3 0.000000 0.725164 0.750000
Si Si4 0.377415 0.277231 0.756190
Si Si5 0.000000 0.937434 0.750000
Si Si6 0.000000 0.458651 0.750000
Si Si7 0.742602 0.670447 0.907835
Si Si8 0.500000 0.360831 0.250000
O O1 0.697937 0.501578 0.675394
O O2 0.580150 0.531864 0.565760
O O3 0.698698 0.614036 0.936861
O O4 0.640609 0.204526 0.695559
O O5 0.575842 0.085794 0.458481
O O6 0.675556 0.140888 0.413121
O O7 0.537555 0.179715 0.067652
O O8 0.932616 0.766243 0.681499
O O9 0.307732 0.321817 0.482596
O O10 0.429015 0.314279 0.103319
O O11 0.020199 0.899680 0.554411
O O12 0.000000 0.500000 0.500000
O O13 0.750000 0.750000 0.000000
#
# Coordination Sequence:
#
# PCOD9306990 Si02
#       8
#     8   8   4   8   4   4   8   4
#     4  12  29  53  79 114 163 218 266 321 401 484
#     4  12  26  46  73 112 151 196 259 338 400 468
#     4  12  20  44  72 106 158 193 243 320 404 461
#     4  12  24  42  75 113 158 199 248 329 406 469
#     4  12  25  47  81 111 158 207 277 316 376 484
#     4  12  28  50  83 107 142 212 278 326 394 478
#     4  12  29  48  80 119 163 211 267 335 412 483
#     4  12  23  39  78 116 150 202 258 318 380 461
#
# _framework density 24.873203
#
# number of rings (size 3 to 8) (size 9 to 14) (size 15 to 20)
#    0.000    0.000    6.667    3.000    2.333    2.667 
#    0.000    0.000    0.000    0.000    0.000    0.000 
#    0.000    0.000    0.000    0.000    0.000    0.000 
#
# Total GULP energy -134289.333100 kJ/mol
# GULP energy per Si atom -5595.388879 kJ/mol
# Density = 2.481659 g / cm^3
# Si number density = 24.873203 Si / 1000 Ang^3
#
#
#
# Elastic Constant Matrix: (Units=GPa)
#
#
# Indices 1 2 3 4 5 6 
#
# 1 119.6294 58.9076 27.8372 0.0000 -4.0886 0.0000
# 2 58.9076 127.4426 23.5323 0.0000 -6.1952 0.0000
# 3 27.8372 23.5323 58.4634 0.0000 -5.0563 0.0000
# 4 0.0000 0.0000 0.0000 41.0919 0.0000 -15.7036
# 5 -4.0886 -6.1952 -5.0563 0.0000 45.1144 0.0000
# 6 0.0000 0.0000 0.0000 -15.7036 0.0000 9.4801
#
#
#
# Elastic Compliance Matrix: (Units=1/GPa)
#
#
# Indices 1 2 3 4 5 6 
#
# 1 0.011483 -0.004643 -0.003599 0.000000 0.000000 0.000000
# 2 -0.004643 0.010382 -0.001900 0.000000 0.000792 0.000000
# 3 -0.003599 -0.001900 0.019723 0.000000 0.001624 0.000000
# 4 0.000000 0.000000 0.000000 0.066316 0.000000 0.109851
# 5 0.000000 0.000792 0.001624 0.000000 0.022457 0.000000
# 6 0.000000 0.000000 0.000000 0.109851 0.000000 0.287449
#
#
# Mechanical properties :
#
#
# Convention : Reuss Voigt Hill
#
# Bulk Modulus (GPa) = 46.93651 58.45441 52.69546
# Shear Modulus (GPa) = 11.23102 32.15451 21.69277
#
# Velocity S-wave (km/s) = 2.12723 3.59937 2.95640
# Velocity P-wave (km/s) = 4.99447 6.38951 5.73457
#
# Compressibility (1/GPa) = 0.02130538
#
# Stress axis : x y z
#
# Youngs Moduli (GPa) = 87.08558 96.31887 50.70172
#
# Poissons Ratio (x) = 0.44724 0.18246
# Poissons Ratio (y) = 0.40436 0.09631
# Poissons Ratio (z) = 0.31339 0.18297
#
# Static dielectric constant tensor:
#      x y z
#    x 2.064930 0.000000 0.028830 
#    y 0.000000 2.050450 0.000000 
#    z 0.028830 0.000000 1.947770 
# 
# From -- ./inp_files/15927.got.cif
#   From: 2010.05.17/outbox.cif.g08.bks.cpg/sg15_8_cif.got.tgz:15927.got - 2010.06.03 18:47:42.
