data_PCOD9306003
_publ_section_title
;
Structure prediction by ZEFSAII (Michael W. Deem and Ramdas Pophale) SiO2 
 PCOD9306003
Probable space group: C 2/C
;
_chemical_formula_sum "Si O2"
_cell_formula_units_Z 48
_cell_length_a 27.353359
_cell_length_b 6.866990
_cell_length_c 9.955859
_cell_angle_alpha 90.000000
_cell_angle_beta 94.600843
_cell_angle_gamma 90.000000
_cell_volume 1864.035291
_symmetry_space_group_name_H-M "C 2/C"
_symmetry_group_IT_number 15
_symmetry_cell_setting 'monoclinic'
loop_
_space_group_symop_operation_xyz
x,y,z
-x,y,1/2-z
-x,-y,-z
x,-y,1/2+z
1/2+x,1/2+y,z
1/2-x,1/2+y,1/2-z
1/2-x,1/2-y,-z
1/2+x,1/2-y,1/2+z
loop_
_atom_site_type_symbol
_atom_site_label
_atom_site_fract_x
_atom_site_fract_y
_atom_site_fract_z
Si Si1 0.446141 0.929223 0.528652
Si Si2 0.898678 0.305780 0.232538
Si Si3 0.194461 0.273750 0.030137
Si Si4 0.812774 0.735859 0.398968
Si Si5 0.296280 0.260404 0.688785
Si Si6 0.388884 0.345086 0.198531
O O1 0.420201 0.868111 0.381992
O O2 0.435939 0.760203 0.639423
O O3 0.500000 0.000000 0.500000
O O4 0.425114 0.109057 0.608773
O O5 0.899116 0.073054 0.217251
O O6 0.842859 0.385405 0.202386
O O7 0.190558 0.504419 0.065041
O O8 0.190128 0.145690 0.165689
O O9 0.250000 0.250000 0.000000
O O10 0.153603 0.209920 0.917274
O O11 0.761325 0.779909 0.310530
O O12 0.804069 0.840274 0.541495
O O13 0.863513 0.776105 0.332985
#
# Coordination Sequence:
#
# PCOD9306003 Si02
#       6
#     8   8   8   8   8   8
#     4  12  30  59  91 125 169 218 292 385 461 526
#     4  12  29  55  89 127 168 227 289 367 450 533
#     4  12  22  43  73 116 173 240 294 347 421 503
#     4  11  25  44  71 120 183 238 291 347 415 513
#     4  11  25  40  73 117 174 230 281 342 414 507
#     4  12  28  50  87 124 174 230 290 356 446 539
#
# _framework density 25.750585000000001
#
# number of rings (size 3 to 8) (size 9 to 14) (size 15 to 20)
#    0.000    0.333    3.333    4.500    4.667    2.000 
#    0.000    1.667    0.000    0.000    0.000    0.000 
#    0.000    0.000    0.000    0.000    0.000    0.000 
#
# Total GULP energy -133986.411720 kJ/mol
# GULP energy per Si atom -5582.767155 kJ/mol
# Density = 2.569198 g / cm^3
# Si number density = 25.750585 Si / 1000 Ang^3
#
#
#
# Elastic Constant Matrix: (Units=GPa)
#
#
# Indices 1 2 3 4 5 6 
#
# 1 130.5337 71.1778 64.3737 0.0000 -34.8131 0.0000
# 2 71.1778 204.8900 52.2022 0.0000 -19.8850 0.0000
# 3 64.3737 52.2022 217.0811 0.0000 -24.8825 0.0000
# 4 0.0000 0.0000 0.0000 37.7723 0.0000 -5.3508
# 5 -34.8131 -19.8850 -24.8825 0.0000 50.7422 0.0000
# 6 0.0000 0.0000 0.0000 -5.3508 0.0000 36.5625
#
#
#
# Elastic Compliance Matrix: (Units=1/GPa)
#
#
# Indices 1 2 3 4 5 6 
#
# 1 0.011958 -0.003031 -0.002133 0.000000 0.005970 0.000000
# 2 -0.003031 0.006079 -0.000560 0.000000 0.000028 0.000000
# 3 -0.002133 -0.000560 0.005489 0.000000 0.001009 0.000000
# 4 0.000000 0.000000 0.000000 0.027035 0.000000 0.003957
# 5 0.005970 0.000028 0.001009 0.000000 0.024309 0.000000
# 6 0.000000 0.000000 0.000000 0.003957 0.000000 0.027929
#
#
# Mechanical properties :
#
#
# Convention : Reuss Voigt Hill
#
# Bulk Modulus (GPa) = 82.79042 103.11247 92.95144
# Shear Modulus (GPa) = 42.27486 49.33213 45.80350
#
# Velocity S-wave (km/s) = 4.05619 4.38170 4.22208
# Velocity P-wave (km/s) = 7.35918 8.10732 7.74230
#
# Compressibility (1/GPa) = 0.01207869
#
# Stress axis : x y z
#
# Youngs Moduli (GPa) = 83.62761 164.49929 182.17280
#
# Poissons Ratio (x) = 0.49864 0.38852
# Poissons Ratio (y) = 0.25350 0.10197
# Poissons Ratio (z) = 0.17835 0.09207
#
# Static dielectric constant tensor:
#      x y z
#    x 2.039970 0.000000 -0.020770 
#    y 0.000000 2.313890 0.000000 
#    z -0.020770 0.000000 2.137110 
# 
# From -- ./inp_files/64880.got.cif
#   From: 2010.05.17/outbox.cif.g08.bks.cpg/sg15_33_cif.got.tgz:64880.got - 2010.06.03 18:47:42.
