data_PCOD9306949
_publ_section_title
;
Structure prediction by ZEFSAII (Michael W. Deem and Ramdas Pophale) SiO2 
 PCOD9306949
Probable space group: C 2/C
;
_chemical_formula_sum "Si O2"
_cell_formula_units_Z 56
_cell_length_a 13.506304
_cell_length_b 22.056630
_cell_length_c 8.959848
_cell_angle_alpha 90.000000
_cell_angle_beta 111.107835
_cell_angle_gamma 90.000000
_cell_volume 2490.080656
_symmetry_space_group_name_H-M "C 2/C"
_symmetry_group_IT_number 15
_symmetry_cell_setting 'monoclinic'
loop_
_space_group_symop_operation_xyz
x,y,z
-x,y,1/2-z
-x,-y,-z
x,-y,1/2+z
1/2+x,1/2+y,z
1/2-x,1/2+y,1/2-z
1/2-x,1/2-y,-z
1/2+x,1/2-y,1/2+z
loop_
_atom_site_type_symbol
_atom_site_label
_atom_site_fract_x
_atom_site_fract_y
_atom_site_fract_z
Si Si1 0.500000 0.229078 0.250000
Si Si2 0.712821 0.492765 0.486421
Si Si3 0.731346 0.413642 0.227706
Si Si4 0.325807 0.793117 0.433857
Si Si5 0.837167 0.889298 0.848230
Si Si6 0.541092 0.332980 0.057730
Si Si7 0.500000 0.470618 0.750000
Si Si8 0.669516 0.285837 0.851413
O O1 0.577426 0.193525 0.401523
O O2 0.562655 0.275974 0.176006
O O3 0.748012 0.470863 0.344174
O O4 0.754080 0.555567 0.578512
O O5 0.735303 0.434506 0.600985
O O6 0.583546 0.494975 0.400661
O O7 0.782848 0.354889 0.333855
O O8 0.610163 0.390532 0.144894
O O9 0.250000 0.750000 0.500000
O O10 0.362819 0.756412 0.305346
O O11 0.920192 0.928888 0.799209
O O12 0.779948 0.843270 0.706387
O O13 0.917410 0.850343 0.995492
O O14 0.581245 0.312908 0.915628
O O15 0.750000 0.250000 0.000000
#
# Coordination Sequence:
#
# PCOD9306949 Si02
#       8
#     4   8   8   8   8   8   4   8
#     4  12  24  43  68  92 136 175 208 274 336 380
#     4  12  24  37  59  84 129 172 207 261 316 385
#     4  12  24  41  59  93 129 168 219 260 321 393
#     4  12  25  44  64  97 132 174 220 272 328 388
#     4  12  21  36  57  88 124 165 204 253 313 389
#     4  12  22  39  63  94 130 174 207 260 322 403
#     4  12  20  35  52  88 122 161 204 240 306 392
#     4  12  23  38  63  87 129 171 215 261 313 384
#
# _framework density 22.489231
#
# number of rings (size 3 to 8) (size 9 to 14) (size 15 to 20)
#    0.000    0.000    8.571    3.000    0.000    0.000 
#    0.000    0.000    0.000    0.857    0.000    0.000 
#    0.000    0.000    0.000    0.000    0.000    0.000 
#
# Total GULP energy -156231.554211 kJ/mol
# GULP energy per Si atom -5579.698365 kJ/mol
# Density = 2.243804 g / cm^3
# Si number density = 22.489231 Si / 1000 Ang^3
#
#
#
# Elastic Constant Matrix: (Units=GPa)
#
#
# Indices 1 2 3 4 5 6 
#
# 1 16.8066 8.9525 20.1870 0.0000 -7.6173 0.0000
# 2 8.9525 105.3346 66.1541 0.0000 7.2424 0.0000
# 3 20.1870 66.1541 154.1798 0.0000 3.9263 0.0000
# 4 0.0000 0.0000 0.0000 72.6329 0.0000 0.4970
# 5 -7.6173 7.2424 3.9263 0.0000 35.6105 0.0000
# 6 0.0000 0.0000 0.0000 0.4970 0.0000 29.8152
#
#
#
# Elastic Compliance Matrix: (Units=1/GPa)
#
#
# Indices 1 2 3 4 5 6 
#
# 1 0.081504 -0.001675 -0.010435 0.000000 0.018925 0.000000
# 2 -0.001675 0.013178 -0.005373 0.000000 -0.002446 0.000000
# 3 -0.010435 -0.005373 0.010215 0.000000 -0.002266 0.000000
# 4 0.000000 0.000000 0.000000 0.013769 0.000000 -0.000230
# 5 0.018925 -0.002446 -0.002266 0.000000 0.032877 0.000000
# 6 0.000000 0.000000 0.000000 -0.000230 0.000000 0.033544
#
#
# Mechanical properties :
#
#
# Convention : Reuss Voigt Hill
#
# Bulk Modulus (GPa) = 14.29950 51.87867 33.08908
# Shear Modulus (GPa) = 20.54536 39.68022 30.11279
#
# Velocity S-wave (km/s) = 3.02580 4.20504 3.66319
# Velocity P-wave (km/s) = 4.31039 6.83336 5.71289
#
# Compressibility (1/GPa) = 0.06993252
#
# Stress axis : x y z
#
# Youngs Moduli (GPa) = 12.26935 75.88126 97.89312
#
# Poissons Ratio (x) = 0.12710 1.02149
# Poissons Ratio (y) = 0.02055 0.52597
# Poissons Ratio (z) = 0.12803 0.40770
#
# Static dielectric constant tensor:
#      x y z
#    x 1.863420 0.000000 -0.009970 
#    y 0.000000 1.900560 0.000000 
#    z -0.009970 0.000000 1.952710 
# 
# From -- ./inp_files/50377.got.cif
#   From: 2010.05.17/outbox.cif.g08.bks.cpg/sg15_26_cif.got.tgz:50377.got - 2010.06.03 18:47:42.
