data_PCOD9306026
_publ_section_title
;
Structure prediction by ZEFSAII (Michael W. Deem and Ramdas Pophale) SiO2 
 PCOD9306026
Probable space group: C 2/C
;
_chemical_formula_sum "Si O2"
_cell_formula_units_Z 48
_cell_length_a 10.828279
_cell_length_b 22.337404
_cell_length_c 13.511534
_cell_angle_alpha 90.000000
_cell_angle_beta 134.205366
_cell_angle_gamma 90.000000
_cell_volume 2342.730027
_symmetry_space_group_name_H-M "C 2/C"
_symmetry_group_IT_number 15
_symmetry_cell_setting 'monoclinic'
loop_
_space_group_symop_operation_xyz
x,y,z
-x,y,1/2-z
-x,-y,-z
x,-y,1/2+z
1/2+x,1/2+y,z
1/2-x,1/2+y,1/2-z
1/2-x,1/2-y,-z
1/2+x,1/2-y,1/2+z
loop_
_atom_site_type_symbol
_atom_site_label
_atom_site_fract_x
_atom_site_fract_y
_atom_site_fract_z
Si Si1 0.987591 0.144305 0.456605
Si Si2 0.685196 0.931218 0.306281
Si Si3 0.049713 0.734449 0.889549
Si Si4 0.914950 0.625662 0.950637
Si Si5 0.368156 0.305473 0.092105
Si Si6 0.861158 0.571033 0.255496
O O1 0.977111 0.171865 0.560482
O O2 0.816082 0.106460 0.346951
O O3 0.159637 0.102973 0.550162
O O4 0.971974 0.201132 0.375458
O O5 0.500000 0.916672 0.250000
O O6 0.675176 0.909546 0.188216
O O7 0.689654 0.003066 0.301230
O O8 0.000000 0.716729 0.750000
O O9 0.999250 0.684004 0.942665
O O10 0.250000 0.750000 0.000000
O O11 0.763834 0.645603 0.940020
O O12 0.048933 0.585485 0.088434
O O13 0.500000 0.287092 0.250000
O O14 0.250000 0.250000 0.000000
O O15 0.000000 0.590967 0.250000
#
# Coordination Sequence:
#
# PCOD9306026 Si02
#       6
#     8   8   8   8   8   8
#     4  12  24  45  70  99 139 175 231 284 344 411
#     4  11  25  46  67  97 138 186 231 281 340 404
#     4  12  26  42  66  99 133 176 220 274 344 413
#     4  12  23  44  70  97 139 175 228 278 346 411
#     4  12  26  41  70 105 135 179 220 282 351 410
#     4  11  25  42  70 102 134 180 231 285 342 405
#
# _framework density 20.488914999999999
#
# number of rings (size 3 to 8) (size 9 to 14) (size 15 to 20)
#    0.000    0.333    5.000    4.500    2.333    0.000 
#    0.000    0.000    3.667    0.000    0.000    0.000 
#    0.000    0.000    0.000    0.000    0.000    0.000 
#
# Total GULP energy -134115.017295 kJ/mol
# GULP energy per Si atom -5588.125721 kJ/mol
# Density = 2.044228 g / cm^3
# Si number density = 20.488915 Si / 1000 Ang^3
#
#
#
# Elastic Constant Matrix: (Units=GPa)
#
#
# Indices 1 2 3 4 5 6 
#
# 1 67.7119 25.0058 -14.9543 0.0000 6.2825 0.0000
# 2 25.0058 85.1521 7.0045 0.0000 7.9389 0.0000
# 3 -14.9543 7.0045 69.3877 0.0000 3.8950 0.0000
# 4 0.0000 0.0000 0.0000 34.1490 0.0000 10.0541
# 5 6.2825 7.9389 3.8950 0.0000 38.0496 0.0000
# 6 0.0000 0.0000 0.0000 10.0541 0.0000 33.3364
#
#
#
# Elastic Compliance Matrix: (Units=1/GPa)
#
#
# Indices 1 2 3 4 5 6 
#
# 1 0.018000 -0.005446 0.004558 0.000000 -0.002302 0.000000
# 2 -0.005446 0.013705 -0.002461 0.000000 -0.001708 0.000000
# 3 0.004558 -0.002461 0.015747 0.000000 -0.001851 0.000000
# 4 0.000000 0.000000 0.000000 0.032137 0.000000 -0.009692
# 5 -0.002302 -0.001708 -0.001851 0.000000 0.027208 0.000000
# 6 0.000000 0.000000 0.000000 -0.009692 0.000000 0.032920
#
#
# Mechanical properties :
#
#
# Convention : Reuss Voigt Hill
#
# Bulk Modulus (GPa) = 24.53807 28.48486 26.51146
# Shear Modulus (GPa) = 31.25018 34.78671 33.01844
#
# Velocity S-wave (km/s) = 3.90965 4.12494 4.01874
# Velocity P-wave (km/s) = 5.69058 6.05142 5.87377
#
# Compressibility (1/GPa) = 0.04075300
#
# Stress axis : x y z
#
# Youngs Moduli (GPa) = 55.55536 72.96735 63.50596
#
# Poissons Ratio (x) = 0.39740 -0.28948
# Poissons Ratio (y) = 0.30257 0.15631
# Poissons Ratio (z) = -0.25324 0.17960
#
# Static dielectric constant tensor:
#      x y z
#    x 1.983270 0.000000 -0.004690 
#    y 0.000000 1.833730 0.000000 
#    z -0.004690 0.000000 1.706920 
# 
# From -- ./inp_files/32131.got.cif
#   From: 2010.05.17/outbox.cif.g08.bks.cpg/sg15_17_cif.got.tgz:32131.got - 2010.06.03 18:47:42.
