data_PCOD9306039
_publ_section_title
;
Structure prediction by ZEFSAII (Michael W. Deem and Ramdas Pophale) SiO2 
 PCOD9306039
Probable space group: C 2/C
;
_chemical_formula_sum "Si O2"
_cell_formula_units_Z 56
_cell_length_a 4.911578
_cell_length_b 29.362599
_cell_length_c 17.819537
_cell_angle_alpha 90.000000
_cell_angle_beta 63.485778
_cell_angle_gamma 90.000000
_cell_volume 2299.584509
_symmetry_space_group_name_H-M "C 2/C"
_symmetry_group_IT_number 15
_symmetry_cell_setting 'monoclinic'
loop_
_space_group_symop_operation_xyz
x,y,z
-x,y,1/2-z
-x,-y,-z
x,-y,1/2+z
1/2+x,1/2+y,z
1/2-x,1/2+y,1/2-z
1/2-x,1/2-y,-z
1/2+x,1/2-y,1/2+z
loop_
_atom_site_type_symbol
_atom_site_label
_atom_site_fract_x
_atom_site_fract_y
_atom_site_fract_z
Si Si1 0.764234 0.060726 0.156681
Si Si2 0.853923 0.505766 0.099832
Si Si3 0.507001 0.860420 0.161167
Si Si4 0.629565 0.281564 0.447997
Si Si5 0.345878 0.785908 0.687217
Si Si6 0.665533 0.858993 0.561257
Si Si7 0.883540 0.091526 0.896894
O O1 0.500000 0.067614 0.250000
O O2 0.626655 0.020472 0.120755
O O3 0.803292 0.107305 0.106161
O O4 0.093497 0.043801 0.141999
O O5 0.679528 0.457927 0.128608
O O6 0.000000 0.500000 0.000000
O O7 0.500000 0.854758 0.250000
O O8 0.600302 0.813847 0.111483
O O9 0.199471 0.875518 0.160533
O O10 0.777931 0.898053 0.114867
O O11 0.750000 0.250000 0.500000
O O12 0.537753 0.252527 0.385799
O O13 0.379565 0.317385 0.508231
O O14 0.500000 0.788162 0.750000
O O15 0.386866 0.833135 0.635523
O O16 0.000000 0.776620 0.750000
O O17 0.647799 0.892240 0.491192
#
# Coordination Sequence:
#
# PCOD9306039 Si02
#       7
#     8   8   8   8   8   8   8
#     4  12  28  47  74 111 147 188 241 304 362 425
#     4  12  26  47  76 104 146 194 243 289 357 430
#     4  11  25  43  68 103 141 179 234 298 355 414
#     4  11  25  46  75 103 141 191 247 290 360 437
#     4  12  27  47  73 106 146 190 240 304 366 427
#     4  11  26  47  72 106 145 190 240 293 362 432
#     4  11  25  44  73 101 138 189 237 286 351 432
#
# _framework density 24.352229000000001
#
# number of rings (size 3 to 8) (size 9 to 14) (size 15 to 20)
#    0.000    0.571    1.429    5.143    4.000   13.714 
#    0.000    0.000    0.000    0.000    0.000    0.000 
#    0.000    0.000    0.000    0.000    0.000    0.000 
#
# Total GULP energy -156688.451156 kJ/mol
# GULP energy per Si atom -5596.016113 kJ/mol
# Density = 2.429680 g / cm^3
# Si number density = 24.352229 Si / 1000 Ang^3
#
#
#
# Elastic Constant Matrix: (Units=GPa)
#
#
# Indices 1 2 3 4 5 6 
#
# 1 73.2476 -5.8789 7.9406 0.0000 4.4133 0.0000
# 2 -5.8789 116.2060 19.5905 0.0000 -4.8455 0.0000
# 3 7.9406 19.5905 136.7951 0.0000 0.6607 0.0000
# 4 0.0000 0.0000 0.0000 27.2425 0.0000 8.1071
# 5 4.4133 -4.8455 0.6607 0.0000 30.9764 0.0000
# 6 0.0000 0.0000 0.0000 8.1071 0.0000 29.2186
#
#
#
# Elastic Compliance Matrix: (Units=1/GPa)
#
#
# Indices 1 2 3 4 5 6 
#
# 1 0.013925 0.000781 -0.000911 0.000000 -0.001842 0.000000
# 2 0.000781 0.008924 -0.001330 0.000000 0.001313 0.000000
# 3 -0.000911 -0.001330 0.007555 0.000000 -0.000239 0.000000
# 4 0.000000 0.000000 0.000000 0.040011 0.000000 -0.011102
# 5 -0.001842 0.001313 -0.000239 0.000000 0.032756 0.000000
# 6 0.000000 0.000000 0.000000 -0.011102 0.000000 0.037305
#
#
# Mechanical properties :
#
#
# Convention : Reuss Voigt Hill
#
# Bulk Modulus (GPa) = 36.38488 41.06147 38.72318
# Shear Modulus (GPa) = 32.77489 37.79394 35.28441
#
# Velocity S-wave (km/s) = 3.67259 3.94378 3.81060
# Velocity P-wave (km/s) = 5.74085 6.13481 5.94110
#
# Compressibility (1/GPa) = 0.02748394
#
# Stress axis : x y z
#
# Youngs Moduli (GPa) = 71.81423 112.05939 132.36830
#
# Poissons Ratio (x) = -0.08755 0.12063
# Poissons Ratio (y) = -0.05611 0.17601
# Poissons Ratio (z) = 0.06544 0.14900
#
# Static dielectric constant tensor:
#      x y z
#    x 2.090500 0.000000 0.363970 
#    y 0.000000 1.952070 0.000000 
#    z 0.363970 0.000000 2.643490 
# 
# From -- ./inp_files/186125.got.cif
#   From: 2010.05.17/outbox.cif.g08.bks.cpg/sg15_94_cif.got.tgz:186125.got - 2010.06.03 18:47:42.
