data_PCOD9306211
_publ_section_title
;
Structure prediction by ZEFSAII (Michael W. Deem and Ramdas Pophale) SiO2 
 PCOD9306211
Probable space group: C 2/C
;
_chemical_formula_sum "Si O2"
_cell_formula_units_Z 44
_cell_length_a 5.161527
_cell_length_b 21.492584
_cell_length_c 18.387073
_cell_angle_alpha 90.000000
_cell_angle_beta 125.948513
_cell_angle_gamma 90.000000
_cell_volume 1651.278618
_symmetry_space_group_name_H-M "C 2/C"
_symmetry_group_IT_number 15
_symmetry_cell_setting 'monoclinic'
loop_
_space_group_symop_operation_xyz
x,y,z
-x,y,1/2-z
-x,-y,-z
x,-y,1/2+z
1/2+x,1/2+y,z
1/2-x,1/2+y,1/2-z
1/2-x,1/2-y,-z
1/2+x,1/2-y,1/2+z
loop_
_atom_site_type_symbol
_atom_site_label
_atom_site_fract_x
_atom_site_fract_y
_atom_site_fract_z
Si Si1 0.580229 0.761090 0.646092
Si Si2 0.565553 0.350365 0.524177
Si Si3 0.273274 0.913914 0.417473
Si Si4 0.750000 0.750000 0.500000
Si Si5 0.000000 0.842233 0.250000
Si Si6 0.500000 0.626406 0.250000
Si Si7 0.560482 0.546212 0.404588
O O1 0.203037 0.780713 0.571798
O O2 0.731031 0.754699 0.591631
O O3 0.626829 0.704948 0.708927
O O4 0.710704 0.824063 0.704595
O O5 0.643956 0.364536 0.455340
O O6 0.214930 0.327144 0.487003
O O7 0.674878 0.411941 0.584239
O O8 0.240954 0.887824 0.331221
O O9 0.611001 0.943269 0.496659
O O10 0.028300 0.973426 0.386449
O O11 0.549266 0.583361 0.327566
#
# Coordination Sequence:
#
# PCOD9306211 Si02
#       7
#     8   8   8   4   4   4   8
#     4  12  27  43  74 109 151 193 245 310 382 448
#     4  12  23  46  74 105 144 193 248 301 370 459
#     4  11  25  49  71 105 145 195 245 313 366 449
#     4  12  24  44  72 104 148 200 238 300 382 444
#     4  12  27  46  72 108 151 182 248 316 376 434
#     4  12  23  46  68 106 141 188 240 306 368 448
#     4  11  25  45  77 101 145 196 250 301 374 440
#
# _framework density 26.646015999999999
#
# number of rings (size 3 to 8) (size 9 to 14) (size 15 to 20)
#    0.000    0.364    5.455    2.727    2.545    0.000 
#    0.000    0.000    4.000    0.000    0.000    0.000 
#    0.000    0.000    0.000    0.000    0.000    0.000 
#
# Total GULP energy -122679.235589 kJ/mol
# GULP energy per Si atom -5576.328890 kJ/mol
# Density = 2.658537 g / cm^3
# Si number density = 26.646016 Si / 1000 Ang^3
#
#
#
# Elastic Constant Matrix: (Units=GPa)
#
#
# Indices 1 2 3 4 5 6 
#
# 1 79.0308 42.9480 51.0319 0.0000 -30.9687 0.0000
# 2 42.9480 137.7681 53.2696 0.0000 -9.9378 0.0000
# 3 51.0319 53.2696 183.7410 0.0000 -19.0327 0.0000
# 4 0.0000 0.0000 0.0000 32.3606 0.0000 -2.1401
# 5 -30.9687 -9.9378 -19.0327 0.0000 38.0682 0.0000
# 6 0.0000 0.0000 0.0000 -2.1401 0.0000 21.3276
#
#
#
# Elastic Compliance Matrix: (Units=1/GPa)
#
#
# Indices 1 2 3 4 5 6 
#
# 1 0.024126 -0.004954 -0.003549 0.000000 0.016559 0.000000
# 2 -0.004954 0.009229 -0.001548 0.000000 -0.002395 0.000000
# 3 -0.003549 -0.001548 0.006893 0.000000 0.000155 0.000000
# 4 0.000000 0.000000 0.000000 0.031108 0.000000 0.003122
# 5 0.016559 -0.002395 0.000155 0.000000 0.039192 0.000000
# 6 0.000000 0.000000 0.000000 0.003122 0.000000 0.047201
#
#
# Mechanical properties :
#
#
# Convention : Reuss Voigt Hill
#
# Bulk Modulus (GPa) = 49.63882 77.22653 63.43268
# Shear Modulus (GPa) = 27.09059 35.23729 31.16394
#
# Velocity S-wave (km/s) = 3.19201 3.64046 3.42358
# Velocity P-wave (km/s) = 5.67932 6.83490 6.28373
#
# Compressibility (1/GPa) = 0.02014552
#
# Stress axis : x y z
#
# Youngs Moduli (GPa) = 41.44886 108.35778 145.07655
#
# Poissons Ratio (x) = 0.53684 0.51490
# Poissons Ratio (y) = 0.20535 0.22452
# Poissons Ratio (z) = 0.14711 0.16770
#
# Static dielectric constant tensor:
#      x y z
#    x 4.503350 0.000000 1.283510 
#    y 0.000000 2.254130 0.000000 
#    z 1.283510 0.000000 2.674470 
# 
# From -- ./inp_files/185601.got.cif
#   From: 2010.05.17/outbox.cif.g08.bks.cpg/sg15_93_cif.got.tgz:185601.got - 2010.06.03 18:47:42.
