data_PCOD9306149
_publ_section_title
;
Structure prediction by ZEFSAII (Michael W. Deem and Ramdas Pophale) SiO2 
 PCOD9306149
Probable space group: C 2/C
;
_chemical_formula_sum "Si O2"
_cell_formula_units_Z 40
_cell_length_a 7.933304
_cell_length_b 8.673937
_cell_length_c 25.123134
_cell_angle_alpha 90.000000
_cell_angle_beta 74.257249
_cell_angle_gamma 90.000000
_cell_volume 1663.949752
_symmetry_space_group_name_H-M "C 2/C"
_symmetry_group_IT_number 15
_symmetry_cell_setting 'monoclinic'
loop_
_space_group_symop_operation_xyz
x,y,z
-x,y,1/2-z
-x,-y,-z
x,-y,1/2+z
1/2+x,1/2+y,z
1/2-x,1/2+y,1/2-z
1/2-x,1/2-y,-z
1/2+x,1/2-y,1/2+z
loop_
_atom_site_type_symbol
_atom_site_label
_atom_site_fract_x
_atom_site_fract_y
_atom_site_fract_z
Si Si1 0.880422 0.155946 0.173658
Si Si2 0.331620 0.661392 0.727026
Si Si3 0.660492 0.839564 0.427313
Si Si4 0.293875 0.159893 0.128050
Si Si5 0.991829 0.161609 0.530867
O O1 0.823221 0.282218 0.221760
O O2 0.828572 0.213228 0.119957
O O3 0.088585 0.133790 0.154649
O O4 0.794083 0.997156 0.199878
O O5 0.500000 0.640027 0.750000
O O6 0.369119 0.786738 0.678067
O O7 0.843621 0.840290 0.443097
O O8 0.518402 0.790263 0.483156
O O9 0.627400 0.003265 0.402449
O O10 0.328205 0.293056 0.081412
O O11 0.000000 0.000000 0.500000
#
# Coordination Sequence:
#
# PCOD9306149 Si02
#       5
#     8   8   8   8   8
#     4  12  26  46  71 101 137 178 229 284 339 405
#     4  12  26  47  70  99 139 181 228 283 343 407
#     4  11  25  45  71 103 138 181 227 279 340 405
#     4  12  25  45  71 102 138 178 228 282 339 403
#     4  11  25  47  72 101 141 182 226 280 340 407
#
# _framework density 24.039186000000001
#
# number of rings (size 3 to 8) (size 9 to 14) (size 15 to 20)
#    0.000    0.400    0.000    9.600    0.000   11.200 
#    0.000    5.000    0.000    0.000    0.000    0.000 
#    0.000    0.000    0.000    0.000    0.000    0.000 
#
# Total GULP energy -112185.022882 kJ/mol
# GULP energy per Si atom -5609.251144 kJ/mol
# Density = 2.398447 g / cm^3
# Si number density = 24.039186 Si / 1000 Ang^3
#
#
#
# Elastic Constant Matrix: (Units=GPa)
#
#
# Indices 1 2 3 4 5 6 
#
# 1 16.8887 3.4816 24.7013 0.0000 7.1277 0.0000
# 2 3.4816 97.8172 59.6146 0.0000 12.9159 0.0000
# 3 24.7013 59.6146 184.6814 0.0000 8.2056 0.0000
# 4 0.0000 0.0000 0.0000 77.5705 0.0000 -0.7602
# 5 7.1277 12.9159 8.2056 0.0000 58.8501 0.0000
# 6 0.0000 0.0000 0.0000 -0.7602 0.0000 20.7313
#
#
#
# Elastic Compliance Matrix: (Units=1/GPa)
#
#
# Indices 1 2 3 4 5 6 
#
# 1 0.079606 0.005756 -0.012096 0.000000 -0.009218 0.000000
# 2 0.005756 0.013442 -0.004978 0.000000 -0.002953 0.000000
# 3 -0.012096 -0.004978 0.008579 0.000000 0.001361 0.000000
# 4 0.000000 0.000000 0.000000 0.012896 0.000000 0.000473
# 5 -0.009218 -0.002953 0.001361 0.000000 0.018567 0.000000
# 6 0.000000 0.000000 0.000000 0.000473 0.000000 0.048254
#
#
# Mechanical properties :
#
#
# Convention : Reuss Voigt Hill
#
# Bulk Modulus (GPa) = 12.65959 52.77578 32.71769
# Shear Modulus (GPa) = 21.70989 45.53637 33.62313
#
# Velocity S-wave (km/s) = 3.00843 4.35703 3.74395
# Velocity P-wave (km/s) = 4.16476 6.87847 5.68588
#
# Compressibility (1/GPa) = 0.07899149
#
# Stress axis : x y z
#
# Youngs Moduli (GPa) = 12.56181 74.39476 116.56649
#
# Poissons Ratio (x) = -0.42818 1.40995
# Poissons Ratio (y) = -0.07230 0.58022
# Poissons Ratio (z) = 0.15194 0.37030
#
# Static dielectric constant tensor:
#      x y z
#    x 1.895840 0.000000 -0.004960 
#    y 0.000000 1.934360 0.000000 
#    z -0.004960 0.000000 1.866960 
# 
# From -- ./inp_files/262442.got.cif
#   From: 2010.05.17/outbox.cif.g08.bks.cpg/sg15_132_cif.got.tgz:262442.got - 2010.06.03 18:47:42.
