data_PCOD9306173
_publ_section_title
;
Structure prediction by ZEFSAII (Michael W. Deem and Ramdas Pophale) SiO2 
 PCOD9306173
Probable space group: C 2/C
;
_chemical_formula_sum "Si O2"
_cell_formula_units_Z 44
_cell_length_a 19.999260
_cell_length_b 6.393884
_cell_length_c 16.252360
_cell_angle_alpha 90.000000
_cell_angle_beta 75.288417
_cell_angle_gamma 90.000000
_cell_volume 2010.105165
_symmetry_space_group_name_H-M "C 2/C"
_symmetry_group_IT_number 15
_symmetry_cell_setting 'monoclinic'
loop_
_space_group_symop_operation_xyz
x,y,z
-x,y,1/2-z
-x,-y,-z
x,-y,1/2+z
1/2+x,1/2+y,z
1/2-x,1/2+y,1/2-z
1/2-x,1/2-y,-z
1/2+x,1/2-y,1/2+z
loop_
_atom_site_type_symbol
_atom_site_label
_atom_site_fract_x
_atom_site_fract_y
_atom_site_fract_z
Si Si1 0.000000 0.427539 0.750000
Si Si2 0.383534 0.515482 0.520375
Si Si3 0.006156 0.298871 0.555136
Si Si4 0.279889 0.755810 0.653031
Si Si5 0.207961 0.116436 0.579747
Si Si6 0.847073 0.471077 0.780887
O O1 0.996799 0.318605 0.843474
O O2 0.073998 0.542069 0.732320
O O3 0.443827 0.656277 0.539757
O O4 0.420259 0.294978 0.496390
O O5 0.317893 0.562368 0.597457
O O6 0.349682 0.540690 0.440868
O O7 0.000000 0.500000 0.500000
O O8 0.207216 0.660890 0.705551
O O9 0.333040 0.840824 0.703042
O O10 0.261189 0.958378 0.605612
O O11 0.250000 0.250000 0.500000
O O12 0.172083 0.294427 0.645868
#
# Coordination Sequence:
#
# PCOD9306173 Si02
#       6
#     4   8   8   8   8   8
#     4  12  26  48  72 104 154 194 246 318 380 448
#     4  11  25  45  72 106 142 193 253 306 375 463
#     4  11  27  47  73 106 151 199 249 313 386 456
#     4  12  26  45  75 108 146 197 251 313 378 450
#     4  12  26  43  75 106 144 190 250 310 378 452
#     4  12  26  47  71 108 150 195 252 309 377 461
#
# _framework density 21.889400999999999
#
# number of rings (size 3 to 8) (size 9 to 14) (size 15 to 20)
#    0.000    0.364    7.273    0.545    5.091    1.455 
#    0.000    4.545    0.000    0.000    0.000    0.000 
#    0.000    0.000    0.000    0.000    0.000    0.000 
#
# Total GULP energy -122507.034672 kJ/mol
# GULP energy per Si atom -5568.501576 kJ/mol
# Density = 2.183958 g / cm^3
# Si number density = 21.889401 Si / 1000 Ang^3
#
#
#
# Elastic Constant Matrix: (Units=GPa)
#
#
# Indices 1 2 3 4 5 6 
#
# 1 138.1855 15.8680 21.3828 0.0000 -1.1820 0.0000
# 2 15.8680 46.9468 49.0691 0.0000 -3.9233 0.0000
# 3 21.3828 49.0691 75.6601 0.0000 12.9360 0.0000
# 4 0.0000 0.0000 0.0000 33.4355 0.0000 0.7623
# 5 -1.1820 -3.9233 12.9360 0.0000 45.2882 0.0000
# 6 0.0000 0.0000 0.0000 0.7623 0.0000 31.7062
#
#
#
# Elastic Compliance Matrix: (Units=1/GPa)
#
#
# Indices 1 2 3 4 5 6 
#
# 1 0.007601 -0.000404 -0.002012 0.000000 0.000738 0.000000
# 2 -0.000404 0.086201 -0.059996 0.000000 0.024594 0.000000
# 3 -0.002012 -0.059996 0.056345 0.000000 -0.021344 0.000000
# 4 0.000000 0.000000 0.000000 0.029925 0.000000 -0.000719
# 5 0.000738 0.024594 -0.021344 0.000000 0.030327 0.000000
# 6 0.000000 0.000000 0.000000 -0.000719 0.000000 0.031557
#
#
# Mechanical properties :
#
#
# Convention : Reuss Voigt Hill
#
# Bulk Modulus (GPa) = 39.49137 48.15914 43.82525
# Shear Modulus (GPa) = 13.32548 33.71748 23.52148
#
# Velocity S-wave (km/s) = 2.46999 3.92900 3.28161
# Velocity P-wave (km/s) = 5.12005 6.52928 5.86713
#
# Compressibility (1/GPa) = 0.02532199
#
# Stress axis : x y z
#
# Youngs Moduli (GPa) = 131.56618 11.60082 17.74778
#
# Poissons Ratio (x) = 0.00469 0.03571
# Poissons Ratio (y) = 0.05321 1.06479
# Poissons Ratio (z) = 0.26471 0.69600
#
# Static dielectric constant tensor:
#      x y z
#    x 1.849130 0.000000 0.050190 
#    y 0.000000 1.861430 0.000000 
#    z 0.050190 0.000000 2.058550 
# 
# From -- ./inp_files/212833.got.cif
#   From: 2010.05.17/outbox.cif.g08.bks.cpg/sg15_107_cif.got.tgz:212833.got - 2010.06.03 18:47:42.
