data_PCOD9306525
_publ_section_title
;
Structure prediction by ZEFSAII (Michael W. Deem and Ramdas Pophale) SiO2 
 PCOD9306525
Probable space group: C 2/C
;
_chemical_formula_sum "Si O2"
_cell_formula_units_Z 52
_cell_length_a 26.276790
_cell_length_b 6.810741
_cell_length_c 16.681473
_cell_angle_alpha 90.000000
_cell_angle_beta 122.920174
_cell_angle_gamma 90.000000
_cell_volume 2506.021618
_symmetry_space_group_name_H-M "C 2/C"
_symmetry_group_IT_number 15
_symmetry_cell_setting 'monoclinic'
loop_
_space_group_symop_operation_xyz
x,y,z
-x,y,1/2-z
-x,-y,-z
x,-y,1/2+z
1/2+x,1/2+y,z
1/2-x,1/2+y,1/2-z
1/2-x,1/2-y,-z
1/2+x,1/2-y,1/2+z
loop_
_atom_site_type_symbol
_atom_site_label
_atom_site_fract_x
_atom_site_fract_y
_atom_site_fract_z
Si Si1 0.061680 0.016460 0.657520
Si Si2 0.393533 0.970501 0.570947
Si Si3 0.284060 0.902521 0.086565
Si Si4 0.199488 0.086429 0.269941
Si Si5 0.500000 0.260391 0.250000
Si Si6 0.210674 0.760354 0.601864
Si Si7 0.472967 0.195997 0.516701
O O1 0.052049 0.163958 0.574662
O O2 0.031779 0.108257 0.710213
O O3 0.132501 0.988661 0.731699
O O4 0.026791 0.815668 0.605927
O O5 0.450135 0.870318 0.662549
O O6 0.353776 0.814041 0.486321
O O7 0.347455 0.050429 0.598263
O O8 0.420557 0.133540 0.533973
O O9 0.292434 0.791770 0.177581
O O10 0.244919 0.097227 0.069135
O O11 0.250000 0.750000 0.000000
O O12 0.203817 0.123051 0.179058
O O13 0.248594 0.930998 0.344017
O O14 0.500000 0.000000 0.500000
#
# Coordination Sequence:
#
# PCOD9306525 Si02
#       7
#     8   8   8   8   4   8   8
#     4  11  28  45  76 105 147 190 246 297 360 437
#     4  12  28  46  78 104 153 188 242 305 357 433
#     4  12  28  47  74 110 146 190 239 300 370 422
#     4  12  27  47  78 105 145 192 241 298 358 444
#     4  12  28  48  72 112 142 194 240 300 364 424
#     4  12  27  50  72 111 145 193 241 296 364 436
#     4  11  25  51  72 106 143 197 241 293 364 430
#
# _framework density 20.750019000000002
#
# number of rings (size 3 to 8) (size 9 to 14) (size 15 to 20)
#    0.000    0.308    4.615    2.308   12.923    2.462 
#    0.000    0.000    0.000    0.000    0.000    0.000 
#    0.000    0.000    0.000    0.000    0.000    0.000 
#
# Total GULP energy -145620.743393 kJ/mol
# GULP energy per Si atom -5600.797823 kJ/mol
# Density = 2.070279 g / cm^3
# Si number density = 20.750019 Si / 1000 Ang^3
#
#
#
# Elastic Constant Matrix: (Units=GPa)
#
#
# Indices 1 2 3 4 5 6 
#
# 1 141.9556 56.1466 55.0935 0.0000 -10.0169 0.0000
# 2 56.1466 105.3442 47.0269 0.0000 -4.1906 0.0000
# 3 55.0935 47.0269 118.1087 0.0000 9.9851 0.0000
# 4 0.0000 0.0000 0.0000 17.8944 0.0000 -7.0294
# 5 -10.0169 -4.1906 9.9851 0.0000 42.2985 0.0000
# 6 0.0000 0.0000 0.0000 -7.0294 0.0000 53.5266
#
#
#
# Elastic Compliance Matrix: (Units=1/GPa)
#
#
# Indices 1 2 3 4 5 6 
#
# 1 0.010048 -0.003702 -0.003452 0.000000 0.002828 0.000000
# 2 -0.003702 0.013127 -0.003608 0.000000 0.001276 0.000000
# 3 -0.003452 -0.003608 0.011849 0.000000 -0.003972 0.000000
# 4 0.000000 0.000000 0.000000 0.058923 0.000000 0.007738
# 5 0.002828 0.001276 -0.003972 0.000000 0.025375 0.000000
# 6 0.000000 0.000000 0.000000 0.007738 0.000000 0.019699
#
#
# Mechanical properties :
#
#
# Convention : Reuss Voigt Hill
#
# Bulk Modulus (GPa) = 74.06945 75.77139 74.92042
# Shear Modulus (GPa) = 30.29478 36.55334 33.42406
#
# Velocity S-wave (km/s) = 3.82512 4.20170 4.01783
# Velocity P-wave (km/s) = 7.43521 7.75465 7.59661
#
# Compressibility (1/GPa) = 0.01350084
#
# Stress axis : x y z
#
# Youngs Moduli (GPa) = 99.52318 76.17898 84.39263
#
# Poissons Ratio (x) = 0.28200 0.29133
# Poissons Ratio (y) = 0.36842 0.30447
# Poissons Ratio (z) = 0.34357 0.27484
#
# Static dielectric constant tensor:
#      x y z
#    x 1.682390 0.000000 -0.021940 
#    y 0.000000 1.738810 0.000000 
#    z -0.021940 0.000000 1.758140 
# 
# From -- ./inp_files/221353.got.cif
#   From: 2010.05.17/outbox.cif.g08.bks.cpg/sg15_111_cif.got.tgz:221353.got - 2010.06.03 18:47:42.
