data_PCOD9306937
_publ_section_title
;
Structure prediction by ZEFSAII (Michael W. Deem and Ramdas Pophale) SiO2 
 PCOD9306937
Probable space group: C 2/C
;
_chemical_formula_sum "Si O2"
_cell_formula_units_Z 44
_cell_length_a 11.078771
_cell_length_b 8.627631
_cell_length_c 18.336475
_cell_angle_alpha 90.000000
_cell_angle_beta 104.945205
_cell_angle_gamma 90.000000
_cell_volume 1693.377767
_symmetry_space_group_name_H-M "C 2/C"
_symmetry_group_IT_number 15
_symmetry_cell_setting 'monoclinic'
loop_
_space_group_symop_operation_xyz
x,y,z
-x,y,1/2-z
-x,-y,-z
x,-y,1/2+z
1/2+x,1/2+y,z
1/2-x,1/2+y,1/2-z
1/2-x,1/2-y,-z
1/2+x,1/2-y,1/2+z
loop_
_atom_site_type_symbol
_atom_site_label
_atom_site_fract_x
_atom_site_fract_y
_atom_site_fract_z
Si Si1 0.500000 0.875306 0.750000
Si Si2 0.149511 0.488076 0.508228
Si Si3 0.781009 0.304151 0.105350
Si Si4 0.479603 0.624180 0.335621
Si Si5 0.745025 0.102325 0.230129
Si Si6 0.350556 0.363351 0.129738
O O1 0.391620 0.960230 0.774435
O O2 0.577353 0.776450 0.821266
O O3 0.207677 0.464804 0.435810
O O4 0.195312 0.325468 0.552114
O O5 0.231814 0.624901 0.558097
O O6 0.000000 0.500000 0.500000
O O7 0.742714 0.262898 0.182682
O O8 0.927253 0.253574 0.121746
O O9 0.500000 0.628662 0.250000
O O10 0.331264 0.631687 0.313945
O O11 0.533685 0.469401 0.381638
O O12 0.803436 0.970948 0.188822
#
# Coordination Sequence:
#
# PCOD9306937 Si02
#       6
#     4   8   8   8   8   8
#     4  12  20  32  58  76 100 150 164 212 280 294
#     4   9  17  29  53  77 101 136 174 209 254 314
#     4   8  16  32  48  73 105 135 167 215 258 298
#     4   7  12  29  51  67 101 129 160 219 248 291
#     4   9  18  32  52  75 108 132 174 218 258 309
#     4   9  18  36  52  77 107 127 180 218 243 318
#
# _framework density 25.983571000000001
#
# number of rings (size 3 to 8) (size 9 to 14) (size 15 to 20)
#    0.000    4.000    2.727    0.000    2.545    0.000 
#    0.000    4.545    0.000    4.364    0.000    0.000 
#    0.000    0.000    0.000    0.000    0.000    0.000 
#
# Total GULP energy -122472.935880 kJ/mol
# GULP energy per Si atom -5566.951631 kJ/mol
# Density = 2.592443 g / cm^3
# Si number density = 25.983571 Si / 1000 Ang^3
#
#
#
# Elastic Constant Matrix: (Units=GPa)
#
#
# Indices 1 2 3 4 5 6 
#
# 1 148.7985 17.3396 59.3707 0.0000 41.4793 0.0000
# 2 17.3396 45.3712 39.4727 0.0000 4.9816 0.0000
# 3 59.3707 39.4727 103.5364 0.0000 34.1546 0.0000
# 4 0.0000 0.0000 0.0000 28.4331 0.0000 8.6937
# 5 41.4793 4.9816 34.1546 0.0000 48.7253 0.0000
# 6 0.0000 0.0000 0.0000 8.6937 0.0000 21.7948
#
#
#
# Elastic Compliance Matrix: (Units=1/GPa)
#
#
# Indices 1 2 3 4 5 6 
#
# 1 0.009809 0.000204 -0.003826 0.000000 -0.005690 0.000000
# 2 0.000204 0.034973 -0.015887 0.000000 0.007387 0.000000
# 3 -0.003826 -0.015887 0.021202 0.000000 -0.009980 0.000000
# 4 0.000000 0.000000 0.000000 0.040056 0.000000 -0.015978
# 5 -0.005690 0.007387 -0.009980 0.000000 0.031607 0.000000
# 6 0.000000 0.000000 0.000000 -0.015978 0.000000 0.052256
#
#
# Mechanical properties :
#
#
# Convention : Reuss Voigt Hill
#
# Bulk Modulus (GPa) = 37.08330 58.89689 47.99009
# Shear Modulus (GPa) = 21.01644 31.89219 26.45431
#
# Velocity S-wave (km/s) = 2.84709 3.50723 3.19426
# Velocity P-wave (km/s) = 5.01106 6.25436 5.66691
#
# Compressibility (1/GPa) = 0.02696632
#
# Stress axis : x y z
#
# Youngs Moduli (GPa) = 101.94437 28.59342 47.16636
#
# Poissons Ratio (x) = -0.00585 0.18046
# Poissons Ratio (y) = -0.02084 0.74934
# Poissons Ratio (z) = 0.39004 0.45427
#
# Static dielectric constant tensor:
#      x y z
#    x 2.273030 0.000000 -0.026820 
#    y 0.000000 2.122190 0.000000 
#    z -0.026820 0.000000 2.183410 
# 
# From -- ./inp_files/268283.got.cif
#   From: 2010.05.17/outbox.cif.g08.bks.cpg/sg15_135_cif.got.tgz:268283.got - 2010.06.03 18:47:42.
