data_PCOD9306431
_publ_section_title
;
Structure prediction by ZEFSAII (Michael W. Deem and Ramdas Pophale) SiO2 
 PCOD9306431
Probable space group: C 2/C
;
_chemical_formula_sum "Si O2"
_cell_formula_units_Z 48
_cell_length_a 21.668843
_cell_length_b 8.894405
_cell_length_c 11.771712
_cell_angle_alpha 90.000000
_cell_angle_beta 85.136039
_cell_angle_gamma 90.000000
_cell_volume 2260.609037
_symmetry_space_group_name_H-M "C 2/C"
_symmetry_group_IT_number 15
_symmetry_cell_setting 'monoclinic'
loop_
_space_group_symop_operation_xyz
x,y,z
-x,y,1/2-z
-x,-y,-z
x,-y,1/2+z
1/2+x,1/2+y,z
1/2-x,1/2+y,1/2-z
1/2-x,1/2-y,-z
1/2+x,1/2-y,1/2+z
loop_
_atom_site_type_symbol
_atom_site_label
_atom_site_fract_x
_atom_site_fract_y
_atom_site_fract_z
Si Si1 0.361807 0.376027 0.729833
Si Si2 0.686736 0.179695 0.554541
Si Si3 0.262939 0.143437 0.390652
Si Si4 0.941664 0.707014 0.538228
Si Si5 0.928688 0.351659 0.582872
Si Si6 0.618436 0.290995 0.191864
O O1 0.339416 0.260669 0.829717
O O2 0.301374 0.396996 0.659526
O O3 0.416502 0.307107 0.644971
O O4 0.381839 0.532553 0.782567
O O5 0.750000 0.250000 0.500000
O O6 0.634362 0.195647 0.468018
O O7 0.701805 0.006651 0.577562
O O8 0.250000 0.250000 0.500000
O O9 0.311025 0.233217 0.304180
O O10 0.932758 0.532037 0.572471
O O11 0.902819 0.750774 0.431946
O O12 0.013357 0.720347 0.492146
O O13 0.924693 0.296082 0.712326
#
# Coordination Sequence:
#
# PCOD9306431 Si02
#       6
#     8   8   8   8   8   8
#     4  12  26  43  71 106 148 188 228 296 363 422
#     4  12  25  44  71 105 141 184 238 290 358 421
#     4  12  22  43  71 102 142 184 239 294 345 421
#     4  11  26  49  72 103 140 184 245 287 351 431
#     4  11  25  48  75 100 136 189 238 294 352 420
#     4  12  25  46  71 104 146 184 237 297 356 420
#
# _framework density 21.233217
#
# number of rings (size 3 to 8) (size 9 to 14) (size 15 to 20)
#    0.000    0.333    3.333    5.500    2.333    1.333 
#    3.000    0.000    0.000    0.000    0.000    0.000 
#    0.000    0.000    0.000    0.000    0.000    0.000 
#
# Total GULP energy -134412.587823 kJ/mol
# GULP energy per Si atom -5600.524493 kJ/mol
# Density = 2.118489 g / cm^3
# Si number density = 21.233217 Si / 1000 Ang^3
#
#
#
# Elastic Constant Matrix: (Units=GPa)
#
#
# Indices 1 2 3 4 5 6 
#
# 1 62.0052 40.6164 12.2238 0.0000 -32.1999 0.0000
# 2 40.6164 145.6477 81.1758 0.0000 -18.2795 0.0000
# 3 12.2238 81.1758 131.6166 0.0000 -34.3902 0.0000
# 4 0.0000 0.0000 0.0000 35.2279 0.0000 -4.8974
# 5 -32.1999 -18.2795 -34.3902 0.0000 45.4998 0.0000
# 6 0.0000 0.0000 0.0000 -4.8974 0.0000 24.6226
#
#
#
# Elastic Compliance Matrix: (Units=1/GPa)
#
#
# Indices 1 2 3 4 5 6 
#
# 1 0.040517 -0.015045 0.014242 0.000000 0.033394 0.000000
# 2 -0.015045 0.016075 -0.011977 0.000000 -0.013242 0.000000
# 3 0.014242 -0.011977 0.018739 0.000000 0.019431 0.000000
# 4 0.000000 0.000000 0.000000 0.029194 0.000000 0.005807
# 5 0.033394 -0.013242 0.019431 0.000000 0.054977 0.000000
# 6 0.000000 0.000000 0.000000 0.005807 0.000000 0.041768
#
#
# Mechanical properties :
#
#
# Convention : Reuss Voigt Hill
#
# Bulk Modulus (GPa) = 20.09247 67.47796 43.78521
# Shear Modulus (GPa) = 20.54052 34.75364 27.64708
#
# Velocity S-wave (km/s) = 3.11364 4.05008 3.61233
# Velocity P-wave (km/s) = 4.73388 7.32934 6.16964
#
# Compressibility (1/GPa) = 0.04976989
#
# Stress axis : x y z
#
# Youngs Moduli (GPa) = 24.68094 62.20854 53.36415
#
# Poissons Ratio (x) = 0.93595 -0.76000
# Poissons Ratio (y) = 0.37134 0.63915
# Poissons Ratio (z) = -0.35150 0.74508
#
# Static dielectric constant tensor:
#      x y z
#    x 1.766230 0.000000 0.009580 
#    y 0.000000 1.764370 0.000000 
#    z 0.009580 0.000000 1.773830 
# 
# From -- ./inp_files/116729.got.cif
#   From: 2010.05.17/outbox.cif.g08.bks.cpg/sg15_59_cif.got.tgz:116729.got - 2010.06.03 18:47:42.
