data_PCOD9306956
_publ_section_title
;
Structure prediction by ZEFSAII (Michael W. Deem and Ramdas Pophale) SiO2 
 PCOD9306956
Probable space group: C 2/C
;
_chemical_formula_sum "Si O2"
_cell_formula_units_Z 48
_cell_length_a 19.033315
_cell_length_b 11.610676
_cell_length_c 9.107545
_cell_angle_alpha 90.000000
_cell_angle_beta 92.922683
_cell_angle_gamma 90.000000
_cell_volume 2010.055230
_symmetry_space_group_name_H-M "C 2/C"
_symmetry_group_IT_number 15
_symmetry_cell_setting 'monoclinic'
loop_
_space_group_symop_operation_xyz
x,y,z
-x,y,1/2-z
-x,-y,-z
x,-y,1/2+z
1/2+x,1/2+y,z
1/2-x,1/2+y,1/2-z
1/2-x,1/2-y,-z
1/2+x,1/2-y,1/2+z
loop_
_atom_site_type_symbol
_atom_site_label
_atom_site_fract_x
_atom_site_fract_y
_atom_site_fract_z
Si Si1 0.426662 0.314125 0.195285
Si Si2 0.745605 0.967977 0.690036
Si Si3 0.829486 0.736020 0.442902
Si Si4 0.699077 0.637295 0.028288
Si Si5 0.935532 0.582996 0.027158
Si Si6 0.635182 0.111056 0.792393
O O1 0.500000 0.373938 0.250000
O O2 0.373309 0.310239 0.329957
O O3 0.376470 0.351229 0.055129
O O4 0.451198 0.191141 0.130982
O O5 0.681039 0.884268 0.645354
O O6 0.774576 0.019545 0.544366
O O7 0.716006 0.084120 0.761826
O O8 0.795592 0.893278 0.799648
O O9 0.750000 0.750000 0.500000
O O10 0.874664 0.714080 0.594584
O O11 0.750000 0.750000 0.000000
O O12 0.903617 0.621253 0.866953
O O13 0.885662 0.501838 0.117990
O O14 0.000000 0.500000 0.000000
#
# Coordination Sequence:
#
# PCOD9306956 Si02
#       6
#     8   8   8   8   8   8
#     4  12  26  47  67 105 151 194 242 313 380 449
#     4  12  23  41  69 103 136 184 248 308 369 428
#     4  12  25  41  71 103 146 187 253 310 371 448
#     4  12  25  44  74 106 145 192 252 308 369 452
#     4  12  23  37  62  95 144 193 230 289 383 461
#     4  12  20  37  58  97 134 175 233 294 363 437
#
# _framework density 23.879940999999999
#
# number of rings (size 3 to 8) (size 9 to 14) (size 15 to 20)
#    0.000    0.000    6.667    4.500    2.333    0.000 
#    0.000    0.833    0.000    0.000    0.000    0.000 
#    0.000    0.000    0.000    0.000    0.000    0.000 
#
# Total GULP energy -133901.714075 kJ/mol
# GULP energy per Si atom -5579.238086 kJ/mol
# Density = 2.382559 g / cm^3
# Si number density = 23.879941 Si / 1000 Ang^3
#
#
#
# Elastic Constant Matrix: (Units=GPa)
#
#
# Indices 1 2 3 4 5 6 
#
# 1 115.8114 10.3555 49.2599 0.0000 17.9109 0.0000
# 2 10.3555 23.1992 22.4385 0.0000 3.4000 0.0000
# 3 49.2599 22.4385 182.4325 0.0000 24.6073 0.0000
# 4 0.0000 0.0000 0.0000 49.5688 0.0000 -0.5660
# 5 17.9109 3.4000 24.6073 0.0000 51.6208 0.0000
# 6 0.0000 0.0000 0.0000 -0.5660 0.0000 27.2299
#
#
#
# Elastic Compliance Matrix: (Units=1/GPa)
#
#
# Indices 1 2 3 4 5 6 
#
# 1 0.010099 -0.002080 -0.002156 0.000000 -0.002340 0.000000
# 2 -0.002080 0.049361 -0.005523 0.000000 0.000104 0.000000
# 3 -0.002156 -0.005523 0.007046 0.000000 -0.002247 0.000000
# 4 0.000000 0.000000 0.000000 0.020179 0.000000 0.000419
# 5 -0.002340 0.000104 -0.002247 0.000000 0.021248 0.000000
# 6 0.000000 0.000000 0.000000 0.000419 0.000000 0.036733
#
#
# Mechanical properties :
#
#
# Convention : Reuss Voigt Hill
#
# Bulk Modulus (GPa) = 21.28228 53.95007 37.61617
# Shear Modulus (GPa) = 27.80137 41.64318 34.72227
#
# Velocity S-wave (km/s) = 3.41576 4.18048 3.81732
# Velocity P-wave (km/s) = 4.94855 6.77814 5.93428
#
# Compressibility (1/GPa) = 0.04698745
#
# Stress axis : x y z
#
# Youngs Moduli (GPa) = 99.01530 20.25904 141.92516
#
# Poissons Ratio (x) = 0.04215 0.30593
# Poissons Ratio (y) = 0.20599 0.78391
# Poissons Ratio (z) = 0.21343 0.11190
#
# Static dielectric constant tensor:
#      x y z
#    x 2.138320 0.000000 -0.310990 
#    y 0.000000 2.014340 0.000000 
#    z -0.310990 0.000000 2.667440 
# 
# From -- ./inp_files/54972.got.cif
#   From: 2010.05.17/outbox.cif.g08.bks.cpg/sg15_28_cif.got.tgz:54972.got - 2010.06.03 18:47:42.
