data_PCOD9306360
_publ_section_title
;
Structure prediction by ZEFSAII (Michael W. Deem and Ramdas Pophale) SiO2 
 PCOD9306360
Probable space group: C 2/C
;
_chemical_formula_sum "Si O2"
_cell_formula_units_Z 44
_cell_length_a 6.597197
_cell_length_b 20.870402
_cell_length_c 16.936681
_cell_angle_alpha 90.000000
_cell_angle_beta 111.779739
_cell_angle_gamma 90.000000
_cell_volume 2165.485341
_symmetry_space_group_name_H-M "C 2/C"
_symmetry_group_IT_number 15
_symmetry_cell_setting 'monoclinic'
loop_
_space_group_symop_operation_xyz
x,y,z
-x,y,1/2-z
-x,-y,-z
x,-y,1/2+z
1/2+x,1/2+y,z
1/2-x,1/2+y,1/2-z
1/2-x,1/2-y,-z
1/2+x,1/2-y,1/2+z
loop_
_atom_site_type_symbol
_atom_site_label
_atom_site_fract_x
_atom_site_fract_y
_atom_site_fract_z
Si Si1 0.549275 0.443262 0.946348
Si Si2 0.970711 0.288077 0.525391
Si Si3 0.285779 0.831354 0.080452
Si Si4 0.919812 0.383752 0.661139
Si Si5 0.500000 0.098636 0.750000
Si Si6 0.254814 0.496205 0.681860
O O1 0.324905 0.413601 0.876978
O O2 0.704389 0.478050 0.904200
O O3 0.500000 0.500000 0.000000
O O4 0.657129 0.384396 0.009768
O O5 0.750000 0.250000 0.500000
O O6 0.960484 0.343085 0.588751
O O7 0.158852 0.235768 0.567975
O O8 0.003812 0.316506 0.442974
O O9 0.338600 0.859405 0.173344
O O10 0.000000 0.344674 0.750000
O O11 0.095951 0.440167 0.686535
O O12 0.633978 0.057255 0.703859
O O13 0.500000 0.495435 0.750000
#
# Coordination Sequence:
#
# PCOD9306360 Si02
#       6
#     8   8   8   8   4   8
#     4  12  25  42  72 104 142 184 229 289 363 419
#     4  11  25  47  73  97 140 189 244 291 352 419
#     4  11  26  47  68 104 139 187 240 294 345 428
#     4  12  24  43  69 106 137 183 239 288 351 423
#     4  12  28  46  70 108 146 184 234 288 370 418
#     4  12  23  43  68 104 145 176 227 288 349 431
#
# _framework density 20.318770000000001
#
# number of rings (size 3 to 8) (size 9 to 14) (size 15 to 20)
#    0.000    0.364    6.364    2.182    2.545    4.364 
#    1.636    0.000    0.000    0.000    0.000    0.000 
#    0.000    0.000    0.000    0.000    0.000    0.000 
#
# Total GULP energy -122733.122877 kJ/mol
# GULP energy per Si atom -5578.778313 kJ/mol
# Density = 2.027252 g / cm^3
# Si number density = 20.318770 Si / 1000 Ang^3
#
#
#
# Elastic Constant Matrix: (Units=GPa)
#
#
# Indices 1 2 3 4 5 6 
#
# 1 91.6390 18.4656 21.1188 0.0000 -12.2694 0.0000
# 2 18.4656 75.1942 20.7864 0.0000 -8.2583 0.0000
# 3 21.1188 20.7864 86.7642 0.0000 -9.0073 0.0000
# 4 0.0000 0.0000 0.0000 -0.7499 0.0000 11.5304
# 5 -12.2694 -8.2583 -9.0073 0.0000 42.1771 0.0000
# 6 0.0000 0.0000 0.0000 11.5304 0.0000 21.9624
#
#
#
# Elastic Compliance Matrix: (Units=1/GPa)
#
#
# Indices 1 2 3 4 5 6 
#
# 1 0.012197 -0.002097 -0.002189 0.000000 0.002670 0.000000
# 2 -0.002097 0.014788 -0.002859 0.000000 0.001675 0.000000
# 3 -0.002189 -0.002859 0.012905 0.000000 0.001559 0.000000
# 4 0.000000 0.000000 0.000000 -0.146983 0.000000 0.077167
# 5 0.002670 0.001675 0.001559 0.000000 0.025147 0.000000
# 6 0.000000 0.000000 0.000000 0.077167 0.000000 0.005019
#
#
# Mechanical properties :
#
#
# Convention : Reuss Voigt Hill
#
# Bulk Modulus (GPa) = 39.06129 41.59321 40.32725
# Shear Modulus (GPa) = -92.41426 25.55967 -33.42729
#
# Velocity S-wave (km/s) = -6.75137 3.55058 -4.06044
# Velocity P-wave (km/s) = 6.44272 6.10931 1.44654
#
# Compressibility (1/GPa) = 0.02560079
#
# Stress axis : x y z
#
# Youngs Moduli (GPa) = 81.98794 67.62254 77.48882
#
# Poissons Ratio (x) = 0.14179 0.16964
# Poissons Ratio (y) = 0.17191 0.22150
# Poissons Ratio (z) = 0.17949 0.19330
#
# Static dielectric constant tensor:
#      x y z
#    x 1.721030 0.000000 -0.013830 
#    y 0.000000 1.701660 0.000000 
#    z -0.013830 0.000000 1.749760 
# 
# From -- ./inp_files/184824.got.cif
#   From: 2010.05.17/outbox.cif.g08.bks.cpg/sg15_93_cif.got.tgz:184824.got - 2010.06.03 18:47:42.
