data_PCOD9306447
_publ_section_title
;
Structure prediction by ZEFSAII (Michael W. Deem and Ramdas Pophale) SiO2 
 PCOD9306447
Probable space group: C 2/C
;
_chemical_formula_sum "Si O2"
_cell_formula_units_Z 40
_cell_length_a 16.335344
_cell_length_b 10.016321
_cell_length_c 14.181446
_cell_angle_alpha 90.000000
_cell_angle_beta 129.526936
_cell_angle_gamma 90.000000
_cell_volume 1789.759612
_symmetry_space_group_name_H-M "C 2/C"
_symmetry_group_IT_number 15
_symmetry_cell_setting 'monoclinic'
loop_
_space_group_symop_operation_xyz
x,y,z
-x,y,1/2-z
-x,-y,-z
x,-y,1/2+z
1/2+x,1/2+y,z
1/2-x,1/2+y,1/2-z
1/2-x,1/2-y,-z
1/2+x,1/2-y,1/2+z
loop_
_atom_site_type_symbol
_atom_site_label
_atom_site_fract_x
_atom_site_fract_y
_atom_site_fract_z
Si Si1 0.232838 0.862200 0.065960
Si Si2 0.165462 0.766142 0.676847
Si Si3 0.657103 0.128532 0.334372
Si Si4 0.535713 0.780497 0.917231
Si Si5 0.000242 0.975315 0.637005
O O1 0.271863 0.809433 0.195737
O O2 0.308039 0.987555 0.098553
O O3 0.250000 0.750000 0.000000
O O4 0.111446 0.911299 0.976847
O O5 0.247576 0.820571 0.660059
O O6 0.084375 0.680580 0.553146
O O7 0.097625 0.886143 0.672523
O O8 0.556101 0.125809 0.190677
O O9 0.622645 0.220199 0.396771
O O10 0.493918 0.628294 0.892984
O O11 0.000000 0.976550 0.750000
#
# Coordination Sequence:
#
# PCOD9306447 Si02
#       5
#     8   8   8   8   8
#     4  12  28  46  71 107 147 193 242 302 368 429
#     4  12  26  43  76 108 148 189 251 295 363 436
#     4  11  26  44  75 110 141 192 244 302 363 435
#     4  11  25  48  77 106 147 190 248 297 372 433
#     4  12  24  47  76 102 147 202 237 301 364 444
#
# _framework density 22.349371999999999
#
# number of rings (size 3 to 8) (size 9 to 14) (size 15 to 20)
#    0.000    0.400    6.000    2.400    2.800    5.600 
#    0.000    0.000    0.000    0.000    0.000    0.000 
#    0.000    0.000    0.000    0.000    0.000    0.000 
#
# Total GULP energy -111985.859280 kJ/mol
# GULP energy per Si atom -5599.292964 kJ/mol
# Density = 2.229850 g / cm^3
# Si number density = 22.349372 Si / 1000 Ang^3
#
#
#
# Elastic Constant Matrix: (Units=GPa)
#
#
# Indices 1 2 3 4 5 6 
#
# 1 76.4254 12.5796 27.5264 0.0000 7.1445 0.0000
# 2 12.5796 57.6382 28.2234 0.0000 12.1346 0.0000
# 3 27.5264 28.2234 177.2250 0.0000 -10.4927 0.0000
# 4 0.0000 0.0000 0.0000 46.4905 0.0000 3.4037
# 5 7.1445 12.1346 -10.4927 0.0000 45.2933 0.0000
# 6 0.0000 0.0000 0.0000 3.4037 0.0000 20.3098
#
#
#
# Elastic Compliance Matrix: (Units=1/GPa)
#
#
# Indices 1 2 3 4 5 6 
#
# 1 0.014324 -0.001607 -0.002106 0.000000 -0.002317 0.000000
# 2 -0.001607 0.020640 -0.003396 0.000000 -0.006063 0.000000
# 3 -0.002106 -0.003396 0.006676 0.000000 0.002789 0.000000
# 4 0.000000 0.000000 0.000000 0.021777 0.000000 -0.003650
# 5 -0.002317 -0.006063 0.002789 0.000000 0.024714 0.000000
# 6 0.000000 0.000000 0.000000 -0.003650 0.000000 0.049849
#
#
# Mechanical properties :
#
#
# Convention : Reuss Voigt Hill
#
# Bulk Modulus (GPa) = 36.46893 49.77196 43.12044
# Shear Modulus (GPa) = 30.99058 38.61597 34.80328
#
# Velocity S-wave (km/s) = 3.72780 4.16123 3.95047
# Velocity P-wave (km/s) = 5.90608 6.73840 6.33592
#
# Compressibility (1/GPa) = 0.02742060
#
# Stress axis : x y z
#
# Youngs Moduli (GPa) = 69.81128 48.44994 149.79901
#
# Poissons Ratio (x) = 0.07787 0.31548
# Poissons Ratio (y) = 0.11221 0.50875
# Poissons Ratio (z) = 0.14703 0.16455
#
# Static dielectric constant tensor:
#      x y z
#    x 1.823840 0.000000 0.029510 
#    y 0.000000 1.802020 0.000000 
#    z 0.029510 0.000000 1.861040 
# 
# From -- ./inp_files/151518.got.cif
#   From: 2010.05.17/outbox.cif.g08.bks.cpg/sg15_76_cif.got.tgz:151518.got - 2010.06.03 18:47:42.
