data_PCOD9306991
_publ_section_title
;
Structure prediction by ZEFSAII (Michael W. Deem and Ramdas Pophale) SiO2 
 PCOD9306991
Probable space group: C 2/C
;
_chemical_formula_sum "Si O2"
_cell_formula_units_Z 44
_cell_length_a 10.798223
_cell_length_b 25.754712
_cell_length_c 9.946283
_cell_angle_alpha 90.000000
_cell_angle_beta 45.918697
_cell_angle_gamma 90.000000
_cell_volume 1987.046017
_symmetry_space_group_name_H-M "C 2/C"
_symmetry_group_IT_number 15
_symmetry_cell_setting 'monoclinic'
loop_
_space_group_symop_operation_xyz
x,y,z
-x,y,1/2-z
-x,-y,-z
x,-y,1/2+z
1/2+x,1/2+y,z
1/2-x,1/2+y,1/2-z
1/2-x,1/2-y,-z
1/2+x,1/2-y,1/2+z
loop_
_atom_site_type_symbol
_atom_site_label
_atom_site_fract_x
_atom_site_fract_y
_atom_site_fract_z
Si Si1 0.992745 0.205400 0.089049
Si Si2 0.399699 0.183634 0.095021
Si Si3 0.317587 0.024726 0.566802
Si Si4 0.500000 0.103768 0.250000
Si Si5 0.844250 0.899911 0.102106
Si Si6 0.000000 0.626987 0.750000
Si Si7 0.000000 0.952991 0.750000
O O1 0.797664 0.188640 0.214061
O O2 0.000000 0.210559 0.250000
O O3 0.026493 0.258716 0.983939
O O4 0.119862 0.162118 0.927688
O O5 0.477360 0.142852 0.141674
O O6 0.425865 0.159959 0.928107
O O7 0.362399 0.062215 0.408274
O O8 0.186926 0.062417 0.750500
O O9 0.500000 0.000000 0.500000
O O10 0.182455 0.981701 0.621701
O O11 0.656561 0.906331 0.180638
O O12 0.990597 0.919574 0.892062
#
# Coordination Sequence:
#
# PCOD9306991 Si02
#       7
#     8   8   8   4   8   4   4
#     4  12  24  44  75 110 145 197 253 310 369 451
#     4  12  26  45  75 106 155 191 255 302 380 451
#     4  12  28  49  75 105 155 199 256 313 382 447
#     4  12  30  51  73 112 153 202 239 312 388 454
#     4  12  24  43  75 106 143 193 247 317 368 438
#     4  12  20  44  74 104 144 196 248 306 368 436
#     4  12  26  45  75 114 139 196 261 314 374 444
#
# _framework density 22.143422999999999
#
# number of rings (size 3 to 8) (size 9 to 14) (size 15 to 20)
#    0.000    0.000    5.455    4.364    5.091    0.727 
#    0.000    0.000    0.000    0.000    0.000    0.000 
#    0.000    0.000    0.000    0.000    0.000    0.000 
#
# Total GULP energy -122545.845102 kJ/mol
# GULP energy per Si atom -5570.265686 kJ/mol
# Density = 2.209302 g / cm^3
# Si number density = 22.143423 Si / 1000 Ang^3
#
#
#
# Elastic Constant Matrix: (Units=GPa)
#
#
# Indices 1 2 3 4 5 6 
#
# 1 -70.7292 -112.2563 -137.1237 0.0000 -36.2092 0.0000
# 2 -112.2563 -69.4699 -139.7199 0.0000 -24.8543 0.0000
# 3 -137.1237 -139.7199 -95.6917 0.0000 -28.2218 0.0000
# 4 0.0000 0.0000 0.0000 78.9692 0.0000 -18.5137
# 5 -36.2092 -24.8543 -28.2218 0.0000 33.4657 0.0000
# 6 0.0000 0.0000 0.0000 -18.5137 0.0000 -26.0390
#
#
#
# Elastic Compliance Matrix: (Units=1/GPa)
#
#
# Indices 1 2 3 4 5 6 
#
# 1 0.014879 -0.010021 -0.007401 0.000000 0.002415 0.000000
# 2 -0.010021 0.014554 -0.005509 0.000000 -0.004680 0.000000
# 3 -0.007401 -0.005509 0.009424 0.000000 -0.004152 0.000000
# 4 0.000000 0.000000 0.000000 0.010854 0.000000 -0.007717
# 5 0.002415 -0.004680 -0.004152 0.000000 0.025517 0.000000
# 6 0.000000 0.000000 0.000000 -0.007717 0.000000 -0.032917
#
#
# Mechanical properties :
#
#
# Convention : Reuss Voigt Hill
#
# Bulk Modulus (GPa) = -142.71954 -112.67676 -127.69815
# Shear Modulus (GPa) = 58.24957 27.49310 42.87134
#
# Velocity S-wave (km/s) = 5.13446 3.52745 4.40486
# Velocity P-wave (km/s) = 5.42605 5.86557 5.65009
#
# Compressibility (1/GPa) = -0.00700675
#
# Stress axis : x y z
#
# Youngs Moduli (GPa) = 67.21043 68.71184 106.10943
#
# Poissons Ratio (x) = 0.68857 0.78532
# Poissons Ratio (y) = 0.67352 0.58461
# Poissons Ratio (z) = 0.49743 0.37857
#
# Static dielectric constant tensor:
#      x y z
#    x 1.881440 0.000000 0.065550 
#    y 0.000000 2.045700 0.000000 
#    z 0.065550 0.000000 1.881180 
# 
# From -- ./inp_files/43730.got.cif
#   From: 2010.05.17/outbox.cif.g08.bks.cpg/sg15_22_cif.got.tgz:43730.got - 2010.06.03 18:47:42.
