data_PCOD9306968
_publ_section_title
;
Structure prediction by ZEFSAII (Michael W. Deem and Ramdas Pophale) SiO2 
 PCOD9306968
Probable space group: C 2/C
;
_chemical_formula_sum "Si O2"
_cell_formula_units_Z 60
_cell_length_a 8.855305
_cell_length_b 23.680450
_cell_length_c 14.628075
_cell_angle_alpha 90.000000
_cell_angle_beta 87.754634
_cell_angle_gamma 90.000000
_cell_volume 3065.117147
_symmetry_space_group_name_H-M "C 2/C"
_symmetry_group_IT_number 15
_symmetry_cell_setting 'monoclinic'
loop_
_space_group_symop_operation_xyz
x,y,z
-x,y,1/2-z
-x,-y,-z
x,-y,1/2+z
1/2+x,1/2+y,z
1/2-x,1/2+y,1/2-z
1/2-x,1/2-y,-z
1/2+x,1/2-y,1/2+z
loop_
_atom_site_type_symbol
_atom_site_label
_atom_site_fract_x
_atom_site_fract_y
_atom_site_fract_z
Si Si1 0.952469 0.748500 0.152666
Si Si2 0.125845 0.292177 0.175819
Si Si3 0.115512 0.862204 0.095760
Si Si4 0.575595 0.052392 0.445077
Si Si5 0.095513 0.944176 0.474754
Si Si6 0.000000 0.492464 0.750000
Si Si7 0.760976 0.915152 0.225116
Si Si8 0.063275 0.670452 0.990834
O O1 0.014695 0.812017 0.138547
O O2 0.000000 0.727278 0.250000
O O3 0.771096 0.753099 0.155407
O O4 0.035556 0.710173 0.077378
O O5 0.184830 0.353931 0.207830
O O6 0.000000 0.270811 0.250000
O O7 0.040060 0.303083 0.084694
O O8 0.023282 0.892748 0.017047
O O9 0.157366 0.904259 0.179213
O O10 0.268488 0.836256 0.051459
O O11 0.535993 0.043589 0.339600
O O12 0.498002 0.108607 0.484191
O O13 0.753553 0.056020 0.466944
O O14 0.500000 0.000000 0.500000
O O15 0.148505 0.934748 0.367714
O O16 0.000000 0.000000 0.500000
O O17 0.139636 0.535387 0.737378
#
# Coordination Sequence:
#
# PCOD9306968 Si02
#       8
#     8   8   8   8   8   4   8   8
#     4  12  24  43  65  99 139 180 230 286 357 420
#     4  12  21  41  69  99 129 174 234 296 341 411
#     4  12  23  42  70 100 135 181 235 295 347 410
#     4  12  24  45  64  97 137 178 231 282 343 426
#     4  12  24  39  65 101 140 174 223 297 350 404
#     4  12  24  38  68  96 130 180 226 274 354 412
#     4  12  20  39  68  96 131 171 232 288 339 406
#     4  12  25  41  68  97 136 183 231 284 357 421
#
# _framework density 19.575108
#
# number of rings (size 3 to 8) (size 9 to 14) (size 15 to 20)
#    0.000    0.000    7.333    3.600    0.933    0.000 
#    0.000    0.000    0.000    0.000    0.000    0.000 
#    0.000    0.000    0.000    0.000    0.000    0.000 
#
# Total GULP energy -167632.058829 kJ/mol
# GULP energy per Si atom -5587.735294 kJ/mol
# Density = 1.953055 g / cm^3
# Si number density = 19.575108 Si / 1000 Ang^3
#
#
#
# Elastic Constant Matrix: (Units=GPa)
#
#
# Indices 1 2 3 4 5 6 
#
# 1 144.2925 24.7990 61.0017 0.0000 2.6830 0.0000
# 2 24.7990 40.2229 32.9127 0.0000 1.6473 0.0000
# 3 61.0017 32.9127 127.2437 0.0000 13.1572 0.0000
# 4 0.0000 0.0000 0.0000 -8.0173 0.0000 9.8867
# 5 2.6830 1.6473 13.1572 0.0000 39.9761 0.0000
# 6 0.0000 0.0000 0.0000 9.8867 0.0000 -27.5836
#
#
#
# Elastic Compliance Matrix: (Units=1/GPa)
#
#
# Indices 1 2 3 4 5 6 
#
# 1 0.008910 -0.002495 -0.003701 0.000000 0.000723 0.000000
# 2 -0.002495 0.032314 -0.007290 0.000000 0.001235 0.000000
# 3 -0.003701 -0.007290 0.011866 0.000000 -0.003357 0.000000
# 4 0.000000 0.000000 0.000000 -0.223531 0.000000 -0.080120
# 5 0.000723 0.001235 -0.003357 0.000000 0.026020 0.000000
# 6 0.000000 0.000000 0.000000 -0.080120 0.000000 -0.064970
#
#
# Mechanical properties :
#
#
# Convention : Reuss Voigt Hill
#
# Bulk Modulus (GPa) = 38.28682 61.02064 49.65373
# Shear Modulus (GPa) = -28.78318 13.74475 -7.51921
#
# Velocity S-wave (km/s) = -3.83874 2.65269 -1.96203
# Velocity P-wave (km/s) = 0.21554 6.37359 4.50423
#
# Compressibility (1/GPa) = 0.02611865
#
# Stress axis : x y z
#
# Youngs Moduli (GPa) = 112.22823 30.94620 84.27408
#
# Poissons Ratio (x) = 0.07720 0.31192
# Poissons Ratio (y) = 0.27997 0.61437
# Poissons Ratio (z) = 0.41538 0.22560
#
# Static dielectric constant tensor:
#      x y z
#    x 1.711290 0.000000 0.000480 
#    y 0.000000 1.688610 0.000000 
#    z 0.000480 0.000000 1.705130 
# 
# From -- ./inp_files/137344.got.cif
#   From: 2010.05.17/outbox.cif.g08.bks.cpg/sg15_69_cif.got.tgz:137344.got - 2010.06.03 18:47:42.
