data_PCOD9306650
_publ_section_title
;
Structure prediction by ZEFSAII (Michael W. Deem and Ramdas Pophale) SiO2 
 PCOD9306650
Probable space group: C 2/C
;
_chemical_formula_sum "Si O2"
_cell_formula_units_Z 52
_cell_length_a 18.630341
_cell_length_b 19.119971
_cell_length_c 12.586496
_cell_angle_alpha 90.000000
_cell_angle_beta 147.791574
_cell_angle_gamma 90.000000
_cell_volume 2389.685042
_symmetry_space_group_name_H-M "C 2/C"
_symmetry_group_IT_number 15
_symmetry_cell_setting 'monoclinic'
loop_
_space_group_symop_operation_xyz
x,y,z
-x,y,1/2-z
-x,-y,-z
x,-y,1/2+z
1/2+x,1/2+y,z
1/2-x,1/2+y,1/2-z
1/2-x,1/2-y,-z
1/2+x,1/2-y,1/2+z
loop_
_atom_site_type_symbol
_atom_site_label
_atom_site_fract_x
_atom_site_fract_y
_atom_site_fract_z
Si Si1 0.303428 0.602906 0.424756
Si Si2 0.804105 0.516326 0.858663
Si Si3 0.893247 0.632850 0.828666
Si Si4 0.843650 0.215214 0.027274
Si Si5 0.380358 0.232660 0.344605
Si Si6 0.000000 0.436278 0.250000
Si Si7 0.099111 0.888305 0.215840
O O1 0.223094 0.541725 0.265022
O O2 0.215916 0.673227 0.321054
O O3 0.347748 0.590513 0.601034
O O4 0.438030 0.611273 0.522677
O O5 0.901662 0.573519 0.927659
O O6 0.668882 0.556854 0.724217
O O7 0.877064 0.482520 0.051669
O O8 0.737056 0.646158 0.607115
O O9 0.957925 0.609661 0.798573
O O10 0.967713 0.701937 0.965663
O O11 0.000000 0.203801 0.250000
O O12 0.750000 0.250000 0.000000
O O13 0.843750 0.261836 0.922534
O O14 0.364641 0.308441 0.271642
#
# Coordination Sequence:
#
# PCOD9306650 Si02
#       7
#     8   8   8   8   8   4   8
#     4  11  26  48  71 103 151 187 244 307 361 441
#     4  12  26  47  74 103 144 190 244 298 365 445
#     4  12  25  45  70 107 142 188 243 295 368 429
#     4  12  25  43  69 107 145 189 240 299 367 431
#     4  12  24  46  73 103 150 189 242 304 364 437
#     4  12  26  46  74 102 144 190 240 306 364 442
#     4  11  26  47  72 109 138 196 245 295 376 434
#
# _framework density 21.760189
#
# number of rings (size 3 to 8) (size 9 to 14) (size 15 to 20)
#    0.000    0.308    4.615    4.154    2.154    0.000 
#    5.538    0.000    0.000    0.000    0.000    0.000 
#    0.000    0.000    0.000    0.000    0.000    0.000 
#
# Total GULP energy -145383.883259 kJ/mol
# GULP energy per Si atom -5591.687818 kJ/mol
# Density = 2.171066 g / cm^3
# Si number density = 21.760189 Si / 1000 Ang^3
#
#
#
# Elastic Constant Matrix: (Units=GPa)
#
#
# Indices 1 2 3 4 5 6 
#
# 1 75.9311 18.7327 17.3314 0.0000 5.9008 0.0000
# 2 18.7327 92.4247 26.1825 0.0000 -1.6350 0.0000
# 3 17.3314 26.1825 96.5085 0.0000 14.9811 0.0000
# 4 0.0000 0.0000 0.0000 40.9588 0.0000 5.1380
# 5 5.9008 -1.6350 14.9811 0.0000 33.9541 0.0000
# 6 0.0000 0.0000 0.0000 5.1380 0.0000 32.2276
#
#
#
# Elastic Compliance Matrix: (Units=1/GPa)
#
#
# Indices 1 2 3 4 5 6 
#
# 1 0.014294 -0.002477 -0.001600 0.000000 -0.001897 0.000000
# 2 -0.002477 0.012293 -0.003273 0.000000 0.002466 0.000000
# 3 -0.001600 -0.003273 0.012365 0.000000 -0.005335 0.000000
# 4 0.000000 0.000000 0.000000 0.024913 0.000000 -0.003972
# 5 -0.001897 0.002466 -0.005335 0.000000 0.032254 0.000000
# 6 0.000000 0.000000 0.000000 -0.003972 0.000000 0.031663
#
#
# Mechanical properties :
#
#
# Convention : Reuss Voigt Hill
#
# Bulk Modulus (GPa) = 41.23629 43.26193 42.24911
# Shear Modulus (GPa) = 33.20809 34.93593 34.07201
#
# Velocity S-wave (km/s) = 3.91076 4.01121 3.96131
# Velocity P-wave (km/s) = 6.27563 6.43253 6.35457
#
# Compressibility (1/GPa) = 0.02425048
#
# Stress axis : x y z
#
# Youngs Moduli (GPa) = 69.96082 81.35035 80.87144
#
# Poissons Ratio (x) = 0.20153 0.12942
# Poissons Ratio (y) = 0.17331 0.26469
# Poissons Ratio (z) = 0.11196 0.26625
#
# Static dielectric constant tensor:
#      x y z
#    x 1.801550 0.000000 0.031610 
#    y 0.000000 1.803250 0.000000 
#    z 0.031610 0.000000 1.814560 
# 
# From -- ./inp_files/169029.got.cif
#   From: 2010.05.17/outbox.cif.g08.bks.cpg/sg15_85_cif.got.tgz:169029.got - 2010.06.03 18:47:42.
