data_PCOD9306868
_publ_section_title
;
Structure prediction by ZEFSAII (Michael W. Deem and Ramdas Pophale) SiO2 
 PCOD9306868
Probable space group: C 2/C
;
_chemical_formula_sum "Si O2"
_cell_formula_units_Z 28
_cell_length_a 13.556975
_cell_length_b 4.817981
_cell_length_c 17.765349
_cell_angle_alpha 90.000000
_cell_angle_beta 116.229164
_cell_angle_gamma 90.000000
_cell_volume 1040.903084
_symmetry_space_group_name_H-M "C 2/C"
_symmetry_group_IT_number 15
_symmetry_cell_setting 'monoclinic'
loop_
_space_group_symop_operation_xyz
x,y,z
-x,y,1/2-z
-x,-y,-z
x,-y,1/2+z
1/2+x,1/2+y,z
1/2-x,1/2+y,1/2-z
1/2-x,1/2-y,-z
1/2+x,1/2-y,1/2+z
loop_
_atom_site_type_symbol
_atom_site_label
_atom_site_fract_x
_atom_site_fract_y
_atom_site_fract_z
Si Si1 0.282301 0.315038 0.142847
Si Si2 0.130618 0.783893 0.091445
Si Si3 0.000000 0.536934 0.250000
Si Si4 0.435745 0.361318 0.591062
O O1 0.199010 0.535033 0.151511
O O2 0.330376 0.472609 0.086249
O O3 0.214496 0.037748 0.106972
O O4 0.392825 0.228488 0.223021
O O5 0.090120 0.698214 0.994405
O O6 0.028061 0.914451 0.100138
O O7 0.975739 0.341134 0.170465
#
# Coordination Sequence:
#
# PCOD9306868 Si02
#       4
#     8   8   4   8
#     4  12  26  51  74 116 150 205 249 334 376 466
#     4  11  28  48  88 104 152 206 271 301 393 457
#     4  12  28  50  76 114 176 192 260 328 404 446
#     4  11  27  53  76 118 149 206 259 326 371 481
#
# _framework density 26.899719999999999
#
# number of rings (size 3 to 8) (size 9 to 14) (size 15 to 20)
#    0.000    0.571    2.857    2.571    8.000    2.286 
#   10.286    0.000    0.000    0.000    0.000    0.000 
#    0.000    0.000    0.000    0.000    0.000    0.000 
#
# Total GULP energy -78661.844278 kJ/mol
# GULP energy per Si atom -5618.703163 kJ/mol
# Density = 2.683849 g / cm^3
# Si number density = 26.899720 Si / 1000 Ang^3
#
#
#
# Elastic Constant Matrix: (Units=GPa)
#
#
# Indices 1 2 3 4 5 6 
#
# 1 139.7235 48.4070 59.6110 0.0000 20.6262 0.0000
# 2 48.4070 158.6517 51.0052 0.0000 20.5349 0.0001
# 3 59.6110 51.0052 81.0073 0.0000 3.2892 0.0000
# 4 0.0000 0.0000 0.0000 33.6235 0.0000 17.9577
# 5 20.6262 20.5349 3.2892 0.0000 34.2130 0.0000
# 6 0.0000 0.0001 0.0000 17.9577 0.0000 57.1511
#
#
#
# Elastic Compliance Matrix: (Units=1/GPa)
#
#
# Indices 1 2 3 4 5 6 
#
# 1 0.011611 -0.000101 -0.008231 0.000000 -0.006148 0.000000
# 2 -0.000101 0.008582 -0.005143 0.000000 -0.004596 0.000000
# 3 -0.008231 -0.005143 0.021397 0.000000 0.005992 0.000000
# 4 0.000000 0.000000 0.000000 0.035739 0.000000 -0.011230
# 5 -0.006148 -0.004596 0.005992 0.000000 0.035118 0.000000
# 6 0.000000 0.000000 0.000000 -0.011230 0.000000 0.021026
#
#
# Mechanical properties :
#
#
# Convention : Reuss Voigt Hill
#
# Bulk Modulus (GPa) = 68.30545 77.49212 72.89878
# Shear Modulus (GPa) = 30.24755 39.68815 34.96785
#
# Velocity S-wave (km/s) = 3.35693 3.84528 3.60937
# Velocity P-wave (km/s) = 6.36184 6.97031 6.67301
#
# Compressibility (1/GPa) = 0.01464012
#
# Stress axis : x y z
#
# Youngs Moduli (GPa) = 86.12290 116.52153 46.73613
#
# Poissons Ratio (x) = 0.01173 0.38471
# Poissons Ratio (y) = 0.00867 0.24036
# Poissons Ratio (z) = 0.70891 0.59926
#
# Static dielectric constant tensor:
#      x y z
#    x 2.082250 0.000000 -0.014960 
#    y 0.000000 2.050180 0.000000 
#    z -0.014960 0.000000 2.090980 
# 
# From -- ./inp_files/201775.got.cif
#   From: 2010.05.17/outbox.cif.g08.bks.cpg/sg15_101_cif.got.tgz:201775.got - 2010.06.03 18:47:42.
