data_PCOD9306816
_publ_section_title
;
Structure prediction by ZEFSAII (Michael W. Deem and Ramdas Pophale) SiO2 
 PCOD9306816
Probable space group: C 2/C
;
_chemical_formula_sum "Si O2"
_cell_formula_units_Z 40
_cell_length_a 10.997610
_cell_length_b 7.338791
_cell_length_c 18.756343
_cell_angle_alpha 90.000000
_cell_angle_beta 94.027911
_cell_angle_gamma 90.000000
_cell_volume 1510.069530
_symmetry_space_group_name_H-M "C 2/C"
_symmetry_group_IT_number 15
_symmetry_cell_setting 'monoclinic'
loop_
_space_group_symop_operation_xyz
x,y,z
-x,y,1/2-z
-x,-y,-z
x,-y,1/2+z
1/2+x,1/2+y,z
1/2-x,1/2+y,1/2-z
1/2-x,1/2-y,-z
1/2+x,1/2-y,1/2+z
loop_
_atom_site_type_symbol
_atom_site_label
_atom_site_fract_x
_atom_site_fract_y
_atom_site_fract_z
Si Si1 0.206320 0.868519 0.448593
Si Si2 0.566446 0.831031 0.821962
Si Si3 0.918250 0.747489 0.682253
Si Si4 0.826196 0.697634 0.392759
Si Si5 0.935309 0.077582 0.442108
O O1 0.164136 0.786836 0.368982
O O2 0.175623 0.777665 0.533858
O O3 0.281659 0.060908 0.452340
O O4 0.065847 0.954787 0.463766
O O5 0.500000 0.746385 0.750000
O O6 0.456031 0.867696 0.871832
O O7 0.607729 0.033855 0.805178
O O8 0.782748 0.825126 0.668105
O O9 0.000000 0.817122 0.750000
O O10 0.996791 0.794543 0.614641
O O11 0.850078 0.909901 0.409780
#
# Coordination Sequence:
#
# PCOD9306816 Si02
#       5
#     8   8   8   8   8
#     4  12  26  43  73 105 142 190 242 306 364 435
#     4  11  27  47  69 106 145 191 249 298 367 449
#     4  11  27  47  72 106 145 190 240 298 371 443
#     4  12  25  45  73 101 146 188 236 302 370 425
#     4  12  24  44  71 106 141 186 244 298 355 437
#
# _framework density 26.488847
#
# number of rings (size 3 to 8) (size 9 to 14) (size 15 to 20)
#    0.000    0.400    4.000    3.000    2.800   12.800 
#    0.000    0.000    0.000    0.000    0.000    0.000 
#    0.000    0.000    0.000    0.000    0.000    0.000 
#
# Total GULP energy -111718.119806 kJ/mol
# GULP energy per Si atom -5585.905990 kJ/mol
# Density = 2.642856 g / cm^3
# Si number density = 26.488847 Si / 1000 Ang^3
#
#
#
# Elastic Constant Matrix: (Units=GPa)
#
#
# Indices 1 2 3 4 5 6 
#
# 1 119.0703 14.4897 5.2893 0.0000 6.4520 0.0000
# 2 14.4897 153.1290 8.8140 0.0000 7.5266 0.0000
# 3 5.2893 8.8140 81.0359 0.0000 27.6318 0.0000
# 4 0.0000 0.0000 0.0000 22.8183 0.0000 1.9442
# 5 6.4520 7.5266 27.6318 0.0000 36.9664 0.0000
# 6 0.0000 0.0000 0.0000 1.9442 0.0000 21.3357
#
#
#
# Elastic Compliance Matrix: (Units=1/GPa)
#
#
# Indices 1 2 3 4 5 6 
#
# 1 0.008562 -0.000744 -0.000027 0.000000 -0.001323 0.000000
# 2 -0.000744 0.006668 -0.000346 0.000000 -0.000969 0.000000
# 3 -0.000027 -0.000346 0.016580 0.000000 -0.012318 0.000000
# 4 0.000000 0.000000 0.000000 0.044167 0.000000 -0.004025
# 5 -0.001323 -0.000969 -0.012318 0.000000 0.036687 0.000000
# 6 0.000000 0.000000 0.000000 -0.004025 0.000000 0.047236
#
#
# Mechanical properties :
#
#
# Convention : Reuss Voigt Hill
#
# Bulk Modulus (GPa) = 33.81078 45.60238 39.70658
# Shear Modulus (GPa) = 29.07087 37.86691 33.46889
#
# Velocity S-wave (km/s) = 3.31641 3.78503 3.55844
# Velocity P-wave (km/s) = 5.23991 6.02951 5.64852
#
# Compressibility (1/GPa) = 0.02957637
#
# Stress axis : x y z
#
# Youngs Moduli (GPa) = 116.79843 149.96177 60.31417
#
# Poissons Ratio (x) = 0.11151 0.00162
# Poissons Ratio (y) = 0.08685 0.02089
# Poissons Ratio (z) = 0.00314 0.05194
#
# Static dielectric constant tensor:
#      x y z
#    x 2.004890 0.000000 -0.022950 
#    y 0.000000 2.013600 0.000000 
#    z -0.022950 0.000000 2.130800 
# 
# From -- ./inp_files/195167.got.cif
#   From: 2010.05.17/outbox.cif.g08.bks.cpg/sg15_98_cif.got.tgz:195167.got - 2010.06.03 18:47:42.
