data_PCOD9306183
_publ_section_title
;
Structure prediction by ZEFSAII (Michael W. Deem and Ramdas Pophale) SiO2 
 PCOD9306183
Probable space group: C 2/C
;
_chemical_formula_sum "Si O2"
_cell_formula_units_Z 40
_cell_length_a 13.834871
_cell_length_b 11.002053
_cell_length_c 10.605626
_cell_angle_alpha 90.000000
_cell_angle_beta 92.521101
_cell_angle_gamma 90.000000
_cell_volume 1612.740874
_symmetry_space_group_name_H-M "C 2/C"
_symmetry_group_IT_number 15
_symmetry_cell_setting 'monoclinic'
loop_
_space_group_symop_operation_xyz
x,y,z
-x,y,1/2-z
-x,-y,-z
x,-y,1/2+z
1/2+x,1/2+y,z
1/2-x,1/2+y,1/2-z
1/2-x,1/2-y,-z
1/2+x,1/2-y,1/2+z
loop_
_atom_site_type_symbol
_atom_site_label
_atom_site_fract_x
_atom_site_fract_y
_atom_site_fract_z
Si Si1 0.847171 0.360937 0.618397
Si Si2 0.134513 0.850109 0.048801
Si Si3 0.367915 0.711595 0.367846
Si Si4 0.143769 0.636959 0.876196
Si Si5 0.000000 0.815323 0.250000
Si Si6 0.000000 0.000000 0.000000
O O1 0.736195 0.353616 0.656148
O O2 0.852565 0.311184 0.477109
O O3 0.886160 0.497723 0.627154
O O4 0.911674 0.268500 0.703681
O O5 0.238574 0.860244 0.114369
O O6 0.041468 0.889624 0.132621
O O7 0.117571 0.714706 0.998954
O O8 0.112393 0.954509 0.947935
O O9 0.390514 0.786619 0.244135
O O10 0.446661 0.617432 0.419736
#
# Coordination Sequence:
#
# PCOD9306183 Si02
#       6
#     8   8   8   8   4   4
#     4  11  25  45  73 109 148 199 245 309 382 447
#     4  11  26  45  72 111 147 202 248 304 388 440
#     4  11  25  46  75 113 150 200 251 314 389 441
#     4  11  26  48  75 108 151 197 253 316 370 458
#     4  12  24  46  68 102 148 192 248 302 374 450
#     4  12  24  50  72 112 146 204 254 306 370 478
#
# _framework density 24.802498
#
# number of rings (size 3 to 8) (size 9 to 14) (size 15 to 20)
#    0.000    0.800    6.000    0.000    2.800    4.800 
#    0.000    0.000    0.000    0.000    0.000    0.000 
#    0.000    0.000    0.000    0.000    0.000    0.000 
#
# Total GULP energy -111657.930106 kJ/mol
# GULP energy per Si atom -5582.896505 kJ/mol
# Density = 2.474605 g / cm^3
# Si number density = 24.802498 Si / 1000 Ang^3
#
#
#
# Elastic Constant Matrix: (Units=GPa)
#
#
# Indices 1 2 3 4 5 6 
#
# 1 125.8054 27.4487 30.1514 0.0000 17.8418 0.0000
# 2 27.4487 180.8639 40.9340 0.0000 -3.8922 0.0000
# 3 30.1514 40.9340 84.4422 0.0000 -0.5470 0.0000
# 4 0.0000 0.0000 0.0000 33.7458 0.0000 10.8243
# 5 17.8418 -3.8922 -0.5470 0.0000 36.4350 0.0000
# 6 0.0000 0.0000 0.0000 10.8243 0.0000 36.0898
#
#
#
# Elastic Compliance Matrix: (Units=1/GPa)
#
#
# Indices 1 2 3 4 5 6 
#
# 1 0.009544 -0.000869 -0.003018 0.000000 -0.004812 0.000000
# 2 -0.000869 0.006303 -0.002739 0.000000 0.001058 0.000000
# 3 -0.003018 -0.002739 0.014257 0.000000 0.001399 0.000000
# 4 0.000000 0.000000 0.000000 0.032788 0.000000 -0.009834
# 5 -0.004812 0.001058 0.001399 0.000000 0.029936 0.000000
# 6 0.000000 0.000000 0.000000 -0.009834 0.000000 0.030658
#
#
# Mechanical properties :
#
#
# Convention : Reuss Voigt Hill
#
# Bulk Modulus (GPa) = 59.33486 65.35328 62.34407
# Shear Modulus (GPa) = 35.12357 40.75929 37.94143
#
# Velocity S-wave (km/s) = 3.76723 4.05823 3.91543
# Velocity P-wave (km/s) = 6.54963 6.95454 6.75512
#
# Compressibility (1/GPa) = 0.01685350
#
# Stress axis : x y z
#
# Youngs Moduli (GPa) = 104.77738 158.64306 70.14335
#
# Poissons Ratio (x) = 0.13786 0.21168
# Poissons Ratio (y) = 0.09105 0.19209
# Poissons Ratio (z) = 0.31619 0.43444
#
# Static dielectric constant tensor:
#      x y z
#    x 2.014090 0.000000 -0.035900 
#    y 0.000000 1.987190 0.000000 
#    z -0.035900 0.000000 2.168020 
# 
# From -- ./inp_files/94689.got.cif
#   From: 2010.05.17/outbox.cif.g08.bks.cpg/sg15_48_cif.got.tgz:94689.got - 2010.06.03 18:47:42.
