data_PCOD9306083
_publ_section_title
;
Structure prediction by ZEFSAII (Michael W. Deem and Ramdas Pophale) SiO2 
 PCOD9306083
Probable space group: C 2/C
;
_chemical_formula_sum "Si O2"
_cell_formula_units_Z 48
_cell_length_a 18.563117
_cell_length_b 13.313629
_cell_length_c 17.737255
_cell_angle_alpha 90.000000
_cell_angle_beta 152.529597
_cell_angle_gamma 90.000000
_cell_volume 2022.125633
_symmetry_space_group_name_H-M "C 2/C"
_symmetry_group_IT_number 15
_symmetry_cell_setting 'monoclinic'
loop_
_space_group_symop_operation_xyz
x,y,z
-x,y,1/2-z
-x,-y,-z
x,-y,1/2+z
1/2+x,1/2+y,z
1/2-x,1/2+y,1/2-z
1/2-x,1/2-y,-z
1/2+x,1/2-y,1/2+z
loop_
_atom_site_type_symbol
_atom_site_label
_atom_site_fract_x
_atom_site_fract_y
_atom_site_fract_z
Si Si1 0.211049 0.886472 0.821912
Si Si2 0.617748 0.103920 0.162817
Si Si3 0.217662 0.302939 0.163347
Si Si4 0.637331 0.677216 0.538272
Si Si5 0.670337 0.419437 0.378874
Si Si6 0.361905 0.981786 0.173493
O O1 0.304697 0.940175 0.840565
O O2 0.315295 0.790459 0.940440
O O3 0.175372 0.966379 0.852595
O O4 0.045416 0.843653 0.639700
O O5 0.747363 0.184392 0.309944
O O6 0.580491 0.025804 0.193529
O O7 0.462879 0.166387 0.999381
O O8 0.303773 0.335578 0.320715
O O9 0.283503 0.351792 0.148623
O O10 0.731547 0.599045 0.574078
O O11 0.500000 0.392856 0.250000
O O12 0.790572 0.425391 0.559566
O O13 0.500000 0.939374 0.250000
#
# Coordination Sequence:
#
# PCOD9306083 Si02
#       6
#     8   8   8   8   8   8
#     4  11  25  44  70  97 128 174 222 267 322 382
#     4  11  25  44  70  97 128 174 222 267 322 382
#     4  11  25  44  70  96 130 173 220 271 318 385
#     4  11  25  44  70  96 130 173 220 271 318 385
#     4  12  27  44  65  99 135 172 215 267 331 388
#     4  12  27  44  65  99 135 172 215 267 331 388
#
# _framework density 23.737397000000001
#
# number of rings (size 3 to 8) (size 9 to 14) (size 15 to 20)
#    0.000    0.667    3.333    5.000    9.333    5.333 
#    0.000    0.000    0.000    0.000    0.000    0.000 
#    0.000    0.000    0.000    0.000    0.000    0.000 
#
# Total GULP energy -134499.998431 kJ/mol
# GULP energy per Si atom -5604.166601 kJ/mol
# Density = 2.368337 g / cm^3
# Si number density = 23.737397 Si / 1000 Ang^3
#
#
#
# Elastic Constant Matrix: (Units=GPa)
#
#
# Indices 1 2 3 4 5 6 
#
# 1 145.0597 20.2153 29.6017 0.0002 24.4704 0.0001
# 2 20.2153 47.9762 2.6858 0.0001 -4.0965 0.0002
# 3 29.6017 2.6858 69.0386 0.0007 20.6309 0.0003
# 4 0.0002 0.0001 0.0007 15.1714 0.0001 1.7470
# 5 24.4704 -4.0965 20.6309 0.0001 43.0592 0.0001
# 6 0.0001 0.0002 0.0003 1.7470 0.0001 42.5915
#
#
#
# Elastic Compliance Matrix: (Units=1/GPa)
#
#
# Indices 1 2 3 4 5 6 
#
# 1 0.008599 -0.003849 -0.002296 0.000000 -0.004153 0.000000
# 2 -0.003849 0.022900 -0.000636 0.000000 0.004671 0.000000
# 3 -0.002296 -0.000636 0.017649 -0.000001 -0.007212 0.000000
# 4 0.000000 0.000000 -0.000001 0.066226 0.000000 -0.002717
# 5 -0.004153 0.004671 -0.007212 0.000000 0.029484 0.000000
# 6 0.000000 0.000000 0.000000 -0.002717 0.000000 0.023590
#
#
# Mechanical properties :
#
#
# Convention : Reuss Voigt Hill
#
# Bulk Modulus (GPa) = 28.10215 40.78668 34.44442
# Shear Modulus (GPa) = 25.78987 34.13586 29.96287
#
# Velocity S-wave (km/s) = 3.29973 3.79629 3.55669
# Velocity P-wave (km/s) = 5.13635 6.03619 5.60436
#
# Compressibility (1/GPa) = 0.03558446
#
# Stress axis : x y z
#
# Youngs Moduli (GPa) = 116.28781 43.66779 56.66015
#
# Poissons Ratio (x) = 0.16810 0.13011
# Poissons Ratio (y) = 0.44765 0.03605
# Poissons Ratio (z) = 0.26704 0.02778
#
# Static dielectric constant tensor:
#      x y z
#    x 1.865860 0.000000 -0.030510 
#    y 0.000000 1.896980 0.000000 
#    z -0.030510 0.000000 1.900510 
# 
# From -- ./inp_files/211431.got.cif
#   From: 2010.05.17/outbox.cif.g08.bks.cpg/sg15_106_cif.got.tgz:211431.got - 2010.06.03 18:47:42.
