data_PCOD9306729
_publ_section_title
;
Structure prediction by ZEFSAII (Michael W. Deem and Ramdas Pophale) SiO2 
 PCOD9306729
Probable space group: C 2/C
;
_chemical_formula_sum "Si O2"
_cell_formula_units_Z 40
_cell_length_a 16.739199
_cell_length_b 5.489530
_cell_length_c 16.726048
_cell_angle_alpha 90.000000
_cell_angle_beta 90.127688
_cell_angle_gamma 90.000000
_cell_volume 1536.958339
_symmetry_space_group_name_H-M "C 2/C"
_symmetry_group_IT_number 15
_symmetry_cell_setting 'monoclinic'
loop_
_space_group_symop_operation_xyz
x,y,z
-x,y,1/2-z
-x,-y,-z
x,-y,1/2+z
1/2+x,1/2+y,z
1/2-x,1/2+y,1/2-z
1/2-x,1/2-y,-z
1/2+x,1/2-y,1/2+z
loop_
_atom_site_type_symbol
_atom_site_label
_atom_site_fract_x
_atom_site_fract_y
_atom_site_fract_z
Si Si1 0.651049 0.031948 0.252487
Si Si2 0.500000 0.381576 0.250000
Si Si3 0.948582 0.256354 0.370561
Si Si4 0.867348 0.066721 0.991575
Si Si5 0.768067 0.232692 0.127576
Si Si6 0.000000 0.500000 0.000000
O O1 0.580992 0.228543 0.250298
O O2 0.729093 0.121873 0.206283
O O3 0.616851 0.818302 0.195393
O O4 0.673950 0.940526 0.339609
O O5 0.500220 0.552544 0.328691
O O6 0.993780 0.493117 0.400654
O O7 0.910058 0.175120 0.456373
O O8 0.803930 0.156528 0.924981
O O9 0.932720 0.276045 0.002657
O O10 0.816362 0.045144 0.072180
#
# Coordination Sequence:
#
# PCOD9306729 Si02
#       6
#     8   4   8   8   8   4
#     4  12  27  52  79 117 160 210 276 335 398 495
#     4  12  28  50  82 114 160 216 272 330 400 490
#     4  12  26  50  79 115 154 210 268 325 406 470
#     4  11  26  49  74 114 160 210 255 332 408 478
#     4  11  26  49  76 113 155 205 263 334 410 463
#     4  12  26  50  76 112 162 202 268 324 392 498
#
# _framework density 26.02543
#
# number of rings (size 3 to 8) (size 9 to 14) (size 15 to 20)
#    0.000    0.400    4.000    2.400    8.400    0.800 
#    3.600    0.000    0.000    0.000    0.000    0.000 
#    0.000    0.000    0.000    0.000    0.000    0.000 
#
# Total GULP energy -111693.488318 kJ/mol
# GULP energy per Si atom -5584.674416 kJ/mol
# Density = 2.596620 g / cm^3
# Si number density = 26.025430 Si / 1000 Ang^3
#
#
#
# Elastic Constant Matrix: (Units=GPa)
#
#
# Indices 1 2 3 4 5 6 
#
# 1 106.8467 17.7553 41.0839 0.0000 -2.2051 0.0000
# 2 17.7553 38.5487 19.0896 0.0000 -19.3602 0.0000
# 3 41.0839 19.0896 93.7718 0.0000 -5.2570 0.0000
# 4 0.0000 0.0000 0.0000 50.9058 0.0000 -3.6792
# 5 -2.2051 -19.3602 -5.2570 0.0000 69.6562 0.0000
# 6 0.0000 0.0000 0.0000 -3.6792 0.0000 24.8573
#
#
#
# Elastic Compliance Matrix: (Units=1/GPa)
#
#
# Indices 1 2 3 4 5 6 
#
# 1 0.011645 -0.003675 -0.004409 0.000000 -0.000986 0.000000
# 2 -0.003675 0.034672 -0.004935 0.000000 0.009148 0.000000
# 3 -0.004409 -0.004935 0.013573 0.000000 -0.000487 0.000000
# 4 0.000000 0.000000 0.000000 0.019857 0.000000 0.002939
# 5 -0.000986 0.009148 -0.000487 0.000000 0.016831 0.000000
# 6 0.000000 0.000000 0.000000 0.002939 0.000000 0.040665
#
#
# Mechanical properties :
#
#
# Convention : Reuss Voigt Hill
#
# Bulk Modulus (GPa) = 29.54086 43.89165 36.71625
# Shear Modulus (GPa) = 28.64254 39.83309 34.23782
#
# Velocity S-wave (km/s) = 3.32107 3.91646 3.63099
# Velocity P-wave (km/s) = 5.10699 6.11172 5.63181
#
# Compressibility (1/GPa) = 0.03385142
#
# Stress axis : x y z
#
# Youngs Moduli (GPa) = 85.87441 28.84142 73.67394
#
# Poissons Ratio (x) = 0.10600 0.32483
# Poissons Ratio (y) = 0.31560 0.36361
# Poissons Ratio (z) = 0.37862 0.14234
#
# Static dielectric constant tensor:
#      x y z
#    x 1.575270 0.000000 -0.207540 
#    y 0.000000 0.399760 0.000000 
#    z -0.207540 0.000000 1.927780 
# 
# From -- ./inp_files/208078.got.cif
#   From: 2010.05.17/outbox.cif.g08.bks.cpg/sg15_105_cif.got.tgz:208078.got - 2010.06.03 18:47:42.
