data_PCOD9306591
_publ_section_title
;
Structure prediction by ZEFSAII (Michael W. Deem and Ramdas Pophale) SiO2 
 PCOD9306591
Probable space group: C 2/C
;
_chemical_formula_sum "Si O2"
_cell_formula_units_Z 40
_cell_length_a 22.838254
_cell_length_b 7.527325
_cell_length_c 9.606872
_cell_angle_alpha 90.000000
_cell_angle_beta 100.554616
_cell_angle_gamma 90.000000
_cell_volume 1623.583997
_symmetry_space_group_name_H-M "C 2/C"
_symmetry_group_IT_number 15
_symmetry_cell_setting 'monoclinic'
loop_
_space_group_symop_operation_xyz
x,y,z
-x,y,1/2-z
-x,-y,-z
x,-y,1/2+z
1/2+x,1/2+y,z
1/2-x,1/2+y,1/2-z
1/2-x,1/2-y,-z
1/2+x,1/2-y,1/2+z
loop_
_atom_site_type_symbol
_atom_site_label
_atom_site_fract_x
_atom_site_fract_y
_atom_site_fract_z
Si Si1 0.133233 0.908047 0.484602
Si Si2 0.840315 0.355281 0.729055
Si Si3 0.242944 0.881879 0.126249
Si Si4 0.040081 0.540874 0.150641
Si Si5 0.066120 0.856458 0.737582
O O1 0.136733 0.719483 0.408038
O O2 0.088126 0.906418 0.593456
O O3 0.199125 0.959200 0.562793
O O4 0.111348 0.054780 0.364776
O O5 0.792263 0.219232 0.768573
O O6 0.805857 0.539917 0.700483
O O7 0.898403 0.359557 0.852312
O O8 0.250000 0.750000 0.000000
O O9 0.061504 0.357251 0.232438
O O10 0.000000 0.636469 0.250000
O O11 0.000000 0.500000 0.000000
O O12 0.000000 0.919639 0.750000
#
# Coordination Sequence:
#
# PCOD9306591 Si02
#       5
#     8   8   8   8   8
#     4  12  25  49  74 113 153 198 258 321 391 457
#     4  12  28  49  80 112 154 205 265 319 390 462
#     4  12  28  47  79 111 155 202 260 320 389 458
#     4  11  27  48  76 110 152 204 255 314 385 460
#     4  11  26  45  77 110 158 200 259 311 388 461
#
# _framework density 24.636855000000001
#
# number of rings (size 3 to 8) (size 9 to 14) (size 15 to 20)
#    0.000    0.400    2.000    4.800   14.000    2.400 
#    0.000    0.000    0.000    0.000    0.000    0.000 
#    0.000    0.000    0.000    0.000    0.000    0.000 
#
# Total GULP energy -112151.403510 kJ/mol
# GULP energy per Si atom -5607.570176 kJ/mol
# Density = 2.458078 g / cm^3
# Si number density = 24.636855 Si / 1000 Ang^3
#
#
#
# Elastic Constant Matrix: (Units=GPa)
#
#
# Indices 1 2 3 4 5 6 
#
# 1 182.7449 35.9043 74.1485 0.0000 9.1450 0.0000
# 2 35.9043 62.6131 4.1511 0.0000 -2.9469 0.0000
# 3 74.1485 4.1511 105.3996 0.0000 -21.2825 0.0000
# 4 0.0000 0.0000 0.0000 39.5686 0.0000 -7.9128
# 5 9.1450 -2.9469 -21.2825 0.0000 50.8316 0.0000
# 6 0.0000 0.0000 0.0000 -7.9128 0.0000 34.3175
#
#
#
# Elastic Compliance Matrix: (Units=1/GPa)
#
#
# Indices 1 2 3 4 5 6 
#
# 1 0.010054 -0.005495 -0.007959 0.000000 -0.005460 0.000000
# 2 -0.005495 0.019040 0.003865 0.000000 0.003711 0.000000
# 3 -0.007959 0.003865 0.016679 0.000000 0.008639 0.000000
# 4 0.000000 0.000000 0.000000 0.026494 0.000000 0.006109
# 5 -0.005460 0.003711 0.008639 0.000000 0.024487 0.000000
# 6 0.000000 0.000000 0.000000 0.006109 0.000000 0.030548
#
#
# Mechanical properties :
#
#
# Convention : Reuss Voigt Hill
#
# Bulk Modulus (GPa) = 37.59989 64.35171 50.97580
# Shear Modulus (GPa) = 32.18588 40.71378 36.44983
#
# Velocity S-wave (km/s) = 3.61835 4.06957 3.85058
# Velocity P-wave (km/s) = 5.72289 6.94685 6.36436
#
# Compressibility (1/GPa) = 0.02659582
#
# Stress axis : x y z
#
# Youngs Moduli (GPa) = 99.45898 52.51987 59.95438
#
# Poissons Ratio (x) = 0.28859 0.47720
# Poissons Ratio (y) = 0.54651 -0.23172
# Poissons Ratio (z) = 0.79163 -0.20299
#
# Static dielectric constant tensor:
#      x y z
#    x 1.969070 0.000000 -0.007700 
#    y 0.000000 1.988970 0.000000 
#    z -0.007700 0.000000 1.921820 
# 
# From -- ./inp_files/60082.got.cif
#   From: 2010.05.17/outbox.cif.g08.bks.cpg/sg15_31_cif.got.tgz:60082.got - 2010.06.03 18:47:42.
