data_PCOD9306978
_publ_section_title
;
Structure prediction by ZEFSAII (Michael W. Deem and Ramdas Pophale) SiO2 
 PCOD9306978
Probable space group: C 2/C
;
_chemical_formula_sum "Si O2"
_cell_formula_units_Z 52
_cell_length_a 27.353268
_cell_length_b 8.881590
_cell_length_c 13.078916
_cell_angle_alpha 90.000000
_cell_angle_beta 130.836579
_cell_angle_gamma 90.000000
_cell_volume 2403.949015
_symmetry_space_group_name_H-M "C 2/C"
_symmetry_group_IT_number 15
_symmetry_cell_setting 'monoclinic'
loop_
_space_group_symop_operation_xyz
x,y,z
-x,y,1/2-z
-x,-y,-z
x,-y,1/2+z
1/2+x,1/2+y,z
1/2-x,1/2+y,1/2-z
1/2-x,1/2-y,-z
1/2+x,1/2-y,1/2+z
loop_
_atom_site_type_symbol
_atom_site_label
_atom_site_fract_x
_atom_site_fract_y
_atom_site_fract_z
Si Si1 0.000000 0.585668 0.250000
Si Si2 0.655096 0.514297 0.001695
Si Si3 0.398830 0.985924 0.267898
Si Si4 0.318357 0.286958 0.150700
Si Si5 0.308498 0.793307 0.005126
Si Si6 0.390560 0.212682 0.956793
Si Si7 0.741639 0.968170 0.208385
O O1 0.035390 0.500766 0.205798
O O2 0.056712 0.674099 0.385591
O O3 0.643080 0.341009 0.958893
O O4 0.620929 0.608318 0.045429
O O5 0.730049 0.497961 0.140912
O O6 0.647362 0.610356 0.888438
O O7 0.407649 0.870129 0.373942
O O8 0.365248 0.148353 0.246446
O O9 0.348371 0.916410 0.119905
O O10 0.296714 0.387711 0.216813
O O11 0.250000 0.250000 0.000000
O O12 0.277068 0.871788 0.864433
O O13 0.250000 0.750000 0.000000
O O14 0.321164 0.136110 0.884233
#
# Coordination Sequence:
#
# PCOD9306978 Si02
#       7
#     4   8   8   8   8   8   8
#     4  12  24  52  74  94 140 198 252 292 338 430
#     4  12  24  39  64 104 148 178 228 293 363 421
#     4  12  26  45  73 101 139 192 251 291 352 428
#     4  12  20  41  64 100 147 183 227 296 355 416
#     4  12  22  38  65 101 148 182 223 297 364 423
#     4  12  26  44  70 104 137 188 239 293 353 429
#     4  12  23  38  66 105 143 186 227 289 367 423
#
# _framework density 21.631076
#
# number of rings (size 3 to 8) (size 9 to 14) (size 15 to 20)
#    0.000    0.000    7.692    4.154    2.154    0.000 
#    0.000    0.769    0.000    2.769    0.000    0.000 
#    0.000    0.000    0.000    0.000    0.000    0.000 
#
# Total GULP energy -145218.965092 kJ/mol
# GULP energy per Si atom -5585.344811 kJ/mol
# Density = 2.158184 g / cm^3
# Si number density = 21.631076 Si / 1000 Ang^3
#
#
#
# Elastic Constant Matrix: (Units=GPa)
#
#
# Indices 1 2 3 4 5 6 
#
# 1 122.4107 54.9026 15.0956 0.0000 -3.7764 0.0000
# 2 54.9026 118.7621 9.0997 0.0000 -10.2493 0.0000
# 3 15.0956 9.0997 76.7092 0.0000 -8.3045 0.0000
# 4 0.0000 0.0000 0.0000 18.0060 0.0000 -10.6917
# 5 -3.7764 -10.2493 -8.3045 0.0000 28.6154 0.0000
# 6 0.0000 0.0000 0.0000 -10.6917 0.0000 32.4160
#
#
#
# Elastic Compliance Matrix: (Units=1/GPa)
#
#
# Indices 1 2 3 4 5 6 
#
# 1 0.010491 -0.004797 -0.001581 0.000000 -0.000793 0.000000
# 2 -0.004797 0.010921 0.000004 0.000000 0.003279 0.000000
# 3 -0.001581 0.000004 0.013757 0.000000 0.003785 0.000000
# 4 0.000000 0.000000 0.000000 0.069063 0.000000 0.022779
# 5 -0.000793 0.003279 0.003785 0.000000 0.037115 0.000000
# 6 0.000000 0.000000 0.000000 0.022779 0.000000 0.038362
#
#
# Mechanical properties :
#
#
# Convention : Reuss Voigt Hill
#
# Bulk Modulus (GPa) = 44.60541 52.89754 48.75147
# Shear Modulus (GPa) = 25.00856 31.72641 28.36748
#
# Velocity S-wave (km/s) = 3.40390 3.83391 3.62529
# Velocity P-wave (km/s) = 6.00953 6.64124 6.33326
#
# Compressibility (1/GPa) = 0.02241881
#
# Stress axis : x y z
#
# Youngs Moduli (GPa) = 95.31588 91.56924 72.69150
#
# Poissons Ratio (x) = 0.43929 0.11495
# Poissons Ratio (y) = 0.45726 -0.00026
# Poissons Ratio (z) = 0.15073 -0.00033
#
# Static dielectric constant tensor:
#      x y z
#    x 1.868890 0.000000 -0.012750 
#    y 0.000000 1.907880 0.000000 
#    z -0.012750 0.000000 1.794950 
# 
# From -- ./inp_files/181219.got.cif
#   From: 2010.05.17/outbox.cif.g08.bks.cpg/sg15_91_cif.got.tgz:181219.got - 2010.06.03 18:47:42.
