data_PCOD9306342
_publ_section_title
;
Structure prediction by ZEFSAII (Michael W. Deem and Ramdas Pophale) SiO2 
 PCOD9306342
Probable space group: C 2/C
;
_chemical_formula_sum "Si O2"
_cell_formula_units_Z 36
_cell_length_a 20.976053
_cell_length_b 6.695473
_cell_length_c 25.712424
_cell_angle_alpha 90.000000
_cell_angle_beta 150.611488
_cell_angle_gamma 90.000000
_cell_volume 1772.106566
_symmetry_space_group_name_H-M "C 2/C"
_symmetry_group_IT_number 15
_symmetry_cell_setting 'monoclinic'
loop_
_space_group_symop_operation_xyz
x,y,z
-x,y,1/2-z
-x,-y,-z
x,-y,1/2+z
1/2+x,1/2+y,z
1/2-x,1/2+y,1/2-z
1/2-x,1/2-y,-z
1/2+x,1/2-y,1/2+z
loop_
_atom_site_type_symbol
_atom_site_label
_atom_site_fract_x
_atom_site_fract_y
_atom_site_fract_z
Si Si1 0.500000 0.368838 0.750000
Si Si2 0.082165 0.805339 0.044450
Si Si3 0.780366 0.196998 0.581117
Si Si4 0.132954 0.541321 0.780645
Si Si5 0.997082 0.547865 0.079396
O O1 0.378106 0.510355 0.651703
O O2 0.539249 0.220412 0.731565
O O3 0.227580 0.867286 0.134223
O O4 0.073595 0.662919 0.088610
O O5 0.021704 0.678747 0.953939
O O6 0.000000 0.000000 0.000000
O O7 0.750000 0.250000 0.500000
O O8 0.845116 0.381705 0.657764
O O9 0.646188 0.140446 0.514594
O O10 0.071889 0.439304 0.686709
#
# Coordination Sequence:
#
# PCOD9306342 Si02
#       5
#     4   8   8   8   8
#     4  12  26  46  70 102 138 186 232 286 352 412
#     4  11  25  47  71 101 142 183 232 289 348 412
#     4  12  26  47  70 103 144 180 237 289 344 422
#     4  12  27  45  74 105 137 190 232 286 356 415
#     4  11  26  45  70 105 139 182 234 288 345 416
#
# _framework density 20.314803999999999
#
# number of rings (size 3 to 8) (size 9 to 14) (size 15 to 20)
#    0.000    0.444    4.444    3.333    6.222    3.556 
#    0.000    0.000    0.000    0.000    0.000    0.000 
#    0.000    0.000    0.000    0.000    0.000    0.000 
#
# Total GULP energy -100757.374697 kJ/mol
# GULP energy per Si atom -5597.631928 kJ/mol
# Density = 2.026857 g / cm^3
# Si number density = 20.314804 Si / 1000 Ang^3
#
#
#
# Elastic Constant Matrix: (Units=GPa)
#
#
# Indices 1 2 3 4 5 6 
#
# 1 102.9620 37.2302 39.5830 0.0000 -1.0106 0.0000
# 2 37.2302 102.6751 38.9995 0.0000 -2.8066 0.0000
# 3 39.5830 38.9995 77.2235 0.0000 -22.6800 0.0001
# 4 0.0000 0.0000 0.0000 33.4998 0.0000 14.0090
# 5 -1.0106 -2.8066 -22.6800 0.0000 50.6444 0.0000
# 6 0.0000 0.0000 0.0001 14.0090 0.0000 49.0507
#
#
#
# Elastic Compliance Matrix: (Units=1/GPa)
#
#
# Indices 1 2 3 4 5 6 
#
# 1 0.012939 -0.002412 -0.006192 0.000000 -0.002648 0.000000
# 2 -0.002412 0.012753 -0.005769 0.000000 -0.001925 0.000000
# 3 -0.006192 -0.005769 0.021770 0.000000 0.009306 0.000000
# 4 0.000000 0.000000 0.000000 0.033900 0.000000 -0.009682
# 5 -0.002648 -0.001925 0.009306 0.000000 0.023753 0.000000
# 6 0.000000 0.000000 0.000000 -0.009682 0.000000 0.023152
#
#
# Mechanical properties :
#
#
# Convention : Reuss Voigt Hill
#
# Bulk Modulus (GPa) = 53.43326 57.16514 55.29920
# Shear Modulus (GPa) = 30.62739 37.77550 34.20145
#
# Velocity S-wave (km/s) = 3.88705 4.31688 4.10759
# Velocity P-wave (km/s) = 6.81947 7.28340 7.05525
#
# Compressibility (1/GPa) = 0.01871494
#
# Stress axis : x y z
#
# Youngs Moduli (GPa) = 77.28595 78.41319 45.93477
#
# Poissons Ratio (x) = 0.18915 0.28442
# Poissons Ratio (y) = 0.18643 0.26502
# Poissons Ratio (z) = 0.47854 0.45240
#
# Static dielectric constant tensor:
#      x y z
#    x 1.708410 0.000000 0.006210 
#    y 0.000000 1.715440 0.000000 
#    z 0.006210 0.000000 1.683260 
# 
# From -- ./inp_files/115595.got.cif
#   From: 2010.05.17/outbox.cif.g08.bks.cpg/sg15_58_cif.got.tgz:115595.got - 2010.06.03 18:47:42.
