data_PCOD9306889
_publ_section_title
;
Structure prediction by ZEFSAII (Michael W. Deem and Ramdas Pophale) SiO2 
 PCOD9306889
Probable space group: C 2/C
;
_chemical_formula_sum "Si O2"
_cell_formula_units_Z 24
_cell_length_a 9.462058
_cell_length_b 13.371784
_cell_length_c 17.216287
_cell_angle_alpha 90.000000
_cell_angle_beta 155.813212
_cell_angle_gamma 90.000000
_cell_volume 892.470506
_symmetry_space_group_name_H-M "C 2/C"
_symmetry_group_IT_number 15
_symmetry_cell_setting 'monoclinic'
loop_
_space_group_symop_operation_xyz
x,y,z
-x,y,1/2-z
-x,-y,-z
x,-y,1/2+z
1/2+x,1/2+y,z
1/2-x,1/2+y,1/2-z
1/2-x,1/2-y,-z
1/2+x,1/2-y,1/2+z
loop_
_atom_site_type_symbol
_atom_site_label
_atom_site_fract_x
_atom_site_fract_y
_atom_site_fract_z
Si Si1 0.305935 0.727590 0.235462
Si Si2 0.120934 0.106446 0.892350
Si Si3 0.791759 0.930645 0.455371
O O1 0.500000 0.711864 0.250000
O O2 0.508151 0.659823 0.401805
O O3 0.191304 0.832586 0.221565
O O4 0.926268 0.683769 0.030479
O O5 0.000000 0.065484 0.750000
O O6 0.293575 0.014808 0.024644
O O7 0.500000 0.894716 0.250000
O O8 0.000000 0.000000 0.500000
#
# Coordination Sequence:
#
# PCOD9306889 Si02
#       3
#     8   8   8
#     4  11  28  52  83 119 160 212 268 329 402 474
#     4  11  28  52  80 118 164 206 269 336 393 473
#     4  12  27  51  84 118 161 209 265 329 400 475
#
# _framework density 26.891642999999998
#
# number of rings (size 3 to 8) (size 9 to 14) (size 15 to 20)
#    0.000    0.667    3.333    1.000   14.000    5.333 
#    0.000    3.333    0.000    0.000    0.000    0.000 
#    0.000    0.000    0.000    0.000    0.000    0.000 
#
# Total GULP energy -67074.916884 kJ/mol
# GULP energy per Si atom -5589.576407 kJ/mol
# Density = 2.683044 g / cm^3
# Si number density = 26.891643 Si / 1000 Ang^3
#
#
#
# Elastic Constant Matrix: (Units=GPa)
#
#
# Indices 1 2 3 4 5 6 
#
# 1 212.6632 55.4897 75.6328 0.0141 -12.3113 0.0018
# 2 55.4897 113.5126 8.9260 0.0145 -15.9289 -0.0074
# 3 75.6328 8.9260 134.6450 0.0276 -36.2325 -0.0125
# 4 0.0141 0.0145 0.0276 51.9889 0.0122 7.3411
# 5 -12.3113 -15.9289 -36.2325 0.0122 49.2387 -0.0179
# 6 0.0018 -0.0074 -0.0125 7.3411 -0.0179 13.4240
#
#
#
# Elastic Compliance Matrix: (Units=1/GPa)
#
#
# Indices 1 2 3 4 5 6 
#
# 1 0.007024 -0.003453 -0.004420 0.000004 -0.002613 -0.000013
# 2 -0.003453 0.010932 0.002412 -0.000007 0.004448 0.000019
# 3 -0.004420 0.002412 0.012048 -0.000012 0.008541 0.000031
# 4 0.000004 -0.000007 -0.000012 0.020845 -0.000020 -0.011399
# 5 -0.002613 0.004448 0.008541 -0.000020 0.027379 0.000058
# 6 -0.000013 0.000019 0.000031 -0.011399 0.000058 0.080727
#
#
# Mechanical properties :
#
#
# Convention : Reuss Voigt Hill
#
# Bulk Modulus (GPa) = 52.40475 82.32418 67.36446
# Shear Modulus (GPa) = 28.37096 44.31516 36.34306
#
# Velocity S-wave (km/s) = 3.25162 4.06386 3.68021
# Velocity P-wave (km/s) = 5.79888 7.25945 6.56988
#
# Compressibility (1/GPa) = 0.01908224
#
# Stress axis : x y z
#
# Youngs Moduli (GPa) = 142.37502 91.47545 83.00191
#
# Poissons Ratio (x) = 0.31583 0.36684
# Poissons Ratio (y) = 0.49157 -0.20017
# Poissons Ratio (z) = 0.62924 -0.22060
#
# Static dielectric constant tensor:
#      x y z
#    x 2.706840 0.000140 0.157550 
#    y 0.000140 0.863630 0.000020 
#    z 0.157550 0.000020 2.086200 
# 
# From -- ./inp_files/134710.got.cif
#   From: 2010.05.17/outbox.cif.g08.bks.cpg/sg15_68_cif.got.tgz:134710.got - 2010.06.03 18:47:42.
