data_PCOD9306580
_publ_section_title
;
Structure prediction by ZEFSAII (Michael W. Deem and Ramdas Pophale) SiO2 
 PCOD9306580
Probable space group: C 2/C
;
_chemical_formula_sum "Si O2"
_cell_formula_units_Z 40
_cell_length_a 11.952461
_cell_length_b 8.759969
_cell_length_c 18.792632
_cell_angle_alpha 90.000000
_cell_angle_beta 107.854532
_cell_angle_gamma 90.000000
_cell_volume 1872.882616
_symmetry_space_group_name_H-M "C 2/C"
_symmetry_group_IT_number 15
_symmetry_cell_setting 'monoclinic'
loop_
_space_group_symop_operation_xyz
x,y,z
-x,y,1/2-z
-x,-y,-z
x,-y,1/2+z
1/2+x,1/2+y,z
1/2-x,1/2+y,1/2-z
1/2-x,1/2-y,-z
1/2+x,1/2-y,1/2+z
loop_
_atom_site_type_symbol
_atom_site_label
_atom_site_fract_x
_atom_site_fract_y
_atom_site_fract_z
Si Si1 0.600598 0.949213 0.074665
Si Si2 0.316022 0.599143 0.039225
Si Si3 0.027992 0.647121 0.338345
Si Si4 0.022214 0.001484 0.670112
Si Si5 0.193176 0.892370 0.598427
O O1 0.629825 0.770794 0.079743
O O2 0.722252 0.020444 0.072549
O O3 0.552816 0.024298 0.137424
O O4 0.500000 0.000000 0.000000
O O5 0.433013 0.606891 0.109121
O O6 0.250000 0.750000 0.000000
O O7 0.342892 0.498624 0.974697
O O8 0.001929 0.822119 0.355478
O O9 0.166121 0.620524 0.378354
O O10 0.000000 0.637928 0.250000
O O11 0.000000 0.985620 0.750000
O O12 0.150726 0.961537 0.665347
#
# Coordination Sequence:
#
# PCOD9306580 Si02
#       5
#     8   8   8   8   8
#     4  12  23  43  72 101 134 180 232 284 342 412
#     4  12  24  45  72 102 138 188 233 286 349 412
#     4  11  26  45  69 104 140 184 229 287 354 413
#     4  11  26  47  69 103 143 179 230 290 347 415
#     4  12  25  46  70 101 143 179 234 291 339 417
#
# _framework density 21.357451999999999
#
# number of rings (size 3 to 8) (size 9 to 14) (size 15 to 20)
#    0.000    0.400    4.000    4.800    2.800    0.800 
#    0.000    0.000    0.000    0.000    0.000    0.000 
#    0.000    0.000    0.000    0.000    0.000    0.000 
#
# Total GULP energy -111873.649551 kJ/mol
# GULP energy per Si atom -5593.682478 kJ/mol
# Density = 2.130884 g / cm^3
# Si number density = 21.357452 Si / 1000 Ang^3
#
#
#
# Elastic Constant Matrix: (Units=GPa)
#
#
# Indices 1 2 3 4 5 6 
#
# 1 104.5918 50.3850 15.1688 0.0000 -33.4443 0.0000
# 2 50.3850 128.5924 48.7549 0.0000 -23.5834 0.0000
# 3 15.1688 48.7549 78.6924 0.0000 -11.9204 0.0000
# 4 0.0000 0.0000 0.0000 28.3913 0.0000 -9.5333
# 5 -33.4443 -23.5834 -11.9204 0.0000 39.1969 0.0000
# 6 0.0000 0.0000 0.0000 -9.5333 0.0000 39.7977
#
#
#
# Elastic Compliance Matrix: (Units=1/GPa)
#
#
# Indices 1 2 3 4 5 6 
#
# 1 0.014826 -0.004461 0.001484 0.000000 0.010417 0.000000
# 2 -0.004461 0.012287 -0.006509 0.000000 0.001607 0.000000
# 3 0.001484 -0.006509 0.016828 0.000000 0.002468 0.000000
# 4 0.000000 0.000000 0.000000 0.038303 0.000000 0.009175
# 5 0.010417 0.001607 0.002468 0.000000 0.036118 0.000000
# 6 0.000000 0.000000 0.000000 0.009175 0.000000 0.027325
#
#
# Mechanical properties :
#
#
# Convention : Reuss Voigt Hill
#
# Bulk Modulus (GPa) = 40.05035 60.05487 50.05261
# Shear Modulus (GPa) = 28.90461 34.64837 31.77649
#
# Velocity S-wave (km/s) = 3.68281 4.03216 3.86144
# Velocity P-wave (km/s) = 6.07267 7.06100 6.58540
#
# Compressibility (1/GPa) = 0.02496857
#
# Stress axis : x y z
#
# Youngs Moduli (GPa) = 67.44956 81.38578 59.42343
#
# Poissons Ratio (x) = 0.36309 -0.08820
# Poissons Ratio (y) = 0.30092 0.38681
# Poissons Ratio (z) = -0.10011 0.52977
#
# Static dielectric constant tensor:
#      x y z
#    x 1.813020 0.000000 0.016530 
#    y 0.000000 1.809670 0.000000 
#    z 0.016530 0.000000 1.777040 
# 
# From -- ./inp_files/195183.got.cif
#   From: 2010.05.17/outbox.cif.g08.bks.cpg/sg15_98_cif.got.tgz:195183.got - 2010.06.03 18:47:42.
