data_PCOD9306167
_publ_section_title
;
Structure prediction by ZEFSAII (Michael W. Deem and Ramdas Pophale) SiO2 
 PCOD9306167
Probable space group: C 2/C
;
_chemical_formula_sum "Si O2"
_cell_formula_units_Z 64
_cell_length_a 12.044758
_cell_length_b 12.638552
_cell_length_c 26.449377
_cell_angle_alpha 90.000000
_cell_angle_beta 137.702937
_cell_angle_gamma 90.000000
_cell_volume 2709.627040
_symmetry_space_group_name_H-M "C 2/C"
_symmetry_group_IT_number 15
_symmetry_cell_setting 'monoclinic'
loop_
_space_group_symop_operation_xyz
x,y,z
-x,y,1/2-z
-x,-y,-z
x,-y,1/2+z
1/2+x,1/2+y,z
1/2-x,1/2+y,1/2-z
1/2-x,1/2-y,-z
1/2+x,1/2-y,1/2+z
loop_
_atom_site_type_symbol
_atom_site_label
_atom_site_fract_x
_atom_site_fract_y
_atom_site_fract_z
Si Si1 0.831036 0.035720 0.969466
Si Si2 0.366419 0.074410 0.021645
Si Si3 0.902418 0.098447 0.652953
Si Si4 0.201407 0.047886 0.239972
Si Si5 0.581019 0.238203 0.140031
Si Si6 0.625668 0.898514 0.137873
Si Si7 0.353450 0.810025 0.160304
Si Si8 0.466313 0.677235 0.104099
O O1 0.690948 0.088211 0.887815
O O2 0.746895 0.936417 0.967177
O O3 0.861223 0.119439 0.025669
O O4 0.000000 0.000000 0.000000
O O5 0.452690 0.185844 0.058118
O O6 0.508360 0.984798 0.071353
O O7 0.243210 0.063437 0.934054
O O8 0.798542 0.123110 0.667807
O O9 0.996862 0.194610 0.656418
O O10 0.029508 0.001890 0.702466
O O11 0.298198 0.144496 0.299136
O O12 0.127017 0.101457 0.165139
O O13 0.324335 0.949347 0.290832
O O14 0.694236 0.306531 0.142297
O O15 0.530842 0.789771 0.107486
O O16 0.500000 0.812723 0.250000
O O17 0.382412 0.712266 0.129940
#
# Coordination Sequence:
#
# PCOD9306167 Si02
#       8
#     8   8   8   8   8   8   8   8
#     4  12  28  48  76 111 155 200 252 312 386 454
#     4  11  25  46  70 111 149 194 249 301 381 459
#     4  12  25  45  74 106 149 195 246 321 374 454
#     4  11  25  45  72 102 148 192 252 305 371 447
#     4  11  27  45  75 108 149 193 251 308 381 440
#     4  11  27  44  73 112 145 194 255 310 385 454
#     4  12  27  47  78 107 149 204 253 313 374 455
#     4  12  26  48  76 105 152 196 255 305 381 450
#
# _framework density 23.619486999999999
#
# number of rings (size 3 to 8) (size 9 to 14) (size 15 to 20)
#    0.000    0.500    3.750    3.000    8.750    0.000 
#    0.000    0.000    2.750    0.000    0.000    0.000 
#    0.000    0.000    0.000    0.000    0.000    0.000 
#
# Total GULP energy -178660.530198 kJ/mol
# GULP energy per Si atom -5583.141569 kJ/mol
# Density = 2.356573 g / cm^3
# Si number density = 23.619487 Si / 1000 Ang^3
#
#
#
# Elastic Constant Matrix: (Units=GPa)
#
#
# Indices 1 2 3 4 5 6 
#
# 1 102.5382 24.0671 38.4863 0.0000 11.5679 0.0000
# 2 24.0671 78.1196 35.5689 0.0000 2.4836 0.0000
# 3 38.4863 35.5689 123.9442 0.0000 4.7888 0.0000
# 4 0.0000 0.0000 0.0000 27.7603 0.0000 0.1276
# 5 11.5679 2.4836 4.7888 0.0000 34.1021 0.0000
# 6 0.0000 0.0000 0.0000 0.1276 0.0000 -13.7951
#
#
#
# Elastic Compliance Matrix: (Units=1/GPa)
#
#
# Indices 1 2 3 4 5 6 
#
# 1 0.011735 -0.002194 -0.002882 0.000000 -0.003416 0.000000
# 2 -0.002194 0.015143 -0.003670 0.000000 0.000157 0.000000
# 3 -0.002882 -0.003670 0.010023 0.000000 -0.000163 0.000000
# 4 0.000000 0.000000 0.000000 0.036021 0.000000 0.000333
# 5 -0.003416 0.000157 -0.000163 0.000000 0.030494 0.000000
# 6 0.000000 0.000000 0.000000 0.000333 0.000000 -0.072487
#
#
# Mechanical properties :
#
#
# Convention : Reuss Voigt Hill
#
# Bulk Modulus (GPa) = 51.52833 55.64962 53.58898
# Shear Modulus (GPa) = 91.08911 23.37878 57.23395
#
# Velocity S-wave (km/s) = 6.21683 3.14954 4.92791
# Velocity P-wave (km/s) = 8.56711 6.06944 7.42406
#
# Compressibility (1/GPa) = 0.01940680
#
# Stress axis : x y z
#
# Youngs Moduli (GPa) = 85.21792 66.03665 99.77411
#
# Poissons Ratio (x) = 0.14491 0.28755
# Poissons Ratio (y) = 0.18700 0.36621
# Poissons Ratio (z) = 0.24560 0.24238
#
# Static dielectric constant tensor:
#      x y z
#    x 1.928150 0.000000 -0.041090 
#    y 0.000000 1.864570 0.000000 
#    z -0.041090 0.000000 1.988860 
# 
# From -- ./inp_files/293080.got.cif
#   From: 2010.05.17/outbox.cif.g08.bks.cpg/sg15_147_cif.got.tgz:293080.got - 2010.06.03 18:47:42.
