data_PCOD9306027
_publ_section_title
;
Structure prediction by ZEFSAII (Michael W. Deem and Ramdas Pophale) SiO2 
 PCOD9306027
Probable space group: C 2/C
;
_chemical_formula_sum "Si O2"
_cell_formula_units_Z 36
_cell_length_a 11.038068
_cell_length_b 25.872842
_cell_length_c 5.584259
_cell_angle_alpha 90.000000
_cell_angle_beta 86.987265
_cell_angle_gamma 90.000000
_cell_volume 1592.583057
_symmetry_space_group_name_H-M "C 2/C"
_symmetry_group_IT_number 15
_symmetry_cell_setting 'monoclinic'
loop_
_space_group_symop_operation_xyz
x,y,z
-x,y,1/2-z
-x,-y,-z
x,-y,1/2+z
1/2+x,1/2+y,z
1/2-x,1/2+y,1/2-z
1/2-x,1/2-y,-z
1/2+x,1/2-y,1/2+z
loop_
_atom_site_type_symbol
_atom_site_label
_atom_site_fract_x
_atom_site_fract_y
_atom_site_fract_z
Si Si1 0.500000 0.371511 0.250000
Si Si2 0.500000 0.891870 0.750000
Si Si3 0.684512 0.286053 0.197697
Si Si4 0.000000 0.928718 0.750000
Si Si5 0.772979 0.530415 0.300059
Si Si6 0.084928 0.300041 0.046176
O O1 0.601874 0.333221 0.131015
O O2 0.536212 0.402184 0.487898
O O3 0.623610 0.924674 0.710946
O O4 0.479845 0.851466 0.536380
O O5 0.785949 0.311929 0.353604
O O6 0.611257 0.243777 0.353184
O O7 0.750000 0.250000 0.000000
O O8 0.129184 0.955057 0.807664
O O9 0.793975 0.500453 0.548843
O O10 0.000000 0.274252 0.250000
#
# Coordination Sequence:
#
# PCOD9306027 Si02
#       6
#     4   4   8   4   8   8
#     4  12  27  43  74 110 144 194 254 305 355 438
#     4  12  27  44  74 114 144 188 244 316 375 454
#     4  11  25  44  67 102 154 208 242 298 364 435
#     4  12  28  49  80 108 146 194 256 315 368 470
#     4  12  28  52  79 108 146 191 243 317 400 463
#     4  11  25  42  70 102 151 196 247 298 362 438
#
# _framework density 22.604786000000001
#
# number of rings (size 3 to 8) (size 9 to 14) (size 15 to 20)
#    0.000    0.444    0.000    7.333   17.111    0.000 
#    0.000    0.000    0.000    0.000    0.000    0.000 
#    0.000    0.000    0.000    0.000    0.000    0.000 
#
# Total GULP energy -100449.397763 kJ/mol
# GULP energy per Si atom -5580.522098 kJ/mol
# Density = 2.255334 g / cm^3
# Si number density = 22.604786 Si / 1000 Ang^3
#
#
#
# Elastic Constant Matrix: (Units=GPa)
#
#
# Indices 1 2 3 4 5 6 
#
# 1 127.1906 39.0225 33.4738 0.0000 8.3947 0.0000
# 2 39.0225 70.8940 59.2536 0.0000 2.1790 0.0000
# 3 33.4738 59.2536 158.4637 0.0000 -17.9438 0.0000
# 4 0.0000 0.0000 0.0000 38.8852 0.0000 7.0628
# 5 8.3947 2.1790 -17.9438 0.0000 52.1794 0.0000
# 6 0.0000 0.0000 0.0000 7.0628 0.0000 42.4165
#
#
#
# Elastic Compliance Matrix: (Units=1/GPa)
#
#
# Indices 1 2 3 4 5 6 
#
# 1 0.009561 -0.004936 -0.000338 0.000000 -0.001448 0.000000
# 2 -0.004936 0.023751 -0.008180 0.000000 -0.003011 0.000000
# 3 -0.000338 -0.008180 0.009870 0.000000 0.003790 0.000000
# 4 0.000000 0.000000 0.000000 0.026519 0.000000 -0.004416
# 5 -0.001448 -0.003011 0.003790 0.000000 0.020827 0.000000
# 6 0.000000 0.000000 0.000000 -0.004416 0.000000 0.024311
#
#
# Mechanical properties :
#
#
# Convention : Reuss Voigt Hill
#
# Bulk Modulus (GPa) = 61.44182 68.89424 65.16803
# Shear Modulus (GPa) = 33.97424 41.68278 37.82851
#
# Velocity S-wave (km/s) = 3.88102 4.29882 4.09525
# Velocity P-wave (km/s) = 6.87917 7.42857 7.15914
#
# Compressibility (1/GPa) = 0.01627556
#
# Stress axis : x y z
#
# Youngs Moduli (GPa) = 104.59092 42.10289 101.31990
#
# Poissons Ratio (x) = 0.20780 0.03426
# Poissons Ratio (y) = 0.51622 0.82875
# Poissons Ratio (z) = 0.03537 0.34438
#
# Static dielectric constant tensor:
#      x y z
#    x 1.793350 0.000000 0.039140 
#    y 0.000000 1.820870 0.000000 
#    z 0.039140 0.000000 1.905450 
# 
# From -- ./inp_files/4326.got.cif
#   From: 2010.05.17/outbox.cif.g08.bks.cpg/sg15_3_cif.got.tgz:4326.got - 2010.06.03 18:47:42.
