data_PCOD9306681
_publ_section_title
;
Structure prediction by ZEFSAII (Michael W. Deem and Ramdas Pophale) SiO2 
 PCOD9306681
Probable space group: C 2/C
;
_chemical_formula_sum "Si O2"
_cell_formula_units_Z 56
_cell_length_a 14.091236
_cell_length_b 12.880758
_cell_length_c 18.625369
_cell_angle_alpha 90.000000
_cell_angle_beta 142.398605
_cell_angle_gamma 90.000000
_cell_volume 2062.729590
_symmetry_space_group_name_H-M "C 2/C"
_symmetry_group_IT_number 15
_symmetry_cell_setting 'monoclinic'
loop_
_space_group_symop_operation_xyz
x,y,z
-x,y,1/2-z
-x,-y,-z
x,-y,1/2+z
1/2+x,1/2+y,z
1/2-x,1/2+y,1/2-z
1/2-x,1/2-y,-z
1/2+x,1/2-y,1/2+z
loop_
_atom_site_type_symbol
_atom_site_label
_atom_site_fract_x
_atom_site_fract_y
_atom_site_fract_z
Si Si1 0.072509 0.899533 0.136529
Si Si2 0.710926 0.525813 0.499476
Si Si3 0.055368 0.682979 0.045220
Si Si4 0.000000 0.317039 0.750000
Si Si5 0.998871 0.217955 0.375797
Si Si6 0.000000 0.633129 0.750000
Si Si7 0.781913 0.416936 0.738395
Si Si8 0.710883 0.367792 0.372251
O O1 0.077362 0.784971 0.107949
O O2 0.101288 0.900340 0.239766
O O3 0.208176 0.970422 0.185219
O O4 0.906040 0.953591 0.023406
O O5 0.606287 0.623983 0.414852
O O6 0.742819 0.454130 0.450528
O O7 0.862883 0.566195 0.631478
O O8 0.143500 0.590975 0.137543
O O9 0.098359 0.712332 0.990461
O O10 0.875117 0.657224 0.936371
O O11 0.865053 0.238368 0.641647
O O12 0.940349 0.289407 0.276718
O O13 0.862064 0.163078 0.339545
O O14 0.911885 0.380791 0.759400
#
# Coordination Sequence:
#
# PCOD9306681 Si02
#       8
#     8   8   8   4   8   4   8   8
#     4  11  26  51  83 121 166 222 277 351 439 506
#     4  11  26  49  81 124 166 218 287 351 423 507
#     4  12  25  53  81 118 167 221 280 356 423 503
#     4  12  22  53  79 124 166 220 271 348 419 510
#     4  11  26  50  81 114 171 230 280 348 427 501
#     4  12  28  51  83 124 170 224 299 344 427 512
#     4  11  26  47  83 116 170 214 282 345 427 500
#     4  12  25  51  87 119 164 224 286 349 428 506
#
# _framework density 27.148493999999999
#
# number of rings (size 3 to 8) (size 9 to 14) (size 15 to 20)
#    0.000    0.571    4.286    1.286    6.000    5.143 
#   12.857    1.429    0.000    0.000    0.000    0.000 
#    0.000    0.000    0.000    0.000    0.000    0.000 
#
# Total GULP energy -157257.748854 kJ/mol
# GULP energy per Si atom -5616.348173 kJ/mol
# Density = 2.708670 g / cm^3
# Si number density = 27.148494 Si / 1000 Ang^3
#
#
#
# Elastic Constant Matrix: (Units=GPa)
#
#
# Indices 1 2 3 4 5 6 
#
# 1 106.4033 63.0701 5.6285 0.0001 -17.3624 0.0000
# 2 63.0701 123.9709 52.7590 0.0000 -3.2433 0.0000
# 3 5.6285 52.7590 111.6384 0.0001 -6.6248 0.0001
# 4 0.0001 0.0000 0.0001 55.9444 0.0001 1.7434
# 5 -17.3624 -3.2433 -6.6248 0.0001 46.4918 0.0000
# 6 0.0000 0.0000 0.0001 1.7434 0.0000 53.3097
#
#
#
# Elastic Compliance Matrix: (Units=1/GPa)
#
#
# Indices 1 2 3 4 5 6 
#
# 1 0.015865 -0.009671 0.004117 0.000000 0.005837 0.000000
# 2 -0.009671 0.015992 -0.007280 0.000000 -0.003533 0.000000
# 3 0.004117 -0.007280 0.012356 0.000000 0.002790 0.000000
# 4 0.000000 0.000000 0.000000 0.017893 0.000000 -0.000585
# 5 0.005837 -0.003533 0.002790 0.000000 0.023840 0.000000
# 6 0.000000 0.000000 0.000000 -0.000585 0.000000 0.018777
#
#
# Mechanical properties :
#
#
# Convention : Reuss Voigt Hill
#
# Bulk Modulus (GPa) = 53.92109 64.99198 59.45654
# Shear Modulus (GPa) = 36.61057 45.85284 41.23171
#
# Velocity S-wave (km/s) = 3.67622 4.11416 3.90134
# Velocity P-wave (km/s) = 6.15825 6.82348 6.49938
#
# Compressibility (1/GPa) = 0.01854562
#
# Stress axis : x y z
#
# Youngs Moduli (GPa) = 63.03151 62.53146 80.93358
#
# Poissons Ratio (x) = 0.60472 -0.33318
# Poissons Ratio (y) = 0.60955 0.58917
# Poissons Ratio (z) = -0.25948 0.45521
#
# Static dielectric constant tensor:
#      x y z
#    x 2.116380 0.000000 -0.007240 
#    y 0.000000 2.084630 0.000000 
#    z -0.007240 0.000000 2.124680 
# 
# From -- ./inp_files/244588.got.cif
#   From: 2010.05.17/outbox.cif.g08.bks.cpg/sg15_123_cif.got.tgz:244588.got - 2010.06.03 18:47:42.
