data_PCOD9306047
_publ_section_title
;
Structure prediction by ZEFSAII (Michael W. Deem and Ramdas Pophale) SiO2 
 PCOD9306047
Probable space group: C 2/C
;
_chemical_formula_sum "Si O2"
_cell_formula_units_Z 40
_cell_length_a 15.369133
_cell_length_b 13.843772
_cell_length_c 16.596507
_cell_angle_alpha 90.000000
_cell_angle_beta 150.040336
_cell_angle_gamma 90.000000
_cell_volume 1763.439295
_symmetry_space_group_name_H-M "C 2/C"
_symmetry_group_IT_number 15
_symmetry_cell_setting 'monoclinic'
loop_
_space_group_symop_operation_xyz
x,y,z
-x,y,1/2-z
-x,-y,-z
x,-y,1/2+z
1/2+x,1/2+y,z
1/2-x,1/2+y,1/2-z
1/2-x,1/2-y,-z
1/2+x,1/2-y,1/2+z
loop_
_atom_site_type_symbol
_atom_site_label
_atom_site_fract_x
_atom_site_fract_y
_atom_site_fract_z
Si Si1 0.175623 0.643453 0.442665
Si Si2 0.134527 0.853033 0.073314
Si Si3 0.019578 0.312295 0.363422
Si Si4 0.531989 0.448663 0.424037
Si Si5 0.346947 0.999863 0.942259
O O1 0.250000 0.750000 0.500000
O O2 0.339423 0.581429 0.543020
O O3 0.129618 0.599342 0.491196
O O4 0.000000 0.634925 0.250000
O O5 0.329598 0.824584 0.250281
O O6 0.007704 0.857469 0.048969
O O7 0.087865 0.785395 0.960071
O O8 0.134036 0.965432 0.049703
O O9 0.000000 0.308623 0.250000
O O10 0.129504 0.405770 0.481108
O O11 0.347458 0.493969 0.249489
O O12 0.500000 0.000000 0.000000
#
# Coordination Sequence:
#
# PCOD9306047 Si02
#       5
#     8   8   8   8   8
#     4  12  28  48  77 108 149 199 253 314 376 452
#     4  11  25  43  70 105 142 197 240 310 367 460
#     4  12  25  45  73 108 149 192 250 310 391 448
#     4  11  25  47  72 105 151 192 252 305 380 449
#     4  12  25  46  75 110 147 195 252 312 379 451
#
# _framework density 22.682945
#
# number of rings (size 3 to 8) (size 9 to 14) (size 15 to 20)
#    0.000    0.400    2.000    6.600    5.600    3.200 
#    0.000    0.000    0.000    0.000    0.000    0.000 
#    0.000    0.000    0.000    0.000    0.000    0.000 
#
# Total GULP energy -111825.278281 kJ/mol
# GULP energy per Si atom -5591.263914 kJ/mol
# Density = 2.263132 g / cm^3
# Si number density = 22.682945 Si / 1000 Ang^3
#
#
#
# Elastic Constant Matrix: (Units=GPa)
#
#
# Indices 1 2 3 4 5 6 
#
# 1 130.9049 47.3141 36.1480 0.0000 8.6298 0.0001
# 2 47.3141 93.8004 20.8904 0.0001 -3.8101 0.0003
# 3 36.1480 20.8904 99.3762 -0.0001 8.9171 0.0004
# 4 0.0000 0.0001 -0.0001 34.9107 0.0001 1.0429
# 5 8.6298 -3.8101 8.9171 0.0001 41.0367 0.0001
# 6 0.0001 0.0003 0.0004 1.0429 0.0001 42.4167
#
#
#
# Elastic Compliance Matrix: (Units=1/GPa)
#
#
# Indices 1 2 3 4 5 6 
#
# 1 0.010148 -0.004636 -0.002536 0.000000 -0.002013 0.000000
# 2 -0.004636 0.013404 -0.001357 0.000000 0.002514 0.000000
# 3 -0.002536 -0.001357 0.011457 0.000000 -0.002082 0.000000
# 4 0.000000 0.000000 0.000000 0.028666 0.000000 -0.000705
# 5 -0.002013 0.002514 -0.002082 0.000000 0.025478 0.000000
# 6 0.000000 0.000000 0.000000 -0.000705 0.000000 0.023593
#
#
# Mechanical properties :
#
#
# Convention : Reuss Voigt Hill
#
# Bulk Modulus (GPa) = 55.70663 59.19852 57.45258
# Shear Modulus (GPa) = 36.82267 38.32142 37.57204
#
# Velocity S-wave (km/s) = 4.03347 4.11474 4.07431
# Velocity P-wave (km/s) = 6.80470 6.98066 6.89324
#
# Compressibility (1/GPa) = 0.01795118
#
# Stress axis : x y z
#
# Youngs Moduli (GPa) = 98.54500 74.60722 87.27996
#
# Poissons Ratio (x) = 0.34585 0.22135
# Poissons Ratio (y) = 0.45681 0.11844
# Poissons Ratio (z) = 0.24992 0.10125
#
# Static dielectric constant tensor:
#      x y z
#    x 8.165780 -0.000040 5.770480 
#    y -0.000040 1.817920 -0.000030 
#    z 5.770480 -0.000030 7.374160 
# 
# From -- ./inp_files/205834.got.cif
#   From: 2010.05.17/outbox.cif.g08.bks.cpg/sg15_103_cif.got.tgz:205834.got - 2010.06.03 18:47:42.
