data_PCOD9306749
_publ_section_title
;
Structure prediction by ZEFSAII (Michael W. Deem and Ramdas Pophale) SiO2 
 PCOD9306749
Probable space group: C 2/C
;
_chemical_formula_sum "Si O2"
_cell_formula_units_Z 40
_cell_length_a 13.302947
_cell_length_b 18.183109
_cell_length_c 13.761674
_cell_angle_alpha 90.000000
_cell_angle_beta 149.640119
_cell_angle_gamma 90.000000
_cell_volume 1682.472705
_symmetry_space_group_name_H-M "C 2/C"
_symmetry_group_IT_number 15
_symmetry_cell_setting 'monoclinic'
loop_
_space_group_symop_operation_xyz
x,y,z
-x,y,1/2-z
-x,-y,-z
x,-y,1/2+z
1/2+x,1/2+y,z
1/2-x,1/2+y,1/2-z
1/2-x,1/2-y,-z
1/2+x,1/2-y,1/2+z
loop_
_atom_site_type_symbol
_atom_site_label
_atom_site_fract_x
_atom_site_fract_y
_atom_site_fract_z
Si Si1 0.116341 0.704622 0.074117
Si Si2 0.821177 0.347035 0.176549
Si Si3 0.601535 0.439251 0.234956
Si Si4 0.926046 0.915262 0.887663
Si Si5 0.378914 0.185990 0.058940
O O1 0.193708 0.771264 0.072067
O O2 0.301752 0.652879 0.247374
O O3 0.026609 0.724102 0.104114
O O4 0.942599 0.659689 0.877202
O O5 0.000000 0.353408 0.250000
O O6 0.652139 0.408996 0.035422
O O7 0.500000 0.464808 0.250000
O O8 0.677567 0.511720 0.241051
O O9 0.749035 0.375818 0.395892
O O10 0.450699 0.410821 0.024931
O O11 0.500000 0.151432 0.250000
O O12 0.250000 0.250000 0.000000
#
# Coordination Sequence:
#
# PCOD9306749 Si02
#       5
#     8   8   8   8   8
#     4  12  25  45  75 110 151 195 257 323 386 457
#     4  12  26  44  74 109 148 199 255 319 389 453
#     4  11  26  50  73 107 155 203 252 319 384 463
#     4  11  27  50  73 108 156 201 257 318 384 475
#     4  12  26  45  79 117 155 199 255 324 402 461
#
# _framework density 23.774532000000001
#
# number of rings (size 3 to 8) (size 9 to 14) (size 15 to 20)
#    0.000    0.400    4.000    3.600    5.600    0.800 
#    3.600    0.000    0.000    0.000    0.000    0.000 
#    0.000    0.000    0.000    0.000    0.000    0.000 
#
# Total GULP energy -111784.793099 kJ/mol
# GULP energy per Si atom -5589.239655 kJ/mol
# Density = 2.372042 g / cm^3
# Si number density = 23.774532 Si / 1000 Ang^3
#
#
#
# Elastic Constant Matrix: (Units=GPa)
#
#
# Indices 1 2 3 4 5 6 
#
# 1 136.0433 37.6991 34.1008 0.0000 2.1255 0.0000
# 2 37.6991 108.6472 52.4862 0.0000 -4.4715 0.0000
# 3 34.1008 52.4862 120.4333 0.0000 -7.6807 0.0000
# 4 0.0000 0.0000 0.0000 83.6838 0.0000 -10.3345
# 5 2.1255 -4.4715 -7.6807 0.0000 42.1853 0.0000
# 6 0.0000 0.0000 0.0000 -10.3345 0.0000 19.1444
#
#
#
# Elastic Compliance Matrix: (Units=1/GPa)
#
#
# Indices 1 2 3 4 5 6 
#
# 1 0.008347 -0.002235 -0.001448 0.000000 -0.000921 0.000000
# 2 -0.002235 0.012261 -0.004675 0.000000 0.000561 0.000000
# 3 -0.001448 -0.004675 0.010850 0.000000 0.001553 0.000000
# 4 0.000000 0.000000 0.000000 0.012803 0.000000 0.006911
# 5 -0.000921 0.000561 0.001553 0.000000 0.024094 0.000000
# 6 0.000000 0.000000 0.000000 0.006911 0.000000 0.055966
#
#
# Mechanical properties :
#
#
# Convention : Reuss Voigt Hill
#
# Bulk Modulus (GPa) = 67.83238 68.18842 68.01040
# Shear Modulus (GPa) = 34.25817 45.05854 39.65836
#
# Velocity S-wave (km/s) = 3.80012 4.35816 4.08867
# Velocity P-wave (km/s) = 6.91722 7.35312 7.13850
#
# Compressibility (1/GPa) = 0.01474222
#
# Stress axis : x y z
#
# Youngs Moduli (GPa) = 119.79945 81.55953 92.16663
#
# Poissons Ratio (x) = 0.18225 0.13350
# Poissons Ratio (y) = 0.26770 0.43088
# Poissons Ratio (z) = 0.17352 0.38129
#
# Static dielectric constant tensor:
#      x y z
#    x 1.953210 0.000000 0.002440 
#    y 0.000000 2.006390 0.000000 
#    z 0.002440 0.000000 1.903590 
# 
# From -- ./inp_files/155596.got.cif
#   From: 2010.05.17/outbox.cif.g08.bks.cpg/sg15_78_cif.got.tgz:155596.got - 2010.06.03 18:47:42.
