data_PCOD9306708
_publ_section_title
;
Structure prediction by ZEFSAII (Michael W. Deem and Ramdas Pophale) SiO2 
 PCOD9306708
Probable space group: C 2/C
;
_chemical_formula_sum "Si O2"
_cell_formula_units_Z 32
_cell_length_a 18.503431
_cell_length_b 7.703549
_cell_length_c 22.974249
_cell_angle_alpha 90.000000
_cell_angle_beta 155.798623
_cell_angle_gamma 90.000000
_cell_volume 1342.486676
_symmetry_space_group_name_H-M "C 2/C"
_symmetry_group_IT_number 15
_symmetry_cell_setting 'monoclinic'
loop_
_space_group_symop_operation_xyz
x,y,z
-x,y,1/2-z
-x,-y,-z
x,-y,1/2+z
1/2+x,1/2+y,z
1/2-x,1/2+y,1/2-z
1/2-x,1/2-y,-z
1/2+x,1/2-y,1/2+z
loop_
_atom_site_type_symbol
_atom_site_label
_atom_site_fract_x
_atom_site_fract_y
_atom_site_fract_z
Si Si1 0.026120 0.922982 0.583529
Si Si2 0.298872 0.320217 0.100046
Si Si3 0.822660 0.379455 0.368766
Si Si4 0.801093 0.764130 0.603023
O O1 0.145671 0.753249 0.660447
O O2 0.836129 0.851810 0.463133
O O3 0.137696 0.027999 0.714332
O O4 0.000000 0.000000 0.500000
O O5 0.500000 0.264724 0.250000
O O6 0.194889 0.272584 0.082948
O O7 0.291233 0.529009 0.105489
O O8 0.250000 0.250000 0.000000
O O9 0.000000 0.500000 0.500000
O O10 0.750000 0.750000 0.500000
O O11 0.000000 0.701101 0.750000
#
# Coordination Sequence:
#
# PCOD9306708 Si02
#       4
#     8   8   8   8
#     4  12  28  48  81 115 161 215 267 339 409 488
#     4  11  27  48  74 111 155 203 266 334 398 485
#     4  12  27  49  77 115 158 208 273 329 410 491
#     4  11  26  48  77 107 153 204 266 324 403 481
#
# _framework density 23.836362999999999
#
# number of rings (size 3 to 8) (size 9 to 14) (size 15 to 20)
#    0.000    0.500    2.500    4.500   14.000    1.000 
#    0.000    0.000    0.000    0.000    0.000    0.000 
#    0.000    0.000    0.000    0.000    0.000    0.000 
#
# Total GULP energy -89324.207877 kJ/mol
# GULP energy per Si atom -5582.762992 kJ/mol
# Density = 2.378211 g / cm^3
# Si number density = 23.836363 Si / 1000 Ang^3
#
#
#
# Elastic Constant Matrix: (Units=GPa)
#
#
# Indices 1 2 3 4 5 6 
#
# 1 202.1067 45.7982 95.8565 -0.0002 10.1307 0.0000
# 2 45.7982 64.6401 41.1466 0.0003 7.5240 0.0000
# 3 95.8565 41.1466 203.9148 0.0020 -5.0219 -0.0003
# 4 -0.0002 0.0003 0.0020 21.7942 0.0001 -1.8627
# 5 10.1307 7.5240 -5.0219 0.0001 56.1572 -0.0002
# 6 0.0000 0.0000 -0.0003 -1.8627 -0.0002 57.6592
#
#
#
# Elastic Compliance Matrix: (Units=1/GPa)
#
#
# Indices 1 2 3 4 5 6 
#
# 1 0.006978 -0.003113 -0.002679 0.000000 -0.001081 0.000000
# 2 -0.003113 0.019558 -0.002540 0.000000 -0.002286 0.000000
# 3 -0.002679 -0.002540 0.006711 -0.000001 0.001424 0.000000
# 4 0.000000 0.000000 -0.000001 0.046011 0.000000 0.001486
# 5 -0.001081 -0.002286 0.001424 0.000000 0.018436 0.000000
# 6 0.000000 0.000000 0.000000 0.001486 0.000000 0.017391
#
#
# Mechanical properties :
#
#
# Convention : Reuss Voigt Hill
#
# Bulk Modulus (GPa) = 60.29635 92.91823 76.60729
# Shear Modulus (GPa) = 36.42307 46.31281 41.36794
#
# Velocity S-wave (km/s) = 3.91326 4.41267 4.17045
# Velocity P-wave (km/s) = 6.76528 8.06403 7.44304
#
# Compressibility (1/GPa) = 0.01658475
#
# Stress axis : x y z
#
# Youngs Moduli (GPa) = 143.30829 51.12877 149.01566
#
# Poissons Ratio (x) = 0.15916 0.39917
# Poissons Ratio (y) = 0.44612 0.37843
# Poissons Ratio (z) = 0.38388 0.12984
#
# Static dielectric constant tensor:
#      x y z
#    x 1.962730 0.000000 0.076220 
#    y 0.000000 1.831520 0.000000 
#    z 0.076220 0.000000 1.891480 
# 
# From -- ./inp_files/64475.got.cif
#   From: 2010.05.17/outbox.cif.g08.bks.cpg/sg15_33_cif.got.tgz:64475.got - 2010.06.03 18:47:42.
