data_PCOD9306594
_publ_section_title
;
Structure prediction by ZEFSAII (Michael W. Deem and Ramdas Pophale) SiO2 
 PCOD9306594
Probable space group: C 2/C
;
_chemical_formula_sum "Si O2"
_cell_formula_units_Z 36
_cell_length_a 14.198262
_cell_length_b 20.115824
_cell_length_c 10.567956
_cell_angle_alpha 90.000000
_cell_angle_beta 148.254215
_cell_angle_gamma 90.000000
_cell_volume 1588.088539
_symmetry_space_group_name_H-M "C 2/C"
_symmetry_group_IT_number 15
_symmetry_cell_setting 'monoclinic'
loop_
_space_group_symop_operation_xyz
x,y,z
-x,y,1/2-z
-x,-y,-z
x,-y,1/2+z
1/2+x,1/2+y,z
1/2-x,1/2+y,1/2-z
1/2-x,1/2-y,-z
1/2+x,1/2-y,1/2+z
loop_
_atom_site_type_symbol
_atom_site_label
_atom_site_fract_x
_atom_site_fract_y
_atom_site_fract_z
Si Si1 0.378206 0.486889 0.984452
Si Si2 0.339610 0.663150 0.467048
Si Si3 0.482204 0.773392 0.989091
Si Si4 0.159575 0.608246 0.831800
Si Si5 0.000000 0.807481 0.750000
O O1 0.500000 0.488230 0.250000
O O2 0.300877 0.412531 0.884946
O O3 0.500000 0.500000 0.000000
O O4 0.229091 0.542589 0.839836
O O5 0.500000 0.660909 0.750000
O O6 0.416578 0.709454 0.445865
O O7 0.154628 0.702183 0.275988
O O8 0.590387 0.838826 0.150083
O O9 0.422287 0.742896 0.055759
O O10 0.000000 0.595897 0.750000
O O11 0.334494 0.643649 0.094122
#
# Coordination Sequence:
#
# PCOD9306594 Si02
#       5
#     8   8   8   8   4
#     4  11  27  50  76 105 158 208 247 313 388 452
#     4  11  26  46  67 102 147 204 247 297 372 451
#     4  12  23  43  75 108 148 186 255 310 377 454
#     4  12  25  44  79 119 149 193 255 319 386 449
#     4  12  22  44  74 118 154 180 240 334 398 418
#
# _framework density 22.668761
#
# number of rings (size 3 to 8) (size 9 to 14) (size 15 to 20)
#    0.000    0.444    4.444    4.000    3.111    0.889 
#    0.000    0.000    0.000    0.000    0.000    0.000 
#    0.000    0.000    0.000    0.000    0.000    0.000 
#
# Total GULP energy -100453.011772 kJ/mol
# GULP energy per Si atom -5580.722876 kJ/mol
# Density = 2.261717 g / cm^3
# Si number density = 22.668761 Si / 1000 Ang^3
#
#
#
# Elastic Constant Matrix: (Units=GPa)
#
#
# Indices 1 2 3 4 5 6 
#
# 1 90.4153 70.9571 44.9602 0.0000 8.2782 0.0000
# 2 70.9571 224.6163 57.2965 0.0000 15.0946 0.0000
# 3 44.9602 57.2965 111.4077 0.0000 9.4656 0.0000
# 4 0.0000 0.0000 0.0000 44.6195 0.0000 17.2283
# 5 8.2782 15.0946 9.4656 0.0000 30.3437 0.0000
# 6 0.0000 0.0000 0.0000 17.2283 0.0000 55.3499
#
#
#
# Elastic Compliance Matrix: (Units=1/GPa)
#
#
# Indices 1 2 3 4 5 6 
#
# 1 0.016552 -0.003999 -0.004529 0.000000 -0.001114 0.000000
# 2 -0.003999 0.006185 -0.001437 0.000000 -0.001538 0.000000
# 3 -0.004529 -0.001437 0.011686 0.000000 -0.001695 0.000000
# 4 0.000000 0.000000 0.000000 0.025473 0.000000 -0.007929
# 5 -0.001114 -0.001538 -0.001695 0.000000 0.034553 0.000000
# 6 0.000000 0.000000 0.000000 -0.007929 0.000000 0.020535
#
#
# Mechanical properties :
#
#
# Convention : Reuss Voigt Hill
#
# Bulk Modulus (GPa) = 68.98580 85.87409 77.42995
# Shear Modulus (GPa) = 35.77936 42.94430 39.36183
#
# Velocity S-wave (km/s) = 3.97716 4.35722 4.17152
# Velocity P-wave (km/s) = 7.18252 7.95476 7.57848
#
# Compressibility (1/GPa) = 0.01449574
#
# Stress axis : x y z
#
# Youngs Moduli (GPa) = 60.41465 161.67978 85.56886
#
# Poissons Ratio (x) = 0.64654 0.38751
# Poissons Ratio (y) = 0.24159 0.12292
# Poissons Ratio (z) = 0.27360 0.23225
#
# Static dielectric constant tensor:
#      x y z
#    x 1.406490 0.000000 0.072180 
#    y 0.000000 1.816880 0.000000 
#    z 0.072180 0.000000 1.945610 
# 
# From -- ./inp_files/99922.got.cif
#   From: 2010.05.17/outbox.cif.g08.bks.cpg/sg15_50_cif.got.tgz:99922.got - 2010.06.03 18:47:42.
