data_PCOD9306186
_publ_section_title
;
Structure prediction by ZEFSAII (Michael W. Deem and Ramdas Pophale) SiO2 
 PCOD9306186
Probable space group: C 2/C
;
_chemical_formula_sum "Si O2"
_cell_formula_units_Z 48
_cell_length_a 27.880537
_cell_length_b 14.384009
_cell_length_c 9.550183
_cell_angle_alpha 90.000000
_cell_angle_beta 38.034752
_cell_angle_gamma 90.000000
_cell_volume 2359.780993
_symmetry_space_group_name_H-M "C 2/C"
_symmetry_group_IT_number 15
_symmetry_cell_setting 'monoclinic'
loop_
_space_group_symop_operation_xyz
x,y,z
-x,y,1/2-z
-x,-y,-z
x,-y,1/2+z
1/2+x,1/2+y,z
1/2-x,1/2+y,1/2-z
1/2-x,1/2-y,-z
1/2+x,1/2-y,1/2+z
loop_
_atom_site_type_symbol
_atom_site_label
_atom_site_fract_x
_atom_site_fract_y
_atom_site_fract_z
Si Si1 0.072316 0.441824 0.775080
Si Si2 0.779207 0.196860 0.220413
Si Si3 0.705980 0.382726 0.500992
Si Si4 0.950571 0.772002 0.227151
Si Si5 0.026778 0.088432 0.347380
Si Si6 0.674711 0.048437 0.311778
O O1 0.046247 0.339395 0.789461
O O2 0.113110 0.498827 0.556648
O O3 0.133517 0.430009 0.760431
O O4 0.000000 0.500000 0.000000
O O5 0.748612 0.300841 0.317553
O O6 0.795156 0.150940 0.335369
O O7 0.713150 0.137905 0.294815
O O8 0.860871 0.199007 0.951983
O O9 0.619392 0.399906 0.645807
O O10 0.756561 0.475073 0.372292
O O11 0.000000 0.801868 0.250000
O O12 0.987489 0.821308 0.008117
O O13 0.000000 0.076927 0.250000
O O14 0.000000 0.000000 0.500000
#
# Coordination Sequence:
#
# PCOD9306186 Si02
#       6
#     8   8   8   8   8   8
#     4  12  28  44  71 105 145 188 236 291 360 425
#     4  11  25  45  74 103 142 185 235 292 357 426
#     4  11  25  46  73 105 140 185 237 288 358 424
#     4  12  25  48  75 104 145 187 233 297 363 426
#     4  12  29  47  75 104 143 189 239 295 355 424
#     4  12  25  47  72 102 142 186 237 297 351 426
#
# _framework density 20.340871
#
# number of rings (size 3 to 8) (size 9 to 14) (size 15 to 20)
#    0.000    0.333    5.000    3.000    7.000    2.000 
#    0.000    0.000    0.000    0.000    0.000    0.000 
#    0.000    0.000    0.000    0.000    0.000    0.000 
#
# Total GULP energy -134443.392213 kJ/mol
# GULP energy per Si atom -5601.808009 kJ/mol
# Density = 2.029457 g / cm^3
# Si number density = 20.340871 Si / 1000 Ang^3
#
#
#
# Elastic Constant Matrix: (Units=GPa)
#
#
# Indices 1 2 3 4 5 6 
#
# 1 111.2347 11.0207 26.5833 0.0000 13.9932 0.0000
# 2 11.0207 52.9113 1.5577 0.0000 4.5946 0.0000
# 3 26.5833 1.5577 97.4083 0.0000 -12.7908 0.0000
# 4 0.0000 0.0000 0.0000 36.5334 0.0000 -4.9865
# 5 13.9932 4.5946 -12.7908 0.0000 34.6020 0.0000
# 6 0.0000 0.0000 0.0000 -4.9865 0.0000 33.9958
#
#
#
# Elastic Compliance Matrix: (Units=1/GPa)
#
#
# Indices 1 2 3 4 5 6 
#
# 1 0.010700 -0.001650 -0.003608 0.000000 -0.005442 0.000000
# 2 -0.001650 0.019416 -0.000117 0.000000 -0.001954 0.000000
# 3 -0.003608 -0.000117 0.012030 0.000000 0.005922 0.000000
# 4 0.000000 0.000000 0.000000 0.027931 0.000000 0.004097
# 5 -0.005442 -0.001954 0.005922 0.000000 0.033549 0.000000
# 6 0.000000 0.000000 0.000000 0.004097 0.000000 0.030016
#
#
# Mechanical properties :
#
#
# Convention : Reuss Voigt Hill
#
# Bulk Modulus (GPa) = 31.85050 37.76419 34.80735
# Shear Modulus (GPa) = 32.28719 35.85240 34.06979
#
# Velocity S-wave (km/s) = 3.98842 4.20286 4.09705
# Velocity P-wave (km/s) = 6.07473 6.49292 6.28731
#
# Compressibility (1/GPa) = 0.03139668
#
# Stress axis : x y z
#
# Youngs Moduli (GPa) = 93.45418 51.50301 83.12346
#
# Poissons Ratio (x) = 0.08498 0.29995
# Poissons Ratio (y) = 0.15419 0.00971
# Poissons Ratio (z) = 0.33722 0.00602
#
# Static dielectric constant tensor:
#      x y z
#    x 1.684470 0.000000 0.006970 
#    y 0.000000 1.693850 0.000000 
#    z 0.006970 0.000000 1.695940 
# 
# From -- ./inp_files/66398.got.cif
#   From: 2010.05.17/outbox.cif.g08.bks.cpg/sg15_34_cif.got.tgz:66398.got - 2010.06.03 18:47:42.
