data_PCOD9306295
_publ_section_title
;
Structure prediction by ZEFSAII (Michael W. Deem and Ramdas Pophale) SiO2 
 PCOD9306295
Probable space group: C 2/C
;
_chemical_formula_sum "Si O2"
_cell_formula_units_Z 32
_cell_length_a 16.244139
_cell_length_b 9.287389
_cell_length_c 18.411224
_cell_angle_alpha 90.000000
_cell_angle_beta 151.920444
_cell_angle_gamma 90.000000
_cell_volume 1307.418161
_symmetry_space_group_name_H-M "C 2/C"
_symmetry_group_IT_number 15
_symmetry_cell_setting 'monoclinic'
loop_
_space_group_symop_operation_xyz
x,y,z
-x,y,1/2-z
-x,-y,-z
x,-y,1/2+z
1/2+x,1/2+y,z
1/2-x,1/2+y,1/2-z
1/2-x,1/2-y,-z
1/2+x,1/2-y,1/2+z
loop_
_atom_site_type_symbol
_atom_site_label
_atom_site_fract_x
_atom_site_fract_y
_atom_site_fract_z
Si Si1 0.612961 0.047182 0.519369
Si Si2 0.037077 0.785388 0.193832
Si Si3 0.350588 0.285388 0.693834
Si Si4 0.074225 0.047182 0.480633
O O1 0.501369 0.863252 0.626095
O O2 0.249177 0.363253 0.373902
O O3 0.768692 0.153286 0.666206
O O4 0.500000 0.000000 0.500000
O O5 0.000000 0.777045 0.250000
O O6 0.290044 0.091871 0.438267
O O7 0.913507 0.908130 0.061731
O O8 0.500000 0.277043 0.750000
O O9 0.436284 0.346714 0.833797
O O10 0.000000 0.000000 0.500000
#
# Coordination Sequence:
#
# PCOD9306295 Si02
#       4
#     8   8   8   8
#     4  11  25  46  74 111 149 194 250 311 374 447
#     4  11  26  50  75 107 149 199 248 307 378 450
#     4  11  26  50  75 107 149 199 248 307 378 450
#     4  11  25  46  74 111 149 194 250 311 374 447
#
# _framework density 24.475719000000002
#
# number of rings (size 3 to 8) (size 9 to 14) (size 15 to 20)
#    0.000    1.000    0.000    6.000    0.000   18.000 
#    0.000    5.000    0.000    0.000    0.000    0.000 
#    0.000    0.000    0.000    0.000    0.000    0.000 
#
# Total GULP energy -89866.635039 kJ/mol
# GULP energy per Si atom -5616.664690 kJ/mol
# Density = 2.442001 g / cm^3
# Si number density = 24.475719 Si / 1000 Ang^3
#
#
#
# Elastic Constant Matrix: (Units=GPa)
#
#
# Indices 1 2 3 4 5 6 
#
# 1 254.5919 120.0634 98.9245 0.0001 2.6970 0.0000
# 2 120.0634 171.1685 94.5869 0.0005 1.2920 0.0002
# 3 98.9245 94.5869 90.7418 0.0006 5.6086 0.0002
# 4 0.0001 0.0005 0.0006 79.8796 0.0002 -1.6615
# 5 2.6970 1.2920 5.6086 0.0002 51.0860 0.0000
# 6 0.0000 0.0002 0.0002 -1.6615 0.0000 47.0893
#
#
#
# Elastic Compliance Matrix: (Units=1/GPa)
#
#
# Indices 1 2 3 4 5 6 
#
# 1 0.007009 -0.001616 -0.005976 0.000000 0.000327 0.000000
# 2 -0.001616 0.014230 -0.013143 0.000000 0.001168 0.000000
# 3 -0.005976 -0.013143 0.031409 0.000000 -0.002800 0.000000
# 4 0.000000 0.000000 0.000000 0.012528 0.000000 0.000442
# 5 0.000327 0.001168 -0.002800 0.000000 0.019835 0.000000
# 6 0.000000 0.000000 0.000000 0.000442 0.000000 0.021252
#
#
# Mechanical properties :
#
#
# Convention : Reuss Voigt Hill
#
# Bulk Modulus (GPa) = 89.47738 127.07242 108.27490
# Shear Modulus (GPa) = 33.01222 49.13946 41.07584
#
# Velocity S-wave (km/s) = 3.67655 4.48558 4.10106
# Velocity P-wave (km/s) = 7.39322 8.88018 8.17060
#
# Compressibility (1/GPa) = 0.01117601
#
# Stress axis : x y z
#
# Youngs Moduli (GPa) = 142.67966 70.27496 31.83836
#
# Poissons Ratio (x) = 0.11357 0.19028
# Poissons Ratio (y) = 0.23059 0.41846
# Poissons Ratio (z) = 0.85270 0.92363
#
# Static dielectric constant tensor:
#      x y z
#    x 1.851660 0.000000 -0.011840 
#    y 0.000000 1.958510 0.000000 
#    z -0.011840 0.000000 2.085400 
# 
# From -- ./inp_files/242158.got.cif
#   From: 2010.05.17/outbox.cif.g08.bks.cpg/sg15_122_cif.got.tgz:242158.got - 2010.06.03 18:47:42.
