data_PCOD9306404
_publ_section_title
;
Structure prediction by ZEFSAII (Michael W. Deem and Ramdas Pophale) SiO2 
 PCOD9306404
Probable space group: C 2/C
;
_chemical_formula_sum "Si O2"
_cell_formula_units_Z 40
_cell_length_a 17.658485
_cell_length_b 13.255068
_cell_length_c 12.505409
_cell_angle_alpha 90.000000
_cell_angle_beta 141.364888
_cell_angle_gamma 90.000000
_cell_volume 1827.541584
_symmetry_space_group_name_H-M "C 2/C"
_symmetry_group_IT_number 15
_symmetry_cell_setting 'monoclinic'
loop_
_space_group_symop_operation_xyz
x,y,z
-x,y,1/2-z
-x,-y,-z
x,-y,1/2+z
1/2+x,1/2+y,z
1/2-x,1/2+y,1/2-z
1/2-x,1/2-y,-z
1/2+x,1/2-y,1/2+z
loop_
_atom_site_type_symbol
_atom_site_label
_atom_site_fract_x
_atom_site_fract_y
_atom_site_fract_z
Si Si1 0.383869 0.062640 0.332898
Si Si2 0.214522 0.171745 0.312100
Si Si3 0.385307 0.742751 0.698597
Si Si4 0.968294 0.115590 0.976771
Si Si5 0.712731 0.608001 0.542244
O O1 0.324134 0.126010 0.364429
O O2 0.415216 0.147307 0.280262
O O3 0.500000 0.000000 0.500000
O O4 0.285873 0.984575 0.175121
O O5 0.222855 0.285826 0.361784
O O6 0.199739 0.101837 0.400749
O O7 0.095774 0.171123 0.108491
O O8 0.500000 0.713698 0.750000
O O9 0.250000 0.750000 0.500000
O O10 0.381541 0.662051 0.791609
O O11 0.911838 0.123592 0.031782
O O12 0.000000 0.000000 0.000000
#
# Coordination Sequence:
#
# PCOD9306404 Si02
#       5
#     8   8   8   8   8
#     4  12  27  46  75 103 149 194 248 303 374 446
#     4  11  25  48  71 106 144 190 243 309 364 442
#     4  12  30  49  77 112 153 195 252 313 377 445
#     4  12  25  46  75 103 149 187 241 299 368 446
#     4  11  26  45  74 104 142 190 247 296 376 439
#
# _framework density 21.887326999999999
#
# number of rings (size 3 to 8) (size 9 to 14) (size 15 to 20)
#    0.000    0.400    4.000    3.000    8.400    0.000 
#    0.000    0.000    0.000    0.000    0.000    0.000 
#    0.000    0.000    0.000    0.000    0.000    0.000 
#
# Total GULP energy -111809.220284 kJ/mol
# GULP energy per Si atom -5590.461014 kJ/mol
# Density = 2.183751 g / cm^3
# Si number density = 21.887327 Si / 1000 Ang^3
#
#
#
# Elastic Constant Matrix: (Units=GPa)
#
#
# Indices 1 2 3 4 5 6 
#
# 1 90.6597 -17.9801 7.0740 0.0000 -13.5087 0.0000
# 2 -17.9801 89.1376 20.2823 0.0000 -11.3062 0.0000
# 3 7.0740 20.2823 106.2133 0.0000 1.9998 0.0000
# 4 0.0000 0.0000 0.0000 15.9055 0.0000 -0.7173
# 5 -13.5087 -11.3062 1.9998 0.0000 32.9460 0.0000
# 6 0.0000 0.0000 0.0000 -0.7173 0.0000 39.8150
#
#
#
# Elastic Compliance Matrix: (Units=1/GPa)
#
#
# Indices 1 2 3 4 5 6 
#
# 1 0.012932 0.003854 -0.001724 0.000000 0.006730 0.000000
# 2 0.003854 0.013477 -0.002951 0.000000 0.006385 0.000000
# 3 -0.001724 -0.002951 0.010137 0.000000 -0.002335 0.000000
# 4 0.000000 0.000000 0.000000 0.062923 0.000000 0.001134
# 5 0.006730 0.006385 -0.002335 0.000000 0.035445 0.000000
# 6 0.000000 0.000000 0.000000 0.001134 0.000000 0.025137
#
#
# Mechanical properties :
#
#
# Convention : Reuss Voigt Hill
#
# Bulk Modulus (GPa) = 28.64818 33.86255 31.25536
# Shear Modulus (GPa) = 28.84734 36.17558 32.51146
#
# Velocity S-wave (km/s) = 3.63436 4.06989 3.85827
# Velocity P-wave (km/s) = 5.54335 6.13108 5.84461
#
# Compressibility (1/GPa) = 0.03490623
#
# Stress axis : x y z
#
# Youngs Moduli (GPa) = 77.32762 74.19901 98.64634
#
# Poissons Ratio (x) = -0.28599 0.17007
# Poissons Ratio (y) = -0.29805 0.29106
# Poissons Ratio (z) = 0.13332 0.21893
#
# Static dielectric constant tensor:
#      x y z
#    x 1.811040 0.000000 -0.008250 
#    y 0.000000 1.897460 0.000000 
#    z -0.008250 0.000000 1.790520 
# 
# From -- ./inp_files/96642.got.cif
#   From: 2010.05.17/outbox.cif.g08.bks.cpg/sg15_49_cif.got.tgz:96642.got - 2010.06.03 18:47:42.
