data_PCOD9306976
_publ_section_title
;
Structure prediction by ZEFSAII (Michael W. Deem and Ramdas Pophale) SiO2 
 PCOD9306976
Probable space group: C 2/C
;
_chemical_formula_sum "Si O2"
_cell_formula_units_Z 60
_cell_length_a 11.297338
_cell_length_b 17.840835
_cell_length_c 29.198162
_cell_angle_alpha 90.000000
_cell_angle_beta 150.557330
_cell_angle_gamma 90.000000
_cell_volume 2892.788402
_symmetry_space_group_name_H-M "C 2/C"
_symmetry_group_IT_number 15
_symmetry_cell_setting 'monoclinic'
loop_
_space_group_symop_operation_xyz
x,y,z
-x,y,1/2-z
-x,-y,-z
x,-y,1/2+z
1/2+x,1/2+y,z
1/2-x,1/2+y,1/2-z
1/2-x,1/2-y,-z
1/2+x,1/2-y,1/2+z
loop_
_atom_site_type_symbol
_atom_site_label
_atom_site_fract_x
_atom_site_fract_y
_atom_site_fract_z
Si Si1 0.071448 0.845852 0.221138
Si Si2 0.941818 0.320762 0.497218
Si Si3 0.702608 0.310153 0.727145
Si Si4 0.957219 0.432410 0.131750
Si Si5 0.000000 0.250691 0.250000
Si Si6 0.080401 0.397444 0.913067
Si Si7 0.391558 0.655582 0.920027
Si Si8 0.775377 0.164124 0.026057
O O1 0.215095 0.767844 0.266802
O O2 0.266658 0.906183 0.270229
O O3 0.000000 0.860817 0.250000
O O4 0.833960 0.836073 0.110208
O O5 0.998426 0.362363 0.564338
O O6 0.004749 0.231451 0.519934
O O7 0.103204 0.350964 0.510805
O O8 0.526598 0.294520 0.711693
O O9 0.544833 0.350084 0.635069
O O10 0.934763 0.350501 0.825893
O O11 0.962099 0.517503 0.116354
O O12 0.794022 0.402474 0.118935
O O13 0.821853 0.387162 0.046369
O O14 0.766321 0.303568 0.171677
O O15 0.366440 0.386418 0.010400
O O16 0.750000 0.250000 0.000000
#
# Coordination Sequence:
#
# PCOD9306976 Si02
#       8
#     8   8   8   8   4   8   8   8
#     4  12  23  42  71  99 128 175 231 280 336 415
#     4  12  22  42  74  98 129 178 236 281 334 416
#     4  12  22  40  70  98 131 173 235 282 337 417
#     4  12  27  46  65  99 147 180 220 295 361 412
#     4  12  20  40  74 102 122 180 234 292 326 412
#     4  12  28  43  65 106 140 178 229 294 355 409
#     4  12  23  44  72  95 137 181 235 280 342 419
#     4  12  21  43  70  98 131 184 231 279 345 420
#
# _framework density 20.741233000000001
#
# number of rings (size 3 to 8) (size 9 to 14) (size 15 to 20)
#    0.000    0.000    9.333    1.600    0.000    1.600 
#    3.600    0.000    0.000    0.000    0.000    0.000 
#    0.000    0.000    0.000    0.000    0.000    0.000 
#
# Total GULP energy -167443.149441 kJ/mol
# GULP energy per Si atom -5581.438315 kJ/mol
# Density = 2.069403 g / cm^3
# Si number density = 20.741233 Si / 1000 Ang^3
#
#
#
# Elastic Constant Matrix: (Units=GPa)
#
#
# Indices 1 2 3 4 5 6 
#
# 1 61.2143 0.9741 -12.4145 0.0001 14.1902 0.0000
# 2 0.9741 77.9464 -7.6764 0.0005 8.7431 0.0001
# 3 -12.4145 -7.6764 110.1106 0.0021 15.5972 0.0004
# 4 0.0001 0.0005 0.0021 23.9920 0.0006 -3.5544
# 5 14.1902 8.7431 15.5972 0.0006 32.7701 0.0001
# 6 0.0000 0.0001 0.0004 -3.5544 0.0001 13.8381
#
#
#
# Elastic Compliance Matrix: (Units=1/GPa)
#
#
# Indices 1 2 3 4 5 6 
#
# 1 0.019550 0.001322 0.003802 0.000000 -0.010628 0.000000
# 2 0.001322 0.013558 0.001810 0.000000 -0.005051 0.000000
# 3 0.003802 0.001810 0.010657 -0.000001 -0.007201 -0.000001
# 4 0.000000 0.000000 -0.000001 0.043329 0.000000 0.011129
# 5 -0.010628 -0.005051 -0.007201 0.000000 0.039893 0.000000
# 6 0.000000 0.000000 -0.000001 0.011129 0.000000 0.075123
#
#
# Mechanical properties :
#
#
# Convention : Reuss Voigt Hill
#
# Bulk Modulus (GPa) = 17.35172 23.44863 20.40017
# Shear Modulus (GPa) = 24.10199 32.01258 28.05728
#
# Velocity S-wave (km/s) = 3.41256 3.93291 3.68194
# Velocity P-wave (km/s) = 4.88993 5.65275 5.28512
#
# Compressibility (1/GPa) = 0.05763118
#
# Stress axis : x y z
#
# Youngs Moduli (GPa) = 51.15181 73.75933 93.83830
#
# Poissons Ratio (x) = -0.09752 -0.35675
# Poissons Ratio (y) = -0.06763 -0.16982
# Poissons Ratio (z) = -0.19447 -0.13348
#
# Static dielectric constant tensor:
#      x y z
#    x 1.639730 0.000000 -0.216580 
#    y 0.000000 1.802810 0.000010 
#    z -0.216580 0.000010 1.371800 
# 
# From -- ./inp_files/311600.got.cif
#   From: 2010.05.17/outbox.cif.g08.bks.cpg/sg15_156_cif.got.tgz:311600.got - 2010.06.03 18:47:42.
