data_PCOD9306372
_publ_section_title
;
Structure prediction by ZEFSAII (Michael W. Deem and Ramdas Pophale) SiO2 
 PCOD9306372
Probable space group: C 2/C
;
_chemical_formula_sum "Si O2"
_cell_formula_units_Z 36
_cell_length_a 28.300466
_cell_length_b 4.989508
_cell_length_c 15.533100
_cell_angle_alpha 90.000000
_cell_angle_beta 138.234649
_cell_angle_gamma 90.000000
_cell_volume 1460.955001
_symmetry_space_group_name_H-M "C 2/C"
_symmetry_group_IT_number 15
_symmetry_cell_setting 'monoclinic'
loop_
_space_group_symop_operation_xyz
x,y,z
-x,y,1/2-z
-x,-y,-z
x,-y,1/2+z
1/2+x,1/2+y,z
1/2-x,1/2+y,1/2-z
1/2-x,1/2-y,-z
1/2+x,1/2-y,1/2+z
loop_
_atom_site_type_symbol
_atom_site_label
_atom_site_fract_x
_atom_site_fract_y
_atom_site_fract_z
Si Si1 0.500870 0.316340 0.917518
Si Si2 0.620230 0.062437 0.647275
Si Si3 0.231576 0.136726 0.568221
Si Si4 0.000000 0.808783 0.250000
Si Si5 0.645049 0.149733 0.501912
O O1 0.494852 0.496713 0.825365
O O2 0.431106 0.138516 0.843059
O O3 0.500000 0.500000 0.000000
O O4 0.573034 0.149938 0.029339
O O5 0.697461 0.019694 0.791188
O O6 0.636844 0.258491 0.588976
O O7 0.250000 0.250000 0.500000
O O8 0.193851 0.385945 0.565589
O O9 0.179130 0.887447 0.493129
O O10 0.067462 0.619375 0.355795
#
# Coordination Sequence:
#
# PCOD9306372 Si02
#       5
#     8   8   8   4   8
#     4  11  25  47  76 114 154 211 251 336 385 473
#     4  11  26  46  75 110 156 199 268 314 401 463
#     4  12  28  47  75 109 153 203 260 319 390 465
#     4  12  26  48  80 112 162 196 280 310 408 466
#     4  12  27  46  75 109 150 208 250 325 383 463
#
# _framework density 24.641417000000001
#
# number of rings (size 3 to 8) (size 9 to 14) (size 15 to 20)
#    0.000    0.444    2.222    4.667    6.222    3.556 
#    0.000    0.000    0.000    0.000    0.000    0.000 
#    0.000    0.000    0.000    0.000    0.000    0.000 
#
# Total GULP energy -100687.804558 kJ/mol
# GULP energy per Si atom -5593.766920 kJ/mol
# Density = 2.458533 g / cm^3
# Si number density = 24.641417 Si / 1000 Ang^3
#
#
#
# Elastic Constant Matrix: (Units=GPa)
#
#
# Indices 1 2 3 4 5 6 
#
# 1 121.9105 23.2942 53.6397 0.0002 -4.5219 0.0002
# 2 23.2942 75.5421 12.4693 0.0030 17.8014 0.0020
# 3 53.6397 12.4693 139.5847 0.0007 19.4911 0.0006
# 4 0.0002 0.0030 0.0007 37.5001 0.0005 -2.4346
# 5 -4.5219 17.8014 19.4911 0.0005 57.8238 0.0002
# 6 0.0002 0.0020 0.0006 -2.4346 0.0002 41.5509
#
#
#
# Elastic Compliance Matrix: (Units=1/GPa)
#
#
# Indices 1 2 3 4 5 6 
#
# 1 0.010901 -0.003439 -0.004353 0.000000 0.003379 0.000000
# 2 -0.003439 0.015422 0.000676 -0.000001 -0.005245 -0.000001
# 3 -0.004353 0.000676 0.009291 0.000000 -0.003680 0.000000
# 4 0.000000 -0.000001 0.000000 0.026768 0.000000 0.001568
# 5 0.003379 -0.005245 -0.003680 0.000000 0.020413 0.000000
# 6 0.000000 -0.000001 0.000000 0.001568 0.000000 0.024159
#
#
# Mechanical properties :
#
#
# Convention : Reuss Voigt Hill
#
# Bulk Modulus (GPa) = 46.77020 57.31597 52.04309
# Shear Modulus (GPa) = 38.96706 43.88390 41.42548
#
# Velocity S-wave (km/s) = 3.98095 4.22465 4.10461
# Velocity P-wave (km/s) = 6.33657 6.86348 6.60528
#
# Compressibility (1/GPa) = 0.02138114
#
# Stress axis : x y z
#
# Youngs Moduli (GPa) = 91.73771 64.84090 107.63619
#
# Poissons Ratio (x) = 0.22298 0.46859
# Poissons Ratio (y) = 0.31548 -0.07278
# Poissons Ratio (z) = 0.39938 -0.04384
#
# Static dielectric constant tensor:
#      x y z
#    x 2.233450 0.000000 -0.009430 
#    y 0.000000 2.032370 0.000000 
#    z -0.009430 0.000000 1.976140 
# 
# From -- ./inp_files/180254.got.cif
#   From: 2010.05.17/outbox.cif.g08.bks.cpg/sg15_91_cif.got.tgz:180254.got - 2010.06.03 18:47:42.
