data_PCOD9306760
_publ_section_title
;
Structure prediction by ZEFSAII (Michael W. Deem and Ramdas Pophale) SiO2 
 PCOD9306760
Probable space group: C 2/C
;
_chemical_formula_sum "Si O2"
_cell_formula_units_Z 28
_cell_length_a 11.414162
_cell_length_b 9.253172
_cell_length_c 14.321073
_cell_angle_alpha 90.000000
_cell_angle_beta 131.048619
_cell_angle_gamma 90.000000
_cell_volume 1140.694794
_symmetry_space_group_name_H-M "C 2/C"
_symmetry_group_IT_number 15
_symmetry_cell_setting 'monoclinic'
loop_
_space_group_symop_operation_xyz
x,y,z
-x,y,1/2-z
-x,-y,-z
x,-y,1/2+z
1/2+x,1/2+y,z
1/2-x,1/2+y,1/2-z
1/2-x,1/2-y,-z
1/2+x,1/2-y,1/2+z
loop_
_atom_site_type_symbol
_atom_site_label
_atom_site_fract_x
_atom_site_fract_y
_atom_site_fract_z
Si Si1 0.500000 0.308039 0.250000
Si Si2 0.888656 0.581469 0.324841
Si Si3 0.548894 0.522643 0.131175
Si Si4 0.411161 0.816629 0.048743
O O1 0.383703 0.200310 0.241159
O O2 0.444828 0.419203 0.141540
O O3 0.729618 0.491667 0.242823
O O4 0.908853 0.659698 0.435467
O O5 0.031313 0.471077 0.383933
O O6 0.529214 0.691592 0.141540
O O7 0.500000 0.500000 0.000000
O O8 0.250000 0.750000 0.000000
#
# Coordination Sequence:
#
# PCOD9306760 Si02
#       4
#     4   8   8   8
#     4  12  26  46  78 108 148 202 254 314 374 454
#     4  11  27  49  74 113 154 198 260 312 385 462
#     4  12  26  48  74 112 155 199 256 316 385 460
#     4  11  26  50  78 108 153 205 253 323 384 455
#
# _framework density 24.546446
#
# number of rings (size 3 to 8) (size 9 to 14) (size 15 to 20)
#    0.000    0.571    2.857    3.429    4.000    4.571 
#    0.000    0.000    0.000    0.000    0.000    0.000 
#    0.000    0.000    0.000    0.000    0.000    0.000 
#
# Total GULP energy -78340.923885 kJ/mol
# GULP energy per Si atom -5595.780278 kJ/mol
# Density = 2.449058 g / cm^3
# Si number density = 24.546446 Si / 1000 Ang^3
#
#
#
# Elastic Constant Matrix: (Units=GPa)
#
#
# Indices 1 2 3 4 5 6 
#
# 1 108.2629 77.0277 38.5882 0.0000 -7.4213 0.0000
# 2 77.0277 171.7506 42.0775 0.0000 -16.7274 0.0000
# 3 38.5882 42.0775 79.2669 0.0000 -19.5791 0.0000
# 4 0.0000 0.0000 0.0000 43.3600 0.0000 -7.7665
# 5 -7.4213 -16.7274 -19.5791 0.0000 47.6600 0.0000
# 6 0.0000 0.0000 0.0000 -7.7665 0.0000 59.2192
#
#
#
# Elastic Compliance Matrix: (Units=1/GPa)
#
#
# Indices 1 2 3 4 5 6 
#
# 1 0.014792 -0.005664 -0.004581 0.000000 -0.001567 0.000000
# 2 -0.005664 0.008904 -0.001575 0.000000 0.001596 0.000000
# 3 -0.004581 -0.001575 0.017105 0.000000 0.005761 0.000000
# 4 0.000000 0.000000 0.000000 0.023618 0.000000 0.003097
# 5 -0.001567 0.001596 0.005761 0.000000 0.023665 0.000000
# 6 0.000000 0.000000 0.000000 0.003097 0.000000 0.017293
#
#
# Mechanical properties :
#
#
# Convention : Reuss Voigt Hill
#
# Bulk Modulus (GPa) = 58.27445 74.96305 66.61875
# Shear Modulus (GPa) = 37.10928 43.48697 40.29812
#
# Velocity S-wave (km/s) = 3.89240 4.21363 4.05620
# Velocity P-wave (km/s) = 6.63273 7.36739 7.00969
#
# Compressibility (1/GPa) = 0.01716018
#
# Stress axis : x y z
#
# Youngs Moduli (GPa) = 67.60202 112.30813 58.46349
#
# Poissons Ratio (x) = 0.63616 0.26784
# Poissons Ratio (y) = 0.38293 0.09207
# Poissons Ratio (z) = 0.30970 0.17687
#
# Static dielectric constant tensor:
#      x y z
#    x 2.031470 0.000000 0.005840 
#    y 0.000000 1.941920 0.000000 
#    z 0.005840 0.000000 1.912150 
# 
# From -- ./inp_files/140435.got.cif
#   From: 2010.05.17/outbox.cif.g08.bks.cpg/sg15_71_cif.got.tgz:140435.got - 2010.06.03 18:47:42.
