data_PCOD9306286
_publ_section_title
;
Structure prediction by ZEFSAII (Michael W. Deem and Ramdas Pophale) SiO2 
 PCOD9306286
Probable space group: C 2/C
;
_chemical_formula_sum "Si O2"
_cell_formula_units_Z 44
_cell_length_a 27.894907
_cell_length_b 16.287756
_cell_length_c 14.290526
_cell_angle_alpha 90.000000
_cell_angle_beta 18.668664
_cell_angle_gamma 90.000000
_cell_volume 2078.323454
_symmetry_space_group_name_H-M "C 2/C"
_symmetry_group_IT_number 15
_symmetry_cell_setting 'monoclinic'
loop_
_space_group_symop_operation_xyz
x,y,z
-x,y,1/2-z
-x,-y,-z
x,-y,1/2+z
1/2+x,1/2+y,z
1/2-x,1/2+y,1/2-z
1/2-x,1/2-y,-z
1/2+x,1/2-y,1/2+z
loop_
_atom_site_type_symbol
_atom_site_label
_atom_site_fract_x
_atom_site_fract_y
_atom_site_fract_z
Si Si1 0.884944 0.572522 0.684608
Si Si2 0.000000 0.727583 0.750000
Si Si3 0.247849 0.627458 0.383898
Si Si4 0.321464 0.025470 0.596778
Si Si5 0.522546 0.251413 0.387246
Si Si6 0.215597 0.191274 0.706379
O O1 0.805651 0.548441 0.734378
O O2 0.000000 0.500000 0.500000
O O3 0.971617 0.658705 0.507381
O O4 0.768584 0.587000 0.983780
O O5 0.089991 0.672240 0.656793
O O6 0.122116 0.778886 0.468026
O O7 0.259313 0.557459 0.284633
O O8 0.377925 0.693599 0.138022
O O9 0.264327 0.098684 0.636700
O O10 0.500000 0.015474 0.250000
O O11 0.613861 0.293196 0.303361
O O12 0.634073 0.242597 0.093217
#
# Coordination Sequence:
#
# PCOD9306286 Si02
#       6
#     8   4   8   8   8   8
#     4  12  22  43  73 104 141 192 238 293 358 433
#     4  12  24  42  76 108 136 186 244 298 358 434
#     4  12  25  45  73 106 140 190 246 293 358 432
#     4  12  24  45  70 102 145 194 235 294 366 427
#     4  11  25  46  74 103 146 190 238 302 356 429
#     4  11  26  45  70 106 144 190 239 295 364 425
#
# _framework density 21.170909000000002
#
# number of rings (size 3 to 8) (size 9 to 14) (size 15 to 20)
#    0.000    0.364    6.364    1.636    2.545    0.727 
#    0.000    1.818    0.000    0.000    0.000    0.000 
#    0.000    0.000    0.000    0.000    0.000    0.000 
#
# Total GULP energy -123129.034421 kJ/mol
# GULP energy per Si atom -5596.774292 kJ/mol
# Density = 2.112272 g / cm^3
# Si number density = 21.170909 Si / 1000 Ang^3
#
#
#
# Elastic Constant Matrix: (Units=GPa)
#
#
# Indices 1 2 3 4 5 6 
#
# 1 90.3321 61.2195 50.5958 0.0003 -9.0186 -0.0003
# 2 61.2195 160.7485 61.4653 0.0002 -18.6083 -0.0002
# 3 50.5958 61.4653 102.7851 0.0002 9.6710 -0.0002
# 4 0.0003 0.0002 0.0002 23.6639 -0.0002 -10.1913
# 5 -9.0186 -18.6083 9.6710 -0.0002 25.5453 0.0002
# 6 -0.0003 -0.0002 -0.0002 -10.1913 0.0002 33.8942
#
#
#
# Elastic Compliance Matrix: (Units=1/GPa)
#
#
# Indices 1 2 3 4 5 6 
#
# 1 0.018277 -0.003171 -0.007767 0.000000 0.007083 0.000000
# 2 -0.003171 0.010566 -0.005575 0.000000 0.008688 0.000000
# 3 -0.007767 -0.005575 0.018174 0.000000 -0.013683 0.000000
# 4 0.000000 0.000000 0.000000 0.048545 0.000000 0.014596
# 5 0.007083 0.008688 -0.013683 0.000000 0.053156 0.000000
# 6 0.000000 0.000000 0.000000 0.014596 0.000000 0.033892
#
#
# Mechanical properties :
#
#
# Convention : Reuss Voigt Hill
#
# Bulk Modulus (GPa) = 71.47619 77.82520 74.65070
# Shear Modulus (GPa) = 22.69652 28.65969 25.67811
#
# Velocity S-wave (km/s) = 3.27779 3.68330 3.48644
# Velocity P-wave (km/s) = 6.93974 7.41142 7.17946
#
# Compressibility (1/GPa) = 0.01399067
#
# Stress axis : x y z
#
# Youngs Moduli (GPa) = 54.71474 94.64461 55.02455
#
# Poissons Ratio (x) = 0.30008 0.42738
# Poissons Ratio (y) = 0.17348 0.30677
# Poissons Ratio (z) = 0.42497 0.52765
#
# Static dielectric constant tensor:
#      x y z
#    x 1.796490 0.000000 0.021850 
#    y 0.000000 1.747280 0.000000 
#    z 0.021850 0.000000 1.769230 
# 
# From -- ./inp_files/182224.got.cif
#   From: 2010.05.17/outbox.cif.g08.bks.cpg/sg15_92_cif.got.tgz:182224.got - 2010.06.03 18:47:42.
