data_PCOD9306251
_publ_section_title
;
Structure prediction by ZEFSAII (Michael W. Deem and Ramdas Pophale) SiO2 
 PCOD9306251
Probable space group: C 2/C
;
_chemical_formula_sum "Si O2"
_cell_formula_units_Z 64
_cell_length_a 21.361006
_cell_length_b 8.495133
_cell_length_c 19.052121
_cell_angle_alpha 90.000000
_cell_angle_beta 58.703397
_cell_angle_gamma 90.000000
_cell_volume 2954.214411
_symmetry_space_group_name_H-M "C 2/C"
_symmetry_group_IT_number 15
_symmetry_cell_setting 'monoclinic'
loop_
_space_group_symop_operation_xyz
x,y,z
-x,y,1/2-z
-x,-y,-z
x,-y,1/2+z
1/2+x,1/2+y,z
1/2-x,1/2+y,1/2-z
1/2-x,1/2-y,-z
1/2+x,1/2-y,1/2+z
loop_
_atom_site_type_symbol
_atom_site_label
_atom_site_fract_x
_atom_site_fract_y
_atom_site_fract_z
Si Si1 0.429711 0.008184 0.743496
Si Si2 0.578627 0.424922 0.472421
Si Si3 0.200810 0.347317 0.598591
Si Si4 0.571304 0.930857 0.922320
Si Si5 0.661888 0.465146 0.057220
Si Si6 0.789929 0.631193 0.655809
Si Si7 0.165979 0.935434 0.802478
Si Si8 0.920997 0.115231 0.270462
O O1 0.500000 0.958152 0.750000
O O2 0.425241 0.197627 0.754998
O O3 0.356003 0.937970 0.819813
O O4 0.434217 0.953391 0.659308
O O5 0.500000 0.500000 0.500000
O O6 0.577894 0.246160 0.446543
O O7 0.603471 0.462409 0.536923
O O8 0.643901 0.504177 0.390659
O O9 0.255346 0.462051 0.523208
O O10 0.155323 0.222126 0.577591
O O11 0.250647 0.232844 0.618422
O O12 0.641258 0.029719 0.907980
O O13 0.500000 0.000000 0.000000
O O14 0.643252 0.561879 0.138783
O O15 0.817584 0.753170 0.698054
O O16 0.733398 0.519177 0.727572
O O17 0.097100 0.963390 0.792850
O O18 0.000000 0.060875 0.250000
#
# Coordination Sequence:
#
# PCOD9306251 Si02
#       8
#     8   8   8   8   8   8   8   8
#     4  11  27  48  75 104 146 195 245 302 372 442
#     4  12  27  45  74 108 146 191 245 307 372 434
#     4  11  25  48  72 108 147 193 246 300 371 439
#     4  12  29  47  74 110 147 193 247 308 370 436
#     4  11  26  46  72 109 144 191 243 307 361 439
#     4  12  24  46  72 104 145 191 243 300 359 441
#     4  12  23  44  73 101 145 193 247 301 363 445
#     4  11  25  46  71 105 147 192 244 301 370 439
#
# _framework density 21.663965999999999
#
# number of rings (size 3 to 8) (size 9 to 14) (size 15 to 20)
#    0.000    0.500    3.750    3.750    5.250    3.000 
#    0.000    0.000    0.000    0.000    0.000    0.000 
#    0.000    0.000    0.000    0.000    0.000    0.000 
#
# Total GULP energy -178851.390335 kJ/mol
# GULP energy per Si atom -5589.105948 kJ/mol
# Density = 2.161466 g / cm^3
# Si number density = 21.663966 Si / 1000 Ang^3
#
#
#
# Elastic Constant Matrix: (Units=GPa)
#
#
# Indices 1 2 3 4 5 6 
#
# 1 66.1295 27.3718 10.8805 -0.0001 -2.8340 -0.0002
# 2 27.3718 82.9484 18.8554 0.0000 -16.2093 -0.0002
# 3 10.8805 18.8554 105.2111 0.0000 -10.0380 -0.0001
# 4 -0.0001 0.0000 0.0000 47.5404 0.0000 -6.6515
# 5 -2.8340 -16.2093 -10.0380 0.0000 45.5543 0.0000
# 6 -0.0002 -0.0002 -0.0001 -6.6515 0.0000 34.8129
#
#
#
# Elastic Compliance Matrix: (Units=1/GPa)
#
#
# Indices 1 2 3 4 5 6 
#
# 1 0.017638 -0.005849 -0.000888 0.000000 -0.001180 0.000000
# 2 -0.005849 0.015288 -0.001686 0.000000 0.004705 0.000000
# 3 -0.000888 -0.001686 0.010047 0.000000 0.001559 0.000000
# 4 0.000000 0.000000 0.000000 0.021613 0.000000 0.004129
# 5 -0.001180 0.004705 0.001559 0.000000 0.023896 0.000000
# 6 0.000000 0.000000 0.000000 0.004129 0.000000 0.029514
#
#
# Mechanical properties :
#
#
# Convention : Reuss Voigt Hill
#
# Bulk Modulus (GPa) = 38.27442 40.94494 39.60968
# Shear Modulus (GPa) = 34.83033 38.72693 36.77863
#
# Velocity S-wave (km/s) = 4.01403 4.23261 4.12477
# Velocity P-wave (km/s) = 6.26011 6.54429 6.40377
#
# Compressibility (1/GPa) = 0.02612711
#
# Stress axis : x y z
#
# Youngs Moduli (GPa) = 56.69431 65.40899 99.52738
#
# Poissons Ratio (x) = 0.38258 0.08842
# Poissons Ratio (y) = 0.33161 0.16782
# Poissons Ratio (z) = 0.05037 0.11029
#
# Static dielectric constant tensor:
#      x y z
#    x 1.830800 0.000000 0.027180 
#    y 0.000000 1.525430 0.000000 
#    z 0.027180 0.000000 1.755280 
# 
# From -- ./inp_files/251891.got.cif
#   From: 2010.05.17/outbox.cif.g08.bks.cpg/sg15_126_cif.got.tgz:251891.got - 2010.06.03 18:47:42.
