data_PCOD9306776
_publ_section_title
;
Structure prediction by ZEFSAII (Michael W. Deem and Ramdas Pophale) SiO2 
 PCOD9306776
Probable space group: C 2/C
;
_chemical_formula_sum "Si O2"
_cell_formula_units_Z 56
_cell_length_a 11.761485
_cell_length_b 8.927289
_cell_length_c 28.881862
_cell_angle_alpha 90.000000
_cell_angle_beta 57.626109
_cell_angle_gamma 90.000000
_cell_volume 2561.200778
_symmetry_space_group_name_H-M "C 2/C"
_symmetry_group_IT_number 15
_symmetry_cell_setting 'monoclinic'
loop_
_space_group_symop_operation_xyz
x,y,z
-x,y,1/2-z
-x,-y,-z
x,-y,1/2+z
1/2+x,1/2+y,z
1/2-x,1/2+y,1/2-z
1/2-x,1/2-y,-z
1/2+x,1/2-y,1/2+z
loop_
_atom_site_type_symbol
_atom_site_label
_atom_site_fract_x
_atom_site_fract_y
_atom_site_fract_z
Si Si1 0.764628 0.075830 0.513587
Si Si2 0.471102 0.010266 0.060366
Si Si3 0.524039 0.061610 0.690674
Si Si4 0.381752 0.766246 0.147703
Si Si5 0.586525 0.269285 0.187254
Si Si6 0.318967 0.320922 0.100885
Si Si7 0.048225 0.972816 0.108636
O O1 0.750000 0.250000 0.500000
O O2 0.837487 0.096033 0.547107
O O3 0.844011 0.988118 0.456218
O O4 0.620802 0.991676 0.550895
O O5 0.367972 0.148406 0.088093
O O6 0.410141 0.860171 0.095130
O O7 0.500000 0.000000 0.000000
O O8 0.500000 0.082510 0.750000
O O9 0.404264 0.127413 0.686308
O O10 0.664651 0.142585 0.646934
O O11 0.526441 0.884229 0.680478
O O12 0.229579 0.716073 0.176291
O O13 0.491326 0.637831 0.129692
O O14 0.500000 0.324572 0.250000
O O15 0.596774 0.390746 0.144357
O O16 0.418849 0.388500 0.116679
#
# Coordination Sequence:
#
# PCOD9306776 Si02
#       7
#     8   8   8   8   8   8   8
#     4  12  23  44  68 105 147 189 243 289 358 437
#     4  12  24  41  72 101 145 192 232 291 359 428
#     4  11  26  51  74 103 146 189 242 306 361 429
#     4  12  25  46  72 105 143 188 238 298 361 432
#     4  11  28  49  72 106 142 187 246 302 366 435
#     4  12  25  45  70 108 144 191 240 300 365 427
#     4  12  26  45  72 107 146 186 245 298 358 438
#
# _framework density 21.864746
#
# number of rings (size 3 to 8) (size 9 to 14) (size 15 to 20)
#    0.000    0.286    5.714    2.143    4.000    1.143 
#    0.000    0.000    0.000    0.000    0.000    0.000 
#    0.000    0.000    0.000    0.000    0.000    0.000 
#
# Total GULP energy -156549.845114 kJ/mol
# GULP energy per Si atom -5591.065897 kJ/mol
# Density = 2.181498 g / cm^3
# Si number density = 21.864746 Si / 1000 Ang^3
#
#
#
# Elastic Constant Matrix: (Units=GPa)
#
#
# Indices 1 2 3 4 5 6 
#
# 1 69.6817 11.7218 9.3995 0.0000 11.3438 0.0000
# 2 11.7218 92.4002 33.7543 0.0000 15.7710 0.0000
# 3 9.3995 33.7543 96.3751 0.0000 5.8402 0.0000
# 4 0.0000 0.0000 0.0000 29.5234 0.0000 6.3457
# 5 11.3438 15.7710 5.8402 0.0000 24.7632 0.0000
# 6 0.0000 0.0000 0.0000 6.3457 0.0000 38.8504
#
#
#
# Elastic Compliance Matrix: (Units=1/GPa)
#
#
# Indices 1 2 3 4 5 6 
#
# 1 0.015642 -0.000509 -0.000946 0.000000 -0.006618 0.000000
# 2 -0.000509 0.013741 -0.004309 0.000000 -0.007502 0.000000
# 3 -0.000946 -0.004309 0.011956 0.000000 0.000358 0.000000
# 4 0.000000 0.000000 0.000000 0.035104 0.000000 -0.005734
# 5 -0.006618 -0.007502 0.000358 0.000000 0.048108 0.000000
# 6 0.000000 0.000000 0.000000 -0.005734 0.000000 0.026676
#
#
# Mechanical properties :
#
#
# Convention : Reuss Voigt Hill
#
# Bulk Modulus (GPa) = 33.54439 40.91201 37.22820
# Shear Modulus (GPa) = 28.95339 32.19949 30.57644
#
# Velocity S-wave (km/s) = 3.64291 3.84170 3.74362
# Velocity P-wave (km/s) = 5.75061 6.19921 5.97912
#
# Compressibility (1/GPa) = 0.02981124
#
# Stress axis : x y z
#
# Youngs Moduli (GPa) = 63.93209 72.77231 83.64185
#
# Poissons Ratio (x) = 0.03705 0.07914
# Poissons Ratio (y) = 0.03255 0.36037
# Poissons Ratio (z) = 0.06049 0.31354
#
# Static dielectric constant tensor:
#      x y z
#    x 1.810740 0.000000 -0.018610 
#    y 0.000000 1.841360 0.000000 
#    z -0.018610 0.000000 1.805580 
# 
# From -- ./inp_files/291528.got.cif
#   From: 2010.05.17/outbox.cif.g08.bks.cpg/sg15_146_cif.got.tgz:291528.got - 2010.06.03 18:47:42.
