data_PCOD9306664
_publ_section_title
;
Structure prediction by ZEFSAII (Michael W. Deem and Ramdas Pophale) SiO2 
 PCOD9306664
Probable space group: C 2/C
;
_chemical_formula_sum "Si O2"
_cell_formula_units_Z 48
_cell_length_a 18.532900
_cell_length_b 6.259084
_cell_length_c 27.381429
_cell_angle_alpha 90.000000
_cell_angle_beta 139.289174
_cell_angle_gamma 90.000000
_cell_volume 2071.661495
_symmetry_space_group_name_H-M "C 2/C"
_symmetry_group_IT_number 15
_symmetry_cell_setting 'monoclinic'
loop_
_space_group_symop_operation_xyz
x,y,z
-x,y,1/2-z
-x,-y,-z
x,-y,1/2+z
1/2+x,1/2+y,z
1/2-x,1/2+y,1/2-z
1/2-x,1/2-y,-z
1/2+x,1/2-y,1/2+z
loop_
_atom_site_type_symbol
_atom_site_label
_atom_site_fract_x
_atom_site_fract_y
_atom_site_fract_z
Si Si1 0.467958 0.247178 0.497483
Si Si2 0.430697 0.280867 0.582921
Si Si3 0.614327 0.949877 0.790461
Si Si4 0.106291 0.092408 0.710237
Si Si5 0.281447 0.940517 0.552657
Si Si6 0.282942 0.758522 0.829005
O O1 0.500000 0.500000 0.500000
O O2 0.500346 0.237013 0.570608
O O3 0.345015 0.236026 0.412384
O O4 0.500000 0.000000 0.500000
O O5 0.503499 0.432703 0.653314
O O6 0.323838 0.403803 0.506367
O O7 0.386160 0.069168 0.585245
O O8 0.500000 0.056968 0.750000
O O9 0.579729 0.749214 0.740548
O O10 0.688136 0.888256 0.875843
O O11 0.686724 0.087417 0.789972
O O12 0.131580 0.196944 0.670218
O O13 0.219611 0.972044 0.781828
O O14 0.250000 0.750000 0.500000
#
# Coordination Sequence:
#
# PCOD9306664 Si02
#       6
#     8   8   8   8   8   8
#     4  12  29  48  83 118 159 208 270 335 416 494
#     4  11  26  47  74 116 157 205 275 340 410 488
#     4  12  27  48  75 111 155 209 273 331 409 490
#     4  12  27  47  76 113 159 210 263 345 412 488
#     4  11  26  47  76 107 153 212 269 336 406 496
#     4  12  27  46  77 113 158 206 268 332 414 488
#
# _framework density 23.169809000000001
#
# number of rings (size 3 to 8) (size 9 to 14) (size 15 to 20)
#    0.000    0.333    5.000    2.000    9.333    3.333 
#    0.000    0.000    0.000    0.000    0.000    0.000 
#    0.000    0.000    0.000    0.000    0.000    0.000 
#
# Total GULP energy -133900.334794 kJ/mol
# GULP energy per Si atom -5579.180616 kJ/mol
# Density = 2.311707 g / cm^3
# Si number density = 23.169809 Si / 1000 Ang^3
#
#
#
# Elastic Constant Matrix: (Units=GPa)
#
#
# Indices 1 2 3 4 5 6 
#
# 1 72.3732 37.0076 9.8863 0.0001 -17.0926 -0.0004
# 2 37.0076 103.8020 20.7628 0.0003 -10.7774 -0.0010
# 3 9.8863 20.7628 96.2554 0.0001 -8.7227 -0.0001
# 4 0.0001 0.0003 0.0001 56.4214 0.0000 3.3182
# 5 -17.0926 -10.7774 -8.7227 0.0000 42.1696 0.0002
# 6 -0.0004 -0.0010 -0.0001 3.3182 0.0002 29.3582
#
#
#
# Elastic Compliance Matrix: (Units=1/GPa)
#
#
# Indices 1 2 3 4 5 6 
#
# 1 0.018215 -0.005870 -0.000073 0.000000 0.005868 0.000000
# 2 -0.005870 0.012158 -0.001991 0.000000 0.000316 0.000000
# 3 -0.000073 -0.001991 0.010983 0.000000 0.001733 0.000000
# 4 0.000000 0.000000 0.000000 0.017842 0.000000 -0.002017
# 5 0.005868 0.000316 0.001733 0.000000 0.026531 0.000000
# 6 0.000000 0.000000 0.000000 -0.002017 0.000000 0.034290
#
#
# Mechanical properties :
#
#
# Convention : Reuss Voigt Hill
#
# Bulk Modulus (GPa) = 39.23491 45.30488 42.26990
# Shear Modulus (GPa) = 34.63019 39.24142 36.93581
#
# Velocity S-wave (km/s) = 3.87023 4.11986 3.99699
# Velocity P-wave (km/s) = 6.07799 6.49822 6.29161
#
# Compressibility (1/GPa) = 0.02548751
#
# Stress axis : x y z
#
# Youngs Moduli (GPa) = 54.90087 82.25323 91.04937
#
# Poissons Ratio (x) = 0.48284 0.00663
# Poissons Ratio (y) = 0.32227 0.18127
# Poissons Ratio (z) = 0.00400 0.16376
#
# Static dielectric constant tensor:
#      x y z
#    x 2.204970 -0.000010 -0.009420 
#    y -0.000010 2.033330 0.000000 
#    z -0.009420 0.000000 1.847160 
# 
# From -- ./inp_files/317103.got.cif
#   From: 2010.05.17/outbox.cif.g08.bks.cpg/sg15_159_cif.got.tgz:317103.got - 2010.06.03 18:47:42.
