data_PCOD9306610
_publ_section_title
;
Structure prediction by ZEFSAII (Michael W. Deem and Ramdas Pophale) SiO2 
 PCOD9306610
Probable space group: C 2/C
;
_chemical_formula_sum "Si O2"
_cell_formula_units_Z 48
_cell_length_a 18.548447
_cell_length_b 6.958648
_cell_length_c 20.831905
_cell_angle_alpha 90.000000
_cell_angle_beta 128.628881
_cell_angle_gamma 90.000000
_cell_volume 2100.520479
_symmetry_space_group_name_H-M "C 2/C"
_symmetry_group_IT_number 15
_symmetry_cell_setting 'monoclinic'
loop_
_space_group_symop_operation_xyz
x,y,z
-x,y,1/2-z
-x,-y,-z
x,-y,1/2+z
1/2+x,1/2+y,z
1/2-x,1/2+y,1/2-z
1/2-x,1/2-y,-z
1/2+x,1/2-y,1/2+z
loop_
_atom_site_type_symbol
_atom_site_label
_atom_site_fract_x
_atom_site_fract_y
_atom_site_fract_z
Si Si1 0.396975 0.555150 0.464873
Si Si2 0.351880 0.829016 0.326847
Si Si3 0.974107 0.711855 0.661059
Si Si4 0.129079 0.659629 0.430343
Si Si5 0.687814 0.501352 0.404676
Si Si6 0.294477 0.204877 0.354219
O O1 0.500000 0.500000 0.500000
O O2 0.347901 0.692782 0.385955
O O3 0.395100 0.685727 0.527695
O O4 0.342962 0.353656 0.429461
O O5 0.437492 0.747270 0.333387
O O6 0.261589 0.814830 0.232267
O O7 0.360834 0.047097 0.358050
O O8 0.945168 0.500392 0.623372
O O9 0.886760 0.853643 0.606824
O O10 0.000000 0.716199 0.750000
O O11 0.222447 0.545790 0.501851
O O12 0.143342 0.790088 0.375424
O O13 0.722872 0.585160 0.357580
#
# Coordination Sequence:
#
# PCOD9306610 Si02
#       6
#     8   8   8   8   8   8
#     4  12  27  46  73 112 146 191 244 306 359 438
#     4  12  26  47  74 108 145 193 241 299 368 441
#     4  12  27  46  72 106 148 190 242 303 361 432
#     4  11  27  45  74 104 146 190 243 296 367 430
#     4  11  26  46  72 105 141 188 240 300 356 438
#     4  12  26  46  77 103 147 189 245 294 374 435
#
# _framework density 22.851479000000001
#
# number of rings (size 3 to 8) (size 9 to 14) (size 15 to 20)
#    0.000    0.333    5.000    2.500    9.333    3.333 
#    3.000    0.000    0.000    0.000    0.000    0.000 
#    0.000    0.000    0.000    0.000    0.000    0.000 
#
# Total GULP energy -134241.139704 kJ/mol
# GULP energy per Si atom -5593.380821 kJ/mol
# Density = 2.279947 g / cm^3
# Si number density = 22.851479 Si / 1000 Ang^3
#
#
#
# Elastic Constant Matrix: (Units=GPa)
#
#
# Indices 1 2 3 4 5 6 
#
# 1 90.4222 36.7701 15.2981 0.0000 -2.9136 0.0000
# 2 36.7701 120.6320 59.9509 0.0000 -7.5165 0.0001
# 3 15.2981 59.9509 60.1232 0.0000 -12.7462 0.0000
# 4 0.0000 0.0000 0.0000 27.9223 0.0000 1.8849
# 5 -2.9136 -7.5165 -12.7462 0.0000 29.2258 0.0000
# 6 0.0000 0.0001 0.0000 1.8849 0.0000 34.1943
#
#
#
# Elastic Compliance Matrix: (Units=1/GPa)
#
#
# Indices 1 2 3 4 5 6 
#
# 1 0.012685 -0.004547 0.001462 0.000000 0.000733 0.000000
# 2 -0.004547 0.018343 -0.017882 0.000000 -0.003535 0.000000
# 3 0.001462 -0.017882 0.036524 0.000000 0.011476 0.000000
# 4 0.000000 0.000000 0.000000 0.035947 0.000000 -0.001982
# 5 0.000733 -0.003535 0.011476 0.000000 0.038385 0.000000
# 6 0.000000 0.000000 0.000000 -0.001982 0.000000 0.029354
#
#
# Mechanical properties :
#
#
# Convention : Reuss Voigt Hill
#
# Bulk Modulus (GPa) = 39.03723 55.02395 47.03059
# Shear Modulus (GPa) = 22.55174 28.87904 25.71539
#
# Velocity S-wave (km/s) = 3.14488 3.55881 3.35823
# Velocity P-wave (km/s) = 5.50519 6.40454 5.97182
#
# Compressibility (1/GPa) = 0.02561657
#
# Stress axis : x y z
#
# Youngs Moduli (GPa) = 78.83519 54.51787 27.37889
#
# Poissons Ratio (x) = 0.24792 -0.04003
# Poissons Ratio (y) = 0.35850 0.48960
# Poissons Ratio (z) = -0.11528 0.97491
#
# Static dielectric constant tensor:
#      x y z
#    x 1.877670 0.000000 -0.012090 
#    y 0.000000 1.835390 0.000000 
#    z -0.012090 0.000000 1.824320 
# 
# From -- ./inp_files/279057.got.cif
#   From: 2010.05.17/outbox.cif.g08.bks.cpg/sg15_140_cif.got.tgz:279057.got - 2010.06.03 18:47:42.
