data_PCOD9306042
_publ_section_title
;
Structure prediction by ZEFSAII (Michael W. Deem and Ramdas Pophale) SiO2 
 PCOD9306042
Probable space group: C 2/C
;
_chemical_formula_sum "Si O2"
_cell_formula_units_Z 48
_cell_length_a 16.441161
_cell_length_b 10.974910
_cell_length_c 12.894366
_cell_angle_alpha 90.000000
_cell_angle_beta 102.673083
_cell_angle_gamma 90.000000
_cell_volume 2269.979968
_symmetry_space_group_name_H-M "C 2/C"
_symmetry_group_IT_number 15
_symmetry_cell_setting 'monoclinic'
loop_
_space_group_symop_operation_xyz
x,y,z
-x,y,1/2-z
-x,-y,-z
x,-y,1/2+z
1/2+x,1/2+y,z
1/2-x,1/2+y,1/2-z
1/2-x,1/2-y,-z
1/2+x,1/2-y,1/2+z
loop_
_atom_site_type_symbol
_atom_site_label
_atom_site_fract_x
_atom_site_fract_y
_atom_site_fract_z
Si Si1 0.097816 0.955505 0.285170
Si Si2 0.354670 0.305476 0.831318
Si Si3 0.788351 0.031715 0.488401
Si Si4 0.365227 0.941132 0.942277
Si Si5 0.288129 0.694956 0.832865
Si Si6 0.513532 0.119373 0.632385
O O1 0.148100 0.853844 0.235509
O O2 0.000000 0.932671 0.250000
O O3 0.118162 0.082501 0.233471
O O4 0.134248 0.963686 0.411034
O O5 0.299260 0.361476 0.907846
O O6 0.300765 0.213273 0.746748
O O7 0.436747 0.237404 0.894145
O O8 0.704043 0.033137 0.532092
O O9 0.786216 0.904944 0.423538
O O10 0.317370 0.825857 0.882223
O O11 0.426078 0.006320 0.877699
O O12 0.426306 0.898262 0.050802
O O13 0.500000 0.132575 0.750000
#
# Coordination Sequence:
#
# PCOD9306042 Si02
#       6
#     8   8   8   8   8   8
#     4  11  26  42  67 102 136 177 227 282 336 399
#     4  11  25  44  72  97 136 178 229 278 337 403
#     4  11  25  45  71  99 135 179 232 277 338 404
#     4  11  25  44  67 101 132 182 226 279 341 405
#     4  11  25  43  68  98 136 179 228 277 344 401
#     4  11  26  43  69  98 137 176 226 282 341 402
#
# _framework density 21.145562000000002
#
# number of rings (size 3 to 8) (size 9 to 14) (size 15 to 20)
#    0.000    1.000    1.667    3.000   11.667    4.667 
#    0.000    0.000    0.000    0.000    0.000    0.000 
#    0.000    0.000    0.000    0.000    0.000    0.000 
#
# Total GULP energy -134353.961206 kJ/mol
# GULP energy per Si atom -5598.081717 kJ/mol
# Density = 2.109743 g / cm^3
# Si number density = 21.145562 Si / 1000 Ang^3
#
#
#
# Elastic Constant Matrix: (Units=GPa)
#
#
# Indices 1 2 3 4 5 6 
#
# 1 82.2248 7.2021 19.8687 0.0000 9.1903 0.0000
# 2 7.2021 40.9557 23.3722 0.0000 -4.7185 0.0000
# 3 19.8687 23.3722 52.9992 0.0000 8.7498 0.0000
# 4 0.0000 0.0000 0.0000 20.2712 0.0000 -0.5331
# 5 9.1903 -4.7185 8.7498 0.0000 33.8577 0.0000
# 6 0.0000 0.0000 0.0000 -0.5331 0.0000 20.3115
#
#
#
# Elastic Compliance Matrix: (Units=1/GPa)
#
#
# Indices 1 2 3 4 5 6 
#
# 1 0.013569 -0.000002 -0.004677 0.000000 -0.002475 0.000000
# 2 -0.000002 0.035237 -0.017078 0.000000 0.009325 0.000000
# 3 -0.004677 -0.017078 0.029599 0.000000 -0.008760 0.000000
# 4 0.000000 0.000000 0.000000 0.049365 0.000000 0.001296
# 5 -0.002475 0.009325 -0.008760 0.000000 0.033770 0.000000
# 6 0.000000 0.000000 0.000000 0.001296 0.000000 0.049267
#
#
# Mechanical properties :
#
#
# Convention : Reuss Voigt Hill
#
# Bulk Modulus (GPa) = 28.66118 30.78509 29.72313
# Shear Modulus (GPa) = 18.80034 23.27052 21.03543
#
# Velocity S-wave (km/s) = 2.98500 3.32097 3.15745
# Velocity P-wave (km/s) = 5.04618 5.41252 5.23256
#
# Compressibility (1/GPa) = 0.03489040
#
# Stress axis : x y z
#
# Youngs Moduli (GPa) = 73.69868 28.37912 33.78477
#
# Poissons Ratio (x) = 0.00006 0.15802
# Poissons Ratio (y) = 0.00015 0.57698
# Poissons Ratio (z) = 0.34471 0.48466
#
# Static dielectric constant tensor:
#      x y z
#    x 1.759190 0.000000 -0.009850 
#    y 0.000000 1.748440 0.000000 
#    z -0.009850 0.000000 1.743190 
# 
# From -- ./inp_files/104265.got.cif
#   From: 2010.05.17/outbox.cif.g08.bks.cpg/sg15_53_cif.got.tgz:104265.got - 2010.06.03 18:47:42.
