data_PCOD9306350
_publ_section_title
;
Structure prediction by ZEFSAII (Michael W. Deem and Ramdas Pophale) SiO2 
 PCOD9306350
Probable space group: C 2/C
;
_chemical_formula_sum "Si O2"
_cell_formula_units_Z 32
_cell_length_a 16.800163
_cell_length_b 8.547768
_cell_length_c 22.231836
_cell_angle_alpha 90.000000
_cell_angle_beta 24.498811
_cell_angle_gamma 90.000000
_cell_volume 1323.880343
_symmetry_space_group_name_H-M "C 2/C"
_symmetry_group_IT_number 15
_symmetry_cell_setting 'monoclinic'
loop_
_space_group_symop_operation_xyz
x,y,z
-x,y,1/2-z
-x,-y,-z
x,-y,1/2+z
1/2+x,1/2+y,z
1/2-x,1/2+y,1/2-z
1/2-x,1/2-y,-z
1/2+x,1/2-y,1/2+z
loop_
_atom_site_type_symbol
_atom_site_label
_atom_site_fract_x
_atom_site_fract_y
_atom_site_fract_z
Si Si1 0.716688 0.432792 0.156301
Si Si2 0.404726 0.923372 0.157115
Si Si3 0.083145 0.139347 0.086869
Si Si4 0.307636 0.925395 0.845556
O O1 0.508997 0.513609 0.304691
O O2 0.726083 0.258690 0.123084
O O3 0.783309 0.420776 0.180239
O O4 0.878165 0.533850 0.011751
O O5 0.414982 0.756155 0.182447
O O6 0.333597 0.040725 0.257363
O O7 0.250000 0.250000 0.000000
O O8 0.154635 0.040657 0.980589
O O9 0.500000 0.965154 0.750000
#
# Coordination Sequence:
#
# PCOD9306350 Si02
#       4
#     8   8   8   8
#     4  11  27  45  73 106 149 188 246 299 366 437
#     4  11  25  47  72 107 144 195 238 301 366 439
#     4  12  26  46  73 106 145 188 243 302 368 431
#     4  12  26  45  72 108 143 190 241 304 362 430
#
# _framework density 24.171368000000001
#
# number of rings (size 3 to 8) (size 9 to 14) (size 15 to 20)
#    0.000    0.500    2.500    4.500    3.500   10.000 
#    0.000    0.000    0.000    0.000    0.000    0.000 
#    0.000    0.000    0.000    0.000    0.000    0.000 
#
# Total GULP energy -89665.027030 kJ/mol
# GULP energy per Si atom -5604.064189 kJ/mol
# Density = 2.411635 g / cm^3
# Si number density = 24.171368 Si / 1000 Ang^3
#
#
#
# Elastic Constant Matrix: (Units=GPa)
#
#
# Indices 1 2 3 4 5 6 
#
# 1 86.2460 4.4080 14.5835 -0.0012 16.5958 0.0008
# 2 4.4080 124.0608 15.9989 0.0012 4.5652 -0.0002
# 3 14.5835 15.9989 74.2022 0.0023 10.4936 0.0002
# 4 -0.0012 0.0012 0.0023 -11.0886 0.0008 53.1043
# 5 16.5958 4.5652 10.4936 0.0008 37.3243 -0.0004
# 6 0.0008 -0.0002 0.0002 53.1043 -0.0004 -0.3683
#
#
#
# Elastic Compliance Matrix: (Units=1/GPa)
#
#
# Indices 1 2 3 4 5 6 
#
# 1 0.012906 -0.000035 -0.001789 0.000000 -0.005231 0.000000
# 2 -0.000035 0.008301 -0.001710 0.000000 -0.000519 0.000000
# 3 -0.001789 -0.001710 0.014637 0.000000 -0.003111 -0.000001
# 4 0.000000 0.000000 0.000000 0.000131 0.000000 0.018858
# 5 -0.005231 -0.000519 -0.003111 0.000000 0.030056 0.000000
# 6 0.000000 0.000000 -0.000001 0.018858 0.000000 0.003938
#
#
# Mechanical properties :
#
#
# Convention : Reuss Voigt Hill
#
# Bulk Modulus (GPa) = 34.75126 39.38776 37.06951
# Shear Modulus (GPa) = 57.71789 21.80805 39.76297
#
# Velocity S-wave (km/s) = 4.89188 3.00697 4.06031
# Velocity P-wave (km/s) = 6.80555 5.32789 6.11154
#
# Compressibility (1/GPa) = 0.02877593
#
# Stress axis : x y z
#
# Youngs Moduli (GPa) = 77.48558 120.46186 68.32099
#
# Poissons Ratio (x) = 0.00426 0.12223
# Poissons Ratio (y) = 0.00274 0.11680
# Poissons Ratio (z) = 0.13863 0.20593
#
# Static dielectric constant tensor:
#      x y z
#    x 1.937810 0.000000 -0.036070 
#    y 0.000000 1.905060 0.000000 
#    z -0.036070 0.000000 1.894920 
# 
# From -- ./inp_files/300430.got.cif
#   From: 2010.05.17/outbox.cif.g08.bks.cpg/sg15_151_cif.got.tgz:300430.got - 2010.06.03 18:47:42.
