data_PCOD9306953
_publ_section_title
;
Structure prediction by ZEFSAII (Michael W. Deem and Ramdas Pophale) SiO2 
 PCOD9306953
Probable space group: C 2/C
;
_chemical_formula_sum "Si O2"
_cell_formula_units_Z 40
_cell_length_a 15.106046
_cell_length_b 14.979039
_cell_length_c 9.674284
_cell_angle_alpha 90.000000
_cell_angle_beta 64.960080
_cell_angle_gamma 90.000000
_cell_volume 1983.298442
_symmetry_space_group_name_H-M "C 2/C"
_symmetry_group_IT_number 15
_symmetry_cell_setting 'monoclinic'
loop_
_space_group_symop_operation_xyz
x,y,z
-x,y,1/2-z
-x,-y,-z
x,-y,1/2+z
1/2+x,1/2+y,z
1/2-x,1/2+y,1/2-z
1/2-x,1/2-y,-z
1/2+x,1/2-y,1/2+z
loop_
_atom_site_type_symbol
_atom_site_label
_atom_site_fract_x
_atom_site_fract_y
_atom_site_fract_z
Si Si1 0.207578 0.822740 0.425503
Si Si2 0.780770 0.020696 0.963392
Si Si3 0.906556 0.045782 0.133973
Si Si4 0.512125 0.732167 0.391128
Si Si5 0.814011 0.311704 0.062655
O O1 0.250000 0.750000 0.500000
O O2 0.232061 0.919532 0.474888
O O3 0.257597 0.811857 0.245329
O O4 0.092810 0.801061 0.486797
O O5 0.854349 0.014160 0.783978
O O6 0.691591 0.085335 0.985149
O O7 0.833820 0.065711 0.057558
O O8 0.931659 0.140447 0.182784
O O9 0.000000 0.000000 0.000000
O O10 0.500000 0.781159 0.250000
O O11 0.577283 0.779716 0.465562
O O12 0.750000 0.250000 0.000000
#
# Coordination Sequence:
#
# PCOD9306953 Si02
#       5
#     8   8   8   8   8
#     4  12  25  43  71  95 133 184 228 275 338 404
#     4  12  23  39  63 100 135 172 216 281 340 394
#     4  12  20  36  65 100 134 169 224 280 341 397
#     4  12  22  41  69  98 132 179 228 272 335 412
#     4  12  26  43  67 104 140 170 222 290 342 399
#
# _framework density 20.168424000000002
#
# number of rings (size 3 to 8) (size 9 to 14) (size 15 to 20)
#    0.000    0.000   10.000    0.600    0.000    0.800 
#    0.000    1.000    0.000    0.000    0.000    0.000 
#    0.000    0.000    0.000    0.000    0.000    0.000 
#
# Total GULP energy -111642.034982 kJ/mol
# GULP energy per Si atom -5582.101749 kJ/mol
# Density = 2.012252 g / cm^3
# Si number density = 20.168424 Si / 1000 Ang^3
#
#
#
# Elastic Constant Matrix: (Units=GPa)
#
#
# Indices 1 2 3 4 5 6 
#
# 1 119.8178 74.5995 14.1185 0.0000 27.9258 0.0000
# 2 74.5995 117.2587 22.7477 0.0000 9.8685 0.0000
# 3 14.1185 22.7477 86.5008 0.0000 22.7232 0.0000
# 4 0.0000 0.0000 0.0000 26.2410 0.0000 14.0714
# 5 27.9258 9.8685 22.7232 0.0000 34.3860 0.0000
# 6 0.0000 0.0000 0.0000 14.0714 0.0000 43.9801
#
#
#
# Elastic Compliance Matrix: (Units=1/GPa)
#
#
# Indices 1 2 3 4 5 6 
#
# 1 0.017970 -0.010964 0.003579 0.000000 -0.013812 0.000000
# 2 -0.010964 0.015720 -0.004233 0.000000 0.007190 0.000000
# 3 0.003579 -0.004233 0.015167 0.000000 -0.011714 0.000000
# 4 0.000000 0.000000 0.000000 0.046000 0.000000 -0.014718
# 5 -0.013812 0.007190 -0.011714 0.000000 0.045976 0.000000
# 6 0.000000 0.000000 0.000000 -0.014718 0.000000 0.027447
#
#
# Mechanical properties :
#
#
# Convention : Reuss Voigt Hill
#
# Bulk Modulus (GPa) = 39.03353 60.72320 49.87837
# Shear Modulus (GPa) = 24.99290 35.06219 30.02754
#
# Velocity S-wave (km/s) = 3.52406 4.17402 3.86273
# Velocity P-wave (km/s) = 5.99620 7.30776 6.68423
#
# Compressibility (1/GPa) = 0.02561900
#
# Stress axis : x y z
#
# Youngs Moduli (GPa) = 55.64872 63.61481 65.93275
#
# Poissons Ratio (x) = 0.69748 -0.23595
# Poissons Ratio (y) = 0.61014 0.27911
# Poissons Ratio (z) = -0.19915 0.26929
#
# Static dielectric constant tensor:
#      x y z
#    x 1.772570 0.000000 0.015780 
#    y 0.000000 1.785460 0.000000 
#    z 0.015780 0.000000 1.709780 
# 
# From -- ./inp_files/37817.got.cif
#   From: 2010.05.17/outbox.cif.g08.bks.cpg/sg15_19_cif.got.tgz:37817.got - 2010.06.03 18:47:42.
