data_PCOD9306148
_publ_section_title
;
Structure prediction by ZEFSAII (Michael W. Deem and Ramdas Pophale) SiO2 
 PCOD9306148
Probable space group: C 2/C
;
_chemical_formula_sum "Si O2"
_cell_formula_units_Z 36
_cell_length_a 17.301086
_cell_length_b 12.750126
_cell_length_c 11.151181
_cell_angle_alpha 90.000000
_cell_angle_beta 38.994451
_cell_angle_gamma 90.000000
_cell_volume 1547.848907
_symmetry_space_group_name_H-M "C 2/C"
_symmetry_group_IT_number 15
_symmetry_cell_setting 'monoclinic'
loop_
_space_group_symop_operation_xyz
x,y,z
-x,y,1/2-z
-x,-y,-z
x,-y,1/2+z
1/2+x,1/2+y,z
1/2-x,1/2+y,1/2-z
1/2-x,1/2-y,-z
1/2+x,1/2-y,1/2+z
loop_
_atom_site_type_symbol
_atom_site_label
_atom_site_fract_x
_atom_site_fract_y
_atom_site_fract_z
Si Si1 0.000000 0.993834 0.250000
Si Si2 0.785259 0.127618 0.461575
Si Si3 0.795381 0.180695 0.060080
Si Si4 0.877726 0.641217 0.639318
Si Si5 0.105142 0.580106 0.468976
O O1 0.893458 0.910926 0.415246
O O2 0.917789 0.077960 0.273252
O O3 0.750000 0.250000 0.500000
O O4 0.747886 0.105762 0.644576
O O5 0.691979 0.081393 0.478381
O O6 0.856219 0.259864 0.082790
O O7 0.681170 0.127355 0.265550
O O8 0.750000 0.250000 0.000000
O O9 0.925284 0.542448 0.507055
O O10 0.981812 0.649674 0.616575
#
# Coordination Sequence:
#
# PCOD9306148 Si02
#       5
#     4   8   8   8   8
#     4  12  28  48  74 110 154 194 248 312 370 460
#     4  12  26  46  72 109 144 191 244 310 381 444
#     4  12  25  48  73 109 148 197 252 308 383 451
#     4  11  25  46  73 102 145 193 245 313 367 449
#     4  11  25  45  71 102 144 194 246 304 377 443
#
# _framework density 23.258084
#
# number of rings (size 3 to 8) (size 9 to 14) (size 15 to 20)
#    0.000    0.444    4.444    3.333    3.111    0.889 
#    4.000    0.000    0.000    0.000    0.000    0.000 
#    0.000    0.000    0.000    0.000    0.000    0.000 
#
# Total GULP energy -100336.876191 kJ/mol
# GULP energy per Si atom -5574.270899 kJ/mol
# Density = 2.320515 g / cm^3
# Si number density = 23.258084 Si / 1000 Ang^3
#
#
#
# Elastic Constant Matrix: (Units=GPa)
#
#
# Indices 1 2 3 4 5 6 
#
# 1 115.0004 43.1445 13.1070 0.0000 -25.8370 0.0000
# 2 43.1445 151.5339 31.2946 0.0000 -19.9786 0.0000
# 3 13.1070 31.2946 100.4183 0.0000 -17.2180 0.0000
# 4 0.0000 0.0000 0.0000 41.0120 0.0000 -11.7476
# 5 -25.8370 -19.9786 -17.2180 0.0000 35.5677 0.0000
# 6 0.0000 0.0000 0.0000 -11.7476 0.0000 29.1133
#
#
#
# Elastic Compliance Matrix: (Units=1/GPa)
#
#
# Indices 1 2 3 4 5 6 
#
# 1 0.011083 -0.002335 0.000476 0.000000 0.006970 0.000000
# 2 -0.002335 0.007887 -0.001837 0.000000 0.001845 0.000000
# 3 0.000476 -0.001837 0.011288 0.000000 0.004779 0.000000
# 4 0.000000 0.000000 0.000000 0.027570 0.000000 0.011125
# 5 0.006970 0.001845 0.004779 0.000000 0.036528 0.000000
# 6 0.000000 0.000000 0.000000 0.011125 0.000000 0.038837
#
#
# Mechanical properties :
#
#
# Convention : Reuss Voigt Hill
#
# Bulk Modulus (GPa) = 43.73191 60.22721 51.97956
# Shear Modulus (GPa) = 33.73679 39.76571 36.75125
#
# Velocity S-wave (km/s) = 3.81273 4.13941 3.97942
# Velocity P-wave (km/s) = 6.18274 6.98553 6.59636
#
# Compressibility (1/GPa) = 0.02286660
#
# Stress axis : x y z
#
# Youngs Moduli (GPa) = 90.22563 126.79876 88.59011
#
# Poissons Ratio (x) = 0.29608 -0.04218
# Poissons Ratio (y) = 0.21068 0.16272
# Poissons Ratio (z) = -0.04296 0.23289
#
# Static dielectric constant tensor:
#      x y z
#    x 1.644030 0.000000 0.137070 
#    y 0.000000 1.896030 0.000000 
#    z 0.137070 0.000000 1.893090 
# 
# From -- ./inp_files/96789.got.cif
#   From: 2010.05.17/outbox.cif.g08.bks.cpg/sg15_49_cif.got.tgz:96789.got - 2010.06.03 18:47:42.
