data_PCOD9306227
_publ_section_title
;
Structure prediction by ZEFSAII (Michael W. Deem and Ramdas Pophale) SiO2 
 PCOD9306227
Probable space group: C 2/C
;
_chemical_formula_sum "Si O2"
_cell_formula_units_Z 48
_cell_length_a 15.800536
_cell_length_b 19.027833
_cell_length_c 8.422796
_cell_angle_alpha 90.000000
_cell_angle_beta 116.879220
_cell_angle_gamma 90.000000
_cell_volume 2258.726106
_symmetry_space_group_name_H-M "C 2/C"
_symmetry_group_IT_number 15
_symmetry_cell_setting 'monoclinic'
loop_
_space_group_symop_operation_xyz
x,y,z
-x,y,1/2-z
-x,-y,-z
x,-y,1/2+z
1/2+x,1/2+y,z
1/2-x,1/2+y,1/2-z
1/2-x,1/2-y,-z
1/2+x,1/2-y,1/2+z
loop_
_atom_site_type_symbol
_atom_site_label
_atom_site_fract_x
_atom_site_fract_y
_atom_site_fract_z
Si Si1 0.245260 0.526527 0.981421
Si Si2 0.956466 0.686996 0.044920
Si Si3 0.065702 0.949388 0.667058
Si Si4 0.447723 0.066886 0.541765
Si Si5 0.591090 0.653874 0.916902
Si Si6 0.763110 0.392857 0.365258
O O1 0.346786 0.479433 0.655970
O O2 0.164544 0.561700 0.022171
O O3 0.252227 0.564425 0.815358
O O4 0.212033 0.445707 0.967472
O O5 0.941273 0.770335 0.045426
O O6 0.000000 0.665321 0.250000
O O7 0.854085 0.655180 0.919863
O O8 0.028231 0.645540 0.993996
O O9 0.110717 0.893995 0.584883
O O10 0.000000 0.917550 0.750000
O O11 0.000000 0.000000 0.500000
O O12 0.500000 0.060829 0.750000
O O13 0.500000 0.000000 0.500000
O O14 0.500000 0.622265 0.750000
O O15 0.674489 0.651737 0.857200
#
# Coordination Sequence:
#
# PCOD9306227 Si02
#       6
#     8   8   8   8   8   8
#     4  12  24  40  72 106 139 174 232 293 345 415
#     4  11  26  43  68  94 139 191 228 277 345 419
#     4  12  25  44  71 102 133 176 232 298 349 405
#     4  12  23  42  67 100 142 182 228 286 345 413
#     4  11  25  46  67  94 137 184 234 284 346 419
#     4  12  24  43  67 104 139 180 231 284 352 412
#
# _framework density 21.250914999999999
#
# number of rings (size 3 to 8) (size 9 to 14) (size 15 to 20)
#    0.000    0.333    3.333    6.500    4.667    0.667 
#    0.000    0.833    0.000    0.000    0.000    0.000 
#    0.000    0.000    0.000    0.000    0.000    0.000 
#
# Total GULP energy -133753.687161 kJ/mol
# GULP energy per Si atom -5573.070298 kJ/mol
# Density = 2.120255 g / cm^3
# Si number density = 21.250915 Si / 1000 Ang^3
#
#
#
# Elastic Constant Matrix: (Units=GPa)
#
#
# Indices 1 2 3 4 5 6 
#
# 1 135.6816 20.9439 7.3514 0.0000 -9.3802 0.0000
# 2 20.9439 71.4567 26.4837 0.0000 -17.8583 0.0000
# 3 7.3514 26.4837 102.1353 0.0000 -15.1830 0.0000
# 4 0.0000 0.0000 0.0000 20.6899 0.0000 -5.3057
# 5 -9.3802 -17.8583 -15.1830 0.0000 37.9969 0.0000
# 6 0.0000 0.0000 0.0000 -5.3057 0.0000 32.5543
#
#
#
# Elastic Compliance Matrix: (Units=1/GPa)
#
#
# Indices 1 2 3 4 5 6 
#
# 1 0.007752 -0.002071 0.000126 0.000000 0.000991 0.000000
# 2 -0.002071 0.017455 -0.003438 0.000000 0.006319 0.000000
# 3 0.000126 -0.003438 0.011097 0.000000 0.002850 0.000000
# 4 0.000000 0.000000 0.000000 0.050441 0.000000 0.008221
# 5 0.000991 0.006319 0.002850 0.000000 0.030671 0.000000
# 6 0.000000 0.000000 0.000000 0.008221 0.000000 0.032058
#
#
# Mechanical properties :
#
#
# Convention : Reuss Voigt Hill
#
# Bulk Modulus (GPa) = 39.15699 46.53685 42.84692
# Shear Modulus (GPa) = 29.62954 35.21453 32.42204
#
# Velocity S-wave (km/s) = 3.73805 4.07514 3.91023
# Velocity P-wave (km/s) = 6.09070 6.63993 6.37124
#
# Compressibility (1/GPa) = 0.02553822
#
# Stress axis : x y z
#
# Youngs Moduli (GPa) = 129.00645 57.29083 90.11570
#
# Poissons Ratio (x) = 0.11866 -0.01139
# Poissons Ratio (y) = 0.26720 0.30979
# Poissons Ratio (z) = -0.01631 0.19695
#
# Static dielectric constant tensor:
#      x y z
#    x 1.831920 0.000000 0.011030 
#    y 0.000000 1.795560 0.000000 
#    z 0.011030 0.000000 1.776580 
# 
# From -- ./inp_files/40946.got.cif
#   From: 2010.05.17/outbox.cif.g08.bks.cpg/sg15_21_cif.got.tgz:40946.got - 2010.06.03 18:47:42.
