data_PCOD9306615
_publ_section_title
;
Structure prediction by ZEFSAII (Michael W. Deem and Ramdas Pophale) SiO2 
 PCOD9306615
Probable space group: C 2/C
;
_chemical_formula_sum "Si O2"
_cell_formula_units_Z 36
_cell_length_a 5.546655
_cell_length_b 23.606144
_cell_length_c 14.526354
_cell_angle_alpha 90.000000
_cell_angle_beta 61.847159
_cell_angle_gamma 90.000000
_cell_volume 1676.987321
_symmetry_space_group_name_H-M "C 2/C"
_symmetry_group_IT_number 15
_symmetry_cell_setting 'monoclinic'
loop_
_space_group_symop_operation_xyz
x,y,z
-x,y,1/2-z
-x,-y,-z
x,-y,1/2+z
1/2+x,1/2+y,z
1/2-x,1/2+y,1/2-z
1/2-x,1/2-y,-z
1/2+x,1/2-y,1/2+z
loop_
_atom_site_type_symbol
_atom_site_label
_atom_site_fract_x
_atom_site_fract_y
_atom_site_fract_z
Si Si1 0.021646 0.088692 0.639082
Si Si2 0.376080 0.356245 0.874213
Si Si3 0.752715 0.685008 0.468937
Si Si4 0.254294 0.476358 0.869793
Si Si5 0.500000 0.012580 0.750000
O O1 0.093832 0.142471 0.566149
O O2 0.000000 0.106296 0.750000
O O3 0.737916 0.055889 0.675958
O O4 0.247053 0.038152 0.583907
O O5 0.500000 0.358638 0.750000
O O6 0.587945 0.324612 0.903030
O O7 0.328357 0.421665 0.913922
O O8 0.072390 0.331465 0.916997
O O9 0.750000 0.750000 0.500000
O O10 0.500000 0.483439 0.750000
O O11 0.018260 0.472228 0.836379
#
# Coordination Sequence:
#
# PCOD9306615 Si02
#       5
#     8   8   8   8   4
#     4   9  21  39  66  98 136 177 220 282 340 394
#     4  11  26  46  72  97 136 176 219 281 345 394
#     4  12  28  47  66 100 135 177 242 275 315 404
#     4   8  18  35  64 100 131 170 217 273 340 414
#     4   8  16  36  64  98 144 164 224 266 354 408
#
# _framework density 21.467067
#
# number of rings (size 3 to 8) (size 9 to 14) (size 15 to 20)
#    0.000    2.667    0.000    1.333   15.556    3.556 
#    2.000    0.000    0.000    0.000    0.000    0.000 
#    0.000    0.000    0.000    0.000    0.000    0.000 
#
# Total GULP energy -100253.001598 kJ/mol
# GULP energy per Si atom -5569.611200 kJ/mol
# Density = 2.141821 g / cm^3
# Si number density = 21.467067 Si / 1000 Ang^3
#
#
#
# Elastic Constant Matrix: (Units=GPa)
#
#
# Indices 1 2 3 4 5 6 
#
# 1 97.5270 45.1452 22.9532 0.0000 16.8669 0.0000
# 2 45.1452 160.7423 38.0600 0.0000 17.0972 0.0000
# 3 22.9532 38.0600 63.2781 0.0000 17.5957 0.0000
# 4 0.0000 0.0000 0.0000 25.3517 0.0000 5.9815
# 5 16.8669 17.0972 17.5957 0.0000 31.6996 0.0000
# 6 0.0000 0.0000 0.0000 5.9815 0.0000 25.4747
#
#
#
# Elastic Compliance Matrix: (Units=1/GPa)
#
#
# Indices 1 2 3 4 5 6 
#
# 1 0.012655 -0.002674 -0.001787 0.000000 -0.004300 0.000000
# 2 -0.002674 0.007903 -0.003541 0.000000 -0.000875 0.000000
# 3 -0.001787 -0.003541 0.021032 0.000000 -0.008814 0.000000
# 4 0.000000 0.000000 0.000000 0.041759 0.000000 -0.009805
# 5 -0.004300 -0.000875 -0.008814 0.000000 0.039198 0.000000
# 6 0.000000 0.000000 0.000000 -0.009805 0.000000 0.041557
#
#
# Mechanical properties :
#
#
# Convention : Reuss Voigt Hill
#
# Bulk Modulus (GPa) = 39.08009 59.31824 49.19916
# Shear Modulus (GPa) = 26.50606 30.86446 28.68526
#
# Velocity S-wave (km/s) = 3.51769 3.79589 3.65943
# Velocity P-wave (km/s) = 5.89432 6.84864 6.38932
#
# Compressibility (1/GPa) = 0.02558848
#
# Stress axis : x y z
#
# Youngs Moduli (GPa) = 79.01719 126.52636 47.54710
#
# Poissons Ratio (x) = 0.33833 0.08495
# Poissons Ratio (y) = 0.21129 0.16834
# Poissons Ratio (z) = 0.14117 0.44797
#
# Static dielectric constant tensor:
#      x y z
#    x 2.184390 0.000000 0.056140 
#    y 0.000000 1.779130 0.000000 
#    z 0.056140 0.000000 1.895320 
# 
# From -- ./inp_files/129000.got.cif
#   From: 2010.05.17/outbox.cif.g08.bks.cpg/sg15_65_cif.got.tgz:129000.got - 2010.06.03 18:47:42.
