data_PCOD9306371
_publ_section_title
;
Structure prediction by ZEFSAII (Michael W. Deem and Ramdas Pophale) SiO2 
 PCOD9306371
Probable space group: C 2/C
;
_chemical_formula_sum "Si O2"
_cell_formula_units_Z 48
_cell_length_a 18.987846
_cell_length_b 8.154285
_cell_length_c 20.045269
_cell_angle_alpha 90.000000
_cell_angle_beta 36.332393
_cell_angle_gamma 90.000000
_cell_volume 1838.818682
_symmetry_space_group_name_H-M "C 2/C"
_symmetry_group_IT_number 15
_symmetry_cell_setting 'monoclinic'
loop_
_space_group_symop_operation_xyz
x,y,z
-x,y,1/2-z
-x,-y,-z
x,-y,1/2+z
1/2+x,1/2+y,z
1/2-x,1/2+y,1/2-z
1/2-x,1/2-y,-z
1/2+x,1/2-y,1/2+z
loop_
_atom_site_type_symbol
_atom_site_label
_atom_site_fract_x
_atom_site_fract_y
_atom_site_fract_z
Si Si1 0.686188 0.948628 0.813378
Si Si2 0.128573 0.823774 0.721303
Si Si3 0.765471 0.491216 0.013936
Si Si4 0.033143 0.860758 0.139566
Si Si5 0.418581 0.179534 0.512644
Si Si6 0.875170 0.465262 0.783457
O O1 0.710135 0.954775 0.716383
O O2 0.780932 0.859523 0.787293
O O3 0.555424 0.867588 0.921726
O O4 0.662335 0.128865 0.863599
O O5 0.205658 0.850313 0.594753
O O6 0.067562 0.646143 0.771914
O O7 0.036267 0.971905 0.795960
O O8 0.847526 0.129541 0.908630
O O9 0.856951 0.426162 0.999816
O O10 0.820814 0.488327 0.898124
O O11 0.954103 0.699422 0.216105
O O12 0.070336 0.851699 0.033351
#
# Coordination Sequence:
#
# PCOD9306371 Si02
#       6
#     8   8   8   8   8   8
#     4   9  22  45  74 108 145 197 253 310 372 457
#     4  11  26  49  73 113 157 194 260 317 372 463
#     4  11  25  47  76 111 152 202 256 312 379 458
#     4  11  26  46  75 114 148 199 259 309 380 453
#     4   9  21  44  76 104 148 195 248 315 377 436
#     4  11  27  48  77 110 154 203 248 316 391 440
#
# _framework density 26.103715000000001
#
# number of rings (size 3 to 8) (size 9 to 14) (size 15 to 20)
#    0.000    1.667    0.000    1.500   14.000    2.000 
#   27.000    1.667    0.000    0.000    0.000    0.000 
#    0.000    0.000    0.000    0.000    0.000    0.000 
#
# Total GULP energy -134101.695785 kJ/mol
# GULP energy per Si atom -5587.570658 kJ/mol
# Density = 2.604430 g / cm^3
# Si number density = 26.103715 Si / 1000 Ang^3
#
#
#
# Elastic Constant Matrix: (Units=GPa)
#
#
# Indices 1 2 3 4 5 6 
#
# 1 177.7737 42.7515 67.8458 0.0000 7.8601 0.0000
# 2 42.7515 171.2691 53.0142 -0.0003 -20.7522 0.0004
# 3 67.8458 53.0142 118.5557 -0.0001 26.4585 0.0001
# 4 0.0000 -0.0003 -0.0001 38.0578 0.0000 7.3237
# 5 7.8601 -20.7522 26.4585 0.0000 55.5079 -0.0001
# 6 0.0000 0.0004 0.0001 7.3237 -0.0001 23.8335
#
#
#
# Elastic Compliance Matrix: (Units=1/GPa)
#
#
# Indices 1 2 3 4 5 6 
#
# 1 0.007277 -0.000440 -0.004142 0.000000 0.000779 0.000000
# 2 -0.000440 0.007953 -0.004456 0.000000 0.005160 0.000000
# 3 -0.004142 -0.004456 0.014591 0.000000 -0.008034 0.000000
# 4 0.000000 0.000000 0.000000 0.027927 0.000000 -0.008582
# 5 0.000779 0.005160 -0.008034 0.000000 0.023664 0.000000
# 6 0.000000 0.000000 0.000000 -0.008582 0.000000 0.044595
#
#
# Mechanical properties :
#
#
# Convention : Reuss Voigt Hill
#
# Bulk Modulus (GPa) = 85.13951 88.31350 86.72650
# Shear Modulus (GPa) = 33.78446 43.74563 38.76504
#
# Velocity S-wave (km/s) = 3.60146 4.09814 3.85780
# Velocity P-wave (km/s) = 7.06970 7.50322 7.28968
#
# Compressibility (1/GPa) = 0.01174543
#
# Stress axis : x y z
#
# Youngs Moduli (GPa) = 137.41731 125.73696 68.53759
#
# Poissons Ratio (x) = 0.05534 0.28385
# Poissons Ratio (y) = 0.06048 0.30540
# Poissons Ratio (z) = 0.56912 0.56028
#
# Static dielectric constant tensor:
#      x y z
#    x 2.047040 0.000000 0.039560 
#    y 0.000000 2.085970 0.000000 
#    z 0.039560 0.000000 2.157560 
# 
# From -- ./inp_files/251770.got.cif
#   From: 2010.05.17/outbox.cif.g08.bks.cpg/sg15_126_cif.got.tgz:251770.got - 2010.06.03 18:47:42.
