data_PCOD9306389
_publ_section_title
;
Structure prediction by ZEFSAII (Michael W. Deem and Ramdas Pophale) SiO2 
 PCOD9306389
Probable space group: C 2/C
;
_chemical_formula_sum "Si O2"
_cell_formula_units_Z 48
_cell_length_a 19.183648
_cell_length_b 11.277154
_cell_length_c 23.868936
_cell_angle_alpha 90.000000
_cell_angle_beta 159.123874
_cell_angle_gamma 90.000000
_cell_volume 1840.089520
_symmetry_space_group_name_H-M "C 2/C"
_symmetry_group_IT_number 15
_symmetry_cell_setting 'monoclinic'
loop_
_space_group_symop_operation_xyz
x,y,z
-x,y,1/2-z
-x,-y,-z
x,-y,1/2+z
1/2+x,1/2+y,z
1/2-x,1/2+y,1/2-z
1/2-x,1/2-y,-z
1/2+x,1/2-y,1/2+z
loop_
_atom_site_type_symbol
_atom_site_label
_atom_site_fract_x
_atom_site_fract_y
_atom_site_fract_z
Si Si1 0.002299 0.985855 0.144165
Si Si2 0.800220 0.665747 0.629928
Si Si3 0.101067 0.492066 0.694966
Si Si4 0.603858 0.867183 0.546036
Si Si5 0.880065 0.191270 0.457672
Si Si6 0.706884 0.348285 0.420370
O O1 0.962961 0.921549 0.173537
O O2 0.996264 0.892634 0.088313
O O3 0.197433 0.062467 0.292785
O O4 0.819776 0.072907 0.997209
O O5 0.846426 0.595692 0.722059
O O6 0.665009 0.775943 0.542928
O O7 0.000000 0.701520 0.750000
O O8 0.058707 0.547098 0.602647
O O9 0.268723 0.392840 0.829504
O O10 0.894568 0.433086 0.556127
O O11 0.516296 0.786785 0.529604
O O12 0.723489 0.262183 0.377815
O O13 0.750000 0.250000 0.500000
#
# Coordination Sequence:
#
# PCOD9306389 Si02
#       6
#     8   8   8   8   8   8
#     4  11  26  53  84 121 165 212 280 337 404 484
#     4  11  25  47  82 120 164 217 268 334 407 491
#     4  11  27  50  80 117 167 206 276 333 406 480
#     4  12  28  54  80 120 167 218 271 336 414 492
#     4  11  31  52  82 121 164 216 272 341 410 484
#     4  12  26  49  83 123 158 212 266 339 402 484
#
# _framework density 26.085688000000001
#
# number of rings (size 3 to 8) (size 9 to 14) (size 15 to 20)
#    0.000    0.667    3.333    1.500    7.000    8.667 
#    3.000    3.333    0.000    0.000    0.000    0.000 
#    0.000    0.000    0.000    0.000    0.000    0.000 
#
# Total GULP energy -134602.887309 kJ/mol
# GULP energy per Si atom -5608.453638 kJ/mol
# Density = 2.602632 g / cm^3
# Si number density = 26.085688 Si / 1000 Ang^3
#
#
#
# Elastic Constant Matrix: (Units=GPa)
#
#
# Indices 1 2 3 4 5 6 
#
# 1 131.3737 53.9627 27.6269 0.0054 9.3917 0.0052
# 2 53.9627 125.5278 31.3694 -0.0015 10.0987 0.0054
# 3 27.6269 31.3694 43.6387 -0.0075 5.6784 0.0024
# 4 0.0054 -0.0015 -0.0075 22.5279 -0.0035 48.4480
# 5 9.3917 10.0987 5.6784 -0.0035 42.1927 -0.0042
# 6 0.0052 0.0054 0.0024 48.4480 -0.0042 -8.3745
#
#
#
# Elastic Compliance Matrix: (Units=1/GPa)
#
#
# Indices 1 2 3 4 5 6 
#
# 1 0.009781 -0.003186 -0.003784 -0.000001 -0.000905 -0.000001
# 2 -0.003186 0.010832 -0.005623 -0.000001 -0.001127 0.000000
# 3 -0.003784 -0.005623 0.029586 0.000000 -0.001794 0.000005
# 4 -0.000001 -0.000001 0.000000 0.003302 0.000002 0.019105
# 5 -0.000905 -0.001127 -0.001794 0.000002 0.024413 0.000000
# 6 -0.000001 0.000000 0.000005 0.019105 0.000000 -0.008884
#
#
# Mechanical properties :
#
#
# Convention : Reuss Voigt Hill
#
# Bulk Modulus (GPa) = 39.97867 58.49537 49.23702
# Shear Modulus (GPa) = 48.75436 23.77463 36.26449
#
# Velocity S-wave (km/s) = 4.32789 3.02222 3.73259
# Velocity P-wave (km/s) = 6.35086 5.88655 6.12310
#
# Compressibility (1/GPa) = 0.02501334
#
# Stress axis : x y z
#
# Youngs Moduli (GPa) = 102.23747 92.32031 33.79953
#
# Poissons Ratio (x) = 0.29416 0.12790
# Poissons Ratio (y) = 0.32576 0.19004
# Poissons Ratio (z) = 0.38687 0.51908
#
# Static dielectric constant tensor:
#      x y z
#    x 1.894630 -0.000010 0.257180 
#    y -0.000010 1.984340 0.000020 
#    z 0.257180 0.000020 1.390090 
# 
# From -- ./inp_files/317811.got.cif
#   From: 2010.05.17/outbox.cif.g08.bks.cpg/sg15_159_cif.got.tgz:317811.got - 2010.06.03 18:47:42.
