data_PCOD9306434
_publ_section_title
;
Structure prediction by ZEFSAII (Michael W. Deem and Ramdas Pophale) SiO2 
 PCOD9306434
Probable space group: C 2/C
;
_chemical_formula_sum "Si O2"
_cell_formula_units_Z 28
_cell_length_a 16.816761
_cell_length_b 9.471342
_cell_length_c 11.335088
_cell_angle_alpha 90.000000
_cell_angle_beta 142.722140
_cell_angle_gamma 90.000000
_cell_volume 1093.509843
_symmetry_space_group_name_H-M "C 2/C"
_symmetry_group_IT_number 15
_symmetry_cell_setting 'monoclinic'
loop_
_space_group_symop_operation_xyz
x,y,z
-x,y,1/2-z
-x,-y,-z
x,-y,1/2+z
1/2+x,1/2+y,z
1/2-x,1/2+y,1/2-z
1/2-x,1/2-y,-z
1/2+x,1/2-y,1/2+z
loop_
_atom_site_type_symbol
_atom_site_label
_atom_site_fract_x
_atom_site_fract_y
_atom_site_fract_z
Si Si1 0.648564 0.449422 0.396170
Si Si2 0.226426 0.251218 0.776017
Si Si3 0.541345 0.857942 0.117346
Si Si4 0.250000 0.250000 0.500000
O O1 0.500000 0.401993 0.250000
O O2 0.733017 0.391906 0.606056
O O3 0.701408 0.368519 0.343362
O O4 0.651297 0.615096 0.379420
O O5 0.342299 0.214341 0.823585
O O6 0.093133 0.270236 0.546026
O O7 0.624265 0.865096 0.334581
O O8 0.500000 0.000000 0.000000
#
# Coordination Sequence:
#
# PCOD9306434 Si02
#       4
#     8   8   8   4
#     4  11  25  48  75 114 147 205 262 320 389 478
#     4  11  26  51  79 105 159 207 254 323 405 462
#     4  12  28  50  77 117 156 207 261 331 391 466
#     4  12  30  42  76 112 156 196 272 308 392 468
#
# _framework density 25.605623999999999
#
# number of rings (size 3 to 8) (size 9 to 14) (size 15 to 20)
#    0.000    0.571    5.714    0.000    8.000    1.143 
#    0.000    0.000    0.000    0.000    0.000    0.000 
#    0.000    0.000    0.000    0.000    0.000    0.000 
#
# Total GULP energy -77997.586314 kJ/mol
# GULP energy per Si atom -5571.256165 kJ/mol
# Density = 2.554734 g / cm^3
# Si number density = 25.605624 Si / 1000 Ang^3
#
#
#
# Elastic Constant Matrix: (Units=GPa)
#
#
# Indices 1 2 3 4 5 6 
#
# 1 127.4171 0.2328 19.7947 0.0000 39.6472 0.0000
# 2 0.2328 -168.5394 -169.3760 0.0000 351.1101 0.0000
# 3 19.7947 -169.3760 118.7424 0.0000 241.3385 0.0000
# 4 0.0000 0.0000 0.0000 92.5364 0.0000 13.8898
# 5 39.6472 351.1101 241.3385 0.0000 -361.4503 0.0000
# 6 0.0000 0.0000 0.0000 13.8898 0.0000 35.5506
#
#
#
# Elastic Compliance Matrix: (Units=1/GPa)
#
#
# Indices 1 2 3 4 5 6 
#
# 1 0.008393 -0.001493 -0.001041 0.000000 -0.001224 0.000000
# 2 -0.001493 0.006619 -0.001292 0.000000 0.005403 0.000000
# 3 -0.001041 -0.001292 0.004045 0.000000 0.001332 0.000000
# 4 0.000000 0.000000 0.000000 0.011480 0.000000 -0.004485
# 5 -0.001224 0.005403 0.001332 0.000000 0.003237 0.000000
# 6 0.000000 0.000000 0.000000 -0.004485 0.000000 0.029881
#
#
# Mechanical properties :
#
#
# Convention : Reuss Voigt Hill
#
# Bulk Modulus (GPa) = 87.66227 -24.56410 31.54908
# Shear Modulus (GPa) = 66.57122 -31.54142 17.51490
#
# Velocity S-wave (km/s) = 5.10442 -3.51353 2.61823
# Velocity P-wave (km/s) = 8.30963 5.10627 4.63552
#
# Compressibility (1/GPa) = 0.01140742
#
# Stress axis : x y z
#
# Youngs Moduli (GPa) = 119.13999 151.09094 247.20681
#
# Poissons Ratio (x) = 0.22552 0.25723
# Poissons Ratio (y) = 0.17783 0.31932
# Poissons Ratio (z) = 0.12397 0.19517
#
# Static dielectric constant tensor:
#      x y z
#    x 1.136830 0.000000 0.754240 
#    y 0.000000 2.019650 0.000000 
#    z 0.754240 0.000000 1.402830 
# 
# From -- ./inp_files/93160.got.cif
#   From: 2010.05.17/outbox.cif.g08.bks.cpg/sg15_47_cif.got.tgz:93160.got - 2010.06.03 18:47:42.
