data_PCOD9306726
_publ_section_title
;
Structure prediction by ZEFSAII (Michael W. Deem and Ramdas Pophale) SiO2 
 PCOD9306726
Probable space group: C 2/C
;
_chemical_formula_sum "Si O2"
_cell_formula_units_Z 64
_cell_length_a 8.626656
_cell_length_b 16.478027
_cell_length_c 27.639335
_cell_angle_alpha 90.000000
_cell_angle_beta 127.856826
_cell_angle_gamma 90.000000
_cell_volume 3102.080945
_symmetry_space_group_name_H-M "C 2/C"
_symmetry_group_IT_number 15
_symmetry_cell_setting 'monoclinic'
loop_
_space_group_symop_operation_xyz
x,y,z
-x,y,1/2-z
-x,-y,-z
x,-y,1/2+z
1/2+x,1/2+y,z
1/2-x,1/2+y,1/2-z
1/2-x,1/2-y,-z
1/2+x,1/2-y,1/2+z
loop_
_atom_site_type_symbol
_atom_site_label
_atom_site_fract_x
_atom_site_fract_y
_atom_site_fract_z
Si Si1 0.897030 0.912056 0.476907
Si Si2 0.049569 0.239886 0.180984
Si Si3 0.695095 0.968301 0.064899
Si Si4 0.035987 0.095418 0.103168
Si Si5 0.626016 0.310322 0.442830
Si Si6 0.018182 0.556967 0.310951
Si Si7 0.327429 0.786264 0.822106
Si Si8 0.047231 0.583637 0.636048
O O1 0.668358 0.925784 0.428032
O O2 0.953519 0.867937 0.537562
O O3 0.972887 0.859047 0.447059
O O4 0.000000 0.000000 0.500000
O O5 0.068775 0.163664 0.149366
O O6 0.223765 0.244784 0.253505
O O7 0.061478 0.322469 0.152811
O O8 0.845678 0.222841 0.170984
O O9 0.735163 0.879387 0.051636
O O10 0.680401 0.954581 0.119628
O O11 0.876053 0.028636 0.088509
O O12 0.500000 0.000000 0.000000
O O13 0.249519 0.058151 0.134010
O O14 0.750000 0.250000 0.500000
O O15 0.509573 0.263683 0.378446
O O16 0.908781 0.625130 0.322280
O O17 0.937147 0.470330 0.312674
O O18 0.000000 0.570569 0.250000
#
# Coordination Sequence:
#
# PCOD9306726 Si02
#       8
#     8   8   8   8   8   8   8   8
#     4  12  22  44  70 103 143 185 236 293 362 436
#     4  11  27  48  74 106 144 188 240 311 354 438
#     4  12  27  46  69 109 149 188 243 302 362 440
#     4  12  25  46  74  99 148 188 241 296 368 427
#     4  12  27  43  75 107 147 194 238 304 370 431
#     4  12  26  47  75 101 140 196 244 291 368 445
#     4  11  26  49  72 103 148 183 245 294 370 429
#     4  12  26  44  72 107 141 186 240 299 363 430
#
# _framework density 20.631312999999999
#
# number of rings (size 3 to 8) (size 9 to 14) (size 15 to 20)
#    0.000    0.250    6.250    1.500    8.750    0.500 
#    0.000    1.250    0.000    0.000    0.000    0.000 
#    0.000    0.000    0.000    0.000    0.000    0.000 
#
# Total GULP energy -178871.945466 kJ/mol
# GULP energy per Si atom -5589.748296 kJ/mol
# Density = 2.058436 g / cm^3
# Si number density = 20.631313 Si / 1000 Ang^3
#
#
#
# Elastic Constant Matrix: (Units=GPa)
#
#
# Indices 1 2 3 4 5 6 
#
# 1 67.3594 29.4036 22.1745 0.0000 -7.5964 0.0000
# 2 29.4036 112.9742 38.7788 0.0000 -3.0146 0.0000
# 3 22.1745 38.7788 108.8222 0.0000 -0.2809 0.0000
# 4 0.0000 0.0000 0.0000 36.7226 0.0000 -7.2356
# 5 -7.5964 -3.0146 -0.2809 0.0000 39.6973 0.0000
# 6 0.0000 0.0000 0.0000 -7.2356 0.0000 37.7168
#
#
#
# Elastic Compliance Matrix: (Units=1/GPa)
#
#
# Indices 1 2 3 4 5 6 
#
# 1 0.017552 -0.003716 -0.002244 0.000000 0.003061 0.000000
# 2 -0.003716 0.010894 -0.003125 0.000000 0.000094 0.000000
# 3 -0.002244 -0.003125 0.010759 0.000000 -0.000591 0.000000
# 4 0.000000 0.000000 0.000000 0.028301 0.000000 0.005429
# 5 0.003061 0.000094 -0.000591 0.000000 0.025779 0.000000
# 6 0.000000 0.000000 0.000000 0.005429 0.000000 0.027555
#
#
# Mechanical properties :
#
#
# Convention : Reuss Voigt Hill
#
# Bulk Modulus (GPa) = 47.54178 52.20774 49.87476
# Shear Modulus (GPa) = 34.24168 36.08060 35.16114
#
# Velocity S-wave (km/s) = 4.07835 4.18643 4.13275
# Velocity P-wave (km/s) = 6.72836 6.98057 6.85562
#
# Compressibility (1/GPa) = 0.02103413
#
# Stress axis : x y z
#
# Youngs Moduli (GPa) = 56.97384 91.79539 92.94946
#
# Poissons Ratio (x) = 0.34113 0.20861
# Poissons Ratio (y) = 0.21172 0.29042
# Poissons Ratio (z) = 0.12787 0.28682
#
# Static dielectric constant tensor:
#      x y z
#    x 1.829370 0.000000 -0.037120 
#    y 0.000000 1.718720 0.000000 
#    z -0.037120 0.000000 1.732880 
# 
# From -- ./inp_files/308309.got.cif
#   From: 2010.05.17/outbox.cif.g08.bks.cpg/sg15_155_cif.got.tgz:308309.got - 2010.06.03 18:47:42.
