data_PCOD9306200
_publ_section_title
;
Structure prediction by ZEFSAII (Michael W. Deem and Ramdas Pophale) SiO2 
 PCOD9306200
Probable space group: C 2/C
;
_chemical_formula_sum "Si O2"
_cell_formula_units_Z 40
_cell_length_a 26.164522
_cell_length_b 7.783674
_cell_length_c 8.912941
_cell_angle_alpha 90.000000
_cell_angle_beta 124.647327
_cell_angle_gamma 90.000000
_cell_volume 1493.284557
_symmetry_space_group_name_H-M "C 2/C"
_symmetry_group_IT_number 15
_symmetry_cell_setting 'monoclinic'
loop_
_space_group_symop_operation_xyz
x,y,z
-x,y,1/2-z
-x,-y,-z
x,-y,1/2+z
1/2+x,1/2+y,z
1/2-x,1/2+y,1/2-z
1/2-x,1/2-y,-z
1/2+x,1/2-y,1/2+z
loop_
_atom_site_type_symbol
_atom_site_label
_atom_site_fract_x
_atom_site_fract_y
_atom_site_fract_z
Si Si1 0.928835 0.162511 0.413624
Si Si2 0.500000 0.088529 0.250000
Si Si3 0.873372 0.593715 0.201416
Si Si4 0.500000 0.405076 0.750000
Si Si5 0.182183 0.099723 0.087455
Si Si6 0.819566 0.308144 0.915574
O O1 0.856745 0.142167 0.327215
O O2 0.959445 0.312974 0.558483
O O3 0.949982 0.175743 0.278022
O O4 0.959373 0.004756 0.558271
O O5 0.441523 0.038745 0.258911
O O6 0.851082 0.774997 0.089286
O O7 0.868592 0.630829 0.369707
O O8 0.828927 0.440598 0.068644
O O9 0.178461 0.895912 0.053565
O O10 0.252739 0.154469 0.228688
#
# Coordination Sequence:
#
# PCOD9306200 Si02
#       6
#     8   4   8   4   8   8
#     4   9  20  36  67 101 141 183 237 292 358 435
#     4   9  22  48  69  94 153 187 234 307 355 432
#     4  11  27  51  73 112 148 192 247 302 369 439
#     4   9  18  34  61 106 133 179 238 293 355 426
#     4  11  25  45  75 107 145 195 244 298 365 436
#     4  12  27  47  77 108 148 194 246 305 365 435
#
# _framework density 26.786588999999999
#
# number of rings (size 3 to 8) (size 9 to 14) (size 15 to 20)
#    0.000    1.600    2.000    0.600   11.200    3.200 
#    3.600    5.000    0.000    0.000    0.000    0.000 
#    0.000    0.000    0.000    0.000    0.000    0.000 
#
# Total GULP energy -111865.884161 kJ/mol
# GULP energy per Si atom -5593.294208 kJ/mol
# Density = 2.672562 g / cm^3
# Si number density = 26.786589 Si / 1000 Ang^3
#
#
#
# Elastic Constant Matrix: (Units=GPa)
#
#
# Indices 1 2 3 4 5 6 
#
# 1 132.4980 29.7888 36.0894 0.0000 -4.5439 0.0000
# 2 29.7888 211.4021 68.4655 0.0000 -12.2704 0.0000
# 3 36.0894 68.4655 95.7675 0.0000 -35.0278 0.0000
# 4 0.0000 0.0000 0.0000 52.9501 0.0000 3.6727
# 5 -4.5439 -12.2704 -35.0278 0.0000 55.5368 0.0000
# 6 0.0000 0.0000 0.0000 3.6727 0.0000 4.5338
#
#
#
# Elastic Compliance Matrix: (Units=1/GPa)
#
#
# Indices 1 2 3 4 5 6 
#
# 1 0.008537 -0.000075 -0.003788 0.000000 -0.001707 0.000000
# 2 -0.000075 0.006304 -0.005162 0.000000 -0.001869 0.000000
# 3 -0.003788 -0.005162 0.019536 0.000000 0.010871 0.000000
# 4 0.000000 0.000000 0.000000 0.020010 0.000000 -0.016210
# 5 -0.001707 -0.001869 0.010871 0.000000 0.024310 0.000000
# 6 0.000000 0.000000 0.000000 -0.016210 0.000000 0.233699
#
#
# Mechanical properties :
#
#
# Convention : Reuss Voigt Hill
#
# Bulk Modulus (GPa) = 61.24822 78.70611 69.97716
# Shear Modulus (GPa) = 14.88582 42.95905 28.92244
#
# Velocity S-wave (km/s) = 2.35993 4.00903 3.28950
# Velocity P-wave (km/s) = 5.50823 7.13276 6.37247
#
# Compressibility (1/GPa) = 0.01632701
#
# Stress axis : x y z
#
# Youngs Moduli (GPa) = 117.13186 158.62081 51.18680
#
# Poissons Ratio (x) = 0.01196 0.19388
# Poissons Ratio (y) = 0.00883 0.26424
# Poissons Ratio (z) = 0.44367 0.81886
#
# Static dielectric constant tensor:
#      x y z
#    x 2.094210 0.000000 -0.042100 
#    y 0.000000 2.147630 0.000000 
#    z -0.042100 0.000000 1.697890 
# 
# From -- ./inp_files/60280.got.cif
#   From: 2010.05.17/outbox.cif.g08.bks.cpg/sg15_31_cif.got.tgz:60280.got - 2010.06.03 18:47:42.
