data_PCOD9306226
_publ_section_title
;
Structure prediction by ZEFSAII (Michael W. Deem and Ramdas Pophale) SiO2 
 PCOD9306226
Probable space group: C 2/C
;
_chemical_formula_sum "Si O2"
_cell_formula_units_Z 40
_cell_length_a 5.703354
_cell_length_b 26.971291
_cell_length_c 11.505506
_cell_angle_alpha 90.000000
_cell_angle_beta 72.502041
_cell_angle_gamma 90.000000
_cell_volume 1687.960058
_symmetry_space_group_name_H-M "C 2/C"
_symmetry_group_IT_number 15
_symmetry_cell_setting 'monoclinic'
loop_
_space_group_symop_operation_xyz
x,y,z
-x,y,1/2-z
-x,-y,-z
x,-y,1/2+z
1/2+x,1/2+y,z
1/2-x,1/2+y,1/2-z
1/2-x,1/2-y,-z
1/2+x,1/2-y,1/2+z
loop_
_atom_site_type_symbol
_atom_site_label
_atom_site_fract_x
_atom_site_fract_y
_atom_site_fract_z
Si Si1 0.506682 0.571960 0.613359
Si Si2 0.258862 0.968583 0.550596
Si Si3 0.716324 0.875151 0.811379
Si Si4 0.490387 0.744892 0.111089
Si Si5 0.189630 0.331439 0.497817
O O1 0.500000 0.584837 0.750000
O O2 0.571336 0.513321 0.600183
O O3 0.284930 0.567759 0.553518
O O4 0.685695 0.614495 0.535207
O O5 0.277423 0.932662 0.656102
O O6 0.500000 0.000000 0.500000
O O7 0.500000 0.869858 0.750000
O O8 0.000000 0.862878 0.750000
O O9 0.593916 0.842192 0.928784
O O10 0.500000 0.740897 0.250000
O O11 0.329170 0.794681 0.108568
O O12 0.750000 0.750000 0.000000
O O13 0.336396 0.700230 0.073207
#
# Coordination Sequence:
#
# PCOD9306226 Si02
#       5
#     8   8   8   8   8
#     4  11  26  45  77 108 159 211 266 332 406 482
#     4  11  25  46  67 115 158 210 269 329 396 491
#     4  12  28  47  82 114 163 215 270 333 409 493
#     4  11  30  52  81 115 164 210 271 349 424 500
#     4  11  28  49  76 120 153 208 275 334 414 497
#
# _framework density 23.697241999999999
#
# number of rings (size 3 to 8) (size 9 to 14) (size 15 to 20)
#    0.000    0.800    2.000    1.800   16.800    1.600 
#    0.000    1.000    0.000    0.000    0.000    0.000 
#    0.000    0.000    0.000    0.000    0.000    0.000 
#
# Total GULP energy -111509.901874 kJ/mol
# GULP energy per Si atom -5575.495094 kJ/mol
# Density = 2.364331 g / cm^3
# Si number density = 23.697242 Si / 1000 Ang^3
#
#
#
# Elastic Constant Matrix: (Units=GPa)
#
#
# Indices 1 2 3 4 5 6 
#
# 1 144.3380 57.3429 64.5847 0.0000 -6.6427 0.0000
# 2 57.3429 163.7109 51.9917 0.0000 4.9153 0.0000
# 3 64.5847 51.9917 119.2353 0.0000 5.5020 0.0000
# 4 0.0000 0.0000 0.0000 31.3981 0.0000 9.2954
# 5 -6.6427 4.9153 5.5020 0.0000 34.4731 0.0000
# 6 0.0000 0.0000 0.0000 9.2954 0.0000 55.1834
#
#
#
# Elastic Compliance Matrix: (Units=1/GPa)
#
#
# Indices 1 2 3 4 5 6 
#
# 1 0.009969 -0.002115 -0.004614 0.000000 0.002959 0.000000
# 2 -0.002115 0.007548 -0.002092 0.000000 -0.001150 0.000000
# 3 -0.004614 -0.002092 0.011913 0.000000 -0.002492 0.000000
# 4 0.000000 0.000000 0.000000 0.033521 0.000000 -0.005646
# 5 0.002959 -0.001150 -0.002492 0.000000 0.030140 0.000000
# 6 0.000000 0.000000 0.000000 -0.005646 0.000000 0.019073
#
#
# Mechanical properties :
#
#
# Convention : Reuss Voigt Hill
#
# Bulk Modulus (GPa) = 84.83850 86.12476 85.48163
# Shear Modulus (GPa) = 37.38661 41.10190 39.24425
#
# Velocity S-wave (km/s) = 3.97631 4.16920 4.07390
# Velocity P-wave (km/s) = 7.54719 7.72004 7.63410
#
# Compressibility (1/GPa) = 0.01178710
#
# Stress axis : x y z
#
# Youngs Moduli (GPa) = 100.30681 132.47882 83.93860
#
# Poissons Ratio (x) = 0.28025 0.38730
# Poissons Ratio (y) = 0.21220 0.17564
# Poissons Ratio (z) = 0.46283 0.27721
#
# Static dielectric constant tensor:
#      x y z
#    x 2.218320 0.000000 0.147290 
#    y 0.000000 1.798780 0.000000 
#    z 0.147290 0.000000 2.092560 
# 
# From -- ./inp_files/73067.got.cif
#   From: 2010.05.17/outbox.cif.g08.bks.cpg/sg15_37_cif.got.tgz:73067.got - 2010.06.03 18:47:42.
