data_PCOD9306234
_publ_section_title
;
Structure prediction by ZEFSAII (Michael W. Deem and Ramdas Pophale) SiO2 
 PCOD9306234
Probable space group: C 2/C
;
_chemical_formula_sum "Si O2"
_cell_formula_units_Z 48
_cell_length_a 24.975750
_cell_length_b 15.975691
_cell_length_c 8.730263
_cell_angle_alpha 90.000000
_cell_angle_beta 142.249971
_cell_angle_gamma 90.000000
_cell_volume 2132.609723
_symmetry_space_group_name_H-M "C 2/C"
_symmetry_group_IT_number 15
_symmetry_cell_setting 'monoclinic'
loop_
_space_group_symop_operation_xyz
x,y,z
-x,y,1/2-z
-x,-y,-z
x,-y,1/2+z
1/2+x,1/2+y,z
1/2-x,1/2+y,1/2-z
1/2-x,1/2-y,-z
1/2+x,1/2-y,1/2+z
loop_
_atom_site_type_symbol
_atom_site_label
_atom_site_fract_x
_atom_site_fract_y
_atom_site_fract_z
Si Si1 0.644607 0.448396 0.512489
Si Si2 0.093701 0.732665 0.041446
Si Si3 0.928813 0.083437 0.952492
Si Si4 0.423078 0.927983 0.808049
Si Si5 0.186664 0.462373 0.239742
Si Si6 0.726524 0.179178 0.071271
O O1 0.620467 0.500718 0.605762
O O2 0.564354 0.432599 0.214209
O O3 0.719587 0.509377 0.610843
O O4 0.688217 0.361295 0.658231
O O5 0.000000 0.737767 0.750000
O O6 0.119820 0.826704 0.150482
O O7 0.069934 0.669191 0.127467
O O8 0.161956 0.705565 0.062710
O O9 0.000000 0.090284 0.250000
O O10 0.378665 0.934567 0.542386
O O11 0.353277 0.955682 0.776295
O O12 0.500000 0.000000 0.000000
O O13 0.187848 0.395028 0.378255
O O14 0.750000 0.250000 0.000000
#
# Coordination Sequence:
#
# PCOD9306234 Si02
#       6
#     8   8   8   8   8   8
#     4  12  23  46  70 100 133 183 237 294 361 430
#     4  11  25  46  69 105 146 185 240 301 362 432
#     4  11  26  46  72  97 134 181 238 302 365 426
#     4  12  23  40  68 100 143 192 231 286 356 428
#     4  12  22  41  64  99 135 181 236 283 352 428
#     4  12  26  43  71 105 143 187 244 300 357 430
#
# _framework density 22.507633999999999
#
# number of rings (size 3 to 8) (size 9 to 14) (size 15 to 20)
#    0.000    0.333    5.000    4.000    2.333    0.667 
#    0.000    0.000    0.000    0.000    0.000    0.000 
#    0.000    0.000    0.000    0.000    0.000    0.000 
#
# Total GULP energy -133759.763718 kJ/mol
# GULP energy per Si atom -5573.323488 kJ/mol
# Density = 2.245641 g / cm^3
# Si number density = 22.507634 Si / 1000 Ang^3
#
#
#
# Elastic Constant Matrix: (Units=GPa)
#
#
# Indices 1 2 3 4 5 6 
#
# 1 63.0072 24.8548 14.6664 0.0000 -7.7900 0.0000
# 2 24.8548 100.6724 25.3969 0.0000 -8.8509 0.0000
# 3 14.6664 25.3969 136.0423 0.0000 -31.8012 0.0000
# 4 0.0000 0.0000 0.0000 -114.9765 0.0000 -1.1245
# 5 -7.7900 -8.8509 -31.8012 0.0000 38.4379 0.0000
# 6 0.0000 0.0000 0.0000 -1.1245 0.0000 40.3715
#
#
#
# Elastic Compliance Matrix: (Units=1/GPa)
#
#
# Indices 1 2 3 4 5 6 
#
# 1 0.017893 -0.004060 -0.000672 0.000000 0.002136 0.000000
# 2 -0.004060 0.011375 -0.001569 0.000000 0.000498 0.000000
# 3 -0.000672 -0.001569 0.009422 0.000000 0.007298 0.000000
# 4 0.000000 0.000000 0.000000 -0.008695 0.000000 -0.000242
# 5 0.002136 0.000498 0.007298 0.000000 0.032601 0.000000
# 6 0.000000 0.000000 0.000000 -0.000242 0.000000 0.024763
#
#
# Mechanical properties :
#
#
# Convention : Reuss Voigt Hill
#
# Bulk Modulus (GPa) = 38.33280 47.72869 43.03074
# Shear Modulus (GPa) = 46.01553 8.42020 27.21786
#
# Velocity S-wave (km/s) = 4.52645 1.93628 3.48123
# Velocity P-wave (km/s) = 6.66231 5.12352 5.94293
#
# Compressibility (1/GPa) = 0.02608732
#
# Stress axis : x y z
#
# Youngs Moduli (GPa) = 55.88672 87.90911 106.13502
#
# Poissons Ratio (x) = 0.35695 0.07130
# Poissons Ratio (y) = 0.22692 0.16657
# Poissons Ratio (z) = 0.03755 0.13797
#
# Static dielectric constant tensor:
#      x y z
#    x 1.798400 0.000000 0.033300 
#    y 0.000000 1.946630 0.000000 
#    z 0.033300 0.000000 1.934820 
# 
# From -- ./inp_files/66465.got.cif
#   From: 2010.05.17/outbox.cif.g08.bks.cpg/sg15_34_cif.got.tgz:66465.got - 2010.06.03 18:47:42.
