data_PCOD9306475
_publ_section_title
;
Structure prediction by ZEFSAII (Michael W. Deem and Ramdas Pophale) SiO2 
 PCOD9306475
Probable space group: C 2/C
;
_chemical_formula_sum "Si O2"
_cell_formula_units_Z 56
_cell_length_a 8.113013
_cell_length_b 11.678401
_cell_length_c 28.959224
_cell_angle_alpha 90.000000
_cell_angle_beta 64.485990
_cell_angle_gamma 90.000000
_cell_volume 2476.224728
_symmetry_space_group_name_H-M "C 2/C"
_symmetry_group_IT_number 15
_symmetry_cell_setting 'monoclinic'
loop_
_space_group_symop_operation_xyz
x,y,z
-x,y,1/2-z
-x,-y,-z
x,-y,1/2+z
1/2+x,1/2+y,z
1/2-x,1/2+y,1/2-z
1/2-x,1/2-y,-z
1/2+x,1/2-y,1/2+z
loop_
_atom_site_type_symbol
_atom_site_label
_atom_site_fract_x
_atom_site_fract_y
_atom_site_fract_z
Si Si1 0.792955 0.207712 0.443008
Si Si2 0.665451 0.019796 0.765572
Si Si3 0.928519 0.023283 0.956432
Si Si4 0.641079 0.235821 0.275546
Si Si5 0.088010 0.390600 0.544955
Si Si6 0.097901 0.203770 0.610469
Si Si7 0.946612 0.398971 0.120147
O O1 0.750000 0.250000 0.500000
O O2 0.597317 0.169705 0.447895
O O3 0.905918 0.297575 0.399594
O O4 0.918085 0.096403 0.432449
O O5 0.500000 0.009690 0.750000
O O6 0.769927 0.136824 0.737990
O O7 0.593659 0.051449 0.824946
O O8 0.746425 0.888124 0.758299
O O9 0.007143 0.115020 0.910910
O O10 0.723363 0.071898 0.988517
O O11 0.000000 0.000000 0.000000
O O12 0.500000 0.236379 0.250000
O O13 0.536244 0.235815 0.337099
O O14 0.184844 0.300987 0.567281
O O15 0.034509 0.503122 0.578548
O O16 0.256636 0.141954 0.620186
#
# Coordination Sequence:
#
# PCOD9306475 Si02
#       7
#     8   8   8   8   8   8   8
#     4  12  24  42  69  99 143 190 233 290 350 423
#     4  11  27  47  75 107 141 187 240 304 371 434
#     4  12  25  44  70 108 146 197 242 297 357 436
#     4  11  25  49  74 105 144 185 241 309 366 440
#     4  12  25  46  69 101 148 182 245 293 352 427
#     4  12  25  45  74 102 141 191 239 297 367 429
#     4  12  25  46  72 102 140 188 234 294 363 431
#
# _framework density 22.615071
#
# number of rings (size 3 to 8) (size 9 to 14) (size 15 to 20)
#    0.000    0.286    5.714    3.429    2.000    1.714 
#    0.000    0.000    0.000    0.000    0.000    0.000 
#    0.000    0.000    0.000    0.000    0.000    0.000 
#
# Total GULP energy -156494.561171 kJ/mol
# GULP energy per Si atom -5589.091470 kJ/mol
# Density = 2.256360 g / cm^3
# Si number density = 22.615071 Si / 1000 Ang^3
#
#
#
# Elastic Constant Matrix: (Units=GPa)
#
#
# Indices 1 2 3 4 5 6 
#
# 1 80.7356 35.1777 -0.7515 0.0000 20.8990 0.0000
# 2 35.1777 167.6297 9.1735 0.0000 4.3250 0.0000
# 3 -0.7515 9.1735 46.2824 0.0000 18.4673 0.0000
# 4 0.0000 0.0000 0.0000 35.2894 0.0000 -13.2447
# 5 20.8990 4.3250 18.4673 0.0000 24.6100 0.0000
# 6 0.0000 0.0000 0.0000 -13.2447 0.0000 36.2580
#
#
#
# Elastic Compliance Matrix: (Units=1/GPa)
#
#
# Indices 1 2 3 4 5 6 
#
# 1 0.021064 -0.004385 0.011477 0.000000 -0.025730 0.000000
# 2 -0.004385 0.006945 -0.003492 0.000000 0.005123 0.000000
# 3 0.011477 -0.003492 0.037296 0.000000 -0.037120 0.000000
# 4 0.000000 0.000000 0.000000 0.032839 0.000000 0.011996
# 5 -0.025730 0.005123 -0.037120 0.000000 0.089438 0.000000
# 6 0.000000 0.000000 0.000000 0.011996 0.000000 0.031962
#
#
# Mechanical properties :
#
#
# Convention : Reuss Voigt Hill
#
# Bulk Modulus (GPa) = 13.79185 42.42746 28.10966
# Shear Modulus (GPa) = 21.14069 35.96802 28.55436
#
# Velocity S-wave (km/s) = 3.06078 3.99236 3.55720
# Velocity P-wave (km/s) = 4.31311 6.32878 5.41555
#
# Compressibility (1/GPa) = 0.07250659
#
# Stress axis : x y z
#
# Youngs Moduli (GPa) = 47.47515 143.99781 26.81229
#
# Poissons Ratio (x) = 0.63136 -0.30774
# Poissons Ratio (y) = 0.20816 0.09363
# Poissons Ratio (z) = -0.54489 0.50282
#
# Static dielectric constant tensor:
#      x y z
#    x 1.850860 0.000000 0.005190 
#    y 0.000000 1.905840 0.000000 
#    z 0.005190 0.000000 1.791920 
# 
# From -- ./inp_files/307423.got.cif
#   From: 2010.05.17/outbox.cif.g08.bks.cpg/sg15_154_cif.got.tgz:307423.got - 2010.06.03 18:47:42.
