data_PCOD9306412
_publ_section_title
;
Structure prediction by ZEFSAII (Michael W. Deem and Ramdas Pophale) SiO2 
 PCOD9306412
Probable space group: C 2/C
;
_chemical_formula_sum "Si O2"
_cell_formula_units_Z 28
_cell_length_a 13.967929
_cell_length_b 8.860183
_cell_length_c 11.435670
_cell_angle_alpha 90.000000
_cell_angle_beta 53.061377
_cell_angle_gamma 90.000000
_cell_volume 1131.188879
_symmetry_space_group_name_H-M "C 2/C"
_symmetry_group_IT_number 15
_symmetry_cell_setting 'monoclinic'
loop_
_space_group_symop_operation_xyz
x,y,z
-x,y,1/2-z
-x,-y,-z
x,-y,1/2+z
1/2+x,1/2+y,z
1/2-x,1/2+y,1/2-z
1/2-x,1/2-y,-z
1/2+x,1/2-y,1/2+z
loop_
_atom_site_type_symbol
_atom_site_label
_atom_site_fract_x
_atom_site_fract_y
_atom_site_fract_z
Si Si1 0.500000 0.500094 0.750000
Si Si2 0.369345 0.745571 0.990574
Si Si3 0.108264 0.425609 0.092869
Si Si4 0.211237 0.778981 0.684984
O O1 0.545584 0.610436 0.612905
O O2 0.614871 0.402027 0.706491
O O3 0.325305 0.742064 0.155530
O O4 0.250000 0.750000 0.000000
O O5 0.425145 0.907592 0.919497
O O6 0.209363 0.379609 0.114415
O O7 0.000000 0.365167 0.250000
O O8 0.157172 0.343980 0.941167
#
# Coordination Sequence:
#
# PCOD9306412 Si02
#       4
#     4   8   8   8
#     4  12  24  50  72 112 150 196 236 310 378 428
#     4  12  27  44  74 110 146 191 247 302 365 437
#     4  11  25  48  72 106 141 194 247 300 362 431
#     4  11  27  47  73 107 153 188 245 306 374 432
#
# _framework density 24.752717000000001
#
# number of rings (size 3 to 8) (size 9 to 14) (size 15 to 20)
#    0.000    0.571    5.714    0.857    4.000    3.429 
#    0.000    0.000    0.000    0.000    0.000    0.000 
#    0.000    0.000    0.000    0.000    0.000    0.000 
#
# Total GULP energy -78204.386982 kJ/mol
# GULP energy per Si atom -5586.027642 kJ/mol
# Density = 2.469638 g / cm^3
# Si number density = 24.752717 Si / 1000 Ang^3
#
#
#
# Elastic Constant Matrix: (Units=GPa)
#
#
# Indices 1 2 3 4 5 6 
#
# 1 41.4553 30.3577 35.2870 0.0000 2.9840 0.0000
# 2 30.3577 123.3485 81.1055 0.0000 9.7997 0.0000
# 3 35.2870 81.1055 267.8408 0.0000 13.2729 0.0000
# 4 0.0000 0.0000 0.0000 35.9759 0.0000 -0.2769
# 5 2.9840 9.7997 13.2729 0.0000 49.9060 0.0000
# 6 0.0000 0.0000 0.0000 -0.2769 0.0000 6.1716
#
#
#
# Elastic Compliance Matrix: (Units=1/GPa)
#
#
# Indices 1 2 3 4 5 6 
#
# 1 0.030406 -0.006052 -0.002171 0.000000 -0.000052 0.000000
# 2 -0.006052 0.011397 -0.002595 0.000000 -0.001186 0.000000
# 3 -0.002171 -0.002595 0.004837 0.000000 -0.000647 0.000000
# 4 0.000000 0.000000 0.000000 0.027806 0.000000 0.001248
# 5 -0.000052 -0.001186 -0.000647 0.000000 0.020446 0.000000
# 6 0.000000 0.000000 0.000000 0.001248 0.000000 0.162090
#
#
# Mechanical properties :
#
#
# Convention : Reuss Voigt Hill
#
# Bulk Modulus (GPa) = 39.99201 80.68280 60.33740
# Shear Modulus (GPa) = 17.42454 37.47031 27.44742
#
# Velocity S-wave (km/s) = 2.65607 3.89496 3.33358
# Velocity P-wave (km/s) = 5.05945 7.27282 6.26466
#
# Compressibility (1/GPa) = 0.02500500
#
# Stress axis : x y z
#
# Youngs Moduli (GPa) = 32.88873 87.74145 206.72066
#
# Poissons Ratio (x) = 0.53099 0.44872
# Poissons Ratio (y) = 0.19903 0.53647
# Poissons Ratio (z) = 0.07139 0.22770
#
# Static dielectric constant tensor:
#      x y z
#    x 2.226990 0.000000 -0.191690 
#    y 0.000000 0.345630 0.000000 
#    z -0.191690 0.000000 2.069520 
# 
# From -- ./inp_files/93327.got.cif
#   From: 2010.05.17/outbox.cif.g08.bks.cpg/sg15_47_cif.got.tgz:93327.got - 2010.06.03 18:47:42.
