data_PCOD9306701
_publ_section_title
;
Structure prediction by ZEFSAII (Michael W. Deem and Ramdas Pophale) SiO2 
 PCOD9306701
Probable space group: C 2/C
;
_chemical_formula_sum "Si O2"
_cell_formula_units_Z 40
_cell_length_a 5.396464
_cell_length_b 18.994567
_cell_length_c 17.586299
_cell_angle_alpha 90.000000
_cell_angle_beta 97.639825
_cell_angle_gamma 90.000000
_cell_volume 1786.655631
_symmetry_space_group_name_H-M "C 2/C"
_symmetry_group_IT_number 15
_symmetry_cell_setting 'monoclinic'
loop_
_space_group_symop_operation_xyz
x,y,z
-x,y,1/2-z
-x,-y,-z
x,-y,1/2+z
1/2+x,1/2+y,z
1/2-x,1/2+y,1/2-z
1/2-x,1/2-y,-z
1/2+x,1/2-y,1/2+z
loop_
_atom_site_type_symbol
_atom_site_label
_atom_site_fract_x
_atom_site_fract_y
_atom_site_fract_z
Si Si1 0.874768 0.305436 0.949669
Si Si2 0.464861 0.609186 0.337956
Si Si3 0.038047 0.050303 0.659593
Si Si4 0.328604 0.248090 0.170838
Si Si5 0.023420 0.625923 0.606312
O O1 0.691769 0.352077 0.890057
O O2 0.029321 0.252510 0.902753
O O3 0.750000 0.250000 0.000000
O O4 0.999647 0.357227 0.015784
O O5 0.500000 0.600528 0.250000
O O6 0.418593 0.530495 0.364323
O O7 0.247000 0.666422 0.331359
O O8 0.273785 0.094045 0.635443
O O9 0.000000 0.054910 0.750000
O O10 0.767894 0.077038 0.621698
O O11 0.500000 0.265289 0.250000
O O12 0.100021 0.302072 0.154151
#
# Coordination Sequence:
#
# PCOD9306701 Si02
#       5
#     8   8   8   8   8
#     4  12  26  46  75 112 152 188 251 317 372 436
#     4  11  26  48  76 108 145 199 253 306 369 446
#     4  11  28  49  75 107 156 198 252 303 372 449
#     4  12  26  47  80 106 145 200 258 307 368 452
#     4  12  27  47  75 114 150 197 242 316 379 440
#
# _framework density 22.388197000000002
#
# number of rings (size 3 to 8) (size 9 to 14) (size 15 to 20)
#    0.000    0.400    4.000    3.000    5.600    4.800 
#    0.000    0.000    0.000    0.000    0.000    0.000 
#    0.000    0.000    0.000    0.000    0.000    0.000 
#
# Total GULP energy -111727.922471 kJ/mol
# GULP energy per Si atom -5586.396124 kJ/mol
# Density = 2.233724 g / cm^3
# Si number density = 22.388197 Si / 1000 Ang^3
#
#
#
# Elastic Constant Matrix: (Units=GPa)
#
#
# Indices 1 2 3 4 5 6 
#
# 1 112.1989 52.8181 33.4093 0.0000 -5.5037 0.0000
# 2 52.8181 142.0189 31.2649 0.0000 0.9326 0.0000
# 3 33.4093 31.2649 99.7179 0.0000 25.2312 0.0000
# 4 0.0000 0.0000 0.0000 639.3881 0.0000 693.5123
# 5 -5.5037 0.9326 25.2312 0.0000 48.1893 0.0000
# 6 0.0000 0.0000 0.0000 693.5123 0.0000 820.0068
#
#
#
# Elastic Compliance Matrix: (Units=1/GPa)
#
#
# Indices 1 2 3 4 5 6 
#
# 1 0.011887 -0.003629 -0.003695 0.000000 0.003363 0.000000
# 2 -0.003629 0.008739 -0.001586 0.000000 0.000247 0.000000
# 3 -0.003695 -0.001586 0.013674 0.000000 -0.007551 0.000000
# 4 0.000000 0.000000 0.000000 0.018919 0.000000 -0.016000
# 5 0.003363 0.000247 -0.007551 0.000000 0.025084 0.000000
# 6 0.000000 0.000000 0.000000 -0.016000 0.000000 0.014752
#
#
# Mechanical properties :
#
#
# Convention : Reuss Voigt Hill
#
# Bulk Modulus (GPa) = 60.68893 65.43558 63.06225
# Shear Modulus (GPa) = 42.96665 317.27974 180.12319
#
# Velocity S-wave (km/s) = 4.38558 11.91743 8.97938
# Velocity P-wave (km/s) = 7.26711 14.78709 11.65051
#
# Compressibility (1/GPa) = 0.01647747
#
# Stress axis : x y z
#
# Youngs Moduli (GPa) = 84.12866 114.43346 73.12941
#
# Poissons Ratio (x) = 0.41531 0.27024
# Poissons Ratio (y) = 0.30533 0.11601
# Poissons Ratio (z) = 0.31089 0.18154
#
# Static dielectric constant tensor:
#      x y z
#    x 1.815770 0.000000 0.102290 
#    y 0.000000 1.927410 0.000000 
#    z 0.102290 0.000000 1.641390 
# 
# From -- ./inp_files/184399.got.cif
#   From: 2010.05.17/outbox.cif.g08.bks.cpg/sg15_93_cif.got.tgz:184399.got - 2010.06.03 18:47:42.
