data_PCOD9306805
_publ_section_title
;
Structure prediction by ZEFSAII (Michael W. Deem and Ramdas Pophale) SiO2 
 PCOD9306805
Probable space group: C 2/C
;
_chemical_formula_sum "Si O2"
_cell_formula_units_Z 36
_cell_length_a 15.599517
_cell_length_b 9.615379
_cell_length_c 15.760845
_cell_angle_alpha 90.000000
_cell_angle_beta 37.178046
_cell_angle_gamma 90.000000
_cell_volume 1428.582223
_symmetry_space_group_name_H-M "C 2/C"
_symmetry_group_IT_number 15
_symmetry_cell_setting 'monoclinic'
loop_
_space_group_symop_operation_xyz
x,y,z
-x,y,1/2-z
-x,-y,-z
x,-y,1/2+z
1/2+x,1/2+y,z
1/2-x,1/2+y,1/2-z
1/2-x,1/2-y,-z
1/2+x,1/2-y,1/2+z
loop_
_atom_site_type_symbol
_atom_site_label
_atom_site_fract_x
_atom_site_fract_y
_atom_site_fract_z
Si Si1 0.984669 0.035748 0.365211
Si Si2 0.705496 0.045093 0.825098
Si Si3 0.500000 0.946342 0.750000
Si Si4 0.039395 0.358626 0.080486
Si Si5 0.261123 0.693057 0.085515
O O1 0.949727 0.197072 0.409396
O O2 0.000000 0.015020 0.250000
O O3 0.131375 0.997361 0.296946
O O4 0.867138 0.935183 0.497353
O O5 0.624469 0.095295 0.804940
O O6 0.689422 0.183177 0.894662
O O7 0.622942 0.915147 0.932889
O O8 0.400942 0.851368 0.769642
O O9 0.408584 0.048620 0.881334
O O10 0.250000 0.750000 0.000000
#
# Coordination Sequence:
#
# PCOD9306805 Si02
#       5
#     8   8   4   8   8
#     4  12  25  44  74 101 135 185 231 277 342 415
#     4  11  27  47  66 104 143 177 227 288 340 411
#     4  12  24  44  70  96 134 182 226 284 336 406
#     4  11  27  45  69 100 141 177 229 286 343 400
#     4  12  24  43  71 100 136 183 228 277 347 408
#
# _framework density 25.199809999999999
#
# number of rings (size 3 to 8) (size 9 to 14) (size 15 to 20)
#    0.000    0.444    5.556    1.333    6.222    4.444 
#    0.000    0.000    0.000    0.000    0.000    0.000 
#    0.000    0.000    0.000    0.000    0.000    0.000 
#
# Total GULP energy -100853.801830 kJ/mol
# GULP energy per Si atom -5602.988991 kJ/mol
# Density = 2.514245 g / cm^3
# Si number density = 25.199810 Si / 1000 Ang^3
#
#
#
# Elastic Constant Matrix: (Units=GPa)
#
#
# Indices 1 2 3 4 5 6 
#
# 1 81.6091 26.7827 8.6856 0.0000 -10.5750 0.0000
# 2 26.7827 162.7468 45.1370 0.0000 -6.3952 0.0000
# 3 8.6856 45.1370 76.5143 0.0000 -32.8298 0.0000
# 4 0.0000 0.0000 0.0000 35.1626 0.0000 -0.6292
# 5 -10.5750 -6.3952 -32.8298 0.0000 42.7893 0.0000
# 6 0.0000 0.0000 0.0000 -0.6292 0.0000 40.0536
#
#
#
# Elastic Compliance Matrix: (Units=1/GPa)
#
#
# Indices 1 2 3 4 5 6 
#
# 1 0.013462 -0.002558 0.001855 0.000000 0.004368 0.000000
# 2 -0.002558 0.008163 -0.006370 0.000000 -0.004300 0.000000
# 3 0.001855 -0.006370 0.024456 0.000000 0.018270 0.000000
# 4 0.000000 0.000000 0.000000 0.028447 0.000000 0.000447
# 5 0.004368 -0.004300 0.018270 0.000000 0.037825 0.000000
# 6 0.000000 0.000000 0.000000 0.000447 0.000000 0.024974
#
#
# Mechanical properties :
#
#
# Convention : Reuss Voigt Hill
#
# Bulk Modulus (GPa) = 31.31419 53.56454 42.43937
# Shear Modulus (GPa) = 30.84192 39.61877 35.23035
#
# Velocity S-wave (km/s) = 3.50222 3.96938 3.74309
# Velocity P-wave (km/s) = 5.36725 6.50462 5.96311
#
# Compressibility (1/GPa) = 0.03193440
#
# Stress axis : x y z
#
# Youngs Moduli (GPa) = 74.28505 122.50019 40.89037
#
# Poissons Ratio (x) = 0.31338 -0.07586
# Poissons Ratio (y) = 0.19004 0.26047
# Poissons Ratio (z) = -0.13781 0.78033
#
# Static dielectric constant tensor:
#      x y z
#    x 2.145060 0.000000 -0.322820 
#    y 0.000000 2.001170 0.000000 
#    z -0.322820 0.000000 2.846200 
# 
# From -- ./inp_files/102440.got.cif
#   From: 2010.05.17/outbox.cif.g08.bks.cpg/sg15_52_cif.got.tgz:102440.got - 2010.06.03 18:47:42.
