data_PCOD9306426
_publ_section_title
;
Structure prediction by ZEFSAII (Michael W. Deem and Ramdas Pophale) SiO2 
 PCOD9306426
Probable space group: C 2/C
;
_chemical_formula_sum "Si O2"
_cell_formula_units_Z 40
_cell_length_a 8.484340
_cell_length_b 22.381745
_cell_length_c 8.150886
_cell_angle_alpha 90.000000
_cell_angle_beta 95.246190
_cell_angle_gamma 90.000000
_cell_volume 1541.323323
_symmetry_space_group_name_H-M "C 2/C"
_symmetry_group_IT_number 15
_symmetry_cell_setting 'monoclinic'
loop_
_space_group_symop_operation_xyz
x,y,z
-x,y,1/2-z
-x,-y,-z
x,-y,1/2+z
1/2+x,1/2+y,z
1/2-x,1/2+y,1/2-z
1/2-x,1/2-y,-z
1/2+x,1/2-y,1/2+z
loop_
_atom_site_type_symbol
_atom_site_label
_atom_site_fract_x
_atom_site_fract_y
_atom_site_fract_z
Si Si1 0.673981 0.494345 0.315409
Si Si2 0.427376 0.162270 0.066379
Si Si3 0.078878 0.123920 0.940913
Si Si4 0.111924 0.444141 0.456327
Si Si5 0.573857 0.728748 0.435143
O O1 0.500000 0.511521 0.250000
O O2 0.634995 0.444923 0.452132
O O3 0.760802 0.552308 0.387589
O O4 0.789077 0.460853 0.196786
O O5 0.500000 0.144506 0.250000
O O6 0.519282 0.117602 0.950293
O O7 0.243061 0.155072 0.009300
O O8 0.469398 0.231156 0.046580
O O9 0.000000 0.128604 0.750000
O O10 0.949719 0.158630 0.035465
O O11 0.000000 0.500000 0.500000
O O12 0.500000 0.742514 0.250000
O O13 0.750000 0.750000 0.500000
#
# Coordination Sequence:
#
# PCOD9306426 Si02
#       5
#     8   8   8   8   8
#     4  11  26  47  74 109 156 207 252 327 385 469
#     4  12  26  46  76 109 152 202 254 320 388 464
#     4  11  25  48  74 106 155 199 251 318 389 459
#     4  12  25  46  75 110 151 199 265 313 390 460
#     4  12  27  47  77 113 148 200 261 319 390 464
#
# _framework density 25.951727999999999
#
# number of rings (size 3 to 8) (size 9 to 14) (size 15 to 20)
#    0.000    0.400    2.000    6.000    8.400    0.000 
#    0.000    0.000    0.000    0.000    0.000    0.000 
#    0.000    0.000    0.000    0.000    0.000    0.000 
#
# Total GULP energy -111814.669234 kJ/mol
# GULP energy per Si atom -5590.733462 kJ/mol
# Density = 2.589266 g / cm^3
# Si number density = 25.951728 Si / 1000 Ang^3
#
#
#
# Elastic Constant Matrix: (Units=GPa)
#
#
# Indices 1 2 3 4 5 6 
#
# 1 176.0307 58.3121 47.0955 0.0000 21.6765 0.0000
# 2 58.3121 81.3195 22.1243 0.0000 -13.0413 0.0000
# 3 47.0955 22.1243 121.5280 0.0000 4.5490 0.0000
# 4 0.0000 0.0000 0.0000 30.3533 0.0000 -12.8108
# 5 21.6765 -13.0413 4.5490 0.0000 48.5358 0.0000
# 6 0.0000 0.0000 0.0000 -12.8108 0.0000 51.0163
#
#
#
# Elastic Compliance Matrix: (Units=1/GPa)
#
#
# Indices 1 2 3 4 5 6 
#
# 1 0.009290 -0.007026 -0.002102 0.000000 -0.005840 0.000000
# 2 -0.007026 0.018954 -0.001039 0.000000 0.008328 0.000000
# 3 -0.002102 -0.001039 0.009240 0.000000 -0.000206 0.000000
# 4 0.000000 0.000000 0.000000 0.036851 0.000000 0.009254
# 5 -0.005840 0.008328 -0.000206 0.000000 0.025469 0.000000
# 6 0.000000 0.000000 0.000000 0.009254 0.000000 0.021925
#
#
# Mechanical properties :
#
#
# Convention : Reuss Voigt Hill
#
# Bulk Modulus (GPa) = 58.31578 70.43801 64.37689
# Shear Modulus (GPa) = 33.83392 42.73748 38.28570
#
# Velocity S-wave (km/s) = 3.61463 4.06249 3.84509
# Velocity P-wave (km/s) = 6.31984 7.01470 6.67631
#
# Compressibility (1/GPa) = 0.01714802
#
# Stress axis : x y z
#
# Youngs Moduli (GPa) = 107.64408 52.75990 108.22208
#
# Poissons Ratio (x) = 0.37069 0.22753
# Poissons Ratio (y) = 0.75631 0.11250
# Poissons Ratio (z) = 0.22631 0.05484
#
# Static dielectric constant tensor:
#      x y z
#    x 2.006550 0.000000 -0.027040 
#    y 0.000000 1.958160 0.000000 
#    z -0.027040 0.000000 2.079530 
# 
# From -- ./inp_files/23614.got.cif
#   From: 2010.05.17/outbox.cif.g08.bks.cpg/sg15_12_cif.got.tgz:23614.got - 2010.06.03 18:47:42.
