data_PCOD9306193
_publ_section_title
;
Structure prediction by ZEFSAII (Michael W. Deem and Ramdas Pophale) SiO2 
 PCOD9306193
Probable space group: C 2/C
;
_chemical_formula_sum "Si O2"
_cell_formula_units_Z 48
_cell_length_a 5.613057
_cell_length_b 14.238769
_cell_length_c 28.006204
_cell_angle_alpha 90.000000
_cell_angle_beta 111.692380
_cell_angle_gamma 90.000000
_cell_volume 2079.825076
_symmetry_space_group_name_H-M "C 2/C"
_symmetry_group_IT_number 15
_symmetry_cell_setting 'monoclinic'
loop_
_space_group_symop_operation_xyz
x,y,z
-x,y,1/2-z
-x,-y,-z
x,-y,1/2+z
1/2+x,1/2+y,z
1/2-x,1/2+y,1/2-z
1/2-x,1/2-y,-z
1/2+x,1/2-y,1/2+z
loop_
_atom_site_type_symbol
_atom_site_label
_atom_site_fract_x
_atom_site_fract_y
_atom_site_fract_z
Si Si1 0.425434 0.581316 0.043654
Si Si2 0.342375 0.623497 0.941621
Si Si3 0.000000 0.213787 0.750000
Si Si4 0.824814 0.625857 0.858774
Si Si5 0.702100 0.590832 0.358420
Si Si6 0.500000 0.676811 0.250000
Si Si7 0.636900 0.782193 0.918496
O O1 0.486336 0.470740 0.050320
O O2 0.386077 0.614991 0.094558
O O3 0.669552 0.642482 0.045357
O O4 0.226621 0.606667 0.986581
O O5 0.480607 0.722518 0.945537
O O6 0.133775 0.623717 0.883546
O O7 0.170934 0.156013 0.800478
O O8 0.230019 0.268037 0.738549
O O9 0.749205 0.519396 0.863255
O O10 0.756959 0.701638 0.894246
O O11 0.527081 0.617845 0.300896
O O12 0.957266 0.652448 0.372550
#
# Coordination Sequence:
#
# PCOD9306193 Si02
#       7
#     8   8   4   8   8   4   8
#     4  11  25  45  74 110 153 201 255 315 385 462
#     4  11  25  45  74 110 153 201 255 315 385 462
#     4  12  27  50  81 116 152 202 261 324 393 466
#     4  12  26  47  74 110 149 197 253 321 383 462
#     4  12  26  47  74 110 149 197 253 321 383 462
#     4  12  27  50  81 116 152 202 261 324 393 466
#     4  12  23  46  72 106 148 194 253 306 386 456
#
# _framework density 23.078862999999998
#
# number of rings (size 3 to 8) (size 9 to 14) (size 15 to 20)
#    0.000    0.333    5.000    4.000    0.000    4.667 
#    0.000    1.667    0.000    0.000    0.000    0.000 
#    0.000    0.000    0.000    0.000    0.000    0.000 
#
# Total GULP energy -133968.652508 kJ/mol
# GULP energy per Si atom -5582.027188 kJ/mol
# Density = 2.302633 g / cm^3
# Si number density = 23.078863 Si / 1000 Ang^3
#
#
#
# Elastic Constant Matrix: (Units=GPa)
#
#
# Indices 1 2 3 4 5 6 
#
# 1 50.4918 41.4272 18.0491 0.0000 0.8666 0.0000
# 2 41.4272 168.8578 43.8187 0.0000 3.5257 0.0000
# 3 18.0491 43.8187 120.8797 0.0000 8.8717 0.0000
# 4 0.0000 0.0000 0.0000 195.0822 0.0000 1.3082
# 5 0.8666 3.5257 8.8717 0.0000 32.9904 0.0000
# 6 0.0000 0.0000 0.0000 1.3082 0.0000 28.0231
#
#
#
# Elastic Compliance Matrix: (Units=1/GPa)
#
#
# Indices 1 2 3 4 5 6 
#
# 1 0.025105 -0.005726 -0.001703 0.000000 0.000410 0.000000
# 2 -0.005726 0.007843 -0.001977 0.000000 -0.000156 0.000000
# 3 -0.001703 -0.001977 0.009410 0.000000 -0.002275 0.000000
# 4 0.000000 0.000000 0.000000 0.005128 0.000000 -0.000239
# 5 0.000410 -0.000156 -0.002275 0.000000 0.030929 0.000000
# 6 0.000000 0.000000 0.000000 -0.000239 0.000000 0.035696
#
#
# Mechanical properties :
#
#
# Convention : Reuss Voigt Hill
#
# Bulk Modulus (GPa) = 42.46772 60.75771 51.61272
# Shear Modulus (GPa) = 35.51853 67.01478 51.26666
#
# Velocity S-wave (km/s) = 3.92727 5.39447 4.71825
# Velocity P-wave (km/s) = 6.24546 8.07364 7.21767
#
# Compressibility (1/GPa) = 0.02354729
#
# Stress axis : x y z
#
# Youngs Moduli (GPa) = 39.83307 127.50038 106.26462
#
# Poissons Ratio (x) = 0.73004 0.18097
# Poissons Ratio (y) = 0.22808 0.21005
# Poissons Ratio (z) = 0.06784 0.25203
#
# Static dielectric constant tensor:
#      x y z
#    x 2.026480 0.000000 0.002930 
#    y 0.000000 1.796040 0.000000 
#    z 0.002930 0.000000 1.980510 
# 
# From -- ./inp_files/285595.got.cif
#   From: 2010.05.17/outbox.cif.g08.bks.cpg/sg15_143_cif.got.tgz:285595.got - 2010.06.03 18:47:42.
