data_PCOD9306480
_publ_section_title
;
Structure prediction by ZEFSAII (Michael W. Deem and Ramdas Pophale) SiO2 
 PCOD9306480
Probable space group: C 2/C
;
_chemical_formula_sum "Si O2"
_cell_formula_units_Z 48
_cell_length_a 12.795588
_cell_length_b 8.737131
_cell_length_c 16.277463
_cell_angle_alpha 90.000000
_cell_angle_beta 74.675276
_cell_angle_gamma 90.000000
_cell_volume 1755.062497
_symmetry_space_group_name_H-M "C 2/C"
_symmetry_group_IT_number 15
_symmetry_cell_setting 'monoclinic'
loop_
_space_group_symop_operation_xyz
x,y,z
-x,y,1/2-z
-x,-y,-z
x,-y,1/2+z
1/2+x,1/2+y,z
1/2-x,1/2+y,1/2-z
1/2-x,1/2-y,-z
1/2+x,1/2-y,1/2+z
loop_
_atom_site_type_symbol
_atom_site_label
_atom_site_fract_x
_atom_site_fract_y
_atom_site_fract_z
Si Si1 0.945272 0.044821 0.128279
Si Si2 0.908831 0.401046 0.118703
Si Si3 0.103148 0.165747 0.671283
Si Si4 0.232506 0.623185 0.261828
Si Si5 0.633199 0.924787 0.548067
Si Si6 0.210939 0.835365 0.424794
O O1 0.941990 0.223918 0.109797
O O2 0.846684 0.043430 0.216370
O O3 0.058290 0.996115 0.145889
O O4 0.905919 0.917129 0.069455
O O5 0.854328 0.486811 0.206913
O O6 0.019646 0.490716 0.081264
O O7 0.834604 0.428039 0.053715
O O8 0.199879 0.248091 0.701998
O O9 0.115045 0.256150 0.583406
O O10 0.000000 0.214241 0.750000
O O11 0.231874 0.718339 0.346671
O O12 0.715088 0.014307 0.588695
O O13 0.250000 0.750000 0.500000
#
# Coordination Sequence:
#
# PCOD9306480 Si02
#       6
#     8   8   8   8   8   8
#     4  12  28  47  77 117 145 201 270 317 386 479
#     4  11  26  48  74 109 147 204 259 315 400 465
#     4  12  25  48  76 107 157 199 250 324 391 459
#     4  12  25  52  78 107 160 202 254 330 396 468
#     4  11  25  49  75 102 154 204 250 323 393 464
#     4  12  25  49  73 110 154 203 258 319 397 474
#
# _framework density 27.349451999999999
#
# number of rings (size 3 to 8) (size 9 to 14) (size 15 to 20)
#    0.000    0.333    6.667    1.000    2.333    2.667 
#    3.000    0.000    0.000    0.000    0.000    0.000 
#    0.000    0.000    0.000    0.000    0.000    0.000 
#
# Total GULP energy -134253.356881 kJ/mol
# GULP energy per Si atom -5593.889870 kJ/mol
# Density = 2.728720 g / cm^3
# Si number density = 27.349452 Si / 1000 Ang^3
#
#
#
# Elastic Constant Matrix: (Units=GPa)
#
#
# Indices 1 2 3 4 5 6 
#
# 1 103.4815 65.3818 21.7647 0.0000 29.8946 0.0000
# 2 65.3818 168.5258 42.0030 0.0000 18.4325 0.0000
# 3 21.7647 42.0030 103.6407 0.0000 29.9857 0.0000
# 4 0.0000 0.0000 0.0000 20.4997 0.0000 17.8404
# 5 29.8946 18.4325 29.9857 0.0000 46.2272 0.0000
# 6 0.0000 0.0000 0.0000 17.8404 0.0000 50.6766
#
#
#
# Elastic Compliance Matrix: (Units=1/GPa)
#
#
# Indices 1 2 3 4 5 6 
#
# 1 0.015225 -0.005324 0.001471 0.000000 -0.008677 0.000000
# 2 -0.005324 0.008509 -0.002887 0.000000 0.001923 0.000000
# 3 0.001471 -0.002887 0.012867 0.000000 -0.008146 0.000000
# 4 0.000000 0.000000 0.000000 0.070328 0.000000 -0.024758
# 5 -0.008677 0.001923 -0.008146 0.000000 0.031761 0.000000
# 6 0.000000 0.000000 0.000000 -0.024758 0.000000 0.028449
#
#
# Mechanical properties :
#
#
# Convention : Reuss Voigt Hill
#
# Bulk Modulus (GPa) = 43.25190 70.43855 56.84522
# Shear Modulus (GPa) = 26.55000 39.91396 33.23198
#
# Velocity S-wave (km/s) = 3.11910 3.82436 3.48959
# Velocity P-wave (km/s) = 5.36848 6.73141 6.08820
#
# Compressibility (1/GPa) = 0.02312037
#
# Stress axis : x y z
#
# Youngs Moduli (GPa) = 65.68219 117.52887 77.72078
#
# Poissons Ratio (x) = 0.62575 -0.11433
# Poissons Ratio (y) = 0.34971 0.22434
# Poissons Ratio (z) = -0.09662 0.33925
#
# Static dielectric constant tensor:
#      x y z
#    x 2.111060 0.000000 0.045110 
#    y 0.000000 2.124640 0.000000 
#    z 0.045110 0.000000 2.262960 
# 
# From -- ./inp_files/203018.got.cif
#   From: 2010.05.17/outbox.cif.g08.bks.cpg/sg15_102_cif.got.tgz:203018.got - 2010.06.03 18:47:42.
