data_PCOD9306811
_publ_section_title
;
Structure prediction by ZEFSAII (Michael W. Deem and Ramdas Pophale) SiO2 
 PCOD9306811
Probable space group: C 2/C
;
_chemical_formula_sum "Si O2"
_cell_formula_units_Z 60
_cell_length_a 27.065162
_cell_length_b 15.926150
_cell_length_c 12.072750
_cell_angle_alpha 90.000000
_cell_angle_beta 149.440180
_cell_angle_gamma 90.000000
_cell_volume 2645.850885
_symmetry_space_group_name_H-M "C 2/C"
_symmetry_group_IT_number 15
_symmetry_cell_setting 'monoclinic'
loop_
_space_group_symop_operation_xyz
x,y,z
-x,y,1/2-z
-x,-y,-z
x,-y,1/2+z
1/2+x,1/2+y,z
1/2-x,1/2+y,1/2-z
1/2-x,1/2-y,-z
1/2+x,1/2-y,1/2+z
loop_
_atom_site_type_symbol
_atom_site_label
_atom_site_fract_x
_atom_site_fract_y
_atom_site_fract_z
Si Si1 0.141625 0.120193 0.629249
Si Si2 0.030394 0.557659 0.458148
Si Si3 0.077089 0.260352 0.331281
Si Si4 0.000000 0.987896 0.250000
Si Si5 0.328283 0.030091 0.941961
Si Si6 0.768095 0.854424 0.719883
Si Si7 0.371809 0.645579 0.635426
Si Si8 0.550135 0.746030 0.029783
O O1 0.100166 0.192677 0.470218
O O2 0.249532 0.102878 0.792484
O O3 0.150228 0.133103 0.777779
O O4 0.069037 0.043484 0.461263
O O5 0.125236 0.513618 0.587922
O O6 0.062157 0.654031 0.540170
O O7 0.000000 0.500000 0.500000
O O8 0.927763 0.557082 0.194128
O O9 0.177774 0.303777 0.499541
O O10 0.041443 0.227870 0.144226
O O11 0.000000 0.318475 0.250000
O O12 0.930288 0.932256 0.193376
O O13 0.266725 0.950220 0.866227
O O14 0.865739 0.815233 0.855165
O O15 0.782199 0.841628 0.879481
O O16 0.448506 0.721444 0.777325
#
# Coordination Sequence:
#
# PCOD9306811 Si02
#       8
#     8   8   8   4   8   8   8   8
#     4  12  25  45  70 108 143 192 242 313 379 447
#     4  11  28  48  76 106 148 200 250 309 378 446
#     4  12  27  45  70 103 146 192 246 307 375 451
#     4  12  22  46  68 106 146 186 242 304 378 448
#     4  11  27  46  72 108 149 189 246 312 375 452
#     4  12  27  46  75 109 147 197 253 305 377 455
#     4  12  25  43  76 107 144 193 249 311 372 453
#     4  12  25  51  76 107 147 202 253 313 375 454
#
# _framework density 22.677012999999999
#
# number of rings (size 3 to 8) (size 9 to 14) (size 15 to 20)
#    0.000    0.267    4.667    2.400   11.200    2.667 
#    0.000    0.000    0.000    0.000    0.000    0.000 
#    0.000    0.000    0.000    0.000    0.000    0.000 
#
# Total GULP energy -167505.497865 kJ/mol
# GULP energy per Si atom -5583.516596 kJ/mol
# Density = 2.262540 g / cm^3
# Si number density = 22.677013 Si / 1000 Ang^3
#
#
#
# Elastic Constant Matrix: (Units=GPa)
#
#
# Indices 1 2 3 4 5 6 
#
# 1 104.9157 17.0494 15.9414 0.0000 2.4278 0.0000
# 2 17.0494 82.3177 5.1378 0.0000 4.8197 0.0000
# 3 15.9414 5.1378 93.0286 0.0000 2.9135 0.0000
# 4 0.0000 0.0000 0.0000 35.2333 0.0000 2.9596
# 5 2.4278 4.8197 2.9135 0.0000 41.4325 0.0000
# 6 0.0000 0.0000 0.0000 2.9596 0.0000 25.3029
#
#
#
# Elastic Compliance Matrix: (Units=1/GPa)
#
#
# Indices 1 2 3 4 5 6 
#
# 1 0.010104 -0.001977 -0.001614 0.000000 -0.000249 0.000000
# 2 -0.001977 0.012656 -0.000318 0.000000 -0.001334 0.000000
# 3 -0.001614 -0.000318 0.011064 0.000000 -0.000646 0.000000
# 4 0.000000 0.000000 0.000000 0.028664 0.000000 -0.003353
# 5 -0.000249 -0.001334 -0.000646 0.000000 0.024351 0.000000
# 6 0.000000 0.000000 0.000000 -0.003353 0.000000 0.039913
#
#
# Mechanical properties :
#
#
# Convention : Reuss Voigt Hill
#
# Bulk Modulus (GPa) = 38.45702 39.61326 39.03514
# Shear Modulus (GPa) = 34.90664 36.53596 35.72130
#
# Velocity S-wave (km/s) = 3.92764 4.01826 3.97321
# Velocity P-wave (km/s) = 6.12894 6.24780 6.18865
#
# Compressibility (1/GPa) = 0.02600306
#
# Stress axis : x y z
#
# Youngs Moduli (GPa) = 98.97223 79.01660 90.38447
#
# Poissons Ratio (x) = 0.15624 0.14592
# Poissons Ratio (y) = 0.19570 0.02877
# Poissons Ratio (z) = 0.15978 0.02515
#
# Static dielectric constant tensor:
#      x y z
#    x 1.926850 0.000000 -0.188990 
#    y 0.000000 1.883330 0.000000 
#    z -0.188990 0.000000 3.293850 
# 
# From -- ./inp_files/124003.got.cif
#   From: 2010.05.17/outbox.cif.g08.bks.cpg/sg15_63_cif.got.tgz:124003.got - 2010.06.03 18:47:42.
