data_PCOD9306735
_publ_section_title
;
Structure prediction by ZEFSAII (Michael W. Deem and Ramdas Pophale) SiO2 
 PCOD9306735
Probable space group: C 2/C
;
_chemical_formula_sum "Si O2"
_cell_formula_units_Z 24
_cell_length_a 8.509068
_cell_length_b 11.439519
_cell_length_c 11.492730
_cell_angle_alpha 90.000000
_cell_angle_beta 118.215854
_cell_angle_gamma 90.000000
_cell_volume 985.766322
_symmetry_space_group_name_H-M "C 2/C"
_symmetry_group_IT_number 15
_symmetry_cell_setting 'monoclinic'
loop_
_space_group_symop_operation_xyz
x,y,z
-x,y,1/2-z
-x,-y,-z
x,-y,1/2+z
1/2+x,1/2+y,z
1/2-x,1/2+y,1/2-z
1/2-x,1/2-y,-z
1/2+x,1/2-y,1/2+z
loop_
_atom_site_type_symbol
_atom_site_label
_atom_site_fract_x
_atom_site_fract_y
_atom_site_fract_z
Si Si1 0.777294 0.744735 0.173834
Si Si2 0.623975 0.672594 0.532922
Si Si3 0.829645 0.550462 0.015018
O O1 0.835071 0.779217 0.323494
O O2 0.874018 0.645715 0.129692
O O3 0.573002 0.699267 0.086105
O O4 0.784122 0.870536 0.112802
O O5 0.750000 0.750000 0.500000
O O6 0.704120 0.544612 0.533664
O O7 0.000000 0.500000 0.000000
#
# Coordination Sequence:
#
# PCOD9306735 Si02
#       3
#     8   8   8
#     4  11  28  50  76 114 153 202 260 311 390 457
#     4  12  26  49  78 111 156 203 253 317 387 456
#     4  11  26  49  78 112 155 202 255 321 379 459
#
# _framework density 24.346541999999999
#
# number of rings (size 3 to 8) (size 9 to 14) (size 15 to 20)
#    0.000    0.667    3.333    2.000    4.667    8.000 
#    6.000    0.000    0.000    0.000    0.000    0.000 
#    0.000    0.000    0.000    0.000    0.000    0.000 
#
# Total GULP energy -66958.941248 kJ/mol
# GULP energy per Si atom -5579.911771 kJ/mol
# Density = 2.429113 g / cm^3
# Si number density = 24.346542 Si / 1000 Ang^3
#
#
#
# Elastic Constant Matrix: (Units=GPa)
#
#
# Indices 1 2 3 4 5 6 
#
# 1 190.9027 88.5621 119.2126 0.0000 -4.4232 0.0000
# 2 88.5621 207.4927 84.5945 0.0000 -19.5388 0.0000
# 3 119.2126 84.5945 153.5736 0.0000 3.7395 0.0000
# 4 0.0000 0.0000 0.0000 7.6534 0.0000 -46.2544
# 5 -4.4232 -19.5388 3.7395 0.0000 28.3860 0.0000
# 6 0.0000 0.0000 0.0000 -46.2544 0.0000 61.0794
#
#
#
# Elastic Compliance Matrix: (Units=1/GPa)
#
#
# Indices 1 2 3 4 5 6 
#
# 1 0.010594 -0.001269 -0.007568 0.000000 0.001774 0.000000
# 2 -0.001269 0.007077 -0.003036 0.000000 0.005073 0.000000
# 3 -0.007568 -0.003036 0.014184 0.000000 -0.005138 0.000000
# 4 0.000000 0.000000 0.000000 -0.036531 0.000000 -0.027664
# 5 0.001774 0.005073 -0.005138 0.000000 0.039674 0.000000
# 6 0.000000 0.000000 0.000000 -0.027664 0.000000 -0.004577
#
#
# Mechanical properties :
#
#
# Convention : Reuss Voigt Hill
#
# Bulk Modulus (GPa) = 123.33955 126.30081 124.82018
# Shear Modulus (GPa) = 87.91955 36.73042 62.32499
#
# Velocity S-wave (km/s) = 6.01582 3.88835 5.06505
# Velocity P-wave (km/s) = 9.95105 8.49399 9.25125
#
# Compressibility (1/GPa) = 0.00810770
#
# Stress axis : x y z
#
# Youngs Moduli (GPa) = 94.39307 141.30405 70.50358
#
# Poissons Ratio (x) = 0.17937 0.53355
# Poissons Ratio (y) = 0.11982 0.21408
# Poissons Ratio (z) = 0.71433 0.42906
#
# Static dielectric constant tensor:
#      x y z
#    x 1.832260 0.000000 0.112360 
#    y 0.000000 2.154380 0.000000 
#    z 0.112360 0.000000 1.975270 
# 
# From -- ./inp_files/74715.got.cif
#   From: 2010.05.17/outbox.cif.g08.bks.cpg/sg15_38_cif.got.tgz:74715.got - 2010.06.03 18:47:42.
