data_PCOD9306178
_publ_section_title
;
Structure prediction by ZEFSAII (Michael W. Deem and Ramdas Pophale) SiO2 
 PCOD9306178
Probable space group: C 2/C
;
_chemical_formula_sum "Si O2"
_cell_formula_units_Z 36
_cell_length_a 20.367979
_cell_length_b 13.515479
_cell_length_c 4.929234
_cell_angle_alpha 90.000000
_cell_angle_beta 104.844855
_cell_angle_gamma 90.000000
_cell_volume 1311.644043
_symmetry_space_group_name_H-M "C 2/C"
_symmetry_group_IT_number 15
_symmetry_cell_setting 'monoclinic'
loop_
_space_group_symop_operation_xyz
x,y,z
-x,y,1/2-z
-x,-y,-z
x,-y,1/2+z
1/2+x,1/2+y,z
1/2-x,1/2+y,1/2-z
1/2-x,1/2-y,-z
1/2+x,1/2-y,1/2+z
loop_
_atom_site_type_symbol
_atom_site_label
_atom_site_fract_x
_atom_site_fract_y
_atom_site_fract_z
Si Si1 0.929051 0.360288 0.568562
Si Si2 0.808911 0.437009 0.156820
Si Si3 0.000000 0.828100 0.250000
Si Si4 0.691835 0.763851 0.716016
Si Si5 0.389704 0.434230 0.474881
O O1 0.890195 0.422762 0.299921
O O2 0.869687 0.332329 0.720441
O O3 0.000000 0.404736 0.750000
O O4 0.953780 0.248347 0.524497
O O5 0.785326 0.516329 0.911722
O O6 0.788598 0.330761 0.021825
O O7 0.959854 0.892975 0.423164
O O8 0.659501 0.657946 0.623849
O O9 0.750000 0.750000 0.000000
O O10 0.380032 0.470459 0.770779
#
# Coordination Sequence:
#
# PCOD9306178 Si02
#       5
#     8   8   4   8   8
#     4   9  22  47  73 110 152 203 246 314 378 460
#     4  12  26  49  76 113 150 204 261 315 382 459
#     4   8  20  44  72 106 154 192 242 306 378 454
#     4  11  27  50  77 107 157 199 255 323 385 452
#     4  11  25  45  72 109 142 195 245 306 376 451
#
# _framework density 27.446467999999999
#
# number of rings (size 3 to 8) (size 9 to 14) (size 15 to 20)
#    0.667    0.889    2.222    0.667    6.222    4.444 
#    4.000    0.000    0.000    0.000    0.000    0.000 
#    0.000    0.000    0.000    0.000    0.000    0.000 
#
# Total GULP energy -100757.832145 kJ/mol
# GULP energy per Si atom -5597.657341 kJ/mol
# Density = 2.738400 g / cm^3
# Si number density = 27.446468 Si / 1000 Ang^3
#
#
#
# Elastic Constant Matrix: (Units=GPa)
#
#
# Indices 1 2 3 4 5 6 
#
# 1 125.3519 11.4968 25.8065 0.0000 5.8815 0.0000
# 2 11.4968 104.4744 9.7298 0.0000 -0.1821 0.0000
# 3 25.8065 9.7298 114.3216 0.0000 2.1891 0.0000
# 4 0.0000 0.0000 0.0000 67.7682 0.0000 23.9255
# 5 5.8815 -0.1821 2.1891 0.0000 24.5831 0.0000
# 6 0.0000 0.0000 0.0000 23.9255 0.0000 36.0356
#
#
#
# Elastic Compliance Matrix: (Units=1/GPa)
#
#
# Indices 1 2 3 4 5 6 
#
# 1 0.008511 -0.000770 -0.001820 0.000000 -0.001880 0.000000
# 2 -0.000770 0.009718 -0.000659 0.000000 0.000315 0.000000
# 3 -0.001820 -0.000659 0.009222 0.000000 -0.000391 0.000000
# 4 0.000000 0.000000 0.000000 0.019274 0.000000 -0.012797
# 5 -0.001880 0.000315 -0.000391 0.000000 0.041165 0.000000
# 6 0.000000 0.000000 0.000000 -0.012797 0.000000 0.036247
#
#
# Mechanical properties :
#
#
# Convention : Reuss Voigt Hill
#
# Bulk Modulus (GPa) = 47.72718 48.69046 48.20882
# Shear Modulus (GPa) = 36.33192 45.48502 40.90847
#
# Velocity S-wave (km/s) = 3.64227 4.07532 3.86486
# Velocity P-wave (km/s) = 5.92580 6.31846 6.12528
#
# Compressibility (1/GPa) = 0.02095242
#
# Stress axis : x y z
#
# Youngs Moduli (GPa) = 117.49456 102.89706 108.44088
#
# Poissons Ratio (x) = 0.07927 0.19733
# Poissons Ratio (y) = 0.09052 0.07149
# Poissons Ratio (z) = 0.21380 0.06784
#
# Static dielectric constant tensor:
#      x y z
#    x 2.317380 0.000000 -0.022760 
#    y 0.000000 2.096600 0.000000 
#    z -0.022760 0.000000 2.150200 
# 
# From -- ./inp_files/14951.got.cif
#   From: 2010.05.17/outbox.cif.g08.bks.cpg/sg15_8_cif.got.tgz:14951.got - 2010.06.03 18:47:42.
