data_PCOD9306462
_publ_section_title
;
Structure prediction by ZEFSAII (Michael W. Deem and Ramdas Pophale) SiO2 
 PCOD9306462
Probable space group: C 2/C
;
_chemical_formula_sum "Si O2"
_cell_formula_units_Z 40
_cell_length_a 12.138547
_cell_length_b 10.465115
_cell_length_c 14.482077
_cell_angle_alpha 90.000000
_cell_angle_beta 131.959744
_cell_angle_gamma 90.000000
_cell_volume 1368.010941
_symmetry_space_group_name_H-M "C 2/C"
_symmetry_group_IT_number 15
_symmetry_cell_setting 'monoclinic'
loop_
_space_group_symop_operation_xyz
x,y,z
-x,y,1/2-z
-x,-y,-z
x,-y,1/2+z
1/2+x,1/2+y,z
1/2-x,1/2+y,1/2-z
1/2-x,1/2-y,-z
1/2+x,1/2-y,1/2+z
loop_
_atom_site_type_symbol
_atom_site_label
_atom_site_fract_x
_atom_site_fract_y
_atom_site_fract_z
Si Si1 0.634735 0.478862 0.755471
Si Si2 0.096705 0.413585 0.394911
Si Si3 0.094402 0.354289 0.641521
Si Si4 0.072677 0.149528 0.488168
Si Si5 0.679416 0.262819 0.358456
O O1 0.500000 0.462652 0.750000
O O2 0.767627 0.093754 0.955350
O O3 0.768329 0.382788 0.849602
O O4 0.550797 0.451711 0.613203
O O5 0.000000 0.421441 0.250000
O O6 0.032003 0.538325 0.415449
O O7 0.051766 0.278487 0.414804
O O8 0.044502 0.217214 0.572700
O O9 0.186130 0.350982 0.789451
O O10 0.719917 0.389122 0.324167
O O11 0.500000 0.274145 0.250000
O O12 0.750000 0.250000 0.500000
#
# Coordination Sequence:
#
# PCOD9306462 Si02
#       5
#     8   8   8   8   8
#     4  11  27  52  81 121 176 224 293 376 446 543
#     4  11  25  48  80 125 176 227 294 374 455 539
#     4  12  28  48  86 126 170 238 293 375 457 538
#     4  11  25  48  82 126 173 227 303 371 450 553
#     4  11  30  57  80 123 174 226 300 369 451 550
#
# _framework density 29.239535
#
# number of rings (size 3 to 8) (size 9 to 14) (size 15 to 20)
#    0.000    0.800    0.000    5.400    8.400   10.400 
#    0.000    0.000    0.000    0.000    0.000    0.000 
#    0.000    0.000    0.000    0.000    0.000    0.000 
#
# Total GULP energy -111711.399391 kJ/mol
# GULP energy per Si atom -5585.569970 kJ/mol
# Density = 2.917298 g / cm^3
# Si number density = 29.239535 Si / 1000 Ang^3
#
#
#
# Elastic Constant Matrix: (Units=GPa)
#
#
# Indices 1 2 3 4 5 6 
#
# 1 139.5432 48.6688 63.6244 0.0000 18.7329 0.0000
# 2 48.6688 184.2963 91.2916 0.0000 7.1052 0.0000
# 3 63.6244 91.2916 223.5649 0.0000 -18.7536 0.0000
# 4 0.0000 0.0000 0.0000 50.4406 0.0000 2.3032
# 5 18.7329 7.1052 -18.7536 0.0000 62.1238 0.0000
# 6 0.0000 0.0000 0.0000 2.3032 0.0000 39.4072
#
#
#
# Elastic Compliance Matrix: (Units=1/GPa)
#
#
# Indices 1 2 3 4 5 6 
#
# 1 0.009100 -0.001067 -0.002435 0.000000 -0.003357 0.000000
# 2 -0.001067 0.007098 -0.002704 0.000000 -0.001306 0.000000
# 3 -0.002435 -0.002704 0.006523 0.000000 0.003013 0.000000
# 4 0.000000 0.000000 0.000000 0.019878 0.000000 -0.001162
# 5 -0.003357 -0.001306 0.003013 0.000000 0.018168 0.000000
# 6 0.000000 0.000000 0.000000 -0.001162 0.000000 0.025444
#
#
# Mechanical properties :
#
#
# Convention : Reuss Voigt Hill
#
# Bulk Modulus (GPa) = 97.02442 106.06378 101.54410
# Shear Modulus (GPa) = 48.99077 53.31563 51.15320
#
# Velocity S-wave (km/s) = 4.09773 4.27477 4.18718
# Velocity P-wave (km/s) = 7.45943 7.79216 7.62761
#
# Compressibility (1/GPa) = 0.01030668
#
# Stress axis : x y z
#
# Youngs Moduli (GPa) = 109.89553 140.88953 153.30207
#
# Poissons Ratio (x) = 0.15035 0.37336
# Poissons Ratio (y) = 0.11728 0.41456
# Poissons Ratio (z) = 0.26765 0.38100
#
# Static dielectric constant tensor:
#      x y z
#    x 2.743040 0.000000 -0.105520 
#    y 0.000000 2.397530 0.000000 
#    z -0.105520 0.000000 2.364150 
# 
# From -- ./inp_files/197464.got.cif
#   From: 2010.05.17/outbox.cif.g08.bks.cpg/sg15_99_cif.got.tgz:197464.got - 2010.06.03 18:47:42.
