data_PCOD9306091
_publ_section_title
;
Structure prediction by ZEFSAII (Michael W. Deem and Ramdas Pophale) SiO2 
 PCOD9306091
Probable space group: C 2/C
;
_chemical_formula_sum "Si O2"
_cell_formula_units_Z 60
_cell_length_a 17.854350
_cell_length_b 18.174802
_cell_length_c 16.761506
_cell_angle_alpha 90.000000
_cell_angle_beta 151.748502
_cell_angle_gamma 90.000000
_cell_volume 2574.556642
_symmetry_space_group_name_H-M "C 2/C"
_symmetry_group_IT_number 15
_symmetry_cell_setting 'monoclinic'
loop_
_space_group_symop_operation_xyz
x,y,z
-x,y,1/2-z
-x,-y,-z
x,-y,1/2+z
1/2+x,1/2+y,z
1/2-x,1/2+y,1/2-z
1/2-x,1/2-y,-z
1/2+x,1/2-y,1/2+z
loop_
_atom_site_type_symbol
_atom_site_label
_atom_site_fract_x
_atom_site_fract_y
_atom_site_fract_z
Si Si1 0.978945 0.797742 0.901667
Si Si2 0.421117 0.993121 0.302570
Si Si3 0.249828 0.505654 0.026203
Si Si4 0.598651 0.616976 0.728558
Si Si5 0.715949 0.615551 0.161202
Si Si6 0.870414 0.724239 0.180189
Si Si7 0.000000 0.863122 0.750000
Si Si8 0.688957 0.151936 0.714134
O O1 0.846701 0.851599 0.815148
O O2 0.934570 0.717640 0.892759
O O3 0.989783 0.811637 0.817969
O O4 0.147832 0.819014 0.095229
O O5 0.603562 0.989468 0.450141
O O6 0.352151 0.055001 0.296902
O O7 0.369409 0.916258 0.290107
O O8 0.325258 0.009134 0.130676
O O9 0.355287 0.438663 0.158361
O O10 0.351187 0.580504 0.113623
O O11 0.446984 0.588818 0.535762
O O12 0.558945 0.699949 0.718648
O O13 0.755617 0.627604 0.821584
O O14 0.791834 0.678339 0.176455
O O15 0.000000 0.680104 0.250000
O O16 0.750000 0.750000 0.000000
#
# Coordination Sequence:
#
# PCOD9306091 Si02
#       8
#     8   8   8   8   8   8   4   8
#     4  11  27  47  75 103 148 194 244 310 355 443
#     4  11  26  46  71 105 147 186 243 302 361 436
#     4  11  26  45  70 106 145 185 241 301 360 434
#     4  11  25  44  72 103 147 194 235 294 362 445
#     4  11  25  46  70 106 147 190 241 294 368 437
#     4  12  24  39  65 101 140 186 231 285 353 433
#     4  12  26  48  74 104 138 200 246 300 374 418
#     4  11  26  49  72 107 144 191 249 300 366 431
#
# _framework density 23.304983
#
# number of rings (size 3 to 8) (size 9 to 14) (size 15 to 20)
#    0.000    0.800    4.000    1.600    8.400    4.267 
#    0.000    0.000    0.000    0.000    0.000    0.000 
#    0.000    0.000    0.000    0.000    0.000    0.000 
#
# Total GULP energy -168039.990947 kJ/mol
# GULP energy per Si atom -5601.333032 kJ/mol
# Density = 2.325194 g / cm^3
# Si number density = 23.304983 Si / 1000 Ang^3
#
#
#
# Elastic Constant Matrix: (Units=GPa)
#
#
# Indices 1 2 3 4 5 6 
#
# 1 149.2676 54.7894 45.2169 -0.0009 18.8278 0.0002
# 2 54.7894 84.4198 15.9524 0.0002 29.1175 -0.0008
# 3 45.2169 15.9524 51.5764 0.0013 22.8010 -0.0015
# 4 -0.0009 0.0002 0.0013 -0.7763 0.0024 12.7558
# 5 18.8278 29.1175 22.8010 0.0024 36.0438 -0.0005
# 6 0.0002 -0.0008 -0.0015 12.7558 -0.0005 43.3029
#
#
#
# Elastic Compliance Matrix: (Units=1/GPa)
#
#
# Indices 1 2 3 4 5 6 
#
# 1 0.012374 -0.008514 -0.011658 -0.000003 0.007789 0.000000
# 2 -0.008514 0.022324 0.009115 -0.000003 -0.019353 0.000002
# 3 -0.011658 0.009115 0.037972 0.000003 -0.025295 0.000000
# 4 -0.000003 -0.000003 0.000003 -0.220565 0.000018 0.064972
# 5 0.007789 -0.019353 -0.025295 0.000018 0.055310 -0.000006
# 6 0.000000 0.000002 0.000000 0.064972 -0.000006 0.003954
#
#
# Mechanical properties :
#
#
# Convention : Reuss Voigt Hill
#
# Bulk Modulus (GPa) = 19.78010 57.46458 38.62234
# Shear Modulus (GPa) = -100.67601 27.00109 -36.83746
#
# Velocity S-wave (km/s) = -6.57975 3.40751 -3.98008
# Velocity P-wave (km/s) = 7.01557 6.33977 2.12433
#
# Compressibility (1/GPa) = 0.05055587
#
# Stress axis : x y z
#
# Youngs Moduli (GPa) = 80.81720 44.79477 26.33491
#
# Poissons Ratio (x) = 0.38140 0.30701
# Poissons Ratio (y) = 0.68811 -0.24005
# Poissons Ratio (z) = 0.94217 -0.40832
#
# Static dielectric constant tensor:
#      x y z
#    x 1.833100 0.000000 -0.020120 
#    y 0.000000 1.872030 0.000000 
#    z -0.020120 0.000000 1.883500 
# 
# From -- ./inp_files/211783.got.cif
#   From: 2010.05.17/outbox.cif.g08.bks.cpg/sg15_106_cif.got.tgz:211783.got - 2010.06.03 18:47:42.
