data_PCOD9306425
_publ_section_title
;
Structure prediction by ZEFSAII (Michael W. Deem and Ramdas Pophale) SiO2 
 PCOD9306425
Probable space group: C 2/C
;
_chemical_formula_sum "Si O2"
_cell_formula_units_Z 40
_cell_length_a 7.670203
_cell_length_b 17.436500
_cell_length_c 12.493342
_cell_angle_alpha 90.000000
_cell_angle_beta 96.245084
_cell_angle_gamma 90.000000
_cell_volume 1660.962698
_symmetry_space_group_name_H-M "C 2/C"
_symmetry_group_IT_number 15
_symmetry_cell_setting 'monoclinic'
loop_
_space_group_symop_operation_xyz
x,y,z
-x,y,1/2-z
-x,-y,-z
x,-y,1/2+z
1/2+x,1/2+y,z
1/2-x,1/2+y,1/2-z
1/2-x,1/2-y,-z
1/2+x,1/2-y,1/2+z
loop_
_atom_site_type_symbol
_atom_site_label
_atom_site_fract_x
_atom_site_fract_y
_atom_site_fract_z
Si Si1 0.192548 0.269015 0.788637
Si Si2 0.796700 0.171624 0.068788
Si Si3 0.684969 0.618139 0.046401
Si Si4 0.293594 0.890311 0.322614
Si Si5 0.172319 0.548807 0.896047
O O1 0.242814 0.318702 0.688518
O O2 0.183592 0.318254 0.896617
O O3 0.329756 0.200166 0.811151
O O4 0.000000 0.236166 0.750000
O O5 0.000308 0.148017 0.077317
O O6 0.750000 0.250000 0.000000
O O7 0.706129 0.101191 0.001282
O O8 0.756689 0.536408 0.088285
O O9 0.672967 0.609725 0.918301
O O10 0.232942 0.917430 0.202908
O O11 0.464853 0.940511 0.361575
#
# Coordination Sequence:
#
# PCOD9306425 Si02
#       5
#     8   8   8   8   8
#     4  12  26  46  75 109 146 203 255 307 370 453
#     4  12  24  47  73 107 149 190 254 308 370 445
#     4  12  27  44  75 111 148 197 246 316 380 444
#     4  11  25  48  74 102 152 197 253 297 384 447
#     4  11  26  45  74 106 150 198 242 316 379 444
#
# _framework density 24.082419000000002
#
# number of rings (size 3 to 8) (size 9 to 14) (size 15 to 20)
#    0.000    0.400    2.000    6.000    8.400    0.000 
#    3.600    0.000    0.000    0.000    0.000    0.000 
#    0.000    0.000    0.000    0.000    0.000    0.000 
#
# Total GULP energy -111937.171748 kJ/mol
# GULP energy per Si atom -5596.858587 kJ/mol
# Density = 2.402761 g / cm^3
# Si number density = 24.082419 Si / 1000 Ang^3
#
#
#
# Elastic Constant Matrix: (Units=GPa)
#
#
# Indices 1 2 3 4 5 6 
#
# 1 94.0626 22.0929 15.3018 0.0000 -1.6409 0.0000
# 2 22.0929 154.9007 31.4936 0.0000 11.3520 0.0000
# 3 15.3018 31.4936 114.2857 0.0000 -21.3337 0.0000
# 4 0.0000 0.0000 0.0000 9.4510 0.0000 -24.8001
# 5 -1.6409 11.3520 -21.3337 0.0000 35.4859 0.0000
# 6 0.0000 0.0000 0.0000 -24.8001 0.0000 7.9578
#
#
#
# Elastic Compliance Matrix: (Units=1/GPa)
#
#
# Indices 1 2 3 4 5 6 
#
# 1 0.011136 -0.001401 -0.001042 0.000000 0.000337 0.000000
# 2 -0.001401 0.007486 -0.002630 0.000000 -0.004041 0.000000
# 3 -0.001042 -0.002630 0.010996 0.000000 0.007404 0.000000
# 4 0.000000 0.000000 0.000000 -0.014741 0.000000 -0.045940
# 5 0.000337 -0.004041 0.007404 0.000000 0.033940 0.000000
# 6 0.000000 0.000000 0.000000 -0.045940 0.000000 -0.017507
#
#
# Mechanical properties :
#
#
# Convention : Reuss Voigt Hill
#
# Bulk Modulus (GPa) = 51.35379 55.66949 53.51164
# Shear Modulus (GPa) = 104.28431 30.20300 67.24365
#
# Velocity S-wave (km/s) = 6.58765 3.54524 5.28989
# Velocity P-wave (km/s) = 8.90131 6.31860 7.71874
#
# Compressibility (1/GPa) = 0.01947276
#
# Stress axis : x y z
#
# Youngs Moduli (GPa) = 89.80147 133.57644 90.94004
#
# Poissons Ratio (x) = 0.18715 0.09476
# Poissons Ratio (y) = 0.12582 0.23914
# Poissons Ratio (z) = 0.09358 0.35126
#
# Static dielectric constant tensor:
#      x y z
#    x 2.017310 0.000000 0.016060 
#    y 0.000000 1.891830 0.000000 
#    z 0.016060 0.000000 1.945060 
# 
# From -- ./inp_files/76909.got.cif
#   From: 2010.05.17/outbox.cif.g08.bks.cpg/sg15_39_cif.got.tgz:76909.got - 2010.06.03 18:47:42.
