data_PCOD9306104
_publ_section_title
;
Structure prediction by ZEFSAII (Michael W. Deem and Ramdas Pophale) SiO2 
 PCOD9306104
Probable space group: C 2/C
;
_chemical_formula_sum "Si O2"
_cell_formula_units_Z 32
_cell_length_a 28.503846
_cell_length_b 5.237515
_cell_length_c 9.004486
_cell_angle_alpha 90.000000
_cell_angle_beta 121.351294
_cell_angle_gamma 90.000000
_cell_volume 1148.000768
_symmetry_space_group_name_H-M "C 2/C"
_symmetry_group_IT_number 15
_symmetry_cell_setting 'monoclinic'
loop_
_space_group_symop_operation_xyz
x,y,z
-x,y,1/2-z
-x,-y,-z
x,-y,1/2+z
1/2+x,1/2+y,z
1/2-x,1/2+y,1/2-z
1/2-x,1/2-y,-z
1/2+x,1/2-y,1/2+z
loop_
_atom_site_type_symbol
_atom_site_label
_atom_site_fract_x
_atom_site_fract_y
_atom_site_fract_z
Si Si1 0.703141 0.695100 0.604982
Si Si2 0.823887 0.546508 0.715103
Si Si3 0.394949 0.616485 0.530156
Si Si4 0.461362 0.745903 0.932876
O O1 0.767291 0.679646 0.680382
O O2 0.679209 0.920558 0.464155
O O3 0.663434 0.467449 0.498912
O O4 0.688788 0.765529 0.748504
O O5 0.877798 0.684323 0.870928
O O6 0.430251 0.734985 0.722222
O O7 0.422146 0.356109 0.504697
O O8 0.500000 0.500000 0.000000
O O9 0.500000 0.000000 0.000000
#
# Coordination Sequence:
#
# PCOD9306104 Si02
#       4
#     8   8   8   8
#     4  11  25  44  73 118 164 210 263 326 412 515
#     4  11  25  44  73 118 164 210 263 326 412 515
#     4  12  27  50  80 116 158 218 269 338 432 480
#     4  12  32  56  80 116 162 220 290 358 407 482
#
# _framework density 27.874545999999999
#
# number of rings (size 3 to 8) (size 9 to 14) (size 15 to 20)
#    0.000    0.500    5.000    0.750   10.500    3.000 
#    0.000    0.000    0.000    0.000    0.000    0.000 
#    0.000    0.000    0.000    0.000    0.000    0.000 
#
# Total GULP energy -89485.421517 kJ/mol
# GULP energy per Si atom -5592.838845 kJ/mol
# Density = 2.781110 g / cm^3
# Si number density = 27.874546 Si / 1000 Ang^3
#
#
#
# Elastic Constant Matrix: (Units=GPa)
#
#
# Indices 1 2 3 4 5 6 
#
# 1 118.3517 52.3048 62.4310 0.0000 1.6958 0.0000
# 2 52.3048 168.3084 70.9524 0.0000 18.2454 0.0000
# 3 62.4310 70.9524 205.8892 0.0000 18.0854 0.0000
# 4 0.0000 0.0000 0.0000 61.9314 0.0000 6.4913
# 5 1.6958 18.2454 18.0854 0.0000 54.0370 0.0000
# 6 0.0000 0.0000 0.0000 6.4913 0.0000 53.6285
#
#
#
# Elastic Compliance Matrix: (Units=1/GPa)
#
#
# Indices 1 2 3 4 5 6 
#
# 1 0.010864 -0.002437 -0.002572 0.000000 0.001343 0.000000
# 2 -0.002437 0.007634 -0.001723 0.000000 -0.001925 0.000000
# 3 -0.002572 -0.001723 0.006359 0.000000 -0.001466 0.000000
# 4 0.000000 0.000000 0.000000 0.016354 0.000000 -0.001980
# 5 0.001343 -0.001925 -0.001466 0.000000 0.019604 0.000000
# 6 0.000000 0.000000 0.000000 -0.001980 0.000000 0.018886
#
#
# Mechanical properties :
#
#
# Convention : Reuss Voigt Hill
#
# Bulk Modulus (GPa) = 87.77519 95.99174 91.88346
# Shear Modulus (GPa) = 51.56524 54.37680 52.97102
#
# Velocity S-wave (km/s) = 4.30572 4.42154 4.36401
# Velocity P-wave (km/s) = 7.50178 7.78322 7.64379
#
# Compressibility (1/GPa) = 0.01139274
#
# Stress axis : x y z
#
# Youngs Moduli (GPa) = 92.04473 130.99739 157.24830
#
# Poissons Ratio (x) = 0.31930 0.40449
# Poissons Ratio (y) = 0.22436 0.27087
# Poissons Ratio (z) = 0.23677 0.22565
#
# Static dielectric constant tensor:
#      x y z
#    x 2.448180 0.000000 0.141820 
#    y 0.000000 2.317410 0.000000 
#    z 0.141820 0.000000 2.128880 
# 
# From -- ./inp_files/124889.got.cif
#   From: 2010.05.17/outbox.cif.g08.bks.cpg/sg15_63_cif.got.tgz:124889.got - 2010.06.03 18:47:42.
