data_PCOD9306851
_publ_section_title
;
Structure prediction by ZEFSAII (Michael W. Deem and Ramdas Pophale) SiO2 
 PCOD9306851
Probable space group: C 2/C
;
_chemical_formula_sum "Si O2"
_cell_formula_units_Z 48
_cell_length_a 14.569511
_cell_length_b 10.228346
_cell_length_c 15.004835
_cell_angle_alpha 90.000000
_cell_angle_beta 60.052928
_cell_angle_gamma 90.000000
_cell_volume 1937.508519
_symmetry_space_group_name_H-M "C 2/C"
_symmetry_group_IT_number 15
_symmetry_cell_setting 'monoclinic'
loop_
_space_group_symop_operation_xyz
x,y,z
-x,y,1/2-z
-x,-y,-z
x,-y,1/2+z
1/2+x,1/2+y,z
1/2-x,1/2+y,1/2-z
1/2-x,1/2-y,-z
1/2+x,1/2-y,1/2+z
loop_
_atom_site_type_symbol
_atom_site_label
_atom_site_fract_x
_atom_site_fract_y
_atom_site_fract_z
Si Si1 0.514510 0.060322 0.349674
Si Si2 0.793633 0.272922 0.782915
Si Si3 0.214430 0.783203 0.640862
Si Si4 0.108324 0.038871 0.666417
Si Si5 0.901770 0.803119 0.502782
Si Si6 0.436833 0.780208 0.437551
O O1 0.500000 0.049739 0.250000
O O2 0.635613 0.111699 0.293477
O O3 0.441526 0.173916 0.429639
O O4 0.485603 0.925886 0.412694
O O5 0.718548 0.229986 0.738440
O O6 0.873417 0.163017 0.778871
O O7 0.717423 0.300840 0.902416
O O8 0.327922 0.751735 0.543862
O O9 0.112115 0.733475 0.637403
O O10 0.202246 0.939130 0.637470
O O11 0.096119 0.082540 0.570812
O O12 0.000000 0.974310 0.750000
O O13 0.978002 0.809722 0.552387
#
# Coordination Sequence:
#
# PCOD9306851 Si02
#       6
#     8   8   8   8   8   8
#     4  12  25  46  78 111 146 200 253 307 372 447
#     4  12  26  46  74 112 144 195 255 296 373 443
#     4  11  28  49  73 113 145 199 245 310 378 442
#     4  12  25  49  75 103 153 191 249 307 370 446
#     4  12  25  48  76 108 148 198 246 310 367 444
#     4  11  27  50  74 104 156 188 252 308 376 444
#
# _framework density 24.774084999999999
#
# number of rings (size 3 to 8) (size 9 to 14) (size 15 to 20)
#    0.000    0.333    5.000    2.000    9.333    0.667 
#    3.000    0.000    0.000    0.000    0.000    0.000 
#    0.000    0.000    0.000    0.000    0.000    0.000 
#
# Total GULP energy -134243.429002 kJ/mol
# GULP energy per Si atom -5593.476208 kJ/mol
# Density = 2.471770 g / cm^3
# Si number density = 24.774085 Si / 1000 Ang^3
#
#
#
# Elastic Constant Matrix: (Units=GPa)
#
#
# Indices 1 2 3 4 5 6 
#
# 1 132.3379 24.7765 28.1632 0.0000 15.3036 0.0000
# 2 24.7765 61.6078 8.1563 0.0000 -7.9913 0.0000
# 3 28.1632 8.1563 94.2281 0.0000 -14.8427 0.0000
# 4 0.0000 0.0000 0.0000 11.4073 0.0000 2.2573
# 5 15.3036 -7.9913 -14.8427 0.0000 56.5783 0.0000
# 6 0.0000 0.0000 0.0000 2.2573 0.0000 27.4100
#
#
#
# Elastic Compliance Matrix: (Units=1/GPa)
#
#
# Indices 1 2 3 4 5 6 
#
# 1 0.009388 -0.003873 -0.003084 0.000000 -0.003896 0.000000
# 2 -0.003873 0.018244 0.000156 0.000000 0.003665 0.000000
# 3 -0.003084 0.000156 0.012158 0.000000 0.004046 0.000000
# 4 0.000000 0.000000 0.000000 0.089116 0.000000 -0.007339
# 5 -0.003896 0.003665 0.004046 0.000000 0.020307 0.000000
# 6 0.000000 0.000000 0.000000 -0.007339 0.000000 0.037087
#
#
# Mechanical properties :
#
#
# Convention : Reuss Voigt Hill
#
# Bulk Modulus (GPa) = 38.18589 45.59620 41.89105
# Shear Modulus (GPa) = 23.96552 34.21763 29.09158
#
# Velocity S-wave (km/s) = 3.11362 3.72046 3.43049
# Velocity P-wave (km/s) = 5.32666 6.07458 5.71287
#
# Compressibility (1/GPa) = 0.02618768
#
# Stress axis : x y z
#
# Youngs Moduli (GPa) = 106.51513 54.81266 82.24865
#
# Poissons Ratio (x) = 0.21227 0.25369
# Poissons Ratio (y) = 0.41249 -0.01280
# Poissons Ratio (z) = 0.32854 -0.00853
#
# Static dielectric constant tensor:
#      x y z
#    x 1.991160 0.000000 0.048910 
#    y 0.000000 1.974760 0.000000 
#    z 0.048910 0.000000 1.987660 
# 
# From -- ./inp_files/152482.got.cif
#   From: 2010.05.17/outbox.cif.g08.bks.cpg/sg15_77_cif.got.tgz:152482.got - 2010.06.03 18:47:42.
