data_PCOD9306545
_publ_section_title
;
Structure prediction by ZEFSAII (Michael W. Deem and Ramdas Pophale) SiO2 
 PCOD9306545
Probable space group: C 2/C
;
_chemical_formula_sum "Si O2"
_cell_formula_units_Z 48
_cell_length_a 20.474600
_cell_length_b 11.672588
_cell_length_c 10.030070
_cell_angle_alpha 90.000000
_cell_angle_beta 126.218622
_cell_angle_gamma 90.000000
_cell_volume 1933.906083
_symmetry_space_group_name_H-M "C 2/C"
_symmetry_group_IT_number 15
_symmetry_cell_setting 'monoclinic'
loop_
_space_group_symop_operation_xyz
x,y,z
-x,y,1/2-z
-x,-y,-z
x,-y,1/2+z
1/2+x,1/2+y,z
1/2-x,1/2+y,1/2-z
1/2-x,1/2-y,-z
1/2+x,1/2-y,1/2+z
loop_
_atom_site_type_symbol
_atom_site_label
_atom_site_fract_x
_atom_site_fract_y
_atom_site_fract_z
Si Si1 0.963721 0.765615 0.937593
Si Si2 0.636643 0.273882 0.269998
Si Si3 0.780340 0.856683 0.360942
Si Si4 0.908771 0.585635 0.093456
Si Si5 0.080663 0.959562 0.419951
Si Si6 0.354050 0.148493 0.601382
O O1 0.925114 0.673676 0.994059
O O2 0.937415 0.889859 0.964627
O O3 0.060553 0.764344 0.074724
O O4 0.927113 0.722149 0.754699
O O5 0.714517 0.323391 0.288173
O O6 0.638361 0.153428 0.347003
O O7 0.609928 0.364984 0.349034
O O8 0.699474 0.894778 0.337322
O O9 0.801540 0.735973 0.453633
O O10 0.850266 0.948577 0.472288
O O11 0.872851 0.460358 0.032629
O O12 0.000000 0.560584 0.250000
O O13 0.000000 0.008313 0.250000
#
# Coordination Sequence:
#
# PCOD9306545 Si02
#       6
#     8   8   8   8   8   8
#     4   9  21  41  65  91 117 156 206 251 300 357
#     4   9  21  41  65  91 117 156 206 251 300 357
#     4  11  26  39  56  91 127 160 201 248 304 362
#     4   9  21  41  65  91 117 156 206 251 300 357
#     4   9  21  41  65  91 117 156 206 251 300 357
#     4  11  26  39  56  91 127 160 201 248 304 362
#
# _framework density 24.820233999999999
#
# number of rings (size 3 to 8) (size 9 to 14) (size 15 to 20)
#    0.000    2.333    0.000    2.000    9.333    5.333 
#    0.000    3.333    0.000    0.000    0.000    0.000 
#    0.000    0.000    0.000    0.000    0.000    0.000 
#
# Total GULP energy -134201.870085 kJ/mol
# GULP energy per Si atom -5591.744587 kJ/mol
# Density = 2.476374 g / cm^3
# Si number density = 24.820234 Si / 1000 Ang^3
#
#
#
# Elastic Constant Matrix: (Units=GPa)
#
#
# Indices 1 2 3 4 5 6 
#
# 1 95.2943 20.3752 14.0357 0.0000 -5.8546 0.0000
# 2 20.3752 102.2817 3.2728 0.0000 18.7674 0.0000
# 3 14.0357 3.2728 30.6709 0.0000 12.6094 0.0000
# 4 0.0000 0.0000 0.0000 -209.6842 0.0000 -123.1837
# 5 -5.8546 18.7674 12.6094 0.0000 23.4662 0.0000
# 6 0.0000 0.0000 0.0000 -123.1837 0.0000 -43.9546
#
#
#
# Elastic Compliance Matrix: (Units=1/GPa)
#
#
# Indices 1 2 3 4 5 6 
#
# 1 0.014092 -0.004947 -0.011543 0.000000 0.013675 0.000000
# 2 -0.004947 0.013456 0.007393 0.000000 -0.015968 0.000000
# 3 -0.011543 0.007393 0.052257 0.000000 -0.036872 0.000000
# 4 0.000000 0.000000 0.000000 0.007378 0.000000 -0.020677
# 5 0.013675 -0.015968 -0.036872 0.000000 0.078610 0.000000
# 6 0.000000 0.000000 0.000000 -0.020677 0.000000 0.035196
#
#
# Mechanical properties :
#
#
# Convention : Reuss Voigt Hill
#
# Bulk Modulus (GPa) = 16.23103 33.73493 24.98298
# Shear Modulus (GPa) = 20.85780 -33.33030 -6.23625
#
# Velocity S-wave (km/s) = 2.90203 -3.66849 -1.58683
# Velocity P-wave (km/s) = 4.21695 2.07908 2.59424
#
# Compressibility (1/GPa) = 0.06161039
#
# Stress axis : x y z
#
# Youngs Moduli (GPa) = 70.96340 74.31755 19.13634
#
# Poissons Ratio (x) = 0.36764 0.22089
# Poissons Ratio (y) = 0.35105 -0.14147
# Poissons Ratio (z) = 0.81912 -0.54942
#
# Static dielectric constant tensor:
#      x y z
#    x 2.040630 0.000000 -0.023910 
#    y 0.000000 1.885500 0.000000 
#    z -0.023910 0.000000 2.004560 
# 
# From -- ./inp_files/111209.got.cif
#   From: 2010.05.17/outbox.cif.g08.bks.cpg/sg15_56_cif.got.tgz:111209.got - 2010.06.03 18:47:42.
