data_PCOD9306906
_publ_section_title
;
Structure prediction by ZEFSAII (Michael W. Deem and Ramdas Pophale) SiO2 
 PCOD9306906
Probable space group: C 2/C
;
_chemical_formula_sum "Si O2"
_cell_formula_units_Z 40
_cell_length_a 9.900034
_cell_length_b 9.765001
_cell_length_c 15.536966
_cell_angle_alpha 90.000000
_cell_angle_beta 79.176628
_cell_angle_gamma 90.000000
_cell_volume 1475.298392
_symmetry_space_group_name_H-M "C 2/C"
_symmetry_group_IT_number 15
_symmetry_cell_setting 'monoclinic'
loop_
_space_group_symop_operation_xyz
x,y,z
-x,y,1/2-z
-x,-y,-z
x,-y,1/2+z
1/2+x,1/2+y,z
1/2-x,1/2+y,1/2-z
1/2-x,1/2-y,-z
1/2+x,1/2-y,1/2+z
loop_
_atom_site_type_symbol
_atom_site_label
_atom_site_fract_x
_atom_site_fract_y
_atom_site_fract_z
Si Si1 0.960501 0.726422 0.112314
Si Si2 0.312307 0.473418 0.209035
Si Si3 0.288659 0.565394 0.398589
Si Si4 0.936684 0.424841 0.156349
Si Si5 0.548764 0.658558 0.437195
O O1 0.816923 0.690520 0.080566
O O2 0.000244 0.577432 0.144186
O O3 0.911800 0.843926 0.183082
O O4 0.064873 0.782429 0.030026
O O5 0.343502 0.555933 0.293385
O O6 0.156616 0.419794 0.246143
O O7 0.333808 0.576365 0.127312
O O8 0.182035 0.439318 0.405430
O O9 0.410758 0.565675 0.450119
O O10 0.000473 0.283977 0.119750
#
# Coordination Sequence:
#
# PCOD9306906 Si02
#       5
#     8   8   8   8   8
#     4   9  19  34  53  85 114 143 188 242 285 338
#     4   9  19  33  53  79 112 154 188 228 294 340
#     4   8  21  33  57  81 109 149 193 226 285 353
#     4   8  20  33  55  81 115 146 189 231 288 346
#     4  12  17  34  61  82 109 152 190 236 292 338
#
# _framework density 27.113160000000001
#
# number of rings (size 3 to 8) (size 9 to 14) (size 15 to 20)
#    2.400    0.000    0.000    4.800    0.000    0.000 
#    0.000    0.000    4.400    4.800    0.000    0.000 
#    0.000    0.000    0.000    0.000    0.000    0.000 
#
# Total GULP energy -111518.085182 kJ/mol
# GULP energy per Si atom -5575.904259 kJ/mol
# Density = 2.705145 g / cm^3
# Si number density = 27.113160 Si / 1000 Ang^3
#
#
#
# Elastic Constant Matrix: (Units=GPa)
#
#
# Indices 1 2 3 4 5 6 
#
# 1 49.6252 -3.1245 2.7602 0.0000 4.9925 0.0000
# 2 -3.1245 157.3409 73.3213 0.0000 -19.6341 0.0000
# 3 2.7602 73.3213 108.9988 0.0000 -12.5234 0.0000
# 4 0.0000 0.0000 0.0000 51.6568 0.0000 -3.7910
# 5 4.9925 -19.6341 -12.5234 0.0000 26.5478 0.0000
# 6 0.0000 0.0000 0.0000 -3.7910 0.0000 24.7984
#
#
#
# Elastic Compliance Matrix: (Units=1/GPa)
#
#
# Indices 1 2 3 4 5 6 
#
# 1 0.020676 0.000524 -0.001352 0.000000 -0.004138 0.000000
# 2 0.000524 0.009721 -0.006066 0.000000 0.004229 0.000000
# 3 -0.001352 -0.006066 0.013537 0.000000 0.002153 0.000000
# 4 0.000000 0.000000 0.000000 0.019578 0.000000 0.002993
# 5 -0.004138 0.004229 0.002153 0.000000 0.042590 0.000000
# 6 0.000000 0.000000 0.000000 0.002993 0.000000 0.040783
#
#
# Mechanical properties :
#
#
# Convention : Reuss Voigt Hill
#
# Bulk Modulus (GPa) = 33.17261 51.31988 42.24625
# Shear Modulus (GPa) = 29.28785 36.80115 33.04450
#
# Velocity S-wave (km/s) = 3.29022 3.68817 3.49487
# Velocity P-wave (km/s) = 5.16677 6.09147 5.64807
#
# Compressibility (1/GPa) = 0.03014535
#
# Stress axis : x y z
#
# Youngs Moduli (GPa) = 48.36632 102.87376 73.87324
#
# Poissons Ratio (x) = -0.05391 0.09984
# Poissons Ratio (y) = -0.02534 0.44813
# Poissons Ratio (z) = 0.06537 0.62406
#
# Static dielectric constant tensor:
#      x y z
#    x 2.243320 0.000000 0.043560 
#    y 0.000000 2.048500 0.000000 
#    z 0.043560 0.000000 2.081870 
# 
# From -- ./inp_files/202336.got.cif
#   From: 2010.05.17/outbox.cif.g08.bks.cpg/sg15_102_cif.got.tgz:202336.got - 2010.06.03 18:47:42.
