data_PCOD9306057
_publ_section_title
;
Structure prediction by ZEFSAII (Michael W. Deem and Ramdas Pophale) SiO2 
 PCOD9306057
Probable space group: C 2/C
;
_chemical_formula_sum "Si O2"
_cell_formula_units_Z 36
_cell_length_a 19.599438
_cell_length_b 12.307530
_cell_length_c 8.946211
_cell_angle_alpha 90.000000
_cell_angle_beta 43.331554
_cell_angle_gamma 90.000000
_cell_volume 1480.868271
_symmetry_space_group_name_H-M "C 2/C"
_symmetry_group_IT_number 15
_symmetry_cell_setting 'monoclinic'
loop_
_space_group_symop_operation_xyz
x,y,z
-x,y,1/2-z
-x,-y,-z
x,-y,1/2+z
1/2+x,1/2+y,z
1/2-x,1/2+y,1/2-z
1/2-x,1/2-y,-z
1/2+x,1/2-y,1/2+z
loop_
_atom_site_type_symbol
_atom_site_label
_atom_site_fract_x
_atom_site_fract_y
_atom_site_fract_z
Si Si1 0.300657 0.888066 0.949059
Si Si2 0.104857 0.183047 0.197521
Si Si3 0.084857 0.803952 0.320109
Si Si4 0.000000 0.011295 0.750000
Si Si5 0.779002 0.615623 0.126580
O O1 0.388341 0.799533 0.826778
O O2 0.283473 0.895776 0.797503
O O3 0.196936 0.842631 0.180562
O O4 0.319099 0.004900 0.989648
O O5 0.169706 0.139602 0.234237
O O6 0.998810 0.226585 0.426282
O O7 0.160371 0.281004 0.029351
O O8 0.089220 0.076708 0.117542
O O9 0.032035 0.906967 0.328143
#
# Coordination Sequence:
#
# PCOD9306057 Si02
#       5
#     8   8   8   4   8
#     4  11  26  46  71 108 150 190 239 299 369 428
#     4  11  25  43  72 105 145 191 241 299 362 427
#     4  11  25  43  72 106 143 190 243 299 356 435
#     4  12  22  42  74 106 134 184 246 296 350 428
#     4  11  26  47  71 108 151 191 237 303 364 433
#
# _framework density 24.310063
#
# number of rings (size 3 to 8) (size 9 to 14) (size 15 to 20)
#    0.000    0.889    2.222    3.333    3.111    9.778 
#    0.000    1.111    0.000    0.000    0.000    0.000 
#    0.000    0.000    0.000    0.000    0.000    0.000 
#
# Total GULP energy -100621.771142 kJ/mol
# GULP energy per Si atom -5590.098397 kJ/mol
# Density = 2.425473 g / cm^3
# Si number density = 24.310063 Si / 1000 Ang^3
#
#
#
# Elastic Constant Matrix: (Units=GPa)
#
#
# Indices 1 2 3 4 5 6 
#
# 1 69.9419 47.7509 45.2466 0.0000 -4.0091 0.0000
# 2 47.7509 205.3456 79.2570 0.0000 1.5668 0.0000
# 3 45.2466 79.2570 169.6426 0.0000 2.5720 0.0000
# 4 0.0000 0.0000 0.0000 37.8081 0.0000 3.4887
# 5 -4.0091 1.5668 2.5720 0.0000 36.5891 0.0000
# 6 0.0000 0.0000 0.0000 3.4887 0.0000 51.7031
#
#
#
# Elastic Compliance Matrix: (Units=1/GPa)
#
#
# Indices 1 2 3 4 5 6 
#
# 1 0.018851 -0.002986 -0.003670 0.000000 0.002451 0.000000
# 2 -0.002986 0.006414 -0.002194 0.000000 -0.000448 0.000000
# 3 -0.003670 -0.002194 0.007912 0.000000 -0.000864 0.000000
# 4 0.000000 0.000000 0.000000 0.026615 0.000000 -0.001796
# 5 0.002451 -0.000448 -0.000864 0.000000 0.027679 0.000000
# 6 0.000000 0.000000 0.000000 -0.001796 0.000000 0.019462
#
#
# Mechanical properties :
#
#
# Convention : Reuss Voigt Hill
#
# Bulk Modulus (GPa) = 64.60875 87.71545 76.16210
# Shear Modulus (GPa) = 38.52347 43.39843 40.96095
#
# Velocity S-wave (km/s) = 3.98511 4.22975 4.10925
# Velocity P-wave (km/s) = 6.91444 7.74691 7.34248
#
# Compressibility (1/GPa) = 0.01547778
#
# Stress axis : x y z
#
# Youngs Moduli (GPa) = 53.04836 155.90399 126.39729
#
# Poissons Ratio (x) = 0.46548 0.46389
# Poissons Ratio (y) = 0.15839 0.27726
# Poissons Ratio (z) = 0.19469 0.34199
#
# Static dielectric constant tensor:
#      x y z
#    x 2.087170 0.000000 0.041040 
#    y 0.000000 1.938630 0.000000 
#    z 0.041040 0.000000 1.939870 
# 
# From -- ./inp_files/117854.got.cif
#   From: 2010.05.17/outbox.cif.g08.bks.cpg/sg15_59_cif.got.tgz:117854.got - 2010.06.03 18:47:42.
