data_PCOD9306961
_publ_section_title
;
Structure prediction by ZEFSAII (Michael W. Deem and Ramdas Pophale) SiO2 
 PCOD9306961
Probable space group: C 2/C
;
_chemical_formula_sum "Si O2"
_cell_formula_units_Z 36
_cell_length_a 13.543107
_cell_length_b 25.410753
_cell_length_c 8.478064
_cell_angle_alpha 90.000000
_cell_angle_beta 40.952267
_cell_angle_gamma 90.000000
_cell_volume 1912.312602
_symmetry_space_group_name_H-M "C 2/C"
_symmetry_group_IT_number 15
_symmetry_cell_setting 'monoclinic'
loop_
_space_group_symop_operation_xyz
x,y,z
-x,y,1/2-z
-x,-y,-z
x,-y,1/2+z
1/2+x,1/2+y,z
1/2-x,1/2+y,1/2-z
1/2-x,1/2-y,-z
1/2+x,1/2-y,1/2+z
loop_
_atom_site_type_symbol
_atom_site_label
_atom_site_fract_x
_atom_site_fract_y
_atom_site_fract_z
Si Si1 0.151678 0.533599 0.852360
Si Si2 0.360540 0.540176 0.314777
Si Si3 0.264807 0.311563 0.507971
Si Si4 0.000000 0.380156 0.750000
Si Si5 0.512727 0.629032 0.564396
O O1 0.229673 0.553006 0.598243
O O2 0.277208 0.499247 0.794425
O O3 0.098811 0.581431 0.023701
O O4 0.000000 0.500000 0.000000
O O5 0.500000 0.518722 0.250000
O O6 0.431011 0.589845 0.136042
O O7 0.250000 0.250000 0.500000
O O8 0.365203 0.326348 0.538662
O O9 0.355559 0.339310 0.252076
O O10 0.109370 0.342010 0.713705
O O11 0.500000 0.599165 0.750000
#
# Coordination Sequence:
#
# PCOD9306961 Si02
#       5
#     8   8   8   4   8
#     4  12  25  40  60  90 131 170 216 265 318 385
#     4  12  24  40  61  89 130 175 215 259 317 389
#     4   9  19  37  67  90 115 156 216 266 312 379
#     4  12  20  38  60  90 120 164 210 256 328 374
#     4   8  21  39  61  90 123 158 214 251 321 379
#
# _framework density 18.825372999999999
#
# number of rings (size 3 to 8) (size 9 to 14) (size 15 to 20)
#    1.333    0.000    2.222    4.667    0.000    0.889 
#    0.000    0.000    0.000   14.667    0.000    0.000 
#    0.000    0.000    0.000    0.000    0.000    0.000 
#
# Total GULP energy -100240.365103 kJ/mol
# GULP energy per Si atom -5568.909172 kJ/mol
# Density = 1.878253 g / cm^3
# Si number density = 18.825373 Si / 1000 Ang^3
#
#
#
# Elastic Constant Matrix: (Units=GPa)
#
#
# Indices 1 2 3 4 5 6 
#
# 1 84.8698 45.2033 15.1546 0.0000 -18.6578 0.0000
# 2 45.2033 149.4083 57.8812 0.0000 -2.3675 0.0000
# 3 15.1546 57.8812 129.8224 0.0000 11.6712 0.0000
# 4 0.0000 0.0000 0.0000 4.2606 0.0000 3.8527
# 5 -18.6578 -2.3675 11.6712 0.0000 37.0702 0.0000
# 6 0.0000 0.0000 0.0000 3.8527 0.0000 17.2430
#
#
#
# Elastic Compliance Matrix: (Units=1/GPa)
#
#
# Indices 1 2 3 4 5 6 
#
# 1 0.016034 -0.004500 -0.000582 0.000000 0.007966 0.000000
# 2 -0.004500 0.009459 -0.003646 0.000000 -0.000513 0.000000
# 3 -0.000582 -0.003646 0.009719 0.000000 -0.003585 0.000000
# 4 0.000000 0.000000 0.000000 0.294137 0.000000 -0.065721
# 5 0.007966 -0.000513 -0.003585 0.000000 0.032081 0.000000
# 6 0.000000 0.000000 0.000000 -0.065721 0.000000 0.072679
#
#
# Mechanical properties :
#
#
# Convention : Reuss Voigt Hill
#
# Bulk Modulus (GPa) = 56.31465 66.73097 61.52281
# Shear Modulus (GPa) = 10.92939 28.10551 19.51745
#
# Velocity S-wave (km/s) = 2.41211 3.86807 3.22337
# Velocity P-wave (km/s) = 6.14303 7.44806 6.82680
#
# Compressibility (1/GPa) = 0.01775737
#
# Stress axis : x y z
#
# Youngs Moduli (GPa) = 62.36561 105.72296 102.89594
#
# Poissons Ratio (x) = 0.47571 0.05986
# Poissons Ratio (y) = 0.28062 0.37514
# Poissons Ratio (z) = 0.03628 0.38544
#
# Static dielectric constant tensor:
#      x y z
#    x 1.721900 0.000000 -0.010320 
#    y 0.000000 1.634080 0.000000 
#    z -0.010320 0.000000 1.669970 
# 
# From -- ./inp_files/41174.got.cif
#   From: 2010.05.17/outbox.cif.g08.bks.cpg/sg15_21_cif.got.tgz:41174.got - 2010.06.03 18:47:42.
