data_PCOD9306497
_publ_section_title
;
Structure prediction by ZEFSAII (Michael W. Deem and Ramdas Pophale) SiO2 
 PCOD9306497
Probable space group: C 2/C
;
_chemical_formula_sum "Si O2"
_cell_formula_units_Z 24
_cell_length_a 10.085239
_cell_length_b 10.560328
_cell_length_c 18.944262
_cell_angle_alpha 90.000000
_cell_angle_beta 154.311714
_cell_angle_gamma 90.000000
_cell_volume 874.591396
_symmetry_space_group_name_H-M "C 2/C"
_symmetry_group_IT_number 15
_symmetry_cell_setting 'monoclinic'
loop_
_space_group_symop_operation_xyz
x,y,z
-x,y,1/2-z
-x,-y,-z
x,-y,1/2+z
1/2+x,1/2+y,z
1/2-x,1/2+y,1/2-z
1/2-x,1/2-y,-z
1/2+x,1/2-y,1/2+z
loop_
_atom_site_type_symbol
_atom_site_label
_atom_site_fract_x
_atom_site_fract_y
_atom_site_fract_z
Si Si1 0.847332 0.244431 0.247150
Si Si2 0.371314 0.441129 0.510118
Si Si3 0.212780 0.607446 0.564673
O O1 0.000000 0.183070 0.250000
O O2 0.035643 0.375049 0.342853
O O3 0.919742 0.167717 0.353219
O O4 0.498668 0.225030 0.058462
O O5 0.500000 0.500000 0.500000
O O6 0.342071 0.544370 0.556457
O O7 0.500000 0.642746 0.750000
O O8 0.000000 0.500000 0.500000
#
# Coordination Sequence:
#
# PCOD9306497 Si02
#       3
#     8   8   8
#     4  11  25  49  82 119 168 220 279 344 424 508
#     4  11  26  48  84 123 165 217 288 353 415 505
#     4  12  23  50  83 116 172 231 272 347 428 497
#
# _framework density 27.441386000000001
#
# number of rings (size 3 to 8) (size 9 to 14) (size 15 to 20)
#    0.000    0.667    6.667    0.000    4.667    0.000 
#    0.000    6.667    7.333    0.000    0.000    0.000 
#    0.000    0.000    0.000    0.000    0.000    0.000 
#
# Total GULP energy -67322.616546 kJ/mol
# GULP energy per Si atom -5610.218046 kJ/mol
# Density = 2.737893 g / cm^3
# Si number density = 27.441386 Si / 1000 Ang^3
#
#
#
# Elastic Constant Matrix: (Units=GPa)
#
#
# Indices 1 2 3 4 5 6 
#
# 1 246.9274 83.3154 73.9002 0.0018 -16.1873 0.0012
# 2 83.3154 141.4802 94.8381 -0.0045 -9.9318 0.0011
# 3 73.9002 94.8381 288.1201 0.0081 -32.8620 0.0054
# 4 0.0018 -0.0045 0.0081 36.4868 0.0027 13.7243
# 5 -16.1873 -9.9318 -32.8620 0.0027 48.8610 0.0002
# 6 0.0012 0.0011 0.0054 13.7243 0.0002 54.5718
#
#
#
# Elastic Compliance Matrix: (Units=1/GPa)
#
#
# Indices 1 2 3 4 5 6 
#
# 1 0.005131 -0.002752 -0.000303 -0.000001 0.000936 0.000000
# 2 -0.002752 0.010547 -0.002843 0.000002 -0.000680 0.000000
# 3 -0.000303 -0.002843 0.004773 -0.000002 0.002532 0.000000
# 4 -0.000001 0.000002 -0.000002 0.030271 -0.000002 -0.007613
# 5 0.000936 -0.000680 0.002532 -0.000002 0.022341 0.000000
# 6 0.000000 0.000000 0.000000 -0.007613 0.000000 0.020239
#
#
# Mechanical properties :
#
#
# Convention : Reuss Voigt Hill
#
# Bulk Modulus (GPa) = 115.56416 131.18168 123.37292
# Shear Modulus (GPa) = 46.30322 56.28217 51.29269
#
# Velocity S-wave (km/s) = 4.11219 4.53371 4.32808
# Velocity P-wave (km/s) = 8.04682 8.67837 8.36856
#
# Compressibility (1/GPa) = 0.00865320
#
# Stress axis : x y z
#
# Youngs Moduli (GPa) = 194.91076 94.81217 209.50108
#
# Poissons Ratio (x) = 0.26096 0.06352
# Poissons Ratio (y) = 0.53646 0.59569
# Poissons Ratio (z) = 0.05909 0.26959
#
# Static dielectric constant tensor:
#      x y z
#    x 2.128590 0.000000 0.062160 
#    y 0.000000 2.192990 -0.000010 
#    z 0.062160 -0.000010 2.223060 
# 
# From -- ./inp_files/46836.got.cif
#   From: 2010.05.17/outbox.cif.g08.bks.cpg/sg15_24_cif.got.tgz:46836.got - 2010.06.03 18:47:42.
