data_PCOD9306125
_publ_section_title
;
Structure prediction by ZEFSAII (Michael W. Deem and Ramdas Pophale) SiO2 
 PCOD9306125
Probable space group: C 2/C
;
_chemical_formula_sum "Si O2"
_cell_formula_units_Z 56
_cell_length_a 8.287720
_cell_length_b 22.849444
_cell_length_c 13.434529
_cell_angle_alpha 90.000000
_cell_angle_beta 63.701650
_cell_angle_gamma 90.000000
_cell_volume 2280.778200
_symmetry_space_group_name_H-M "C 2/C"
_symmetry_group_IT_number 15
_symmetry_cell_setting 'monoclinic'
loop_
_space_group_symop_operation_xyz
x,y,z
-x,y,1/2-z
-x,-y,-z
x,-y,1/2+z
1/2+x,1/2+y,z
1/2-x,1/2+y,1/2-z
1/2-x,1/2-y,-z
1/2+x,1/2-y,1/2+z
loop_
_atom_site_type_symbol
_atom_site_label
_atom_site_fract_x
_atom_site_fract_y
_atom_site_fract_z
Si Si1 0.638897 0.318317 0.146878
Si Si2 0.829416 0.433637 0.619856
Si Si3 0.357348 0.707664 0.101036
Si Si4 0.361104 0.318317 0.853122
Si Si5 0.170583 0.566363 0.880144
Si Si6 0.642652 0.292336 0.398964
Si Si7 0.500000 0.137604 0.750000
Si Si8 0.500000 0.137604 0.250000
O O1 0.814791 0.277070 0.111577
O O2 0.682419 0.387185 0.124652
O O3 0.590762 0.309908 0.289783
O O4 0.594088 0.302593 0.035707
O O5 0.682419 0.387185 0.624651
O O6 0.763496 0.500000 0.648366
O O7 0.000000 0.433903 0.500000
O O8 0.902004 0.405480 0.700727
O O9 0.409238 0.690092 0.210216
O O10 0.156609 0.677166 0.158397
O O11 0.185211 0.277070 0.888423
O O12 0.405913 0.302593 0.964293
O O13 0.097995 0.594520 0.799272
O O14 0.843391 0.322834 0.341603
#
# Coordination Sequence:
#
# PCOD9306125 Si02
#       8
#     8   8   8   8   8   8   4   4
#     4  12  22  42  64  95 134 172 215 271 332 387
#     4  11  25  45  68  95 131 177 225 271 324 389
#     4  12  24  40  68 100 133 171 215 272 334 395
#     4  12  22  42  64  95 134 172 215 271 332 387
#     4  11  25  45  68  95 131 177 225 271 324 389
#     4  12  24  40  68 100 133 171 215 272 334 395
#     4  12  23  46  70  98 135 170 220 274 330 390
#     4  12  23  46  70  98 135 170 220 274 330 390
#
# _framework density 24.553023
#
# number of rings (size 3 to 8) (size 9 to 14) (size 15 to 20)
#    0.000    0.286    4.286    6.429    0.000    0.571 
#    0.000    0.000    0.000    6.000    0.000    0.000 
#    0.000    0.000    0.000    0.000    0.000    0.000 
#
# Total GULP energy -156497.247827 kJ/mol
# GULP energy per Si atom -5589.187422 kJ/mol
# Density = 2.449714 g / cm^3
# Si number density = 24.553023 Si / 1000 Ang^3
#
#
#
# Elastic Constant Matrix: (Units=GPa)
#
#
# Indices 1 2 3 4 5 6 
#
# 1 181.7105 98.6626 70.3161 0.0000 6.1830 0.0000
# 2 98.6626 209.4577 43.4488 0.0000 -20.7526 0.0000
# 3 70.3161 43.4488 189.8606 0.0000 -45.0493 0.0000
# 4 0.0000 0.0000 0.0000 36.4042 0.0000 0.2518
# 5 6.1830 -20.7526 -45.0493 0.0000 68.6684 0.0000
# 6 0.0000 0.0000 0.0000 0.2518 0.0000 43.3318
#
#
#
# Elastic Compliance Matrix: (Units=1/GPa)
#
#
# Indices 1 2 3 4 5 6 
#
# 1 0.009206 -0.004038 -0.003520 0.000000 -0.004358 0.000000
# 2 -0.004038 0.006831 0.000602 0.000000 0.002823 0.000000
# 3 -0.003520 0.000602 0.007759 0.000000 0.005589 0.000000
# 4 0.000000 0.000000 0.000000 0.027470 0.000000 -0.000160
# 5 -0.004358 0.002823 0.005589 0.000000 0.019475 0.000000
# 6 0.000000 0.000000 0.000000 -0.000160 0.000000 0.023079
#
#
# Mechanical properties :
#
#
# Convention : Reuss Voigt Hill
#
# Bulk Modulus (GPa) = 101.16364 111.76486 106.46425
# Shear Modulus (GPa) = 45.03437 54.25430 49.64434
#
# Velocity S-wave (km/s) = 4.28737 4.70582 4.50146
# Velocity P-wave (km/s) = 8.11173 8.66862 8.39480
#
# Compressibility (1/GPa) = 0.00988497
#
# Stress axis : x y z
#
# Youngs Moduli (GPa) = 108.62391 146.38801 128.88516
#
# Poissons Ratio (x) = 0.59114 0.45362
# Poissons Ratio (y) = 0.43864 -0.07761
# Poissons Ratio (z) = 0.38231 -0.08814
#
# Static dielectric constant tensor:
#      x y z
#    x 1.991700 0.000000 0.061580 
#    y 0.000000 1.821810 0.000000 
#    z 0.061580 0.000000 2.167530 
# 
# From -- ./inp_files/99388.got.cif
#   From: 2010.05.17/outbox.cif.g08.bks.cpg/sg15_50_cif.got.tgz:99388.got - 2010.06.03 18:47:42.
