data_PCOD9306202
_publ_section_title
;
Structure prediction by ZEFSAII (Michael W. Deem and Ramdas Pophale) SiO2 
 PCOD9306202
Probable space group: C 2/C
;
_chemical_formula_sum "Si O2"
_cell_formula_units_Z 48
_cell_length_a 11.392950
_cell_length_b 14.061083
_cell_length_c 11.739453
_cell_angle_alpha 90.000000
_cell_angle_beta 93.417486
_cell_angle_gamma 90.000000
_cell_volume 1877.283328
_symmetry_space_group_name_H-M "C 2/C"
_symmetry_group_IT_number 15
_symmetry_cell_setting 'monoclinic'
loop_
_space_group_symop_operation_xyz
x,y,z
-x,y,1/2-z
-x,-y,-z
x,-y,1/2+z
1/2+x,1/2+y,z
1/2-x,1/2+y,1/2-z
1/2-x,1/2-y,-z
1/2+x,1/2-y,1/2+z
loop_
_atom_site_type_symbol
_atom_site_label
_atom_site_fract_x
_atom_site_fract_y
_atom_site_fract_z
Si Si1 0.857443 0.867418 0.692788
Si Si2 0.044307 0.583230 0.984290
Si Si3 0.724443 0.968021 0.087437
Si Si4 0.077795 0.087714 0.059514
Si Si5 0.223663 0.341265 0.308996
Si Si6 0.024830 0.224547 0.617517
O O1 0.754159 0.923455 0.618876
O O2 0.883725 0.933826 0.800859
O O3 0.815734 0.764048 0.730010
O O4 0.963312 0.847697 0.613939
O O5 0.079649 0.478110 0.049100
O O6 0.023544 0.668800 0.063812
O O7 0.122578 0.610827 0.884085
O O8 0.730022 0.903272 0.196202
O O9 0.782250 0.941087 0.975257
O O10 0.000000 0.000000 0.000000
O O11 0.075249 0.166016 0.948862
O O12 0.345328 0.322686 0.380790
O O13 0.000000 0.233834 0.750000
#
# Coordination Sequence:
#
# PCOD9306202 Si02
#       6
#     8   8   8   8   8   8
#     4  11  25  47  75 108 150 199 244 310 379 446
#     4  12  29  47  76 108 153 198 255 307 378 448
#     4  12  26  46  74 112 149 194 253 310 369 449
#     4  11  25  45  75 108 144 186 256 304 368 437
#     4  12  26  49  75 104 158 200 245 304 387 448
#     4  12  25  49  78 109 147 198 244 313 379 447
#
# _framework density 25.568861999999999
#
# number of rings (size 3 to 8) (size 9 to 14) (size 15 to 20)
#    0.000    0.333    5.000    3.000    4.667    4.667 
#    0.000    0.000    0.000    0.000    0.000    0.000 
#    0.000    0.000    0.000    0.000    0.000    0.000 
#
# Total GULP energy -133709.383201 kJ/mol
# GULP energy per Si atom -5571.224300 kJ/mol
# Density = 2.551067 g / cm^3
# Si number density = 25.568862 Si / 1000 Ang^3
#
#
#
# Elastic Constant Matrix: (Units=GPa)
#
#
# Indices 1 2 3 4 5 6 
#
# 1 140.3042 41.4315 37.0362 0.0000 -0.4660 0.0000
# 2 41.4315 98.7693 53.3928 0.0000 -12.5236 0.0000
# 3 37.0362 53.3928 171.6467 0.0000 -25.9458 0.0000
# 4 0.0000 0.0000 0.0000 32.6126 0.0000 3.3487
# 5 -0.4660 -12.5236 -25.9458 0.0000 50.1495 0.0000
# 6 0.0000 0.0000 0.0000 3.3487 0.0000 44.9839
#
#
#
# Elastic Compliance Matrix: (Units=1/GPa)
#
#
# Indices 1 2 3 4 5 6 
#
# 1 0.008303 -0.003089 -0.001015 0.000000 -0.001219 0.000000
# 2 -0.003089 0.013384 -0.003250 0.000000 0.001632 0.000000
# 3 -0.001015 -0.003250 0.007520 0.000000 0.003070 0.000000
# 4 0.000000 0.000000 0.000000 0.030899 0.000000 -0.002300
# 5 -0.001219 0.001632 0.003070 0.000000 0.021925 0.000000
# 6 0.000000 0.000000 0.000000 -0.002300 0.000000 0.022401
#
#
# Mechanical properties :
#
#
# Convention : Reuss Voigt Hill
#
# Bulk Modulus (GPa) = 68.96910 74.93791 71.95351
# Shear Modulus (GPa) = 40.33091 44.13984 42.23538
#
# Velocity S-wave (km/s) = 3.97589 4.15940 4.06868
# Velocity P-wave (km/s) = 6.93609 7.24150 7.09044
#
# Compressibility (1/GPa) = 0.01449925
#
# Stress axis : x y z
#
# Youngs Moduli (GPa) = 120.43195 74.71459 132.98017
#
# Poissons Ratio (x) = 0.23079 0.13499
# Poissons Ratio (y) = 0.37201 0.43220
# Poissons Ratio (z) = 0.12225 0.24283
#
# Static dielectric constant tensor:
#      x y z
#    x 2.661410 0.000000 0.237490 
#    y 0.000000 2.126710 0.000000 
#    z 0.237490 0.000000 2.094350 
# 
# From -- ./inp_files/87264.got.cif
#   From: 2010.05.17/outbox.cif.g08.bks.cpg/sg15_44_cif.got.tgz:87264.got - 2010.06.03 18:47:42.
