data_PCOD9306437
_publ_section_title
;
Structure prediction by ZEFSAII (Michael W. Deem and Ramdas Pophale) SiO2 
 PCOD9306437
Probable space group: C 2/C
;
_chemical_formula_sum "Si O2"
_cell_formula_units_Z 48
_cell_length_a 13.712714
_cell_length_b 13.748399
_cell_length_c 28.668790
_cell_angle_alpha 90.000000
_cell_angle_beta 160.067962
_cell_angle_gamma 90.000000
_cell_volume 1842.547245
_symmetry_space_group_name_H-M "C 2/C"
_symmetry_group_IT_number 15
_symmetry_cell_setting 'monoclinic'
loop_
_space_group_symop_operation_xyz
x,y,z
-x,y,1/2-z
-x,-y,-z
x,-y,1/2+z
1/2+x,1/2+y,z
1/2-x,1/2+y,1/2-z
1/2-x,1/2-y,-z
1/2+x,1/2-y,1/2+z
loop_
_atom_site_type_symbol
_atom_site_label
_atom_site_fract_x
_atom_site_fract_y
_atom_site_fract_z
Si Si1 0.510170 0.425114 0.437691
Si Si2 0.450203 0.069859 0.934716
Si Si3 0.289215 0.101263 0.597536
Si Si4 0.685037 0.741077 0.697514
Si Si5 0.257306 0.726994 0.336793
Si Si6 0.597795 0.544888 0.201836
O O1 0.778926 0.490702 0.573520
O O2 0.307392 0.412509 0.391808
O O3 0.562636 0.317506 0.441046
O O4 0.373017 0.484283 0.332821
O O5 0.362983 0.177188 0.911253
O O6 0.208418 0.025823 0.792422
O O7 0.762225 0.073488 0.051324
O O8 0.500000 0.000000 0.000000
O O9 0.538803 0.177909 0.697026
O O10 0.014296 0.152238 0.450160
O O11 0.676501 0.735642 0.749405
O O12 0.733356 0.855173 0.711752
O O13 0.000000 0.682060 0.250000
#
# Coordination Sequence:
#
# PCOD9306437 Si02
#       6
#     8   8   8   8   8   8
#     4  11  26  43  75 115 146 199 268 323 385 471
#     4  12  27  47  75 111 156 208 267 322 398 471
#     4  11  25  48  76 107 155 207 265 323 400 480
#     4  12  25  50  77 106 151 214 258 315 406 484
#     4  12  25  44  71 107 152 198 259 329 390 458
#     4  12  26  49  79 113 157 209 260 334 392 482
#
# _framework density 26.050894
#
# number of rings (size 3 to 8) (size 9 to 14) (size 15 to 20)
#    0.000    0.333    5.000    3.500    2.333    5.333 
#    0.000    1.667    0.000    0.000    0.000    0.000 
#    0.000    0.000    0.000    0.000    0.000    0.000 
#
# Total GULP energy -134374.714535 kJ/mol
# GULP energy per Si atom -5598.946439 kJ/mol
# Density = 2.599160 g / cm^3
# Si number density = 26.050894 Si / 1000 Ang^3
#
#
#
# Elastic Constant Matrix: (Units=GPa)
#
#
# Indices 1 2 3 4 5 6 
#
# 1 108.1333 21.9714 14.7992 0.0119 -23.6368 -0.0080
# 2 21.9714 137.8534 -10.7349 0.0111 2.2889 -0.0060
# 3 14.7992 -10.7349 55.8702 0.0436 6.9843 -0.0218
# 4 0.0119 0.0111 0.0436 49.0518 -0.0018 -2.7088
# 5 -23.6368 2.2889 6.9843 -0.0018 44.8016 -0.0002
# 6 -0.0080 -0.0060 -0.0218 -2.7088 -0.0002 46.6926
#
#
#
# Elastic Compliance Matrix: (Units=1/GPa)
#
#
# Indices 1 2 3 4 5 6 
#
# 1 0.011894 -0.002363 -0.004492 0.000002 0.007096 0.000000
# 2 -0.002363 0.007850 0.002387 -0.000003 -0.002020 0.000002
# 3 -0.004492 0.002387 0.020253 -0.000017 -0.005649 0.000008
# 4 0.000002 -0.000003 -0.000017 0.020452 0.000005 0.001187
# 5 0.007096 -0.002020 -0.005649 0.000005 0.027048 -0.000001
# 6 0.000000 0.000002 0.000008 0.001187 -0.000001 0.021486
#
#
# Mechanical properties :
#
#
# Convention : Reuss Voigt Hill
#
# Bulk Modulus (GPa) = 32.19464 39.32536 35.76000
# Shear Modulus (GPa) = 38.97933 46.49728 42.73830
#
# Velocity S-wave (km/s) = 3.87237 4.22935 4.05479
# Velocity P-wave (km/s) = 5.69024 6.24325 5.97315
#
# Compressibility (1/GPa) = 0.03106107
#
# Stress axis : x y z
#
# Youngs Moduli (GPa) = 84.07681 127.38607 49.37489
#
# Poissons Ratio (x) = 0.30105 0.22178
# Poissons Ratio (y) = 0.19870 -0.11785
# Poissons Ratio (z) = 0.37764 -0.30405
#
# Static dielectric constant tensor:
#      x y z
#    x 2.063120 0.000010 0.033110 
#    y 0.000010 1.991280 -0.000030 
#    z 0.033110 -0.000030 2.141270 
# 
# From -- ./inp_files/314134.got.cif
#   From: 2010.05.17/outbox.cif.g08.bks.cpg/sg15_158_cif.got.tgz:314134.got - 2010.06.03 18:47:42.
