data_PCOD9306318
_publ_section_title
;
Structure prediction by ZEFSAII (Michael W. Deem and Ramdas Pophale) SiO2 
 PCOD9306318
Probable space group: C 2/C
;
_chemical_formula_sum "Si O2"
_cell_formula_units_Z 32
_cell_length_a 6.990504
_cell_length_b 18.651062
_cell_length_c 13.421496
_cell_angle_alpha 90.000000
_cell_angle_beta 135.358424
_cell_angle_gamma 90.000000
_cell_volume 1229.600721
_symmetry_space_group_name_H-M "C 2/C"
_symmetry_group_IT_number 15
_symmetry_cell_setting 'monoclinic'
loop_
_space_group_symop_operation_xyz
x,y,z
-x,y,1/2-z
-x,-y,-z
x,-y,1/2+z
1/2+x,1/2+y,z
1/2-x,1/2+y,1/2-z
1/2-x,1/2-y,-z
1/2+x,1/2-y,1/2+z
loop_
_atom_site_type_symbol
_atom_site_label
_atom_site_fract_x
_atom_site_fract_y
_atom_site_fract_z
Si Si1 0.300723 0.245377 0.401537
Si Si2 0.840114 0.106747 0.962514
Si Si3 0.829131 0.393090 0.787671
Si Si4 0.257542 0.051244 0.778338
O O1 0.250000 0.250000 0.500000
O O2 0.980239 0.105746 0.370966
O O3 0.440567 0.322271 0.438744
O O4 0.401113 0.173842 0.384734
O O5 0.520772 0.102840 0.875491
O O6 0.844599 0.048455 0.875085
O O7 0.500000 0.246789 0.750000
O O8 0.864491 0.471879 0.846295
O O9 0.000000 0.387540 0.750000
O O10 0.000000 0.071142 0.750000
#
# Coordination Sequence:
#
# PCOD9306318 Si02
#       4
#     8   8   8   8
#     4  12  25  50  78 111 162 211 262 334 394 467
#     4  11  25  49  76 114 162 200 276 326 388 485
#     4  12  27  49  79 117 162 213 264 329 401 478
#     4  11  25  46  78 116 159 213 259 332 403 468
#
# _framework density 26.024708
#
# number of rings (size 3 to 8) (size 9 to 14) (size 15 to 20)
#    0.000    0.500    7.500    1.500    0.000    5.000 
#    0.000    0.000    0.000    1.500    0.000    0.000 
#    0.000    0.000    0.000    0.000    0.000    0.000 
#
# Total GULP energy -89383.662305 kJ/mol
# GULP energy per Si atom -5586.478894 kJ/mol
# Density = 2.596547 g / cm^3
# Si number density = 26.024708 Si / 1000 Ang^3
#
#
#
# Elastic Constant Matrix: (Units=GPa)
#
#
# Indices 1 2 3 4 5 6 
#
# 1 148.3290 29.0911 46.2027 0.0000 -24.4423 0.0000
# 2 29.0911 186.1558 47.0495 0.0000 -11.0822 0.0000
# 3 46.2027 47.0495 149.5560 0.0000 2.2804 0.0000
# 4 0.0000 0.0000 0.0000 52.1906 0.0000 -13.9297
# 5 -24.4423 -11.0822 2.2804 0.0000 43.9368 0.0000
# 6 0.0000 0.0000 0.0000 -13.9297 0.0000 23.2524
#
#
#
# Elastic Compliance Matrix: (Units=1/GPa)
#
#
# Indices 1 2 3 4 5 6 
#
# 1 0.008383 -0.000389 -0.002539 0.000000 0.004697 0.000000
# 2 -0.000389 0.005964 -0.001777 0.000000 0.001380 0.000000
# 3 -0.002539 -0.001777 0.008065 0.000000 -0.002279 0.000000
# 4 0.000000 0.000000 0.000000 0.022807 0.000000 0.013663
# 5 0.004697 0.001380 -0.002279 0.000000 0.025839 0.000000
# 6 0.000000 0.000000 0.000000 0.013663 0.000000 0.051192
#
#
# Mechanical properties :
#
#
# Convention : Reuss Voigt Hill
#
# Bulk Modulus (GPa) = 76.91330 80.96973 78.94152
# Shear Modulus (GPa) = 36.76643 47.98912 42.37778
#
# Velocity S-wave (km/s) = 3.76274 4.29882 4.03968
# Velocity P-wave (km/s) = 6.96388 7.47128 7.22204
#
# Compressibility (1/GPa) = 0.01300165
#
# Stress axis : x y z
#
# Youngs Moduli (GPa) = 119.29017 167.67472 123.99680
#
# Poissons Ratio (x) = 0.06517 0.31484
# Poissons Ratio (y) = 0.04636 0.22037
# Poissons Ratio (z) = 0.30289 0.29799
#
# Static dielectric constant tensor:
#      x y z
#    x 2.085730 0.000000 -0.008750 
#    y 0.000000 2.257310 0.000000 
#    z -0.008750 0.000000 2.039470 
# 
# From -- ./inp_files/128286.got.cif
#   From: 2010.05.17/outbox.cif.g08.bks.cpg/sg15_65_cif.got.tgz:128286.got - 2010.06.03 18:47:42.
