data_PCOD9306979
_publ_section_title
;
Structure prediction by ZEFSAII (Michael W. Deem and Ramdas Pophale) SiO2 
 PCOD9306979
Probable space group: C 2/C
;
_chemical_formula_sum "Si O2"
_cell_formula_units_Z 52
_cell_length_a 27.565179
_cell_length_b 8.791592
_cell_length_c 13.131059
_cell_angle_alpha 90.000000
_cell_angle_beta 41.466564
_cell_angle_gamma 90.000000
_cell_volume 2107.201349
_symmetry_space_group_name_H-M "C 2/C"
_symmetry_group_IT_number 15
_symmetry_cell_setting 'monoclinic'
loop_
_space_group_symop_operation_xyz
x,y,z
-x,y,1/2-z
-x,-y,-z
x,-y,1/2+z
1/2+x,1/2+y,z
1/2-x,1/2+y,1/2-z
1/2-x,1/2-y,-z
1/2+x,1/2-y,1/2+z
loop_
_atom_site_type_symbol
_atom_site_label
_atom_site_fract_x
_atom_site_fract_y
_atom_site_fract_z
Si Si1 0.819028 0.293835 0.818447
Si Si2 0.913631 0.497993 0.312778
Si Si3 0.363047 0.482210 0.693962
Si Si4 0.094014 0.288649 0.486879
Si Si5 0.675435 0.293606 0.557137
Si Si6 0.500000 0.000000 0.500000
Si Si7 0.758557 0.478040 0.262643
O O1 0.868886 0.426113 0.788571
O O2 0.785670 0.365302 0.769217
O O3 0.874119 0.156500 0.707159
O O4 0.750000 0.250000 0.000000
O O5 0.921366 0.637615 0.378725
O O6 0.866784 0.353043 0.419435
O O7 0.986010 0.440884 0.142305
O O8 0.402032 0.391143 0.541262
O O9 0.369294 0.382301 0.785381
O O10 0.278421 0.495656 0.787763
O O11 0.174590 0.360496 0.341480
O O12 0.041221 0.354461 0.484178
O O13 0.750000 0.250000 0.500000
O O14 0.698314 0.407919 0.432641
#
# Coordination Sequence:
#
# PCOD9306979 Si02
#       7
#     8   8   8   8   8   4   8
#     4  12  22  38  65 102 149 187 226 297 375 437
#     4  12  26  45  73 101 141 193 253 299 362 435
#     4  12  24  39  64 105 149 183 232 299 372 430
#     4  12  26  44  70 105 140 191 244 299 360 441
#     4  12  20  41  64 101 148 184 234 303 361 432
#     4  12  24  52  74  94 138 200 254 292 346 438
#     4  12  23  38  66 106 147 187 231 298 378 433
#
# _framework density 24.67728
#
# number of rings (size 3 to 8) (size 9 to 14) (size 15 to 20)
#    0.000    0.000    7.692    4.154    2.154    0.000 
#    0.000    0.769    0.000    0.000    0.000    0.000 
#    0.000    0.000    0.000    0.000    0.000    0.000 
#
# Total GULP energy -144909.080102 kJ/mol
# GULP energy per Si atom -5573.426158 kJ/mol
# Density = 2.462111 g / cm^3
# Si number density = 24.677280 Si / 1000 Ang^3
#
#
#
# Elastic Constant Matrix: (Units=GPa)
#
#
# Indices 1 2 3 4 5 6 
#
# 1 46.9882 16.2295 2.2836 -0.0001 11.5119 0.0000
# 2 16.2295 121.7551 27.9687 -0.0004 6.4233 -0.0001
# 3 2.2836 27.9687 57.1187 0.0000 33.9330 0.0000
# 4 -0.0001 -0.0004 0.0000 30.8156 0.0000 8.4664
# 5 11.5119 6.4233 33.9330 0.0000 40.2683 0.0000
# 6 0.0000 -0.0001 0.0000 8.4664 0.0000 39.7674
#
#
#
# Elastic Compliance Matrix: (Units=1/GPa)
#
#
# Indices 1 2 3 4 5 6 
#
# 1 0.026469 -0.005211 0.011004 0.000000 -0.016008 0.000000
# 2 -0.005211 0.010745 -0.009852 0.000000 0.008078 0.000000
# 3 0.011004 -0.009852 0.045710 0.000000 -0.040092 0.000000
# 4 0.000000 0.000000 0.000000 0.034467 0.000000 -0.007338
# 5 -0.016008 0.008078 -0.040092 0.000000 0.061906 0.000000
# 6 0.000000 0.000000 0.000000 -0.007338 0.000000 0.026708
#
#
# Mechanical properties :
#
#
# Convention : Reuss Voigt Hill
#
# Bulk Modulus (GPa) = 13.36814 35.42504 24.39659
# Shear Modulus (GPa) = 20.91535 34.12894 27.52215
#
# Velocity S-wave (km/s) = 2.91444 3.72292 3.34321
# Velocity P-wave (km/s) = 4.09319 5.73295 4.98101
#
# Compressibility (1/GPa) = 0.07480475
#
# Stress axis : x y z
#
# Youngs Moduli (GPa) = 37.77987 93.06841 21.87727
#
# Poissons Ratio (x) = 0.48502 -0.24073
# Poissons Ratio (y) = 0.19689 0.21553
# Poissons Ratio (z) = -0.41572 0.91688
#
# Static dielectric constant tensor:
#      x y z
#    x 1.965740 0.000000 0.008460 
#    y 0.000000 2.009950 0.000000 
#    z 0.008460 0.000000 2.144800 
# 
# From -- ./inp_files/181047.got.cif
#   From: 2010.05.17/outbox.cif.g08.bks.cpg/sg15_91_cif.got.tgz:181047.got - 2010.06.03 18:47:42.
