data_PCOD9306898
_publ_section_title
;
Structure prediction by ZEFSAII (Michael W. Deem and Ramdas Pophale) SiO2 
 PCOD9306898
Probable space group: C 2/C
;
_chemical_formula_sum "Si O2"
_cell_formula_units_Z 36
_cell_length_a 12.343098
_cell_length_b 5.158304
_cell_length_c 24.166008
_cell_angle_alpha 90.000000
_cell_angle_beta 120.881889
_cell_angle_gamma 90.000000
_cell_volume 1320.499666
_symmetry_space_group_name_H-M "C 2/C"
_symmetry_group_IT_number 15
_symmetry_cell_setting 'monoclinic'
loop_
_space_group_symop_operation_xyz
x,y,z
-x,y,1/2-z
-x,-y,-z
x,-y,1/2+z
1/2+x,1/2+y,z
1/2-x,1/2+y,1/2-z
1/2-x,1/2-y,-z
1/2+x,1/2-y,1/2+z
loop_
_atom_site_type_symbol
_atom_site_label
_atom_site_fract_x
_atom_site_fract_y
_atom_site_fract_z
Si Si1 0.451706 0.219193 0.943199
Si Si2 0.500000 0.030745 0.250000
Si Si3 0.339067 0.459389 0.053313
Si Si4 0.569418 0.165921 0.158766
Si Si5 0.763787 0.384541 0.121367
O O1 0.438449 0.568325 0.033750
O O2 0.312748 0.348174 0.911489
O O3 0.452184 0.095676 0.881804
O O4 0.500000 0.000000 0.000000
O O5 0.593233 0.166889 0.230354
O O6 0.404060 0.891519 0.183482
O O7 0.227139 0.810151 0.929120
O O8 0.250000 0.250000 0.000000
O O9 0.437368 0.315739 0.118827
O O10 0.678914 0.283465 0.149910
#
# Coordination Sequence:
#
# PCOD9306898 Si02
#       5
#     8   4   8   8   8
#     4  11  28  55  83 132 176 223 292 364 444 522
#     4  12  28  54  84 118 172 230 302 346 438 538
#     4  11  28  55  85 126 175 226 289 359 446 522
#     4  11  29  49  82 125 165 226 280 363 432 516
#     4  11  29  53  87 125 173 234 290 363 447 525
#
# _framework density 27.262405000000001
#
# number of rings (size 3 to 8) (size 9 to 14) (size 15 to 20)
#    0.000    0.889    2.222    0.000    9.333   10.667 
#    0.000    0.000    0.000    0.000    0.000    0.000 
#    0.000    0.000    0.000    0.000    0.000    0.000 
#
# Total GULP energy -100700.271444 kJ/mol
# GULP energy per Si atom -5594.459525 kJ/mol
# Density = 2.720035 g / cm^3
# Si number density = 27.262405 Si / 1000 Ang^3
#
#
#
# Elastic Constant Matrix: (Units=GPa)
#
#
# Indices 1 2 3 4 5 6 
#
# 1 195.8191 65.3595 71.8601 0.0000 -18.1194 0.0000
# 2 65.3595 125.4242 50.9879 0.0000 10.2996 0.0000
# 3 71.8601 50.9879 169.6544 0.0000 -30.4232 0.0000
# 4 0.0000 0.0000 0.0000 34.7814 0.0000 -6.4495
# 5 -18.1194 10.2996 -30.4232 0.0000 79.1151 0.0000
# 6 0.0000 0.0000 0.0000 -6.4495 0.0000 72.0872
#
#
#
# Elastic Compliance Matrix: (Units=1/GPa)
#
#
# Indices 1 2 3 4 5 6 
#
# 1 0.006868 -0.002954 -0.001794 0.000000 0.001268 0.000000
# 2 -0.002954 0.010797 -0.002542 0.000000 -0.003060 0.000000
# 3 -0.001794 -0.002542 0.007952 0.000000 0.002978 0.000000
# 4 0.000000 0.000000 0.000000 0.029236 0.000000 0.002616
# 5 0.001268 -0.003060 0.002978 0.000000 0.014474 0.000000
# 6 0.000000 0.000000 0.000000 0.002616 0.000000 0.014106
#
#
# Mechanical properties :
#
#
# Convention : Reuss Voigt Hill
#
# Bulk Modulus (GPa) = 90.60531 96.36806 93.48668
# Shear Modulus (GPa) = 49.16722 57.37610 53.27166
#
# Velocity S-wave (km/s) = 4.25135 4.59255 4.42524
# Velocity P-wave (km/s) = 7.57663 7.97165 7.77665
#
# Compressibility (1/GPa) = 0.01103688
#
# Stress axis : x y z
#
# Youngs Moduli (GPa) = 145.59454 92.61755 125.74754
#
# Poissons Ratio (x) = 0.27358 0.22561
# Poissons Ratio (y) = 0.43007 0.31971
# Poissons Ratio (z) = 0.26122 0.23548
#
# Static dielectric constant tensor:
#      x y z
#    x 2.286770 0.000000 0.021210 
#    y 0.000000 2.389490 0.000000 
#    z 0.021210 0.000000 2.131070 
# 
# From -- ./inp_files/195283.got.cif
#   From: 2010.05.17/outbox.cif.g08.bks.cpg/sg15_98_cif.got.tgz:195283.got - 2010.06.03 18:47:42.
