data_PCOD9306915
_publ_section_title
;
Structure prediction by ZEFSAII (Michael W. Deem and Ramdas Pophale) SiO2 
 PCOD9306915
Probable space group: C 2/C
;
_chemical_formula_sum "Si O2"
_cell_formula_units_Z 44
_cell_length_a 11.305694
_cell_length_b 26.037155
_cell_length_c 9.055795
_cell_angle_alpha 90.000000
_cell_angle_beta 127.020989
_cell_angle_gamma 90.000000
_cell_volume 2128.364580
_symmetry_space_group_name_H-M "C 2/C"
_symmetry_group_IT_number 15
_symmetry_cell_setting 'monoclinic'
loop_
_space_group_symop_operation_xyz
x,y,z
-x,y,1/2-z
-x,-y,-z
x,-y,1/2+z
1/2+x,1/2+y,z
1/2-x,1/2+y,1/2-z
1/2-x,1/2-y,-z
1/2+x,1/2-y,1/2+z
loop_
_atom_site_type_symbol
_atom_site_label
_atom_site_fract_x
_atom_site_fract_y
_atom_site_fract_z
Si Si1 0.000000 0.874583 0.750000
Si Si2 0.510243 0.309281 0.489101
Si Si3 0.786194 0.728022 0.692157
Si Si4 0.500000 0.390385 0.250000
Si Si5 0.721250 0.062248 0.051683
Si Si6 0.000000 0.361978 0.250000
Si Si7 0.842759 0.026080 0.830067
O O1 0.940677 0.841055 0.573128
O O2 0.865362 0.906497 0.712652
O O3 0.363234 0.280459 0.326008
O O4 0.621126 0.270137 0.648141
O O5 0.571206 0.350928 0.421058
O O6 0.750000 0.750000 0.500000
O O7 0.884132 0.676690 0.741763
O O8 0.610547 0.427775 0.244320
O O9 0.583640 0.100549 0.929273
O O10 0.764053 0.045399 0.918105
O O11 0.730710 0.012521 0.162369
O O12 0.000000 0.000000 0.000000
#
# Coordination Sequence:
#
# PCOD9306915 Si02
#       7
#     4   8   8   4   8   4   8
#     4  12  18  36  64  96 110 162 228 254 308 388
#     4  12  24  38  67  96 127 169 219 270 327 384
#     4  12  21  42  66  96 125 172 224 267 317 395
#     4  12  23  40  64  99 133 166 210 279 324 382
#     4  12  24  38  67  96 127 169 219 270 327 384
#     4  12  23  40  64  99 133 166 210 279 324 382
#     4  12  21  42  66  96 125 172 224 267 317 395
#
# _framework density 20.673148999999999
#
# number of rings (size 3 to 8) (size 9 to 14) (size 15 to 20)
#    0.000    0.000   10.909    0.000    0.000    1.455 
#    0.000    0.000    0.000    0.000    0.000    0.000 
#    0.000    0.000    0.000    0.000    0.000    0.000 
#
# Total GULP energy -122777.345152 kJ/mol
# GULP energy per Si atom -5580.788416 kJ/mol
# Density = 2.062610 g / cm^3
# Si number density = 20.673149 Si / 1000 Ang^3
#
#
#
# Elastic Constant Matrix: (Units=GPa)
#
#
# Indices 1 2 3 4 5 6 
#
# 1 34.5915 31.9937 28.6789 0.0000 0.5985 0.0000
# 2 31.9937 134.4117 74.2108 0.0000 5.6641 0.0000
# 3 28.6789 74.2108 94.0332 0.0000 9.2020 0.0000
# 4 0.0000 0.0000 0.0000 43.1194 0.0000 3.6360
# 5 0.5985 5.6641 9.2020 0.0000 36.1193 0.0000
# 6 0.0000 0.0000 0.0000 3.6360 0.0000 34.6421
#
#
#
# Elastic Compliance Matrix: (Units=1/GPa)
#
#
# Indices 1 2 3 4 5 6 
#
# 1 0.040692 -0.004973 -0.008713 0.000000 0.002325 0.000000
# 2 -0.004973 0.013805 -0.009409 0.000000 0.000315 0.000000
# 3 -0.008713 -0.009409 0.021085 0.000000 -0.003752 0.000000
# 4 0.000000 0.000000 0.000000 0.023398 0.000000 -0.002456
# 5 0.002325 0.000315 -0.003752 0.000000 0.028554 0.000000
# 6 0.000000 0.000000 0.000000 -0.002456 0.000000 0.029124
#
#
# Mechanical properties :
#
#
# Convention : Reuss Voigt Hill
#
# Bulk Modulus (GPa) = 34.02398 59.20035 46.61216
# Shear Modulus (GPa) = 23.51312 31.31970 27.41641
#
# Velocity S-wave (km/s) = 3.37616 3.89652 3.64563
# Velocity P-wave (km/s) = 5.62954 6.99588 6.34957
#
# Compressibility (1/GPa) = 0.02939104
#
# Stress axis : x y z
#
# Youngs Moduli (GPa) = 24.57474 72.43645 47.42747
#
# Poissons Ratio (x) = 0.36023 0.41326
# Poissons Ratio (y) = 0.12221 0.44625
# Poissons Ratio (z) = 0.21413 0.68156
#
# Static dielectric constant tensor:
#      x y z
#    x 1.503290 0.000000 0.011010 
#    y 0.000000 1.817410 0.000000 
#    z 0.011010 0.000000 1.780570 
# 
# From -- ./inp_files/34526.got.cif
#   From: 2010.05.17/outbox.cif.g08.bks.cpg/sg15_18_cif.got.tgz:34526.got - 2010.06.03 18:47:42.
