data_PCOD9306072
_publ_section_title
;
Structure prediction by ZEFSAII (Michael W. Deem and Ramdas Pophale) SiO2 
 PCOD9306072
Probable space group: C 2/C
;
_chemical_formula_sum "Si O2"
_cell_formula_units_Z 44
_cell_length_a 19.423489
_cell_length_b 13.835227
_cell_length_c 18.172706
_cell_angle_alpha 90.000000
_cell_angle_beta 22.481335
_cell_angle_gamma 90.000000
_cell_volume 1867.373013
_symmetry_space_group_name_H-M "C 2/C"
_symmetry_group_IT_number 15
_symmetry_cell_setting 'monoclinic'
loop_
_space_group_symop_operation_xyz
x,y,z
-x,y,1/2-z
-x,-y,-z
x,-y,1/2+z
1/2+x,1/2+y,z
1/2-x,1/2+y,1/2-z
1/2-x,1/2-y,-z
1/2+x,1/2-y,1/2+z
loop_
_atom_site_type_symbol
_atom_site_label
_atom_site_fract_x
_atom_site_fract_y
_atom_site_fract_z
Si Si1 0.430350 0.831283 0.395157
Si Si2 0.276099 0.318643 0.583879
Si Si3 0.500000 0.182903 0.250000
Si Si4 0.616211 0.479525 0.702823
Si Si5 0.123416 0.866241 0.308593
Si Si6 0.805113 0.138626 0.592922
O O1 0.500000 0.784206 0.250000
O O2 0.276413 0.906999 0.524868
O O3 0.152642 0.749202 0.468962
O O4 0.603887 0.878671 0.262308
O O5 0.391536 0.253782 0.412279
O O6 0.136107 0.373051 0.668962
O O7 0.175232 0.242535 0.735515
O O8 0.410349 0.376873 0.502833
O O9 0.500000 0.522133 0.750000
O O10 0.701441 0.561106 0.670895
O O11 0.464981 0.419320 0.895954
O O12 0.180453 0.882492 0.334964
#
# Coordination Sequence:
#
# PCOD9306072 Si02
#       6
#     8   8   4   8   8   8
#     4  12  24  46  77 108 137 188 246 292 358 426
#     4   9  19  38  62  90 135 184 232 272 347 415
#     4   8  16  32  58  86 116 180 228 270 306 406
#     4  12  27  46  71 106 144 184 239 306 349 418
#     4  11  25  44  66 106 144 185 232 291 366 425
#     4  12  24  46  74 102 144 185 235 293 367 427
#
# _framework density 23.562511000000001
#
# number of rings (size 3 to 8) (size 9 to 14) (size 15 to 20)
#    0.000    1.091    3.636    2.727    7.636    0.727 
#    8.182    0.000    0.000    0.000    0.000    0.000 
#    0.000    0.000    0.000    0.000    0.000    0.000 
#
# Total GULP energy -123050.482928 kJ/mol
# GULP energy per Si atom -5593.203769 kJ/mol
# Density = 2.350888 g / cm^3
# Si number density = 23.562511 Si / 1000 Ang^3
#
#
#
# Elastic Constant Matrix: (Units=GPa)
#
#
# Indices 1 2 3 4 5 6 
#
# 1 186.2030 14.9345 42.6097 0.0007 -7.0712 0.0103
# 2 14.9345 59.4686 10.2006 0.0032 -4.3462 0.0080
# 3 42.6097 10.2006 78.5955 0.0049 -21.0273 0.0127
# 4 0.0007 0.0032 0.0049 25.4026 -0.0019 14.4878
# 5 -7.0712 -4.3462 -21.0273 -0.0019 39.9540 -0.0066
# 6 0.0103 0.0080 0.0127 14.4878 -0.0066 -55.9948
#
#
#
# Elastic Compliance Matrix: (Units=1/GPa)
#
#
# Indices 1 2 3 4 5 6 
#
# 1 0.006212 -0.001028 -0.003457 0.000000 -0.000832 0.000000
# 2 -0.001028 0.017391 -0.001446 -0.000002 0.000949 0.000001
# 3 -0.003457 -0.001446 0.016969 -0.000003 0.008161 0.000001
# 4 0.000000 -0.000002 -0.000003 0.034304 0.000001 0.008876
# 5 -0.000832 0.000949 0.008161 0.000001 0.029280 -0.000001
# 6 0.000000 0.000001 0.000001 0.008876 -0.000001 -0.015562
#
#
# Mechanical properties :
#
#
# Convention : Reuss Voigt Hill
#
# Bulk Modulus (GPa) = 34.83075 51.08408 42.95742
# Shear Modulus (GPa) = 45.44368 18.97382 32.20875
#
# Velocity S-wave (km/s) = 4.39640 2.84078 3.70124
# Velocity P-wave (km/s) = 6.37067 5.69977 6.04453
#
# Compressibility (1/GPa) = 0.02871026
#
# Stress axis : x y z
#
# Youngs Moduli (GPa) = 160.96695 57.50060 58.93179
#
# Poissons Ratio (x) = 0.05911 0.20374
# Poissons Ratio (y) = 0.16547 0.08521
# Poissons Ratio (z) = 0.55648 0.08314
#
# Static dielectric constant tensor:
#      x y z
#    x 1.909520 0.000000 -0.010810 
#    y 0.000000 1.930520 0.000000 
#    z -0.010810 0.000000 1.924310 
# 
# From -- ./inp_files/211165.got.cif
#   From: 2010.05.17/outbox.cif.g08.bks.cpg/sg15_106_cif.got.tgz:211165.got - 2010.06.03 18:47:42.
