data_PCOD9306443
_publ_section_title
;
Structure prediction by ZEFSAII (Michael W. Deem and Ramdas Pophale) SiO2 
 PCOD9306443
Probable space group: C 2/C
;
_chemical_formula_sum "Si O2"
_cell_formula_units_Z 60
_cell_length_a 10.775508
_cell_length_b 14.885306
_cell_length_c 24.166435
_cell_angle_alpha 90.000000
_cell_angle_beta 144.294348
_cell_angle_gamma 90.000000
_cell_volume 2262.243014
_symmetry_space_group_name_H-M "C 2/C"
_symmetry_group_IT_number 15
_symmetry_cell_setting 'monoclinic'
loop_
_space_group_symop_operation_xyz
x,y,z
-x,y,1/2-z
-x,-y,-z
x,-y,1/2+z
1/2+x,1/2+y,z
1/2-x,1/2+y,1/2-z
1/2-x,1/2-y,-z
1/2+x,1/2-y,1/2+z
loop_
_atom_site_type_symbol
_atom_site_label
_atom_site_fract_x
_atom_site_fract_y
_atom_site_fract_z
Si Si1 0.732785 0.557927 0.785230
Si Si2 0.161869 0.347789 0.958702
Si Si3 0.542651 0.742039 0.343985
Si Si4 0.128698 0.273072 0.743349
Si Si5 0.696013 0.915925 0.594549
Si Si6 0.000000 0.391493 0.250000
Si Si7 0.285063 0.098382 0.532017
Si Si8 0.565803 0.476007 0.104727
O O1 0.651071 0.662329 0.757808
O O2 0.720974 0.499732 0.838281
O O3 0.991518 0.326164 0.849193
O O4 0.989479 0.554689 0.867275
O O5 0.033447 0.389398 0.963937
O O6 0.250000 0.250000 0.000000
O O7 0.374941 0.404934 0.027206
O O8 0.372368 0.698968 0.323076
O O9 0.659331 0.672212 0.347459
O O10 0.417375 0.817881 0.264061
O O11 0.701954 0.802993 0.437059
O O12 0.118262 0.016748 0.689740
O O13 0.000000 0.302435 0.750000
O O14 0.693129 0.917495 0.526554
O O15 0.208274 0.448390 0.339094
O O16 0.055165 0.060673 0.463867
#
# Coordination Sequence:
#
# PCOD9306443 Si02
#       8
#     8   8   8   8   8   4   8   8
#     4  11  25  48  76 121 160 205 287 343 421 478
#     4  12  25  46  79 125 161 222 284 336 438 497
#     4  11  25  50  77 120 164 221 272 342 434 500
#     4  11  26  48  80 116 168 220 277 353 413 504
#     4  12  27  47  85 117 167 216 283 354 418 514
#     4  12  24  52  80 108 166 222 270 346 420 508
#     4  11  26  49  76 121 165 211 279 353 424 507
#     4  12  26  48  81 115 163 223 276 346 415 515
#
# _framework density 26.522351
#
# number of rings (size 3 to 8) (size 9 to 14) (size 15 to 20)
#    0.000    0.533    5.333    2.400    5.600    3.733 
#    2.400    0.000    7.333    0.000    0.000    0.000 
#    0.000    0.000    0.000    0.000    0.000    0.000 
#
# Total GULP energy -167584.449323 kJ/mol
# GULP energy per Si atom -5586.148311 kJ/mol
# Density = 2.646198 g / cm^3
# Si number density = 26.522351 Si / 1000 Ang^3
#
#
#
# Elastic Constant Matrix: (Units=GPa)
#
#
# Indices 1 2 3 4 5 6 
#
# 1 131.8595 23.2702 27.0718 0.0000 23.9071 0.0000
# 2 23.2702 91.7505 69.5216 0.0000 -6.4421 0.0000
# 3 27.0718 69.5216 175.1365 -0.0001 21.7794 0.0000
# 4 0.0000 0.0000 -0.0001 55.1077 0.0000 -6.0827
# 5 23.9071 -6.4421 21.7794 0.0000 54.3282 0.0000
# 6 0.0000 0.0000 0.0000 -6.0827 0.0000 35.4899
#
#
#
# Elastic Compliance Matrix: (Units=1/GPa)
#
#
# Indices 1 2 3 4 5 6 
#
# 1 0.008791 -0.002726 0.000257 0.000000 -0.004295 0.000000
# 2 -0.002726 0.017584 -0.007333 0.000000 0.006224 0.000000
# 3 0.000257 -0.007333 0.009160 0.000000 -0.004655 0.000000
# 4 0.000000 0.000000 0.000000 0.018496 0.000000 0.003170
# 5 -0.004295 0.006224 -0.004655 0.000000 0.022901 0.000000
# 6 0.000000 0.000000 0.000000 0.003170 0.000000 0.028720
#
#
# Mechanical properties :
#
#
# Convention : Reuss Voigt Hill
#
# Bulk Modulus (GPa) = 62.76919 70.94152 66.85536
# Shear Modulus (GPa) = 38.29535 47.57738 42.93636
#
# Velocity S-wave (km/s) = 3.80398 4.23999 4.02789
# Velocity P-wave (km/s) = 6.55832 7.12572 6.84790
#
# Compressibility (1/GPa) = 0.01593138
#
# Stress axis : x y z
#
# Youngs Moduli (GPa) = 113.75571 56.87111 109.17524
#
# Poissons Ratio (x) = 0.15504 -0.02810
# Poissons Ratio (y) = 0.31012 0.80053
# Poissons Ratio (z) = -0.02928 0.41701
#
# Static dielectric constant tensor:
#      x y z
#    x 2.162710 0.000000 -0.099260 
#    y 0.000000 0.848490 0.000010 
#    z -0.099260 0.000010 2.146010 
# 
# From -- ./inp_files/311585.got.cif
#   From: 2010.05.17/outbox.cif.g08.bks.cpg/sg15_156_cif.got.tgz:311585.got - 2010.06.03 18:47:42.
