data_PCOD9306583
_publ_section_title
;
Structure prediction by ZEFSAII (Michael W. Deem and Ramdas Pophale) SiO2 
 PCOD9306583
Probable space group: C 2/C
;
_chemical_formula_sum "Si O2"
_cell_formula_units_Z 40
_cell_length_a 12.011425
_cell_length_b 14.059928
_cell_length_c 11.225961
_cell_angle_alpha 90.000000
_cell_angle_beta 101.039067
_cell_angle_gamma 90.000000
_cell_volume 1860.758755
_symmetry_space_group_name_H-M "C 2/C"
_symmetry_group_IT_number 15
_symmetry_cell_setting 'monoclinic'
loop_
_space_group_symop_operation_xyz
x,y,z
-x,y,1/2-z
-x,-y,-z
x,-y,1/2+z
1/2+x,1/2+y,z
1/2-x,1/2+y,1/2-z
1/2-x,1/2-y,-z
1/2+x,1/2-y,1/2+z
loop_
_atom_site_type_symbol
_atom_site_label
_atom_site_fract_x
_atom_site_fract_y
_atom_site_fract_z
Si Si1 0.728664 0.180675 0.883689
Si Si2 0.133639 0.055170 0.753460
Si Si3 0.728070 0.639854 0.008847
Si Si4 0.378321 0.656521 0.282801
Si Si5 0.569415 0.002109 0.888680
O O1 0.829788 0.112119 0.857760
O O2 0.695819 0.254047 0.771824
O O3 0.628754 0.105725 0.890828
O O4 0.750000 0.250000 0.000000
O O5 0.199035 0.100878 0.875325
O O6 0.000000 0.060302 0.750000
O O7 0.168563 0.944772 0.769261
O O8 0.750000 0.750000 0.000000
O O9 0.621357 0.637868 0.076573
O O10 0.833204 0.579142 0.082135
O O11 0.500000 0.671443 0.250000
O O12 0.500000 0.988513 0.750000
O O13 0.500000 0.000000 0.000000
#
# Coordination Sequence:
#
# PCOD9306583 Si02
#       5
#     8   8   8   8   8
#     4  12  26  46  74 108 149 191 249 304 369 450
#     4  11  26  47  72 107 145 193 242 304 375 439
#     4  12  26  46  73 105 148 186 248 308 364 450
#     4  11  26  45  72 101 143 189 243 295 373 432
#     4  12  29  50  78 109 153 201 252 313 381 444
#
# _framework density 21.496607999999998
#
# number of rings (size 3 to 8) (size 9 to 14) (size 15 to 20)
#    0.000    0.400    4.000    3.000    8.400    2.400 
#    0.000    0.000    0.000    0.000    0.000    0.000 
#    0.000    0.000    0.000    0.000    0.000    0.000 
#
# Total GULP energy -111702.172369 kJ/mol
# GULP energy per Si atom -5585.108618 kJ/mol
# Density = 2.144768 g / cm^3
# Si number density = 21.496608 Si / 1000 Ang^3
#
#
#
# Elastic Constant Matrix: (Units=GPa)
#
#
# Indices 1 2 3 4 5 6 
#
# 1 82.1935 47.7750 49.9564 0.0000 -9.3231 0.0000
# 2 47.7750 179.9344 33.8209 0.0000 4.4312 0.0000
# 3 49.9564 33.8209 121.2646 0.0000 -11.3103 0.0000
# 4 0.0000 0.0000 0.0000 99.4108 0.0000 94.0650
# 5 -9.3231 4.4312 -11.3103 0.0000 49.9889 0.0000
# 6 0.0000 0.0000 0.0000 94.0650 0.0000 202.7204
#
#
#
# Elastic Compliance Matrix: (Units=1/GPa)
#
#
# Indices 1 2 3 4 5 6 
#
# 1 0.018480 -0.003772 -0.006342 0.000000 0.002346 0.000000
# 2 -0.003772 0.006676 -0.000438 0.000000 -0.001394 0.000000
# 3 -0.006342 -0.000438 0.011109 0.000000 0.001369 0.000000
# 4 0.000000 0.000000 0.000000 0.017933 0.000000 -0.008321
# 5 0.002346 -0.001394 0.001369 0.000000 0.020875 0.000000
# 6 0.000000 0.000000 0.000000 -0.008321 0.000000 0.008794
#
#
# Mechanical properties :
#
#
# Convention : Reuss Voigt Hill
#
# Bulk Modulus (GPa) = 65.96290 71.83302 68.89796
# Shear Modulus (GPa) = 45.44423 87.21337 66.32880
#
# Velocity S-wave (km/s) = 4.60283 6.37643 5.56080
# Velocity P-wave (km/s) = 7.68114 9.36484 8.56447
#
# Compressibility (1/GPa) = 0.01516004
#
# Stress axis : x y z
#
# Youngs Moduli (GPa) = 54.11306 149.79391 90.01730
#
# Poissons Ratio (x) = 0.56508 0.57089
# Poissons Ratio (y) = 0.20413 0.03942
# Poissons Ratio (z) = 0.34319 0.06559
#
# Static dielectric constant tensor:
#      x y z
#    x 1.779170 0.000000 -0.016420 
#    y 0.000000 2.050250 0.000000 
#    z -0.016420 0.000000 1.958610 
# 
# From -- ./inp_files/85968.got.cif
#   From: 2010.05.17/outbox.cif.g08.bks.cpg/sg15_43_cif.got.tgz:85968.got - 2010.06.03 18:47:42.
