data_PCOD9306875
_publ_section_title
;
Structure prediction by ZEFSAII (Michael W. Deem and Ramdas Pophale) SiO2 
 PCOD9306875
Probable space group: C 2/C
;
_chemical_formula_sum "Si O2"
_cell_formula_units_Z 32
_cell_length_a 10.679095
_cell_length_b 9.466707
_cell_length_c 12.736809
_cell_angle_alpha 90.000000
_cell_angle_beta 102.060573
_cell_angle_gamma 90.000000
_cell_volume 1259.216976
_symmetry_space_group_name_H-M "C 2/C"
_symmetry_group_IT_number 15
_symmetry_cell_setting 'monoclinic'
loop_
_space_group_symop_operation_xyz
x,y,z
-x,y,1/2-z
-x,-y,-z
x,-y,1/2+z
1/2+x,1/2+y,z
1/2-x,1/2+y,1/2-z
1/2-x,1/2-y,-z
1/2+x,1/2-y,1/2+z
loop_
_atom_site_type_symbol
_atom_site_label
_atom_site_fract_x
_atom_site_fract_y
_atom_site_fract_z
Si Si1 0.539432 0.147166 0.106767
Si Si2 0.250000 0.750000 0.500000
Si Si3 0.207162 0.858942 0.260569
Si Si4 0.410698 0.145644 0.610568
Si Si5 0.000000 0.901603 0.750000
O O1 0.404590 0.219427 0.051909
O O2 0.615427 0.231704 0.207309
O O3 0.504464 0.988593 0.132089
O O4 0.628256 0.145931 0.017933
O O5 0.263239 0.818806 0.383277
O O6 0.302901 0.877411 0.179270
O O7 0.121690 0.999464 0.254016
O O8 0.473137 0.295458 0.649914
#
# Coordination Sequence:
#
# PCOD9306875 Si02
#       5
#     8   4   8   8   4
#     4  11  27  56  83 117 166 218 275 348 415 484
#     4  12  26  50  84 112 160 222 262 322 418 486
#     4  12  28  54  82 118 170 218 269 346 409 494
#     4  11  29  50  85 121 157 217 285 337 414 496
#     4  12  28  48  84 128 164 212 282 334 424 498
#
# _framework density 25.412617999999998
#
# number of rings (size 3 to 8) (size 9 to 14) (size 15 to 20)
#    0.000    0.500    2.500    2.250   10.500    7.000 
#    0.000    0.000    0.000    0.000    0.000    0.000 
#    0.000    0.000    0.000    0.000    0.000    0.000 
#
# Total GULP energy -89255.423599 kJ/mol
# GULP energy per Si atom -5578.463975 kJ/mol
# Density = 2.535478 g / cm^3
# Si number density = 25.412618 Si / 1000 Ang^3
#
#
#
# Elastic Constant Matrix: (Units=GPa)
#
#
# Indices 1 2 3 4 5 6 
#
# 1 193.0547 66.0926 76.5854 0.0000 -38.1985 0.0000
# 2 66.0926 157.5077 65.4234 0.0000 -8.7809 0.0000
# 3 76.5854 65.4234 190.0526 0.0000 -14.5501 0.0000
# 4 0.0000 0.0000 0.0000 26.6666 0.0000 4.8625
# 5 -38.1985 -8.7809 -14.5501 0.0000 57.6451 0.0000
# 6 0.0000 0.0000 0.0000 4.8625 0.0000 40.9358
#
#
#
# Elastic Compliance Matrix: (Units=1/GPa)
#
#
# Indices 1 2 3 4 5 6 
#
# 1 0.007506 -0.002093 -0.001986 0.000000 0.004154 0.000000
# 2 -0.002093 0.008006 -0.001963 0.000000 -0.000663 0.000000
# 3 -0.001986 -0.001963 0.006745 0.000000 0.000087 0.000000
# 4 0.000000 0.000000 0.000000 0.038330 0.000000 -0.004553
# 5 0.004154 -0.000663 0.000087 0.000000 0.020021 0.000000
# 6 0.000000 0.000000 0.000000 -0.004553 0.000000 0.024969
#
#
# Mechanical properties :
#
#
# Convention : Reuss Voigt Hill
#
# Bulk Modulus (GPa) = 98.31458 106.31308 102.31383
# Shear Modulus (GPa) = 41.30423 47.21707 44.26065
#
# Velocity S-wave (km/s) = 4.03593 4.31515 4.17787
# Velocity P-wave (km/s) = 7.77751 8.17025 7.97629
#
# Compressibility (1/GPa) = 0.01017143
#
# Stress axis : x y z
#
# Youngs Moduli (GPa) = 133.22082 124.91136 148.26753
#
# Poissons Ratio (x) = 0.26146 0.29450
# Poissons Ratio (y) = 0.27885 0.29107
# Poissons Ratio (z) = 0.26461 0.24522
#
# Static dielectric constant tensor:
#      x y z
#    x 2.132720 0.000000 0.021480 
#    y 0.000000 1.981840 0.000000 
#    z 0.021480 0.000000 1.991030 
# 
# From -- ./inp_files/122878.got.cif
#   From: 2010.05.17/outbox.cif.g08.bks.cpg/sg15_62_cif.got.tgz:122878.got - 2010.06.03 18:47:42.
