data_PCOD9306641
_publ_section_title
;
Structure prediction by ZEFSAII (Michael W. Deem and Ramdas Pophale) SiO2 
 PCOD9306641
Probable space group: C 2/C
;
_chemical_formula_sum "Si O2"
_cell_formula_units_Z 48
_cell_length_a 11.629988
_cell_length_b 9.665060
_cell_length_c 21.425696
_cell_angle_alpha 90.000000
_cell_angle_beta 68.230960
_cell_angle_gamma 90.000000
_cell_volume 2236.597459
_symmetry_space_group_name_H-M "C 2/C"
_symmetry_group_IT_number 15
_symmetry_cell_setting 'monoclinic'
loop_
_space_group_symop_operation_xyz
x,y,z
-x,y,1/2-z
-x,-y,-z
x,-y,1/2+z
1/2+x,1/2+y,z
1/2-x,1/2+y,1/2-z
1/2-x,1/2-y,-z
1/2+x,1/2-y,1/2+z
loop_
_atom_site_type_symbol
_atom_site_label
_atom_site_fract_x
_atom_site_fract_y
_atom_site_fract_z
Si Si1 0.428146 0.586082 0.568442
Si Si2 0.666856 0.948532 0.605029
Si Si3 0.061558 0.645402 0.004025
Si Si4 0.762430 0.309939 0.143662
Si Si5 0.481742 0.168491 0.681479
Si Si6 0.053466 0.022880 0.168689
O O1 0.500000 0.500000 0.500000
O O2 0.285087 0.545773 0.590984
O O3 0.461607 0.745033 0.548731
O O4 0.475986 0.546210 0.627996
O O5 0.662119 0.880000 0.537934
O O6 0.676054 0.823909 0.652889
O O7 0.544789 0.041094 0.634065
O O8 0.130332 0.705416 0.929784
O O9 0.000000 0.500000 0.000000
O O10 0.838118 0.315873 0.192358
O O11 0.685323 0.447122 0.144538
O O12 0.500000 0.140083 0.750000
O O13 0.550045 0.313988 0.654622
O O14 0.000000 0.006442 0.250000
#
# Coordination Sequence:
#
# PCOD9306641 Si02
#       6
#     8   8   8   8   8   8
#     4  12  24  45  73 102 141 183 230 288 352 407
#     4  12  25  43  71 100 138 181 229 286 345 410
#     4  12  25  44  67 107 137 178 231 283 348 414
#     4  12  24  47  70  97 143 177 227 291 342 415
#     4  11  27  45  67 104 135 181 236 282 343 411
#     4  11  26  47  70 102 139 185 233 286 351 413
#
# _framework density 21.461171
#
# number of rings (size 3 to 8) (size 9 to 14) (size 15 to 20)
#    0.000    0.333    6.667    1.500    4.667    1.333 
#    0.000    0.000    0.000    0.000    0.000    0.000 
#    0.000    0.000    0.000    0.000    0.000    0.000 
#
# Total GULP energy -134235.720021 kJ/mol
# GULP energy per Si atom -5593.155001 kJ/mol
# Density = 2.141232 g / cm^3
# Si number density = 21.461171 Si / 1000 Ang^3
#
#
#
# Elastic Constant Matrix: (Units=GPa)
#
#
# Indices 1 2 3 4 5 6 
#
# 1 104.6008 23.0571 8.8387 0.0000 35.0864 0.0000
# 2 23.0571 114.9796 7.5175 0.0000 5.2473 0.0000
# 3 8.8387 7.5175 45.2418 0.0000 28.7981 0.0000
# 4 0.0000 0.0000 0.0000 24.1619 0.0000 -0.4961
# 5 35.0864 5.2473 28.7981 0.0000 36.7890 0.0000
# 6 0.0000 0.0000 0.0000 -0.4961 0.0000 39.9128
#
#
#
# Elastic Compliance Matrix: (Units=1/GPa)
#
#
# Indices 1 2 3 4 5 6 
#
# 1 0.019220 -0.003524 0.016301 0.000000 -0.030588 0.000000
# 2 -0.003524 0.009440 -0.004310 0.000000 0.005388 0.000000
# 3 0.016301 -0.004310 0.058079 0.000000 -0.060395 0.000000
# 4 0.000000 0.000000 0.000000 0.041398 0.000000 0.000515
# 5 -0.030588 0.005388 -0.060395 0.000000 0.102863 0.000000
# 6 0.000000 0.000000 0.000000 0.000515 0.000000 0.025061
#
#
# Mechanical properties :
#
#
# Convention : Reuss Voigt Hill
#
# Bulk Modulus (GPa) = 9.64579 38.18321 23.91450
# Shear Modulus (GPa) = 18.26930 35.19998 26.73464
#
# Velocity S-wave (km/s) = 2.92082 4.05430 3.53331
# Velocity P-wave (km/s) = 3.98487 6.30451 5.27380
#
# Compressibility (1/GPa) = 0.10367217
#
# Stress axis : x y z
#
# Youngs Moduli (GPa) = 52.03026 105.93501 17.21798
#
# Poissons Ratio (x) = 0.37331 -0.28067
# Poissons Ratio (y) = 0.18335 0.07421
# Poissons Ratio (z) = -0.84814 0.45657
#
# Static dielectric constant tensor:
#      x y z
#    x 1.754120 0.000000 0.018670 
#    y 0.000000 1.774060 0.000000 
#    z 0.018670 0.000000 1.884680 
# 
# From -- ./inp_files/267999.got.cif
#   From: 2010.05.17/outbox.cif.g08.bks.cpg/sg15_134_cif.got.tgz:267999.got - 2010.06.03 18:47:42.
