data_PCOD9306106
_publ_section_title
;
Structure prediction by ZEFSAII (Michael W. Deem and Ramdas Pophale) SiO2 
 PCOD9306106
Probable space group: C 2/C
;
_chemical_formula_sum "Si O2"
_cell_formula_units_Z 52
_cell_length_a 22.636156
_cell_length_b 5.318182
_cell_length_c 20.637005
_cell_angle_alpha 90.000000
_cell_angle_beta 62.991445
_cell_angle_gamma 90.000000
_cell_volume 2213.402422
_symmetry_space_group_name_H-M "C 2/C"
_symmetry_group_IT_number 15
_symmetry_cell_setting 'monoclinic'
loop_
_space_group_symop_operation_xyz
x,y,z
-x,y,1/2-z
-x,-y,-z
x,-y,1/2+z
1/2+x,1/2+y,z
1/2-x,1/2+y,1/2-z
1/2-x,1/2-y,-z
1/2+x,1/2-y,1/2+z
loop_
_atom_site_type_symbol
_atom_site_label
_atom_site_fract_x
_atom_site_fract_y
_atom_site_fract_z
Si Si1 0.074174 0.578047 0.438971
Si Si2 0.151609 0.322514 0.498888
Si Si3 0.921062 0.093165 0.144825
Si Si4 0.553024 0.552546 0.621952
Si Si5 0.500000 0.061942 0.250000
Si Si6 0.127591 0.792333 0.698004
Si Si7 0.731333 0.053851 0.567141
O O1 0.127669 0.562455 0.470643
O O2 0.076687 0.842652 0.400265
O O3 0.000000 0.500000 0.500000
O O4 0.098771 0.344220 0.382708
O O5 0.087298 0.152134 0.540776
O O6 0.172298 0.405161 0.560601
O O7 0.211474 0.146692 0.445623
O O8 0.996907 0.142599 0.130155
O O9 0.877893 0.063124 0.231485
O O10 0.513739 0.764926 0.680982
O O11 0.606624 0.450381 0.645397
O O12 0.432790 0.908144 0.270687
O O13 0.199325 0.682704 0.645426
O O14 0.750000 0.250000 0.500000
#
# Coordination Sequence:
#
# PCOD9306106 Si02
#       7
#     8   8   8   8   4   8   8
#     4  12  28  44  74 106 154 195 241 302 375 469
#     4  11  26  44  69 107 143 193 254 303 381 440
#     4  12  26  44  69 112 146 200 234 305 386 454
#     4  12  22  37  70 107 146 179 236 314 377 440
#     4  12  20  38  62 106 150 176 222 316 386 434
#     4  12  24  38  71 105 147 189 245 315 382 447
#     4  11  25  44  74 102 139 191 253 322 360 443
#
# _framework density 23.493241999999999
#
# number of rings (size 3 to 8) (size 9 to 14) (size 15 to 20)
#    0.000    0.308    7.692    1.385    4.308    0.000 
#    0.000    0.000    3.385    0.000    0.000    0.000 
#    0.000    0.000    0.000    0.000    0.000    0.000 
#
# Total GULP energy -145451.734807 kJ/mol
# GULP energy per Si atom -5594.297493 kJ/mol
# Density = 2.343977 g / cm^3
# Si number density = 23.493242 Si / 1000 Ang^3
#
#
#
# Elastic Constant Matrix: (Units=GPa)
#
#
# Indices 1 2 3 4 5 6 
#
# 1 64.9211 15.7380 36.3015 0.0155 4.1547 0.0169
# 2 15.7380 86.7131 30.8448 -0.0552 4.1349 0.0830
# 3 36.3015 30.8448 108.1212 -0.0192 -8.4898 -0.0026
# 4 0.0155 -0.0552 -0.0192 39.6546 0.0079 -0.4970
# 5 4.1547 4.1349 -8.4898 0.0079 26.4572 0.0099
# 6 0.0169 0.0830 -0.0026 -0.4970 0.0099 43.1183
#
#
#
# Elastic Compliance Matrix: (Units=1/GPa)
#
#
# Indices 1 2 3 4 5 6 
#
# 1 0.019739 -0.000932 -0.006764 -0.000011 -0.005125 -0.000005
# 2 -0.000932 0.013159 -0.003684 0.000017 -0.003092 -0.000024
# 3 -0.006764 -0.003684 0.013028 0.000003 0.005818 0.000009
# 4 -0.000011 0.000017 0.000003 0.025221 -0.000008 0.000291
# 5 -0.005125 -0.003092 0.005818 -0.000008 0.040952 -0.000001
# 6 -0.000005 -0.000024 0.000009 0.000291 -0.000001 0.023195
#
#
# Mechanical properties :
#
#
# Convention : Reuss Voigt Hill
#
# Bulk Modulus (GPa) = 43.16616 47.28045 45.22330
# Shear Modulus (GPa) = 30.16093 33.63742 31.89917
#
# Velocity S-wave (km/s) = 3.58692 3.78801 3.68883
# Velocity P-wave (km/s) = 5.96393 6.26904 6.11838
#
# Compressibility (1/GPa) = 0.02316629
#
# Stress axis : x y z
#
# Youngs Moduli (GPa) = 50.66014 75.99143 76.75978
#
# Poissons Ratio (x) = 0.07084 0.51919
# Poissons Ratio (y) = 0.04723 0.28278
# Poissons Ratio (z) = 0.34266 0.27995
#
# Static dielectric constant tensor:
#      x y z
#    x 1.909860 0.000010 0.026250 
#    y 0.000010 2.005510 -0.000040 
#    z 0.026250 -0.000040 1.899950 
# 
# From -- ./inp_files/256714.got.cif
#   From: 2010.05.17/outbox.cif.g08.bks.cpg/sg15_129_cif.got.tgz:256714.got - 2010.06.03 18:47:42.
