data_PCOD9306014
_publ_section_title
;
Structure prediction by ZEFSAII (Michael W. Deem and Ramdas Pophale) SiO2 
 PCOD9306014
Probable space group: C 2/C
;
_chemical_formula_sum "Si O2"
_cell_formula_units_Z 48
_cell_length_a 5.357591
_cell_length_b 29.949257
_cell_length_c 14.837958
_cell_angle_alpha 90.000000
_cell_angle_beta 71.410439
_cell_angle_gamma 90.000000
_cell_volume 2256.620850
_symmetry_space_group_name_H-M "C 2/C"
_symmetry_group_IT_number 15
_symmetry_cell_setting 'monoclinic'
loop_
_space_group_symop_operation_xyz
x,y,z
-x,y,1/2-z
-x,-y,-z
x,-y,1/2+z
1/2+x,1/2+y,z
1/2-x,1/2+y,1/2-z
1/2-x,1/2-y,-z
1/2+x,1/2-y,1/2+z
loop_
_atom_site_type_symbol
_atom_site_label
_atom_site_fract_x
_atom_site_fract_y
_atom_site_fract_z
Si Si1 0.694713 0.758034 0.309689
Si Si2 0.500000 0.981754 0.750000
Si Si3 0.849937 0.667783 0.356054
Si Si4 0.000000 0.078834 0.250000
Si Si5 0.599658 0.615814 0.045885
Si Si6 0.288664 0.021773 0.956100
Si Si7 0.597466 0.796004 0.002116
O O1 0.500000 0.769346 0.250000
O O2 0.650874 0.705633 0.340609
O O3 0.642694 0.789230 0.401616
O O4 0.000000 0.761245 0.250000
O O5 0.246027 0.951644 0.753091
O O6 0.405404 0.011526 0.844661
O O7 0.710899 0.627800 0.426363
O O8 0.000000 0.651481 0.250000
O O9 0.013590 0.696224 0.409084
O O10 0.893830 0.107562 0.346607
O O11 0.728099 0.573156 0.985515
O O12 0.741453 0.659798 0.993963
O O13 0.500000 0.000000 0.000000
O O14 0.000000 0.000000 0.000000
O O15 0.750000 0.750000 0.000000
#
# Coordination Sequence:
#
# PCOD9306014 Si02
#       7
#     8   4   8   4   8   8   8
#     4  11  25  45  69  96 142 199 248 294 355 424
#     4  12  24  52  74 105 150 193 236 314 382 452
#     4  11  25  41  71 107 145 189 249 313 367 422
#     4  12  26  44  80 109 140 187 242 320 386 434
#     4  12  27  41  74 109 146 187 251 304 374 444
#     4  12  26  49  76 109 145 193 238 305 383 448
#     4  12  25  46  69 105 153 198 245 301 371 433
#
# _framework density 21.270741999999998
#
# number of rings (size 3 to 8) (size 9 to 14) (size 15 to 20)
#    0.000    0.333    5.000    3.500    9.333    0.000 
#    1.500    0.000    0.000    0.000    0.000    0.000 
#    0.000    0.000    0.000    0.000    0.000    0.000 
#
# Total GULP energy -134167.600295 kJ/mol
# GULP energy per Si atom -5590.316679 kJ/mol
# Density = 2.122233 g / cm^3
# Si number density = 21.270742 Si / 1000 Ang^3
#
#
#
# Elastic Constant Matrix: (Units=GPa)
#
#
# Indices 1 2 3 4 5 6 
#
# 1 132.1650 57.7136 53.1534 0.0000 -5.7696 0.0000
# 2 57.7136 161.7543 62.6537 0.0000 -19.6521 0.0000
# 3 53.1534 62.6537 134.1393 0.0000 -19.6927 0.0000
# 4 0.0000 0.0000 0.0000 49.7683 0.0000 -9.9937
# 5 -5.7696 -19.6521 -19.6927 0.0000 40.5860 0.0000
# 6 0.0000 0.0000 0.0000 -9.9937 0.0000 32.1505
#
#
#
# Elastic Compliance Matrix: (Units=1/GPa)
#
#
# Indices 1 2 3 4 5 6 
#
# 1 0.009770 -0.002522 -0.002873 0.000000 -0.001226 0.000000
# 2 -0.002522 0.008368 -0.002548 0.000000 0.002457 0.000000
# 3 -0.002873 -0.002548 0.010275 0.000000 0.003343 0.000000
# 4 0.000000 0.000000 0.000000 0.021431 0.000000 0.006662
# 5 -0.001226 0.002457 0.003343 0.000000 0.027276 0.000000
# 6 0.000000 0.000000 0.000000 0.006662 0.000000 0.033174
#
#
# Mechanical properties :
#
#
# Convention : Reuss Voigt Hill
#
# Bulk Modulus (GPa) = 79.84323 86.12222 82.98273
# Shear Modulus (GPa) = 38.35675 41.47016 39.91345
#
# Velocity S-wave (km/s) = 4.25109 4.42026 4.33650
# Velocity P-wave (km/s) = 7.85582 8.16260 8.01068
#
# Compressibility (1/GPa) = 0.01252454
#
# Stress axis : x y z
#
# Youngs Moduli (GPa) = 102.35843 119.50948 97.32733
#
# Poissons Ratio (x) = 0.30138 0.27966
# Poissons Ratio (y) = 0.25813 0.24803
# Poissons Ratio (z) = 0.29412 0.30456
#
# Static dielectric constant tensor:
#      x y z
#    x 1.877610 0.000000 -0.026340 
#    y 0.000000 1.769880 0.000000 
#    z -0.026340 0.000000 1.788460 
# 
# From -- ./inp_files/130334.got.cif
#   From: 2010.05.17/outbox.cif.g08.bks.cpg/sg15_66_cif.got.tgz:130334.got - 2010.06.03 18:47:42.
