data_PCOD9306557
_publ_section_title
;
Structure prediction by ZEFSAII (Michael W. Deem and Ramdas Pophale) SiO2 
 PCOD9306557
Probable space group: C 2/C
;
_chemical_formula_sum "Si O2"
_cell_formula_units_Z 40
_cell_length_a 19.942754
_cell_length_b 4.999770
_cell_length_c 16.979104
_cell_angle_alpha 90.000000
_cell_angle_beta 107.314519
_cell_angle_gamma 90.000000
_cell_volume 1616.256237
_symmetry_space_group_name_H-M "C 2/C"
_symmetry_group_IT_number 15
_symmetry_cell_setting 'monoclinic'
loop_
_space_group_symop_operation_xyz
x,y,z
-x,y,1/2-z
-x,-y,-z
x,-y,1/2+z
1/2+x,1/2+y,z
1/2-x,1/2+y,1/2-z
1/2-x,1/2-y,-z
1/2+x,1/2-y,1/2+z
loop_
_atom_site_type_symbol
_atom_site_label
_atom_site_fract_x
_atom_site_fract_y
_atom_site_fract_z
Si Si1 0.790650 0.244826 0.246760
Si Si2 0.763568 0.548287 0.573921
Si Si3 0.422880 0.003764 0.379264
Si Si4 0.000908 0.989955 0.846155
Si Si5 0.128570 0.227274 0.987716
O O1 0.724163 0.432955 0.246738
O O2 0.796734 0.295531 0.157002
O O3 0.854355 0.389198 0.311895
O O4 0.750000 0.750000 0.500000
O O5 0.820291 0.344612 0.560885
O O6 0.686453 0.424817 0.562536
O O7 0.482710 0.811774 0.364110
O O8 0.409499 0.937459 0.466845
O O9 0.443467 0.304967 0.363800
O O10 0.000000 0.018714 0.750000
O O11 0.071309 0.063657 0.918795
#
# Coordination Sequence:
#
# PCOD9306557 Si02
#       5
#     8   8   8   8   8
#     4  12  25  46  72 106 145 183 241 292 356 420
#     4  11  26  43  77 103 148 187 238 300 351 429
#     4  12  26  47  74 104 141 188 236 291 355 426
#     4  12  28  47  74 102 145 188 237 293 353 428
#     4  11  26  47  68 110 140 190 237 291 360 415
#
# _framework density 24.748550000000002
#
# number of rings (size 3 to 8) (size 9 to 14) (size 15 to 20)
#    0.000    0.400    2.000    5.400   11.200    0.000 
#    0.000    0.000    0.000    0.000    0.000    0.000 
#    0.000    0.000    0.000    0.000    0.000    0.000 
#
# Total GULP energy -111979.696619 kJ/mol
# GULP energy per Si atom -5598.984831 kJ/mol
# Density = 2.469222 g / cm^3
# Si number density = 24.748550 Si / 1000 Ang^3
#
#
#
# Elastic Constant Matrix: (Units=GPa)
#
#
# Indices 1 2 3 4 5 6 
#
# 1 86.0847 2.0879 20.5726 0.0000 8.5604 0.0000
# 2 2.0879 60.1460 -5.1224 -0.0001 -10.8175 0.0000
# 3 20.5726 -5.1224 134.7304 0.0000 -7.6736 0.0000
# 4 0.0000 -0.0001 0.0000 12.2178 0.0000 24.8274
# 5 8.5604 -10.8175 -7.6736 0.0000 35.4987 0.0000
# 6 0.0000 0.0000 0.0000 24.8274 0.0000 2.6297
#
#
#
# Elastic Compliance Matrix: (Units=1/GPa)
#
#
# Indices 1 2 3 4 5 6 
#
# 1 0.012561 -0.001325 -0.002191 0.000000 -0.003906 0.000000
# 2 -0.001325 0.017860 0.001225 0.000000 0.006027 0.000000
# 3 -0.002191 0.001225 0.007953 0.000000 0.002621 0.000000
# 4 0.000000 0.000000 0.000000 -0.004501 0.000000 0.042493
# 5 -0.003906 0.006027 0.002621 0.000000 0.031515 0.000000
# 6 0.000000 0.000000 0.000000 0.042493 0.000000 -0.020911
#
#
# Mechanical properties :
#
#
# Convention : Reuss Voigt Hill
#
# Bulk Modulus (GPa) = 29.59368 35.11526 32.35447
# Shear Modulus (GPa) = 82.88692 27.63077 55.25884
#
# Velocity S-wave (km/s) = 5.79347 3.34497 4.73039
# Velocity P-wave (km/s) = 7.53234 5.39797 6.55264
#
# Compressibility (1/GPa) = 0.03379100
#
# Stress axis : x y z
#
# Youngs Moduli (GPa) = 79.61391 55.98958 125.74550
#
# Poissons Ratio (x) = 0.07420 0.27548
# Poissons Ratio (y) = 0.10550 -0.15400
# Poissons Ratio (z) = 0.17442 -0.06857
#
# Static dielectric constant tensor:
#      x y z
#    x 1.907440 0.000000 0.007830 
#    y 0.000000 1.932790 0.000000 
#    z 0.007830 0.000000 1.944480 
# 
# From -- ./inp_files/208104.got.cif
#   From: 2010.05.17/outbox.cif.g08.bks.cpg/sg15_105_cif.got.tgz:208104.got - 2010.06.03 18:47:42.
