data_PCOD9306077
_publ_section_title
;
Structure prediction by ZEFSAII (Michael W. Deem and Ramdas Pophale) SiO2 
 PCOD9306077
Probable space group: C 2/C
;
_chemical_formula_sum "Si O2"
_cell_formula_units_Z 24
_cell_length_a 8.356910
_cell_length_b 8.755999
_cell_length_c 14.479087
_cell_angle_alpha 90.000000
_cell_angle_beta 83.587299
_cell_angle_gamma 90.000000
_cell_volume 1052.850649
_symmetry_space_group_name_H-M "C 2/C"
_symmetry_group_IT_number 15
_symmetry_cell_setting 'monoclinic'
loop_
_space_group_symop_operation_xyz
x,y,z
-x,y,1/2-z
-x,-y,-z
x,-y,1/2+z
1/2+x,1/2+y,z
1/2-x,1/2+y,1/2-z
1/2-x,1/2-y,-z
1/2+x,1/2-y,1/2+z
loop_
_atom_site_type_symbol
_atom_site_label
_atom_site_fract_x
_atom_site_fract_y
_atom_site_fract_z
Si Si1 0.349104 0.087256 0.627447
Si Si2 0.721237 0.085700 0.546560
Si Si3 0.667715 0.581840 0.293135
O O1 0.540222 0.084650 0.598421
O O2 0.297575 0.254152 0.664538
O O3 0.269219 0.036567 0.536547
O O4 0.298737 0.969121 0.709922
O O5 0.750000 0.250000 0.500000
O O6 0.835679 0.039908 0.623392
O O7 0.500000 0.589699 0.250000
#
# Coordination Sequence:
#
# PCOD9306077 Si02
#       3
#     8   8   8
#     4  11  25  44  69  98 136 177 223 275 331 398
#     4  11  25  47  70  98 135 178 225 274 332 397
#     4  12  25  43  68 100 135 175 222 277 336 395
#
# _framework density 22.795256999999999
#
# number of rings (size 3 to 8) (size 9 to 14) (size 15 to 20)
#    0.000    0.667    0.000    8.000    0.000   13.333 
#    0.000    1.667    0.000    0.000    0.000    0.000 
#    0.000    0.000    0.000    0.000    0.000    0.000 
#
# Total GULP energy -67282.421764 kJ/mol
# GULP energy per Si atom -5606.868480 kJ/mol
# Density = 2.274337 g / cm^3
# Si number density = 22.795257 Si / 1000 Ang^3
#
#
#
# Elastic Constant Matrix: (Units=GPa)
#
#
# Indices 1 2 3 4 5 6 
#
# 1 53.8119 32.6860 53.2105 0.0000 -13.2681 0.0000
# 2 32.6860 129.5147 86.4346 0.0000 -24.1869 0.0000
# 3 53.2105 86.4346 180.4459 0.0000 -11.7450 0.0000
# 4 0.0000 0.0000 0.0000 71.0361 0.0000 -1.3040
# 5 -13.2681 -24.1869 -11.7450 0.0000 40.1688 0.0000
# 6 0.0000 0.0000 0.0000 -1.3040 0.0000 17.4682
#
#
#
# Elastic Compliance Matrix: (Units=1/GPa)
#
#
# Indices 1 2 3 4 5 6 
#
# 1 0.028092 -0.000913 -0.007419 0.000000 0.006560 0.000000
# 2 -0.000913 0.012629 -0.005408 0.000000 0.005722 0.000000
# 3 -0.007419 -0.005408 0.010142 0.000000 -0.002742 0.000000
# 4 0.000000 0.000000 0.000000 0.014097 0.000000 0.001052
# 5 0.006560 0.005722 -0.002742 0.000000 0.029705 0.000000
# 6 0.000000 0.000000 0.000000 0.001052 0.000000 0.057325
#
#
# Mechanical properties :
#
#
# Convention : Reuss Voigt Hill
#
# Bulk Modulus (GPa) = 42.76800 78.71497 60.74148
# Shear Modulus (GPa) = 26.70023 38.49736 32.59880
#
# Velocity S-wave (km/s) = 3.42615 4.11400 3.78573
# Velocity P-wave (km/s) = 5.86974 7.56128 6.76856
#
# Compressibility (1/GPa) = 0.02338197
#
# Stress axis : x y z
#
# Youngs Moduli (GPa) = 35.59763 79.18250 98.60367
#
# Poissons Ratio (x) = 0.07229 0.73159
# Poissons Ratio (y) = 0.03250 0.53322
# Poissons Ratio (z) = 0.26412 0.42820
#
# Static dielectric constant tensor:
#      x y z
#    x 1.829220 0.000000 0.008630 
#    y 0.000000 1.828560 0.000000 
#    z 0.008630 0.000000 1.827030 
# 
# From -- ./inp_files/131184.got.cif
#   From: 2010.05.17/outbox.cif.g08.bks.cpg/sg15_66_cif.got.tgz:131184.got - 2010.06.03 18:47:42.
