data_PCOD9306876
_publ_section_title
;
Structure prediction by ZEFSAII (Michael W. Deem and Ramdas Pophale) SiO2 
 PCOD9306876
Probable space group: C 2/C
;
_chemical_formula_sum "Si O2"
_cell_formula_units_Z 44
_cell_length_a 11.625740
_cell_length_b 7.427927
_cell_length_c 17.852085
_cell_angle_alpha 90.000000
_cell_angle_beta 74.351918
_cell_angle_gamma 90.000000
_cell_volume 1484.481713
_symmetry_space_group_name_H-M "C 2/C"
_symmetry_group_IT_number 15
_symmetry_cell_setting 'monoclinic'
loop_
_space_group_symop_operation_xyz
x,y,z
-x,y,1/2-z
-x,-y,-z
x,-y,1/2+z
1/2+x,1/2+y,z
1/2-x,1/2+y,1/2-z
1/2-x,1/2-y,-z
1/2+x,1/2-y,1/2+z
loop_
_atom_site_type_symbol
_atom_site_label
_atom_site_fract_x
_atom_site_fract_y
_atom_site_fract_z
Si Si1 0.925358 0.409904 0.582906
Si Si2 0.727251 0.881576 0.140199
Si Si3 0.380819 0.673956 0.972264
Si Si4 0.758918 0.711617 0.694002
Si Si5 0.541383 0.323651 0.593078
Si Si6 0.500000 0.475060 0.250000
O O1 0.831229 0.245297 0.586678
O O2 0.952062 0.833771 0.538407
O O3 0.000000 0.500000 0.500000
O O4 0.032196 0.287122 0.597335
O O5 0.750371 0.090448 0.157055
O O6 0.706676 0.787767 0.224361
O O7 0.613337 0.851184 0.106726
O O8 0.363017 0.475289 0.945225
O O9 0.250000 0.750000 0.000000
O O10 0.850951 0.566056 0.639134
O O11 0.623650 0.634436 0.720318
O O12 0.485623 0.403947 0.678209
#
# Coordination Sequence:
#
# PCOD9306876 Si02
#       6
#     8   8   8   8   8   4
#     4  12  28  56  94 142 198 265 330 413 512 608
#     4  12  26  58  96 148 194 266 335 415 520 609
#     4  11  28  59  96 135 197 263 334 409 508 603
#     4  12  28  55  99 145 206 261 333 427 511 629
#     4  11  27  56  98 134 194 255 327 418 495 612
#     4  12  26  58  92 150 202 254 348 412 518 610
#
# _framework density 29.639973999999999
#
# number of rings (size 3 to 8) (size 9 to 14) (size 15 to 20)
#    0.000    0.364    3.636    2.182    0.000    8.000 
#   13.091    0.909   20.000    1.091    0.000    0.000 
#    0.000    0.000    0.000    0.000    0.000    0.000 
#
# Total GULP energy -123262.203758 kJ/mol
# GULP energy per Si atom -5602.827444 kJ/mol
# Density = 2.957251 g / cm^3
# Si number density = 29.639974 Si / 1000 Ang^3
#
#
#
# Elastic Constant Matrix: (Units=GPa)
#
#
# Indices 1 2 3 4 5 6 
#
# 1 241.2004 76.3041 103.0254 0.0000 -5.0394 0.0000
# 2 76.3041 255.9195 98.2615 0.0000 -18.2425 0.0000
# 3 103.0254 98.2615 188.6071 0.0000 -6.0161 0.0000
# 4 0.0000 0.0000 0.0000 69.5084 0.0000 -4.2713
# 5 -5.0394 -18.2425 -6.0161 0.0000 85.4123 0.0000
# 6 0.0000 0.0000 0.0000 -4.2713 0.0000 53.5299
#
#
#
# Elastic Compliance Matrix: (Units=1/GPa)
#
#
# Indices 1 2 3 4 5 6 
#
# 1 0.005482 -0.000606 -0.002679 0.000000 0.000005 0.000000
# 2 -0.000606 0.005016 -0.002255 0.000000 0.000877 0.000000
# 3 -0.002679 -0.002255 0.007937 0.000000 -0.000081 0.000000
# 4 0.000000 0.000000 0.000000 0.014458 0.000000 0.001154
# 5 0.000005 0.000877 -0.000081 0.000000 0.011890 0.000000
# 6 0.000000 0.000000 0.000000 0.001154 0.000000 0.018773
#
#
# Mechanical properties :
#
#
# Convention : Reuss Voigt Hill
#
# Bulk Modulus (GPa) = 135.91550 137.87879 136.89714
# Shear Modulus (GPa) = 64.86233 68.89918 66.88076
#
# Velocity S-wave (km/s) = 4.68304 4.82657 4.75535
# Velocity P-wave (km/s) = 8.67158 8.81362 8.74289
#
# Compressibility (1/GPa) = 0.00735751
#
# Stress axis : x y z
#
# Youngs Moduli (GPa) = 182.42194 199.35410 125.98676
#
# Poissons Ratio (x) = 0.12071 0.33749
# Poissons Ratio (y) = 0.11046 0.28405
# Poissons Ratio (z) = 0.48866 0.44947
#
# Static dielectric constant tensor:
#      x y z
#    x 2.280310 0.000000 -0.038140 
#    y 0.000000 2.496220 0.000000 
#    z -0.038140 0.000000 2.395430 
# 
# From -- ./inp_files/267362.got.cif
#   From: 2010.05.17/outbox.cif.g08.bks.cpg/sg15_134_cif.got.tgz:267362.got - 2010.06.03 18:47:42.
