data_PCOD9306146
_publ_section_title
;
Structure prediction by ZEFSAII (Michael W. Deem and Ramdas Pophale) SiO2 
 PCOD9306146
Probable space group: C 2/C
;
_chemical_formula_sum "Si O2"
_cell_formula_units_Z 32
_cell_length_a 8.702404
_cell_length_b 8.138000
_cell_length_c 19.287232
_cell_angle_alpha 90.000000
_cell_angle_beta 90.020446
_cell_angle_gamma 90.000000
_cell_volume 1365.924842
_symmetry_space_group_name_H-M "C 2/C"
_symmetry_group_IT_number 15
_symmetry_cell_setting 'monoclinic'
loop_
_space_group_symop_operation_xyz
x,y,z
-x,y,1/2-z
-x,-y,-z
x,-y,1/2+z
1/2+x,1/2+y,z
1/2-x,1/2+y,1/2-z
1/2-x,1/2-y,-z
1/2+x,1/2-y,1/2+z
loop_
_atom_site_type_symbol
_atom_site_label
_atom_site_fract_x
_atom_site_fract_y
_atom_site_fract_z
Si Si1 0.160914 0.390675 0.407413
Si Si2 0.664205 0.893031 0.158262
Si Si3 0.838181 0.028410 0.281732
Si Si4 0.162551 0.980500 0.962744
O O1 0.283440 0.423773 0.347144
O O2 0.161824 0.199228 0.427689
O O3 0.210793 0.485688 0.476601
O O4 0.995594 0.440033 0.377692
O O5 0.646854 0.714103 0.191724
O O6 0.714970 0.011784 0.220223
O O7 0.793107 0.895333 0.098238
O O8 0.000000 0.973271 0.250000
O O9 0.000000 0.000000 0.000000
#
# Coordination Sequence:
#
# PCOD9306146 Si02
#       4
#     8   8   8   8
#     4  11  25  45  71 102 135 178 226 277 340 403
#     4  12  25  45  69 100 137 179 227 278 338 401
#     4  12  26  45  69  99 139 180 226 281 334 400
#     4  11  25  47  72 101 138 177 223 282 340 401
#
# _framework density 23.427351000000002
#
# number of rings (size 3 to 8) (size 9 to 14) (size 15 to 20)
#    0.000    0.500    0.000    9.000    0.000   12.000 
#    0.000    3.750    0.000    0.000    0.000    0.000 
#    0.000    0.000    0.000    0.000    0.000    0.000 
#
# Total GULP energy -89731.875368 kJ/mol
# GULP energy per Si atom -5608.242210 kJ/mol
# Density = 2.337403 g / cm^3
# Si number density = 23.427351 Si / 1000 Ang^3
#
#
#
# Elastic Constant Matrix: (Units=GPa)
#
#
# Indices 1 2 3 4 5 6 
#
# 1 97.3457 7.0365 59.0016 0.0000 -0.7540 0.0000
# 2 7.0365 23.9588 28.5200 0.0000 -8.8154 0.0000
# 3 59.0016 28.5200 173.8658 0.0000 -3.3605 0.0000
# 4 0.0000 0.0000 0.0000 57.7895 0.0000 -12.1043
# 5 -0.7540 -8.8154 -3.3605 0.0000 73.8714 0.0000
# 6 0.0000 0.0000 0.0000 -12.1043 0.0000 21.0933
#
#
#
# Elastic Compliance Matrix: (Units=1/GPa)
#
#
# Indices 1 2 3 4 5 6 
#
# 1 0.012995 0.001840 -0.004709 0.000000 0.000138 0.000000
# 2 0.001840 0.054741 -0.009485 0.000000 0.006120 0.000000
# 3 -0.004709 -0.009485 0.008890 0.000000 -0.000776 0.000000
# 4 0.000000 0.000000 0.000000 0.019668 0.000000 0.011286
# 5 0.000138 0.006120 -0.000776 0.000000 0.014233 0.000000
# 6 0.000000 0.000000 0.000000 0.011286 0.000000 0.053885
#
#
# Mechanical properties :
#
#
# Convention : Reuss Voigt Hill
#
# Bulk Modulus (GPa) = 19.26153 53.80961 36.53557
# Shear Modulus (GPa) = 24.22152 43.92499 34.07325
#
# Velocity S-wave (km/s) = 3.21892 4.33476 3.81783
# Velocity P-wave (km/s) = 4.69627 6.93341 5.92145
#
# Compressibility (1/GPa) = 0.05191696
#
# Stress axis : x y z
#
# Youngs Moduli (GPa) = 76.95353 18.26787 112.47962
#
# Poissons Ratio (x) = -0.03361 0.52966
# Poissons Ratio (y) = -0.14157 1.06692
# Poissons Ratio (z) = 0.36237 0.17328
#
# Static dielectric constant tensor:
#      x y z
#    x 1.883770 0.000000 0.011480 
#    y 0.000000 1.859080 0.000000 
#    z 0.011480 0.000000 1.848660 
# 
# From -- ./inp_files/229212.got.cif
#   From: 2010.05.17/outbox.cif.g08.bks.cpg/sg15_115_cif.got.tgz:229212.got - 2010.06.03 18:47:42.
