data_PCOD9306524
_publ_section_title
;
Structure prediction by ZEFSAII (Michael W. Deem and Ramdas Pophale) SiO2 
 PCOD9306524
Probable space group: C 2/C
;
_chemical_formula_sum "Si O2"
_cell_formula_units_Z 40
_cell_length_a 11.666642
_cell_length_b 14.103775
_cell_length_c 11.958077
_cell_angle_alpha 90.000000
_cell_angle_beta 44.940229
_cell_angle_gamma 90.000000
_cell_volume 1389.869616
_symmetry_space_group_name_H-M "C 2/C"
_symmetry_group_IT_number 15
_symmetry_cell_setting 'monoclinic'
loop_
_space_group_symop_operation_xyz
x,y,z
-x,y,1/2-z
-x,-y,-z
x,-y,1/2+z
1/2+x,1/2+y,z
1/2-x,1/2+y,1/2-z
1/2-x,1/2-y,-z
1/2+x,1/2-y,1/2+z
loop_
_atom_site_type_symbol
_atom_site_label
_atom_site_fract_x
_atom_site_fract_y
_atom_site_fract_z
Si Si1 0.838272 0.051446 0.794001
Si Si2 0.186913 0.633343 0.109130
Si Si3 0.238341 0.415851 0.146157
Si Si4 0.753826 0.649009 0.109730
Si Si5 0.575575 0.243717 0.900220
O O1 0.747557 0.123811 0.939091
O O2 0.000000 0.025152 0.750000
O O3 0.884883 0.078512 0.635134
O O4 0.726523 0.958851 0.864298
O O5 0.192984 0.523486 0.146485
O O6 0.311488 0.700371 0.089496
O O7 0.000000 0.665849 0.250000
O O8 0.245723 0.359925 0.024488
O O9 0.119977 0.357815 0.310453
O O10 0.905562 0.813951 0.718246
O O11 0.893428 0.718221 0.061073
#
# Coordination Sequence:
#
# PCOD9306524 Si02
#       5
#     8   8   8   8   8
#     4  11  27  51  85 118 163 221 278 341 417 490
#     4  11  27  51  82 120 166 218 273 340 421 494
#     4  11  25  50  84 113 164 211 281 337 410 487
#     4  11  27  52  80 122 161 216 276 341 411 488
#     4  12  27  49  83 120 167 210 280 341 407 494
#
# _framework density 28.779679999999999
#
# number of rings (size 3 to 8) (size 9 to 14) (size 15 to 20)
#    0.000    0.800    2.000    3.600    5.600   11.200 
#    0.000    0.000    0.000    0.000    0.000    0.000 
#    0.000    0.000    0.000    0.000    0.000    0.000 
#
# Total GULP energy -111997.847685 kJ/mol
# GULP energy per Si atom -5599.892384 kJ/mol
# Density = 2.871418 g / cm^3
# Si number density = 28.779680 Si / 1000 Ang^3
#
#
#
# Elastic Constant Matrix: (Units=GPa)
#
#
# Indices 1 2 3 4 5 6 
#
# 1 195.1811 78.7779 84.0836 0.0000 24.0348 0.0000
# 2 78.7779 203.3398 46.1615 0.0000 -0.2601 0.0000
# 3 84.0836 46.1615 137.0082 0.0000 6.5718 0.0000
# 4 0.0000 0.0000 0.0000 13.6690 0.0000 13.1905
# 5 24.0348 -0.2601 6.5718 0.0000 69.8309 0.0000
# 6 0.0000 0.0000 0.0000 13.1905 0.0000 37.5789
#
#
#
# Elastic Compliance Matrix: (Units=1/GPa)
#
#
# Indices 1 2 3 4 5 6 
#
# 1 0.008072 -0.002200 -0.004098 0.000000 -0.002401 0.000000
# 2 -0.002200 0.005927 -0.000687 0.000000 0.000844 0.000000
# 3 -0.004098 -0.000687 0.010023 0.000000 0.000465 0.000000
# 4 0.000000 0.000000 0.000000 0.110631 0.000000 -0.038832
# 5 -0.002401 0.000844 0.000465 0.000000 0.015106 0.000000
# 6 0.000000 0.000000 0.000000 -0.038832 0.000000 0.040241
#
#
# Mechanical properties :
#
#
# Convention : Reuss Voigt Hill
#
# Bulk Modulus (GPa) = 99.47897 105.95281 102.71589
# Shear Modulus (GPa) = 24.11711 45.98285 35.04998
#
# Velocity S-wave (km/s) = 2.89795 4.00153 3.49359
# Velocity P-wave (km/s) = 6.77039 7.63182 7.21398
#
# Compressibility (1/GPa) = 0.01005238
#
# Stress axis : x y z
#
# Youngs Moduli (GPa) = 123.87866 168.70817 99.77172
#
# Poissons Ratio (x) = 0.37120 0.40883
# Poissons Ratio (y) = 0.27256 0.06857
# Poissons Ratio (z) = 0.50761 0.11595
#
# Static dielectric constant tensor:
#      x y z
#    x 2.485030 0.000000 -0.061250 
#    y 0.000000 2.294080 0.000000 
#    z -0.061250 0.000000 2.176800 
# 
# From -- ./inp_files/203397.got.cif
#   From: 2010.05.17/outbox.cif.g08.bks.cpg/sg15_102_cif.got.tgz:203397.got - 2010.06.03 18:47:42.
