data_PCOD9306349
_publ_section_title
;
Structure prediction by ZEFSAII (Michael W. Deem and Ramdas Pophale) SiO2 
 PCOD9306349
Probable space group: C 2/C
;
_chemical_formula_sum "Si O2"
_cell_formula_units_Z 36
_cell_length_a 17.934665
_cell_length_b 7.441320
_cell_length_c 22.216187
_cell_angle_alpha 90.000000
_cell_angle_beta 33.039303
_cell_angle_gamma 90.000000
_cell_volume 1616.515734
_symmetry_space_group_name_H-M "C 2/C"
_symmetry_group_IT_number 15
_symmetry_cell_setting 'monoclinic'
loop_
_space_group_symop_operation_xyz
x,y,z
-x,y,1/2-z
-x,-y,-z
x,-y,1/2+z
1/2+x,1/2+y,z
1/2-x,1/2+y,1/2-z
1/2-x,1/2-y,-z
1/2+x,1/2-y,1/2+z
loop_
_atom_site_type_symbol
_atom_site_label
_atom_site_fract_x
_atom_site_fract_y
_atom_site_fract_z
Si Si1 0.800632 0.003510 0.589381
Si Si2 0.023668 0.709646 0.971276
Si Si3 0.548891 0.876836 0.324228
Si Si4 0.500000 0.397020 0.750000
Si Si5 0.746269 0.040577 0.989717
O O1 0.885102 0.820549 0.543185
O O2 0.776057 0.043988 0.535683
O O3 0.660396 0.988904 0.721251
O O4 0.886478 0.170786 0.557980
O O5 0.090387 0.708823 0.859608
O O6 0.000000 0.500000 0.000000
O O7 0.536833 0.725223 0.281890
O O8 0.401190 0.969740 0.430803
O O9 0.365555 0.501873 0.861633
O O10 0.750000 0.250000 0.000000
#
# Coordination Sequence:
#
# PCOD9306349 Si02
#       5
#     8   8   8   4   8
#     4  11  25  47  72 107 144 187 249 300 357 451
#     4  11  26  48  69 105 149 195 239 297 377 437
#     4  12  24  47  73 104 146 186 245 301 365 439
#     4  12  24  44  80  98 148 194 236 314 372 426
#     4  12  26  47  72 110 144 188 250 305 369 443
#
# _framework density 22.270119999999999
#
# number of rings (size 3 to 8) (size 9 to 14) (size 15 to 20)
#    0.000    0.444    4.444    3.333    6.222    0.000 
#    0.000    0.000    0.000    0.000    0.000    0.000 
#    0.000    0.000    0.000    0.000    0.000    0.000 
#
# Total GULP energy -100754.890660 kJ/mol
# GULP energy per Si atom -5597.493926 kJ/mol
# Density = 2.221943 g / cm^3
# Si number density = 22.270120 Si / 1000 Ang^3
#
#
#
# Elastic Constant Matrix: (Units=GPa)
#
#
# Indices 1 2 3 4 5 6 
#
# 1 65.4137 6.2640 20.1214 0.0000 7.1856 0.0000
# 2 6.2640 127.1135 37.3151 0.0000 -13.3879 0.0002
# 3 20.1214 37.3151 163.4378 0.0000 -10.2357 0.0000
# 4 0.0000 0.0000 0.0000 27.6924 0.0000 4.8476
# 5 7.1856 -13.3879 -10.2357 0.0000 41.2743 0.0000
# 6 0.0000 0.0002 0.0000 4.8476 0.0000 26.6982
#
#
#
# Elastic Compliance Matrix: (Units=1/GPa)
#
#
# Indices 1 2 3 4 5 6 
#
# 1 0.016381 -0.000562 -0.002111 0.000000 -0.003558 0.000000
# 2 -0.000562 0.008671 -0.001755 0.000000 0.002475 0.000000
# 3 -0.002111 -0.001755 0.006873 0.000000 0.001503 0.000000
# 4 0.000000 0.000000 0.000000 0.037296 0.000000 -0.006772
# 5 -0.003558 0.002475 0.001503 0.000000 0.026023 0.000000
# 6 0.000000 0.000000 0.000000 -0.006772 0.000000 0.038685
#
#
# Mechanical properties :
#
#
# Convention : Reuss Voigt Hill
#
# Bulk Modulus (GPa) = 43.35060 53.70732 48.52896
# Shear Modulus (GPa) = 33.22766 38.61730 35.92248
#
# Velocity S-wave (km/s) = 3.86687 4.16870 4.02062
# Velocity P-wave (km/s) = 6.28052 6.88036 6.58727
#
# Compressibility (1/GPa) = 0.02306773
#
# Stress axis : x y z
#
# Youngs Moduli (GPa) = 61.04485 115.33125 145.48943
#
# Poissons Ratio (x) = 0.06484 0.30716
# Poissons Ratio (y) = 0.03432 0.25539
# Poissons Ratio (z) = 0.12888 0.20245
#
# Static dielectric constant tensor:
#      x y z
#    x 1.843620 0.000000 -0.005600 
#    y 0.000000 1.819480 0.000000 
#    z -0.005600 0.000000 1.827130 
# 
# From -- ./inp_files/247734.got.cif
#   From: 2010.05.17/outbox.cif.g08.bks.cpg/sg15_124_cif.got.tgz:247734.got - 2010.06.03 18:47:42.
