data_PCOD9306407
_publ_section_title
;
Structure prediction by ZEFSAII (Michael W. Deem and Ramdas Pophale) SiO2 
 PCOD9306407
Probable space group: C 2/C
;
_chemical_formula_sum "Si O2"
_cell_formula_units_Z 48
_cell_length_a 28.863607
_cell_length_b 5.064750
_cell_length_c 12.902601
_cell_angle_alpha 90.000000
_cell_angle_beta 75.382840
_cell_angle_gamma 90.000000
_cell_volume 1825.142752
_symmetry_space_group_name_H-M "C 2/C"
_symmetry_group_IT_number 15
_symmetry_cell_setting 'monoclinic'
loop_
_space_group_symop_operation_xyz
x,y,z
-x,y,1/2-z
-x,-y,-z
x,-y,1/2+z
1/2+x,1/2+y,z
1/2-x,1/2+y,1/2-z
1/2-x,1/2-y,-z
1/2+x,1/2-y,1/2+z
loop_
_atom_site_type_symbol
_atom_site_label
_atom_site_fract_x
_atom_site_fract_y
_atom_site_fract_z
Si Si1 0.594580 0.923241 0.320279
Si Si2 0.682937 0.324757 0.763530
Si Si3 0.643902 0.740471 0.952819
Si Si4 0.934548 0.913192 0.842223
Si Si5 0.005820 0.415158 0.615495
Si Si6 0.239842 0.560125 0.911259
O O1 0.648454 0.913743 0.245860
O O2 0.576393 0.651809 0.273364
O O3 0.610484 0.017406 0.427237
O O4 0.549937 0.108751 0.320413
O O5 0.653600 0.533371 0.852687
O O6 0.710492 0.435376 0.651137
O O7 0.722586 0.219959 0.820129
O O8 0.695572 0.859612 0.953525
O O9 0.614116 0.606263 0.062110
O O10 0.966676 0.663213 0.854217
O O11 0.964591 0.158142 0.870306
O O12 0.000000 0.500000 0.500000
O O13 0.250000 0.750000 0.000000
#
# Coordination Sequence:
#
# PCOD9306407 Si02
#       6
#     8   8   8   8   8   8
#     4  11  28  46  78 110 154 207 265 336 402 490
#     4  11  25  48  71 110 157 209 266 341 399 489
#     4  11  26  47  73 109 160 207 270 336 410 477
#     4  12  29  47  82 116 156 214 273 332 416 487
#     4  12  26  52  77 114 159 211 267 338 407 483
#     4  11  26  45  75 112 158 214 272 339 416 490
#
# _framework density 26.299312
#
# number of rings (size 3 to 8) (size 9 to 14) (size 15 to 20)
#    0.000    0.667    3.333    2.000   11.667    2.000 
#    0.000    0.000    0.000    0.000    0.000    0.000 
#    0.000    0.000    0.000    0.000    0.000    0.000 
#
# Total GULP energy -133951.956134 kJ/mol
# GULP energy per Si atom -5581.331506 kJ/mol
# Density = 2.623945 g / cm^3
# Si number density = 26.299312 Si / 1000 Ang^3
#
#
#
# Elastic Constant Matrix: (Units=GPa)
#
#
# Indices 1 2 3 4 5 6 
#
# 1 150.1193 54.1429 53.1854 0.0000 -20.4160 0.0000
# 2 54.1429 143.6360 47.0902 0.0000 -2.5667 0.0000
# 3 53.1854 47.0902 110.5960 0.0000 -10.4303 0.0000
# 4 0.0000 0.0000 0.0000 38.1580 0.0000 -4.9510
# 5 -20.4160 -2.5667 -10.4303 0.0000 50.4056 0.0000
# 6 0.0000 0.0000 0.0000 -4.9510 0.0000 66.0394
#
#
#
# Elastic Compliance Matrix: (Units=1/GPa)
#
#
# Indices 1 2 3 4 5 6 
#
# 1 0.008976 -0.002331 -0.003052 0.000000 0.002885 0.000000
# 2 -0.002331 0.008702 -0.002684 0.000000 -0.001056 0.000000
# 3 -0.003052 -0.002684 0.011752 0.000000 0.001059 0.000000
# 4 0.000000 0.000000 0.000000 0.026464 0.000000 0.001984
# 5 0.002885 -0.001056 0.001059 0.000000 0.021173 0.000000
# 6 0.000000 0.000000 0.000000 0.001984 0.000000 0.015291
#
#
# Mechanical properties :
#
#
# Convention : Reuss Voigt Hill
#
# Bulk Modulus (GPa) = 75.20879 79.24315 77.22597
# Shear Modulus (GPa) = 44.27782 47.58278 45.93030
#
# Velocity S-wave (km/s) = 4.10763 4.25818 4.18358
# Velocity P-wave (km/s) = 7.15236 7.37379 7.26392
#
# Compressibility (1/GPa) = 0.01329632
#
# Stress axis : x y z
#
# Youngs Moduli (GPa) = 111.41107 114.91938 85.09212
#
# Poissons Ratio (x) = 0.26792 0.25967
# Poissons Ratio (y) = 0.25974 0.22835
# Poissons Ratio (z) = 0.33999 0.30840
#
# Static dielectric constant tensor:
#      x y z
#    x 2.115830 0.000000 0.001760 
#    y 0.000000 2.137050 0.000000 
#    z 0.001760 0.000000 2.199030 
# 
# From -- ./inp_files/179665.got.cif
#   From: 2010.05.17/outbox.cif.g08.bks.cpg/sg15_90_cif.got.tgz:179665.got - 2010.06.03 18:47:42.
