data_PCOD9306600
_publ_section_title
;
Structure prediction by ZEFSAII (Michael W. Deem and Ramdas Pophale) SiO2 
 PCOD9306600
Probable space group: C 2/C
;
_chemical_formula_sum "Si O2"
_cell_formula_units_Z 36
_cell_length_a 26.248543
_cell_length_b 6.198183
_cell_length_c 14.287533
_cell_angle_alpha 90.000000
_cell_angle_beta 40.960069
_cell_angle_gamma 90.000000
_cell_volume 1523.776706
_symmetry_space_group_name_H-M "C 2/C"
_symmetry_group_IT_number 15
_symmetry_cell_setting 'monoclinic'
loop_
_space_group_symop_operation_xyz
x,y,z
-x,y,1/2-z
-x,-y,-z
x,-y,1/2+z
1/2+x,1/2+y,z
1/2-x,1/2+y,1/2-z
1/2-x,1/2-y,-z
1/2+x,1/2-y,1/2+z
loop_
_atom_site_type_symbol
_atom_site_label
_atom_site_fract_x
_atom_site_fract_y
_atom_site_fract_z
Si Si1 0.112484 0.489885 0.503672
Si Si2 0.666978 0.794428 0.246161
Si Si3 0.489174 0.334985 0.601843
Si Si4 0.757942 0.510969 0.526270
Si Si5 0.500000 0.640590 0.750000
O O1 0.168380 0.390778 0.346511
O O2 0.164392 0.534888 0.522000
O O3 0.055348 0.297480 0.614387
O O4 0.063354 0.693229 0.532339
O O5 0.579176 0.827832 0.332834
O O6 0.687752 0.545915 0.195150
O O7 0.730964 0.892675 0.088808
O O8 0.500000 0.500000 0.500000
O O9 0.462104 0.480298 0.727105
O O10 0.750000 0.750000 0.500000
#
# Coordination Sequence:
#
# PCOD9306600 Si02
#       5
#     8   8   8   8   4
#     4  12  27  44  75 108 144 190 255 306 372 458
#     4  11  26  46  70 104 145 189 247 307 368 443
#     4  12  26  46  74 108 146 192 246 314 382 438
#     4  11  27  47  72 102 150 195 245 303 373 443
#     4  12  24  44  74 104 144 190 246 312 378 432
#
# _framework density 23.625508
#
# number of rings (size 3 to 8) (size 9 to 14) (size 15 to 20)
#    0.000    0.444    2.222    5.333    9.333    1.778 
#    0.000    0.000    0.000    0.000    0.000    0.000 
#    0.000    0.000    0.000    0.000    0.000    0.000 
#
# Total GULP energy -100521.012169 kJ/mol
# GULP energy per Si atom -5584.500676 kJ/mol
# Density = 2.357174 g / cm^3
# Si number density = 23.625508 Si / 1000 Ang^3
#
#
#
# Elastic Constant Matrix: (Units=GPa)
#
#
# Indices 1 2 3 4 5 6 
#
# 1 83.8857 29.3980 -12.9392 -0.0009 6.4990 -0.0015
# 2 29.3980 82.2340 35.2365 -0.0204 16.5370 0.0118
# 3 -12.9392 35.2365 98.8040 -0.0186 31.3946 0.0108
# 4 -0.0009 -0.0204 -0.0186 44.8249 0.0085 10.7371
# 5 6.4990 16.5370 31.3946 0.0085 43.0836 -0.0035
# 6 -0.0015 0.0118 0.0108 10.7371 -0.0035 44.9440
#
#
#
# Elastic Compliance Matrix: (Units=1/GPa)
#
#
# Indices 1 2 3 4 5 6 
#
# 1 0.015717 -0.007378 0.005912 0.000000 -0.003847 0.000001
# 2 -0.007378 0.017997 -0.007213 0.000006 -0.000539 -0.000005
# 3 0.005912 -0.007213 0.016750 0.000007 -0.010328 -0.000004
# 4 0.000000 0.000006 0.000007 0.023663 -0.000012 -0.005653
# 5 -0.003847 -0.000539 -0.010328 -0.000012 0.031524 0.000008
# 6 0.000001 -0.000005 -0.000004 -0.005653 0.000008 0.023600
#
#
# Mechanical properties :
#
#
# Convention : Reuss Voigt Hill
#
# Bulk Modulus (GPa) = 30.20815 40.92381 35.56598
# Shear Modulus (GPa) = 31.71687 40.78573 36.25130
#
# Velocity S-wave (km/s) = 3.66797 4.15944 3.92141
# Velocity P-wave (km/s) = 5.54551 6.35825 5.96574
#
# Compressibility (1/GPa) = 0.03310364
#
# Stress axis : x y z
#
# Youngs Moduli (GPa) = 63.62723 55.56409 59.70326
#
# Poissons Ratio (x) = 0.40996 -0.35295
# Poissons Ratio (y) = 0.46945 0.43066
# Poissons Ratio (z) = -0.37614 0.40081
#
# Static dielectric constant tensor:
#      x y z
#    x 1.926020 0.000080 -0.112610 
#    y 0.000080 2.622690 -0.000210 
#    z -0.112610 -0.000210 2.038390 
# 
# From -- ./inp_files/179924.got.cif
#   From: 2010.05.17/outbox.cif.g08.bks.cpg/sg15_90_cif.got.tgz:179924.got - 2010.06.03 18:47:42.
