data_PCOD9306843
_publ_section_title
;
Structure prediction by ZEFSAII (Michael W. Deem and Ramdas Pophale) SiO2 
 PCOD9306843
Probable space group: C 2/C
;
_chemical_formula_sum "Si O2"
_cell_formula_units_Z 32
_cell_length_a 14.475519
_cell_length_b 5.198546
_cell_length_c 13.723518
_cell_angle_alpha 90.000000
_cell_angle_beta 83.587098
_cell_angle_gamma 90.000000
_cell_volume 1026.255466
_symmetry_space_group_name_H-M "C 2/C"
_symmetry_group_IT_number 15
_symmetry_cell_setting 'monoclinic'
loop_
_space_group_symop_operation_xyz
x,y,z
-x,y,1/2-z
-x,-y,-z
x,-y,1/2+z
1/2+x,1/2+y,z
1/2-x,1/2+y,1/2-z
1/2-x,1/2-y,-z
1/2+x,1/2-y,1/2+z
loop_
_atom_site_type_symbol
_atom_site_label
_atom_site_fract_x
_atom_site_fract_y
_atom_site_fract_z
Si Si1 0.611224 0.780695 0.073879
Si Si2 0.638973 0.369411 0.202469
Si Si3 0.074167 0.447419 0.886257
Si Si4 0.705026 0.420924 0.893968
O O1 0.572891 0.559796 0.149734
O O2 0.535195 0.004793 0.092556
O O3 0.714741 0.861143 0.088538
O O4 0.609959 0.715251 0.956479
O O5 0.689836 0.530739 0.279987
O O6 0.712506 0.302691 0.110613
O O7 0.599768 0.141218 0.274980
O O8 0.120830 0.709474 0.918120
#
# Coordination Sequence:
#
# PCOD9306843 Si02
#       4
#     8   8   8   8
#     4  11  27  49  78 117 160 211 272 339 408 489
#     4  12  24  49  75 114 156 206 261 332 406 479
#     4  11  27  49  78 117 160 211 272 339 408 489
#     4  12  23  46  75 112 156 208 263 328 403 480
#
# _framework density 31.181322999999999
#
# number of rings (size 3 to 8) (size 9 to 14) (size 15 to 20)
#    0.000    0.500    5.000    0.750    0.000   14.000 
#    0.000    5.000    0.000    1.500    0.000    0.000 
#    0.000    0.000    0.000    0.000    0.000    0.000 
#
# Total GULP energy -89352.817988 kJ/mol
# GULP energy per Si atom -5584.551124 kJ/mol
# Density = 3.111035 g / cm^3
# Si number density = 31.181323 Si / 1000 Ang^3
#
#
#
# Elastic Constant Matrix: (Units=GPa)
#
#
# Indices 1 2 3 4 5 6 
#
# 1 188.1488 2.4122 53.6808 0.0000 -15.9054 0.0000
# 2 2.4122 129.2800 16.8969 0.0000 8.3768 0.0000
# 3 53.6808 16.8969 164.8471 0.0000 18.3085 0.0000
# 4 0.0000 0.0000 0.0000 52.3203 0.0000 32.1772
# 5 -15.9054 8.3768 18.3085 0.0000 67.7911 0.0000
# 6 0.0000 0.0000 0.0000 32.1772 0.0000 -12.8890
#
#
#
# Elastic Compliance Matrix: (Units=1/GPa)
#
#
# Indices 1 2 3 4 5 6 
#
# 1 0.006120 0.000045 -0.002223 0.000000 0.002031 0.000000
# 2 0.000045 0.007880 -0.000737 0.000000 -0.000764 0.000000
# 3 -0.002223 -0.000737 0.007127 0.000000 -0.002355 0.000000
# 4 0.000000 0.000000 0.000000 0.007539 0.000000 0.018820
# 5 0.002031 -0.000764 -0.002355 0.000000 0.015958 0.000000
# 6 0.000000 0.000000 0.000000 0.018820 0.000000 -0.030602
#
#
# Mechanical properties :
#
#
# Convention : Reuss Voigt Hill
#
# Bulk Modulus (GPa) = 65.37553 69.80618 67.59085
# Shear Modulus (GPa) = 200.37152 48.73021 124.55087
#
# Velocity S-wave (km/s) = 8.02494 3.95752 6.32699
# Velocity P-wave (km/s) = 10.33818 6.58167 8.66592
#
# Compressibility (1/GPa) = 0.01529624
#
# Stress axis : x y z
#
# Youngs Moduli (GPa) = 163.38955 126.90018 140.30427
#
# Poissons Ratio (x) = -0.00568 0.31192
# Poissons Ratio (y) = -0.00732 0.10347
# Poissons Ratio (z) = 0.36324 0.09358
#
# Static dielectric constant tensor:
#      x y z
#    x 2.456720 0.000000 -0.130480 
#    y 0.000000 2.714020 0.000000 
#    z -0.130480 0.000000 2.676750 
# 
# From -- ./inp_files/158175.got.cif
#   From: 2010.05.17/outbox.cif.g08.bks.cpg/sg15_80_cif.got.tgz:158175.got - 2010.06.03 18:47:42.
