data_PCOD9306766
_publ_section_title
;
Structure prediction by ZEFSAII (Michael W. Deem and Ramdas Pophale) SiO2 
 PCOD9306766
Probable space group: C 2/C
;
_chemical_formula_sum "Si O2"
_cell_formula_units_Z 36
_cell_length_a 10.177899
_cell_length_b 10.808959
_cell_length_c 21.434774
_cell_angle_alpha 90.000000
_cell_angle_beta 142.396962
_cell_angle_gamma 90.000000
_cell_volume 1438.878055
_symmetry_space_group_name_H-M "C 2/C"
_symmetry_group_IT_number 15
_symmetry_cell_setting 'monoclinic'
loop_
_space_group_symop_operation_xyz
x,y,z
-x,y,1/2-z
-x,-y,-z
x,-y,1/2+z
1/2+x,1/2+y,z
1/2-x,1/2+y,1/2-z
1/2-x,1/2-y,-z
1/2+x,1/2-y,1/2+z
loop_
_atom_site_type_symbol
_atom_site_label
_atom_site_fract_x
_atom_site_fract_y
_atom_site_fract_z
Si Si1 0.408889 0.145464 0.781576
Si Si2 0.000000 0.248050 0.750000
Si Si3 0.169590 0.387827 0.500246
Si Si4 0.835598 0.333352 0.474058
Si Si5 0.324565 0.603001 0.288068
O O1 0.500000 0.104599 0.750000
O O2 0.591198 0.156886 0.903188
O O3 0.306084 0.282087 0.732338
O O4 0.256872 0.036607 0.750676
O O5 0.134762 0.169098 0.850389
O O6 0.178175 0.336954 0.786740
O O7 0.102559 0.532157 0.477435
O O8 0.424061 0.402162 0.602915
O O9 0.040214 0.310715 0.504656
O O10 0.750000 0.250000 0.500000
#
# Coordination Sequence:
#
# PCOD9306766 Si02
#       5
#     8   4   8   8   8
#     4  12  28  51  81 121 160 217 270 337 407 484
#     4  12  24  50  76 112 166 210 264 336 400 476
#     4  11  27  50  79 114 160 214 272 331 408 487
#     4  11  26  50  80 116 160 213 269 339 409 480
#     4  12  27  51  77 117 165 208 273 332 401 486
#
# _framework density 25.019490999999999
#
# number of rings (size 3 to 8) (size 9 to 14) (size 15 to 20)
#    0.000    0.444    3.333    3.333    0.000    8.000 
#    2.000    0.000    0.000    0.000    0.000    0.000 
#    0.000    0.000    0.000    0.000    0.000    0.000 
#
# Total GULP energy -100509.950147 kJ/mol
# GULP energy per Si atom -5583.886119 kJ/mol
# Density = 2.496255 g / cm^3
# Si number density = 25.019491 Si / 1000 Ang^3
#
#
#
# Elastic Constant Matrix: (Units=GPa)
#
#
# Indices 1 2 3 4 5 6 
#
# 1 176.6471 26.5551 77.7995 0.0000 22.1128 0.0000
# 2 26.5551 108.2399 16.1641 0.0000 8.1711 0.0000
# 3 77.7995 16.1641 133.4282 0.0000 10.7292 0.0000
# 4 0.0000 0.0000 0.0000 -13.0767 0.0000 23.4307
# 5 22.1128 8.1711 10.7292 0.0000 53.8597 0.0000
# 6 0.0000 0.0000 0.0000 23.4307 0.0000 49.6996
#
#
#
# Elastic Compliance Matrix: (Units=1/GPa)
#
#
# Indices 1 2 3 4 5 6 
#
# 1 0.008040 -0.001150 -0.004367 0.000000 -0.002256 0.000000
# 2 -0.001150 0.009653 -0.000426 0.000000 -0.000907 0.000000
# 3 -0.004367 -0.000426 0.010105 0.000000 -0.000155 0.000000
# 4 0.000000 0.000000 0.000000 -0.041454 0.000000 0.019543
# 5 -0.002256 -0.000907 -0.000155 0.000000 0.019662 0.000000
# 6 0.000000 0.000000 0.000000 0.019543 0.000000 0.010907
#
#
# Mechanical properties :
#
#
# Convention : Reuss Voigt Hill
#
# Bulk Modulus (GPa) = 62.84583 73.26142 68.05363
# Shear Modulus (GPa) = 146.61722 37.94961 92.28341
#
# Velocity S-wave (km/s) = 7.66345 3.89884 6.07986
# Velocity P-wave (km/s) = 10.17241 7.04367 8.74903
#
# Compressibility (1/GPa) = 0.01591195
#
# Stress axis : x y z
#
# Youngs Moduli (GPa) = 124.38318 103.59507 98.95989
#
# Poissons Ratio (x) = 0.11913 0.43216
# Poissons Ratio (y) = 0.14303 0.04215
# Poissons Ratio (z) = 0.54319 0.04412
#
# Static dielectric constant tensor:
#      x y z
#    x 6.377980 0.000000 -3.619400 
#    y 0.000000 2.093060 0.000000 
#    z -3.619400 0.000000 5.059980 
# 
# From -- ./inp_files/269392.got.cif
#   From: 2010.05.17/outbox.cif.g08.bks.cpg/sg15_135_cif.got.tgz:269392.got - 2010.06.03 18:47:42.
