data_PCOD9306161
_publ_section_title
;
Structure prediction by ZEFSAII (Michael W. Deem and Ramdas Pophale) SiO2 
 PCOD9306161
Probable space group: C 2/C
;
_chemical_formula_sum "Si O2"
_cell_formula_units_Z 44
_cell_length_a 11.731135
_cell_length_b 8.783624
_cell_length_c 26.937211
_cell_angle_alpha 90.000000
_cell_angle_beta 50.106214
_cell_angle_gamma 90.000000
_cell_volume 2129.583351
_symmetry_space_group_name_H-M "C 2/C"
_symmetry_group_IT_number 15
_symmetry_cell_setting 'monoclinic'
loop_
_space_group_symop_operation_xyz
x,y,z
-x,y,1/2-z
-x,-y,-z
x,-y,1/2+z
1/2+x,1/2+y,z
1/2-x,1/2+y,1/2-z
1/2-x,1/2-y,-z
1/2+x,1/2-y,1/2+z
loop_
_atom_site_type_symbol
_atom_site_label
_atom_site_fract_x
_atom_site_fract_y
_atom_site_fract_z
Si Si1 0.203390 0.152727 0.870808
Si Si2 0.052527 0.369020 0.522523
Si Si3 0.764423 0.399019 0.932675
Si Si4 0.500000 0.685100 0.250000
Si Si5 0.326795 0.540263 0.727837
Si Si6 0.950548 0.362480 0.709517
O O1 0.363954 0.219362 0.810801
O O2 0.151256 0.054124 0.837654
O O3 0.089718 0.290543 0.911708
O O4 0.212963 0.046481 0.916489
O O5 0.167769 0.431088 0.531819
O O6 0.138983 0.229350 0.472098
O O7 0.000000 0.500000 0.500000
O O8 0.903615 0.333660 0.862951
O O9 0.567630 0.578268 0.274145
O O10 0.157869 0.487383 0.783444
O O11 0.357492 0.707738 0.739821
O O12 0.000000 0.410773 0.750000
#
# Coordination Sequence:
#
# PCOD9306161 Si02
#       6
#     8   8   8   4   8   8
#     4  12  25  45  67 101 139 179 230 282 344 407
#     4  11  27  46  71  99 135 184 236 286 336 405
#     4  11  25  45  71  97 136 179 232 282 342 406
#     4  12  26  38  72 104 140 178 228 278 346 416
#     4  12  24  40  66 100 139 175 223 279 341 410
#     4  12  24  42  70 101 138 180 223 283 351 410
#
# _framework density 20.661318999999999
#
# number of rings (size 3 to 8) (size 9 to 14) (size 15 to 20)
#    0.000    0.364    6.364    1.636    2.545    3.636 
#    0.000    0.000    0.000    0.000    0.000    0.000 
#    0.000    0.000    0.000    0.000    0.000    0.000 
#
# Total GULP energy -123067.071734 kJ/mol
# GULP energy per Si atom -5593.957806 kJ/mol
# Density = 2.061429 g / cm^3
# Si number density = 20.661319 Si / 1000 Ang^3
#
#
#
# Elastic Constant Matrix: (Units=GPa)
#
#
# Indices 1 2 3 4 5 6 
#
# 1 133.4062 59.8315 34.2224 0.0000 11.0445 0.0000
# 2 59.8315 86.7927 27.4089 0.0000 6.9622 0.0000
# 3 34.2224 27.4089 90.3757 0.0000 -8.5617 0.0000
# 4 0.0000 0.0000 0.0000 35.5175 0.0000 7.9914
# 5 11.0445 6.9622 -8.5617 0.0000 33.5924 0.0000
# 6 0.0000 0.0000 0.0000 7.9914 0.0000 38.5501
#
#
#
# Elastic Compliance Matrix: (Units=1/GPa)
#
#
# Indices 1 2 3 4 5 6 
#
# 1 0.011478 -0.006867 -0.002548 0.000000 -0.003000 0.000000
# 2 -0.006867 0.017320 -0.002847 0.000000 -0.002058 0.000000
# 3 -0.002548 -0.002847 0.013351 0.000000 0.004831 0.000000
# 4 0.000000 0.000000 0.000000 0.029533 0.000000 -0.006122
# 5 -0.003000 -0.002058 0.004831 0.000000 0.032412 0.000000
# 6 0.000000 0.000000 0.000000 -0.006122 0.000000 0.027209
#
#
# Mechanical properties :
#
#
# Convention : Reuss Voigt Hill
#
# Bulk Modulus (GPa) = 56.74070 61.50003 59.12037
# Shear Modulus (GPa) = 30.92117 34.13946 32.53031
#
# Velocity S-wave (km/s) = 3.87275 4.06930 3.97224
# Velocity P-wave (km/s) = 6.89344 7.20482 7.05085
#
# Compressibility (1/GPa) = 0.01762403
#
# Stress axis : x y z
#
# Youngs Moduli (GPa) = 87.12602 57.73748 74.90177
#
# Poissons Ratio (x) = 0.39648 0.19083
# Poissons Ratio (y) = 0.59830 0.21327
# Poissons Ratio (z) = 0.22198 0.16440
#
# Static dielectric constant tensor:
#      x y z
#    x 1.760200 0.000000 0.002350 
#    y 0.000000 1.719290 0.000000 
#    z 0.002350 0.000000 1.723780 
# 
# From -- ./inp_files/236058.got.cif
#   From: 2010.05.17/outbox.cif.g08.bks.cpg/sg15_119_cif.got.tgz:236058.got - 2010.06.03 18:47:42.
