data_PCOD9306290
_publ_section_title
;
Structure prediction by ZEFSAII (Michael W. Deem and Ramdas Pophale) SiO2 
 PCOD9306290
Probable space group: C 2/C
;
_chemical_formula_sum "Si O2"
_cell_formula_units_Z 44
_cell_length_a 8.671823
_cell_length_b 18.524266
_cell_length_c 13.247526
_cell_angle_alpha 90.000000
_cell_angle_beta 103.806490
_cell_angle_gamma 90.000000
_cell_volume 2066.585570
_symmetry_space_group_name_H-M "C 2/C"
_symmetry_group_IT_number 15
_symmetry_cell_setting 'monoclinic'
loop_
_space_group_symop_operation_xyz
x,y,z
-x,y,1/2-z
-x,-y,-z
x,-y,1/2+z
1/2+x,1/2+y,z
1/2-x,1/2+y,1/2-z
1/2-x,1/2-y,-z
1/2+x,1/2-y,1/2+z
loop_
_atom_site_type_symbol
_atom_site_label
_atom_site_fract_x
_atom_site_fract_y
_atom_site_fract_z
Si Si1 0.822086 0.590933 0.258297
Si Si2 0.399861 0.781507 0.084886
Si Si3 0.114012 0.431941 0.504544
Si Si4 0.879364 0.022210 0.893946
Si Si5 0.774908 0.253568 0.288602
Si Si6 0.500000 0.363661 0.250000
O O1 0.803979 0.577633 0.374535
O O2 0.688780 0.545021 0.180093
O O3 0.804324 0.675906 0.237398
O O4 0.000000 0.568773 0.250000
O O5 0.334325 0.784462 0.189356
O O6 0.566540 0.739750 0.120805
O O7 0.250000 0.750000 0.000000
O O8 0.456446 0.855325 0.039965
O O9 0.231591 0.446949 0.432053
O O10 0.000000 0.500000 0.500000
O O11 0.949313 0.083386 0.832329
O O12 0.000000 0.000000 0.000000
O O13 0.645723 0.311654 0.305218
#
# Coordination Sequence:
#
# PCOD9306290 Si02
#       6
#     8   8   8   8   8   4
#     4  12  26  48  75 109 149 193 249 307 373 443
#     4  11  25  46  74 106 144 198 247 301 372 444
#     4  12  26  46  76 107 145 195 244 304 375 438
#     4  12  29  46  73 108 150 192 244 309 371 442
#     4  11  26  45  76 108 151 194 249 308 370 451
#     4  12  26  48  74 116 148 192 254 306 372 444
#
# _framework density 21.291159
#
# number of rings (size 3 to 8) (size 9 to 14) (size 15 to 20)
#    0.000    0.364    6.364    1.091    7.636    1.455 
#    0.000    2.727    0.000    0.000    0.000    0.000 
#    0.000    0.000    0.000    0.000    0.000    0.000 
#
# Total GULP energy -122934.358269 kJ/mol
# GULP energy per Si atom -5587.925376 kJ/mol
# Density = 2.124270 g / cm^3
# Si number density = 21.291159 Si / 1000 Ang^3
#
#
#
# Elastic Constant Matrix: (Units=GPa)
#
#
# Indices 1 2 3 4 5 6 
#
# 1 112.4978 53.7769 44.1243 0.0000 5.1243 0.0000
# 2 53.7769 138.8361 57.9094 0.0000 7.1510 0.0000
# 3 44.1243 57.9094 107.6868 0.0000 8.3268 0.0000
# 4 0.0000 0.0000 0.0000 28.0005 0.0000 -5.6415
# 5 5.1243 7.1510 8.3268 0.0000 43.4185 0.0000
# 6 0.0000 0.0000 0.0000 -5.6415 0.0000 27.6625
#
#
#
# Elastic Compliance Matrix: (Units=1/GPa)
#
#
# Indices 1 2 3 4 5 6 
#
# 1 0.011626 -0.003237 -0.003003 0.000000 -0.000263 0.000000
# 2 -0.003237 0.010201 -0.004120 0.000000 -0.000508 0.000000
# 3 -0.003003 -0.004120 0.012843 0.000000 -0.001430 0.000000
# 4 0.000000 0.000000 0.000000 0.037244 0.000000 0.007596
# 5 -0.000263 -0.000508 -0.001430 0.000000 0.023421 0.000000
# 6 0.000000 0.000000 0.000000 0.007596 0.000000 0.037699
#
#
# Mechanical properties :
#
#
# Convention : Reuss Voigt Hill
#
# Bulk Modulus (GPa) = 71.68325 74.51577 73.09951
# Shear Modulus (GPa) = 31.56481 33.36363 32.46422
#
# Velocity S-wave (km/s) = 3.85454 3.96285 3.90907
# Velocity P-wave (km/s) = 7.31787 7.48421 7.40150
#
# Compressibility (1/GPa) = 0.01395026
#
# Stress axis : x y z
#
# Youngs Moduli (GPa) = 86.01206 98.02584 77.86556
#
# Poissons Ratio (x) = 0.31735 0.23379
# Poissons Ratio (y) = 0.27846 0.32081
# Poissons Ratio (z) = 0.25825 0.40387
#
# Static dielectric constant tensor:
#      x y z
#    x 1.735660 0.000000 0.000440 
#    y 0.000000 2.311580 0.000000 
#    z 0.000440 0.000000 1.747490 
# 
# From -- ./inp_files/134566.got.cif
#   From: 2010.05.17/outbox.cif.g08.bks.cpg/sg15_68_cif.got.tgz:134566.got - 2010.06.03 18:47:42.
