data_PCOD9306909
_publ_section_title
;
Structure prediction by ZEFSAII (Michael W. Deem and Ramdas Pophale) SiO2 
 PCOD9306909
Probable space group: C 2/C
;
_chemical_formula_sum "Si O2"
_cell_formula_units_Z 36
_cell_length_a 20.101249
_cell_length_b 7.463125
_cell_length_c 18.211860
_cell_angle_alpha 90.000000
_cell_angle_beta 28.463876
_cell_angle_gamma 90.000000
_cell_volume 1302.135801
_symmetry_space_group_name_H-M "C 2/C"
_symmetry_group_IT_number 15
_symmetry_cell_setting 'monoclinic'
loop_
_space_group_symop_operation_xyz
x,y,z
-x,y,1/2-z
-x,-y,-z
x,-y,1/2+z
1/2+x,1/2+y,z
1/2-x,1/2+y,1/2-z
1/2-x,1/2-y,-z
1/2+x,1/2-y,1/2+z
loop_
_atom_site_type_symbol
_atom_site_label
_atom_site_fract_x
_atom_site_fract_y
_atom_site_fract_z
Si Si1 0.653666 0.323959 0.376523
Si Si2 0.741151 0.050790 0.112351
Si Si3 0.041817 0.066800 0.839516
Si Si4 0.500000 0.068958 0.250000
Si Si5 0.777777 0.357103 0.555150
O O1 0.765819 0.471334 0.298106
O O2 0.515312 0.401223 0.552535
O O3 0.626599 0.317645 0.316912
O O4 0.693561 0.150979 0.384343
O O5 0.619194 0.151818 0.187577
O O6 0.891845 0.145243 0.959963
O O7 0.862512 0.972500 0.813332
O O8 0.757503 0.853691 0.056373
O O9 0.412939 0.945579 0.390041
#
# Coordination Sequence:
#
# PCOD9306909 Si02
#       5
#     8   8   8   4   8
#     4   7  16  28  46  58  90 121 160 180 211 267
#     4   8  17  26  42  61  92 122 146 177 215 272
#     4   8  14  32  45  57  87 130 154 180 212 269
#     4  12  18  26  38  72 104 120 140 172 232 288
#     4   9  18  26  45  67  95 127 139 180 226 267
#
# _framework density 27.646887
#
# number of rings (size 3 to 8) (size 9 to 14) (size 15 to 20)
#    2.667    0.444    0.000    3.333    0.000    0.889 
#    0.000    1.111    0.000    0.000    0.000    0.000 
#    0.000    8.889    0.000    0.000    0.000    0.000 
#
# Total GULP energy -100332.297199 kJ/mol
# GULP energy per Si atom -5574.016511 kJ/mol
# Density = 2.758396 g / cm^3
# Si number density = 27.646887 Si / 1000 Ang^3
#
#
#
# Elastic Constant Matrix: (Units=GPa)
#
#
# Indices 1 2 3 4 5 6 
#
# 1 215.8103 26.1178 46.5007 -0.0011 -21.8752 0.0003
# 2 26.1178 77.3999 18.1054 -0.0031 -5.0748 0.0021
# 3 46.5007 18.1054 95.7108 -0.0014 -12.3541 0.0011
# 4 -0.0011 -0.0031 -0.0014 22.6264 0.0010 -5.6552
# 5 -21.8752 -5.0748 -12.3541 0.0010 45.6848 -0.0004
# 6 0.0003 0.0021 0.0011 -5.6552 -0.0004 37.7152
#
#
#
# Elastic Compliance Matrix: (Units=1/GPa)
#
#
# Indices 1 2 3 4 5 6 
#
# 1 0.005438 -0.001204 -0.002171 0.000000 0.001883 0.000000
# 2 -0.001204 0.013816 -0.001974 0.000002 0.000425 0.000000
# 3 -0.002171 -0.001974 0.012138 0.000000 0.002023 0.000000
# 4 0.000000 0.000002 0.000000 0.045917 -0.000001 0.006885
# 5 0.001883 0.000425 0.002023 -0.000001 0.023385 0.000000
# 6 0.000000 0.000000 0.000000 0.006885 0.000000 0.027547
#
#
# Mechanical properties :
#
#
# Convention : Reuss Voigt Hill
#
# Bulk Modulus (GPa) = 48.32401 63.37430 55.84916
# Shear Modulus (GPa) = 34.28509 41.08509 37.68509
#
# Velocity S-wave (km/s) = 3.52534 3.85913 3.69601
# Velocity P-wave (km/s) = 5.83846 6.54444 6.20151
#
# Compressibility (1/GPa) = 0.02069365
#
# Stress axis : x y z
#
# Youngs Moduli (GPa) = 183.88799 72.38179 82.38847
#
# Poissons Ratio (x) = 0.08712 0.17889
# Poissons Ratio (y) = 0.22134 0.16262
# Poissons Ratio (z) = 0.39928 0.14287
#
# Static dielectric constant tensor:
#      x y z
#    x 2.407150 0.000000 0.043200 
#    y 0.000000 2.214820 0.000000 
#    z 0.043200 0.000000 2.103470 
# 
# From -- ./inp_files/284193.got.cif
#   From: 2010.05.17/outbox.cif.g08.bks.cpg/sg15_143_cif.got.tgz:284193.got - 2010.06.03 18:47:42.
