data_PCOD9306506
_publ_section_title
;
Structure prediction by ZEFSAII (Michael W. Deem and Ramdas Pophale) SiO2 
 PCOD9306506
Probable space group: C 2/C
;
_chemical_formula_sum "Si O2"
_cell_formula_units_Z 32
_cell_length_a 18.052008
_cell_length_b 4.820521
_cell_length_c 14.208469
_cell_angle_alpha 90.000000
_cell_angle_beta 99.263119
_cell_angle_gamma 90.000000
_cell_volume 1220.298642
_symmetry_space_group_name_H-M "C 2/C"
_symmetry_group_IT_number 15
_symmetry_cell_setting 'monoclinic'
loop_
_space_group_symop_operation_xyz
x,y,z
-x,y,1/2-z
-x,-y,-z
x,-y,1/2+z
1/2+x,1/2+y,z
1/2-x,1/2+y,1/2-z
1/2-x,1/2-y,-z
1/2+x,1/2-y,1/2+z
loop_
_atom_site_type_symbol
_atom_site_label
_atom_site_fract_x
_atom_site_fract_y
_atom_site_fract_z
Si Si1 0.419201 0.656416 0.503636
Si Si2 0.670899 0.867467 0.454986
Si Si3 0.463801 0.997539 0.844378
Si Si4 0.301957 0.914269 0.745176
O O1 0.392824 0.352588 0.527794
O O2 0.449022 0.731205 0.405882
O O3 0.345492 0.844068 0.498013
O O4 0.478424 0.799553 0.587539
O O5 0.750000 0.750000 0.500000
O O6 0.673289 0.937846 0.345927
O O7 0.500000 0.057802 0.750000
O O8 0.380697 0.865657 0.814143
O O9 0.243733 0.131106 0.779887
#
# Coordination Sequence:
#
# PCOD9306506 Si02
#       4
#     8   8   8   8
#     4  11  26  47  73 109 146 197 250 308 372 449
#     4  12  24  47  73 108 151 194 247 312 373 444
#     4  11  25  50  74 110 149 198 250 312 374 451
#     4  12  26  46  72 110 147 198 250 308 377 447
#
# _framework density 26.223087
#
# number of rings (size 3 to 8) (size 9 to 14) (size 15 to 20)
#    0.000    0.500    2.500    5.250    0.000    6.000 
#    0.000    0.000    0.000    0.000    0.000    0.000 
#    0.000    0.000    0.000    0.000    0.000    0.000 
#
# Total GULP energy -89753.264393 kJ/mol
# GULP energy per Si atom -5609.579025 kJ/mol
# Density = 2.616340 g / cm^3
# Si number density = 26.223087 Si / 1000 Ang^3
#
#
#
# Elastic Constant Matrix: (Units=GPa)
#
#
# Indices 1 2 3 4 5 6 
#
# 1 163.6346 15.9761 23.7067 0.0000 5.9331 0.0000
# 2 15.9761 113.8058 -1.3809 0.0000 -17.3374 0.0000
# 3 23.7067 -1.3809 138.2374 0.0000 -17.5678 0.0000
# 4 0.0000 0.0000 0.0000 15.3923 0.0000 -8.6003
# 5 5.9331 -17.3374 -17.5678 0.0000 48.3415 0.0000
# 6 0.0000 0.0000 0.0000 -8.6003 0.0000 62.3426
#
#
#
# Elastic Compliance Matrix: (Units=1/GPa)
#
#
# Indices 1 2 3 4 5 6 
#
# 1 0.006483 -0.001187 -0.001341 0.000000 -0.001709 0.000000
# 2 -0.001187 0.009551 0.000789 0.000000 0.003858 0.000000
# 3 -0.001341 0.000789 0.007893 0.000000 0.003316 0.000000
# 4 0.000000 0.000000 0.000000 0.070393 0.000000 0.009711
# 5 -0.001709 0.003858 0.003316 0.000000 0.023485 0.000000
# 6 0.000000 0.000000 0.000000 0.009711 0.000000 0.017380
#
#
# Mechanical properties :
#
#
# Convention : Reuss Voigt Hill
#
# Bulk Modulus (GPa) = 48.89846 54.69794 51.79820
# Shear Modulus (GPa) = 34.36937 50.37369 42.37153
#
# Velocity S-wave (km/s) = 3.62422 4.38764 4.02407
# Velocity P-wave (km/s) = 6.01672 6.82440 6.43325
#
# Compressibility (1/GPa) = 0.02045054
#
# Stress axis : x y z
#
# Youngs Moduli (GPa) = 154.24401 104.70379 126.69174
#
# Poissons Ratio (x) = 0.12425 0.16987
# Poissons Ratio (y) = 0.18304 -0.09998
# Poissons Ratio (z) = 0.20681 -0.08263
#
# Static dielectric constant tensor:
#      x y z
#    x 2.111070 0.000000 -0.006520 
#    y 0.000000 1.999580 0.000000 
#    z -0.006520 0.000000 2.075370 
# 
# From -- ./inp_files/201702.got.cif
#   From: 2010.05.17/outbox.cif.g08.bks.cpg/sg15_101_cif.got.tgz:201702.got - 2010.06.03 18:47:42.
