data_PCOD9306933
_publ_section_title
;
Structure prediction by ZEFSAII (Michael W. Deem and Ramdas Pophale) SiO2 
 PCOD9306933
Probable space group: C 2/C
;
_chemical_formula_sum "Si O2"
_cell_formula_units_Z 36
_cell_length_a 9.426277
_cell_length_b 12.585567
_cell_length_c 20.664324
_cell_angle_alpha 90.000000
_cell_angle_beta 141.226793
_cell_angle_gamma 90.000000
_cell_volume 1535.233745
_symmetry_space_group_name_H-M "C 2/C"
_symmetry_group_IT_number 15
_symmetry_cell_setting 'monoclinic'
loop_
_space_group_symop_operation_xyz
x,y,z
-x,y,1/2-z
-x,-y,-z
x,-y,1/2+z
1/2+x,1/2+y,z
1/2-x,1/2+y,1/2-z
1/2-x,1/2-y,-z
1/2+x,1/2-y,1/2+z
loop_
_atom_site_type_symbol
_atom_site_label
_atom_site_fract_x
_atom_site_fract_y
_atom_site_fract_z
Si Si1 0.517199 0.796211 0.391925
Si Si2 0.182797 0.361631 0.760882
Si Si3 0.457307 0.459560 0.411740
Si Si4 0.048697 0.462345 0.942445
Si Si5 0.000000 0.678133 0.750000
O O1 0.750000 0.750000 0.500000
O O2 0.276053 0.748541 0.326303
O O3 0.512243 0.754129 0.317485
O O4 0.528176 0.923207 0.398796
O O5 0.392911 0.440722 0.845029
O O6 0.000000 0.399094 0.750000
O O7 0.088741 0.381459 0.654422
O O8 0.500000 0.500000 0.500000
O O9 0.695597 0.417472 0.470309
O O10 0.237654 0.385021 0.331889
O O11 0.000000 0.500000 0.000000
#
# Coordination Sequence:
#
# PCOD9306933 Si02
#       5
#     8   8   8   8   4
#     4  12  26  44  72 108 143 188 247 294 367 436
#     4  12  24  46  74 104 143 196 243 296 366 449
#     4  12  19  45  76  97 135 189 244 285 362 432
#     4  12  28  47  73 110 151 189 240 316 369 423
#     4  12  24  44  78 102 138 204 240 298 360 448
#
# _framework density 23.449197000000002
#
# number of rings (size 3 to 8) (size 9 to 14) (size 15 to 20)
#    0.000    0.000   10.000    0.000    3.111    2.667 
#    0.000    2.222    0.000    0.000    0.000    0.000 
#    0.000    0.000    0.000    0.000    0.000    0.000 
#
# Total GULP energy -100237.494017 kJ/mol
# GULP energy per Si atom -5568.749668 kJ/mol
# Density = 2.339583 g / cm^3
# Si number density = 23.449197 Si / 1000 Ang^3
#
#
#
# Elastic Constant Matrix: (Units=GPa)
#
#
# Indices 1 2 3 4 5 6 
#
# 1 81.2294 -10.1394 58.5048 0.0000 -3.7166 0.0000
# 2 -10.1394 62.7850 28.9454 0.0000 23.1868 0.0000
# 3 58.5048 28.9454 199.7753 0.0000 9.1222 0.0000
# 4 0.0000 0.0000 0.0000 35.5804 0.0000 -0.9309
# 5 -3.7166 23.1868 9.1222 0.0000 46.9514 0.0000
# 6 0.0000 0.0000 0.0000 -0.9309 0.0000 15.9612
#
#
#
# Elastic Compliance Matrix: (Units=1/GPa)
#
#
# Indices 1 2 3 4 5 6 
#
# 1 0.017190 0.005555 -0.005828 0.000000 -0.000250 0.000000
# 2 0.005555 0.022492 -0.004438 0.000000 -0.009805 0.000000
# 3 -0.005828 -0.004438 0.007341 0.000000 0.000304 0.000000
# 4 0.000000 0.000000 0.000000 0.028148 0.000000 0.001642
# 5 -0.000250 -0.009805 0.000304 0.000000 0.026062 0.000000
# 6 0.000000 0.000000 0.000000 0.001642 0.000000 0.062748
#
#
# Mechanical properties :
#
#
# Convention : Reuss Voigt Hill
#
# Bulk Modulus (GPa) = 26.59394 55.37901 40.98647
# Shear Modulus (GPa) = 26.89099 37.46388 32.17744
#
# Velocity S-wave (km/s) = 3.39008 4.00141 3.70837
# Velocity P-wave (km/s) = 5.16616 6.70942 5.98772
#
# Compressibility (1/GPa) = 0.03760256
#
# Stress axis : x y z
#
# Youngs Moduli (GPa) = 58.17304 44.46085 136.21392
#
# Poissons Ratio (x) = -0.24699 0.79380
# Poissons Ratio (y) = -0.32317 0.60451
# Poissons Ratio (z) = 0.33901 0.19731
#
# Static dielectric constant tensor:
#      x y z
#    x 1.994750 0.000000 0.004550 
#    y 0.000000 1.581890 0.000000 
#    z 0.004550 0.000000 1.920540 
# 
# From -- ./inp_files/132917.got.cif
#   From: 2010.05.17/outbox.cif.g08.bks.cpg/sg15_67_cif.got.tgz:132917.got - 2010.06.03 18:47:42.
