data_PCOD9306001
_publ_section_title
;
Structure prediction by ZEFSAII (Michael W. Deem and Ramdas Pophale) SiO2 
 PCOD9306001
Probable space group: C 2/C
;
_chemical_formula_sum "Si O2"
_cell_formula_units_Z 60
_cell_length_a 4.859556
_cell_length_b 26.855070
_cell_length_c 18.112754
_cell_angle_alpha 90.000000
_cell_angle_beta 86.147554
_cell_angle_gamma 90.000000
_cell_volume 2358.440480
_symmetry_space_group_name_H-M "C 2/C"
_symmetry_group_IT_number 15
_symmetry_cell_setting 'monoclinic'
loop_
_space_group_symop_operation_xyz
x,y,z
-x,y,1/2-z
-x,-y,-z
x,-y,1/2+z
1/2+x,1/2+y,z
1/2-x,1/2+y,1/2-z
1/2-x,1/2-y,-z
1/2+x,1/2-y,1/2+z
loop_
_atom_site_type_symbol
_atom_site_label
_atom_site_fract_x
_atom_site_fract_y
_atom_site_fract_z
Si Si1 0.343863 0.251312 0.829631
Si Si2 0.478645 0.880290 0.933824
Si Si3 0.744057 0.042977 0.800185
Si Si4 0.422231 0.625688 0.623225
Si Si5 0.482534 0.632290 0.335701
Si Si6 0.500000 0.695383 0.750000
Si Si7 0.342442 0.201604 0.541510
Si Si8 0.012339 0.453552 0.445258
O O1 0.500000 0.236432 0.750000
O O2 0.388421 0.309749 0.838156
O O3 0.471083 0.219203 0.893365
O O4 0.027317 0.237734 0.815456
O O5 0.273649 0.871221 0.870329
O O6 0.764872 0.896099 0.891596
O O7 0.520137 0.830097 0.980238
O O8 0.347867 0.916468 0.997572
O O9 0.500000 0.054944 0.750000
O O10 0.614083 0.015691 0.871352
O O11 0.000000 0.021993 0.750000
O O12 0.848139 0.090378 0.844352
O O13 0.330563 0.655183 0.700532
O O14 0.588187 0.666157 0.571442
O O15 0.219200 0.586243 0.585023
O O16 0.500000 0.616264 0.250000
O O17 0.250000 0.250000 0.500000
O O18 0.000000 0.500000 0.500000
#
# Coordination Sequence:
#
# PCOD9306001 Si02
#       8
#     8   8   8   8   8   4   8   8
#     4  11  25  40  64 106 155 212 262 313 397 485
#     4  12  26  50  76 110 153 205 270 333 408 483
#     4  12  25  49  81 121 164 206 262 347 427 507
#     4  12  25  46  76 115 164 210 270 339 419 491
#     4  11  27  48  75 103 157 210 270 324 388 488
#     4  12  24  38  74 108 152 202 264 324 404 482
#     4  12  25  44  70 117 164 212 265 332 402 501
#     4  12  29  54  85 119 161 217 278 357 434 508
#
# _framework density 25.440541
#
# number of rings (size 3 to 8) (size 9 to 14) (size 15 to 20)
#    0.000    0.267    6.000    2.000    7.467    1.067 
#    0.000    2.000    1.467    0.000    0.000    0.000 
#    0.000    0.000    0.000    0.000    0.000    0.000 
#
# Total GULP energy -167032.272789 kJ/mol
# GULP energy per Si atom -5567.742426 kJ/mol
# Density = 2.538264 g / cm^3
# Si number density = 25.440541 Si / 1000 Ang^3
#
#
#
# Elastic Constant Matrix: (Units=GPa)
#
#
# Indices 1 2 3 4 5 6 
#
# 1 92.7860 6.5507 55.7700 0.0000 20.3357 0.0000
# 2 6.5507 81.3174 33.2845 0.0000 20.0434 0.0000
# 3 55.7700 33.2845 215.8380 0.0000 19.8380 0.0000
# 4 0.0000 0.0000 0.0000 31.4788 0.0000 2.3958
# 5 20.3357 20.0434 19.8380 0.0000 56.9511 0.0000
# 6 0.0000 0.0000 0.0000 2.3958 0.0000 -58.7403
#
#
#
# Elastic Compliance Matrix: (Units=1/GPa)
#
#
# Indices 1 2 3 4 5 6 
#
# 1 0.013598 0.001291 -0.003331 0.000000 -0.004149 0.000000
# 2 0.001291 0.014217 -0.002091 0.000000 -0.004736 0.000000
# 3 -0.003331 -0.002091 0.005826 0.000000 -0.000104 0.000000
# 4 0.000000 0.000000 0.000000 0.031669 0.000000 0.001292
# 5 -0.004149 -0.004736 -0.000104 0.000000 0.020744 0.000000
# 6 0.000000 0.000000 0.000000 0.001292 0.000000 -0.016971
#
#
# Mechanical properties :
#
#
# Convention : Reuss Voigt Hill
#
# Bulk Modulus (GPa) = 39.40340 64.57242 51.98791
# Shear Modulus (GPa) = 58.27283 25.56034 41.91658
#
# Velocity S-wave (km/s) = 4.79116 3.17315 4.06350
# Velocity P-wave (km/s) = 6.79183 6.23394 6.51886
#
# Compressibility (1/GPa) = 0.02537852
#
# Stress axis : x y z
#
# Youngs Moduli (GPa) = 73.53990 70.34037 171.64962
#
# Poissons Ratio (x) = -0.09080 0.57181
# Poissons Ratio (y) = -0.09493 0.35885
# Poissons Ratio (z) = 0.24498 0.14705
#
# Static dielectric constant tensor:
#      x y z
#    x 2.656100 0.000000 -0.176800 
#    y 0.000000 2.235060 0.000000 
#    z -0.176800 0.000000 2.088740 
# 
# From -- ./inp_files/186205.got.cif
#   From: 2010.05.17/outbox.cif.g08.bks.cpg/sg15_94_cif.got.tgz:186205.got - 2010.06.03 18:47:42.
