data_PCOD9306882
_publ_section_title
;
Structure prediction by ZEFSAII (Michael W. Deem and Ramdas Pophale) SiO2 
 PCOD9306882
Probable space group: C 2/C
;
_chemical_formula_sum "Si O2"
_cell_formula_units_Z 28
_cell_length_a 5.010002
_cell_length_b 15.524926
_cell_length_c 12.975055
_cell_angle_alpha 90.000000
_cell_angle_beta 90.056962
_cell_angle_gamma 90.000000
_cell_volume 1009.198115
_symmetry_space_group_name_H-M "C 2/C"
_symmetry_group_IT_number 15
_symmetry_cell_setting 'monoclinic'
loop_
_space_group_symop_operation_xyz
x,y,z
-x,y,1/2-z
-x,-y,-z
x,-y,1/2+z
1/2+x,1/2+y,z
1/2-x,1/2+y,1/2-z
1/2-x,1/2-y,-z
1/2+x,1/2-y,1/2+z
loop_
_atom_site_type_symbol
_atom_site_label
_atom_site_fract_x
_atom_site_fract_y
_atom_site_fract_z
Si Si1 0.866171 0.315553 0.839981
Si Si2 0.158647 0.125480 0.039884
Si Si3 0.500000 0.174543 0.750000
Si Si4 0.151779 0.056502 0.641728
O O1 0.597339 0.347190 0.892846
O O2 0.747953 0.238550 0.767824
O O3 0.000000 0.373983 0.750000
O O4 0.088465 0.315380 0.930429
O O5 0.217845 0.028461 0.077730
O O6 0.043179 0.116914 0.925583
O O7 0.425320 0.108001 0.659796
O O8 0.000000 0.039296 0.750000
#
# Coordination Sequence:
#
# PCOD9306882 Si02
#       4
#     8   8   4   8
#     4  12  24  51  72 112 147 204 239 304 360 458
#     4  11  28  49  83 102 150 201 253 289 392 426
#     4  12  28  44  78 112 158 188 250 306 376 422
#     4  11  28  49  74 117 146 193 249 325 349 448
#
# _framework density 27.744799
#
# number of rings (size 3 to 8) (size 9 to 14) (size 15 to 20)
#    0.000    0.571    2.857    2.571   10.000    4.571 
#    0.000    0.000    0.000    0.000    0.000    0.000 
#    0.000    0.000    0.000    0.000    0.000    0.000 
#
# Total GULP energy -78281.935051 kJ/mol
# GULP energy per Si atom -5591.566789 kJ/mol
# Density = 2.768165 g / cm^3
# Si number density = 27.744799 Si / 1000 Ang^3
#
#
#
# Elastic Constant Matrix: (Units=GPa)
#
#
# Indices 1 2 3 4 5 6 
#
# 1 230.3735 60.7348 54.7949 0.0000 54.0211 0.0000
# 2 60.7348 98.2972 50.9332 0.0000 40.2890 0.0000
# 3 54.7949 50.9332 154.1157 0.0000 52.2201 0.0000
# 4 0.0000 0.0000 0.0000 41.9159 0.0000 24.7184
# 5 54.0211 40.2890 52.2201 0.0000 77.1272 0.0000
# 6 0.0000 0.0000 0.0000 24.7184 0.0000 17.6645
#
#
#
# Elastic Compliance Matrix: (Units=1/GPa)
#
#
# Indices 1 2 3 4 5 6 
#
# 1 0.005610 -0.002234 -0.000416 0.000000 -0.002481 0.000000
# 2 -0.002234 0.014675 -0.002580 0.000000 -0.004354 0.000000
# 3 -0.000416 -0.002580 0.008998 0.000000 -0.004453 0.000000
# 4 0.000000 0.000000 0.000000 0.136487 0.000000 -0.190989
# 5 -0.002481 -0.004354 -0.004453 0.000000 0.019993 0.000000
# 6 0.000000 0.000000 0.000000 -0.190989 0.000000 0.323867
#
#
# Mechanical properties :
#
#
# Convention : Reuss Voigt Hill
#
# Bulk Modulus (GPa) = 53.12536 90.63470 71.88003
# Shear Modulus (GPa) = 9.49911 48.42976 28.96443
#
# Velocity S-wave (km/s) = 1.85234 4.18250 3.23454
# Velocity P-wave (km/s) = 4.87487 7.48750 6.31771
#
# Compressibility (1/GPa) = 0.01882340
#
# Stress axis : x y z
#
# Youngs Moduli (GPa) = 178.23804 68.14188 111.13431
#
# Poissons Ratio (x) = 0.15224 0.04620
# Poissons Ratio (y) = 0.39822 0.28676
# Poissons Ratio (z) = 0.07409 0.17583
#
# Static dielectric constant tensor:
#      x y z
#    x 2.179940 0.000000 -0.123050 
#    y 0.000000 2.230050 0.000000 
#    z -0.123050 0.000000 2.253180 
# 
# From -- ./inp_files/128031.got.cif
#   From: 2010.05.17/outbox.cif.g08.bks.cpg/sg15_65_cif.got.tgz:128031.got - 2010.06.03 18:47:42.
