data_PCOD9306466
_publ_section_title
;
Structure prediction by ZEFSAII (Michael W. Deem and Ramdas Pophale) SiO2 
 PCOD9306466
Probable space group: C 2/C
;
_chemical_formula_sum "Si O2"
_cell_formula_units_Z 32
_cell_length_a 11.094594
_cell_length_b 15.491952
_cell_length_c 11.675252
_cell_angle_alpha 90.000000
_cell_angle_beta 141.541540
_cell_angle_gamma 90.000000
_cell_volume 1248.065130
_symmetry_space_group_name_H-M "C 2/C"
_symmetry_group_IT_number 15
_symmetry_cell_setting 'monoclinic'
loop_
_space_group_symop_operation_xyz
x,y,z
-x,y,1/2-z
-x,-y,-z
x,-y,1/2+z
1/2+x,1/2+y,z
1/2-x,1/2+y,1/2-z
1/2-x,1/2-y,-z
1/2+x,1/2-y,1/2+z
loop_
_atom_site_type_symbol
_atom_site_label
_atom_site_fract_x
_atom_site_fract_y
_atom_site_fract_z
Si Si1 0.690685 0.032630 0.206263
Si Si2 0.715293 0.852880 0.926330
Si Si3 0.809214 0.795022 0.663001
Si Si4 0.346100 0.350075 0.286587
O O1 0.682210 0.058402 0.333126
O O2 0.722018 0.123973 0.165158
O O3 0.833273 0.951195 0.307327
O O4 0.500000 0.000000 0.000000
O O5 0.500000 0.811068 0.750000
O O6 0.763119 0.850474 0.095755
O O7 0.926671 0.824690 0.033344
O O8 0.750000 0.750000 0.500000
O O9 0.782448 0.713655 0.730298
O O10 0.000000 0.837026 0.750000
#
# Coordination Sequence:
#
# PCOD9306466 Si02
#       4
#     8   8   8   8
#     4  12  26  47  82 123 171 222 277 348 429 505
#     4  11  25  48  83 114 167 217 288 339 424 503
#     4  12  29  51  82 120 172 221 283 344 428 510
#     4  11  27  51  82 125 167 226 281 351 430 497
#
# _framework density 25.639686999999999
#
# number of rings (size 3 to 8) (size 9 to 14) (size 15 to 20)
#    0.000    0.500    2.500    3.750    7.000    2.000 
#    4.500    0.000    0.000    1.500    0.000    0.000 
#    0.000    0.000    0.000    0.000    0.000    0.000 
#
# Total GULP energy -89110.290192 kJ/mol
# GULP energy per Si atom -5569.393137 kJ/mol
# Density = 2.558133 g / cm^3
# Si number density = 25.639687 Si / 1000 Ang^3
#
#
#
# Elastic Constant Matrix: (Units=GPa)
#
#
# Indices 1 2 3 4 5 6 
#
# 1 131.0893 58.1960 74.1292 0.0000 -16.0206 0.0000
# 2 58.1960 191.9577 63.8505 0.0000 -20.8897 0.0000
# 3 74.1292 63.8505 173.3930 0.0000 -24.0478 0.0000
# 4 0.0000 0.0000 0.0000 41.4385 0.0000 -6.6309
# 5 -16.0206 -20.8897 -24.0478 0.0000 55.8914 0.0000
# 6 0.0000 0.0000 0.0000 -6.6309 0.0000 18.8757
#
#
#
# Elastic Compliance Matrix: (Units=1/GPa)
#
#
# Indices 1 2 3 4 5 6 
#
# 1 0.010697 -0.001910 -0.003768 0.000000 0.000731 0.000000
# 2 -0.001910 0.006376 -0.001358 0.000000 0.001251 0.000000
# 3 -0.003768 -0.001358 0.008144 0.000000 0.001916 0.000000
# 4 0.000000 0.000000 0.000000 0.025570 0.000000 0.008982
# 5 0.000731 0.001251 0.001916 0.000000 0.019394 0.000000
# 6 0.000000 0.000000 0.000000 0.008982 0.000000 0.056134
#
#
# Mechanical properties :
#
#
# Convention : Reuss Voigt Hill
#
# Bulk Modulus (GPa) = 89.72898 98.75461 94.24179
# Shear Modulus (GPa) = 34.69786 43.25872 38.97829
#
# Velocity S-wave (km/s) = 3.68270 4.11198 3.90325
# Velocity P-wave (km/s) = 7.29075 7.81949 7.55975
#
# Compressibility (1/GPa) = 0.01114467
#
# Stress axis : x y z
#
# Youngs Moduli (GPa) = 93.48831 156.82849 122.78777
#
# Poissons Ratio (x) = 0.29952 0.46271
# Poissons Ratio (y) = 0.17855 0.16674
# Poissons Ratio (z) = 0.35230 0.21297
#
# Static dielectric constant tensor:
#      x y z
#    x 2.093840 0.000000 0.094460 
#    y 0.000000 2.025560 0.000000 
#    z 0.094460 0.000000 2.092470 
# 
# From -- ./inp_files/87656.got.cif
#   From: 2010.05.17/outbox.cif.g08.bks.cpg/sg15_44_cif.got.tgz:87656.got - 2010.06.03 18:47:42.
