data_PCOD9306571
_publ_section_title
;
Structure prediction by ZEFSAII (Michael W. Deem and Ramdas Pophale) SiO2 
 PCOD9306571
Probable space group: C 2/C
;
_chemical_formula_sum "Si O2"
_cell_formula_units_Z 32
_cell_length_a 5.313297
_cell_length_b 22.881391
_cell_length_c 11.182216
_cell_angle_alpha 90.000000
_cell_angle_beta 102.557189
_cell_angle_gamma 90.000000
_cell_volume 1326.965332
_symmetry_space_group_name_H-M "C 2/C"
_symmetry_group_IT_number 15
_symmetry_cell_setting 'monoclinic'
loop_
_space_group_symop_operation_xyz
x,y,z
-x,y,1/2-z
-x,-y,-z
x,-y,1/2+z
1/2+x,1/2+y,z
1/2-x,1/2+y,1/2-z
1/2-x,1/2-y,-z
1/2+x,1/2-y,1/2+z
loop_
_atom_site_type_symbol
_atom_site_label
_atom_site_fract_x
_atom_site_fract_y
_atom_site_fract_z
Si Si1 0.566271 0.422331 0.948462
Si Si2 0.884743 0.400170 0.405026
Si Si3 0.236658 0.225904 0.860421
Si Si4 0.500000 0.327255 0.750000
Si Si5 0.500000 0.521339 0.750000
O O1 0.615516 0.369425 0.861079
O O2 0.492412 0.478859 0.863420
O O3 0.330855 0.404534 0.010620
O O4 0.845820 0.429315 0.034864
O O5 0.918596 0.331392 0.381471
O O6 0.743362 0.436592 0.287876
O O7 0.310261 0.283377 0.795144
O O8 0.000000 0.203651 0.750000
O O9 0.250000 0.250000 0.000000
#
# Coordination Sequence:
#
# PCOD9306571 Si02
#       5
#     8   8   8   4   4
#     4  11  27  47  74 107 152 198 250 318 384 457
#     4  12  26  47  72 111 148 196 257 313 382 454
#     4  12  26  46  75 109 156 200 254 315 378 461
#     4  11  26  44  76 110 154 203 252 314 394 451
#     4  11  26  48  76 106 146 199 258 314 384 453
#
# _framework density 24.115176000000002
#
# number of rings (size 3 to 8) (size 9 to 14) (size 15 to 20)
#    0.000    0.500    3.750    3.000    3.500    8.000 
#    0.000    0.000    0.000    0.000    0.000    0.000 
#    0.000    0.000    0.000    0.000    0.000    0.000 
#
# Total GULP energy -89422.238640 kJ/mol
# GULP energy per Si atom -5588.889915 kJ/mol
# Density = 2.406029 g / cm^3
# Si number density = 24.115176 Si / 1000 Ang^3
#
#
#
# Elastic Constant Matrix: (Units=GPa)
#
#
# Indices 1 2 3 4 5 6 
#
# 1 106.3621 27.8534 76.2721 0.0000 5.7157 0.0000
# 2 27.8534 164.8898 41.1373 0.0000 5.0517 0.0000
# 3 76.2721 41.1373 154.5352 0.0000 2.5869 0.0000
# 4 0.0000 0.0000 0.0000 174.0120 0.0000 -40.9911
# 5 5.7157 5.0517 2.5869 0.0000 45.5428 0.0000
# 6 0.0000 0.0000 0.0000 -40.9911 0.0000 38.2409
#
#
#
# Elastic Compliance Matrix: (Units=1/GPa)
#
#
# Indices 1 2 3 4 5 6 
#
# 1 0.014716 -0.000683 -0.007058 0.000000 -0.001370 0.000000
# 2 -0.000683 0.006545 -0.001396 0.000000 -0.000561 0.000000
# 3 -0.007058 -0.001396 0.010319 0.000000 0.000455 0.000000
# 4 0.000000 0.000000 0.000000 0.007688 0.000000 0.008241
# 5 -0.001370 -0.000561 0.000455 0.000000 0.022166 0.000000
# 6 0.000000 0.000000 0.000000 0.008241 0.000000 0.034984
#
#
# Mechanical properties :
#
#
# Convention : Reuss Voigt Hill
#
# Bulk Modulus (GPa) = 75.15656 79.59030 77.37343
# Shear Modulus (GPa) = 41.97194 70.26076 56.11635
#
# Velocity S-wave (km/s) = 4.17643 5.40359 4.82915
# Velocity P-wave (km/s) = 7.38174 8.48573 7.95291
#
# Compressibility (1/GPa) = 0.01330556
#
# Stress axis : x y z
#
# Youngs Moduli (GPa) = 67.95368 152.77739 96.91081
#
# Poissons Ratio (x) = 0.10433 0.68404
# Poissons Ratio (y) = 0.04640 0.13528
# Poissons Ratio (z) = 0.47965 0.21327
#
# Static dielectric constant tensor:
#      x y z
#    x 1.865790 0.000000 0.046210 
#    y 0.000000 1.946860 0.000000 
#    z 0.046210 0.000000 1.953750 
# 
# From -- ./inp_files/72138.got.cif
#   From: 2010.05.17/outbox.cif.g08.bks.cpg/sg15_37_cif.got.tgz:72138.got - 2010.06.03 18:47:42.
