data_PCOD9306539
_publ_section_title
;
Structure prediction by ZEFSAII (Michael W. Deem and Ramdas Pophale) SiO2 
 PCOD9306539
Probable space group: C 2/C
;
_chemical_formula_sum "Si O2"
_cell_formula_units_Z 40
_cell_length_a 18.418939
_cell_length_b 7.905865
_cell_length_c 10.087686
_cell_angle_alpha 90.000000
_cell_angle_beta 77.219270
_cell_angle_gamma 90.000000
_cell_volume 1432.550220
_symmetry_space_group_name_H-M "C 2/C"
_symmetry_group_IT_number 15
_symmetry_cell_setting 'monoclinic'
loop_
_space_group_symop_operation_xyz
x,y,z
-x,y,1/2-z
-x,-y,-z
x,-y,1/2+z
1/2+x,1/2+y,z
1/2-x,1/2+y,1/2-z
1/2-x,1/2-y,-z
1/2+x,1/2-y,1/2+z
loop_
_atom_site_type_symbol
_atom_site_label
_atom_site_fract_x
_atom_site_fract_y
_atom_site_fract_z
Si Si1 0.154206 0.749087 0.698667
Si Si2 0.572511 0.512187 0.064424
Si Si3 0.727447 0.459178 0.854204
Si Si4 0.370450 0.205318 0.308643
Si Si5 0.413005 0.985160 0.050565
O O1 0.087713 0.808296 0.629541
O O2 0.220782 0.619647 0.638840
O O3 0.115755 0.668819 0.844831
O O4 0.199445 0.920888 0.716602
O O5 0.578792 0.362755 0.171184
O O6 0.500000 0.500000 0.000000
O O7 0.649780 0.482384 0.956805
O O8 0.780802 0.297010 0.858155
O O9 0.385613 0.142338 0.152597
O O10 0.390039 0.062478 0.410753
O O11 0.500000 0.000000 0.000000
#
# Coordination Sequence:
#
# PCOD9306539 Si02
#       5
#     8   8   8   8   8
#     4  11  26  52  83 122 162 228 280 347 418 511
#     4  12  28  52  81 124 176 217 278 352 429 490
#     4  11  25  52  84 115 170 217 290 334 423 499
#     4  11  26  51  89 117 164 226 278 341 418 503
#     4  11  26  53  80 124 170 216 282 343 423 497
#
# _framework density 27.922234
#
# number of rings (size 3 to 8) (size 9 to 14) (size 15 to 20)
#    0.000    0.800    2.000    3.000    5.600    5.600 
#   25.200    1.000    0.000    0.000    0.000    0.000 
#    0.000    0.000    0.000    0.000    0.000    0.000 
#
# Total GULP energy -111857.193097 kJ/mol
# GULP energy per Si atom -5592.859655 kJ/mol
# Density = 2.785868 g / cm^3
# Si number density = 27.922234 Si / 1000 Ang^3
#
#
#
# Elastic Constant Matrix: (Units=GPa)
#
#
# Indices 1 2 3 4 5 6 
#
# 1 227.8088 36.5066 34.3203 0.0000 0.3248 0.0000
# 2 36.5066 130.1456 13.3209 0.0000 7.3503 0.0000
# 3 34.3203 13.3209 70.5912 0.0000 -12.2750 0.0000
# 4 0.0000 0.0000 0.0000 49.4437 0.0000 21.8459
# 5 0.3248 7.3503 -12.2750 0.0000 70.2786 0.0000
# 6 0.0000 0.0000 0.0000 21.8459 0.0000 35.7252
#
#
#
# Elastic Compliance Matrix: (Units=1/GPa)
#
#
# Indices 1 2 3 4 5 6 
#
# 1 0.004906 -0.001132 -0.002223 0.000000 -0.000292 0.000000
# 2 -0.001132 0.008181 -0.001177 0.000000 -0.001056 0.000000
# 3 -0.002223 -0.001177 0.015977 0.000000 0.002924 0.000000
# 4 0.000000 0.000000 0.000000 0.027712 0.000000 -0.016946
# 5 -0.000292 -0.001056 0.002924 0.000000 0.014852 0.000000
# 6 0.000000 0.000000 0.000000 -0.016946 0.000000 0.038354
#
#
# Mechanical properties :
#
#
# Convention : Reuss Voigt Hill
#
# Bulk Modulus (GPa) = 49.99682 66.31569 58.15626
# Shear Modulus (GPa) = 39.77292 54.04936 46.91114
#
# Velocity S-wave (km/s) = 3.77824 4.40444 4.10331
# Velocity P-wave (km/s) = 6.08096 7.04750 6.58199
#
# Compressibility (1/GPa) = 0.02000127
#
# Stress axis : x y z
#
# Youngs Moduli (GPa) = 203.81757 122.22814 62.58916
#
# Poissons Ratio (x) = 0.13839 0.13911
# Poissons Ratio (y) = 0.23077 0.07367
# Poissons Ratio (z) = 0.45300 0.14386
#
# Static dielectric constant tensor:
#      x y z
#    x 2.159380 0.000000 0.123650 
#    y 0.000000 2.443600 0.000000 
#    z 0.123650 0.000000 2.337560 
# 
# From -- ./inp_files/102666.got.cif
#   From: 2010.05.17/outbox.cif.g08.bks.cpg/sg15_52_cif.got.tgz:102666.got - 2010.06.03 18:47:42.
