data_PCOD9306686
_publ_section_title
;
Structure prediction by ZEFSAII (Michael W. Deem and Ramdas Pophale) SiO2 
 PCOD9306686
Probable space group: C 2/C
;
_chemical_formula_sum "Si O2"
_cell_formula_units_Z 32
_cell_length_a 12.375390
_cell_length_b 17.146377
_cell_length_c 8.076985
_cell_angle_alpha 90.000000
_cell_angle_beta 135.758248
_cell_angle_gamma 90.000000
_cell_volume 1195.752727
_symmetry_space_group_name_H-M "C 2/C"
_symmetry_group_IT_number 15
_symmetry_cell_setting 'monoclinic'
loop_
_space_group_symop_operation_xyz
x,y,z
-x,y,1/2-z
-x,-y,-z
x,-y,1/2+z
1/2+x,1/2+y,z
1/2-x,1/2+y,1/2-z
1/2-x,1/2-y,-z
1/2+x,1/2-y,1/2+z
loop_
_atom_site_type_symbol
_atom_site_label
_atom_site_fract_x
_atom_site_fract_y
_atom_site_fract_z
Si Si1 0.407365 0.156674 0.971417
Si Si2 0.385876 0.572832 0.418384
Si Si3 0.674576 0.004232 0.475111
Si Si4 0.929682 0.787732 0.493678
O O1 0.248583 0.201278 0.751939
O O2 0.528583 0.197724 0.985899
O O3 0.500000 0.163057 0.250000
O O4 0.352779 0.067245 0.906254
O O5 0.500000 0.500000 0.500000
O O6 0.279548 0.551917 0.459206
O O7 0.477852 0.652976 0.526732
O O8 0.270219 0.569645 0.136958
O O9 0.500000 0.981916 0.250000
O O10 0.000000 0.809370 0.750000
#
# Coordination Sequence:
#
# PCOD9306686 Si02
#       4
#     8   8   8   8
#     4  11  27  47  76 108 151 197 249 304 372 447
#     4  12  25  46  77 105 149 194 249 305 377 443
#     4  11  26  48  72 110 146 196 249 311 370 446
#     4  12  27  48  75 113 151 196 249 309 374 442
#
# _framework density 26.761385000000001
#
# number of rings (size 3 to 8) (size 9 to 14) (size 15 to 20)
#    0.000    0.500    2.500    4.500   10.500    0.000 
#    0.000    0.000    0.000    0.000    0.000    0.000 
#    0.000    0.000    0.000    0.000    0.000    0.000 
#
# Total GULP energy -89473.462729 kJ/mol
# GULP energy per Si atom -5592.091421 kJ/mol
# Density = 2.670047 g / cm^3
# Si number density = 26.761385 Si / 1000 Ang^3
#
#
#
# Elastic Constant Matrix: (Units=GPa)
#
#
# Indices 1 2 3 4 5 6 
#
# 1 113.2634 29.2732 43.6808 0.0000 5.6678 0.0000
# 2 29.2732 76.4849 16.3744 0.0000 10.5326 0.0000
# 3 43.6808 16.3744 155.4393 0.0000 30.9277 0.0000
# 4 0.0000 0.0000 0.0000 24.1824 0.0000 8.2601
# 5 5.6678 10.5326 30.9277 0.0000 50.7445 0.0000
# 6 0.0000 0.0000 0.0000 8.2601 0.0000 49.9051
#
#
#
# Elastic Compliance Matrix: (Units=1/GPa)
#
#
# Indices 1 2 3 4 5 6 
#
# 1 0.010849 -0.003711 -0.002925 0.000000 0.001341 0.000000
# 2 -0.003711 0.014861 0.000010 0.000000 -0.002676 0.000000
# 3 -0.002925 0.000010 0.008182 0.000000 -0.004662 0.000000
# 4 0.000000 0.000000 0.000000 0.043830 0.000000 -0.007255
# 5 0.001341 -0.002676 -0.004662 0.000000 0.022954 0.000000
# 6 0.000000 0.000000 0.000000 -0.007255 0.000000 0.021239
#
#
# Mechanical properties :
#
#
# Convention : Reuss Voigt Hill
#
# Bulk Modulus (GPa) = 48.44837 58.20493 53.32665
# Shear Modulus (GPa) = 35.19988 42.02368 38.61178
#
# Velocity S-wave (km/s) = 3.63067 3.96701 3.80256
# Velocity P-wave (km/s) = 5.97653 6.54062 6.26493
#
# Compressibility (1/GPa) = 0.02064053
#
# Stress axis : x y z
#
# Youngs Moduli (GPa) = 92.17610 67.28971 122.22241
#
# Poissons Ratio (x) = 0.24969 0.35745
# Poissons Ratio (y) = 0.34204 -0.00119
# Poissons Ratio (z) = 0.26958 -0.00065
#
# Static dielectric constant tensor:
#      x y z
#    x 2.083060 0.000000 -0.079650 
#    y 0.000000 1.991510 0.000000 
#    z -0.079650 0.000000 2.138440 
# 
# From -- ./inp_files/41110.got.cif
#   From: 2010.05.17/outbox.cif.g08.bks.cpg/sg15_21_cif.got.tgz:41110.got - 2010.06.03 18:47:42.
