data_PCOD9306987
_publ_section_title
;
Structure prediction by ZEFSAII (Michael W. Deem and Ramdas Pophale) SiO2 
 PCOD9306987
Probable space group: C 2/C
;
_chemical_formula_sum "Si O2"
_cell_formula_units_Z 44
_cell_length_a 31.225137
_cell_length_b 11.526098
_cell_length_c 18.811187
_cell_angle_alpha 90.000000
_cell_angle_beta 16.718239
_cell_angle_gamma 90.000000
_cell_volume 1947.558466
_symmetry_space_group_name_H-M "C 2/C"
_symmetry_group_IT_number 15
_symmetry_cell_setting 'monoclinic'
loop_
_space_group_symop_operation_xyz
x,y,z
-x,y,1/2-z
-x,-y,-z
x,-y,1/2+z
1/2+x,1/2+y,z
1/2-x,1/2+y,1/2-z
1/2-x,1/2-y,-z
1/2+x,1/2-y,1/2+z
loop_
_atom_site_type_symbol
_atom_site_label
_atom_site_fract_x
_atom_site_fract_y
_atom_site_fract_z
Si Si1 0.936003 0.129390 0.615618
Si Si2 0.500000 0.596368 0.250000
Si Si3 0.237560 0.783118 0.678500
Si Si4 0.313905 0.556480 0.953607
Si Si5 0.309492 0.200323 0.217903
Si Si6 0.144552 0.641003 0.645442
O O1 0.073320 0.219776 0.405612
O O2 0.854555 0.131064 0.820466
O O3 0.833133 0.173091 0.715142
O O4 0.000000 0.000000 0.500000
O O5 0.352407 0.674827 0.494927
O O6 0.542031 0.516730 0.249913
O O7 0.213223 0.808992 0.799885
O O8 0.320055 0.874112 0.494734
O O9 0.252652 0.622741 0.119424
O O10 0.195017 0.465187 0.112906
O O11 0.472647 0.164931 0.930595
O O12 0.250000 0.750000 0.500000
#
# Coordination Sequence:
#
# PCOD9306987 Si02
#       6
#     8   4   8   8   8   8
#     4  12  24  45  71 100 141 191 228 282 360 424
#     4  12  22  44  72 102 128 180 246 284 334 426
#     4  12  23  41  73  98 130 178 246 282 331 421
#     4  12  25  42  68 101 143 182 223 295 366 408
#     4  12  25  42  67 103 143 179 229 293 346 421
#     4  12  20  44  67  98 130 185 237 278 335 420
#
# _framework density 22.592390000000002
#
# number of rings (size 3 to 8) (size 9 to 14) (size 15 to 20)
#    0.000    0.000    7.273    3.273    0.000    0.000 
#    0.000    0.000    0.000    1.091    0.000    0.000 
#    0.000    0.000    0.000    0.000    0.000    0.000 
#
# Total GULP energy -122943.199789 kJ/mol
# GULP energy per Si atom -5588.327263 kJ/mol
# Density = 2.254097 g / cm^3
# Si number density = 22.592390 Si / 1000 Ang^3
#
#
#
# Elastic Constant Matrix: (Units=GPa)
#
#
# Indices 1 2 3 4 5 6 
#
# 1 142.3748 23.1295 -2.0663 -0.0002 30.9365 0.0006
# 2 23.1295 67.1632 7.8190 0.0000 8.8456 0.0003
# 3 -2.0663 7.8190 51.0293 -0.0001 19.3743 0.0006
# 4 -0.0002 0.0000 -0.0001 21.7435 0.0001 6.6119
# 5 30.9365 8.8456 19.3743 0.0001 53.6160 -0.0004
# 6 0.0006 0.0003 0.0006 6.6119 -0.0004 30.5078
#
#
#
# Elastic Compliance Matrix: (Units=1/GPa)
#
#
# Indices 1 2 3 4 5 6 
#
# 1 0.008714 -0.002594 0.002894 0.000000 -0.005646 0.000000
# 2 -0.002594 0.016105 -0.002471 0.000000 -0.000267 0.000000
# 3 0.002894 -0.002471 0.023843 0.000000 -0.009878 -0.000001
# 4 0.000000 0.000000 0.000000 0.049236 0.000000 -0.010671
# 5 -0.005646 -0.000267 -0.009878 0.000000 0.025522 0.000001
# 6 0.000000 0.000000 -0.000001 -0.010671 0.000001 0.035091
#
#
# Mechanical properties :
#
#
# Convention : Reuss Voigt Hill
#
# Bulk Modulus (GPa) = 22.56397 35.37019 28.96708
# Shear Modulus (GPa) = 28.14886 36.61914 32.38400
#
# Velocity S-wave (km/s) = 3.53362 4.03036 3.79014
# Velocity P-wave (km/s) = 5.16311 6.11132 5.65712
#
# Compressibility (1/GPa) = 0.04431845
#
# Stress axis : x y z
#
# Youngs Moduli (GPa) = 114.75934 62.09103 41.94160
#
# Poissons Ratio (x) = 0.16108 -0.12137
# Poissons Ratio (y) = 0.29771 0.10365
# Poissons Ratio (z) = -0.33209 0.15345
#
# Static dielectric constant tensor:
#      x y z
#    x 1.881640 0.000000 0.015410 
#    y 0.000000 1.874470 0.000000 
#    z 0.015410 0.000000 1.834280 
# 
# From -- ./inp_files/225114.got.cif
#   From: 2010.05.17/outbox.cif.g08.bks.cpg/sg15_113_cif.got.tgz:225114.got - 2010.06.03 18:47:42.
