data_PCOD9306639
_publ_section_title
;
Structure prediction by ZEFSAII (Michael W. Deem and Ramdas Pophale) SiO2 
 PCOD9306639
Probable space group: C 2/C
;
_chemical_formula_sum "Si O2"
_cell_formula_units_Z 52
_cell_length_a 25.264423
_cell_length_b 5.165726
_cell_length_c 17.063664
_cell_angle_alpha 90.000000
_cell_angle_beta 82.089621
_cell_angle_gamma 90.000000
_cell_volume 2205.772647
_symmetry_space_group_name_H-M "C 2/C"
_symmetry_group_IT_number 15
_symmetry_cell_setting 'monoclinic'
loop_
_space_group_symop_operation_xyz
x,y,z
-x,y,1/2-z
-x,-y,-z
x,-y,1/2+z
1/2+x,1/2+y,z
1/2-x,1/2+y,1/2-z
1/2-x,1/2-y,-z
1/2+x,1/2-y,1/2+z
loop_
_atom_site_type_symbol
_atom_site_label
_atom_site_fract_x
_atom_site_fract_y
_atom_site_fract_z
Si Si1 0.887047 0.613571 0.770243
Si Si2 0.127037 0.573533 0.381911
Si Si3 0.073077 0.256876 0.519923
Si Si4 0.756214 0.585950 0.192792
Si Si5 0.000000 0.279375 0.250000
Si Si6 0.152321 0.888198 0.137924
Si Si7 0.530924 0.408591 0.385335
O O1 0.874618 0.656791 0.681411
O O2 0.852624 0.385280 0.815891
O O3 0.948455 0.546423 0.771058
O O4 0.879976 0.885698 0.813211
O O5 0.099942 0.498383 0.469308
O O6 0.188598 0.650915 0.364003
O O7 0.084868 0.764079 0.350393
O O8 0.121929 0.147317 0.561777
O O9 0.018263 0.282925 0.581013
O O10 0.051643 0.068502 0.456391
O O11 0.740838 0.840541 0.247159
O O12 0.712453 0.494464 0.137386
O O13 0.990166 0.099966 0.176658
#
# Coordination Sequence:
#
# PCOD9306639 Si02
#       7
#     8   8   8   8   4   8   8
#     4  12  26  44  75 109 146 193 259 295 373 445
#     4  12  26  44  78 104 152 198 252 309 378 446
#     4  11  27  45  71 106 162 187 243 307 395 445
#     4  12  26  48  78 111 145 193 263 320 362 433
#     4  12  24  44  76 110 146 202 256 312 370 462
#     4  12  26  49  72 109 148 200 241 318 370 446
#     4  11  26  47  69 111 151 197 246 305 381 453
#
# _framework density 23.574504000000001
#
# number of rings (size 3 to 8) (size 9 to 14) (size 15 to 20)
#    0.000    0.308    6.154    1.385    6.462    1.231 
#    0.000    0.769    0.000    0.000    0.000    0.000 
#    0.000    0.000    0.000    0.000    0.000    0.000 
#
# Total GULP energy -145252.921712 kJ/mol
# GULP energy per Si atom -5586.650835 kJ/mol
# Density = 2.352085 g / cm^3
# Si number density = 23.574504 Si / 1000 Ang^3
#
#
#
# Elastic Constant Matrix: (Units=GPa)
#
#
# Indices 1 2 3 4 5 6 
#
# 1 198.6186 13.1909 44.4714 0.0000 -10.8735 0.0000
# 2 13.1909 80.5252 17.6138 0.0000 -2.7736 0.0000
# 3 44.4714 17.6138 67.4535 0.0000 11.3044 0.0000
# 4 0.0000 0.0000 0.0000 166.4323 0.0000 64.8381
# 5 -10.8735 -2.7736 11.3044 0.0000 50.2608 0.0000
# 6 0.0000 0.0000 0.0000 64.8381 0.0000 65.7468
#
#
#
# Elastic Compliance Matrix: (Units=1/GPa)
#
#
# Indices 1 2 3 4 5 6 
#
# 1 0.006160 0.000048 -0.004466 0.000000 0.002340 0.000000
# 2 0.000048 0.013290 -0.003769 0.000000 0.001592 0.000000
# 3 -0.004466 -0.003769 0.019692 0.000000 -0.005603 0.000000
# 4 0.000000 0.000000 0.000000 0.009757 0.000000 -0.009622
# 5 0.002340 0.001592 -0.005603 0.000000 0.021750 0.000000
# 6 0.000000 0.000000 0.000000 -0.009622 0.000000 0.024699
#
#
# Mechanical properties :
#
#
# Convention : Reuss Voigt Hill
#
# Bulk Modulus (GPa) = 43.91874 55.23884 49.57879
# Shear Modulus (GPa) = 41.90753 74.57604 58.24179
#
# Velocity S-wave (km/s) = 4.22081 5.63053 4.97585
# Velocity P-wave (km/s) = 6.51336 8.10882 7.35448
#
# Compressibility (1/GPa) = 0.02276932
#
# Stress axis : x y z
#
# Youngs Moduli (GPa) = 162.35038 75.24584 50.78113
#
# Poissons Ratio (x) = -0.00364 0.22677
# Poissons Ratio (y) = -0.00786 0.19139
# Poissons Ratio (z) = 0.72500 0.28359
#
# Static dielectric constant tensor:
#      x y z
#    x 1.953890 0.000000 -0.039230 
#    y 0.000000 1.903580 0.000000 
#    z -0.039230 0.000000 1.947540 
# 
# From -- ./inp_files/220875.got.cif
#   From: 2010.05.17/outbox.cif.g08.bks.cpg/sg15_111_cif.got.tgz:220875.got - 2010.06.03 18:47:42.
