data_PCOD9306420
_publ_section_title
;
Structure prediction by ZEFSAII (Michael W. Deem and Ramdas Pophale) SiO2 
 PCOD9306420
Probable space group: C 2/C
;
_chemical_formula_sum "Si O2"
_cell_formula_units_Z 48
_cell_length_a 11.872116
_cell_length_b 16.240929
_cell_length_c 24.858818
_cell_angle_alpha 90.000000
_cell_angle_beta 26.649858
_cell_angle_gamma 90.000000
_cell_volume 2149.897461
_symmetry_space_group_name_H-M "C 2/C"
_symmetry_group_IT_number 15
_symmetry_cell_setting 'monoclinic'
loop_
_space_group_symop_operation_xyz
x,y,z
-x,y,1/2-z
-x,-y,-z
x,-y,1/2+z
1/2+x,1/2+y,z
1/2-x,1/2+y,1/2-z
1/2-x,1/2-y,-z
1/2+x,1/2-y,1/2+z
loop_
_atom_site_type_symbol
_atom_site_label
_atom_site_fract_x
_atom_site_fract_y
_atom_site_fract_z
Si Si1 0.738325 0.282164 0.445023
Si Si2 0.474231 0.330432 0.367905
Si Si3 0.500000 0.042779 0.250000
Si Si4 0.000000 0.166612 0.250000
Si Si5 0.051611 0.437766 0.326030
Si Si6 0.505753 0.942172 0.945536
Si Si7 0.716390 0.685093 0.430978
O O1 0.750000 0.250000 0.500000
O O2 0.925845 0.226410 0.330256
O O3 0.465775 0.274310 0.534859
O O4 0.823889 0.377274 0.407874
O O5 0.726162 0.378961 0.248543
O O6 0.442371 0.322097 0.446030
O O7 0.448560 0.242741 0.349653
O O8 0.232314 0.382069 0.452480
O O9 0.316639 0.101025 0.362768
O O10 0.633353 0.985975 0.237441
O O11 0.762024 0.110190 0.336807
O O12 0.989126 0.501956 0.399415
O O13 0.500000 0.000000 0.000000
#
# Coordination Sequence:
#
# PCOD9306420 Si02
#       7
#     8   8   4   4   8   8   8
#     4  12  28  47  76 106 146 199 249 295 365 449
#     4  11  25  48  73 105 145 190 240 299 359 440
#     4  12  27  44  77 112 146 190 236 312 371 432
#     4  12  25  50  73 100 152 194 246 300 361 442
#     4  12  28  44  74 109 146 187 238 302 371 427
#     4  12  26  47  70 108 144 191 240 307 365 430
#     4  11  26  47  74 105 147 189 247 295 363 438
#
# _framework density 22.326647000000001
#
# number of rings (size 3 to 8) (size 9 to 14) (size 15 to 20)
#    0.000    0.333    3.333    4.500    9.333    1.333 
#    0.000    0.000    0.000    0.000    0.000    0.000 
#    0.000    0.000    0.000    0.000    0.000    0.000 
#
# Total GULP energy -134493.345012 kJ/mol
# GULP energy per Si atom -5603.889376 kJ/mol
# Density = 2.227583 g / cm^3
# Si number density = 22.326647 Si / 1000 Ang^3
#
#
#
# Elastic Constant Matrix: (Units=GPa)
#
#
# Indices 1 2 3 4 5 6 
#
# 1 130.4377 42.8767 22.9869 0.0210 23.1474 0.0165
# 2 42.8767 94.3132 8.4313 0.0394 21.3561 -0.0180
# 3 22.9869 8.4313 37.7975 0.0257 5.7320 0.1562
# 4 0.0210 0.0394 0.0257 35.6674 0.0335 -10.4407
# 5 23.1474 21.3561 5.7320 0.0335 36.1174 -0.0042
# 6 0.0165 -0.0180 0.1562 -10.4407 -0.0042 34.5719
#
#
#
# Elastic Compliance Matrix: (Units=1/GPa)
#
#
# Indices 1 2 3 4 5 6 
#
# 1 0.010332 -0.003387 -0.004947 0.000010 -0.003834 0.000018
# 2 -0.003387 0.013456 -0.000066 -0.000005 -0.005776 0.000007
# 3 -0.004947 -0.000066 0.029709 -0.000061 -0.001506 -0.000151
# 4 0.000010 -0.000005 -0.000061 0.030756 -0.000021 0.009288
# 5 -0.003834 -0.005776 -0.001506 -0.000021 0.033799 0.000003
# 6 0.000018 0.000007 -0.000151 0.009288 0.000003 0.031731
#
#
# Mechanical properties :
#
#
# Convention : Reuss Voigt Hill
#
# Bulk Modulus (GPa) = 27.24928 45.68202 36.46565
# Shear Modulus (GPa) = 27.96197 33.82159 30.89178
#
# Velocity S-wave (km/s) = 3.54277 3.89633 3.72375
# Velocity P-wave (km/s) = 5.38203 6.38334 5.90395
#
# Compressibility (1/GPa) = 0.03669822
#
# Stress axis : x y z
#
# Youngs Moduli (GPa) = 96.78796 74.31418 33.66002
#
# Poissons Ratio (x) = 0.25168 0.16650
# Poissons Ratio (y) = 0.32779 0.00223
# Poissons Ratio (z) = 0.47877 0.00491
#
# Static dielectric constant tensor:
#      x y z
#    x 1.910740 0.000030 0.087190 
#    y 0.000030 1.774330 -0.000050 
#    z 0.087190 -0.000050 1.891690 
# 
# From -- ./inp_files/293020.got.cif
#   From: 2010.05.17/outbox.cif.g08.bks.cpg/sg15_147_cif.got.tgz:293020.got - 2010.06.03 18:47:42.
