data_PCOD9306040
_publ_section_title
;
Structure prediction by ZEFSAII (Michael W. Deem and Ramdas Pophale) SiO2 
 PCOD9306040
Probable space group: C 2/C
;
_chemical_formula_sum "Si O2"
_cell_formula_units_Z 32
_cell_length_a 13.196417
_cell_length_b 5.120483
_cell_length_c 24.324041
_cell_angle_alpha 90.000000
_cell_angle_beta 57.845586
_cell_angle_gamma 90.000000
_cell_volume 1391.520482
_symmetry_space_group_name_H-M "C 2/C"
_symmetry_group_IT_number 15
_symmetry_cell_setting 'monoclinic'
loop_
_space_group_symop_operation_xyz
x,y,z
-x,y,1/2-z
-x,-y,-z
x,-y,1/2+z
1/2+x,1/2+y,z
1/2-x,1/2+y,1/2-z
1/2-x,1/2-y,-z
1/2+x,1/2-y,1/2+z
loop_
_atom_site_type_symbol
_atom_site_label
_atom_site_fract_x
_atom_site_fract_y
_atom_site_fract_z
Si Si1 0.015584 0.749324 0.457666
Si Si2 0.089247 0.829198 0.793475
Si Si3 0.064889 0.676687 0.135313
Si Si4 0.245777 0.443547 0.162491
O O1 0.147689 0.771670 0.393188
O O2 0.000000 0.500000 0.500000
O O3 0.926139 0.747076 0.431462
O O4 0.000000 0.000000 0.500000
O O5 0.145975 0.735881 0.720058
O O6 0.009855 0.592092 0.839241
O O7 0.196068 0.884577 0.805768
O O8 0.012178 0.093102 0.814675
O O9 0.185645 0.621199 0.133386
#
# Coordination Sequence:
#
# PCOD9306040 Si02
#       4
#     8   8   8   8
#     4  11  25  45  67  98 136 180 236 277 319 399
#     4  11  25  43  68 105 136 168 223 280 345 417
#     4  11  26  45  70 102 135 176 225 278 343 410
#     4  11  25  45  71  98 141 181 216 284 348 392
#
# _framework density 22.996428000000002
#
# number of rings (size 3 to 8) (size 9 to 14) (size 15 to 20)
#    0.000    1.000    0.000    6.750    0.000   18.000 
#    0.000    0.000    0.000    0.000    0.000    0.000 
#    0.000    0.000    0.000    0.000    0.000    0.000 
#
# Total GULP energy -89730.288923 kJ/mol
# GULP energy per Si atom -5608.143058 kJ/mol
# Density = 2.294409 g / cm^3
# Si number density = 22.996428 Si / 1000 Ang^3
#
#
#
# Elastic Constant Matrix: (Units=GPa)
#
#
# Indices 1 2 3 4 5 6 
#
# 1 145.5531 39.8205 23.4118 -0.0041 44.5988 0.0009
# 2 39.8205 132.5783 17.3930 0.0307 18.3654 0.0211
# 3 23.4118 17.3930 89.9274 0.0029 35.1468 0.0043
# 4 -0.0041 0.0307 0.0029 32.9671 0.0037 1.3581
# 5 44.5988 18.3654 35.1468 0.0037 39.1501 0.0019
# 6 0.0009 0.0211 0.0043 1.3581 0.0019 42.9810
#
#
#
# Elastic Compliance Matrix: (Units=1/GPa)
#
#
# Indices 1 2 3 4 5 6 
#
# 1 0.011488 -0.001775 0.003300 0.000004 -0.015216 0.000001
# 2 -0.001775 0.008342 -0.000635 -0.000008 -0.001321 -0.000004
# 3 0.003300 -0.000635 0.018080 0.000002 -0.019692 -0.000001
# 4 0.000004 -0.000008 0.000002 0.030373 -0.000006 -0.000960
# 5 -0.015216 -0.001321 -0.019692 -0.000006 0.061174 0.000000
# 6 0.000001 -0.000004 -0.000001 -0.000960 0.000000 0.023296
#
#
# Mechanical properties :
#
#
# Convention : Reuss Voigt Hill
#
# Bulk Modulus (GPa) = 25.19650 58.81217 42.00433
# Shear Modulus (GPa) = 30.44969 42.18185 36.31577
#
# Velocity S-wave (km/s) = 3.64277 4.28749 3.97822
# Velocity P-wave (km/s) = 5.35477 7.08097 6.27749
#
# Compressibility (1/GPa) = 0.03968806
#
# Stress axis : x y z
#
# Youngs Moduli (GPa) = 87.05064 119.87175 55.30851
#
# Poissons Ratio (x) = 0.21283 -0.18249
# Poissons Ratio (y) = 0.15456 0.03513
# Poissons Ratio (z) = -0.28722 0.07613
#
# Static dielectric constant tensor:
#      x y z
#    x 1.900680 0.000000 0.010960 
#    y 0.000000 1.812330 0.000000 
#    z 0.010960 0.000000 1.832180 
# 
# From -- ./inp_files/241390.got.cif
#   From: 2010.05.17/outbox.cif.g08.bks.cpg/sg15_121_cif.got.tgz:241390.got - 2010.06.03 18:47:42.
