data_PCOD9306352
_publ_section_title
;
Structure prediction by ZEFSAII (Michael W. Deem and Ramdas Pophale) SiO2 
 PCOD9306352
Probable space group: C 2/C
;
_chemical_formula_sum "Si O2"
_cell_formula_units_Z 44
_cell_length_a 6.744263
_cell_length_b 13.437141
_cell_length_c 19.786546
_cell_angle_alpha 90.000000
_cell_angle_beta 71.375994
_cell_angle_gamma 90.000000
_cell_volume 1699.230563
_symmetry_space_group_name_H-M "C 2/C"
_symmetry_group_IT_number 15
_symmetry_cell_setting 'monoclinic'
loop_
_space_group_symop_operation_xyz
x,y,z
-x,y,1/2-z
-x,-y,-z
x,-y,1/2+z
1/2+x,1/2+y,z
1/2-x,1/2+y,1/2-z
1/2-x,1/2-y,-z
1/2+x,1/2-y,1/2+z
loop_
_atom_site_type_symbol
_atom_site_label
_atom_site_fract_x
_atom_site_fract_y
_atom_site_fract_z
Si Si1 0.051356 0.042083 0.312800
Si Si2 0.500000 0.875858 0.250000
Si Si3 0.851806 0.543900 0.622637
Si Si4 0.163030 0.287992 0.787984
Si Si5 0.091469 0.782295 0.074441
Si Si6 0.683821 0.550089 0.936802
O O1 0.189921 0.131377 0.266603
O O2 0.000000 0.980207 0.250000
O O3 0.170119 0.996903 0.362888
O O4 0.811085 0.048615 0.365886
O O5 0.583892 0.935330 0.305803
O O6 0.683615 0.800775 0.208356
O O7 0.718231 0.636329 0.606406
O O8 0.080054 0.537380 0.563576
O O9 0.000000 0.253667 0.750000
O O10 0.004665 0.303897 0.868066
O O11 0.896260 0.837402 0.060532
O O12 0.250000 0.750000 0.000000
O O13 0.500000 0.500000 0.000000
#
# Coordination Sequence:
#
# PCOD9306352 Si02
#       6
#     8   4   8   8   8   8
#     4  11  27  43  72 113 147 196 263 315 385 467
#     4  12  22  46  78 106 144 194 254 324 384 446
#     4  11  25  47  72 107 151 201 255 319 392 459
#     4  12  26  46  75 116 150 198 263 322 383 461
#     4  11  27  48  75 110 157 205 260 321 395 467
#     4  11  27  47  73 109 157 208 252 321 400 475
#
# _framework density 25.894071
#
# number of rings (size 3 to 8) (size 9 to 14) (size 15 to 20)
#    0.000    0.727    4.545    1.091    7.636    5.091 
#    0.000    0.000    0.000    0.000    0.000    0.000 
#    0.000    0.000    0.000    0.000    0.000    0.000 
#
# Total GULP energy -122837.869010 kJ/mol
# GULP energy per Si atom -5583.539500 kJ/mol
# Density = 2.583513 g / cm^3
# Si number density = 25.894071 Si / 1000 Ang^3
#
#
#
# Elastic Constant Matrix: (Units=GPa)
#
#
# Indices 1 2 3 4 5 6 
#
# 1 205.2446 48.9122 47.7630 0.0000 -45.1502 0.0000
# 2 48.9122 83.1463 45.3491 0.0000 -24.7446 0.0000
# 3 47.7630 45.3491 142.3023 0.0000 -35.0282 0.0000
# 4 0.0000 0.0000 0.0000 41.2334 0.0000 -11.1442
# 5 -45.1502 -24.7446 -35.0282 0.0000 63.9810 0.0000
# 6 0.0000 0.0000 0.0000 -11.1442 0.0000 51.8105
#
#
#
# Elastic Compliance Matrix: (Units=1/GPa)
#
#
# Indices 1 2 3 4 5 6 
#
# 1 0.006284 -0.002452 -0.000543 0.000000 0.003189 0.000000
# 2 -0.002452 0.016256 -0.003740 0.000000 0.002509 0.000000
# 3 -0.000543 -0.003740 0.009189 0.000000 0.003201 0.000000
# 4 0.000000 0.000000 0.000000 0.025749 0.000000 0.005539
# 5 0.003189 0.002509 0.003201 0.000000 0.020604 0.000000
# 6 0.000000 0.000000 0.000000 0.005539 0.000000 0.020492
#
#
# Mechanical properties :
#
#
# Convention : Reuss Voigt Hill
#
# Bulk Modulus (GPa) = 54.76231 79.41576 67.08903
# Shear Modulus (GPa) = 42.32606 50.64955 46.48780
#
# Velocity S-wave (km/s) = 4.04739 4.42750 4.24170
# Velocity P-wave (km/s) = 6.56020 7.54142 7.06786
#
# Compressibility (1/GPa) = 0.01826073
#
# Stress axis : x y z
#
# Youngs Moduli (GPa) = 159.12289 61.51665 108.82092
#
# Poissons Ratio (x) = 0.15081 0.05909
# Poissons Ratio (y) = 0.39011 0.40697
# Poissons Ratio (z) = 0.08640 0.23006
#
# Static dielectric constant tensor:
#      x y z
#    x 2.069610 0.000000 -0.071020 
#    y 0.000000 2.137590 0.000000 
#    z -0.071020 0.000000 2.161880 
# 
# From -- ./inp_files/226916.got.cif
#   From: 2010.05.17/outbox.cif.g08.bks.cpg/sg15_114_cif.got.tgz:226916.got - 2010.06.03 18:47:42.
