data_PCOD9306370
_publ_section_title
;
Structure prediction by ZEFSAII (Michael W. Deem and Ramdas Pophale) SiO2 
 PCOD9306370
Probable space group: C 2/C
;
_chemical_formula_sum "Si O2"
_cell_formula_units_Z 28
_cell_length_a 7.306686
_cell_length_b 9.013161
_cell_length_c 21.109153
_cell_angle_alpha 90.000000
_cell_angle_beta 127.860524
_cell_angle_gamma 90.000000
_cell_volume 1097.550313
_symmetry_space_group_name_H-M "C 2/C"
_symmetry_group_IT_number 15
_symmetry_cell_setting 'monoclinic'
loop_
_space_group_symop_operation_xyz
x,y,z
-x,y,1/2-z
-x,-y,-z
x,-y,1/2+z
1/2+x,1/2+y,z
1/2-x,1/2+y,1/2-z
1/2-x,1/2-y,-z
1/2+x,1/2-y,1/2+z
loop_
_atom_site_type_symbol
_atom_site_label
_atom_site_fract_x
_atom_site_fract_y
_atom_site_fract_z
Si Si1 0.092670 0.843975 0.545208
Si Si2 0.500000 0.166327 0.750000
Si Si3 0.266834 0.148506 0.823955
Si Si4 0.608932 0.853663 0.598004
O O1 0.120379 0.799467 0.624816
O O2 0.355979 0.837403 0.575682
O O3 0.925384 0.724231 0.476531
O O4 0.000000 0.000000 0.500000
O O5 0.399554 0.086613 0.790296
O O6 0.290911 0.265558 0.679541
O O7 0.000000 0.169092 0.750000
O O8 0.302837 0.022118 0.884379
#
# Coordination Sequence:
#
# PCOD9306370 Si02
#       4
#     8   4   8   8
#     4  11  26  49  77 114 152 201 255 311 382 453
#     4  12  26  44  78 116 146 198 256 310 386 444
#     4  12  26  49  78 110 152 200 251 317 377 453
#     4  11  25  47  76 111 150 199 253 311 379 451
#
# _framework density 25.511357
#
# number of rings (size 3 to 8) (size 9 to 14) (size 15 to 20)
#    0.000    0.571    4.286    2.571    0.000   13.714 
#    2.571    0.000    0.000    1.714    0.000    0.000 
#    0.000    0.000    0.000    0.000    0.000    0.000 
#
# Total GULP energy -78436.675880 kJ/mol
# GULP energy per Si atom -5602.619706 kJ/mol
# Density = 2.545329 g / cm^3
# Si number density = 25.511357 Si / 1000 Ang^3
#
#
#
# Elastic Constant Matrix: (Units=GPa)
#
#
# Indices 1 2 3 4 5 6 
#
# 1 111.1053 9.0642 51.2513 0.0000 18.6321 0.0000
# 2 9.0642 104.9830 87.5733 0.0000 6.3067 0.0000
# 3 51.2513 87.5733 189.5651 0.0000 33.4021 0.0000
# 4 0.0000 0.0000 0.0000 42.5715 0.0000 -0.3623
# 5 18.6321 6.3067 33.4021 0.0000 56.6028 0.0000
# 6 0.0000 0.0000 0.0000 -0.3623 0.0000 18.9941
#
#
#
# Elastic Compliance Matrix: (Units=1/GPa)
#
#
# Indices 1 2 3 4 5 6 
#
# 1 0.010777 0.002208 -0.003644 0.000000 -0.001643 0.000000
# 2 0.002208 0.016354 -0.008597 0.000000 0.002524 0.000000
# 3 -0.003644 -0.008597 0.010995 0.000000 -0.004331 0.000000
# 4 0.000000 0.000000 0.000000 0.023494 0.000000 0.000448
# 5 -0.001643 0.002524 -0.004331 0.000000 0.020482 0.000000
# 6 0.000000 0.000000 0.000000 0.000448 0.000000 0.052656
#
#
# Mechanical properties :
#
#
# Convention : Reuss Voigt Hill
#
# Bulk Modulus (GPa) = 55.37023 77.93677 66.65350
# Shear Modulus (GPa) = 31.08578 40.81800 35.95189
#
# Velocity S-wave (km/s) = 3.49450 4.00433 3.75807
# Velocity P-wave (km/s) = 6.16711 7.21080 6.70929
#
# Compressibility (1/GPa) = 0.01806025
#
# Stress axis : x y z
#
# Youngs Moduli (GPa) = 92.79114 61.14565 90.94889
#
# Poissons Ratio (x) = -0.13502 0.33144
# Poissons Ratio (y) = -0.20490 0.78189
# Poissons Ratio (z) = 0.33816 0.52567
#
# Static dielectric constant tensor:
#      x y z
#    x 2.035530 0.000000 -0.103070 
#    y 0.000000 2.027970 0.000000 
#    z -0.103070 0.000000 1.997330 
# 
# From -- ./inp_files/187133.got.cif
#   From: 2010.05.17/outbox.cif.g08.bks.cpg/sg15_94_cif.got.tgz:187133.got - 2010.06.03 18:47:42.
