data_PCOD9306982
_publ_section_title
;
Structure prediction by ZEFSAII (Michael W. Deem and Ramdas Pophale) SiO2 
 PCOD9306982
Probable space group: C 2/C
;
_chemical_formula_sum "Si O2"
_cell_formula_units_Z 40
_cell_length_a 18.974706
_cell_length_b 15.365650
_cell_length_c 11.991606
_cell_angle_alpha 90.000000
_cell_angle_beta 153.119698
_cell_angle_gamma 90.000000
_cell_volume 1580.755967
_symmetry_space_group_name_H-M "C 2/C"
_symmetry_group_IT_number 15
_symmetry_cell_setting 'monoclinic'
loop_
_space_group_symop_operation_xyz
x,y,z
-x,y,1/2-z
-x,-y,-z
x,-y,1/2+z
1/2+x,1/2+y,z
1/2-x,1/2+y,1/2-z
1/2-x,1/2-y,-z
1/2+x,1/2-y,1/2+z
loop_
_atom_site_type_symbol
_atom_site_label
_atom_site_fract_x
_atom_site_fract_y
_atom_site_fract_z
Si Si1 0.715535 0.910022 0.378728
Si Si2 0.820077 0.900531 0.956125
Si Si3 0.250000 0.750000 0.500000
Si Si4 0.500000 0.007332 0.750000
Si Si5 0.292364 0.147288 0.866464
Si Si6 0.443937 0.400089 0.900303
O O1 0.684910 0.845155 0.233596
O O2 0.856561 0.886860 0.660844
O O3 0.766142 0.999873 0.391490
O O4 0.570376 0.933331 0.251811
O O5 0.828913 0.876596 0.838723
O O6 0.716937 0.846315 0.897409
O O7 0.000000 0.899203 0.250000
O O8 0.343375 0.774776 0.516778
O O9 0.368815 0.942784 0.515196
O O10 0.106636 0.150786 0.633357
O O11 0.500000 0.500000 0.000000
#
# Coordination Sequence:
#
# PCOD9306982 Si02
#       6
#     8   8   4   4   8   8
#     4  12  23  42  71 105 139 184 242 295 347 416
#     4  12  21  39  67 100 139 179 233 285 340 415
#     4  12  26  42  62 106 144 180 226 286 356 428
#     4  12  22  40  62 108 146 182 236 294 356 414
#     4  12  25  40  68 102 145 190 232 293 352 423
#     4  12  20  41  72 104 132 181 245 289 339 420
#
# _framework density 25.304348999999998
#
# number of rings (size 3 to 8) (size 9 to 14) (size 15 to 20)
#    0.000    0.000   10.000    1.200    1.400    0.000 
#    0.000    1.000    0.000    2.400    0.000    0.000 
#    0.000    0.000    0.000    0.000    0.000    0.000 
#
# Total GULP energy -111577.366307 kJ/mol
# GULP energy per Si atom -5578.868315 kJ/mol
# Density = 2.524676 g / cm^3
# Si number density = 25.304349 Si / 1000 Ang^3
#
#
#
# Elastic Constant Matrix: (Units=GPa)
#
#
# Indices 1 2 3 4 5 6 
#
# 1 195.5548 13.1512 55.7949 0.0000 -31.2643 0.0000
# 2 13.1512 27.0707 11.1436 0.0000 -6.5562 0.0000
# 3 55.7949 11.1436 96.1621 0.0000 -5.4403 0.0000
# 4 0.0000 0.0000 0.0000 -3.8825 0.0000 -0.4853
# 5 -31.2643 -6.5562 -5.4403 0.0000 44.5252 0.0000
# 6 0.0000 0.0000 0.0000 -0.4853 0.0000 50.1471
#
#
#
# Elastic Compliance Matrix: (Units=1/GPa)
#
#
# Indices 1 2 3 4 5 6 
#
# 1 0.006898 -0.000806 -0.003667 0.000000 0.004277 0.000000
# 2 -0.000806 0.040118 -0.003906 0.000000 0.004864 0.000000
# 3 -0.003667 -0.003906 0.012890 0.000000 -0.001575 0.000000
# 4 0.000000 0.000000 0.000000 -0.257258 0.000000 -0.002490
# 5 0.004277 0.004864 -0.001575 0.000000 0.025986 0.000000
# 6 0.000000 0.000000 0.000000 -0.002490 0.000000 0.019917
#
#
# Mechanical properties :
#
#
# Convention : Reuss Voigt Hill
#
# Bulk Modulus (GPa) = 23.17601 53.21853 38.19727
# Shear Modulus (GPa) = -41.56004 34.07117 -3.74444
#
# Velocity S-wave (km/s) = -4.05706 3.67339 -1.21777
# Velocity P-wave (km/s) = 3.57317 6.25050 3.62638
#
# Compressibility (1/GPa) = 0.04314807
#
# Stress axis : x y z
#
# Youngs Moduli (GPa) = 144.97348 24.92654 77.57785
#
# Poissons Ratio (x) = 0.02008 0.28447
# Poissons Ratio (y) = 0.11681 0.30304
# Poissons Ratio (z) = 0.53160 0.09737
#
# Static dielectric constant tensor:
#      x y z
#    x 2.004520 0.000000 -0.067290 
#    y 0.000000 2.575860 0.000000 
#    z -0.067290 0.000000 2.153220 
# 
# From -- ./inp_files/107582.got.cif
#   From: 2010.05.17/outbox.cif.g08.bks.cpg/sg15_54_cif.got.tgz:107582.got - 2010.06.03 18:47:42.
