data_PCOD9306123
_publ_section_title
;
Structure prediction by ZEFSAII (Michael W. Deem and Ramdas Pophale) SiO2 
 PCOD9306123
Probable space group: C 2/C
;
_chemical_formula_sum "Si O2"
_cell_formula_units_Z 40
_cell_length_a 7.886539
_cell_length_b 18.194536
_cell_length_c 15.118423
_cell_angle_alpha 90.000000
_cell_angle_beta 56.386403
_cell_angle_gamma 90.000000
_cell_volume 1806.630662
_symmetry_space_group_name_H-M "C 2/C"
_symmetry_group_IT_number 15
_symmetry_cell_setting 'monoclinic'
loop_
_space_group_symop_operation_xyz
x,y,z
-x,y,1/2-z
-x,-y,-z
x,-y,1/2+z
1/2+x,1/2+y,z
1/2-x,1/2+y,1/2-z
1/2-x,1/2-y,-z
1/2+x,1/2-y,1/2+z
loop_
_atom_site_type_symbol
_atom_site_label
_atom_site_fract_x
_atom_site_fract_y
_atom_site_fract_z
Si Si1 0.719621 0.648203 0.421590
Si Si2 0.418524 0.525389 0.178250
Si Si3 0.438987 0.094372 0.678278
Si Si4 0.666376 0.982391 0.524114
Si Si5 0.674036 0.687678 0.633010
O O1 0.621813 0.594192 0.376309
O O2 0.890267 0.592411 0.409660
O O3 0.620819 0.672592 0.545484
O O4 0.789549 0.725711 0.364299
O O5 0.500000 0.551759 0.250000
O O6 0.230499 0.469557 0.252875
O O7 0.607325 0.481157 0.079833
O O8 0.500000 0.136765 0.750000
O O9 0.366243 0.143479 0.617260
O O10 0.644336 0.050896 0.594932
O O11 0.500000 0.000000 0.500000
O O12 0.500000 0.662802 0.750000
#
# Coordination Sequence:
#
# PCOD9306123 Si02
#       5
#     8   8   8   8   8
#     4  11  25  45  68 101 136 191 226 287 351 421
#     4  12  25  42  72 106 138 177 239 293 342 413
#     4  12  25  42  71 103 136 183 233 289 348 405
#     4  12  23  41  73 102 135 173 243 286 336 417
#     4  11  26  45  67  98 147 183 230 284 360 418
#
# _framework density 22.140661999999999
#
# number of rings (size 3 to 8) (size 9 to 14) (size 15 to 20)
#    0.000    0.400    6.000    2.400    5.600    0.800 
#    0.000    1.000    0.000    0.000    0.000    0.000 
#    0.000    0.000    0.000    0.000    0.000    0.000 
#
# Total GULP energy -111461.521061 kJ/mol
# GULP energy per Si atom -5573.076053 kJ/mol
# Density = 2.209027 g / cm^3
# Si number density = 22.140662 Si / 1000 Ang^3
#
#
#
# Elastic Constant Matrix: (Units=GPa)
#
#
# Indices 1 2 3 4 5 6 
#
# 1 75.1846 31.0016 36.1905 0.0000 32.1270 0.0000
# 2 31.0016 138.3289 18.5368 0.0000 12.6582 0.0000
# 3 36.1905 18.5368 85.3189 0.0000 14.3483 0.0000
# 4 0.0000 0.0000 0.0000 36.8468 0.0000 12.9033
# 5 32.1270 12.6582 14.3483 0.0000 57.3235 0.0000
# 6 0.0000 0.0000 0.0000 12.9033 0.0000 29.5632
#
#
#
# Elastic Compliance Matrix: (Units=1/GPa)
#
#
# Indices 1 2 3 4 5 6 
#
# 1 0.022286 -0.003127 -0.007088 0.000000 -0.010025 0.000000
# 2 -0.003127 0.007978 -0.000423 0.000000 0.000097 0.000000
# 3 -0.007088 -0.000423 0.014757 0.000000 0.000372 0.000000
# 4 0.000000 0.000000 0.000000 0.032036 0.000000 -0.013983
# 5 -0.010025 0.000097 0.000372 0.000000 0.022949 0.000000
# 6 0.000000 0.000000 0.000000 -0.013983 0.000000 0.039929
#
#
# Mechanical properties :
#
#
# Convention : Reuss Voigt Hill
#
# Bulk Modulus (GPa) = 42.11605 52.25447 47.18526
# Shear Modulus (GPa) = 29.56396 38.95360 34.25878
#
# Velocity S-wave (km/s) = 3.65811 4.19903 3.93787
# Velocity P-wave (km/s) = 6.07501 6.86743 6.48333
#
# Compressibility (1/GPa) = 0.02374392
#
# Stress axis : x y z
#
# Youngs Moduli (GPa) = 44.87164 125.34693 67.76668
#
# Poissons Ratio (x) = 0.39201 0.48031
# Poissons Ratio (y) = 0.14033 0.02867
# Poissons Ratio (z) = 0.31804 0.05303
#
# Static dielectric constant tensor:
#      x y z
#    x 1.839680 0.000000 0.037860 
#    y 0.000000 1.821640 0.000000 
#    z 0.037860 0.000000 1.964210 
# 
# From -- ./inp_files/134218.got.cif
#   From: 2010.05.17/outbox.cif.g08.bks.cpg/sg15_68_cif.got.tgz:134218.got - 2010.06.03 18:47:42.
