data_PCOD9306063
_publ_section_title
;
Structure prediction by ZEFSAII (Michael W. Deem and Ramdas Pophale) SiO2 
 PCOD9306063
Probable space group: C 2/C
;
_chemical_formula_sum "Si O2"
_cell_formula_units_Z 28
_cell_length_a 17.533533
_cell_length_b 9.978979
_cell_length_c 16.777917
_cell_angle_alpha 90.000000
_cell_angle_beta 157.844391
_cell_angle_gamma 90.000000
_cell_volume 1107.074874
_symmetry_space_group_name_H-M "C 2/C"
_symmetry_group_IT_number 15
_symmetry_cell_setting 'monoclinic'
loop_
_space_group_symop_operation_xyz
x,y,z
-x,y,1/2-z
-x,-y,-z
x,-y,1/2+z
1/2+x,1/2+y,z
1/2-x,1/2+y,1/2-z
1/2-x,1/2-y,-z
1/2+x,1/2-y,1/2+z
loop_
_atom_site_type_symbol
_atom_site_label
_atom_site_fract_x
_atom_site_fract_y
_atom_site_fract_z
Si Si1 0.580853 0.659178 0.508819
Si Si2 0.474935 0.064733 0.820401
Si Si3 0.000000 0.797450 0.250000
Si Si4 0.317654 0.583902 0.727449
O O1 0.549376 0.791569 0.426404
O O2 0.745428 0.569261 0.623364
O O3 0.664088 0.679297 0.678679
O O4 0.386766 0.563689 0.324231
O O5 0.500000 0.056206 0.750000
O O6 0.594976 0.943850 0.977602
O O7 0.962522 0.871960 0.296571
O O8 0.250000 0.750000 0.500000
#
# Coordination Sequence:
#
# PCOD9306063 Si02
#       4
#     8   8   4   8
#     4  11  25  43  73 108 147 197 253 320 383 465
#     4  12  24  43  76 109 149 193 255 320 384 457
#     4  12  32  52  78 110 156 206 264 320 390 480
#     4  11  27  47  73 104 151 203 253 313 397 453
#
# _framework density 25.291876999999999
#
# number of rings (size 3 to 8) (size 9 to 14) (size 15 to 20)
#    0.000    0.571    2.857    3.429   12.000    0.000 
#    0.000    0.000    0.000    0.000    0.000    0.000 
#    0.000    0.000    0.000    0.000    0.000    0.000 
#
# Total GULP energy -78122.675895 kJ/mol
# GULP energy per Si atom -5580.191135 kJ/mol
# Density = 2.523431 g / cm^3
# Si number density = 25.291877 Si / 1000 Ang^3
#
#
#
# Elastic Constant Matrix: (Units=GPa)
#
#
# Indices 1 2 3 4 5 6 
#
# 1 122.4581 24.4837 38.3081 0.0015 -32.0664 0.0006
# 2 24.4837 65.2314 59.3014 0.0022 -3.9465 0.0015
# 3 38.3081 59.3014 145.1783 0.0037 -9.4347 0.0033
# 4 0.0015 0.0022 0.0037 56.4032 0.0018 9.7260
# 5 -32.0664 -3.9465 -9.4347 0.0018 57.0757 0.0009
# 6 0.0006 0.0015 0.0033 9.7260 0.0009 33.7001
#
#
#
# Elastic Compliance Matrix: (Units=1/GPa)
#
#
# Indices 1 2 3 4 5 6 
#
# 1 0.010529 -0.002256 -0.001499 0.000000 0.005512 0.000000
# 2 -0.002256 0.024869 -0.009637 0.000000 -0.001141 0.000000
# 3 -0.001499 -0.009637 0.011243 0.000000 0.000350 -0.000001
# 4 0.000000 0.000000 0.000000 0.018658 -0.000001 -0.005385
# 5 0.005512 -0.001141 0.000350 -0.000001 0.020596 0.000000
# 6 0.000000 0.000000 -0.000001 -0.005385 0.000000 0.031228
#
#
# Mechanical properties :
#
#
# Convention : Reuss Voigt Hill
#
# Bulk Modulus (GPa) = 50.35965 64.11715 57.23840
# Shear Modulus (GPa) = 33.21698 43.48743 38.35221
#
# Velocity S-wave (km/s) = 3.62794 4.15109 3.89830
# Velocity P-wave (km/s) = 6.12404 6.95567 6.55306
#
# Compressibility (1/GPa) = 0.01985717
#
# Stress axis : x y z
#
# Youngs Moduli (GPa) = 94.97353 40.21095 88.94631
#
# Poissons Ratio (x) = 0.09073 0.13329
# Poissons Ratio (y) = 0.21428 0.85718
# Poissons Ratio (z) = 0.14232 0.38752
#
# Static dielectric constant tensor:
#      x y z
#    x 1.915580 0.000000 0.019750 
#    y 0.000000 1.995830 0.000000 
#    z 0.019750 0.000000 2.143450 
# 
# From -- ./inp_files/215154.got.cif
#   From: 2010.05.17/outbox.cif.g08.bks.cpg/sg15_108_cif.got.tgz:215154.got - 2010.06.03 18:47:42.
