data_PCOD9306541
_publ_section_title
;
Structure prediction by ZEFSAII (Michael W. Deem and Ramdas Pophale) SiO2 
 PCOD9306541
Probable space group: C 2/C
;
_chemical_formula_sum "Si O2"
_cell_formula_units_Z 24
_cell_length_a 12.875534
_cell_length_b 6.436958
_cell_length_c 12.812276
_cell_angle_alpha 90.000000
_cell_angle_beta 51.233618
_cell_angle_gamma 90.000000
_cell_volume 827.947505
_symmetry_space_group_name_H-M "C 2/C"
_symmetry_group_IT_number 15
_symmetry_cell_setting 'monoclinic'
loop_
_space_group_symop_operation_xyz
x,y,z
-x,y,1/2-z
-x,-y,-z
x,-y,1/2+z
1/2+x,1/2+y,z
1/2-x,1/2+y,1/2-z
1/2-x,1/2-y,-z
1/2+x,1/2-y,1/2+z
loop_
_atom_site_type_symbol
_atom_site_label
_atom_site_fract_x
_atom_site_fract_y
_atom_site_fract_z
Si Si1 0.819644 0.254173 0.287258
Si Si2 0.846169 0.055254 0.957194
Si Si3 0.437366 0.850138 0.674201
O O1 0.734728 0.398774 0.419069
O O2 0.713090 0.191266 0.267158
O O3 0.938077 0.396072 0.163263
O O4 0.861160 0.063944 0.336032
O O5 0.973422 0.166065 0.930534
O O6 0.750000 0.250000 0.000000
O O7 0.500000 0.832557 0.750000
#
# Coordination Sequence:
#
# PCOD9306541 Si02
#       3
#     8   8   8
#     4  11  27  49  76 110 150 196 246 303 369 435
#     4  11  25  53  74 110 148 197 247 302 370 436
#     4  12  25  48  77 109 149 193 248 304 367 439
#
# _framework density 28.987345999999999
#
# number of rings (size 3 to 8) (size 9 to 14) (size 15 to 20)
#    0.000    0.667    3.333    3.000    0.000    5.333 
#    0.000    0.000    0.000    0.000    0.000    0.000 
#    0.000    0.000    0.000    0.000    0.000    0.000 
#
# Total GULP energy -67070.397643 kJ/mol
# GULP energy per Si atom -5589.199804 kJ/mol
# Density = 2.892137 g / cm^3
# Si number density = 28.987346 Si / 1000 Ang^3
#
#
#
# Elastic Constant Matrix: (Units=GPa)
#
#
# Indices 1 2 3 4 5 6 
#
# 1 205.3969 112.3061 61.9162 0.0000 -0.3543 0.0000
# 2 112.3061 234.0690 65.1923 0.0000 3.2134 0.0000
# 3 61.9162 65.1923 70.2837 0.0000 6.4924 0.0000
# 4 0.0000 0.0000 0.0000 77.1127 0.0000 8.1403
# 5 -0.3543 3.2134 6.4924 0.0000 49.5532 0.0000
# 6 0.0000 0.0000 0.0000 8.1403 0.0000 78.2579
#
#
#
# Elastic Compliance Matrix: (Units=1/GPa)
#
#
# Indices 1 2 3 4 5 6 
#
# 1 0.007521 -0.002365 -0.004506 0.000000 0.000798 0.000000
# 2 -0.002365 0.006509 -0.003962 0.000000 0.000080 0.000000
# 3 -0.004506 -0.003962 0.022120 0.000000 -0.002673 0.000000
# 4 0.000000 0.000000 0.000000 0.013112 0.000000 -0.001364
# 5 0.000798 0.000080 -0.002673 0.000000 0.020531 0.000000
# 6 0.000000 0.000000 0.000000 -0.001364 0.000000 0.012920
#
#
# Mechanical properties :
#
#
# Convention : Reuss Voigt Hill
#
# Bulk Modulus (GPa) = 69.03885 109.84211 89.44048
# Shear Modulus (GPa) = 45.78460 59.00710 52.39585
#
# Velocity S-wave (km/s) = 3.97856 4.51667 4.25613
# Velocity P-wave (km/s) = 6.70626 8.07316 7.42124
#
# Compressibility (1/GPa) = 0.01448460
#
# Stress axis : x y z
#
# Youngs Moduli (GPa) = 132.95589 153.63017 45.20867
#
# Poissons Ratio (x) = 0.36327 0.20372
# Poissons Ratio (y) = 0.31439 0.17911
# Poissons Ratio (z) = 0.59913 0.60867
#
# Static dielectric constant tensor:
#      x y z
#    x 2.126810 0.000000 -0.097800 
#    y 0.000000 2.318180 0.000000 
#    z -0.097800 0.000000 2.611420 
# 
# From -- ./inp_files/149351.got.cif
#   From: 2010.05.17/outbox.cif.g08.bks.cpg/sg15_75_cif.got.tgz:149351.got - 2010.06.03 18:47:42.
