data_PCOD9306550
_publ_section_title
;
Structure prediction by ZEFSAII (Michael W. Deem and Ramdas Pophale) SiO2 
 PCOD9306550
Probable space group: C 2/C
;
_chemical_formula_sum "Si O2"
_cell_formula_units_Z 44
_cell_length_a 13.374837
_cell_length_b 5.083148
_cell_length_c 27.794050
_cell_angle_alpha 90.000000
_cell_angle_beta 109.074412
_cell_angle_gamma 90.000000
_cell_volume 1785.864608
_symmetry_space_group_name_H-M "C 2/C"
_symmetry_group_IT_number 15
_symmetry_cell_setting 'monoclinic'
loop_
_space_group_symop_operation_xyz
x,y,z
-x,y,1/2-z
-x,-y,-z
x,-y,1/2+z
1/2+x,1/2+y,z
1/2-x,1/2+y,1/2-z
1/2-x,1/2-y,-z
1/2+x,1/2-y,1/2+z
loop_
_atom_site_type_symbol
_atom_site_label
_atom_site_fract_x
_atom_site_fract_y
_atom_site_fract_z
Si Si1 0.500000 0.616197 0.250000
Si Si2 0.776287 0.137293 0.726590
Si Si3 0.866191 0.433792 0.388887
Si Si4 0.986071 0.752117 0.031510
Si Si5 0.440473 0.272470 0.638485
Si Si6 0.324109 0.775790 0.587589
O O1 0.602526 0.437381 0.260204
O O2 0.515274 0.778426 0.301417
O O3 0.737574 0.943296 0.763257
O O4 0.710049 0.054291 0.669265
O O5 0.795221 0.306774 0.419775
O O6 0.918928 0.704758 0.415028
O O7 0.967575 0.271425 0.386068
O O8 0.874865 0.748273 0.042600
O O9 0.000000 0.500000 0.000000
O O10 0.000000 0.000000 0.000000
O O11 0.395816 0.565140 0.627895
O O12 0.349008 0.066224 0.610777
#
# Coordination Sequence:
#
# PCOD9306550 Si02
#       6
#     4   8   8   8   8   8
#     4  12  26  44  72 102 152 188 242 282 346 410
#     4  12  29  44  70 107 146 192 237 282 345 425
#     4  11  26  47  75 103 145 189 237 291 359 423
#     4  11  26  48  73 105 139 178 240 305 358 426
#     4  11  26  42  68 106 144 186 235 290 332 424
#     4  11  26  46  72 103 140 185 231 292 366 412
#
# _framework density 24.637926
#
# number of rings (size 3 to 8) (size 9 to 14) (size 15 to 20)
#    0.000    0.727    3.636    2.182    7.636    8.727 
#    0.000    0.000    0.000    0.000    0.000    0.000 
#    0.000    0.000    0.000    0.000    0.000    0.000 
#
# Total GULP energy -123293.525608 kJ/mol
# GULP energy per Si atom -5604.251164 kJ/mol
# Density = 2.458185 g / cm^3
# Si number density = 24.637926 Si / 1000 Ang^3
#
#
#
# Elastic Constant Matrix: (Units=GPa)
#
#
# Indices 1 2 3 4 5 6 
#
# 1 177.7300 4.0762 7.7568 0.0000 -10.9449 0.0000
# 2 4.0762 70.7869 8.5363 0.0000 -14.3205 0.0000
# 3 7.7568 8.5363 85.8064 0.0000 -18.7656 0.0000
# 4 0.0000 0.0000 0.0000 30.4318 0.0000 2.2732
# 5 -10.9449 -14.3205 -18.7656 0.0000 50.8822 0.0000
# 6 0.0000 0.0000 0.0000 2.2732 0.0000 25.9648
#
#
#
# Elastic Compliance Matrix: (Units=1/GPa)
#
#
# Indices 1 2 3 4 5 6 
#
# 1 0.005708 -0.000072 -0.000266 0.000000 0.001109 0.000000
# 2 -0.000072 0.015011 -0.000616 0.000000 0.003982 0.000000
# 3 -0.000266 -0.000616 0.012715 0.000000 0.004459 0.000000
# 4 0.000000 0.000000 0.000000 0.033077 0.000000 -0.002896
# 5 0.001109 0.003982 0.004459 0.000000 0.022657 0.000000
# 6 0.000000 0.000000 0.000000 -0.002896 0.000000 0.038767
#
#
# Mechanical properties :
#
#
# Convention : Reuss Voigt Hill
#
# Bulk Modulus (GPa) = 31.72095 41.67354 36.69725
# Shear Modulus (GPa) = 35.62488 42.38604 39.00546
#
# Velocity S-wave (km/s) = 3.80667 4.15222 3.98319
# Velocity P-wave (km/s) = 5.67660 6.31973 6.00678
#
# Compressibility (1/GPa) = 0.03152490
#
# Stress axis : x y z
#
# Youngs Moduli (GPa) = 175.18967 66.61817 78.64998
#
# Poissons Ratio (x) = 0.00481 0.02094
# Poissons Ratio (y) = 0.01264 0.04844
# Poissons Ratio (z) = 0.04664 0.04103
#
# Static dielectric constant tensor:
#      x y z
#    x 1.932250 0.000000 -0.025650 
#    y 0.000000 1.889430 0.000000 
#    z -0.025650 0.000000 2.035460 
# 
# From -- ./inp_files/312181.got.cif
#   From: 2010.05.17/outbox.cif.g08.bks.cpg/sg15_157_cif.got.tgz:312181.got - 2010.06.03 18:47:42.
