data_PCOD9306444
_publ_section_title
;
Structure prediction by ZEFSAII (Michael W. Deem and Ramdas Pophale) SiO2 
 PCOD9306444
Probable space group: C 2/C
;
_chemical_formula_sum "Si O2"
_cell_formula_units_Z 44
_cell_length_a 10.542418
_cell_length_b 13.859123
_cell_length_c 11.757839
_cell_angle_alpha 90.000000
_cell_angle_beta 84.405640
_cell_angle_gamma 90.000000
_cell_volume 1709.739730
_symmetry_space_group_name_H-M "C 2/C"
_symmetry_group_IT_number 15
_symmetry_cell_setting 'monoclinic'
loop_
_space_group_symop_operation_xyz
x,y,z
-x,y,1/2-z
-x,-y,-z
x,-y,1/2+z
1/2+x,1/2+y,z
1/2-x,1/2+y,1/2-z
1/2-x,1/2-y,-z
1/2+x,1/2-y,1/2+z
loop_
_atom_site_type_symbol
_atom_site_label
_atom_site_fract_x
_atom_site_fract_y
_atom_site_fract_z
Si Si1 0.500000 0.404953 0.750000
Si Si2 0.322956 0.850780 0.485409
Si Si3 0.073001 0.744288 0.913128
Si Si4 0.139720 0.053077 0.835692
Si Si5 0.134188 0.579297 0.266697
Si Si6 0.353295 0.286641 0.352479
O O1 0.578520 0.323814 0.813977
O O2 0.511399 0.488683 0.848478
O O3 0.250000 0.750000 0.500000
O O4 0.452449 0.825229 0.407275
O O5 0.219685 0.921412 0.439647
O O6 0.363925 0.887833 0.603856
O O7 0.207846 0.691037 0.901357
O O8 0.064013 0.794536 0.039137
O O9 0.125425 0.148727 0.760727
O O10 0.240057 0.983620 0.761324
O O11 0.136231 0.675303 0.188070
O O12 0.000000 0.528822 0.250000
#
# Coordination Sequence:
#
# PCOD9306444 Si02
#       6
#     4   8   8   8   8   8
#     4  12  26  46  70 110 146 188 260 304 360 442
#     4  12  26  46  76 105 144 196 243 298 370 432
#     4  11  25  48  76  99 148 195 245 302 369 443
#     4  12  29  44  74 107 149 190 248 303 373 425
#     4  12  26  49  73 110 149 186 251 301 360 450
#     4  11  25  49  73 106 144 199 237 307 373 437
#
# _framework density 25.734912000000001
#
# number of rings (size 3 to 8) (size 9 to 14) (size 15 to 20)
#    0.000    0.364    5.455    2.182    8.909    1.455 
#    0.000    0.000    0.000    0.000    0.000    0.000 
#    0.000    0.000    0.000    0.000    0.000    0.000 
#
# Total GULP energy -122837.930058 kJ/mol
# GULP energy per Si atom -5583.542275 kJ/mol
# Density = 2.567634 g / cm^3
# Si number density = 25.734912 Si / 1000 Ang^3
#
#
#
# Elastic Constant Matrix: (Units=GPa)
#
#
# Indices 1 2 3 4 5 6 
#
# 1 133.6330 19.3726 47.2269 0.0000 16.0273 0.0000
# 2 19.3726 64.6084 13.7678 0.0000 15.1752 0.0000
# 3 47.2269 13.7678 94.7414 0.0000 44.1592 0.0000
# 4 0.0000 0.0000 0.0000 32.9613 0.0000 19.0083
# 5 16.0273 15.1752 44.1592 0.0000 48.7890 0.0000
# 6 0.0000 0.0000 0.0000 19.0083 0.0000 21.7311
#
#
#
# Elastic Compliance Matrix: (Units=1/GPa)
#
#
# Indices 1 2 3 4 5 6 
#
# 1 0.009490 -0.002277 -0.005668 0.000000 0.002721 0.000000
# 2 -0.002277 0.017244 0.001350 0.000000 -0.005837 0.000000
# 3 -0.005668 0.001350 0.021642 0.000000 -0.018147 0.000000
# 4 0.000000 0.000000 0.000000 0.061220 0.000000 -0.053549
# 5 0.002721 -0.005837 -0.018147 0.000000 0.037843 0.000000
# 6 0.000000 0.000000 0.000000 -0.053549 0.000000 0.092857
#
#
# Mechanical properties :
#
#
# Convention : Reuss Voigt Hill
#
# Bulk Modulus (GPa) = 28.41980 50.41304 39.41642
# Shear Modulus (GPa) = 18.85265 34.87064 26.86165
#
# Velocity S-wave (km/s) = 2.70954 3.68502 3.23427
# Velocity P-wave (km/s) = 4.56685 6.14310 5.41266
#
# Compressibility (1/GPa) = 0.03518673
#
# Stress axis : x y z
#
# Youngs Moduli (GPa) = 105.37416 57.99132 46.20572
#
# Poissons Ratio (x) = 0.13203 0.26189
# Poissons Ratio (y) = 0.23991 -0.06237
# Poissons Ratio (z) = 0.59724 -0.07828
#
# Static dielectric constant tensor:
#      x y z
#    x 2.194480 0.000000 0.003700 
#    y 0.000000 2.069300 0.000000 
#    z 0.003700 0.000000 2.007750 
# 
# From -- ./inp_files/86183.got.cif
#   From: 2010.05.17/outbox.cif.g08.bks.cpg/sg15_44_cif.got.tgz:86183.got - 2010.06.03 18:47:42.
