data_PCOD9306121
_publ_section_title
;
Structure prediction by ZEFSAII (Michael W. Deem and Ramdas Pophale) SiO2 
 PCOD9306121
Probable space group: C 2/C
;
_chemical_formula_sum "Si O2"
_cell_formula_units_Z 56
_cell_length_a 11.688722
_cell_length_b 8.964982
_cell_length_c 22.716637
_cell_angle_alpha 90.000000
_cell_angle_beta 67.311978
_cell_angle_gamma 90.000000
_cell_volume 2196.255003
_symmetry_space_group_name_H-M "C 2/C"
_symmetry_group_IT_number 15
_symmetry_cell_setting 'monoclinic'
loop_
_space_group_symop_operation_xyz
x,y,z
-x,y,1/2-z
-x,-y,-z
x,-y,1/2+z
1/2+x,1/2+y,z
1/2-x,1/2+y,1/2-z
1/2-x,1/2-y,-z
1/2+x,1/2-y,1/2+z
loop_
_atom_site_type_symbol
_atom_site_label
_atom_site_fract_x
_atom_site_fract_y
_atom_site_fract_z
Si Si1 0.085829 0.723807 0.676234
Si Si2 0.169366 0.936080 0.400819
Si Si3 0.086110 0.261662 0.398730
Si Si4 0.535854 0.168414 0.364678
Si Si5 0.295594 0.923065 0.984390
Si Si6 0.500000 0.000000 0.500000
Si Si7 0.278770 0.516594 0.822732
Si Si8 0.500000 0.691260 0.750000
O O1 0.198719 0.607684 0.654183
O O2 0.142692 0.889711 0.660093
O O3 0.000000 0.713862 0.750000
O O4 0.998976 0.695691 0.638722
O O5 0.107814 0.087951 0.392508
O O6 0.205889 0.980342 0.461089
O O7 0.080106 0.806119 0.395844
O O8 0.219829 0.339016 0.364951
O O9 0.020917 0.330018 0.468320
O O10 0.437884 0.085211 0.427725
O O11 0.657791 0.072697 0.324831
O O12 0.478008 0.216723 0.314148
O O13 0.250000 0.750000 0.000000
O O14 0.343129 0.016807 0.030612
O O15 0.380645 0.588552 0.759222
#
# Coordination Sequence:
#
# PCOD9306121 Si02
#       8
#     8   8   8   8   8   4   8   4
#     4  11  25  45  67 103 145 185 236 289 349 425
#     4  11  25  45  72 104 139 185 236 289 354 420
#     4  12  25  46  72 103 142 187 237 296 357 419
#     4  11  27  48  72 108 142 188 242 289 361 428
#     4  12  25  50  73 103 140 185 239 301 357 424
#     4  12  24  48  74 100 140 188 236 300 364 412
#     4  11  25  45  67 101 145 184 235 286 351 425
#     4  12  26  42  70 108 142 188 232 292 348 434
#
# _framework density 25.497948000000001
#
# number of rings (size 3 to 8) (size 9 to 14) (size 15 to 20)
#    0.000    0.571    5.000    1.714    4.000    1.714 
#    6.429    1.429    0.000    0.000    0.000    0.000 
#    0.000    0.000    0.000    0.000    0.000    0.000 
#
# Total GULP energy -156157.892987 kJ/mol
# GULP energy per Si atom -5577.067607 kJ/mol
# Density = 2.543991 g / cm^3
# Si number density = 25.497948 Si / 1000 Ang^3
#
#
#
# Elastic Constant Matrix: (Units=GPa)
#
#
# Indices 1 2 3 4 5 6 
#
# 1 89.3304 17.3704 34.1143 0.0000 -0.5268 0.0000
# 2 17.3704 100.0530 16.2778 0.0000 -11.0138 0.0000
# 3 34.1143 16.2778 82.3178 0.0000 0.2525 0.0000
# 4 0.0000 0.0000 0.0000 -67.5303 0.0000 -300.9968
# 5 -0.5268 -11.0138 0.2525 0.0000 37.1721 0.0000
# 6 0.0000 0.0000 0.0000 -300.9968 0.0000 -783.2571
#
#
#
# Elastic Compliance Matrix: (Units=1/GPa)
#
#
# Indices 1 2 3 4 5 6 
#
# 1 0.013510 -0.001507 -0.005300 0.000000 -0.000219 0.000000
# 2 -0.001507 0.010859 -0.001532 0.000000 0.003206 0.000000
# 3 -0.005300 -0.001532 0.014650 0.000000 -0.000629 0.000000
# 4 0.000000 0.000000 0.000000 0.020773 0.000000 -0.007983
# 5 -0.000219 0.003206 -0.000629 0.000000 0.027853 0.000000
# 6 0.000000 0.000000 0.000000 -0.007983 0.000000 0.001791
#
#
# Mechanical properties :
#
#
# Convention : Reuss Voigt Hill
#
# Bulk Modulus (GPa) = 44.76567 45.24735 45.00651
# Shear Modulus (GPa) = 44.02894 -149.12714 -52.54910
#
# Velocity S-wave (km/s) = 4.15994 -7.65591 -4.54465
# Velocity P-wave (km/s) = 6.37716 7.76959 3.13834
#
# Compressibility (1/GPa) = 0.02233855
#
# Stress axis : x y z
#
# Youngs Moduli (GPa) = 74.01752 92.09235 68.26170
#
# Poissons Ratio (x) = 0.13882 0.36180
# Poissons Ratio (y) = 0.11157 0.10460
# Poissons Ratio (z) = 0.39231 0.14112
#
# Static dielectric constant tensor:
#      x y z
#    x 1.874650 0.000000 0.154300 
#    y 0.000000 1.935200 0.000000 
#    z 0.154300 0.000000 1.515060 
# 
# From -- ./inp_files/291550.got.cif
#   From: 2010.05.17/outbox.cif.g08.bks.cpg/sg15_146_cif.got.tgz:291550.got - 2010.06.03 18:47:42.
