data_PCOD9306388
_publ_section_title
;
Structure prediction by ZEFSAII (Michael W. Deem and Ramdas Pophale) SiO2 
 PCOD9306388
Probable space group: C 2/C
;
_chemical_formula_sum "Si O2"
_cell_formula_units_Z 44
_cell_length_a 14.563978
_cell_length_b 8.352314
_cell_length_c 17.259791
_cell_angle_alpha 90.000000
_cell_angle_beta 51.388697
_cell_angle_gamma 90.000000
_cell_volume 1640.568284
_symmetry_space_group_name_H-M "C 2/C"
_symmetry_group_IT_number 15
_symmetry_cell_setting 'monoclinic'
loop_
_space_group_symop_operation_xyz
x,y,z
-x,y,1/2-z
-x,-y,-z
x,-y,1/2+z
1/2+x,1/2+y,z
1/2-x,1/2+y,1/2-z
1/2-x,1/2-y,-z
1/2+x,1/2-y,1/2+z
loop_
_atom_site_type_symbol
_atom_site_label
_atom_site_fract_x
_atom_site_fract_y
_atom_site_fract_z
Si Si1 0.357792 0.664175 0.403002
Si Si2 0.324105 0.887037 0.628459
Si Si3 0.088977 0.814529 0.129559
Si Si4 0.224126 0.621754 0.170321
Si Si5 0.500000 0.100386 0.750000
Si Si6 0.939072 0.724963 0.524849
O O1 0.250000 0.750000 0.500000
O O2 0.300315 0.623299 0.348826
O O3 0.395660 0.491318 0.411123
O O4 0.465432 0.783957 0.338091
O O5 0.305580 0.833239 0.726313
O O6 0.421401 0.777542 0.534708
O O7 0.379228 0.065893 0.593651
O O8 0.203468 0.748732 0.112131
O O9 0.000000 0.813994 0.250000
O O10 0.061289 0.707273 0.069631
O O11 0.121750 0.493722 0.202793
O O12 0.365707 0.620489 0.092226
#
# Coordination Sequence:
#
# PCOD9306388 Si02
#       6
#     8   8   8   8   4   8
#     4  12  29  46  74 115 160 199 255 333 386 449
#     4  11  27  46  76 118 155 198 259 325 384 468
#     4  12  23  50  78 110 152 211 263 308 392 476
#     4  12  25  47  81 111 154 209 257 315 390 474
#     4  12  28  46  74 114 152 196 262 324 386 452
#     4  11  25  47  80 110 156 204 259 313 391 474
#
# _framework density 26.819976
#
# number of rings (size 3 to 8) (size 9 to 14) (size 15 to 20)
#    0.000    0.364    5.455    1.636   10.182    0.000 
#    0.000    1.818    0.000    0.000    0.000    0.000 
#    0.000    0.000    0.000    0.000    0.000    0.000 
#
# Total GULP energy -123008.446338 kJ/mol
# GULP energy per Si atom -5591.293015 kJ/mol
# Density = 2.675893 g / cm^3
# Si number density = 26.819976 Si / 1000 Ang^3
#
#
#
# Elastic Constant Matrix: (Units=GPa)
#
#
# Indices 1 2 3 4 5 6 
#
# 1 91.8198 8.5863 24.3418 0.0000 -13.6089 0.0000
# 2 8.5863 110.5121 31.3667 0.0000 -17.6373 0.0000
# 3 24.3418 31.3667 163.2962 0.0000 -8.9503 0.0000
# 4 0.0000 0.0000 0.0000 36.0745 0.0000 -11.6533
# 5 -13.6089 -17.6373 -8.9503 0.0000 47.7552 0.0000
# 6 0.0000 0.0000 0.0000 -11.6533 0.0000 27.4623
#
#
#
# Elastic Compliance Matrix: (Units=1/GPa)
#
#
# Indices 1 2 3 4 5 6 
#
# 1 0.011764 0.000027 -0.001591 0.000000 0.003064 0.000000
# 2 0.000027 0.010088 -0.001755 0.000000 0.003404 0.000000
# 3 -0.001591 -0.001755 0.006707 0.000000 0.000155 0.000000
# 4 0.000000 0.000000 0.000000 0.032124 0.000000 0.013631
# 5 0.003064 0.003404 0.000155 0.000000 0.023100 0.000000
# 6 0.000000 0.000000 0.000000 0.013631 0.000000 0.042198
#
#
# Mechanical properties :
#
#
# Convention : Reuss Voigt Hill
#
# Bulk Modulus (GPa) = 45.61983 54.91306 50.26645
# Shear Modulus (GPa) = 35.73311 42.34730 39.04021
#
# Velocity S-wave (km/s) = 3.65407 3.97791 3.81942
# Velocity P-wave (km/s) = 5.90335 6.45116 6.18333
#
# Compressibility (1/GPa) = 0.02192029
#
# Stress axis : x y z
#
# Youngs Moduli (GPa) = 85.00303 99.12546 149.10622
#
# Poissons Ratio (x) = -0.00263 0.23720
# Poissons Ratio (y) = -0.00225 0.26170
# Poissons Ratio (z) = 0.13522 0.17398
#
# Static dielectric constant tensor:
#      x y z
#    x 2.181240 0.000000 -0.007110 
#    y 0.000000 2.160410 0.000000 
#    z -0.007110 0.000000 2.064390 
# 
# From -- ./inp_files/202921.got.cif
#   From: 2010.05.17/outbox.cif.g08.bks.cpg/sg15_102_cif.got.tgz:202921.got - 2010.06.03 18:47:42.
