data_PCOD9306092
_publ_section_title
;
Structure prediction by ZEFSAII (Michael W. Deem and Ramdas Pophale) SiO2 
 PCOD9306092
Probable space group: C 2/C
;
_chemical_formula_sum "Si O2"
_cell_formula_units_Z 48
_cell_length_a 25.185001
_cell_length_b 14.099724
_cell_length_c 11.272022
_cell_angle_alpha 90.000000
_cell_angle_beta 148.902074
_cell_angle_gamma 90.000000
_cell_volume 2067.410413
_symmetry_space_group_name_H-M "C 2/C"
_symmetry_group_IT_number 15
_symmetry_cell_setting 'monoclinic'
loop_
_space_group_symop_operation_xyz
x,y,z
-x,y,1/2-z
-x,-y,-z
x,-y,1/2+z
1/2+x,1/2+y,z
1/2-x,1/2+y,1/2-z
1/2-x,1/2-y,-z
1/2+x,1/2-y,1/2+z
loop_
_atom_site_type_symbol
_atom_site_label
_atom_site_fract_x
_atom_site_fract_y
_atom_site_fract_z
Si Si1 0.409683 0.756834 0.230983
Si Si2 0.802723 0.687991 0.770664
Si Si3 0.046756 0.466277 0.215168
Si Si4 0.756804 0.995733 0.231665
Si Si5 0.440570 0.591597 0.937799
Si Si6 0.113665 0.835076 0.414024
O O1 0.372083 0.776001 0.294363
O O2 0.467088 0.852870 0.308607
O O3 0.478594 0.664165 0.353193
O O4 0.307429 0.736391 0.960989
O O5 0.787401 0.575647 0.753111
O O6 0.853681 0.729918 0.986180
O O7 0.168656 0.484554 0.465853
O O8 0.000000 0.505466 0.250000
O O9 0.000000 0.500000 0.000000
O O10 0.852588 0.942161 0.356685
O O11 0.803966 0.092059 0.373372
O O12 0.391078 0.647104 0.733393
O O13 0.500000 0.500000 0.000000
O O14 0.000000 0.855120 0.250000
#
# Coordination Sequence:
#
# PCOD9306092 Si02
#       6
#     8   8   8   8   8   8
#     4  11  25  46  72 107 149 199 250 312 380 457
#     4  11  25  44  72 103 151 197 246 308 384 449
#     4  12  30  52  77 110 158 206 261 317 393 468
#     4  12  28  46  77 108 145 199 253 317 381 461
#     4  12  26  44  76 111 146 190 257 317 381 456
#     4  12  24  46  72 109 151 192 248 314 383 459
#
# _framework density 23.217452999999999
#
# number of rings (size 3 to 8) (size 9 to 14) (size 15 to 20)
#    0.000    0.333    5.000    2.000   11.667    1.333 
#    0.000    0.000    0.000    0.000    0.000    0.000 
#    0.000    0.000    0.000    0.000    0.000    0.000 
#
# Total GULP energy -134414.943231 kJ/mol
# GULP energy per Si atom -5600.622635 kJ/mol
# Density = 2.316461 g / cm^3
# Si number density = 23.217453 Si / 1000 Ang^3
#
#
#
# Elastic Constant Matrix: (Units=GPa)
#
#
# Indices 1 2 3 4 5 6 
#
# 1 76.4259 11.6871 32.0047 0.0000 3.0933 0.0000
# 2 11.6871 101.3269 31.4001 0.0000 11.3405 0.0000
# 3 32.0047 31.4001 120.5970 0.0000 -3.7463 0.0000
# 4 0.0000 0.0000 0.0000 48.8178 0.0000 0.2103
# 5 3.0933 11.3405 -3.7463 0.0000 32.6338 0.0000
# 6 0.0000 0.0000 0.0000 0.2103 0.0000 23.9237
#
#
#
# Elastic Compliance Matrix: (Units=1/GPa)
#
#
# Indices 1 2 3 4 5 6 
#
# 1 0.014841 -0.000303 -0.003914 0.000000 -0.001751 0.000000
# 2 -0.000303 0.011307 -0.002996 0.000000 -0.004245 0.000000
# 3 -0.003914 -0.002996 0.010191 0.000000 0.002582 0.000000
# 4 0.000000 0.000000 0.000000 0.020485 0.000000 -0.000180
# 5 -0.001751 -0.004245 0.002582 0.000000 0.032580 0.000000
# 6 0.000000 0.000000 0.000000 -0.000180 0.000000 0.041801
#
#
# Mechanical properties :
#
#
# Convention : Reuss Voigt Hill
#
# Bulk Modulus (GPa) = 45.63274 49.83707 47.73491
# Shear Modulus (GPa) = 32.69349 35.95892 34.32620
#
# Velocity S-wave (km/s) = 3.75659 3.93973 3.84925
# Velocity P-wave (km/s) = 6.20590 6.49671 6.35297
#
# Compressibility (1/GPa) = 0.02191409
#
# Stress axis : x y z
#
# Youngs Moduli (GPa) = 67.38166 88.43815 98.12592
#
# Poissons Ratio (x) = 0.02679 0.38407
# Poissons Ratio (y) = 0.02041 0.29395
# Poissons Ratio (z) = 0.26374 0.26492
#
# Static dielectric constant tensor:
#      x y z
#    x 1.912730 0.000000 0.012950 
#    y 0.000000 1.819290 0.000000 
#    z 0.012950 0.000000 1.854070 
# 
# From -- ./inp_files/123581.got.cif
#   From: 2010.05.17/outbox.cif.g08.bks.cpg/sg15_62_cif.got.tgz:123581.got - 2010.06.03 18:47:42.
