data_PCOD9306485
_publ_section_title
;
Structure prediction by ZEFSAII (Michael W. Deem and Ramdas Pophale) SiO2 
 PCOD9306485
Probable space group: C 2/C
;
_chemical_formula_sum "Si O2"
_cell_formula_units_Z 32
_cell_length_a 30.070095
_cell_length_b 9.397547
_cell_length_c 8.802345
_cell_angle_alpha 90.000000
_cell_angle_beta 152.146784
_cell_angle_gamma 90.000000
_cell_volume 1162.138781
_symmetry_space_group_name_H-M "C 2/C"
_symmetry_group_IT_number 15
_symmetry_cell_setting 'monoclinic'
loop_
_space_group_symop_operation_xyz
x,y,z
-x,y,1/2-z
-x,-y,-z
x,-y,1/2+z
1/2+x,1/2+y,z
1/2-x,1/2+y,1/2-z
1/2-x,1/2-y,-z
1/2+x,1/2-y,1/2+z
loop_
_atom_site_type_symbol
_atom_site_label
_atom_site_fract_x
_atom_site_fract_y
_atom_site_fract_z
Si Si1 0.554494 0.387718 0.771125
Si Si2 0.224554 0.985990 0.970297
Si Si3 0.980603 0.346502 0.869436
Si Si4 0.237659 0.777364 0.745206
O O1 0.500000 0.320464 0.750000
O O2 0.500000 0.500000 0.500000
O O3 0.717628 0.378552 0.091522
O O4 0.560897 0.252181 0.684144
O O5 0.130035 0.023423 0.595133
O O6 0.271600 0.883829 0.984194
O O7 0.254890 0.134318 0.141587
O O8 0.876171 0.272230 0.587694
O O9 0.000000 0.353535 0.750000
O O10 0.000000 0.500000 0.000000
#
# Coordination Sequence:
#
# PCOD9306485 Si02
#       4
#     8   8   8   8
#     4  12  22  45  78 111 148 205 261 314 385 465
#     4  11  25  49  76 111 157 200 261 320 392 468
#     4  12  28  48  78 115 155 200 264 324 391 468
#     4  11  27  50  76 117 154 208 257 324 396 459
#
# _framework density 27.535437000000002
#
# number of rings (size 3 to 8) (size 9 to 14) (size 15 to 20)
#    0.000    0.500    5.000    1.500    3.500    5.000 
#    0.000    0.000    0.000    0.000    0.000    0.000 
#    0.000    0.000    0.000    0.000    0.000    0.000 
#
# Total GULP energy -89345.786262 kJ/mol
# GULP energy per Si atom -5584.111641 kJ/mol
# Density = 2.747277 g / cm^3
# Si number density = 27.535437 Si / 1000 Ang^3
#
#
#
# Elastic Constant Matrix: (Units=GPa)
#
#
# Indices 1 2 3 4 5 6 
#
# 1 87.8111 53.0145 25.6999 0.0000 -30.9602 0.0000
# 2 53.0145 233.7808 85.9611 0.0000 -33.3136 0.0000
# 3 25.6999 85.9611 189.3319 0.0000 -29.8182 0.0000
# 4 0.0000 0.0000 0.0000 43.6870 0.0000 -36.0668
# 5 -30.9602 -33.3136 -29.8182 0.0000 51.8043 0.0000
# 6 0.0000 0.0000 0.0000 -36.0668 0.0000 62.1773
#
#
#
# Elastic Compliance Matrix: (Units=1/GPa)
#
#
# Indices 1 2 3 4 5 6 
#
# 1 0.015599 -0.002514 0.000261 0.000000 0.007857 0.000000
# 2 -0.002514 0.005769 -0.002123 0.000000 0.000985 0.000000
# 3 0.000261 -0.002123 0.006620 0.000000 0.002601 0.000000
# 4 0.000000 0.000000 0.000000 0.043925 0.000000 0.025480
# 5 0.007857 0.000985 0.002601 0.000000 0.026130 0.000000
# 6 0.000000 0.000000 0.000000 0.025480 0.000000 0.030863
#
#
# Mechanical properties :
#
#
# Convention : Reuss Voigt Hill
#
# Bulk Modulus (GPa) = 51.98325 93.36387 72.67356
# Shear Modulus (GPa) = 34.70571 54.61693 44.66132
#
# Velocity S-wave (km/s) = 3.55406 4.45850 4.03172
# Velocity P-wave (km/s) = 5.98009 7.77719 6.93708
#
# Compressibility (1/GPa) = 0.01923697
#
# Stress axis : x y z
#
# Youngs Moduli (GPa) = 64.10487 173.35521 151.06477
#
# Poissons Ratio (x) = 0.43582 -0.03947
# Poissons Ratio (y) = 0.16116 0.32065
# Poissons Ratio (z) = -0.01675 0.36796
#
# Static dielectric constant tensor:
#      x y z
#    x 2.154240 0.000000 0.115880 
#    y 0.000000 2.055790 0.000000 
#    z 0.115880 0.000000 2.127580 
# 
# From -- ./inp_files/64648.got.cif
#   From: 2010.05.17/outbox.cif.g08.bks.cpg/sg15_33_cif.got.tgz:64648.got - 2010.06.03 18:47:42.
