data_PCOD9306442
_publ_section_title
;
Structure prediction by ZEFSAII (Michael W. Deem and Ramdas Pophale) SiO2 
 PCOD9306442
Probable space group: C 2/C
;
_chemical_formula_sum "Si O2"
_cell_formula_units_Z 24
_cell_length_a 29.385190
_cell_length_b 5.295613
_cell_length_c 13.486801
_cell_angle_alpha 90.000000
_cell_angle_beta 153.477568
_cell_angle_gamma 90.000000
_cell_volume 937.177802
_symmetry_space_group_name_H-M "C 2/C"
_symmetry_group_IT_number 15
_symmetry_cell_setting 'monoclinic'
loop_
_space_group_symop_operation_xyz
x,y,z
-x,y,1/2-z
-x,-y,-z
x,-y,1/2+z
1/2+x,1/2+y,z
1/2-x,1/2+y,1/2-z
1/2-x,1/2-y,-z
1/2+x,1/2-y,1/2+z
loop_
_atom_site_type_symbol
_atom_site_label
_atom_site_fract_x
_atom_site_fract_y
_atom_site_fract_z
Si Si1 0.640473 0.865870 0.763423
Si Si2 0.240570 0.089908 0.665999
Si Si3 0.964545 0.272721 0.292183
O O1 0.561604 0.696676 0.547312
O O2 0.672485 0.086881 0.747944
O O3 0.584751 0.988105 0.748003
O O4 0.750000 0.750000 0.000000
O O5 0.245008 0.344832 0.737954
O O6 0.128580 0.079190 0.398713
O O7 0.000000 0.330213 0.250000
#
# Coordination Sequence:
#
# PCOD9306442 Si02
#       3
#     8   8   8
#     4  11  26  51  79 115 159 206 260 324 389 464
#     4  12  26  52  80 114 159 206 259 324 390 463
#     4  11  25  48  76 118 150 209 261 320 386 469
#
# _framework density 25.608802000000001
#
# number of rings (size 3 to 8) (size 9 to 14) (size 15 to 20)
#    0.000    0.667    3.333    3.000    0.000    1.333 
#   18.000    0.000    0.000    0.000    0.000    0.000 
#    0.000    0.000    0.000    0.000    0.000    0.000 
#
# Total GULP energy -67287.182446 kJ/mol
# GULP energy per Si atom -5607.265204 kJ/mol
# Density = 2.555051 g / cm^3
# Si number density = 25.608802 Si / 1000 Ang^3
#
#
#
# Elastic Constant Matrix: (Units=GPa)
#
#
# Indices 1 2 3 4 5 6 
#
# 1 150.0066 22.8071 16.4087 0.0000 18.7363 0.0000
# 2 22.8071 96.8563 40.0070 -0.0001 -6.8941 0.0000
# 3 16.4087 40.0070 233.5367 -0.0001 2.6228 0.0000
# 4 0.0000 -0.0001 -0.0001 35.4893 0.0000 10.2027
# 5 18.7363 -6.8941 2.6228 0.0000 37.2955 0.0000
# 6 0.0000 0.0000 0.0000 10.2027 0.0000 31.6645
#
#
#
# Elastic Compliance Matrix: (Units=1/GPa)
#
#
# Indices 1 2 3 4 5 6 
#
# 1 0.007502 -0.002004 -0.000137 0.000000 -0.004129 0.000000
# 2 -0.002004 0.011827 -0.001923 0.000000 0.003328 0.000000
# 3 -0.000137 -0.001923 0.004628 0.000000 -0.000612 0.000000
# 4 0.000000 0.000000 0.000000 0.031054 0.000000 -0.010006
# 5 -0.004129 0.003328 -0.000612 0.000000 0.029546 0.000000
# 6 0.000000 0.000000 0.000000 -0.010006 0.000000 0.034805
#
#
# Mechanical properties :
#
#
# Convention : Reuss Voigt Hill
#
# Bulk Modulus (GPa) = 63.17325 70.98280 67.07803
# Shear Modulus (GPa) = 37.66017 47.63499 42.64758
#
# Velocity S-wave (km/s) = 3.83899 4.31757 4.08530
# Velocity P-wave (km/s) = 6.66128 7.25490 6.96441
#
# Compressibility (1/GPa) = 0.01582948
#
# Stress axis : x y z
#
# Youngs Moduli (GPa) = 133.30103 84.54891 216.08086
#
# Poissons Ratio (x) = 0.16940 0.02971
# Poissons Ratio (y) = 0.26708 0.41547
# Poissons Ratio (z) = 0.01833 0.16257
#
# Static dielectric constant tensor:
#      x y z
#    x 2.001850 0.000000 -0.051850 
#    y 0.000000 1.998930 0.000000 
#    z -0.051850 0.000000 2.057780 
# 
# From -- ./inp_files/179912.got.cif
#   From: 2010.05.17/outbox.cif.g08.bks.cpg/sg15_90_cif.got.tgz:179912.got - 2010.06.03 18:47:42.
