data_PCOD9306950
_publ_section_title
;
Structure prediction by ZEFSAII (Michael W. Deem and Ramdas Pophale) SiO2 
 PCOD9306950
Probable space group: C 2/C
;
_chemical_formula_sum "Si O2"
_cell_formula_units_Z 36
_cell_length_a 31.018512
_cell_length_b 13.700504
_cell_length_c 5.654752
_cell_angle_alpha 90.000000
_cell_angle_beta 54.657321
_cell_angle_gamma 90.000000
_cell_volume 1960.221804
_symmetry_space_group_name_H-M "C 2/C"
_symmetry_group_IT_number 15
_symmetry_cell_setting 'monoclinic'
loop_
_space_group_symop_operation_xyz
x,y,z
-x,y,1/2-z
-x,-y,-z
x,-y,1/2+z
1/2+x,1/2+y,z
1/2-x,1/2+y,1/2-z
1/2-x,1/2-y,-z
1/2+x,1/2-y,1/2+z
loop_
_atom_site_type_symbol
_atom_site_label
_atom_site_fract_x
_atom_site_fract_y
_atom_site_fract_z
Si Si1 0.789154 0.549694 0.043127
Si Si2 0.886124 0.135374 0.686698
Si Si3 0.674610 0.568505 0.233973
Si Si4 0.500000 0.439252 0.750000
Si Si5 0.197591 0.240837 0.826063
O O1 0.805360 0.500562 0.741895
O O2 0.724818 0.548445 0.244431
O O3 0.805702 0.662376 0.007546
O O4 0.854399 0.222123 0.664910
O O5 0.946577 0.123863 0.429308
O O6 0.857833 0.031155 0.709059
O O7 0.871360 0.137037 0.008434
O O8 0.700996 0.641670 0.963193
O O9 0.500000 0.500000 0.500000
O O10 0.250000 0.250000 0.500000
#
# Coordination Sequence:
#
# PCOD9306950 Si02
#       5
#     8   8   8   4   8
#     4  12  24  38  55  82 120 159 203 247 289 350
#     4  12  23  38  60  89 127 163 201 246 303 372
#     4  12  20  36  57  86 125 162 197 244 303 369
#     4  12  24  40  62  90 126 170 204 242 302 372
#     4  12  24  36  57  86 121 167 205 247 306 364
#
# _framework density 18.365269999999999
#
# number of rings (size 3 to 8) (size 9 to 14) (size 15 to 20)
#    0.000    0.000    8.889    2.000    3.111    0.000 
#    0.000    0.000    0.000    0.000    0.000    1.556 
#    0.000    0.000    0.000    0.000    0.000    0.000 
#
# Total GULP energy -100299.183607 kJ/mol
# GULP energy per Si atom -5572.176867 kJ/mol
# Density = 1.832347 g / cm^3
# Si number density = 18.365270 Si / 1000 Ang^3
#
#
#
# Elastic Constant Matrix: (Units=GPa)
#
#
# Indices 1 2 3 4 5 6 
#
# 1 72.7533 35.7056 47.5302 0.0000 -12.9216 0.0000
# 2 35.7056 92.3433 38.1044 0.0000 -2.5987 0.0000
# 3 47.5302 38.1044 99.4968 0.0000 -7.4253 0.0000
# 4 0.0000 0.0000 0.0000 29.1520 0.0000 2.2990
# 5 -12.9216 -2.5987 -7.4253 0.0000 38.1803 0.0000
# 6 0.0000 0.0000 0.0000 2.2990 0.0000 39.4474
#
#
#
# Elastic Compliance Matrix: (Units=1/GPa)
#
#
# Indices 1 2 3 4 5 6 
#
# 1 0.022860 -0.005164 -0.008515 0.000000 0.005729 0.000000
# 2 -0.005164 0.014029 -0.003008 0.000000 -0.001378 0.000000
# 3 -0.008515 -0.003008 0.015262 0.000000 -0.000118 0.000000
# 4 0.000000 0.000000 0.000000 0.034461 0.000000 -0.002008
# 5 0.005729 -0.001378 -0.000118 0.000000 0.028014 0.000000
# 6 0.000000 0.000000 0.000000 -0.002008 0.000000 0.025467
#
#
# Mechanical properties :
#
#
# Convention : Reuss Voigt Hill
#
# Bulk Modulus (GPa) = 53.26292 56.36377 54.81335
# Shear Modulus (GPa) = 27.82011 30.90615 29.36313
#
# Velocity S-wave (km/s) = 3.89629 4.10672 4.00289
# Velocity P-wave (km/s) = 7.02185 7.29684 7.16067
#
# Compressibility (1/GPa) = 0.01877479
#
# Stress axis : x y z
#
# Youngs Moduli (GPa) = 43.74441 71.28312 65.52405
#
# Poissons Ratio (x) = 0.36812 0.55794
# Poissons Ratio (y) = 0.22591 0.19712
# Poissons Ratio (z) = 0.37249 0.21445
#
# Static dielectric constant tensor:
#      x y z
#    x 1.822490 0.000000 0.237010 
#    y 0.000000 1.626120 0.000000 
#    z 0.237010 0.000000 1.923200 
# 
# From -- ./inp_files/17978.got.cif
#   From: 2010.05.17/outbox.cif.g08.bks.cpg/sg15_9_cif.got.tgz:17978.got - 2010.06.03 18:47:42.
