data_PCOD9306971
_publ_section_title
;
Structure prediction by ZEFSAII (Michael W. Deem and Ramdas Pophale) SiO2 
 PCOD9306971
Probable space group: C 2/C
;
_chemical_formula_sum "Si O2"
_cell_formula_units_Z 48
_cell_length_a 27.485185
_cell_length_b 17.481638
_cell_length_c 13.855940
_cell_angle_alpha 90.000000
_cell_angle_beta 159.405809
_cell_angle_gamma 90.000000
_cell_volume 2341.784172
_symmetry_space_group_name_H-M "C 2/C"
_symmetry_group_IT_number 15
_symmetry_cell_setting 'monoclinic'
loop_
_space_group_symop_operation_xyz
x,y,z
-x,y,1/2-z
-x,-y,-z
x,-y,1/2+z
1/2+x,1/2+y,z
1/2-x,1/2+y,1/2-z
1/2-x,1/2-y,-z
1/2+x,1/2-y,1/2+z
loop_
_atom_site_type_symbol
_atom_site_label
_atom_site_fract_x
_atom_site_fract_y
_atom_site_fract_z
Si Si1 0.838380 0.487730 0.673908
Si Si2 0.752724 0.040367 0.801247
Si Si3 0.500000 0.354187 0.750000
Si Si4 0.000000 0.640131 0.250000
Si Si5 0.157088 0.583901 0.006914
Si Si6 0.884090 0.267443 0.185547
Si Si7 0.871844 0.688443 0.211588
O O1 0.750827 0.533491 0.590327
O O2 0.815454 0.526846 0.529703
O O3 0.815434 0.397293 0.625607
O O4 0.000000 0.500000 0.000000
O O5 0.615556 0.085085 0.511941
O O6 0.749840 0.952068 0.762420
O O7 0.876784 0.089894 0.991050
O O8 0.555164 0.301640 0.765295
O O9 0.066174 0.686842 0.282937
O O10 0.166428 0.668990 0.985137
O O11 0.000000 0.576429 0.750000
O O12 0.005086 0.297337 0.481926
O O13 0.750000 0.250000 0.000000
O O14 0.750000 0.750000 0.000000
#
# Coordination Sequence:
#
# PCOD9306971 Si02
#       7
#     8   8   4   4   8   8   8
#     4  12  20  40  69  97 130 174 238 276 327 412
#     4  12  23  44  71 101 133 183 229 286 338 407
#     4  12  28  45  67 106 152 174 218 296 368 391
#     4  12  20  43  73  92 128 184 232 274 332 411
#     4  12  20  40  71  98 122 180 239 271 317 418
#     4  12  26  45  67  99 141 187 223 280 349 417
#     4  12  25  42  68 103 137 173 230 287 340 402
#
# _framework density 20.497191999999998
#
# number of rings (size 3 to 8) (size 9 to 14) (size 15 to 20)
#    0.000    0.000    8.333    3.000    0.000    0.000 
#    3.000    1.667    0.000    0.000    0.000    0.000 
#    0.000    0.000    0.000    0.000    0.000    0.000 
#
# Total GULP energy -134139.614601 kJ/mol
# GULP energy per Si atom -5589.150608 kJ/mol
# Density = 2.045054 g / cm^3
# Si number density = 20.497192 Si / 1000 Ang^3
#
#
#
# Elastic Constant Matrix: (Units=GPa)
#
#
# Indices 1 2 3 4 5 6 
#
# 1 137.0250 48.9896 23.1657 0.0000 14.8807 0.0000
# 2 48.9896 123.9198 29.4547 0.0000 30.8354 0.0000
# 3 23.1657 29.4547 45.6232 0.0000 22.0084 0.0000
# 4 0.0000 0.0000 0.0000 -6.7017 0.0000 0.7027
# 5 14.8807 30.8354 22.0084 0.0000 27.4787 0.0000
# 6 0.0000 0.0000 0.0000 0.7027 0.0000 27.8623
#
#
#
# Elastic Compliance Matrix: (Units=1/GPa)
#
#
# Indices 1 2 3 4 5 6 
#
# 1 0.008770 -0.003010 -0.003012 0.000000 0.001041 0.000000
# 2 -0.003010 0.012332 -0.000886 0.000000 -0.011498 0.000000
# 3 -0.003012 -0.000886 0.037080 0.000000 -0.027073 0.000000
# 4 0.000000 0.000000 0.000000 -0.148823 0.000000 0.003753
# 5 0.001041 -0.011498 -0.027073 0.000000 0.070414 0.000000
# 6 0.000000 0.000000 0.000000 0.003753 0.000000 0.035796
#
#
# Mechanical properties :
#
#
# Convention : Reuss Voigt Hill
#
# Bulk Modulus (GPa) = 22.54038 56.64311 39.59175
# Shear Modulus (GPa) = 113.18905 23.39174 68.29039
#
# Velocity S-wave (km/s) = 7.43919 3.38185 5.77835
# Velocity P-wave (km/s) = 9.20921 6.55315 7.99229
#
# Compressibility (1/GPa) = 0.04436482
#
# Stress axis : x y z
#
# Youngs Moduli (GPa) = 114.02048 81.09285 26.96876
#
# Poissons Ratio (x) = 0.24412 0.08123
# Poissons Ratio (y) = 0.34324 0.02390
# Poissons Ratio (z) = 0.34342 0.07187
#
# Static dielectric constant tensor:
#      x y z
#    x 1.700080 0.000000 0.054960 
#    y 0.000000 1.758740 0.000000 
#    z 0.054960 0.000000 1.696940 
# 
# From -- ./inp_files/182548.got.cif
#   From: 2010.05.17/outbox.cif.g08.bks.cpg/sg15_92_cif.got.tgz:182548.got - 2010.06.03 18:47:42.
