data_PCOD9306233
_publ_section_title
;
Structure prediction by ZEFSAII (Michael W. Deem and Ramdas Pophale) SiO2 
 PCOD9306233
Probable space group: C 2/C
;
_chemical_formula_sum "Si O2"
_cell_formula_units_Z 36
_cell_length_a 13.442510
_cell_length_b 6.285323
_cell_length_c 24.143788
_cell_angle_alpha 90.000000
_cell_angle_beta 49.110219
_cell_angle_gamma 90.000000
_cell_volume 1542.119659
_symmetry_space_group_name_H-M "C 2/C"
_symmetry_group_IT_number 15
_symmetry_cell_setting 'monoclinic'
loop_
_space_group_symop_operation_xyz
x,y,z
-x,y,1/2-z
-x,-y,-z
x,-y,1/2+z
1/2+x,1/2+y,z
1/2-x,1/2+y,1/2-z
1/2-x,1/2-y,-z
1/2+x,1/2-y,1/2+z
loop_
_atom_site_type_symbol
_atom_site_label
_atom_site_fract_x
_atom_site_fract_y
_atom_site_fract_z
Si Si1 0.807410 0.512476 0.985316
Si Si2 0.118719 0.837043 0.971123
Si Si3 0.000000 0.116260 0.250000
Si Si4 0.210156 0.786269 0.185840
Si Si5 0.063787 0.538163 0.818008
O O1 0.676013 0.399679 0.009846
O O2 0.928652 0.491982 0.898513
O O3 0.750000 0.750000 0.000000
O O4 0.869461 0.420850 0.020408
O O5 0.221778 0.866084 0.883696
O O6 0.000000 0.000000 0.000000
O O7 0.120795 0.964686 0.190292
O O8 0.041462 0.263792 0.285506
O O9 0.118458 0.654649 0.261200
O O10 0.326123 0.897293 0.177798
#
# Coordination Sequence:
#
# PCOD9306233 Si02
#       5
#     8   8   4   8   8
#     4  11  25  46  69 105 143 196 245 309 378 447
#     4  11  26  44  71 102 147 189 249 305 375 448
#     4  12  24  46  70 100 146 188 240 312 362 428
#     4  12  26  45  70 106 140 192 241 302 367 441
#     4  12  26  44  73 102 146 188 248 301 368 439
#
# _framework density 23.344494000000001
#
# number of rings (size 3 to 8) (size 9 to 14) (size 15 to 20)
#    0.000    0.444    2.222    6.000    3.111    8.889 
#    0.000    0.000    0.000    0.000    0.000    0.000 
#    0.000    0.000    0.000    0.000    0.000    0.000 
#
# Total GULP energy -100425.428280 kJ/mol
# GULP energy per Si atom -5579.190460 kJ/mol
# Density = 2.329136 g / cm^3
# Si number density = 23.344494 Si / 1000 Ang^3
#
#
#
# Elastic Constant Matrix: (Units=GPa)
#
#
# Indices 1 2 3 4 5 6 
#
# 1 138.0865 42.0428 -3.8780 -0.0041 -24.8103 -0.0063
# 2 42.0428 74.9048 21.7589 -0.0079 -15.1102 -0.0113
# 3 -3.8780 21.7589 130.9017 -0.0012 -12.7247 -0.0013
# 4 -0.0041 -0.0079 -0.0012 25.5561 0.0003 -15.4915
# 5 -24.8103 -15.1102 -12.7247 0.0003 27.6099 0.0002
# 6 -0.0063 -0.0113 -0.0013 -15.4915 0.0002 50.2773
#
#
#
# Elastic Compliance Matrix: (Units=1/GPa)
#
#
# Indices 1 2 3 4 5 6 
#
# 1 0.010021 -0.004676 0.001781 0.000000 0.007267 0.000000
# 2 -0.004676 0.017594 -0.002654 0.000008 0.004203 0.000006
# 3 0.001781 -0.002654 0.008530 0.000000 0.004078 0.000000
# 4 0.000000 0.000008 0.000000 0.048117 0.000004 0.014826
# 5 0.007267 0.004203 0.004078 0.000004 0.046929 0.000003
# 6 0.000000 0.000006 0.000000 0.014826 0.000003 0.024458
#
#
# Mechanical properties :
#
#
# Convention : Reuss Voigt Hill
#
# Bulk Modulus (GPa) = 39.92848 51.52673 45.72760
# Shear Modulus (GPa) = 28.55572 39.61994 34.08783
#
# Velocity S-wave (km/s) = 3.50127 4.12416 3.82541
# Velocity P-wave (km/s) = 5.78674 6.69317 6.25639
#
# Compressibility (1/GPa) = 0.02504478
#
# Stress axis : x y z
#
# Youngs Moduli (GPa) = 99.78897 56.83784 117.23676
#
# Poissons Ratio (x) = 0.26578 -0.20874
# Poissons Ratio (y) = 0.46662 0.31120
# Poissons Ratio (z) = -0.17768 0.15087
#
# Static dielectric constant tensor:
#      x y z
#    x 1.878940 0.000000 0.021120 
#    y 0.000000 2.635560 0.000000 
#    z 0.021120 0.000000 1.853490 
# 
# From -- ./inp_files/312227.got.cif
#   From: 2010.05.17/outbox.cif.g08.bks.cpg/sg15_157_cif.got.tgz:312227.got - 2010.06.03 18:47:42.
