data_PCOD9306277
_publ_section_title
;
Structure prediction by ZEFSAII (Michael W. Deem and Ramdas Pophale) SiO2 
 PCOD9306277
Probable space group: C 2/C
;
_chemical_formula_sum "Si O2"
_cell_formula_units_Z 32
_cell_length_a 8.513760
_cell_length_b 12.011234
_cell_length_c 26.941402
_cell_angle_alpha 90.000000
_cell_angle_beta 25.561918
_cell_angle_gamma 90.000000
_cell_volume 1188.765463
_symmetry_space_group_name_H-M "C 2/C"
_symmetry_group_IT_number 15
_symmetry_cell_setting 'monoclinic'
loop_
_space_group_symop_operation_xyz
x,y,z
-x,y,1/2-z
-x,-y,-z
x,-y,1/2+z
1/2+x,1/2+y,z
1/2-x,1/2+y,1/2-z
1/2-x,1/2-y,-z
1/2+x,1/2-y,1/2+z
loop_
_atom_site_type_symbol
_atom_site_label
_atom_site_fract_x
_atom_site_fract_y
_atom_site_fract_z
Si Si1 0.560896 0.971839 0.875452
Si Si2 0.295570 0.728272 0.075954
Si Si3 0.687308 0.090976 0.747599
Si Si4 0.621893 0.393698 0.578129
O O1 0.365535 0.857278 0.917589
O O2 0.000000 0.964361 0.750000
O O3 0.453833 0.059809 0.862266
O O4 0.401933 0.023188 0.970754
O O5 0.404034 0.667207 0.096127
O O6 0.981461 0.817251 0.177518
O O7 0.645351 0.800797 0.959691
O O8 0.500000 0.127450 0.750000
O O9 0.863522 0.971246 0.683582
#
# Coordination Sequence:
#
# PCOD9306277 Si02
#       4
#     8   8   8   8
#     4  12  26  48  73 104 142 184 236 286 346 419
#     4  11  25  46  73 103 140 191 223 291 355 402
#     4  12  26  48  73 104 142 184 236 286 346 419
#     4  11  26  49  68 106 148 175 234 295 342 414
#
# _framework density 26.918680999999999
#
# number of rings (size 3 to 8) (size 9 to 14) (size 15 to 20)
#    0.000    0.500    5.000    2.250    0.000    7.000 
#    0.000    0.000    0.000    0.000    0.000    0.000 
#    0.000    0.000    0.000    0.000    0.000    0.000 
#
# Total GULP energy -89934.597781 kJ/mol
# GULP energy per Si atom -5620.912361 kJ/mol
# Density = 2.685741 g / cm^3
# Si number density = 26.918681 Si / 1000 Ang^3
#
#
#
# Elastic Constant Matrix: (Units=GPa)
#
#
# Indices 1 2 3 4 5 6 
#
# 1 129.8371 44.1271 28.5571 -0.0298 -12.2444 0.0355
# 2 44.1271 160.0105 30.3080 -0.0622 -24.8700 0.0363
# 3 28.5571 30.3080 79.6853 0.0507 -5.7252 0.0288
# 4 -0.0298 -0.0622 0.0507 42.5312 0.0138 -27.5941
# 5 -12.2444 -24.8700 -5.7252 0.0138 42.5830 -0.0113
# 6 0.0355 0.0363 0.0288 -27.5941 -0.0113 58.8051
#
#
#
# Elastic Compliance Matrix: (Units=1/GPa)
#
#
# Indices 1 2 3 4 5 6 
#
# 1 0.008971 -0.001829 -0.002434 0.000006 0.001184 0.000000
# 2 -0.001829 0.007711 -0.002011 0.000014 0.003707 0.000005
# 3 -0.002434 -0.002011 0.014189 -0.000035 0.000033 -0.000021
# 4 0.000006 0.000014 -0.000035 0.033804 -0.000001 0.015862
# 5 0.001184 0.003707 0.000033 -0.000001 0.025994 0.000001
# 6 0.000000 0.000005 -0.000021 0.015862 0.000001 0.024449
#
#
# Mechanical properties :
#
#
# Convention : Reuss Voigt Hill
#
# Bulk Modulus (GPa) = 54.57769 63.94637 59.26203
# Shear Modulus (GPa) = 37.37697 46.55324 41.96511
#
# Velocity S-wave (km/s) = 3.73032 4.16312 3.95265
# Velocity P-wave (km/s) = 6.23480 6.84951 6.54937
#
# Compressibility (1/GPa) = 0.01832250
#
# Stress axis : x y z
#
# Youngs Moduli (GPa) = 111.47602 129.68353 70.47683
#
# Poissons Ratio (x) = 0.23716 0.17155
# Poissons Ratio (y) = 0.20386 0.14174
# Poissons Ratio (z) = 0.27135 0.26081
#
# Static dielectric constant tensor:
#      x y z
#    x 2.109550 0.000030 -0.044210 
#    y 0.000030 2.047590 0.000060 
#    z -0.044210 0.000060 2.067780 
# 
# From -- ./inp_files/131721.got.cif
#   From: 2010.05.17/outbox.cif.g08.bks.cpg/sg15_66_cif.got.tgz:131721.got - 2010.06.03 18:47:42.
