data_PCOD9306386
_publ_section_title
;
Structure prediction by ZEFSAII (Michael W. Deem and Ramdas Pophale) SiO2 
 PCOD9306386
Probable space group: C 2/C
;
_chemical_formula_sum "Si O2"
_cell_formula_units_Z 64
_cell_length_a 9.616079
_cell_length_b 15.594335
_cell_length_c 15.722708
_cell_angle_alpha 90.000000
_cell_angle_beta 70.871598
_cell_angle_gamma 90.000000
_cell_volume 2227.542260
_symmetry_space_group_name_H-M "C 2/C"
_symmetry_group_IT_number 15
_symmetry_cell_setting 'monoclinic'
loop_
_space_group_symop_operation_xyz
x,y,z
-x,y,1/2-z
-x,-y,-z
x,-y,1/2+z
1/2+x,1/2+y,z
1/2-x,1/2+y,1/2-z
1/2-x,1/2-y,-z
1/2+x,1/2-y,1/2+z
loop_
_atom_site_type_symbol
_atom_site_label
_atom_site_fract_x
_atom_site_fract_y
_atom_site_fract_z
Si Si1 0.082462 0.284414 0.034270
Si Si2 0.832947 0.020928 0.308057
Si Si3 0.442714 0.907352 0.925115
Si Si4 0.673007 0.708231 0.249540
Si Si5 0.331258 0.745695 0.889736
Si Si6 0.334730 0.482223 0.006077
Si Si7 0.104029 0.834180 0.394394
Si Si8 0.937775 0.578364 0.671068
O O1 0.014554 0.333313 0.128037
O O2 0.301778 0.414464 0.088591
O O3 0.026527 0.199147 0.998401
O O4 0.035882 0.359146 0.978076
O O5 0.783886 0.107477 0.268181
O O6 0.830410 0.045937 0.408643
O O7 0.000000 0.004406 0.250000
O O8 0.736913 0.937270 0.301966
O O9 0.428431 0.831973 0.860798
O O10 0.516158 0.997310 0.894220
O O11 0.274927 0.937615 0.973208
O O12 0.500000 0.706293 0.250000
O O13 0.281807 0.742662 0.165329
O O14 0.777951 0.767906 0.169542
O O15 0.455605 0.669952 0.866312
O O16 0.250000 0.750000 0.000000
O O17 0.500000 0.500000 0.000000
O O18 0.250000 0.750000 0.500000
O O19 0.000000 0.558970 0.750000
#
# Coordination Sequence:
#
# PCOD9306386 Si02
#       8
#     8   8   8   8   8   8   8   8
#     4  11  25  47  79 126 172 225 289 376 457 545
#     4  11  27  50  83 125 182 232 298 370 472 554
#     4  11  25  47  83 120 170 228 300 365 454 551
#     4  11  27  49  84 126 177 228 297 380 459 549
#     4  11  25  49  81 120 173 232 291 367 459 549
#     4  12  28  51  87 122 168 239 299 376 465 564
#     4  11  27  49  86 117 167 227 297 362 458 539
#     4  12  26  49  86 127 172 229 301 377 455 551
#
# _framework density 28.731218999999999
#
# number of rings (size 3 to 8) (size 9 to 14) (size 15 to 20)
#    0.000    0.750    1.250    4.500   14.000    1.000 
#    0.000   10.625    2.750    0.000    0.000    0.000 
#    0.000    0.000    0.000    0.000    0.000    0.000 
#
# Total GULP energy -178674.300332 kJ/mol
# GULP energy per Si atom -5583.571885 kJ/mol
# Density = 2.866583 g / cm^3
# Si number density = 28.731219 Si / 1000 Ang^3
#
#
#
# Elastic Constant Matrix: (Units=GPa)
#
#
# Indices 1 2 3 4 5 6 
#
# 1 251.8685 62.1565 53.4526 0.0000 14.8720 0.0000
# 2 62.1565 156.1447 32.1108 0.0000 2.8843 0.0000
# 3 53.4526 32.1108 105.4951 0.0000 30.5218 0.0000
# 4 0.0000 0.0000 0.0000 38.3740 0.0000 -0.8675
# 5 14.8720 2.8843 30.5218 0.0000 52.9964 0.0000
# 6 0.0000 0.0000 0.0000 -0.8675 0.0000 66.3238
#
#
#
# Elastic Compliance Matrix: (Units=1/GPa)
#
#
# Indices 1 2 3 4 5 6 
#
# 1 0.004754 -0.001497 -0.001909 0.000000 -0.000153 0.000000
# 2 -0.001497 0.007347 -0.001780 0.000000 0.001046 0.000000
# 3 -0.001909 -0.001780 0.012965 0.000000 -0.006835 0.000000
# 4 0.000000 0.000000 0.000000 0.026067 0.000000 0.000341
# 5 -0.000153 0.001046 -0.006835 0.000000 0.022792 0.000000
# 6 0.000000 0.000000 0.000000 0.000341 0.000000 0.015082
#
#
# Mechanical properties :
#
#
# Convention : Reuss Voigt Hill
#
# Bulk Modulus (GPa) = 68.05310 89.88312 78.96811
# Shear Modulus (GPa) = 47.94917 55.92474 51.93695
#
# Velocity S-wave (km/s) = 4.08963 4.41668 4.25630
# Velocity P-wave (km/s) = 6.78511 7.57373 7.19024
#
# Compressibility (1/GPa) = 0.01469441
#
# Stress axis : x y z
#
# Youngs Moduli (GPa) = 210.35416 136.10933 77.12790
#
# Poissons Ratio (x) = 0.20376 0.14721
# Poissons Ratio (y) = 0.31491 0.13731
# Poissons Ratio (z) = 0.40150 0.24231
#
# Static dielectric constant tensor:
#      x y z
#    x 2.811900 0.000000 -0.294560 
#    y 0.000000 2.322340 0.000000 
#    z -0.294560 0.000000 2.528290 
# 
# From -- ./inp_files/192959.got.cif
#   From: 2010.05.17/outbox.cif.g08.bks.cpg/sg15_97_cif.got.tgz:192959.got - 2010.06.03 18:47:42.
