data_PCOD9306626
_publ_section_title
;
Structure prediction by ZEFSAII (Michael W. Deem and Ramdas Pophale) SiO2 
 PCOD9306626
Probable space group: C 2/C
;
_chemical_formula_sum "Si O2"
_cell_formula_units_Z 40
_cell_length_a 7.237495
_cell_length_b 12.019055
_cell_length_c 19.782287
_cell_angle_alpha 90.000000
_cell_angle_beta 96.030196
_cell_angle_gamma 90.000000
_cell_volume 1711.296764
_symmetry_space_group_name_H-M "C 2/C"
_symmetry_group_IT_number 15
_symmetry_cell_setting 'monoclinic'
loop_
_space_group_symop_operation_xyz
x,y,z
-x,y,1/2-z
-x,-y,-z
x,-y,1/2+z
1/2+x,1/2+y,z
1/2-x,1/2+y,1/2-z
1/2-x,1/2-y,-z
1/2+x,1/2-y,1/2+z
loop_
_atom_site_type_symbol
_atom_site_label
_atom_site_fract_x
_atom_site_fract_y
_atom_site_fract_z
Si Si1 0.254817 0.152776 0.317683
Si Si2 0.824422 0.118455 0.336323
Si Si3 0.858275 0.207715 0.568896
Si Si4 0.417885 0.973557 0.422716
Si Si5 0.770949 0.870019 0.382336
O O1 0.262150 0.109645 0.241880
O O2 0.383030 0.078752 0.372388
O O3 0.292641 0.285468 0.320473
O O4 0.041866 0.145448 0.335123
O O5 0.711385 0.210617 0.374240
O O6 0.816259 0.997867 0.370177
O O7 0.750000 0.250000 0.500000
O O8 0.076835 0.188572 0.563646
O O9 0.779410 0.085676 0.580560
O O10 0.500000 0.000000 0.500000
O O11 0.561149 0.882160 0.399197
#
# Coordination Sequence:
#
# PCOD9306626 Si02
#       5
#     8   8   8   8   8
#     4  11  26  46  75 110 146 197 248 300 373 448
#     4  11  26  46  75 110 146 197 248 300 373 448
#     4  12  27  47  74 109 149 194 250 307 372 448
#     4  12  27  47  74 109 149 194 250 307 372 448
#     4  12  26  46  76 104 149 196 238 310 367 436
#
# _framework density 23.374089000000001
#
# number of rings (size 3 to 8) (size 9 to 14) (size 15 to 20)
#    0.000    0.400    4.000    3.600    5.600    6.400 
#    0.000    0.000    0.000    0.000    0.000    0.000 
#    0.000    0.000    0.000    0.000    0.000    0.000 
#
# Total GULP energy -111751.221821 kJ/mol
# GULP energy per Si atom -5587.561091 kJ/mol
# Density = 2.332089 g / cm^3
# Si number density = 23.374089 Si / 1000 Ang^3
#
#
#
# Elastic Constant Matrix: (Units=GPa)
#
#
# Indices 1 2 3 4 5 6 
#
# 1 101.2411 2.1909 14.6913 0.0000 18.0886 0.0000
# 2 2.1909 105.0518 30.5408 0.0000 12.4680 0.0000
# 3 14.6913 30.5408 111.1068 0.0000 13.2695 0.0000
# 4 0.0000 0.0000 0.0000 32.7944 0.0000 5.2521
# 5 18.0886 12.4680 13.2695 0.0000 25.3984 0.0000
# 6 0.0000 0.0000 0.0000 5.2521 0.0000 33.2138
#
#
#
# Elastic Compliance Matrix: (Units=1/GPa)
#
#
# Indices 1 2 3 4 5 6 
#
# 1 0.011438 0.000967 -0.000799 0.000000 -0.008204 0.000000
# 2 0.000967 0.010790 -0.002537 0.000000 -0.004660 0.000000
# 3 -0.000799 -0.002537 0.010225 0.000000 -0.003528 0.000000
# 4 0.000000 0.000000 0.000000 0.031285 0.000000 -0.004947
# 5 -0.008204 -0.004660 -0.003528 0.000000 0.049346 0.000000
# 6 0.000000 0.000000 0.000000 -0.004947 0.000000 0.030890
#
#
# Mechanical properties :
#
#
# Convention : Reuss Voigt Hill
#
# Bulk Modulus (GPa) = 36.08092 45.80507 40.94299
# Shear Modulus (GPa) = 31.65573 36.27975 33.96774
#
# Velocity S-wave (km/s) = 3.68409 3.94399 3.81625
# Velocity P-wave (km/s) = 5.79366 6.35446 6.08053
#
# Compressibility (1/GPa) = 0.02771548
#
# Stress axis : x y z
#
# Youngs Moduli (GPa) = 87.42700 92.68175 97.80275
#
# Poissons Ratio (x) = -0.08965 0.07810
# Poissons Ratio (y) = -0.08456 0.24814
# Poissons Ratio (z) = 0.06981 0.23515
#
# Static dielectric constant tensor:
#      x y z
#    x 1.939800 0.000000 0.017210 
#    y 0.000000 1.946640 0.000000 
#    z 0.017210 0.000000 1.878530 
# 
# From -- ./inp_files/187970.got.cif
#   From: 2010.05.17/outbox.cif.g08.bks.cpg/sg15_94_cif.got.tgz:187970.got - 2010.06.03 18:47:42.
