data_PCOD9306151
_publ_section_title
;
Structure prediction by ZEFSAII (Michael W. Deem and Ramdas Pophale) SiO2 
 PCOD9306151
Probable space group: C 2/C
;
_chemical_formula_sum "Si O2"
_cell_formula_units_Z 40
_cell_length_a 6.525625
_cell_length_b 17.498880
_cell_length_c 14.213437
_cell_angle_alpha 90.000000
_cell_angle_beta 106.737545
_cell_angle_gamma 90.000000
_cell_volume 1554.286324
_symmetry_space_group_name_H-M "C 2/C"
_symmetry_group_IT_number 15
_symmetry_cell_setting 'monoclinic'
loop_
_space_group_symop_operation_xyz
x,y,z
-x,y,1/2-z
-x,-y,-z
x,-y,1/2+z
1/2+x,1/2+y,z
1/2-x,1/2+y,1/2-z
1/2-x,1/2-y,-z
1/2+x,1/2-y,1/2+z
loop_
_atom_site_type_symbol
_atom_site_label
_atom_site_fract_x
_atom_site_fract_y
_atom_site_fract_z
Si Si1 0.000000 0.706539 0.250000
Si Si2 0.930585 0.281970 0.388705
Si Si3 0.753640 0.503117 0.987688
Si Si4 0.500000 0.909278 0.250000
Si Si5 0.302411 0.839914 0.910726
Si Si6 0.900463 0.009410 0.328684
O O1 0.192978 0.756339 0.323772
O O2 0.109362 0.655038 0.183643
O O3 0.008125 0.354998 0.340259
O O4 0.101888 0.216909 0.384837
O O5 0.995429 0.305367 0.503584
O O6 0.709817 0.414623 0.951418
O O7 0.592245 0.544195 0.895262
O O8 0.702845 0.534348 0.084335
O O9 0.000000 0.500000 0.000000
O O10 0.705841 0.960617 0.264897
O O11 0.000000 0.051054 0.250000
#
# Coordination Sequence:
#
# PCOD9306151 Si02
#       6
#     4   8   8   4   8   8
#     4  12  24  42  73 106 139 194 228 286 374 422
#     4  11  25  45  71 104 143 184 236 296 356 430
#     4  11  26  48  71 104 141 185 238 295 354 420
#     4  12  22  46  75 104 141 182 244 288 358 432
#     4  11  25  46  68 105 146 179 235 298 353 430
#     4  11  26  44  74 102 137 188 236 291 348 421
#
# _framework density 25.735285000000001
#
# number of rings (size 3 to 8) (size 9 to 14) (size 15 to 20)
#    0.000    0.800    4.000    1.800    1.400    6.400 
#    0.000    1.000    0.000    0.000    0.000    0.000 
#    0.000    0.000    0.000    0.000    0.000    0.000 
#
# Total GULP energy -111629.243713 kJ/mol
# GULP energy per Si atom -5581.462186 kJ/mol
# Density = 2.567671 g / cm^3
# Si number density = 25.735285 Si / 1000 Ang^3
#
#
#
# Elastic Constant Matrix: (Units=GPa)
#
#
# Indices 1 2 3 4 5 6 
#
# 1 182.6297 26.9419 76.2547 0.0000 -9.2826 0.0000
# 2 26.9419 47.5207 12.8449 0.0000 -7.7273 0.0000
# 3 76.2547 12.8449 154.0494 0.0000 -18.1095 0.0000
# 4 0.0000 0.0000 0.0000 26.6835 0.0000 1.0612
# 5 -9.2826 -7.7273 -18.1095 0.0000 62.4691 0.0000
# 6 0.0000 0.0000 0.0000 1.0612 0.0000 16.0323
#
#
#
# Elastic Compliance Matrix: (Units=1/GPa)
#
#
# Indices 1 2 3 4 5 6 
#
# 1 0.007371 -0.003307 -0.003409 0.000000 -0.000302 0.000000
# 2 -0.003307 0.023313 -0.000027 0.000000 0.002385 0.000000
# 3 -0.003409 -0.000027 0.008407 0.000000 0.001927 0.000000
# 4 0.000000 0.000000 0.000000 0.037575 0.000000 -0.002487
# 5 -0.000302 0.002385 0.001927 0.000000 0.016817 0.000000
# 6 0.000000 0.000000 0.000000 -0.002487 0.000000 0.062539
#
#
# Mechanical properties :
#
#
# Convention : Reuss Voigt Hill
#
# Bulk Modulus (GPa) = 39.05053 68.47588 53.76321
# Shear Modulus (GPa) = 28.08316 38.91422 33.49869
#
# Velocity S-wave (km/s) = 3.30696 3.89279 3.61177
# Velocity P-wave (km/s) = 5.45786 6.84621 6.19107
#
# Compressibility (1/GPa) = 0.02560785
#
# Stress axis : x y z
#
# Youngs Moduli (GPa) = 135.66230 42.89400 118.94200
#
# Poissons Ratio (x) = 0.14185 0.40542
# Poissons Ratio (y) = 0.44862 0.00317
# Poissons Ratio (z) = 0.46241 0.00114
#
# Static dielectric constant tensor:
#      x y z
#    x 2.136560 0.000000 0.073100 
#    y 0.000000 2.035090 0.000000 
#    z 0.073100 0.000000 2.519920 
# 
# From -- ./inp_files/129573.got.cif
#   From: 2010.05.17/outbox.cif.g08.bks.cpg/sg15_65_cif.got.tgz:129573.got - 2010.06.03 18:47:42.
