data_PCOD9306375
_publ_section_title
;
Structure prediction by ZEFSAII (Michael W. Deem and Ramdas Pophale) SiO2 
 PCOD9306375
Probable space group: C 2/C
;
_chemical_formula_sum "Si O2"
_cell_formula_units_Z 36
_cell_length_a 8.041322
_cell_length_b 9.407952
_cell_length_c 19.721301
_cell_angle_alpha 90.000000
_cell_angle_beta 80.900194
_cell_angle_gamma 90.000000
_cell_volume 1473.185850
_symmetry_space_group_name_H-M "C 2/C"
_symmetry_group_IT_number 15
_symmetry_cell_setting 'monoclinic'
loop_
_space_group_symop_operation_xyz
x,y,z
-x,y,1/2-z
-x,-y,-z
x,-y,1/2+z
1/2+x,1/2+y,z
1/2-x,1/2+y,1/2-z
1/2-x,1/2-y,-z
1/2+x,1/2-y,1/2+z
loop_
_atom_site_type_symbol
_atom_site_label
_atom_site_fract_x
_atom_site_fract_y
_atom_site_fract_z
Si Si1 0.975460 0.059095 0.392988
Si Si2 0.000000 0.268910 0.750000
Si Si3 0.102708 0.558611 0.374606
Si Si4 0.552697 0.722323 0.524224
Si Si5 0.632044 0.780247 0.302520
O O1 0.801240 0.086790 0.366141
O O2 0.977774 0.148778 0.462471
O O3 0.120078 0.123165 0.335970
O O4 0.981138 0.894771 0.414401
O O5 0.974735 0.365985 0.685771
O O6 0.823599 0.186721 0.769119
O O7 0.079595 0.391676 0.364251
O O8 0.025307 0.630554 0.445801
O O9 0.750000 0.750000 0.500000
O O10 0.500000 0.792518 0.250000
#
# Coordination Sequence:
#
# PCOD9306375 Si02
#       5
#     8   4   8   8   8
#     4  11  25  47  77 107 149 199 247 310 374 444
#     4  12  26  46  74 110 154 198 246 306 366 450
#     4  12  25  46  75 110 148 198 248 305 376 443
#     4  11  26  49  75 110 149 198 250 312 376 443
#     4  12  27  50  75 111 153 199 248 307 372 444
#
# _framework density 24.436836
#
# number of rings (size 3 to 8) (size 9 to 14) (size 15 to 20)
#    0.000    0.444    3.333    4.667    0.000   12.444 
#    6.000    0.000    0.000    1.333    0.000    0.000 
#    0.000    0.000    0.000    0.000    0.000    0.000 
#
# Total GULP energy -100852.247972 kJ/mol
# GULP energy per Si atom -5602.902665 kJ/mol
# Density = 2.438122 g / cm^3
# Si number density = 24.436836 Si / 1000 Ang^3
#
#
#
# Elastic Constant Matrix: (Units=GPa)
#
#
# Indices 1 2 3 4 5 6 
#
# 1 133.9751 41.1456 42.8545 0.0000 9.7338 0.0000
# 2 41.1456 134.7147 45.9991 0.0000 -15.4398 0.0000
# 3 42.8545 45.9991 58.2318 0.0000 16.1405 0.0000
# 4 0.0000 0.0000 0.0000 58.2637 0.0000 -6.7737
# 5 9.7338 -15.4398 16.1405 0.0000 50.8234 0.0000
# 6 0.0000 0.0000 0.0000 -6.7737 0.0000 20.0632
#
#
#
# Elastic Compliance Matrix: (Units=1/GPa)
#
#
# Indices 1 2 3 4 5 6 
#
# 1 0.009814 -0.000724 -0.006655 0.000000 0.000014 0.000000
# 2 -0.000724 0.012364 -0.011309 0.000000 0.007486 0.000000
# 3 -0.006655 -0.011309 0.034653 0.000000 -0.013166 0.000000
# 4 0.000000 0.000000 0.000000 0.017865 0.000000 0.006031
# 5 0.000014 0.007486 -0.013166 0.000000 0.026129 0.000000
# 6 0.000000 0.000000 0.000000 0.006031 0.000000 0.051879
#
#
# Mechanical properties :
#
#
# Convention : Reuss Voigt Hill
#
# Bulk Modulus (GPa) = 51.39802 65.21336 58.30569
# Shear Modulus (GPa) = 25.43734 38.95821 32.19778
#
# Velocity S-wave (km/s) = 3.22986 3.99713 3.63380
# Velocity P-wave (km/s) = 5.91507 6.93160 6.44341
#
# Compressibility (1/GPa) = 0.01945600
#
# Stress axis : x y z
#
# Youngs Moduli (GPa) = 101.89637 80.88310 28.85784
#
# Poissons Ratio (x) = 0.05852 0.19204
# Poissons Ratio (y) = 0.07373 0.32635
# Poissons Ratio (z) = 0.67809 0.91469
#
# Static dielectric constant tensor:
#      x y z
#    x 1.889860 0.000000 -0.021580 
#    y 0.000000 1.945010 0.000000 
#    z -0.021580 0.000000 1.940310 
# 
# From -- ./inp_files/229343.got.cif
#   From: 2010.05.17/outbox.cif.g08.bks.cpg/sg15_115_cif.got.tgz:229343.got - 2010.06.03 18:47:42.
