data_PCOD9306835
_publ_section_title
;
Structure prediction by ZEFSAII (Michael W. Deem and Ramdas Pophale) SiO2 
 PCOD9306835
Probable space group: C 2/C
;
_chemical_formula_sum "Si O2"
_cell_formula_units_Z 32
_cell_length_a 5.256226
_cell_length_b 17.351465
_cell_length_c 13.903038
_cell_angle_alpha 90.000000
_cell_angle_beta 96.385696
_cell_angle_gamma 90.000000
_cell_volume 1260.134811
_symmetry_space_group_name_H-M "C 2/C"
_symmetry_group_IT_number 15
_symmetry_cell_setting 'monoclinic'
loop_
_space_group_symop_operation_xyz
x,y,z
-x,y,1/2-z
-x,-y,-z
x,-y,1/2+z
1/2+x,1/2+y,z
1/2-x,1/2+y,1/2-z
1/2-x,1/2-y,-z
1/2+x,1/2-y,1/2+z
loop_
_atom_site_type_symbol
_atom_site_label
_atom_site_fract_x
_atom_site_fract_y
_atom_site_fract_z
Si Si1 0.112067 0.798914 0.844054
Si Si2 0.696020 0.437013 0.969025
Si Si3 0.620733 0.064196 0.648824
Si Si4 0.850685 0.214014 0.604944
O O1 0.091660 0.854657 0.934659
O O2 0.390464 0.759635 0.857614
O O3 0.000000 0.847301 0.750000
O O4 0.891414 0.735632 0.839235
O O5 0.804818 0.476500 0.876189
O O6 0.500000 0.500000 0.000000
O O7 0.910931 0.420460 0.057005
O O8 0.500000 0.069813 0.750000
O O9 0.853433 0.122750 0.630128
O O10 0.750000 0.250000 0.500000
#
# Coordination Sequence:
#
# PCOD9306835 Si02
#       4
#     8   8   8   8
#     4  12  28  48  77 111 155 204 259 324 401 475
#     4  11  27  49  75 116 157 211 262 335 405 483
#     4  11  27  48  79 112 156 211 270 331 402 486
#     4  12  25  51  76 111 155 204 262 328 394 475
#
# _framework density 25.394110000000001
#
# number of rings (size 3 to 8) (size 9 to 14) (size 15 to 20)
#    0.000    0.500    2.500    3.750   10.500    0.000 
#    0.000    0.000    0.000    0.000    0.000    0.000 
#    0.000    0.000    0.000    0.000    0.000    0.000 
#
# Total GULP energy -89385.114301 kJ/mol
# GULP energy per Si atom -5586.569644 kJ/mol
# Density = 2.533631 g / cm^3
# Si number density = 25.394110 Si / 1000 Ang^3
#
#
#
# Elastic Constant Matrix: (Units=GPa)
#
#
# Indices 1 2 3 4 5 6 
#
# 1 151.2917 50.5665 59.4270 0.0000 14.7247 0.0000
# 2 50.5665 119.4923 46.4178 0.0000 3.7705 0.0000
# 3 59.4270 46.4178 145.2018 0.0000 1.1997 0.0000
# 4 0.0000 0.0000 0.0000 38.2228 0.0000 -1.0695
# 5 14.7247 3.7705 1.1997 0.0000 51.5061 0.0000
# 6 0.0000 0.0000 0.0000 -1.0695 0.0000 53.5869
#
#
#
# Elastic Compliance Matrix: (Units=1/GPa)
#
#
# Indices 1 2 3 4 5 6 
#
# 1 0.008768 -0.002572 -0.002748 0.000000 -0.002254 0.000000
# 2 -0.002572 0.010330 -0.002250 0.000000 0.000031 0.000000
# 3 -0.002748 -0.002250 0.008725 0.000000 0.000747 0.000000
# 4 0.000000 0.000000 0.000000 0.026177 0.000000 0.000522
# 5 -0.002254 0.000031 0.000747 0.000000 0.020040 0.000000
# 6 0.000000 0.000000 0.000000 0.000522 0.000000 0.018672
#
#
# Mechanical properties :
#
#
# Convention : Reuss Voigt Hill
#
# Bulk Modulus (GPa) = 78.84185 80.97873 79.91029
# Shear Modulus (GPa) = 44.61152 45.96810 45.28981
#
# Velocity S-wave (km/s) = 4.19593 4.25925 4.22770
# Velocity P-wave (km/s) = 7.38844 7.49308 7.44095
#
# Compressibility (1/GPa) = 0.01268362
#
# Stress axis : x y z
#
# Youngs Moduli (GPa) = 114.05001 96.80397 114.61821
#
# Poissons Ratio (x) = 0.24898 0.31494
# Poissons Ratio (y) = 0.29333 0.25789
# Poissons Ratio (z) = 0.31338 0.21780
#
# Static dielectric constant tensor:
#      x y z
#    x 2.131840 0.000000 -0.400500 
#    y 0.000000 2.103350 0.000000 
#    z -0.400500 0.000000 2.913140 
# 
# From -- ./inp_files/128380.got.cif
#   From: 2010.05.17/outbox.cif.g08.bks.cpg/sg15_65_cif.got.tgz:128380.got - 2010.06.03 18:47:42.
