data_PCOD9306214
_publ_section_title
;
Structure prediction by ZEFSAII (Michael W. Deem and Ramdas Pophale) SiO2 
 PCOD9306214
Probable space group: C 2/C
;
_chemical_formula_sum "Si O2"
_cell_formula_units_Z 36
_cell_length_a 9.265989
_cell_length_b 17.307087
_cell_length_c 20.554789
_cell_angle_alpha 90.000000
_cell_angle_beta 30.591501
_cell_angle_gamma 90.000000
_cell_volume 1677.540250
_symmetry_space_group_name_H-M "C 2/C"
_symmetry_group_IT_number 15
_symmetry_cell_setting 'monoclinic'
loop_
_space_group_symop_operation_xyz
x,y,z
-x,y,1/2-z
-x,-y,-z
x,-y,1/2+z
1/2+x,1/2+y,z
1/2-x,1/2+y,1/2-z
1/2-x,1/2-y,-z
1/2+x,1/2-y,1/2+z
loop_
_atom_site_type_symbol
_atom_site_label
_atom_site_fract_x
_atom_site_fract_y
_atom_site_fract_z
Si Si1 0.080453 0.592025 0.388835
Si Si2 0.269439 0.433234 0.601063
Si Si3 0.260825 0.321123 0.043868
Si Si4 0.500000 0.279415 0.750000
Si Si5 0.182320 0.586634 0.865345
O O1 0.841763 0.593257 0.426254
O O2 0.970136 0.600762 0.505891
O O3 0.305350 0.659429 0.286463
O O4 0.200770 0.504682 0.341961
O O5 0.500000 0.500000 0.500000
O O6 0.445142 0.366237 0.568604
O O7 0.000000 0.456482 0.750000
O O8 0.202843 0.279321 0.134053
O O9 0.007755 0.376499 0.117613
O O10 0.250000 0.250000 0.000000
O O11 0.500000 0.617846 0.750000
#
# Coordination Sequence:
#
# PCOD9306214 Si02
#       5
#     8   8   8   4   8
#     4  11  25  46  76 103 143 197 248 301 367 447
#     4  12  29  47  79 111 150 195 252 301 370 448
#     4  12  27  49  70 109 153 192 237 319 373 436
#     4  12  26  46  76 106 152 188 252 314 374 428
#     4  11  25  45  78 105 144 193 257 299 374 448
#
# _framework density 21.459990999999999
#
# number of rings (size 3 to 8) (size 9 to 14) (size 15 to 20)
#    0.000    0.444    5.556    1.333    7.778    3.556 
#    0.000    0.000    0.000    0.000    0.000    0.000 
#    0.000    0.000    0.000    0.000    0.000    0.000 
#
# Total GULP energy -100574.451662 kJ/mol
# GULP energy per Si atom -5587.469537 kJ/mol
# Density = 2.141115 g / cm^3
# Si number density = 21.459991 Si / 1000 Ang^3
#
#
#
# Elastic Constant Matrix: (Units=GPa)
#
#
# Indices 1 2 3 4 5 6 
#
# 1 110.2068 37.7436 17.3297 0.0334 -34.9627 -0.0510
# 2 37.7436 92.2685 54.2398 0.0327 -10.2664 -0.0068
# 3 17.3297 54.2398 87.7196 -0.0027 -24.0706 -0.0613
# 4 0.0334 0.0327 -0.0027 27.2990 -0.0294 -8.4425
# 5 -34.9627 -10.2664 -24.0706 -0.0294 40.4540 0.0396
# 6 -0.0510 -0.0068 -0.0613 -8.4425 0.0396 40.0886
#
#
#
# Elastic Compliance Matrix: (Units=1/GPa)
#
#
# Indices 1 2 3 4 5 6 
#
# 1 0.015841 -0.008493 0.006319 0.000013 0.015295 0.000016
# 2 -0.008493 0.021765 -0.014674 -0.000037 -0.010548 -0.000027
# 3 0.006319 -0.014674 0.023546 0.000040 0.015748 0.000034
# 4 0.000013 -0.000037 0.000040 0.039183 0.000046 0.008252
# 5 0.015295 -0.010548 0.015748 0.000046 0.044632 0.000007
# 6 0.000016 -0.000027 0.000034 0.008252 0.000007 0.026683
#
#
# Mechanical properties :
#
#
# Convention : Reuss Voigt Hill
#
# Bulk Modulus (GPa) = 36.42200 56.53567 46.47883
# Shear Modulus (GPa) = 23.31016 33.62712 28.46864
#
# Velocity S-wave (km/s) = 3.29935 3.96279 3.64619
# Velocity P-wave (km/s) = 5.61455 6.88042 6.27946
#
# Compressibility (1/GPa) = 0.02745593
#
# Stress axis : x y z
#
# Youngs Moduli (GPa) = 63.12628 45.94591 42.46920
#
# Poissons Ratio (x) = 0.39021 -0.26836
# Poissons Ratio (y) = 0.53612 0.62321
# Poissons Ratio (z) = -0.39889 0.67423
#
# Static dielectric constant tensor:
#      x y z
#    x 1.727860 -0.000030 0.053690 
#    y -0.000030 1.781780 0.000240 
#    z 0.053690 0.000240 1.389770 
# 
# From -- ./inp_files/134164.got.cif
#   From: 2010.05.17/outbox.cif.g08.bks.cpg/sg15_68_cif.got.tgz:134164.got - 2010.06.03 18:47:42.
