data_PCOD9306471
_publ_section_title
;
Structure prediction by ZEFSAII (Michael W. Deem and Ramdas Pophale) SiO2 
 PCOD9306471
Probable space group: C 2/C
;
_chemical_formula_sum "Si O2"
_cell_formula_units_Z 40
_cell_length_a 14.964613
_cell_length_b 11.487565
_cell_length_c 15.214632
_cell_angle_alpha 90.000000
_cell_angle_beta 140.516400
_cell_angle_gamma 90.000000
_cell_volume 1663.085609
_symmetry_space_group_name_H-M "C 2/C"
_symmetry_group_IT_number 15
_symmetry_cell_setting 'monoclinic'
loop_
_space_group_symop_operation_xyz
x,y,z
-x,y,1/2-z
-x,-y,-z
x,-y,1/2+z
1/2+x,1/2+y,z
1/2-x,1/2+y,1/2-z
1/2-x,1/2-y,-z
1/2+x,1/2-y,1/2+z
loop_
_atom_site_type_symbol
_atom_site_label
_atom_site_fract_x
_atom_site_fract_y
_atom_site_fract_z
Si Si1 0.500000 0.171440 0.750000
Si Si2 0.748002 0.020653 0.956991
Si Si3 0.750000 0.750000 0.000000
Si Si4 0.795517 0.493318 0.783915
Si Si5 0.034372 0.695580 0.488961
Si Si6 0.966056 0.138148 0.352546
O O1 0.612460 0.092886 0.886834
O O2 0.580708 0.255176 0.744346
O O3 0.728983 0.015291 0.837236
O O4 0.893912 0.084986 0.082732
O O5 0.746312 0.892013 0.992573
O O6 0.612468 0.753948 0.963403
O O7 0.864310 0.603590 0.883910
O O8 0.652311 0.457406 0.723077
O O9 0.896770 0.380126 0.863930
O O10 0.001896 0.802105 0.529461
#
# Coordination Sequence:
#
# PCOD9306471 Si02
#       6
#     4   8   4   8   8   8
#     4  12  26  48  74 106 144 192 244 312 364 442
#     4  12  26  49  71 109 148 189 251 299 378 440
#     4  12  28  44  72 112 146 194 240 312 364 444
#     4  11  25  49  70 105 151 193 238 303 371 438
#     4  11  26  47  73 105 149 196 243 299 377 433
#     4  12  26  46  77 107 141 199 249 299 362 450
#
# _framework density 24.051677999999999
#
# number of rings (size 3 to 8) (size 9 to 14) (size 15 to 20)
#    0.000    0.400    4.000    3.600    5.600    0.000 
#    7.200    0.000    0.000    0.000    0.000    0.000 
#    0.000    0.000    0.000    0.000    0.000    0.000 
#
# Total GULP energy -111652.632061 kJ/mol
# GULP energy per Si atom -5582.631603 kJ/mol
# Density = 2.399694 g / cm^3
# Si number density = 24.051678 Si / 1000 Ang^3
#
#
#
# Elastic Constant Matrix: (Units=GPa)
#
#
# Indices 1 2 3 4 5 6 
#
# 1 80.1728 11.9315 3.3401 0.0000 7.3372 0.0000
# 2 11.9315 93.4016 32.4613 0.0000 -1.5991 0.0000
# 3 3.3401 32.4613 61.0369 0.0000 12.6903 0.0000
# 4 0.0000 0.0000 0.0000 3.6288 0.0000 14.4594
# 5 7.3372 -1.5991 12.6903 0.0000 11.4259 0.0000
# 6 0.0000 0.0000 0.0000 14.4594 0.0000 46.8075
#
#
#
# Elastic Compliance Matrix: (Units=1/GPa)
#
#
# Indices 1 2 3 4 5 6 
#
# 1 0.014086 -0.003400 0.003923 0.000000 -0.013878 0.000000
# 2 -0.003400 0.015482 -0.011640 0.000000 0.017279 0.000000
# 3 0.003923 -0.011640 0.030195 0.000000 -0.037684 0.000000
# 4 0.000000 0.000000 0.000000 -1.193522 0.000000 0.368693
# 5 -0.013878 0.017279 -0.037684 0.000000 0.140705 0.000000
# 6 0.000000 0.000000 0.000000 0.368693 0.000000 -0.092530
#
#
# Mechanical properties :
#
#
# Convention : Reuss Voigt Hill
#
# Bulk Modulus (GPa) = 26.64733 36.67524 31.66128
# Shear Modulus (GPa) = -4.75810 24.83101 10.03645
#
# Velocity S-wave (km/s) = -1.40804 3.21659 2.04498
# Velocity P-wave (km/s) = 2.90858 5.39230 4.33224
#
# Compressibility (1/GPa) = 0.03752721
#
# Stress axis : x y z
#
# Youngs Moduli (GPa) = 70.99359 64.59018 33.11858
#
# Poissons Ratio (x) = 0.21964 -0.12993
# Poissons Ratio (y) = 0.24141 0.38551
# Poissons Ratio (z) = -0.27852 0.75185
#
# Static dielectric constant tensor:
#      x y z
#    x 1.901790 0.000000 -0.035820 
#    y 0.000000 1.838790 0.000000 
#    z -0.035820 0.000000 1.936880 
# 
# From -- ./inp_files/94633.got.cif
#   From: 2010.05.17/outbox.cif.g08.bks.cpg/sg15_48_cif.got.tgz:94633.got - 2010.06.03 18:47:42.
