data_PCOD9306745
_publ_section_title
;
Structure prediction by ZEFSAII (Michael W. Deem and Ramdas Pophale) SiO2 
 PCOD9306745
Probable space group: C 2/C
;
_chemical_formula_sum "Si O2"
_cell_formula_units_Z 24
_cell_length_a 21.641893
_cell_length_b 5.061184
_cell_length_c 19.235034
_cell_angle_alpha 90.000000
_cell_angle_beta 154.580068
_cell_angle_gamma 90.000000
_cell_volume 904.377992
_symmetry_space_group_name_H-M "C 2/C"
_symmetry_group_IT_number 15
_symmetry_cell_setting 'monoclinic'
loop_
_space_group_symop_operation_xyz
x,y,z
-x,y,1/2-z
-x,-y,-z
x,-y,1/2+z
1/2+x,1/2+y,z
1/2-x,1/2+y,1/2-z
1/2-x,1/2-y,-z
1/2+x,1/2-y,1/2+z
loop_
_atom_site_type_symbol
_atom_site_label
_atom_site_fract_x
_atom_site_fract_y
_atom_site_fract_z
Si Si1 0.974761 0.339031 0.859873
Si Si2 0.663014 0.799749 0.180692
Si Si3 0.247135 0.003957 0.946086
O O1 0.867763 0.575014 0.775041
O O2 0.894562 0.094861 0.742077
O O3 0.033475 0.252077 0.995263
O O4 0.104996 0.462596 0.947801
O O5 0.751468 0.534212 0.270669
O O6 0.250000 0.750000 0.000000
O O7 0.250000 0.250000 0.000000
#
# Coordination Sequence:
#
# PCOD9306745 Si02
#       3
#     8   8   8
#     4  11  27  54  82 124 165 216 285 338 423 491
#     4  11  26  49  86 124 165 213 268 363 416 489
#     4  12  30  52  80 117 171 226 277 334 404 502
#
# _framework density 26.537576999999999
#
# number of rings (size 3 to 8) (size 9 to 14) (size 15 to 20)
#    0.000    0.667    3.333    1.000    4.667   16.000 
#    0.000    0.000    0.000    0.000    0.000    0.000 
#    0.000    0.000    0.000    0.000    0.000    0.000 
#
# Total GULP energy -67174.191393 kJ/mol
# GULP energy per Si atom -5597.849283 kJ/mol
# Density = 2.647718 g / cm^3
# Si number density = 26.537577 Si / 1000 Ang^3
#
#
#
# Elastic Constant Matrix: (Units=GPa)
#
#
# Indices 1 2 3 4 5 6 
#
# 1 169.5441 72.5927 43.3349 0.0000 25.9660 0.0000
# 2 72.5927 231.4221 85.7761 0.0004 -10.5049 0.0002
# 3 43.3349 85.7761 130.9134 0.0000 -7.6994 0.0000
# 4 0.0000 0.0004 0.0000 33.0238 0.0001 -1.0272
# 5 25.9660 -10.5049 -7.6994 0.0001 61.1587 0.0000
# 6 0.0000 0.0002 0.0000 -1.0272 0.0000 65.1324
#
#
#
# Elastic Compliance Matrix: (Units=1/GPa)
#
#
# Indices 1 2 3 4 5 6 
#
# 1 0.007735 -0.002070 -0.001429 0.000000 -0.003819 0.000000
# 2 -0.002070 0.006277 -0.003337 0.000000 0.001537 0.000000
# 3 -0.001429 -0.003337 0.010377 0.000000 0.001340 0.000000
# 4 0.000000 0.000000 0.000000 0.030296 0.000000 0.000478
# 5 -0.003819 0.001537 0.001340 0.000000 0.018405 0.000000
# 6 0.000000 0.000000 0.000000 0.000478 0.000000 0.015361
#
#
# Mechanical properties :
#
#
# Convention : Reuss Voigt Hill
#
# Bulk Modulus (GPa) = 93.31088 103.92076 98.61582
# Shear Modulus (GPa) = 47.30608 53.87473 50.59041
#
# Velocity S-wave (km/s) = 4.22667 4.51058 4.37093
# Velocity P-wave (km/s) = 7.68491 8.14690 7.91928
#
# Compressibility (1/GPa) = 0.01071686
#
# Stress axis : x y z
#
# Youngs Moduli (GPa) = 129.28987 159.30796 96.36758
#
# Poissons Ratio (x) = 0.32977 0.13767
# Poissons Ratio (y) = 0.26764 0.32160
# Poissons Ratio (z) = 0.18470 0.53165
#
# Static dielectric constant tensor:
#      x y z
#    x 2.005140 0.000000 -0.006200 
#    y 0.000000 2.105980 0.000000 
#    z -0.006200 0.000000 2.372670 
# 
# From -- ./inp_files/282950.got.cif
#   From: 2010.05.17/outbox.cif.g08.bks.cpg/sg15_142_cif.got.tgz:282950.got - 2010.06.03 18:47:42.
