data_PCOD9306006
_publ_section_title
;
Structure prediction by ZEFSAII (Michael W. Deem and Ramdas Pophale) SiO2 
 PCOD9306006
Probable space group: C 2/C
;
_chemical_formula_sum "Si O2"
_cell_formula_units_Z 40
_cell_length_a 16.005992
_cell_length_b 13.177262
_cell_length_c 9.471506
_cell_angle_alpha 90.000000
_cell_angle_beta 57.816426
_cell_angle_gamma 90.000000
_cell_volume 1690.731757
_symmetry_space_group_name_H-M "C 2/C"
_symmetry_group_IT_number 15
_symmetry_cell_setting 'monoclinic'
loop_
_space_group_symop_operation_xyz
x,y,z
-x,y,1/2-z
-x,-y,-z
x,-y,1/2+z
1/2+x,1/2+y,z
1/2-x,1/2+y,1/2-z
1/2-x,1/2-y,-z
1/2+x,1/2-y,1/2+z
loop_
_atom_site_type_symbol
_atom_site_label
_atom_site_fract_x
_atom_site_fract_y
_atom_site_fract_z
Si Si1 0.436470 0.805027 0.441286
Si Si2 0.781680 0.588706 0.919739
Si Si3 0.399862 0.747269 0.774974
Si Si4 0.549625 0.427075 0.566597
Si Si5 0.710070 0.886273 0.405739
O O1 0.500000 0.850552 0.250000
O O2 0.327093 0.821504 0.474801
O O3 0.421703 0.824932 0.623560
O O4 0.478638 0.691317 0.421946
O O5 0.825846 0.597794 0.721980
O O6 0.665967 0.577578 0.990117
O O7 0.801552 0.489467 0.996290
O O8 0.500000 0.704804 0.750000
O O9 0.321529 0.660469 0.800633
O O10 0.350778 0.805464 0.949923
O O11 0.500000 0.466292 0.750000
O O12 0.500000 0.500000 0.500000
#
# Coordination Sequence:
#
# PCOD9306006 Si02
#       5
#     8   8   8   8   8
#     4  11  25  46  74 105 149 197 248 308 375 446
#     4  12  24  47  70 111 144 199 250 310 374 452
#     4  11  25  47  69 104 145 193 244 312 370 446
#     4  11  25  41  67 107 150 195 242 305 367 448
#     4  11  26  43  74 101 146 191 247 303 376 445
#
# _framework density 23.658396
#
# number of rings (size 3 to 8) (size 9 to 14) (size 15 to 20)
#    0.000    0.800    2.000    4.200    2.800    0.800 
#    0.000    4.000    0.000    0.000    0.000    0.000 
#    0.000    0.000    0.000    0.000    0.000    0.000 
#
# Total GULP energy -111446.117585 kJ/mol
# GULP energy per Si atom -5572.305879 kJ/mol
# Density = 2.360455 g / cm^3
# Si number density = 23.658396 Si / 1000 Ang^3
#
#
#
# Elastic Constant Matrix: (Units=GPa)
#
#
# Indices 1 2 3 4 5 6 
#
# 1 137.5893 47.2402 53.8724 0.0000 23.1500 0.0000
# 2 47.2402 61.6049 36.0443 0.0000 16.2269 0.0000
# 3 53.8724 36.0443 158.7735 0.0000 38.9316 0.0000
# 4 0.0000 0.0000 0.0000 21.9373 0.0000 32.8823
# 5 23.1500 16.2269 38.9316 0.0000 45.5300 0.0000
# 6 0.0000 0.0000 0.0000 32.8823 0.0000 11.2461
#
#
#
# Elastic Compliance Matrix: (Units=1/GPa)
#
#
# Indices 1 2 3 4 5 6 
#
# 1 0.010458 -0.006643 -0.001666 0.000000 -0.001525 0.000000
# 2 -0.006643 0.023485 -0.002345 0.000000 -0.002987 0.000000
# 3 -0.001666 -0.002345 0.008836 0.000000 -0.005872 0.000000
# 4 0.000000 0.000000 0.000000 -0.013476 0.000000 0.039402
# 5 -0.001525 -0.002987 -0.005872 0.000000 0.028825 0.000000
# 6 0.000000 0.000000 0.000000 0.039402 0.000000 -0.026287
#
#
# Mechanical properties :
#
#
# Convention : Reuss Voigt Hill
#
# Bulk Modulus (GPa) = 46.57547 70.25349 58.41448
# Shear Modulus (GPa) = 82.90979 30.46339 56.68659
#
# Velocity S-wave (km/s) = 5.92627 3.59226 4.90025
# Velocity P-wave (km/s) = 8.15824 6.85311 7.53399
#
# Compressibility (1/GPa) = 0.02147053
#
# Stress axis : x y z
#
# Youngs Moduli (GPa) = 95.62284 42.58002 113.17317
#
# Poissons Ratio (x) = 0.28284 0.18860
# Poissons Ratio (y) = 0.63518 0.26541
# Poissons Ratio (z) = 0.15935 0.09986
#
# Static dielectric constant tensor:
#      x y z
#    x 1.861580 0.000000 -0.068830 
#    y 0.000000 1.908750 0.000000 
#    z -0.068830 0.000000 1.981390 
# 
# From -- ./inp_files/37830.got.cif
#   From: 2010.05.17/outbox.cif.g08.bks.cpg/sg15_19_cif.got.tgz:37830.got - 2010.06.03 18:47:42.
