data_PCOD9306241
_publ_section_title
;
Structure prediction by ZEFSAII (Michael W. Deem and Ramdas Pophale) SiO2 
 PCOD9306241
Probable space group: C 2/C
;
_chemical_formula_sum "Si O2"
_cell_formula_units_Z 40
_cell_length_a 23.914283
_cell_length_b 5.182314
_cell_length_c 20.542824
_cell_angle_alpha 90.000000
_cell_angle_beta 131.673535
_cell_angle_gamma 90.000000
_cell_volume 1901.647755
_symmetry_space_group_name_H-M "C 2/C"
_symmetry_group_IT_number 15
_symmetry_cell_setting 'monoclinic'
loop_
_space_group_symop_operation_xyz
x,y,z
-x,y,1/2-z
-x,-y,-z
x,-y,1/2+z
1/2+x,1/2+y,z
1/2-x,1/2+y,1/2-z
1/2-x,1/2-y,-z
1/2+x,1/2-y,1/2+z
loop_
_atom_site_type_symbol
_atom_site_label
_atom_site_fract_x
_atom_site_fract_y
_atom_site_fract_z
Si Si1 0.505868 0.604750 0.182224
Si Si2 0.705781 0.046623 0.420816
Si Si3 0.554595 0.756561 0.546258
Si Si4 0.594220 0.888394 0.718710
Si Si5 0.857081 0.242038 0.015935
O O1 0.500000 0.707494 0.250000
O O2 0.543796 0.329050 0.212864
O O3 0.423882 0.555162 0.089808
O O4 0.554290 0.829656 0.184435
O O5 0.750000 0.250000 0.500000
O O6 0.665790 0.110089 0.321768
O O7 0.772159 0.852760 0.451338
O O8 0.644775 0.942216 0.425272
O O9 0.500000 0.500000 0.500000
O O10 0.598836 0.778763 0.648788
O O11 0.614044 0.798700 0.533917
O O12 0.500000 0.000000 0.500000
#
# Coordination Sequence:
#
# PCOD9306241 Si02
#       5
#     8   8   8   8   8
#     4  12  23  41  75 104 136 184 251 297 348 417
#     4  11  27  47  71 104 149 190 240 299 366 429
#     4  12  25  46  74 108 144 186 241 300 356 427
#     4  12  25  45  71 108 139 188 244 296 359 431
#     4  11  25  46  70 103 147 191 235 305 361 426
#
# _framework density 21.034389000000001
#
# number of rings (size 3 to 8) (size 9 to 14) (size 15 to 20)
#    0.000    0.400    6.000    1.800    8.400    0.000 
#    3.600    0.000    0.000    0.000    0.000    0.000 
#    0.000    0.000    0.000    0.000    0.000    0.000 
#
# Total GULP energy -111389.317151 kJ/mol
# GULP energy per Si atom -5569.465858 kJ/mol
# Density = 2.098651 g / cm^3
# Si number density = 21.034389 Si / 1000 Ang^3
#
#
#
# Elastic Constant Matrix: (Units=GPa)
#
#
# Indices 1 2 3 4 5 6 
#
# 1 138.0740 21.1051 51.7649 -0.0015 -29.1949 -0.0014
# 2 21.1051 89.0547 20.6759 -0.0078 9.4125 -0.0064
# 3 51.7649 20.6759 183.6322 -0.0018 -20.3759 -0.0018
# 4 -0.0015 -0.0078 -0.0018 34.3578 -0.0001 1.4512
# 5 -29.1949 9.4125 -20.3759 -0.0001 41.7636 -0.0008
# 6 -0.0014 -0.0064 -0.0018 1.4512 -0.0008 18.2822
#
#
#
# Elastic Compliance Matrix: (Units=1/GPa)
#
#
# Indices 1 2 3 4 5 6 
#
# 1 0.009650 -0.002576 -0.001710 0.000000 0.006492 0.000000
# 2 -0.002576 0.012699 -0.001291 0.000003 -0.005293 0.000004
# 3 -0.001710 -0.001291 0.006315 0.000000 0.002176 0.000000
# 4 0.000000 0.000003 0.000000 0.029203 -0.000001 -0.002318
# 5 0.006492 -0.005293 0.002176 -0.000001 0.030737 0.000000
# 6 0.000000 0.000004 0.000000 -0.002318 0.000000 0.054882
#
#
# Mechanical properties :
#
#
# Convention : Reuss Voigt Hill
#
# Bulk Modulus (GPa) = 57.11199 66.42809 61.77004
# Shear Modulus (GPa) = 31.15726 40.02839 35.59283
#
# Velocity S-wave (km/s) = 3.85288 4.36707 4.11801
# Velocity P-wave (km/s) = 6.85592 7.55498 7.21392
#
# Compressibility (1/GPa) = 0.01750946
#
# Stress axis : x y z
#
# Youngs Moduli (GPa) = 103.62629 78.74827 158.36548
#
# Poissons Ratio (x) = 0.20287 0.27078
# Poissons Ratio (y) = 0.26696 0.20443
# Poissons Ratio (z) = 0.17719 0.10165
#
# Static dielectric constant tensor:
#      x y z
#    x 1.845990 0.000010 -0.078650 
#    y 0.000010 1.840460 0.000000 
#    z -0.078650 0.000000 1.878230 
# 
# From -- ./inp_files/253902.got.cif
#   From: 2010.05.17/outbox.cif.g08.bks.cpg/sg15_127_cif.got.tgz:253902.got - 2010.06.03 18:47:42.
