data_PCOD9306383
_publ_section_title
;
Structure prediction by ZEFSAII (Michael W. Deem and Ramdas Pophale) SiO2 
 PCOD9306383
Probable space group: C 2/C
;
_chemical_formula_sum "Si O2"
_cell_formula_units_Z 44
_cell_length_a 22.549700
_cell_length_b 16.219203
_cell_length_c 14.353807
_cell_angle_alpha 90.000000
_cell_angle_beta 160.618302
_cell_angle_gamma 90.000000
_cell_volume 1742.176114
_symmetry_space_group_name_H-M "C 2/C"
_symmetry_group_IT_number 15
_symmetry_cell_setting 'monoclinic'
loop_
_space_group_symop_operation_xyz
x,y,z
-x,y,1/2-z
-x,-y,-z
x,-y,1/2+z
1/2+x,1/2+y,z
1/2-x,1/2+y,1/2-z
1/2-x,1/2-y,-z
1/2+x,1/2-y,1/2+z
loop_
_atom_site_type_symbol
_atom_site_label
_atom_site_fract_x
_atom_site_fract_y
_atom_site_fract_z
Si Si1 0.204398 0.854407 0.309519
Si Si2 0.639086 0.420350 0.610743
Si Si3 0.431074 0.187891 0.470154
Si Si4 0.500000 0.462153 0.750000
Si Si5 0.699241 0.077316 0.947674
Si Si6 0.009584 0.597046 0.130986
O O1 0.091060 0.779005 0.101110
O O2 0.357915 0.842148 0.614580
O O3 0.316137 0.893335 0.390625
O O4 0.062051 0.909338 0.152610
O O5 0.735737 0.338699 0.716112
O O6 0.623762 0.480893 0.500000
O O7 0.742988 0.437904 0.860387
O O8 0.581811 0.160585 0.766631
O O9 0.484233 0.128569 0.463646
O O10 0.367661 0.416583 0.626337
O O11 0.582620 0.995906 0.749072
#
# Coordination Sequence:
#
# PCOD9306383 Si02
#       6
#     8   8   8   4   8   8
#     4  11  26  45  77 109 154 206 265 318 392 469
#     4  12  26  47  76 111 159 199 269 323 390 471
#     4  12  26  47  72 110 157 204 256 330 392 457
#     4  12  26  46  78 116 142 206 264 336 382 468
#     4  12  28  45  78 114 162 202 266 328 394 464
#     4  11  25  47  78 110 152 207 263 322 385 463
#
# _framework density 25.255769999999998
#
# number of rings (size 3 to 8) (size 9 to 14) (size 15 to 20)
#    0.000    0.364    3.636    3.273    7.636    3.636 
#    0.000    1.818    0.000    0.000    0.000    0.000 
#    0.000    0.000    0.000    0.000    0.000    0.000 
#
# Total GULP energy -123230.007339 kJ/mol
# GULP energy per Si atom -5601.363970 kJ/mol
# Density = 2.519829 g / cm^3
# Si number density = 25.255770 Si / 1000 Ang^3
#
#
#
# Elastic Constant Matrix: (Units=GPa)
#
#
# Indices 1 2 3 4 5 6 
#
# 1 144.0029 11.6623 29.1213 0.0000 0.0543 0.0000
# 2 11.6623 29.4957 1.7945 0.0000 -14.7613 0.0000
# 3 29.1213 1.7945 78.9553 0.0000 -15.9250 0.0000
# 4 0.0000 0.0000 0.0000 37.1035 0.0000 -3.1173
# 5 0.0543 -14.7613 -15.9250 0.0000 57.2035 0.0000
# 6 0.0000 0.0000 0.0000 -3.1173 0.0000 23.6892
#
#
#
# Elastic Compliance Matrix: (Units=1/GPa)
#
#
# Indices 1 2 3 4 5 6 
#
# 1 0.007909 -0.003885 -0.003213 0.000000 -0.001905 0.000000
# 2 -0.003885 0.040948 0.002791 0.000000 0.011347 0.000000
# 3 -0.003213 0.002791 0.014762 0.000000 0.004833 0.000000
# 4 0.000000 0.000000 0.000000 0.027253 0.000000 0.003586
# 5 -0.001905 0.011347 0.004833 0.000000 0.021757 0.000000
# 6 0.000000 0.000000 0.000000 0.003586 0.000000 0.042685
#
#
# Mechanical properties :
#
#
# Convention : Reuss Voigt Hill
#
# Bulk Modulus (GPa) = 18.18003 37.51224 27.84613
# Shear Modulus (GPa) = 27.43272 37.59094 32.51183
#
# Velocity S-wave (km/s) = 3.29932 3.86218 3.59179
# Velocity P-wave (km/s) = 4.66134 5.89693 5.31516
#
# Compressibility (1/GPa) = 0.05500541
#
# Stress axis : x y z
#
# Youngs Moduli (GPa) = 126.43135 24.42100 67.74226
#
# Poissons Ratio (x) = 0.09487 0.21766
# Poissons Ratio (y) = 0.49118 -0.18907
# Poissons Ratio (z) = 0.40624 -0.06816
#
# Static dielectric constant tensor:
#      x y z
#    x 1.935170 0.000000 -0.026750 
#    y 0.000000 1.987720 0.000000 
#    z -0.026750 0.000000 2.025580 
# 
# From -- ./inp_files/174282.got.cif
#   From: 2010.05.17/outbox.cif.g08.bks.cpg/sg15_88_cif.got.tgz:174282.got - 2010.06.03 18:47:42.
