data_PCOD9306703
_publ_section_title
;
Structure prediction by ZEFSAII (Michael W. Deem and Ramdas Pophale) SiO2 
 PCOD9306703
Probable space group: C 2/C
;
_chemical_formula_sum "Si O2"
_cell_formula_units_Z 48
_cell_length_a 18.741548
_cell_length_b 5.376931
_cell_length_c 23.607248
_cell_angle_alpha 90.000000
_cell_angle_beta 52.607457
_cell_angle_gamma 90.000000
_cell_volume 1890.060574
_symmetry_space_group_name_H-M "C 2/C"
_symmetry_group_IT_number 15
_symmetry_cell_setting 'monoclinic'
loop_
_space_group_symop_operation_xyz
x,y,z
-x,y,1/2-z
-x,-y,-z
x,-y,1/2+z
1/2+x,1/2+y,z
1/2-x,1/2+y,1/2-z
1/2-x,1/2-y,-z
1/2+x,1/2-y,1/2+z
loop_
_atom_site_type_symbol
_atom_site_label
_atom_site_fract_x
_atom_site_fract_y
_atom_site_fract_z
Si Si1 0.491025 0.433959 0.187282
Si Si2 0.261129 0.591390 0.635758
Si Si3 0.925188 0.245869 0.069688
Si Si4 0.115854 0.374552 0.001896
Si Si5 0.888822 0.432246 0.202290
Si Si6 0.331693 0.159667 0.422286
O O1 0.500000 0.459147 0.250000
O O2 0.450882 0.692192 0.184930
O O3 0.588859 0.357756 0.117806
O O4 0.428631 0.194096 0.203969
O O5 0.354944 0.473237 0.609415
O O6 0.294321 0.797965 0.574794
O O7 0.201899 0.633639 0.719921
O O8 0.202704 0.409907 0.623373
O O9 0.915596 0.369701 0.012864
O O10 0.888318 0.441361 0.134504
O O11 0.029780 0.199325 0.031937
O O12 0.132187 0.423104 0.059701
O O13 0.250000 0.250000 0.500000
#
# Coordination Sequence:
#
# PCOD9306703 Si02
#       6
#     8   8   8   8   8   8
#     4  12  28  53  78 114 156 206 260 324 396 465
#     4  12  28  46  79 113 152 207 265 334 383 481
#     4  11  27  49  72 112 158 208 259 321 403 472
#     4  11  26  48  76 109 157 206 263 323 398 469
#     4  12  30  48  83 111 159 207 260 320 398 474
#     4  12  26  48  78 115 151 205 270 328 391 471
#
# _framework density 25.396011000000001
#
# number of rings (size 3 to 8) (size 9 to 14) (size 15 to 20)
#    0.000    0.333    5.000    1.500   11.667    0.000 
#    0.000    0.000    0.000    0.000    0.000    0.000 
#    0.000    0.000    0.000    0.000    0.000    0.000 
#
# Total GULP energy -134465.835296 kJ/mol
# GULP energy per Si atom -5602.743137 kJ/mol
# Density = 2.533821 g / cm^3
# Si number density = 25.396011 Si / 1000 Ang^3
#
#
#
# Elastic Constant Matrix: (Units=GPa)
#
#
# Indices 1 2 3 4 5 6 
#
# 1 80.1902 23.9417 36.1436 0.0026 -12.6075 -0.0109
# 2 23.9417 96.6680 5.1510 0.3066 -9.4170 0.2800
# 3 36.1436 5.1510 161.9438 0.0809 -27.8446 0.1129
# 4 0.0026 0.3066 0.0809 39.7870 -0.0204 -2.2729
# 5 -12.6075 -9.4170 -27.8446 -0.0204 56.3739 -0.0400
# 6 -0.0109 0.2800 0.1129 -2.2729 -0.0400 37.0311
#
#
#
# Elastic Compliance Matrix: (Units=1/GPa)
#
#
# Indices 1 2 3 4 5 6 
#
# 1 0.015069 -0.003444 -0.003030 0.000035 0.001298 0.000043
# 2 -0.003444 0.011304 0.000657 -0.000093 0.001443 -0.000093
# 3 -0.003030 0.000657 0.007358 -0.000020 0.003066 -0.000026
# 4 0.000035 -0.000093 -0.000020 0.025223 -0.000007 0.001549
# 5 0.001298 0.001443 0.003066 -0.000007 0.019784 0.000001
# 6 0.000043 -0.000093 -0.000026 0.001549 0.000001 0.027100
#
#
# Mechanical properties :
#
#
# Convention : Reuss Voigt Hill
#
# Bulk Modulus (GPa) = 45.25885 52.14161 48.70023
# Shear Modulus (GPa) = 40.05198 44.87612 42.46405
#
# Velocity S-wave (km/s) = 3.97558 4.20819 4.09354
# Velocity P-wave (km/s) = 6.23967 6.64739 6.44676
#
# Compressibility (1/GPa) = 0.02209513
#
# Stress axis : x y z
#
# Youngs Moduli (GPa) = 66.36293 88.46573 135.91284
#
# Poissons Ratio (x) = 0.30471 0.41188
# Poissons Ratio (y) = 0.22858 -0.08934
# Poissons Ratio (z) = 0.20111 -0.05815
#
# Static dielectric constant tensor:
#      x y z
#    x 2.043650 -0.000140 0.017980 
#    y -0.000140 2.073920 -0.000140 
#    z 0.017980 -0.000140 1.989880 
# 
# From -- ./inp_files/278826.got.cif
#   From: 2010.05.17/outbox.cif.g08.bks.cpg/sg15_140_cif.got.tgz:278826.got - 2010.06.03 18:47:42.
