data_PCOD9306351
_publ_section_title
;
Structure prediction by ZEFSAII (Michael W. Deem and Ramdas Pophale) SiO2 
 PCOD9306351
Probable space group: C 2/C
;
_chemical_formula_sum "Si O2"
_cell_formula_units_Z 24
_cell_length_a 18.685130
_cell_length_b 5.847135
_cell_length_c 14.213357
_cell_angle_alpha 90.000000
_cell_angle_beta 140.491393
_cell_angle_gamma 90.000000
_cell_volume 987.928615
_symmetry_space_group_name_H-M "C 2/C"
_symmetry_group_IT_number 15
_symmetry_cell_setting 'monoclinic'
loop_
_space_group_symop_operation_xyz
x,y,z
-x,y,1/2-z
-x,-y,-z
x,-y,1/2+z
1/2+x,1/2+y,z
1/2-x,1/2+y,1/2-z
1/2-x,1/2-y,-z
1/2+x,1/2-y,1/2+z
loop_
_atom_site_type_symbol
_atom_site_label
_atom_site_fract_x
_atom_site_fract_y
_atom_site_fract_z
Si Si1 0.608755 0.461307 0.911835
Si Si2 0.278105 0.572902 0.158440
Si Si3 0.087825 0.305581 0.057799
O O1 0.500000 0.352317 0.750000
O O2 0.681974 0.545877 0.896873
O O3 0.690881 0.276547 0.043449
O O4 0.568775 0.655337 0.944436
O O5 0.208249 0.415089 0.156604
O O6 0.387061 0.653945 0.325929
O O7 0.000000 0.500000 0.000000
#
# Coordination Sequence:
#
# PCOD9306351 Si02
#       3
#     8   8   8
#     4  11  26  45  73 107 150 191 249 304 366 439
#     4  11  25  47  72 107 151 192 245 310 366 436
#     4  12  26  44  77 108 147 198 245 300 374 439
#
# _framework density 24.293253
#
# number of rings (size 3 to 8) (size 9 to 14) (size 15 to 20)
#    0.000    0.667    3.333    3.000    4.667    9.333 
#    0.000    0.000    0.000    0.000    0.000    0.000 
#    0.000    0.000    0.000    0.000    0.000    0.000 
#
# Total GULP energy -67080.515854 kJ/mol
# GULP energy per Si atom -5590.042988 kJ/mol
# Density = 2.423796 g / cm^3
# Si number density = 24.293253 Si / 1000 Ang^3
#
#
#
# Elastic Constant Matrix: (Units=GPa)
#
#
# Indices 1 2 3 4 5 6 
#
# 1 173.8919 73.6218 58.1527 0.0000 -25.7613 0.0000
# 2 73.6218 65.9902 34.1917 0.0000 -12.6591 0.0000
# 3 58.1527 34.1917 112.4956 0.0000 -18.6313 0.0000
# 4 0.0000 0.0000 0.0000 46.7507 0.0000 7.5543
# 5 -25.7613 -12.6591 -18.6313 0.0000 44.2924 0.0000
# 6 0.0000 0.0000 0.0000 7.5543 0.0000 60.4795
#
#
#
# Elastic Compliance Matrix: (Units=1/GPa)
#
#
# Indices 1 2 3 4 5 6 
#
# 1 0.011698 -0.011440 -0.002133 0.000000 0.002637 0.000000
# 2 -0.011440 0.029566 -0.002983 0.000000 0.000542 0.000000
# 3 -0.002133 -0.002983 0.011342 0.000000 0.002678 0.000000
# 4 0.000000 0.000000 0.000000 0.021831 0.000000 -0.002727
# 5 0.002637 0.000542 0.002678 0.000000 0.025392 0.000000
# 6 0.000000 0.000000 0.000000 -0.002727 0.000000 0.016875
#
#
# Mechanical properties :
#
#
# Convention : Reuss Voigt Hill
#
# Bulk Modulus (GPa) = 51.29765 76.03447 63.66606
# Shear Modulus (GPa) = 31.98683 42.73196 37.35939
#
# Velocity S-wave (km/s) = 3.63257 4.19860 3.92580
# Velocity P-wave (km/s) = 6.22542 7.40749 6.84203
#
# Compressibility (1/GPa) = 0.01949407
#
# Stress axis : x y z
#
# Youngs Moduli (GPa) = 85.48379 33.82267 88.16655
#
# Poissons Ratio (x) = 0.38692 0.18810
# Poissons Ratio (y) = 0.97791 0.26299
# Poissons Ratio (z) = 0.18238 0.10089
#
# Static dielectric constant tensor:
#      x y z
#    x 1.986790 0.000000 -0.011070 
#    y 0.000000 1.970460 0.000000 
#    z -0.011070 0.000000 1.905420 
# 
# From -- ./inp_files/115522.got.cif
#   From: 2010.05.17/outbox.cif.g08.bks.cpg/sg15_58_cif.got.tgz:115522.got - 2010.06.03 18:47:42.
