data_PCOD9306217
_publ_section_title
;
Structure prediction by ZEFSAII (Michael W. Deem and Ramdas Pophale) SiO2 
 PCOD9306217
Probable space group: C 2/C
;
_chemical_formula_sum "Si O2"
_cell_formula_units_Z 56
_cell_length_a 33.044256
_cell_length_b 10.989615
_cell_length_c 16.733147
_cell_angle_alpha 90.000000
_cell_angle_beta 22.206858
_cell_angle_gamma 90.000000
_cell_volume 2296.636578
_symmetry_space_group_name_H-M "C 2/C"
_symmetry_group_IT_number 15
_symmetry_cell_setting 'monoclinic'
loop_
_space_group_symop_operation_xyz
x,y,z
-x,y,1/2-z
-x,-y,-z
x,-y,1/2+z
1/2+x,1/2+y,z
1/2-x,1/2+y,1/2-z
1/2-x,1/2-y,-z
1/2+x,1/2-y,1/2+z
loop_
_atom_site_type_symbol
_atom_site_label
_atom_site_fract_x
_atom_site_fract_y
_atom_site_fract_z
Si Si1 0.897055 0.327142 0.699700
Si Si2 0.992670 0.091498 0.939689
Si Si3 0.215740 0.403771 0.295946
Si Si4 0.500000 0.976528 0.750000
Si Si5 0.262068 0.674411 0.158268
Si Si6 0.000000 0.095892 0.750000
Si Si7 0.728278 0.728225 0.132800
Si Si8 0.922751 0.422994 0.242475
O O1 0.799568 0.322680 0.814377
O O2 0.881849 0.448530 0.781248
O O3 0.921699 0.201545 0.701911
O O4 0.010830 0.351470 0.446103
O O5 0.997179 0.031682 0.842648
O O6 0.875735 0.150315 0.158894
O O7 0.000000 0.000000 0.000000
O O8 0.245073 0.543390 0.231299
O O9 0.282374 0.295206 0.216062
O O10 0.210648 0.350617 0.215111
O O11 0.110468 0.406430 0.543391
O O12 0.491306 0.048097 0.847650
O O13 0.391599 0.671955 0.933513
O O14 0.750000 0.750000 0.000000
O O15 0.833689 0.648984 0.955011
#
# Coordination Sequence:
#
# PCOD9306217 Si02
#       8
#     8   8   8   4   8   4   8   8
#     4  11  26  49  80 114 154 205 279 336 404 503
#     4  12  30  52  78 123 166 223 275 344 433 498
#     4  12  27  49  76 117 156 215 269 340 415 493
#     4  12  25  46  83 108 157 204 275 330 403 490
#     4  12  28  51  81 115 161 215 279 339 417 500
#     4  12  31  54  79 114 175 224 265 360 427 508
#     4  12  25  47  76 109 160 207 260 338 414 488
#     4  11  25  45  78 117 147 208 268 339 396 484
#
# _framework density 24.383482999999998
#
# number of rings (size 3 to 8) (size 9 to 14) (size 15 to 20)
#    0.000    0.286    4.286    3.000    8.000    0.571 
#    0.000    0.714    0.000    0.000    0.000    0.000 
#    0.000    0.000    0.000    0.000    0.000    0.000 
#
# Total GULP energy -156140.186650 kJ/mol
# GULP energy per Si atom -5576.435237 kJ/mol
# Density = 2.432799 g / cm^3
# Si number density = 24.383483 Si / 1000 Ang^3
#
#
#
# Elastic Constant Matrix: (Units=GPa)
#
#
# Indices 1 2 3 4 5 6 
#
# 1 155.2383 37.4586 18.8598 0.0000 19.3186 0.0000
# 2 37.4586 116.7170 34.4187 0.0000 3.7259 0.0000
# 3 18.8598 34.4187 94.6698 0.0000 1.3994 0.0000
# 4 0.0000 0.0000 0.0000 -3.3978 0.0000 46.7645
# 5 19.3186 3.7259 1.3994 0.0000 55.5325 0.0000
# 6 0.0000 0.0000 0.0000 46.7645 0.0000 -26.7824
#
#
#
# Elastic Compliance Matrix: (Units=1/GPa)
#
#
# Indices 1 2 3 4 5 6 
#
# 1 0.007321 -0.002076 -0.000668 0.000000 -0.002391 0.000000
# 2 -0.002076 0.010203 -0.003297 0.000000 0.000121 0.000000
# 3 -0.000668 -0.003297 0.011893 0.000000 0.000154 0.000000
# 4 0.000000 0.000000 0.000000 0.012778 0.000000 0.022312
# 5 -0.002391 0.000121 0.000154 0.000000 0.018827 0.000000
# 6 0.000000 0.000000 0.000000 0.022312 0.000000 0.001621
#
#
# Mechanical properties :
#
#
# Convention : Reuss Voigt Hill
#
# Bulk Modulus (GPa) = 57.69485 60.89993 59.29739
# Shear Modulus (GPa) = 62.10770 23.46298 42.78534
#
# Velocity S-wave (km/s) = 5.05238 3.10538 4.19344
# Velocity P-wave (km/s) = 7.59922 6.15532 6.91506
#
# Compressibility (1/GPa) = 0.01733257
#
# Stress axis : x y z
#
# Youngs Moduli (GPa) = 136.58528 98.01395 84.08481
#
# Poissons Ratio (x) = 0.20351 0.05620
# Poissons Ratio (y) = 0.28359 0.27727
# Poissons Ratio (z) = 0.09129 0.32320
#
# Static dielectric constant tensor:
#      x y z
#    x 20.064200 0.000000 -8.388530 
#    y 0.000000 2.150130 0.000000 
#    z -8.388530 0.000000 5.884740 
# 
# From -- ./inp_files/181947.got.cif
#   From: 2010.05.17/outbox.cif.g08.bks.cpg/sg15_91_cif.got.tgz:181947.got - 2010.06.03 18:47:42.
