data_PCOD9306222
_publ_section_title
;
Structure prediction by ZEFSAII (Michael W. Deem and Ramdas Pophale) SiO2 
 PCOD9306222
Probable space group: C 2/C
;
_chemical_formula_sum "Si O2"
_cell_formula_units_Z 48
_cell_length_a 11.435556
_cell_length_b 12.315200
_cell_length_c 18.512224
_cell_angle_alpha 90.000000
_cell_angle_beta 44.048669
_cell_angle_gamma 90.000000
_cell_volume 1812.634791
_symmetry_space_group_name_H-M "C 2/C"
_symmetry_group_IT_number 15
_symmetry_cell_setting 'monoclinic'
loop_
_space_group_symop_operation_xyz
x,y,z
-x,y,1/2-z
-x,-y,-z
x,-y,1/2+z
1/2+x,1/2+y,z
1/2-x,1/2+y,1/2-z
1/2-x,1/2-y,-z
1/2+x,1/2-y,1/2+z
loop_
_atom_site_type_symbol
_atom_site_label
_atom_site_fract_x
_atom_site_fract_y
_atom_site_fract_z
Si Si1 0.805167 0.782908 0.356792
Si Si2 0.187614 0.033694 0.897501
Si Si3 0.985000 0.326022 0.111134
Si Si4 0.312419 0.101171 0.463114
Si Si5 0.288277 0.728502 0.367256
Si Si6 0.325373 0.063619 0.190664
O O1 0.684863 0.769751 0.341969
O O2 0.774193 0.889671 0.420889
O O3 0.741201 0.689435 0.439204
O O4 0.000000 0.776182 0.250000
O O5 0.218029 0.158981 0.864166
O O6 0.289296 0.008078 0.926427
O O7 0.251360 0.963954 0.801736
O O8 0.000000 0.000000 0.000000
O O9 0.052874 0.271172 0.154995
O O10 0.916222 0.448990 0.131607
O O11 0.139534 0.306775 0.988387
O O12 0.506306 0.135242 0.382649
O O13 0.296959 0.624032 0.310552
#
# Coordination Sequence:
#
# PCOD9306222 Si02
#       6
#     8   8   8   8   8   8
#     4  11  25  45  84 116 158 220 284 352 432 519
#     4  12  28  47  76 120 169 229 290 358 434 526
#     4  11  25  50  82 123 166 214 282 360 431 512
#     4  11  25  48  76 113 158 224 287 345 433 523
#     4  11  26  49  86 123 165 225 288 357 438 525
#     4  12  26  51  86 116 169 229 285 355 440 518
#
# _framework density 26.480789000000001
#
# number of rings (size 3 to 8) (size 9 to 14) (size 15 to 20)
#    0.000    0.667    3.333    3.000    4.667    2.667 
#    0.000    1.667    7.333    0.000    0.000    0.000 
#    0.000    0.000    0.000    0.000    0.000    0.000 
#
# Total GULP energy -134231.955317 kJ/mol
# GULP energy per Si atom -5592.998138 kJ/mol
# Density = 2.642052 g / cm^3
# Si number density = 26.480789 Si / 1000 Ang^3
#
#
#
# Elastic Constant Matrix: (Units=GPa)
#
#
# Indices 1 2 3 4 5 6 
#
# 1 191.1179 66.5898 57.1781 0.0000 1.6817 0.0000
# 2 66.5898 158.0457 41.1640 0.0000 11.0306 0.0000
# 3 57.1781 41.1640 130.2633 0.0000 -2.5686 0.0000
# 4 0.0000 0.0000 0.0000 50.0038 0.0000 3.2179
# 5 1.6817 11.0306 -2.5686 0.0000 47.2591 0.0000
# 6 0.0000 0.0000 0.0000 3.2179 0.0000 45.5639
#
#
#
# Elastic Compliance Matrix: (Units=1/GPa)
#
#
# Indices 1 2 3 4 5 6 
#
# 1 0.006677 -0.002247 -0.002218 0.000000 0.000166 0.000000
# 2 -0.002247 0.007795 -0.001513 0.000000 -0.001822 0.000000
# 3 -0.002218 -0.001513 0.009146 0.000000 0.000929 0.000000
# 4 0.000000 0.000000 0.000000 0.020090 0.000000 -0.001419
# 5 0.000166 -0.001822 0.000929 0.000000 0.021630 0.000000
# 6 0.000000 0.000000 0.000000 -0.001419 0.000000 0.022047
#
#
# Mechanical properties :
#
#
# Convention : Reuss Voigt Hill
#
# Bulk Modulus (GPa) = 85.73581 89.92119 87.82850
# Shear Modulus (GPa) = 48.43571 49.53169 48.98370
#
# Velocity S-wave (km/s) = 4.28142 4.32959 4.30558
# Velocity P-wave (km/s) = 7.54239 7.68275 7.61290
#
# Compressibility (1/GPa) = 0.01166374
#
# Stress axis : x y z
#
# Youngs Moduli (GPa) = 149.75892 128.28115 109.33150
#
# Poissons Ratio (x) = 0.28831 0.24244
# Poissons Ratio (y) = 0.33658 0.16540
# Poissons Ratio (z) = 0.33209 0.19406
#
# Static dielectric constant tensor:
#      x y z
#    x 2.228770 0.000000 -0.012520 
#    y 0.000000 2.324150 0.000000 
#    z -0.012520 0.000000 2.086110 
# 
# From -- ./inp_files/243916.got.cif
#   From: 2010.05.17/outbox.cif.g08.bks.cpg/sg15_122_cif.got.tgz:243916.got - 2010.06.03 18:47:42.
