data_PCOD9306111
_publ_section_title
;
Structure prediction by ZEFSAII (Michael W. Deem and Ramdas Pophale) SiO2 
 PCOD9306111
Probable space group: C 2/C
;
_chemical_formula_sum "Si O2"
_cell_formula_units_Z 36
_cell_length_a 8.123899
_cell_length_b 18.315592
_cell_length_c 10.768457
_cell_angle_alpha 90.000000
_cell_angle_beta 111.438644
_cell_angle_gamma 90.000000
_cell_volume 1491.419320
_symmetry_space_group_name_H-M "C 2/C"
_symmetry_group_IT_number 15
_symmetry_cell_setting 'monoclinic'
loop_
_space_group_symop_operation_xyz
x,y,z
-x,y,1/2-z
-x,-y,-z
x,-y,1/2+z
1/2+x,1/2+y,z
1/2-x,1/2+y,1/2-z
1/2-x,1/2-y,-z
1/2+x,1/2-y,1/2+z
loop_
_atom_site_type_symbol
_atom_site_label
_atom_site_fract_x
_atom_site_fract_y
_atom_site_fract_z
Si Si1 0.547604 0.924433 0.952758
Si Si2 0.567916 0.348595 0.013788
Si Si3 0.535835 0.809909 0.401306
Si Si4 0.210261 0.933893 0.715129
Si Si5 0.000000 0.930972 0.250000
O O1 0.366396 0.895707 0.836528
O O2 0.691862 0.942931 0.889715
O O3 0.598524 0.865266 0.070082
O O4 0.500000 0.000000 0.000000
O O5 0.778932 0.353516 0.058409
O O6 0.504456 0.381406 0.127488
O O7 0.537755 0.262390 0.985410
O O8 0.464608 0.390162 0.874878
O O9 0.500000 0.787979 0.250000
O O10 0.156295 0.009891 0.764345
#
# Coordination Sequence:
#
# PCOD9306111 Si02
#       5
#     8   8   8   8   4
#     4  11  25  45  75 112 148 196 244 304 372 445
#     4  11  27  47  75 110 144 202 253 303 382 443
#     4  11  28  49  75 104 153 197 251 315 368 448
#     4  11  25  44  75 112 150 190 249 306 370 452
#     4  12  24  46  76 108 152 190 246 312 374 442
#
# _framework density 24.138082000000001
#
# number of rings (size 3 to 8) (size 9 to 14) (size 15 to 20)
#    0.000    0.889    0.000    4.667   17.111    2.667 
#    0.000    0.000    0.000    0.000    0.000    0.000 
#    0.000    0.000    0.000    0.000    0.000    0.000 
#
# Total GULP energy -100630.080687 kJ/mol
# GULP energy per Si atom -5590.560038 kJ/mol
# Density = 2.408314 g / cm^3
# Si number density = 24.138082 Si / 1000 Ang^3
#
#
#
# Elastic Constant Matrix: (Units=GPa)
#
#
# Indices 1 2 3 4 5 6 
#
# 1 127.0464 45.9553 54.5856 0.0000 -13.1626 0.0000
# 2 45.9553 96.1057 39.3671 0.0000 -30.7632 0.0000
# 3 54.5856 39.3671 101.1771 0.0000 -27.1335 0.0000
# 4 0.0000 0.0000 0.0000 50.2036 0.0000 -16.9522
# 5 -13.1626 -30.7632 -27.1335 0.0000 61.4657 0.0000
# 6 0.0000 0.0000 0.0000 -16.9522 0.0000 33.8418
#
#
#
# Elastic Compliance Matrix: (Units=1/GPa)
#
#
# Indices 1 2 3 4 5 6 
#
# 1 0.011256 -0.003882 -0.005032 0.000000 -0.001754 0.000000
# 2 -0.003882 0.014990 -0.002211 0.000000 0.005695 0.000000
# 3 -0.005032 -0.002211 0.014602 0.000000 0.004262 0.000000
# 4 0.000000 0.000000 0.000000 0.023974 0.000000 0.012009
# 5 -0.001754 0.005695 0.004262 0.000000 0.020625 0.000000
# 6 0.000000 0.000000 0.000000 0.012009 0.000000 0.035565
#
#
# Mechanical properties :
#
#
# Convention : Reuss Voigt Hill
#
# Bulk Modulus (GPa) = 53.77250 67.12724 60.44987
# Shear Modulus (GPa) = 33.45327 41.39697 37.42512
#
# Velocity S-wave (km/s) = 3.72682 4.14576 3.94186
# Velocity P-wave (km/s) = 6.39096 7.12646 6.76871
#
# Compressibility (1/GPa) = 0.01859687
#
# Stress axis : x y z
#
# Youngs Moduli (GPa) = 88.84178 66.70996 68.48490
#
# Poissons Ratio (x) = 0.25900 0.34465
# Poissons Ratio (y) = 0.34492 0.15140
# Poissons Ratio (z) = 0.44710 0.14747
#
# Static dielectric constant tensor:
#      x y z
#    x 2.015710 0.000000 0.059410 
#    y 0.000000 1.853440 0.000000 
#    z 0.059410 0.000000 1.990870 
# 
# From -- ./inp_files/77003.got.cif
#   From: 2010.05.17/outbox.cif.g08.bks.cpg/sg15_39_cif.got.tgz:77003.got - 2010.06.03 18:47:42.
