data_PCOD9306037
_publ_section_title
;
Structure prediction by ZEFSAII (Michael W. Deem and Ramdas Pophale) SiO2 
 PCOD9306037
Probable space group: C 2/C
;
_chemical_formula_sum "Si O2"
_cell_formula_units_Z 48
_cell_length_a 6.445365
_cell_length_b 26.438692
_cell_length_c 14.136457
_cell_angle_alpha 90.000000
_cell_angle_beta 97.274545
_cell_angle_gamma 90.000000
_cell_volume 2389.561370
_symmetry_space_group_name_H-M "C 2/C"
_symmetry_group_IT_number 15
_symmetry_cell_setting 'monoclinic'
loop_
_space_group_symop_operation_xyz
x,y,z
-x,y,1/2-z
-x,-y,-z
x,-y,1/2+z
1/2+x,1/2+y,z
1/2-x,1/2+y,1/2-z
1/2-x,1/2-y,-z
1/2+x,1/2-y,1/2+z
loop_
_atom_site_type_symbol
_atom_site_label
_atom_site_fract_x
_atom_site_fract_y
_atom_site_fract_z
Si Si1 0.986242 0.584105 0.984325
Si Si2 0.500000 0.299456 0.250000
Si Si3 0.106595 0.235483 0.156947
Si Si4 0.140232 0.669596 0.853099
Si Si5 0.500000 0.439503 0.750000
Si Si6 0.320103 0.135783 0.163405
Si Si7 0.183052 0.999254 0.934418
O O1 0.786511 0.554475 0.930642
O O2 0.085423 0.625338 0.921016
O O3 0.925251 0.609585 0.079801
O O4 0.150986 0.540351 0.014855
O O5 0.319075 0.266010 0.191419
O O6 0.624525 0.328470 0.173932
O O7 0.182744 0.183142 0.117376
O O8 0.000000 0.219730 0.250000
O O9 0.940469 0.276469 0.107767
O O10 0.000000 0.663564 0.750000
O O11 0.331685 0.403719 0.792509
O O12 0.607270 0.475573 0.832500
O O13 0.500000 0.151583 0.250000
O O14 0.000000 0.000000 0.000000
#
# Coordination Sequence:
#
# PCOD9306037 Si02
#       7
#     8   4   8   8   4   8   8
#     4  11  25  43  65  99 130 161 219 275 318 382
#     4   8  16  36  59  82 130 170 211 244 308 368
#     4   9  18  34  63  93 128 166 214 252 307 386
#     4   9  21  40  62  91 130 172 209 258 316 381
#     4  12  24  44  69  94 124 178 211 258 344 376
#     4  12  22  39  69  97 128 171 209 266 325 382
#     4  11  25  44  66  93 127 165 220 272 317 390
#
# _framework density 20.08737
#
# number of rings (size 3 to 8) (size 9 to 14) (size 15 to 20)
#    0.000    2.000    5.000    0.000    0.000    4.667 
#    0.000    1.667    0.000    0.000    0.000    0.000 
#    0.000    0.000    0.000    0.000    0.000    0.000 
#
# Total GULP energy -133890.645122 kJ/mol
# GULP energy per Si atom -5578.776880 kJ/mol
# Density = 2.004165 g / cm^3
# Si number density = 20.087370 Si / 1000 Ang^3
#
#
#
# Elastic Constant Matrix: (Units=GPa)
#
#
# Indices 1 2 3 4 5 6 
#
# 1 124.4439 54.0824 44.2048 0.0000 -36.9445 0.0000
# 2 54.0824 126.9703 53.1953 0.0000 -26.0489 0.0000
# 3 44.2048 53.1953 70.3102 0.0000 -20.4368 0.0000
# 4 0.0000 0.0000 0.0000 -53.2461 0.0000 -30.2448
# 5 -36.9445 -26.0489 -20.4368 0.0000 37.9133 0.0000
# 6 0.0000 0.0000 0.0000 -30.2448 0.0000 19.1904
#
#
#
# Elastic Compliance Matrix: (Units=1/GPa)
#
#
# Indices 1 2 3 4 5 6 
#
# 1 0.013060 -0.001987 -0.004038 0.000000 0.009185 0.000000
# 2 -0.001987 0.012319 -0.007321 0.000000 0.002582 0.000000
# 3 -0.004038 -0.007321 0.023354 0.000000 0.003624 0.000000
# 4 0.000000 0.000000 0.000000 -0.009910 0.000000 -0.015618
# 5 0.009185 0.002582 0.003624 0.000000 0.039053 0.000000
# 6 0.000000 0.000000 0.000000 -0.015618 0.000000 0.027495
#
#
# Mechanical properties :
#
#
# Convention : Reuss Voigt Hill
#
# Bulk Modulus (GPa) = 45.36956 69.40995 57.38975
# Shear Modulus (GPa) = 35.86537 12.12099 23.99318
#
# Velocity S-wave (km/s) = 4.23006 2.45911 3.45982
# Velocity P-wave (km/s) = 6.81858 6.53391 6.67777
#
# Compressibility (1/GPa) = 0.02204121
#
# Stress axis : x y z
#
# Youngs Moduli (GPa) = 76.56703 81.17661 42.82004
#
# Poissons Ratio (x) = 0.16128 0.17292
# Poissons Ratio (y) = 0.15212 0.31347
# Poissons Ratio (z) = 0.30921 0.59426
#
# Static dielectric constant tensor:
#      x y z
#    x 1.750570 0.000000 0.021010 
#    y 0.000000 1.726820 0.000000 
#    z 0.021010 0.000000 1.693530 
# 
# From -- ./inp_files/130097.got.cif
#   From: 2010.05.17/outbox.cif.g08.bks.cpg/sg15_66_cif.got.tgz:130097.got - 2010.06.03 18:47:42.
