data_PCOD9306144
_publ_section_title
;
Structure prediction by ZEFSAII (Michael W. Deem and Ramdas Pophale) SiO2 
 PCOD9306144
Probable space group: C 2/C
;
_chemical_formula_sum "Si O2"
_cell_formula_units_Z 28
_cell_length_a 12.237230
_cell_length_b 15.757868
_cell_length_c 6.296895
_cell_angle_alpha 90.000000
_cell_angle_beta 58.321396
_cell_angle_gamma 90.000000
_cell_volume 1033.333018
_symmetry_space_group_name_H-M "C 2/C"
_symmetry_group_IT_number 15
_symmetry_cell_setting 'monoclinic'
loop_
_space_group_symop_operation_xyz
x,y,z
-x,y,1/2-z
-x,-y,-z
x,-y,1/2+z
1/2+x,1/2+y,z
1/2-x,1/2+y,1/2-z
1/2-x,1/2-y,-z
1/2+x,1/2-y,1/2+z
loop_
_atom_site_type_symbol
_atom_site_label
_atom_site_fract_x
_atom_site_fract_y
_atom_site_fract_z
Si Si1 0.378855 0.225168 0.249245
Si Si2 0.500000 0.320933 0.750000
Si Si3 0.144260 0.526850 0.138404
Si Si4 0.145776 0.025732 0.311627
O O1 0.500000 0.262319 0.250000
O O2 0.250000 0.250000 0.500000
O O3 0.380256 0.124428 0.272021
O O4 0.409876 0.261363 0.987154
O O5 0.888223 0.120787 0.248992
O O6 0.320588 0.527209 0.956453
O O7 0.000000 0.486941 0.250000
O O8 0.186709 0.509354 0.838742
O O9 0.000000 0.000000 0.500000
#
# Coordination Sequence:
#
# PCOD9306144 Si02
#       4
#     8   4   8   8
#     4  11  26  48  75 110 161 204 258 321 389 464
#     4  12  26  48  84 114 154 208 268 312 390 472
#     4  11  25  45  70 111 152 194 251 327 390 447
#     4  12  23  46  77 111 149 199 264 317 384 470
#
# _framework density 27.096784
#
# number of rings (size 3 to 8) (size 9 to 14) (size 15 to 20)
#    0.000    0.571    2.857    4.286    0.000    4.571 
#    7.714    0.000    0.000    0.000    0.000    0.000 
#    0.000    0.000    0.000    0.000    0.000    0.000 
#
# Total GULP energy -77961.905294 kJ/mol
# GULP energy per Si atom -5568.707521 kJ/mol
# Density = 2.703511 g / cm^3
# Si number density = 27.096784 Si / 1000 Ang^3
#
#
#
# Elastic Constant Matrix: (Units=GPa)
#
#
# Indices 1 2 3 4 5 6 
#
# 1 313.4155 50.0544 102.0605 0.0000 -15.9537 0.0000
# 2 50.0544 135.0310 85.1220 0.0000 32.2248 0.0000
# 3 102.0605 85.1220 351.7046 0.0000 8.6076 0.0000
# 4 0.0000 0.0000 0.0000 53.0902 0.0000 -8.1515
# 5 -15.9537 32.2248 8.6076 0.0000 60.9554 0.0000
# 6 0.0000 0.0000 0.0000 -8.1515 0.0000 21.8765
#
#
#
# Elastic Compliance Matrix: (Units=1/GPa)
#
#
# Indices 1 2 3 4 5 6 
#
# 1 0.003756 -0.001303 -0.000818 0.000000 0.001788 0.000000
# 2 -0.001303 0.010505 -0.002027 0.000000 -0.005608 0.000000
# 3 -0.000818 -0.002027 0.003563 0.000000 0.000354 0.000000
# 4 0.000000 0.000000 0.000000 0.019979 0.000000 0.007444
# 5 0.001788 -0.005608 0.000354 0.000000 0.019788 0.000000
# 6 0.000000 0.000000 0.000000 0.007444 0.000000 0.048485
#
#
# Mechanical properties :
#
#
# Convention : Reuss Voigt Hill
#
# Bulk Modulus (GPa) = 104.96645 141.62498 123.29572
# Shear Modulus (GPa) = 42.53548 64.71203 53.62376
#
# Velocity S-wave (km/s) = 3.96632 4.89220 4.45339
# Velocity P-wave (km/s) = 7.73287 9.18103 8.48789
#
# Compressibility (1/GPa) = 0.00952685
#
# Stress axis : x y z
#
# Youngs Moduli (GPa) = 266.22242 95.19236 280.68439
#
# Poissons Ratio (x) = 0.12405 0.22971
# Poissons Ratio (y) = 0.34691 0.56898
# Poissons Ratio (z) = 0.21787 0.19296
#
# Static dielectric constant tensor:
#      x y z
#    x 3.739000 0.000000 1.061170 
#    y 0.000000 2.496980 0.000000 
#    z 1.061170 0.000000 2.883300 
# 
# From -- ./inp_files/41149.got.cif
#   From: 2010.05.17/outbox.cif.g08.bks.cpg/sg15_21_cif.got.tgz:41149.got - 2010.06.03 18:47:42.
