data_PCOD9306163
_publ_section_title
;
Structure prediction by ZEFSAII (Michael W. Deem and Ramdas Pophale) SiO2 
 PCOD9306163
Probable space group: C 2/C
;
_chemical_formula_sum "Si O2"
_cell_formula_units_Z 52
_cell_length_a 14.788270
_cell_length_b 20.637428
_cell_length_c 7.369742
_cell_angle_alpha 90.000000
_cell_angle_beta 107.815999
_cell_angle_gamma 90.000000
_cell_volume 2141.323310
_symmetry_space_group_name_H-M "C 2/C"
_symmetry_group_IT_number 15
_symmetry_cell_setting 'monoclinic'
loop_
_space_group_symop_operation_xyz
x,y,z
-x,y,1/2-z
-x,-y,-z
x,-y,1/2+z
1/2+x,1/2+y,z
1/2-x,1/2+y,1/2-z
1/2-x,1/2-y,-z
1/2+x,1/2-y,1/2+z
loop_
_atom_site_type_symbol
_atom_site_label
_atom_site_fract_x
_atom_site_fract_y
_atom_site_fract_z
Si Si1 0.990257 0.296485 0.029394
Si Si2 0.709109 0.066319 0.305882
Si Si3 0.325223 0.694104 0.469875
Si Si4 0.727735 0.072950 0.895136
Si Si5 0.554112 0.933283 0.007053
Si Si6 0.500000 0.289546 0.250000
Si Si7 0.163440 0.799331 0.953635
O O1 0.987449 0.370388 0.973183
O O2 0.087125 0.237916 0.534984
O O3 0.000000 0.297987 0.250000
O O4 0.056672 0.265460 0.915903
O O5 0.756308 0.131372 0.405177
O O6 0.765332 0.998752 0.372289
O O7 0.696153 0.071384 0.084076
O O8 0.613270 0.059100 0.360549
O O9 0.250000 0.750000 0.500000
O O10 0.409867 0.665519 0.650903
O O11 0.362977 0.697812 0.277251
O O12 0.636034 0.081852 0.709115
O O13 0.800204 0.133369 0.941506
O O14 0.500000 0.000000 0.000000
O O15 0.250000 0.750000 0.000000
#
# Coordination Sequence:
#
# PCOD9306163 Si02
#       7
#     8   8   8   8   8   4   8
#     4  12  27  46  69 106 149 190 247 312 373 446
#     4  11  26  49  72 106 148 197 248 302 384 456
#     4  11  25  46  74 110 148 198 257 317 379 452
#     4  11  26  48  74 104 145 200 246 305 377 461
#     4  12  30  44  69 111 154 195 246 306 384 463
#     4  12  26  46  74 112 146 192 256 318 370 448
#     4  11  25  45  72 100 143 199 253 303 371 450
#
# _framework density 24.284049
#
# number of rings (size 3 to 8) (size 9 to 14) (size 15 to 20)
#    0.000    0.615    3.077    2.769    8.615    6.769 
#    0.000    0.000    1.692    2.769    0.000    0.000 
#    0.000    0.000    0.000    0.000    0.000    0.000 
#
# Total GULP energy -144844.880670 kJ/mol
# GULP energy per Si atom -5570.956949 kJ/mol
# Density = 2.422878 g / cm^3
# Si number density = 24.284049 Si / 1000 Ang^3
#
#
#
# Elastic Constant Matrix: (Units=GPa)
#
#
# Indices 1 2 3 4 5 6 
#
# 1 66.1854 3.7112 24.1447 0.0000 -1.5317 0.0000
# 2 3.7112 139.0986 31.4046 0.0000 -6.7768 0.0000
# 3 24.1447 31.4046 175.6098 0.0000 0.2717 0.0000
# 4 0.0000 0.0000 0.0000 30.4021 0.0000 -19.7280
# 5 -1.5317 -6.7768 0.2717 0.0000 26.5988 0.0000
# 6 0.0000 0.0000 0.0000 -19.7280 0.0000 11.8711
#
#
#
# Elastic Compliance Matrix: (Units=1/GPa)
#
#
# Indices 1 2 3 4 5 6 
#
# 1 0.015932 0.000122 -0.002214 0.000000 0.000971 0.000000
# 2 0.000122 0.007592 -0.001378 0.000000 0.001955 0.000000
# 3 -0.002214 -0.001378 0.006246 0.000000 -0.000542 0.000000
# 4 0.000000 0.000000 0.000000 -0.419668 0.000000 -0.697424
# 5 0.000971 0.001955 -0.000542 0.000000 0.038155 0.000000
# 6 0.000000 0.000000 0.000000 -0.697424 0.000000 -1.074775
#
#
# Mechanical properties :
#
#
# Convention : Reuss Voigt Hill
#
# Bulk Modulus (GPa) = 43.79850 55.49055 49.64452
# Shear Modulus (GPa) = -3.54116 35.21665 15.83774
#
# Velocity S-wave (km/s) = -1.20888 3.81228 2.55657
# Velocity P-wave (km/s) = 4.01579 6.50217 5.40392
#
# Compressibility (1/GPa) = 0.02283183
#
# Stress axis : x y z
#
# Youngs Moduli (GPa) = 62.76542 131.71478 160.10205
#
# Poissons Ratio (x) = -0.01608 0.35445
# Poissons Ratio (y) = -0.00766 0.22055
# Poissons Ratio (z) = 0.13896 0.18144
#
# Static dielectric constant tensor:
#      x y z
#    x -21.326490 0.000000 -35.030560 
#    y 0.000000 2.124730 0.000000 
#    z -35.030560 0.000000 -51.289600 
# 
# From -- ./inp_files/57071.got.cif
#   From: 2010.05.17/outbox.cif.g08.bks.cpg/sg15_29_cif.got.tgz:57071.got - 2010.06.03 18:47:42.
