data_PCOD9306117
_publ_section_title
;
Structure prediction by ZEFSAII (Michael W. Deem and Ramdas Pophale) SiO2 
 PCOD9306117
Probable space group: C 2/C
;
_chemical_formula_sum "Si O2"
_cell_formula_units_Z 44
_cell_length_a 5.418739
_cell_length_b 29.948834
_cell_length_c 12.492866
_cell_angle_alpha 90.000000
_cell_angle_beta 91.221279
_cell_angle_gamma 90.000000
_cell_volume 2026.943143
_symmetry_space_group_name_H-M "C 2/C"
_symmetry_group_IT_number 15
_symmetry_cell_setting 'monoclinic'
loop_
_space_group_symop_operation_xyz
x,y,z
-x,y,1/2-z
-x,-y,-z
x,-y,1/2+z
1/2+x,1/2+y,z
1/2-x,1/2+y,1/2-z
1/2-x,1/2-y,-z
1/2+x,1/2-y,1/2+z
loop_
_atom_site_type_symbol
_atom_site_label
_atom_site_fract_x
_atom_site_fract_y
_atom_site_fract_z
Si Si1 0.232320 0.325969 0.451419
Si Si2 0.916169 0.869777 0.871143
Si Si3 0.991694 0.947178 0.014530
Si Si4 0.500000 0.283131 0.250000
Si Si5 0.630290 0.217855 0.411010
Si Si6 0.505723 0.088476 0.623024
O O1 0.409694 0.353488 0.530474
O O2 0.374052 0.309644 0.346053
O O3 0.015863 0.359004 0.408751
O O4 0.131814 0.289777 0.534187
O O5 0.000000 0.866194 0.750000
O O6 0.702238 0.832926 0.882315
O O7 0.908863 0.921857 0.903671
O O8 0.764194 0.932172 0.087764
O O9 0.260957 0.933258 0.065703
O O10 0.000000 0.000000 0.000000
O O11 0.680534 0.247619 0.307193
O O12 0.750000 0.250000 0.500000
O O13 0.500000 0.084565 0.750000
#
# Coordination Sequence:
#
# PCOD9306117 Si02
#       6
#     8   8   8   4   8   8
#     4  11  26  45  64 106 140 192 252 299 371 436
#     4  11  25  46  69  98 143 193 241 308 372 447
#     4  11  25  50  75 111 145 190 245 311 378 465
#     4  12  26  40  72  96 144 200 252 314 358 452
#     4  12  25  42  64  97 143 187 251 299 368 428
#     4  11  25  44  78 106 149 185 241 310 380 440
#
# _framework density 21.707564999999999
#
# number of rings (size 3 to 8) (size 9 to 14) (size 15 to 20)
#    0.000    0.727    3.636    2.727   10.182    1.455 
#    0.000    0.000    0.000    0.000    0.000    0.000 
#    0.000    0.000    0.000    0.000    0.000    0.000 
#
# Total GULP energy -122474.194966 kJ/mol
# GULP energy per Si atom -5567.008862 kJ/mol
# Density = 2.165816 g / cm^3
# Si number density = 21.707565 Si / 1000 Ang^3
#
#
#
# Elastic Constant Matrix: (Units=GPa)
#
#
# Indices 1 2 3 4 5 6 
#
# 1 47.6081 14.7749 13.5091 0.0000 -17.7888 0.0000
# 2 14.7749 122.0386 42.9728 0.0000 -18.7832 0.0000
# 3 13.5091 42.9728 166.5751 0.0000 -22.1570 0.0000
# 4 0.0000 0.0000 0.0000 -7.5185 0.0000 2.4729
# 5 -17.7888 -18.7832 -22.1570 0.0000 35.3854 0.0000
# 6 0.0000 0.0000 0.0000 2.4729 0.0000 35.3686
#
#
#
# Elastic Compliance Matrix: (Units=1/GPa)
#
#
# Indices 1 2 3 4 5 6 
#
# 1 0.026037 -0.001194 -0.000160 0.000000 0.012355 0.000000
# 2 -0.001194 0.009517 -0.001927 0.000000 0.003245 0.000000
# 3 -0.000160 -0.001927 0.006945 0.000000 0.003246 0.000000
# 4 0.000000 0.000000 0.000000 -0.130015 0.000000 0.009090
# 5 0.012355 0.003245 0.003246 0.000000 0.038226 0.000000
# 6 0.000000 0.000000 0.000000 0.009090 0.000000 0.027638
#
#
# Mechanical properties :
#
#
# Convention : Reuss Voigt Hill
#
# Bulk Modulus (GPa) = 27.82647 53.19284 40.50965
# Shear Modulus (GPa) = -1607.16544 30.31141 -788.42701
#
# Velocity S-wave (km/s) = -27.23928 3.74083 -19.07858
# Velocity P-wave (km/s) = 31.24833 6.57388 21.60141
#
# Compressibility (1/GPa) = 0.03593701
#
# Stress axis : x y z
#
# Youngs Moduli (GPa) = 38.40627 105.08022 143.98822
#
# Poissons Ratio (x) = 0.12550 0.02305
# Poissons Ratio (y) = 0.04587 0.27741
# Poissons Ratio (z) = 0.00615 0.20245
#
# Static dielectric constant tensor:
#      x y z
#    x 1.872900 0.000000 -0.062540 
#    y 0.000000 2.038440 0.000000 
#    z -0.062540 0.000000 1.683860 
# 
# From -- ./inp_files/73827.got.cif
#   From: 2010.05.17/outbox.cif.g08.bks.cpg/sg15_37_cif.got.tgz:73827.got - 2010.06.03 18:47:42.
