data_PCOD9306334
_publ_section_title
;
Structure prediction by ZEFSAII (Michael W. Deem and Ramdas Pophale) SiO2 
 PCOD9306334
Probable space group: C 2/C
;
_chemical_formula_sum "Si O2"
_cell_formula_units_Z 60
_cell_length_a 29.112375
_cell_length_b 11.208398
_cell_length_c 7.902265
_cell_angle_alpha 90.000000
_cell_angle_beta 106.060350
_cell_angle_gamma 90.000000
_cell_volume 2477.895439
_symmetry_space_group_name_H-M "C 2/C"
_symmetry_group_IT_number 15
_symmetry_cell_setting 'monoclinic'
loop_
_space_group_symop_operation_xyz
x,y,z
-x,y,1/2-z
-x,-y,-z
x,-y,1/2+z
1/2+x,1/2+y,z
1/2-x,1/2+y,1/2-z
1/2-x,1/2-y,-z
1/2+x,1/2-y,1/2+z
loop_
_atom_site_type_symbol
_atom_site_label
_atom_site_fract_x
_atom_site_fract_y
_atom_site_fract_z
Si Si1 0.475984 0.879283 0.907469
Si Si2 0.635361 0.878078 0.766094
Si Si3 0.908691 0.064187 0.275516
Si Si4 0.723465 0.443746 0.419431
Si Si5 0.837754 0.785111 0.898018
Si Si6 0.500000 0.292796 0.750000
Si Si7 0.863910 0.128279 0.884620
Si Si8 0.709398 0.903220 0.311581
O O1 0.500000 0.844728 0.750000
O O2 0.420065 0.907268 0.816998
O O3 0.482231 0.786745 0.071127
O O4 0.500000 0.000000 0.000000
O O5 0.645531 0.767040 0.650907
O O6 0.671694 0.987363 0.777573
O O7 0.643573 0.817956 0.956825
O O8 0.883554 0.134659 0.403049
O O9 0.958120 0.123389 0.277245
O O10 0.908985 0.924699 0.324437
O O11 0.874216 0.089897 0.082695
O O12 0.703950 0.359822 0.549871
O O13 0.679092 0.443539 0.246761
O O14 0.764980 0.391622 0.344184
O O15 0.748355 0.562500 0.516638
O O16 0.818598 0.720182 0.709887
#
# Coordination Sequence:
#
# PCOD9306334 Si02
#       8
#     8   8   8   8   8   4   8   8
#     4  12  27  47  79 115 163 205 250 321 387 468
#     4  11  26  47  74 108 147 199 246 312 377 445
#     4  12  26  49  78 108 144 198 243 325 376 464
#     4  11  25  47  69 108 144 196 249 300 368 451
#     4  11  26  47  75 104 155 192 252 307 387 449
#     4  12  28  50  78 122 144 196 278 302 398 462
#     4  11  25  49  73 101 151 192 249 303 382 441
#     4  12  25  42  75 105 147 190 250 306 361 448
#
# _framework density 24.214096000000001
#
# number of rings (size 3 to 8) (size 9 to 14) (size 15 to 20)
#    0.000    0.533    3.333    4.400    7.467    0.533 
#    1.200    2.000    0.000    0.000    0.000    0.000 
#    0.000    0.000    0.000    0.000    0.000    0.000 
#
# Total GULP energy -167776.617946 kJ/mol
# GULP energy per Si atom -5592.553932 kJ/mol
# Density = 2.415898 g / cm^3
# Si number density = 24.214096 Si / 1000 Ang^3
#
#
#
# Elastic Constant Matrix: (Units=GPa)
#
#
# Indices 1 2 3 4 5 6 
#
# 1 152.4698 49.5863 42.2311 0.0000 6.4035 0.0000
# 2 49.5863 78.0220 26.6249 0.0000 3.0884 0.0000
# 3 42.2311 26.6249 86.6771 0.0000 4.6807 0.0000
# 4 0.0000 0.0000 0.0000 8.9790 0.0000 -0.0642
# 5 6.4035 3.0884 4.6807 0.0000 45.7119 0.0000
# 6 0.0000 0.0000 0.0000 -0.0642 0.0000 29.2589
#
#
#
# Elastic Compliance Matrix: (Units=1/GPa)
#
#
# Indices 1 2 3 4 5 6 
#
# 1 0.008892 -0.004646 -0.002871 0.000000 -0.000638 0.000000
# 2 -0.004646 0.016758 -0.002874 0.000000 -0.000187 0.000000
# 3 -0.002871 -0.002874 0.013863 0.000000 -0.000823 0.000000
# 4 0.000000 0.000000 0.000000 0.111373 0.000000 0.000245
# 5 -0.000638 -0.000187 -0.000823 0.000000 0.022062 0.000000
# 6 0.000000 0.000000 0.000000 0.000245 0.000000 0.034178
#
#
# Mechanical properties :
#
#
# Convention : Reuss Voigt Hill
#
# Bulk Modulus (GPa) = 53.38649 61.56149 57.47399
# Shear Modulus (GPa) = 21.35381 30.03840 25.69611
#
# Velocity S-wave (km/s) = 2.97286 3.52594 3.26115
# Velocity P-wave (km/s) = 5.82060 6.48501 6.16177
#
# Compressibility (1/GPa) = 0.01873133
#
# Stress axis : x y z
#
# Youngs Moduli (GPa) = 112.46607 59.67373 72.13509
#
# Poissons Ratio (x) = 0.27725 0.20707
# Poissons Ratio (y) = 0.52253 0.20730
# Poissons Ratio (z) = 0.32284 0.17149
#
# Static dielectric constant tensor:
#      x y z
#    x 1.945820 0.000000 -0.008580 
#    y 0.000000 1.954490 0.000000 
#    z -0.008580 0.000000 1.953430 
# 
# From -- ./inp_files/69408.got.cif
#   From: 2010.05.17/outbox.cif.g08.bks.cpg/sg15_35_cif.got.tgz:69408.got - 2010.06.03 18:47:42.
