data_PCOD9306112
_publ_section_title
;
Structure prediction by ZEFSAII (Michael W. Deem and Ramdas Pophale) SiO2 
 PCOD9306112
Probable space group: C 2/C
;
_chemical_formula_sum "Si O2"
_cell_formula_units_Z 32
_cell_length_a 23.385765
_cell_length_b 5.739302
_cell_length_c 8.980170
_cell_angle_alpha 90.000000
_cell_angle_beta 106.411607
_cell_angle_gamma 90.000000
_cell_volume 1156.192332
_symmetry_space_group_name_H-M "C 2/C"
_symmetry_group_IT_number 15
_symmetry_cell_setting 'monoclinic'
loop_
_space_group_symop_operation_xyz
x,y,z
-x,y,1/2-z
-x,-y,-z
x,-y,1/2+z
1/2+x,1/2+y,z
1/2-x,1/2+y,1/2-z
1/2-x,1/2-y,-z
1/2+x,1/2-y,1/2+z
loop_
_atom_site_type_symbol
_atom_site_label
_atom_site_fract_x
_atom_site_fract_y
_atom_site_fract_z
Si Si1 0.942903 0.583426 0.819157
Si Si2 0.651968 0.318423 0.938573
Si Si3 0.740200 0.028264 0.161771
Si Si4 0.558401 0.325129 0.373692
O O1 0.886966 0.737390 0.728687
O O2 0.918704 0.329621 0.748305
O O3 0.000000 0.606827 0.750000
O O4 0.042337 0.336943 0.003216
O O5 0.710026 0.459889 0.930682
O O6 0.604582 0.492317 0.973927
O O7 0.675870 0.095741 0.046395
O O8 0.755186 0.270679 0.264182
O O9 0.500000 0.429094 0.250000
#
# Coordination Sequence:
#
# PCOD9306112 Si02
#       4
#     8   8   8   8
#     4  11  25  44  75 114 154 207 256 326 392 476
#     4  11  27  44  77 109 153 208 257 326 393 469
#     4  11  28  49  77 113 157 204 268 323 392 463
#     4  11  25  46  75 114 158 202 262 318 398 470
#
# _framework density 27.677057999999999
#
# number of rings (size 3 to 8) (size 9 to 14) (size 15 to 20)
#    0.000    1.000    0.000    5.250   10.500   10.000 
#    0.000    0.000    0.000    0.000    0.000    0.000 
#    0.000    0.000    0.000    0.000    0.000    0.000 
#
# Total GULP energy -89395.406089 kJ/mol
# GULP energy per Si atom -5587.212881 kJ/mol
# Density = 2.761406 g / cm^3
# Si number density = 27.677058 Si / 1000 Ang^3
#
#
#
# Elastic Constant Matrix: (Units=GPa)
#
#
# Indices 1 2 3 4 5 6 
#
# 1 90.6966 25.4726 60.4604 0.0000 9.7038 0.0000
# 2 25.4726 128.9371 73.8044 0.0000 -8.8732 0.0000
# 3 60.4604 73.8044 205.9186 0.0000 0.1109 0.0000
# 4 0.0000 0.0000 0.0000 59.5545 0.0000 0.3980
# 5 9.7038 -8.8732 0.1109 0.0000 41.4675 0.0000
# 6 0.0000 0.0000 0.0000 0.3980 0.0000 16.7347
#
#
#
# Elastic Compliance Matrix: (Units=1/GPa)
#
#
# Indices 1 2 3 4 5 6 
#
# 1 0.014216 -0.000831 -0.003874 0.000000 -0.003494 0.000000
# 2 -0.000831 0.009992 -0.003338 0.000000 0.002342 0.000000
# 3 -0.003874 -0.003338 0.007190 0.000000 0.000173 0.000000
# 4 0.000000 0.000000 0.000000 0.016794 0.000000 -0.000399
# 5 -0.003494 0.002342 0.000173 0.000000 0.025434 0.000000
# 6 0.000000 0.000000 0.000000 -0.000399 0.000000 0.059766
#
#
# Mechanical properties :
#
#
# Convention : Reuss Voigt Hill
#
# Bulk Modulus (GPa) = 65.31602 82.78082 74.04842
# Shear Modulus (GPa) = 32.34523 41.27233 36.80878
#
# Velocity S-wave (km/s) = 3.42228 3.86581 3.65079
# Velocity P-wave (km/s) = 6.26631 7.06402 6.67709
#
# Compressibility (1/GPa) = 0.01531018
#
# Stress axis : x y z
#
# Youngs Moduli (GPa) = 70.34508 100.07941 139.07765
#
# Poissons Ratio (x) = 0.08320 0.53879
# Poissons Ratio (y) = 0.05848 0.46431
# Poissons Ratio (z) = 0.27252 0.33411
#
# Static dielectric constant tensor:
#      x y z
#    x 2.180680 0.000000 0.013300 
#    y 0.000000 2.365870 0.000000 
#    z 0.013300 0.000000 2.149900 
# 
# From -- ./inp_files/175198.got.cif
#   From: 2010.05.17/outbox.cif.g08.bks.cpg/sg15_88_cif.got.tgz:175198.got - 2010.06.03 18:47:42.
