data_PCOD9306278
_publ_section_title
;
Structure prediction by ZEFSAII (Michael W. Deem and Ramdas Pophale) SiO2 
 PCOD9306278
Probable space group: C 2/C
;
_chemical_formula_sum "Si O2"
_cell_formula_units_Z 24
_cell_length_a 17.854261
_cell_length_b 7.049371
_cell_length_c 14.556844
_cell_angle_alpha 90.000000
_cell_angle_beta 146.003196
_cell_angle_gamma 90.000000
_cell_volume 1024.436888
_symmetry_space_group_name_H-M "C 2/C"
_symmetry_group_IT_number 15
_symmetry_cell_setting 'monoclinic'
loop_
_space_group_symop_operation_xyz
x,y,z
-x,y,1/2-z
-x,-y,-z
x,-y,1/2+z
1/2+x,1/2+y,z
1/2-x,1/2+y,1/2-z
1/2-x,1/2-y,-z
1/2+x,1/2-y,1/2+z
loop_
_atom_site_type_symbol
_atom_site_label
_atom_site_fract_x
_atom_site_fract_y
_atom_site_fract_z
Si Si1 0.415534 0.262143 0.483964
Si Si2 0.341898 0.826842 0.393156
Si Si3 0.750000 0.250000 0.500000
Si Si4 0.000000 0.013839 0.250000
O O1 0.537305 0.276932 0.536073
O O2 0.280333 0.341971 0.301990
O O3 0.452010 0.352692 0.617921
O O4 0.391633 0.036263 0.472254
O O5 0.296644 0.726928 0.439887
O O6 0.621712 0.383546 0.338845
#
# Coordination Sequence:
#
# PCOD9306278 Si02
#       4
#     8   8   4   4
#     4  11  26  48  73 103 142 186 234 287 350 417
#     4  11  25  46  73 104 141 186 233 287 348 416
#     4  12  26  44  72 104 140 182 234 288 346 412
#     4  12  28  48  72 104 142 186 236 290 350 418
#
# _framework density 23.427506000000001
#
# number of rings (size 3 to 8) (size 9 to 14) (size 15 to 20)
#    0.000    0.667    0.000    6.000    0.000   18.667 
#    0.000    0.000    0.000    0.000    0.000    0.000 
#    0.000    0.000    0.000    0.000    0.000    0.000 
#
# Total GULP energy -66808.250451 kJ/mol
# GULP energy per Si atom -5567.354204 kJ/mol
# Density = 2.337418 g / cm^3
# Si number density = 23.427506 Si / 1000 Ang^3
#
#
#
# Elastic Constant Matrix: (Units=GPa)
#
#
# Indices 1 2 3 4 5 6 
#
# 1 144.6567 27.8988 71.4307 0.0000 -6.6143 0.0000
# 2 27.8988 90.0805 52.6644 0.0000 5.9191 0.0000
# 3 71.4307 52.6644 164.9439 0.0000 -6.9681 0.0000
# 4 0.0000 0.0000 0.0000 587.6824 0.0000 -241.1388
# 5 -6.6143 5.9191 -6.9681 0.0000 49.0272 0.0000
# 6 0.0000 0.0000 0.0000 -241.1388 0.0000 100.8196
#
#
#
# Elastic Compliance Matrix: (Units=1/GPa)
#
#
# Indices 1 2 3 4 5 6 
#
# 1 0.008849 -0.000701 -0.003576 0.000000 0.000770 0.000000
# 2 -0.000701 0.013963 -0.004255 0.000000 -0.002385 0.000000
# 3 -0.003576 -0.004255 0.009025 0.000000 0.001314 0.000000
# 4 0.000000 0.000000 0.000000 0.091488 0.000000 0.218819
# 5 0.000770 -0.002385 0.001314 0.000000 0.020975 0.000000
# 6 0.000000 0.000000 0.000000 0.218819 0.000000 0.533288
#
#
# Mechanical properties :
#
#
# Convention : Reuss Voigt Hill
#
# Bulk Modulus (GPa) = 67.68986 78.18544 72.93765
# Shear Modulus (GPa) = 7.14718 164.01832 85.58275
#
# Velocity S-wave (km/s) = 1.74854 8.37634 6.05064
# Velocity P-wave (km/s) = 5.74740 11.26927 8.94508
#
# Compressibility (1/GPa) = 0.01477326
#
# Stress axis : x y z
#
# Youngs Moduli (GPa) = 113.00674 71.61885 110.79722
#
# Poissons Ratio (x) = 0.05018 0.39620
# Poissons Ratio (y) = 0.07917 0.47150
# Poissons Ratio (z) = 0.40410 0.30477
#
# Static dielectric constant tensor:
#      x y z
#    x 1.809920 0.000000 0.039130 
#    y 0.000000 1.948600 0.000000 
#    z 0.039130 0.000000 1.889170 
# 
# From -- ./inp_files/45353.got.cif
#   From: 2010.05.17/outbox.cif.g08.bks.cpg/sg15_23_cif.got.tgz:45353.got - 2010.06.03 18:47:42.
