data_PCOD9306794
_publ_section_title
;
Structure prediction by ZEFSAII (Michael W. Deem and Ramdas Pophale) SiO2 
 PCOD9306794
Probable space group: C 2/C
;
_chemical_formula_sum "Si O2"
_cell_formula_units_Z 56
_cell_length_a 23.811742
_cell_length_b 10.143608
_cell_length_c 8.845155
_cell_angle_alpha 90.000000
_cell_angle_beta 102.546252
_cell_angle_gamma 90.000000
_cell_volume 2085.416069
_symmetry_space_group_name_H-M "C 2/C"
_symmetry_group_IT_number 15
_symmetry_cell_setting 'monoclinic'
loop_
_space_group_symop_operation_xyz
x,y,z
-x,y,1/2-z
-x,-y,-z
x,-y,1/2+z
1/2+x,1/2+y,z
1/2-x,1/2+y,1/2-z
1/2-x,1/2-y,-z
1/2+x,1/2-y,1/2+z
loop_
_atom_site_type_symbol
_atom_site_label
_atom_site_fract_x
_atom_site_fract_y
_atom_site_fract_z
Si Si1 0.853900 0.067863 0.153266
Si Si2 0.203265 0.780012 0.647504
Si Si3 0.536434 0.847659 0.907156
Si Si4 0.360436 0.268231 0.194136
Si Si5 0.454835 0.292774 0.599493
Si Si6 0.876066 0.574257 0.488114
Si Si7 0.240533 0.552049 0.891744
O O1 0.852196 0.169192 0.291501
O O2 0.907377 0.091716 0.072306
O O3 0.852791 0.922181 0.221842
O O4 0.795029 0.093103 0.026022
O O5 0.315230 0.754786 0.532298
O O6 0.317166 0.954827 0.041192
O O7 0.242034 0.911196 0.665824
O O8 0.500000 0.916182 0.750000
O O9 0.577752 0.747115 0.846235
O O10 0.507438 0.233274 0.014633
O O11 0.581154 0.950152 0.012352
O O12 0.361651 0.163442 0.331971
O O13 0.230062 0.340932 0.254310
O O14 0.500000 0.332526 0.750000
O O15 0.414635 0.168383 0.615017
#
# Coordination Sequence:
#
# PCOD9306794 Si02
#       7
#     8   8   8   8   8   8   8
#     4  11  27  53  87 118 174 219 295 349 437 516
#     4  11  26  53  84 124 165 224 296 347 439 522
#     4  12  28  50  84 126 172 223 285 352 438 519
#     4  11  29  51  80 123 166 222 283 358 426 529
#     4  12  27  51  82 122 169 222 282 352 429 507
#     4  12  28  52  83 122 179 218 283 359 442 507
#     4  11  28  53  89 125 173 232 284 369 435 529
#
# _framework density 26.853154
#
# number of rings (size 3 to 8) (size 9 to 14) (size 15 to 20)
#    0.000    0.571    2.857    2.143    6.000    5.714 
#    0.000   10.714    0.000    0.000    0.000    0.000 
#    0.000    0.000    0.000    0.000    0.000    0.000 
#
# Total GULP energy -156980.323551 kJ/mol
# GULP energy per Si atom -5606.440127 kJ/mol
# Density = 2.679204 g / cm^3
# Si number density = 26.853154 Si / 1000 Ang^3
#
#
#
# Elastic Constant Matrix: (Units=GPa)
#
#
# Indices 1 2 3 4 5 6 
#
# 1 208.1431 67.1356 86.8935 0.0000 -12.5223 0.0000
# 2 67.1356 154.3091 92.3648 0.0000 -12.9169 0.0000
# 3 86.8935 92.3648 157.0291 0.0000 -0.1008 0.0000
# 4 0.0000 0.0000 0.0000 32.1359 0.0000 -14.5942
# 5 -12.5223 -12.9169 -0.1008 0.0000 61.7629 0.0000
# 6 0.0000 0.0000 0.0000 -14.5942 0.0000 51.8182
#
#
#
# Elastic Compliance Matrix: (Units=1/GPa)
#
#
# Indices 1 2 3 4 5 6 
#
# 1 0.006423 -0.000886 -0.003032 0.000000 0.001112 0.000000
# 2 -0.000886 0.010399 -0.005625 0.000000 0.001986 0.000000
# 3 -0.003032 -0.005625 0.011354 0.000000 -0.001773 0.000000
# 4 0.000000 0.000000 0.000000 0.035682 0.000000 0.010050
# 5 0.001112 0.001986 -0.001773 0.000000 0.016829 0.000000
# 6 0.000000 0.000000 0.000000 0.010050 0.000000 0.022129
#
#
# Mechanical properties :
#
#
# Convention : Reuss Voigt Hill
#
# Bulk Modulus (GPa) = 110.02691 112.47434 111.25063
# Shear Modulus (GPa) = 40.02162 47.34923 43.68543
#
# Velocity S-wave (km/s) = 3.86474 4.20368 4.03777
# Velocity P-wave (km/s) = 7.80881 8.09550 7.95345
#
# Compressibility (1/GPa) = 0.00908869
#
# Stress axis : x y z
#
# Youngs Moduli (GPa) = 155.68997 96.15863 88.07713
#
# Poissons Ratio (x) = 0.08524 0.26706
# Poissons Ratio (y) = 0.13802 0.49545
# Poissons Ratio (z) = 0.47207 0.54091
#
# Static dielectric constant tensor:
#      x y z
#    x 2.141910 0.000000 -0.007620 
#    y 0.000000 2.093120 0.000000 
#    z -0.007620 0.000000 2.114850 
# 
# From -- ./inp_files/117197.got.cif
#   From: 2010.05.17/outbox.cif.g08.bks.cpg/sg15_59_cif.got.tgz:117197.got - 2010.06.03 18:47:42.
