data_PCOD9306585
_publ_section_title
;
Structure prediction by ZEFSAII (Michael W. Deem and Ramdas Pophale) SiO2 
 PCOD9306585
Probable space group: C 2/C
;
_chemical_formula_sum "Si O2"
_cell_formula_units_Z 60
_cell_length_a 19.900908
_cell_length_b 14.180031
_cell_length_c 26.878600
_cell_angle_alpha 90.000000
_cell_angle_beta 159.613445
_cell_angle_gamma 90.000000
_cell_volume 2642.257529
_symmetry_space_group_name_H-M "C 2/C"
_symmetry_group_IT_number 15
_symmetry_cell_setting 'monoclinic'
loop_
_space_group_symop_operation_xyz
x,y,z
-x,y,1/2-z
-x,-y,-z
x,-y,1/2+z
1/2+x,1/2+y,z
1/2-x,1/2+y,1/2-z
1/2-x,1/2-y,-z
1/2+x,1/2-y,1/2+z
loop_
_atom_site_type_symbol
_atom_site_label
_atom_site_fract_x
_atom_site_fract_y
_atom_site_fract_z
Si Si1 0.253811 0.145631 0.808475
Si Si2 0.653337 0.259603 0.487049
Si Si3 0.298073 0.201618 0.586641
Si Si4 0.015071 0.839124 0.544766
Si Si5 0.776688 0.074642 0.606192
Si Si6 0.898948 0.487746 0.104123
Si Si7 0.724548 0.534173 0.694413
Si Si8 0.500000 0.142737 0.250000
O O1 0.370658 0.244137 0.890960
O O2 0.251614 0.077507 0.854824
O O3 0.319443 0.083200 0.807633
O O4 0.032408 0.176740 0.645476
O O5 0.750000 0.250000 0.500000
O O6 0.619683 0.152853 0.480057
O O7 0.818840 0.294649 0.640209
O O8 0.500000 0.239050 0.750000
O O9 0.250000 0.250000 0.500000
O O10 0.335264 0.094830 0.595669
O O11 0.134443 0.195305 0.515954
O O12 0.918868 0.888330 0.429467
O O13 0.135906 0.931904 0.646737
O O14 0.000000 0.101160 0.750000
O O15 0.730117 0.991573 0.535284
O O16 0.117585 0.477772 0.238539
O O17 0.901354 0.579839 0.139773
#
# Coordination Sequence:
#
# PCOD9306585 Si02
#       8
#     8   8   8   8   8   8   8   4
#     4  12  26  45  68 105 153 184 240 306 371 441
#     4  12  22  39  66 101 141 184 224 274 356 434
#     4  12  27  53  81 108 141 201 264 316 371 442
#     4  11  26  46  75 107 147 193 247 305 371 450
#     4  12  25  41  67 106 145 186 229 296 367 438
#     4  12  25  46  72 103 139 187 246 297 360 440
#     4  11  26  45  72 105 142 195 240 297 378 442
#     4  12  22  38  72  98 136 184 238 278 336 442
#
# _framework density 22.707854999999999
#
# number of rings (size 3 to 8) (size 9 to 14) (size 15 to 20)
#    0.000    0.267    5.333    2.400    9.333    1.067 
#    0.000    0.000    0.000    0.000    0.000    0.000 
#    0.000    0.000    0.000    0.000    0.000    0.000 
#
# Total GULP energy -167489.131609 kJ/mol
# GULP energy per Si atom -5582.971054 kJ/mol
# Density = 2.265617 g / cm^3
# Si number density = 22.707855 Si / 1000 Ang^3
#
#
#
# Elastic Constant Matrix: (Units=GPa)
#
#
# Indices 1 2 3 4 5 6 
#
# 1 123.6398 31.2861 26.0798 -0.0053 3.6817 -0.0021
# 2 31.2861 55.6252 20.9720 -0.0134 -8.1806 0.0033
# 3 26.0798 20.9720 87.1711 -0.0329 -3.7507 0.0017
# 4 -0.0053 -0.0134 -0.0329 28.3735 0.0003 -7.5916
# 5 3.6817 -8.1806 -3.7507 0.0003 37.5718 0.0062
# 6 -0.0021 0.0033 0.0017 -7.5916 0.0062 19.4147
#
#
#
# Elastic Compliance Matrix: (Units=1/GPa)
#
#
# Indices 1 2 3 4 5 6 
#
# 1 0.009850 -0.005198 -0.001794 -0.000002 -0.002276 0.000002
# 2 -0.005198 0.023084 -0.003776 0.000004 0.005158 -0.000004
# 3 -0.001794 -0.003776 0.012945 0.000014 0.000646 0.000005
# 4 -0.000002 0.000004 0.000014 0.039362 0.000000 0.015392
# 5 -0.002276 0.005158 0.000646 0.000000 0.028026 -0.000010
# 6 0.000002 -0.000004 0.000005 0.015392 -0.000010 0.057526
#
#
# Mechanical properties :
#
#
# Convention : Reuss Voigt Hill
#
# Bulk Modulus (GPa) = 41.08369 47.01243 44.04806
# Shear Modulus (GPa) = 24.94472 29.61189 27.27831
#
# Velocity S-wave (km/s) = 3.31797 3.61506 3.46970
# Velocity P-wave (km/s) = 5.72801 6.17843 5.95748
#
# Compressibility (1/GPa) = 0.02434056
#
# Stress axis : x y z
#
# Youngs Moduli (GPa) = 101.52716 43.32087 77.25116
#
# Poissons Ratio (x) = 0.22519 0.13860
# Poissons Ratio (y) = 0.52775 0.29173
# Poissons Ratio (z) = 0.18215 0.16360
#
# Static dielectric constant tensor:
#      x y z
#    x 1.825670 -0.000020 -0.035350 
#    y -0.000020 1.803380 0.000050 
#    z -0.035350 0.000050 1.906940 
# 
# From -- ./inp_files/301197.got.cif
#   From: 2010.05.17/outbox.cif.g08.bks.cpg/sg15_151_cif.got.tgz:301197.got - 2010.06.03 18:47:42.
