data_PCOD9306590
_publ_section_title
;
Structure prediction by ZEFSAII (Michael W. Deem and Ramdas Pophale) SiO2 
 PCOD9306590
Probable space group: C 2/C
;
_chemical_formula_sum "Si O2"
_cell_formula_units_Z 40
_cell_length_a 12.104920
_cell_length_b 16.080988
_cell_length_c 18.884644
_cell_angle_alpha 90.000000
_cell_angle_beta 151.059091
_cell_angle_gamma 90.000000
_cell_volume 1778.875944
_symmetry_space_group_name_H-M "C 2/C"
_symmetry_group_IT_number 15
_symmetry_cell_setting 'monoclinic'
loop_
_space_group_symop_operation_xyz
x,y,z
-x,y,1/2-z
-x,-y,-z
x,-y,1/2+z
1/2+x,1/2+y,z
1/2-x,1/2+y,1/2-z
1/2-x,1/2-y,-z
1/2+x,1/2-y,1/2+z
loop_
_atom_site_type_symbol
_atom_site_label
_atom_site_fract_x
_atom_site_fract_y
_atom_site_fract_z
Si Si1 0.974653 0.404961 0.459847
Si Si2 0.425773 0.584093 0.873687
Si Si3 0.844462 0.891288 0.857205
Si Si4 0.114767 0.816521 0.880882
Si Si5 0.647656 0.158721 0.456073
O O1 0.778909 0.387041 0.291685
O O2 0.913012 0.353392 0.495525
O O3 0.000000 0.500000 0.500000
O O4 0.212534 0.381646 0.557074
O O5 0.352784 0.491063 0.854643
O O6 0.494900 0.630428 0.985578
O O7 0.659105 0.592469 0.959352
O O8 0.586663 0.858368 0.717859
O O9 0.942636 0.857789 0.838870
O O10 0.000000 0.772912 0.750000
O O11 0.250000 0.750000 0.000000
O O12 0.750000 0.250000 0.500000
#
# Coordination Sequence:
#
# PCOD9306590 Si02
#       5
#     8   8   8   8   8
#     4  12  25  49  79 107 147 203 254 303 382 459
#     4  11  26  45  77 108 147 198 254 309 373 455
#     4  11  26  49  72 110 152 195 254 311 379 452
#     4  12  28  47  75 102 152 193 248 308 376 453
#     4  12  27  47  76 110 155 198 251 324 388 447
#
# _framework density 22.48611
#
# number of rings (size 3 to 8) (size 9 to 14) (size 15 to 20)
#    0.000    0.400    4.000    2.400    8.400    1.600 
#    0.000    0.000    0.000    0.000    0.000    0.000 
#    0.000    0.000    0.000    0.000    0.000    0.000 
#
# Total GULP energy -111910.481002 kJ/mol
# GULP energy per Si atom -5595.524050 kJ/mol
# Density = 2.243493 g / cm^3
# Si number density = 22.486110 Si / 1000 Ang^3
#
#
#
# Elastic Constant Matrix: (Units=GPa)
#
#
# Indices 1 2 3 4 5 6 
#
# 1 125.5034 21.9724 52.9056 -0.0040 -2.2342 -0.0004
# 2 21.9724 91.0756 29.2206 0.0009 7.4616 0.0003
# 3 52.9056 29.2206 183.9109 0.0049 -25.0215 0.0011
# 4 -0.0040 0.0009 0.0049 20.4403 0.0006 3.9570
# 5 -2.2342 7.4616 -25.0215 0.0006 57.1316 0.0000
# 6 -0.0004 0.0003 0.0011 3.9570 0.0000 37.1801
#
#
#
# Elastic Compliance Matrix: (Units=1/GPa)
#
#
# Indices 1 2 3 4 5 6 
#
# 1 0.009262 -0.001379 -0.002522 0.000003 -0.000562 0.000000
# 2 -0.001379 0.012110 -0.001861 0.000000 -0.002451 0.000000
# 3 -0.002522 -0.001861 0.006889 -0.000002 0.003161 0.000000
# 4 0.000003 0.000000 -0.000002 0.049952 -0.000001 -0.005316
# 5 -0.000562 -0.002451 0.003161 -0.000001 0.019186 0.000000
# 6 0.000000 0.000000 0.000000 -0.005316 0.000000 0.027462
#
#
# Mechanical properties :
#
#
# Convention : Reuss Voigt Hill
#
# Bulk Modulus (GPa) = 59.74610 67.63191 63.68901
# Shear Modulus (GPa) = 35.21997 42.70982 38.96489
#
# Velocity S-wave (km/s) = 3.96194 4.36292 4.16726
# Velocity P-wave (km/s) = 6.89617 7.45135 7.17913
#
# Compressibility (1/GPa) = 0.01673749
#
# Stress axis : x y z
#
# Youngs Moduli (GPa) = 107.96239 82.57326 145.16692
#
# Poissons Ratio (x) = 0.11391 0.36609
# Poissons Ratio (y) = 0.14893 0.27012
# Poissons Ratio (z) = 0.27226 0.15365
#
# Static dielectric constant tensor:
#      x y z
#    x 1.777520 0.000000 -0.035930 
#    y 0.000000 1.827220 0.000000 
#    z -0.035930 0.000000 1.854350 
# 
# From -- ./inp_files/199726.got.cif
#   From: 2010.05.17/outbox.cif.g08.bks.cpg/sg15_100_cif.got.tgz:199726.got - 2010.06.03 18:47:42.
