data_PCOD9306777
_publ_section_title
;
Structure prediction by ZEFSAII (Michael W. Deem and Ramdas Pophale) SiO2 
 PCOD9306777
Probable space group: C 2/C
;
_chemical_formula_sum "Si O2"
_cell_formula_units_Z 36
_cell_length_a 8.358941
_cell_length_b 14.159633
_cell_length_c 20.032184
_cell_angle_alpha 90.000000
_cell_angle_beta 139.015175
_cell_angle_gamma 90.000000
_cell_volume 1555.041983
_symmetry_space_group_name_H-M "C 2/C"
_symmetry_group_IT_number 15
_symmetry_cell_setting 'monoclinic'
loop_
_space_group_symop_operation_xyz
x,y,z
-x,y,1/2-z
-x,-y,-z
x,-y,1/2+z
1/2+x,1/2+y,z
1/2-x,1/2+y,1/2-z
1/2-x,1/2-y,-z
1/2+x,1/2-y,1/2+z
loop_
_atom_site_type_symbol
_atom_site_label
_atom_site_fract_x
_atom_site_fract_y
_atom_site_fract_z
Si Si1 0.489346 0.136275 0.392433
Si Si2 0.112522 0.538919 0.715032
Si Si3 0.992428 0.296861 0.105595
Si Si4 0.391403 0.656282 0.620789
Si Si5 0.000000 0.193392 0.250000
O O1 0.443796 0.070607 0.314556
O O2 0.517590 0.247379 0.385796
O O3 0.706806 0.109352 0.509707
O O4 0.226164 0.129246 0.343226
O O5 0.386739 0.582921 0.795438
O O6 0.000000 0.565071 0.750000
O O7 0.954442 0.593273 0.609731
O O8 0.044717 0.250591 0.194890
O O9 0.224481 0.301700 0.128773
O O10 0.750000 0.250000 0.000000
#
# Coordination Sequence:
#
# PCOD9306777 Si02
#       5
#     8   8   8   8   4
#     4  11  27  47  78 108 149 206 256 319 384 466
#     4  12  28  47  73 114 156 200 260 321 383 461
#     4  12  25  48  77 108 153 203 253 320 385 456
#     4  11  26  51  75 109 155 202 260 316 392 456
#     4  12  24  48  76 112 152 198 254 316 390 448
#
# _framework density 23.150500000000001
#
# number of rings (size 3 to 8) (size 9 to 14) (size 15 to 20)
#    0.000    0.444    5.556    0.667    9.333    3.556 
#    0.000    0.000    0.000    0.000    0.000    0.000 
#    0.000    0.000    0.000    0.000    0.000    0.000 
#
# Total GULP energy -100277.356632 kJ/mol
# GULP energy per Si atom -5570.964257 kJ/mol
# Density = 2.309781 g / cm^3
# Si number density = 23.150500 Si / 1000 Ang^3
#
#
#
# Elastic Constant Matrix: (Units=GPa)
#
#
# Indices 1 2 3 4 5 6 
#
# 1 97.5227 -4.9201 67.6445 0.0000 9.5386 0.0000
# 2 -4.9201 59.1788 67.5870 0.0000 18.2965 0.0000
# 3 67.6445 67.5870 183.3608 0.0000 19.8466 0.0000
# 4 0.0000 0.0000 0.0000 28.9006 0.0000 -22.0563
# 5 9.5386 18.2965 19.8466 0.0000 28.7497 0.0000
# 6 0.0000 0.0000 0.0000 -22.0563 0.0000 23.2075
#
#
#
# Elastic Compliance Matrix: (Units=1/GPa)
#
#
# Indices 1 2 3 4 5 6 
#
# 1 0.024666 0.025525 -0.017145 0.000000 -0.012592 0.000000
# 2 0.025525 0.060047 -0.028637 0.000000 -0.026914 0.000000
# 3 -0.017145 -0.028637 0.021341 0.000000 0.009181 0.000000
# 4 0.000000 0.000000 0.000000 0.125970 0.000000 0.119721
# 5 -0.012592 -0.026914 0.009181 0.000000 0.049751 0.000000
# 6 0.000000 0.000000 0.000000 0.119721 0.000000 0.156872
#
#
# Mechanical properties :
#
#
# Convention : Reuss Voigt Hill
#
# Bulk Modulus (GPa) = 15.25798 66.74279 41.00038
# Shear Modulus (GPa) = 9.97992 30.15496 20.06744
#
# Velocity S-wave (km/s) = 2.07852 3.61302 2.94738
# Velocity P-wave (km/s) = 3.51645 6.80424 5.41586
#
# Compressibility (1/GPa) = 0.06553948
#
# Stress axis : x y z
#
# Youngs Moduli (GPa) = 40.54199 16.65372 46.85909
#
# Poissons Ratio (x) = -0.42509 0.80341
# Poissons Ratio (y) = -1.03484 1.34189
# Poissons Ratio (z) = 0.69510 0.47691
#
# Static dielectric constant tensor:
#      x y z
#    x 1.983350 0.000000 -0.019650 
#    y 0.000000 2.105150 0.000000 
#    z -0.019650 0.000000 1.905050 
# 
# From -- ./inp_files/231664.got.cif
#   From: 2010.05.17/outbox.cif.g08.bks.cpg/sg15_116_cif.got.tgz:231664.got - 2010.06.03 18:47:42.
