data_PCOD9306656
_publ_section_title
;
Structure prediction by ZEFSAII (Michael W. Deem and Ramdas Pophale) SiO2 
 PCOD9306656
Probable space group: C 2/C
;
_chemical_formula_sum "Si O2"
_cell_formula_units_Z 36
_cell_length_a 17.119209
_cell_length_b 9.475072
_cell_length_c 21.872902
_cell_angle_alpha 90.000000
_cell_angle_beta 30.107903
_cell_angle_gamma 90.000000
_cell_volume 1779.738431
_symmetry_space_group_name_H-M "C 2/C"
_symmetry_group_IT_number 15
_symmetry_cell_setting 'monoclinic'
loop_
_space_group_symop_operation_xyz
x,y,z
-x,y,1/2-z
-x,-y,-z
x,-y,1/2+z
1/2+x,1/2+y,z
1/2-x,1/2+y,1/2-z
1/2-x,1/2-y,-z
1/2+x,1/2-y,1/2+z
loop_
_atom_site_type_symbol
_atom_site_label
_atom_site_fract_x
_atom_site_fract_y
_atom_site_fract_z
Si Si1 0.166753 0.031045 0.916763
Si Si2 0.500000 0.503056 0.750000
Si Si3 0.908784 0.441094 0.649205
Si Si4 0.189248 0.363405 0.917689
Si Si5 0.103980 0.821638 0.066584
O O1 0.177505 0.195243 0.925863
O O2 0.298119 0.987605 0.779176
O O3 0.171131 0.933209 0.973123
O O4 0.000000 0.000000 0.000000
O O5 0.343736 0.412387 0.848142
O O6 0.490588 0.599224 0.816564
O O7 0.812688 0.414632 0.651883
O O8 0.038393 0.560669 0.548793
O O9 0.998977 0.296532 0.604744
O O10 0.250000 0.750000 0.000000
#
# Coordination Sequence:
#
# PCOD9306656 Si02
#       5
#     8   4   8   8   8
#     4  12  27  45  77 104 142 191 243 289 359 429
#     4  12  26  46  74 108 152 178 244 308 358 414
#     4  11  26  47  73 106 145 190 244 288 356 441
#     4  11  27  46  74 107 147 189 237 302 361 422
#     4  12  25  47  74 105 142 194 234 294 357 426
#
# _framework density 20.227691
#
# number of rings (size 3 to 8) (size 9 to 14) (size 15 to 20)
#    0.000    0.444    4.444    2.667    6.222    2.667 
#    0.000    0.000    0.000    0.000    0.000    0.000 
#    0.000    0.000    0.000    0.000    0.000    0.000 
#
# Total GULP energy -100792.647843 kJ/mol
# GULP energy per Si atom -5599.591547 kJ/mol
# Density = 2.018165 g / cm^3
# Si number density = 20.227691 Si / 1000 Ang^3
#
#
#
# Elastic Constant Matrix: (Units=GPa)
#
#
# Indices 1 2 3 4 5 6 
#
# 1 90.5063 36.3821 29.2287 0.0000 2.6380 0.0000
# 2 36.3821 162.5439 73.2358 0.0003 14.7332 -0.0001
# 3 29.2287 73.2358 125.8925 0.0007 32.4842 -0.0001
# 4 0.0000 0.0003 0.0007 20.8858 -0.0002 14.9637
# 5 2.6380 14.7332 32.4842 -0.0002 42.4151 0.0000
# 6 0.0000 -0.0001 -0.0001 14.9637 0.0000 35.0241
#
#
#
# Elastic Compliance Matrix: (Units=1/GPa)
#
#
# Indices 1 2 3 4 5 6 
#
# 1 0.012490 -0.001964 -0.002160 0.000000 0.001559 0.000000
# 2 -0.001964 0.008682 -0.004796 0.000000 0.000779 0.000000
# 3 -0.002160 -0.004796 0.013423 -0.000001 -0.008480 0.000000
# 4 0.000000 0.000000 -0.000001 0.069000 0.000001 -0.029480
# 5 0.001559 0.000779 -0.008480 0.000001 0.029703 0.000000
# 6 0.000000 0.000000 0.000000 -0.029480 0.000000 0.041147
#
#
# Mechanical properties :
#
#
# Convention : Reuss Voigt Hill
#
# Bulk Modulus (GPa) = 59.67986 72.95954 66.31970
# Shear Modulus (GPa) = 25.26927 35.67142 30.47035
#
# Velocity S-wave (km/s) = 3.53830 4.20395 3.88541
# Velocity P-wave (km/s) = 6.80153 7.72734 7.27917
#
# Compressibility (1/GPa) = 0.01675607
#
# Stress axis : x y z
#
# Youngs Moduli (GPa) = 80.06093 115.18269 74.50157
#
# Poissons Ratio (x) = 0.22621 0.16091
# Poissons Ratio (y) = 0.15724 0.35728
# Poissons Ratio (z) = 0.17292 0.55237
#
# Static dielectric constant tensor:
#      x y z
#    x 1.683920 0.000000 -0.009990 
#    y 0.000000 1.675930 0.000000 
#    z -0.009990 0.000000 1.667410 
# 
# From -- ./inp_files/102521.got.cif
#   From: 2010.05.17/outbox.cif.g08.bks.cpg/sg15_52_cif.got.tgz:102521.got - 2010.06.03 18:47:42.
