data_PCOD9306807
_publ_section_title
;
Structure prediction by ZEFSAII (Michael W. Deem and Ramdas Pophale) SiO2 
 PCOD9306807
Probable space group: C 2/C
;
_chemical_formula_sum "Si O2"
_cell_formula_units_Z 44
_cell_length_a 4.763779
_cell_length_b 23.003442
_cell_length_c 15.373514
_cell_angle_alpha 90.000000
_cell_angle_beta 96.557570
_cell_angle_gamma 90.000000
_cell_volume 1673.658772
_symmetry_space_group_name_H-M "C 2/C"
_symmetry_group_IT_number 15
_symmetry_cell_setting 'monoclinic'
loop_
_space_group_symop_operation_xyz
x,y,z
-x,y,1/2-z
-x,-y,-z
x,-y,1/2+z
1/2+x,1/2+y,z
1/2-x,1/2+y,1/2-z
1/2-x,1/2-y,-z
1/2+x,1/2-y,1/2+z
loop_
_atom_site_type_symbol
_atom_site_label
_atom_site_fract_x
_atom_site_fract_y
_atom_site_fract_z
Si Si1 0.564003 0.789510 0.662024
Si Si2 0.289458 0.934464 0.502997
Si Si3 0.290341 0.641637 0.014402
Si Si4 0.500000 0.895630 0.250000
Si Si5 0.459874 0.790612 0.359907
Si Si6 0.085908 0.008936 0.656940
O O1 0.500000 0.820278 0.750000
O O2 0.721827 0.833529 0.605652
O O3 0.792596 0.739357 0.688287
O O4 0.282533 0.755005 0.623122
O O5 0.613534 0.918075 0.500639
O O6 0.109747 0.874646 0.505128
O O7 0.166688 0.967145 0.413907
O O8 0.240176 0.965901 0.594198
O O9 0.149688 0.688674 0.947408
O O10 0.357914 0.851041 0.313429
O O11 0.720611 0.936556 0.307061
O O12 0.000000 0.983972 0.750000
#
# Coordination Sequence:
#
# PCOD9306807 Si02
#       6
#     8   8   8   4   8   8
#     4  12  25  43  67 103 140 179 233 283 338 420
#     4  11  27  47  71 103 144 180 237 284 351 420
#     4  12  25  46  70  98 142 190 220 284 355 415
#     4  12  24  42  76  98 140 174 238 286 354 386
#     4  12  24  43  69 102 136 180 234 288 341 405
#     4  11  27  45  74 105 136 184 236 297 343 415
#
# _framework density 26.289705999999999
#
# number of rings (size 3 to 8) (size 9 to 14) (size 15 to 20)
#    0.000    0.364    3.636    4.364    5.091    2.909 
#    0.000    0.000    0.000    0.000    0.000    0.000 
#    0.000    0.000    0.000    0.000    0.000    0.000 
#
# Total GULP energy -123250.670856 kJ/mol
# GULP energy per Si atom -5602.303221 kJ/mol
# Density = 2.622987 g / cm^3
# Si number density = 26.289706 Si / 1000 Ang^3
#
#
#
# Elastic Constant Matrix: (Units=GPa)
#
#
# Indices 1 2 3 4 5 6 
#
# 1 93.6523 19.2765 3.2724 0.0000 0.1931 0.0000
# 2 19.2765 43.1031 19.0338 0.0000 16.2046 0.0000
# 3 3.2724 19.0338 144.9415 0.0000 -12.3268 0.0000
# 4 0.0000 0.0000 0.0000 34.4323 0.0000 -14.3500
# 5 0.1931 16.2046 -12.3268 0.0000 32.7151 0.0000
# 6 0.0000 0.0000 0.0000 -14.3500 0.0000 46.0726
#
#
#
# Elastic Compliance Matrix: (Units=1/GPa)
#
#
# Indices 1 2 3 4 5 6 
#
# 1 0.012154 -0.007387 0.001034 0.000000 0.003977 0.000000
# 2 -0.007387 0.037200 -0.006490 0.000000 -0.020828 0.000000
# 3 0.001034 -0.006490 0.008266 0.000000 0.006323 0.000000
# 4 0.000000 0.000000 0.000000 0.033375 0.000000 0.010395
# 5 0.003977 -0.020828 0.006323 0.000000 0.043242 0.000000
# 6 0.000000 0.000000 0.000000 0.010395 0.000000 0.024943
#
#
# Mechanical properties :
#
#
# Convention : Reuss Voigt Hill
#
# Bulk Modulus (GPa) = 31.31465 40.54024 35.92744
# Shear Modulus (GPa) = 25.57420 38.65162 32.11291
#
# Velocity S-wave (km/s) = 3.12233 3.83850 3.49879
# Velocity P-wave (km/s) = 4.99358 5.92449 5.47884
#
# Compressibility (1/GPa) = 0.03193394
#
# Stress axis : x y z
#
# Youngs Moduli (GPa) = 82.27770 26.88191 120.97809
#
# Poissons Ratio (x) = 0.19858 -0.12508
# Poissons Ratio (y) = 0.60780 0.78510
# Poissons Ratio (z) = -0.08507 0.17445
#
# Static dielectric constant tensor:
#      x y z
#    x 2.011730 0.000000 0.025930 
#    y 0.000000 2.080000 0.000000 
#    z 0.025930 0.000000 2.192670 
# 
# From -- ./inp_files/129449.got.cif
#   From: 2010.05.17/outbox.cif.g08.bks.cpg/sg15_65_cif.got.tgz:129449.got - 2010.06.03 18:47:42.
