data_PCOD9306566
_publ_section_title
;
Structure prediction by ZEFSAII (Michael W. Deem and Ramdas Pophale) SiO2 
 PCOD9306566
Probable space group: C 2/C
;
_chemical_formula_sum "Si O2"
_cell_formula_units_Z 44
_cell_length_a 19.321306
_cell_length_b 6.706206
_cell_length_c 15.856582
_cell_angle_alpha 90.000000
_cell_angle_beta 73.853579
_cell_angle_gamma 90.000000
_cell_volume 1973.534864
_symmetry_space_group_name_H-M "C 2/C"
_symmetry_group_IT_number 15
_symmetry_cell_setting 'monoclinic'
loop_
_space_group_symop_operation_xyz
x,y,z
-x,y,1/2-z
-x,-y,-z
x,-y,1/2+z
1/2+x,1/2+y,z
1/2-x,1/2+y,1/2-z
1/2-x,1/2-y,-z
1/2+x,1/2-y,1/2+z
loop_
_atom_site_type_symbol
_atom_site_label
_atom_site_fract_x
_atom_site_fract_y
_atom_site_fract_z
Si Si1 0.109082 0.474997 0.470147
Si Si2 0.762484 0.740377 0.134150
Si Si3 0.500000 0.464796 0.750000
Si Si4 0.501085 0.309818 0.937351
Si Si5 0.800597 0.623999 0.421758
Si Si6 0.158872 0.084767 0.736489
O O1 0.184691 0.568004 0.416693
O O2 0.077039 0.307838 0.419698
O O3 0.122837 0.381471 0.557202
O O4 0.055361 0.657385 0.502142
O O5 0.813037 0.863748 0.180688
O O6 0.694777 0.624700 0.197413
O O7 0.731125 0.904272 0.081410
O O8 0.484129 0.351787 0.844686
O O9 0.573353 0.579105 0.750493
O O10 0.500000 0.500000 0.000000
O O11 0.750000 0.750000 0.500000
O O12 0.809317 0.738764 0.331806
#
# Coordination Sequence:
#
# PCOD9306566 Si02
#       6
#     8   8   4   8   8   8
#     4  11  26  44  74 108 143 198 249 312 376 458
#     4  12  26  46  74 107 146 197 257 310 377 450
#     4  12  28  44  78 106 150 200 242 308 384 462
#     4  11  26  49  73 106 155 197 250 311 387 453
#     4  12  26  43  73 106 143 188 250 310 378 440
#     4  12  27  47  72 109 149 197 248 315 375 458
#
# _framework density 22.295017999999999
#
# number of rings (size 3 to 8) (size 9 to 14) (size 15 to 20)
#    0.000    0.364    3.636    3.818   10.182    2.909 
#    0.000    4.545    0.000    0.000    0.000    0.000 
#    0.000    0.000    0.000    0.000    0.000    0.000 
#
# Total GULP energy -122981.797720 kJ/mol
# GULP energy per Si atom -5590.081715 kJ/mol
# Density = 2.224427 g / cm^3
# Si number density = 22.295018 Si / 1000 Ang^3
#
#
#
# Elastic Constant Matrix: (Units=GPa)
#
#
# Indices 1 2 3 4 5 6 
#
# 1 118.0172 27.3336 11.1375 0.0000 8.0850 0.0000
# 2 27.3336 91.3895 12.3556 0.0000 0.9123 0.0000
# 3 11.1375 12.3556 51.8955 0.0000 11.6947 0.0000
# 4 0.0000 0.0000 0.0000 33.2570 0.0000 15.8673
# 5 8.0850 0.9123 11.6947 0.0000 44.9212 0.0000
# 6 0.0000 0.0000 0.0000 15.8673 0.0000 43.8456
#
#
#
# Elastic Compliance Matrix: (Units=1/GPa)
#
#
# Indices 1 2 3 4 5 6 
#
# 1 0.009271 -0.002616 -0.001065 0.000000 -0.001338 0.000000
# 2 -0.002616 0.012055 -0.002507 0.000000 0.000879 0.000000
# 3 -0.001065 -0.002507 0.021289 0.000000 -0.005300 0.000000
# 4 0.000000 0.000000 0.000000 0.036344 0.000000 -0.013153
# 5 -0.001338 0.000879 -0.005300 0.000000 0.023864 0.000000
# 6 0.000000 0.000000 0.000000 -0.013153 0.000000 0.027567
#
#
# Mechanical properties :
#
#
# Convention : Reuss Voigt Hill
#
# Bulk Modulus (GPa) = 33.06900 40.32840 36.69870
# Shear Modulus (GPa) = 32.71275 38.43647 35.57461
#
# Velocity S-wave (km/s) = 3.83465 4.15660 3.99887
# Velocity P-wave (km/s) = 5.87118 6.41594 6.14959
#
# Compressibility (1/GPa) = 0.03023980
#
# Stress axis : x y z
#
# Youngs Moduli (GPa) = 107.85924 82.95606 46.97210
#
# Poissons Ratio (x) = 0.21698 0.05005
# Poissons Ratio (y) = 0.28211 0.11774
# Poissons Ratio (z) = 0.11492 0.20794
#
# Static dielectric constant tensor:
#      x y z
#    x 1.942580 0.000000 -0.041930 
#    y 0.000000 1.844890 0.000000 
#    z -0.041930 0.000000 1.832340 
# 
# From -- ./inp_files/212821.got.cif
#   From: 2010.05.17/outbox.cif.g08.bks.cpg/sg15_107_cif.got.tgz:212821.got - 2010.06.03 18:47:42.
