data_PCOD9306116
_publ_section_title
;
Structure prediction by ZEFSAII (Michael W. Deem and Ramdas Pophale) SiO2 
 PCOD9306116
Probable space group: C 2/C
;
_chemical_formula_sum "Si O2"
_cell_formula_units_Z 40
_cell_length_a 15.881418
_cell_length_b 9.797011
_cell_length_c 20.104771
_cell_angle_alpha 90.000000
_cell_angle_beta 24.943681
_cell_angle_gamma 90.000000
_cell_volume 1319.209032
_symmetry_space_group_name_H-M "C 2/C"
_symmetry_group_IT_number 15
_symmetry_cell_setting 'monoclinic'
loop_
_space_group_symop_operation_xyz
x,y,z
-x,y,1/2-z
-x,-y,-z
x,-y,1/2+z
1/2+x,1/2+y,z
1/2-x,1/2+y,1/2-z
1/2-x,1/2-y,-z
1/2+x,1/2-y,1/2+z
loop_
_atom_site_type_symbol
_atom_site_label
_atom_site_fract_x
_atom_site_fract_y
_atom_site_fract_z
Si Si1 0.214396 0.606945 0.589414
Si Si2 0.743973 0.992144 0.788294
Si Si3 0.388460 0.185114 0.269496
Si Si4 0.330194 0.985907 0.017639
Si Si5 0.440358 0.703149 0.550350
O O1 0.175329 0.461043 0.653188
O O2 0.245351 0.576712 0.489448
O O3 0.377211 0.674939 0.519446
O O4 0.000000 0.679971 0.750000
O O5 0.887023 0.072270 0.635200
O O6 0.695917 0.830409 0.828249
O O7 0.807452 0.025528 0.818733
O O8 0.530229 0.043169 0.911400
O O9 0.500000 0.261391 0.250000
O O10 0.176816 0.228850 0.390314
O O11 0.431048 0.851985 0.910533
#
# Coordination Sequence:
#
# PCOD9306116 Si02
#       5
#     8   8   8   8   8
#     4   9  18  42  72 106 153 208 261 333 408 484
#     4  11  25  44  77 119 161 214 271 344 405 511
#     4   9  20  45  76 103 153 214 267 331 407 488
#     4   9  21  46  71 105 163 200 277 332 405 487
#     4  12  24  46  82 115 162 220 271 333 430 486
#
# _framework density 30.321197999999999
#
# number of rings (size 3 to 8) (size 9 to 14) (size 15 to 20)
#    0.000    2.400    4.000    0.600    0.000    4.000 
#    0.000   12.000   13.200    2.400    0.000    1.400 
#    0.000    0.000    0.000    0.000    0.000    0.000 
#
# Total GULP energy -111875.782614 kJ/mol
# GULP energy per Si atom -5593.789131 kJ/mol
# Density = 3.025219 g / cm^3
# Si number density = 30.321198 Si / 1000 Ang^3
#
#
#
# Elastic Constant Matrix: (Units=GPa)
#
#
# Indices 1 2 3 4 5 6 
#
# 1 343.0384 93.8390 123.6043 -0.0014 18.9129 0.0001
# 2 93.8390 144.7296 48.6826 0.0042 -13.2464 0.0006
# 3 123.6043 48.6826 162.4447 0.0150 -20.8944 0.0021
# 4 -0.0014 0.0042 0.0150 40.9668 0.0017 -10.6026
# 5 18.9129 -13.2464 -20.8944 0.0017 78.1538 -0.0003
# 6 0.0001 0.0006 0.0021 -10.6026 -0.0003 64.8600
#
#
#
# Elastic Compliance Matrix: (Units=1/GPa)
#
#
# Indices 1 2 3 4 5 6 
#
# 1 0.004875 -0.002260 -0.003349 0.000002 -0.002458 0.000000
# 2 -0.002260 0.008770 -0.000670 -0.000001 0.001854 0.000000
# 3 -0.003349 -0.000670 0.009315 -0.000004 0.003187 -0.000001
# 4 0.000002 -0.000001 -0.000004 0.025488 -0.000002 0.004167
# 5 -0.002458 0.001854 0.003187 -0.000002 0.014556 0.000000
# 6 0.000000 0.000000 -0.000001 0.004167 0.000000 0.016099
#
#
# Mechanical properties :
#
#
# Convention : Reuss Voigt Hill
#
# Bulk Modulus (GPa) = 96.13015 131.38495 113.75755
# Shear Modulus (GPa) = 52.56057 62.40190 57.48124
#
# Velocity S-wave (km/s) = 4.16800 4.54147 4.35874
# Velocity P-wave (km/s) = 7.41186 8.42170 7.93287
#
# Compressibility (1/GPa) = 0.01040256
#
# Stress axis : x y z
#
# Youngs Moduli (GPa) = 205.11224 114.02892 107.35651
#
# Poissons Ratio (x) = 0.25767 0.35950
# Poissons Ratio (y) = 0.46348 0.07196
# Poissons Ratio (z) = 0.68685 0.07644
#
# Static dielectric constant tensor:
#      x y z
#    x 2.398110 0.000000 0.155180 
#    y 0.000000 2.515100 0.000000 
#    z 0.155180 0.000000 2.535510 
# 
# From -- ./inp_files/237356.got.cif
#   From: 2010.05.17/outbox.cif.g08.bks.cpg/sg15_119_cif.got.tgz:237356.got - 2010.06.03 18:47:42.
