data_PCOD9306688
_publ_section_title
;
Structure prediction by ZEFSAII (Michael W. Deem and Ramdas Pophale) SiO2 
 PCOD9306688
Probable space group: C 2/C
;
_chemical_formula_sum "Si O2"
_cell_formula_units_Z 36
_cell_length_a 13.355712
_cell_length_b 6.089049
_cell_length_c 28.279977
_cell_angle_alpha 90.000000
_cell_angle_beta 39.516181
_cell_angle_gamma 90.000000
_cell_volume 1463.372317
_symmetry_space_group_name_H-M "C 2/C"
_symmetry_group_IT_number 15
_symmetry_cell_setting 'monoclinic'
loop_
_space_group_symop_operation_xyz
x,y,z
-x,y,1/2-z
-x,-y,-z
x,-y,1/2+z
1/2+x,1/2+y,z
1/2-x,1/2+y,1/2-z
1/2-x,1/2-y,-z
1/2+x,1/2-y,1/2+z
loop_
_atom_site_type_symbol
_atom_site_label
_atom_site_fract_x
_atom_site_fract_y
_atom_site_fract_z
Si Si1 0.865715 0.549902 0.942874
Si Si2 0.056251 0.849822 0.024954
Si Si3 0.000000 0.851074 0.250000
Si Si4 0.261604 0.532320 0.182022
Si Si5 0.080391 0.806273 0.790962
O O1 0.948565 0.410985 0.955850
O O2 0.982169 0.649296 0.861290
O O3 0.750000 0.750000 0.000000
O O4 0.741404 0.392024 0.962221
O O5 0.938255 0.967834 0.104705
O O6 0.000000 0.000000 0.000000
O O7 0.161444 0.713361 0.191918
O O8 0.990844 0.991128 0.301235
O O9 0.155647 0.317933 0.219214
O O10 0.273921 0.608296 0.231449
#
# Coordination Sequence:
#
# PCOD9306688 Si02
#       5
#     8   8   4   8   8
#     4  11  26  48  73 108 151 199 254 325 388 469
#     4  11  28  45  75 109 151 203 259 316 396 475
#     4  12  30  44  78 108 148 204 254 322 384 472
#     4  12  26  48  73 108 152 198 254 319 386 466
#     4  12  26  48  74 108 150 196 259 315 393 458
#
# _framework density 24.600712000000001
#
# number of rings (size 3 to 8) (size 9 to 14) (size 15 to 20)
#    0.000    0.444    4.444    2.000    9.333    0.889 
#    0.000    0.000    0.000    0.000    0.000    0.000 
#    0.000    0.000    0.000    0.000    0.000    0.000 
#
# Total GULP energy -100303.894750 kJ/mol
# GULP energy per Si atom -5572.438597 kJ/mol
# Density = 2.454472 g / cm^3
# Si number density = 24.600712 Si / 1000 Ang^3
#
#
#
# Elastic Constant Matrix: (Units=GPa)
#
#
# Indices 1 2 3 4 5 6 
#
# 1 133.3510 58.9918 10.6325 -0.0045 -5.8566 -0.0120
# 2 58.9918 121.4885 37.6588 0.0127 1.4397 0.0782
# 3 10.6325 37.6588 97.1323 -0.0228 -15.7504 0.0026
# 4 -0.0045 0.0127 -0.0228 38.8558 -0.0126 -1.5794
# 5 -5.8566 1.4397 -15.7504 -0.0126 31.6648 0.0003
# 6 -0.0120 0.0782 0.0026 -1.5794 0.0003 69.9715
#
#
#
# Elastic Compliance Matrix: (Units=1/GPa)
#
#
# Indices 1 2 3 4 5 6 
#
# 1 0.009825 -0.005238 0.001402 0.000005 0.002753 0.000008
# 2 -0.005238 0.012322 -0.004843 -0.000009 -0.003938 -0.000015
# 3 0.001402 -0.004843 0.013158 0.000012 0.007025 0.000005
# 4 0.000005 -0.000009 0.000012 0.025760 0.000018 0.000581
# 5 0.002753 -0.003938 0.007025 0.000018 0.035763 0.000005
# 6 0.000008 -0.000015 0.000005 0.000581 0.000005 0.014305
#
#
# Mechanical properties :
#
#
# Convention : Reuss Voigt Hill
#
# Bulk Modulus (GPa) = 55.71624 62.94868 59.33246
# Shear Modulus (GPa) = 37.18175 44.41102 40.79638
#
# Velocity S-wave (km/s) = 3.89190 4.25346 4.07669
# Velocity P-wave (km/s) = 6.54930 7.05452 6.80660
#
# Compressibility (1/GPa) = 0.01794809
#
# Stress axis : x y z
#
# Youngs Moduli (GPa) = 101.77763 81.15240 75.99713
#
# Poissons Ratio (x) = 0.42508 -0.10652
# Poissons Ratio (y) = 0.53312 0.36803
# Poissons Ratio (z) = -0.14266 0.39299
#
# Static dielectric constant tensor:
#      x y z
#    x 2.014590 -0.000040 0.038620 
#    y -0.000040 2.184710 -0.000040 
#    z 0.038620 -0.000040 1.964430 
# 
# From -- ./inp_files/312228.got.cif
#   From: 2010.05.17/outbox.cif.g08.bks.cpg/sg15_157_cif.got.tgz:312228.got - 2010.06.03 18:47:42.
