data_PCOD9306181
_publ_section_title
;
Structure prediction by ZEFSAII (Michael W. Deem and Ramdas Pophale) SiO2 
 PCOD9306181
Probable space group: C 2/C
;
_chemical_formula_sum "Si O2"
_cell_formula_units_Z 36
_cell_length_a 15.915705
_cell_length_b 10.068236
_cell_length_c 13.125836
_cell_angle_alpha 90.000000
_cell_angle_beta 57.870728
_cell_angle_gamma 90.000000
_cell_volume 1781.200872
_symmetry_space_group_name_H-M "C 2/C"
_symmetry_group_IT_number 15
_symmetry_cell_setting 'monoclinic'
loop_
_space_group_symop_operation_xyz
x,y,z
-x,y,1/2-z
-x,-y,-z
x,-y,1/2+z
1/2+x,1/2+y,z
1/2-x,1/2+y,1/2-z
1/2-x,1/2-y,-z
1/2+x,1/2-y,1/2+z
loop_
_atom_site_type_symbol
_atom_site_label
_atom_site_fract_x
_atom_site_fract_y
_atom_site_fract_z
Si Si1 0.000000 0.849571 0.750000
Si Si2 0.130954 0.583210 0.350122
Si Si3 0.731338 0.346424 0.916447
Si Si4 0.279989 0.397489 0.942341
Si Si5 0.553861 0.797133 0.418158
O O1 0.107984 0.916251 0.672159
O O2 0.004858 0.768271 0.851585
O O3 0.182246 0.656578 0.223267
O O4 0.204865 0.576903 0.398381
O O5 0.106975 0.429973 0.343139
O O6 0.030541 0.655709 0.449216
O O7 0.631568 0.299211 0.923728
O O8 0.750000 0.250000 0.000000
O O9 0.729410 0.495287 0.961917
O O10 0.250000 0.250000 0.000000
#
# Coordination Sequence:
#
# PCOD9306181 Si02
#       5
#     4   8   8   8   8
#     4  12  24  44  72 102 142 182 234 284 362 416
#     4  11  25  45  73 102 145 180 240 290 353 419
#     4  12  27  46  73 105 143 185 237 292 351 420
#     4  12  25  46  71 104 141 188 229 294 356 419
#     4  11  25  45  73 106 135 193 235 290 349 424
#
# _framework density 20.211085000000001
#
# number of rings (size 3 to 8) (size 9 to 14) (size 15 to 20)
#    0.000    0.444    6.667    1.333    0.000    3.556 
#    0.000    0.000    0.000    0.000    0.000    0.000 
#    0.000    0.000    0.000    0.000    0.000    0.000 
#
# Total GULP energy -100597.813193 kJ/mol
# GULP energy per Si atom -5588.767400 kJ/mol
# Density = 2.016508 g / cm^3
# Si number density = 20.211085 Si / 1000 Ang^3
#
#
#
# Elastic Constant Matrix: (Units=GPa)
#
#
# Indices 1 2 3 4 5 6 
#
# 1 80.0232 26.4857 15.9623 0.0000 -3.7310 0.0000
# 2 26.4857 75.8710 29.5258 0.0000 1.7023 0.0000
# 3 15.9623 29.5258 80.0446 0.0000 -12.1434 0.0000
# 4 0.0000 0.0000 0.0000 -2.3894 0.0000 -25.7518
# 5 -3.7310 1.7023 -12.1434 0.0000 39.8705 0.0000
# 6 0.0000 0.0000 0.0000 -25.7518 0.0000 -14.4002
#
#
#
# Elastic Compliance Matrix: (Units=1/GPa)
#
#
# Indices 1 2 3 4 5 6 
#
# 1 0.014281 -0.004645 -0.000945 0.000000 0.001247 0.000000
# 2 -0.004645 0.017142 -0.005844 0.000000 -0.002946 0.000000
# 3 -0.000945 -0.005844 0.015582 0.000000 0.004907 0.000000
# 4 0.000000 0.000000 0.000000 0.022903 0.000000 -0.040957
# 5 0.001247 -0.002946 0.004907 0.000000 0.026818 0.000000
# 6 0.000000 0.000000 0.000000 -0.040957 0.000000 0.003800
#
#
# Mechanical properties :
#
#
# Convention : Reuss Voigt Hill
#
# Bulk Modulus (GPa) = 41.43252 42.20959 41.82105
# Shear Modulus (GPa) = 38.04033 15.54719 26.79376
#
# Velocity S-wave (km/s) = 4.34308 2.77653 3.64496
# Velocity P-wave (km/s) = 6.75975 5.58646 6.20092
#
# Compressibility (1/GPa) = 0.02413563
#
# Stress axis : x y z
#
# Youngs Moduli (GPa) = 70.02549 58.33563 64.17865
#
# Poissons Ratio (x) = 0.27099 0.06066
# Poissons Ratio (y) = 0.32529 0.37505
# Poissons Ratio (z) = 0.06618 0.34090
#
# Static dielectric constant tensor:
#      x y z
#    x 1.680200 0.000000 -0.040350 
#    y 0.000000 1.705960 0.000000 
#    z -0.040350 0.000000 1.715670 
# 
# From -- ./inp_files/94375.got.cif
#   From: 2010.05.17/outbox.cif.g08.bks.cpg/sg15_48_cif.got.tgz:94375.got - 2010.06.03 18:47:42.
