data_PCOD9306567
_publ_section_title
;
Structure prediction by ZEFSAII (Michael W. Deem and Ramdas Pophale) SiO2 
 PCOD9306567
Probable space group: C 2/C
;
_chemical_formula_sum "Si O2"
_cell_formula_units_Z 32
_cell_length_a 19.068734
_cell_length_b 9.488700
_cell_length_c 15.949656
_cell_angle_alpha 90.000000
_cell_angle_beta 27.134711
_cell_angle_gamma 90.000000
_cell_volume 1316.209015
_symmetry_space_group_name_H-M "C 2/C"
_symmetry_group_IT_number 15
_symmetry_cell_setting 'monoclinic'
loop_
_space_group_symop_operation_xyz
x,y,z
-x,y,1/2-z
-x,-y,-z
x,-y,1/2+z
1/2+x,1/2+y,z
1/2-x,1/2+y,1/2-z
1/2-x,1/2-y,-z
1/2+x,1/2-y,1/2+z
loop_
_atom_site_type_symbol
_atom_site_label
_atom_site_fract_x
_atom_site_fract_y
_atom_site_fract_z
Si Si1 0.772751 0.447781 0.785437
Si Si2 0.180929 0.595263 0.072638
Si Si3 0.635539 0.355004 0.669920
Si Si4 0.926164 0.272823 0.085911
O O1 0.785093 0.466419 0.871687
O O2 0.799541 0.601017 0.716958
O O3 0.623503 0.358655 0.918582
O O4 0.916376 0.349034 0.606009
O O5 0.000000 0.597194 0.250000
O O6 0.250000 0.750000 0.000000
O O7 0.266206 0.494816 0.915962
O O8 0.500000 0.389852 0.750000
O O9 0.750000 0.250000 0.500000
O O10 0.571452 0.284392 0.821803
#
# Coordination Sequence:
#
# PCOD9306567 Si02
#       4
#     8   8   8   8
#     4  11  26  47  70 107 141 189 236 296 360 427
#     4  12  27  48  75 106 148 188 241 301 363 432
#     4  12  25  46  74 106 141 192 244 297 357 430
#     4  11  26  44  75 101 145 185 239 295 357 429
#
# _framework density 24.312246999999999
#
# number of rings (size 3 to 8) (size 9 to 14) (size 15 to 20)
#    0.000    0.500    2.500    4.500   10.500    1.000 
#    0.000    0.000    0.000    0.000    0.000    0.000 
#    0.000    0.000    0.000    0.000    0.000    0.000 
#
# Total GULP energy -89758.781618 kJ/mol
# GULP energy per Si atom -5609.923851 kJ/mol
# Density = 2.425691 g / cm^3
# Si number density = 24.312247 Si / 1000 Ang^3
#
#
#
# Elastic Constant Matrix: (Units=GPa)
#
#
# Indices 1 2 3 4 5 6 
#
# 1 94.6378 12.6887 15.5450 0.0000 -2.5442 0.0000
# 2 12.6887 126.4962 26.1525 0.0000 -15.0467 0.0000
# 3 15.5450 26.1525 91.9567 0.0000 -5.2627 0.0000
# 4 0.0000 0.0000 0.0000 65.9638 0.0000 -48.9064
# 5 -2.5442 -15.0467 -5.2627 0.0000 43.9302 0.0000
# 6 0.0000 0.0000 0.0000 -48.9064 0.0000 234.0010
#
#
#
# Elastic Compliance Matrix: (Units=1/GPa)
#
#
# Indices 1 2 3 4 5 6 
#
# 1 0.010938 -0.000738 -0.001628 0.000000 0.000185 0.000000
# 2 -0.000738 0.008757 -0.002212 0.000000 0.002692 0.000000
# 3 -0.001628 -0.002212 0.011811 0.000000 0.000563 0.000000
# 4 0.000000 0.000000 0.000000 0.017940 0.000000 0.003749
# 5 0.000185 0.002692 0.000563 0.000000 0.023763 0.000000
# 6 0.000000 0.000000 0.000000 0.003749 0.000000 0.005057
#
#
# Mechanical properties :
#
#
# Convention : Reuss Voigt Hill
#
# Bulk Modulus (GPa) = 44.74436 46.87369 45.80902
# Shear Modulus (GPa) = 52.70202 86.02597 69.36399
#
# Velocity S-wave (km/s) = 4.66092 5.95488 5.34719
# Velocity P-wave (km/s) = 6.88546 8.16104 7.55024
#
# Compressibility (1/GPa) = 0.02234919
#
# Stress axis : x y z
#
# Youngs Moduli (GPa) = 91.42372 114.19623 84.66564
#
# Poissons Ratio (x) = 0.08433 0.13787
# Poissons Ratio (y) = 0.06751 0.18724
# Poissons Ratio (z) = 0.14888 0.25255
#
# Static dielectric constant tensor:
#      x y z
#    x 1.896310 0.000000 0.001500 
#    y 0.000000 1.894860 0.000000 
#    z 0.001500 0.000000 1.901980 
# 
# From -- ./inp_files/213634.got.cif
#   From: 2010.05.17/outbox.cif.g08.bks.cpg/sg15_107_cif.got.tgz:213634.got - 2010.06.03 18:47:42.
