data_PCOD9306158
_publ_section_title
;
Structure prediction by ZEFSAII (Michael W. Deem and Ramdas Pophale) SiO2 
 PCOD9306158
Probable space group: C 2/C
;
_chemical_formula_sum "Si O2"
_cell_formula_units_Z 36
_cell_length_a 21.320718
_cell_length_b 10.184479
_cell_length_c 21.233519
_cell_angle_alpha 90.000000
_cell_angle_beta 19.372524
_cell_angle_gamma 90.000000
_cell_volume 1529.394689
_symmetry_space_group_name_H-M "C 2/C"
_symmetry_group_IT_number 15
_symmetry_cell_setting 'monoclinic'
loop_
_space_group_symop_operation_xyz
x,y,z
-x,y,1/2-z
-x,-y,-z
x,-y,1/2+z
1/2+x,1/2+y,z
1/2-x,1/2+y,1/2-z
1/2-x,1/2-y,-z
1/2+x,1/2-y,1/2+z
loop_
_atom_site_type_symbol
_atom_site_label
_atom_site_fract_x
_atom_site_fract_y
_atom_site_fract_z
Si Si1 0.107279 0.606006 0.012973
Si Si2 0.500000 0.927394 0.750000
Si Si3 0.583687 0.418228 0.826789
Si Si4 0.662984 0.377148 0.550077
Si Si5 0.296748 0.635024 0.151851
O O1 0.074419 0.644057 0.117117
O O2 0.908532 0.575713 0.167524
O O3 0.246594 0.483227 0.873515
O O4 0.193637 0.728751 0.894195
O O5 0.670102 0.018502 0.614589
O O6 0.443223 0.341217 0.913873
O O7 0.664958 0.344782 0.810484
O O8 0.456715 0.538423 0.973618
O O9 0.500000 0.432639 0.750000
O O10 0.750000 0.250000 0.500000
#
# Coordination Sequence:
#
# PCOD9306158 Si02
#       5
#     8   4   8   8   8
#     4  12  24  47  73 108 145 193 246 299 369 431
#     4  12  26  44  74 106 148 188 244 302 358 438
#     4  11  25  47  71 102 151 188 244 307 358 437
#     4  12  25  46  72 107 142 190 240 297 372 432
#     4  11  25  45  71 107 142 196 246 296 368 429
#
# _framework density 23.538723999999998
#
# number of rings (size 3 to 8) (size 9 to 14) (size 15 to 20)
#    0.000    0.444    7.778    0.667    0.000    2.667 
#    6.000    0.000    0.000    0.000    0.000    0.000 
#    0.000    0.000    0.000    0.000    0.000    0.000 
#
# Total GULP energy -100832.969055 kJ/mol
# GULP energy per Si atom -5601.831614 kJ/mol
# Density = 2.348515 g / cm^3
# Si number density = 23.538724 Si / 1000 Ang^3
#
#
#
# Elastic Constant Matrix: (Units=GPa)
#
#
# Indices 1 2 3 4 5 6 
#
# 1 231.7555 39.1278 44.1037 0.0003 -10.9344 0.0000
# 2 39.1278 52.0851 11.9945 0.0017 0.9116 -0.0001
# 3 44.1037 11.9945 110.7209 -0.0012 -17.5606 0.0005
# 4 0.0003 0.0017 -0.0012 23.6607 0.0004 -2.7716
# 5 -10.9344 0.9116 -17.5606 0.0004 42.0980 -0.0001
# 6 0.0000 -0.0001 0.0005 -2.7716 -0.0001 31.3947
#
#
#
# Elastic Compliance Matrix: (Units=1/GPa)
#
#
# Indices 1 2 3 4 5 6 
#
# 1 0.005261 -0.003602 -0.001581 0.000000 0.000785 0.000000
# 2 -0.003602 0.022235 -0.001284 -0.000002 -0.001952 0.000000
# 3 -0.001581 -0.001284 0.010430 0.000001 0.003968 0.000000
# 4 0.000000 -0.000002 0.000001 0.042706 0.000000 0.003770
# 5 0.000785 -0.001952 0.003968 0.000000 0.025655 0.000000
# 6 0.000000 0.000000 0.000000 0.003770 0.000000 0.032185
#
#
# Mechanical properties :
#
#
# Convention : Reuss Voigt Hill
#
# Bulk Modulus (GPa) = 40.01142 65.00150 52.50646
# Shear Modulus (GPa) = 31.30167 39.38638 35.34402
#
# Velocity S-wave (km/s) = 3.65059 4.09499 3.87916
# Velocity P-wave (km/s) = 5.89950 7.07342 6.51296
#
# Compressibility (1/GPa) = 0.02499287
#
# Stress axis : x y z
#
# Youngs Moduli (GPa) = 190.08227 44.97427 95.87903
#
# Poissons Ratio (x) = 0.16199 0.15157
# Poissons Ratio (y) = 0.68464 0.12308
# Poissons Ratio (z) = 0.30050 0.05773
#
# Static dielectric constant tensor:
#      x y z
#    x 1.904380 0.000000 0.020410 
#    y 0.000000 1.837250 0.000000 
#    z 0.020410 0.000000 1.915470 
# 
# From -- ./inp_files/252662.got.cif
#   From: 2010.05.17/outbox.cif.g08.bks.cpg/sg15_127_cif.got.tgz:252662.got - 2010.06.03 18:47:42.
