data_PCOD9306679
_publ_section_title
;
Structure prediction by ZEFSAII (Michael W. Deem and Ramdas Pophale) SiO2 
 PCOD9306679
Probable space group: C 2/C
;
_chemical_formula_sum "Si O2"
_cell_formula_units_Z 40
_cell_length_a 18.399228
_cell_length_b 10.532686
_cell_length_c 21.582584
_cell_angle_alpha 90.000000
_cell_angle_beta 158.809128
_cell_angle_gamma 90.000000
_cell_volume 1511.895194
_symmetry_space_group_name_H-M "C 2/C"
_symmetry_group_IT_number 15
_symmetry_cell_setting 'monoclinic'
loop_
_space_group_symop_operation_xyz
x,y,z
-x,y,1/2-z
-x,-y,-z
x,-y,1/2+z
1/2+x,1/2+y,z
1/2-x,1/2+y,1/2-z
1/2-x,1/2-y,-z
1/2+x,1/2-y,1/2+z
loop_
_atom_site_type_symbol
_atom_site_label
_atom_site_fract_x
_atom_site_fract_y
_atom_site_fract_z
Si Si1 0.984396 0.473324 0.806783
Si Si2 0.903546 0.048981 0.803810
Si Si3 0.105912 0.850057 0.035730
Si Si4 0.553407 0.777441 0.971650
Si Si5 0.800044 0.142750 0.113263
O O1 0.801291 0.566226 0.677908
O O2 0.000000 0.419374 0.750000
O O3 0.986929 0.372763 0.865021
O O4 0.186319 0.558083 0.973213
O O5 0.910175 0.216371 0.910515
O O6 0.717230 0.144446 0.641952
O O7 0.088739 0.146658 0.961103
O O8 0.888300 0.956063 0.733484
O O9 0.134232 0.734397 0.010759
O O10 0.079185 0.054348 0.126731
O O11 0.000000 0.213990 0.250000
#
# Coordination Sequence:
#
# PCOD9306679 Si02
#       5
#     8   8   8   8   8
#     4  11  26  50  82 115 160 210 261 323 394 473
#     4  11  26  48  73 114 158 209 257 319 393 468
#     4  12  26  47  78 117 160 203 264 325 392 462
#     4  11  28  48  77 115 160 205 262 322 394 464
#     4  11  26  47  80 115 157 203 263 322 395 470
#
# _framework density 26.456861
#
# number of rings (size 3 to 8) (size 9 to 14) (size 15 to 20)
#    0.000    0.800    0.000    4.800    8.400    4.800 
#    0.000    5.000    0.000    1.200    0.000    0.000 
#    0.000    0.000    0.000    0.000    0.000    0.000 
#
# Total GULP energy -111786.546920 kJ/mol
# GULP energy per Si atom -5589.327346 kJ/mol
# Density = 2.639664 g / cm^3
# Si number density = 26.456861 Si / 1000 Ang^3
#
#
#
# Elastic Constant Matrix: (Units=GPa)
#
#
# Indices 1 2 3 4 5 6 
#
# 1 135.4199 60.9773 80.2477 -0.0035 -14.4401 -0.0026
# 2 60.9773 168.2983 61.7970 0.0045 -10.1082 0.0013
# 3 80.2477 61.7970 86.6605 0.0019 -25.8517 0.0021
# 4 -0.0035 0.0045 0.0019 65.5261 0.0032 -17.8293
# 5 -14.4401 -10.1082 -25.8517 0.0032 48.1058 0.0014
# 6 -0.0026 0.0013 0.0021 -17.8293 0.0014 41.2989
#
#
#
# Elastic Compliance Matrix: (Units=1/GPa)
#
#
# Indices 1 2 3 4 5 6 
#
# 1 0.016992 -0.000249 -0.016734 0.000002 -0.003944 0.000003
# 2 -0.000249 0.008166 -0.006077 0.000000 -0.001625 0.000000
# 3 -0.016734 -0.006077 0.035119 -0.000003 0.012573 -0.000005
# 4 0.000002 0.000000 -0.000003 0.017292 -0.000002 0.007465
# 5 -0.003944 -0.001625 0.012573 -0.000002 0.026019 -0.000003
# 6 0.000003 0.000000 -0.000005 0.007465 -0.000003 0.027437
#
#
# Mechanical properties :
#
#
# Convention : Reuss Voigt Hill
#
# Bulk Modulus (GPa) = 70.63616 88.49140 79.56378
# Shear Modulus (GPa) = 27.49312 43.47662 35.48487
#
# Velocity S-wave (km/s) = 3.22711 4.05816 3.66626
# Velocity P-wave (km/s) = 6.37513 7.44838 6.93255
#
# Compressibility (1/GPa) = 0.01415706
#
# Stress axis : x y z
#
# Youngs Moduli (GPa) = 58.85053 122.46026 28.47463
#
# Poissons Ratio (x) = 0.03049 0.47649
# Poissons Ratio (y) = 0.01465 0.17304
# Poissons Ratio (z) = 0.98480 0.74421
#
# Static dielectric constant tensor:
#      x y z
#    x 2.017320 0.000000 -0.017430 
#    y 0.000000 2.107730 0.000000 
#    z -0.017430 0.000000 2.157020 
# 
# From -- ./inp_files/248708.got.cif
#   From: 2010.05.17/outbox.cif.g08.bks.cpg/sg15_125_cif.got.tgz:248708.got - 2010.06.03 18:47:42.
