data_PCOD9306709
_publ_section_title
;
Structure prediction by ZEFSAII (Michael W. Deem and Ramdas Pophale) SiO2 
 PCOD9306709
Probable space group: C 2/C
;
_chemical_formula_sum "Si O2"
_cell_formula_units_Z 44
_cell_length_a 24.321719
_cell_length_b 8.736897
_cell_length_c 10.299404
_cell_angle_alpha 90.000000
_cell_angle_beta 60.431068
_cell_angle_gamma 90.000000
_cell_volume 1903.550151
_symmetry_space_group_name_H-M "C 2/C"
_symmetry_group_IT_number 15
_symmetry_cell_setting 'monoclinic'
loop_
_space_group_symop_operation_xyz
x,y,z
-x,y,1/2-z
-x,-y,-z
x,-y,1/2+z
1/2+x,1/2+y,z
1/2-x,1/2+y,1/2-z
1/2-x,1/2-y,-z
1/2+x,1/2-y,1/2+z
loop_
_atom_site_type_symbol
_atom_site_label
_atom_site_fract_x
_atom_site_fract_y
_atom_site_fract_z
Si Si1 0.190399 0.341459 0.392773
Si Si2 0.171674 0.857788 0.168061
Si Si3 0.182400 0.196597 0.129698
Si Si4 0.905121 0.404527 0.436132
Si Si5 0.466725 0.666779 0.550243
Si Si6 0.000000 0.645830 0.250000
O O1 0.175527 0.269917 0.551748
O O2 0.266570 0.358928 0.311597
O O3 0.176601 0.227450 0.290231
O O4 0.149419 0.498034 0.422356
O O5 0.105750 0.852306 0.319270
O O6 0.173972 0.022536 0.099006
O O7 0.130509 0.295754 0.119807
O O8 0.250000 0.250000 0.000000
O O9 0.955813 0.296709 0.452193
O O10 0.940930 0.534650 0.315015
O O11 0.500000 0.500000 0.500000
O O12 0.505253 0.750421 0.618333
#
# Coordination Sequence:
#
# PCOD9306709 Si02
#       6
#     8   8   8   8   8   4
#     4  11  26  48  77 108 152 190 246 317 371 454
#     4  11  27  47  74 110 151 194 252 308 381 446
#     4  12  27  44  76 111 146 190 239 308 388 445
#     4  12  27  49  75 109 147 195 251 303 379 452
#     4  12  30  49  77 110 152 199 254 315 372 453
#     4  12  28  52  72 106 148 206 250 302 376 448
#
# _framework density 23.114705000000001
#
# number of rings (size 3 to 8) (size 9 to 14) (size 15 to 20)
#    0.000    0.364    3.636    2.727   12.727    0.000 
#    0.000    0.000    0.000    0.000    0.000    0.000 
#    0.000    0.000    0.000    0.000    0.000    0.000 
#
# Total GULP energy -123022.844699 kJ/mol
# GULP energy per Si atom -5591.947486 kJ/mol
# Density = 2.306210 g / cm^3
# Si number density = 23.114705 Si / 1000 Ang^3
#
#
#
# Elastic Constant Matrix: (Units=GPa)
#
#
# Indices 1 2 3 4 5 6 
#
# 1 82.3702 41.4022 4.3582 0.0000 13.3671 0.0000
# 2 41.4022 126.9967 -0.0042 0.0000 7.9596 0.0000
# 3 4.3582 -0.0042 35.6578 0.0000 -0.2173 0.0000
# 4 0.0000 0.0000 0.0000 37.1803 0.0000 -14.6880
# 5 13.3671 7.9596 -0.2173 0.0000 38.2244 0.0000
# 6 0.0000 0.0000 0.0000 -14.6880 0.0000 45.1207
#
#
#
# Elastic Compliance Matrix: (Units=1/GPa)
#
#
# Indices 1 2 3 4 5 6 
#
# 1 0.015326 -0.004722 -0.001900 0.000000 -0.004387 0.000000
# 2 -0.004722 0.009433 0.000576 0.000000 -0.000310 0.000000
# 3 -0.001900 0.000576 0.028281 0.000000 0.000705 0.000000
# 4 0.000000 0.000000 0.000000 0.030865 0.000000 0.010047
# 5 -0.004387 -0.000310 0.000705 0.000000 0.027764 0.000000
# 6 0.000000 0.000000 0.000000 0.010047 0.000000 0.025433
#
#
# Mechanical properties :
#
#
# Convention : Reuss Voigt Hill
#
# Bulk Modulus (GPa) = 24.42089 37.39299 30.90694
# Shear Modulus (GPa) = 30.70432 37.38966 34.04699
#
# Velocity S-wave (km/s) = 3.64860 4.02627 3.84208
# Velocity P-wave (km/s) = 5.32332 6.15034 5.75171
#
# Compressibility (1/GPa) = 0.04094854
#
# Stress axis : x y z
#
# Youngs Moduli (GPa) = 65.24847 106.01162 35.35941
#
# Poissons Ratio (x) = 0.50054 0.06720
# Poissons Ratio (y) = 0.30807 -0.02038
# Poissons Ratio (z) = 0.12400 -0.06110
#
# Static dielectric constant tensor:
#      x y z
#    x 1.858350 0.000000 -0.019070 
#    y 0.000000 1.849550 0.000000 
#    z -0.019070 0.000000 1.952420 
# 
# From -- ./inp_files/116676.got.cif
#   From: 2010.05.17/outbox.cif.g08.bks.cpg/sg15_59_cif.got.tgz:116676.got - 2010.06.03 18:47:42.
