data_PCOD9306730
_publ_section_title
;
Structure prediction by ZEFSAII (Michael W. Deem and Ramdas Pophale) SiO2 
 PCOD9306730
Probable space group: C 2/C
;
_chemical_formula_sum "Si O2"
_cell_formula_units_Z 48
_cell_length_a 12.984516
_cell_length_b 12.480869
_cell_length_c 23.879796
_cell_angle_alpha 90.000000
_cell_angle_beta 152.766161
_cell_angle_gamma 90.000000
_cell_volume 1770.961738
_symmetry_space_group_name_H-M "C 2/C"
_symmetry_group_IT_number 15
_symmetry_cell_setting 'monoclinic'
loop_
_space_group_symop_operation_xyz
x,y,z
-x,y,1/2-z
-x,-y,-z
x,-y,1/2+z
1/2+x,1/2+y,z
1/2-x,1/2+y,1/2-z
1/2-x,1/2-y,-z
1/2+x,1/2-y,1/2+z
loop_
_atom_site_type_symbol
_atom_site_label
_atom_site_fract_x
_atom_site_fract_y
_atom_site_fract_z
Si Si1 0.932464 0.014883 0.902022
Si Si2 0.512466 0.136393 0.937527
Si Si3 0.347014 0.910851 0.881777
Si Si4 0.669726 0.643954 0.930170
Si Si5 0.907351 0.705132 0.767278
Si Si6 0.821326 0.694071 0.209413
O O1 0.764109 0.917789 0.806200
O O2 0.801173 0.125436 0.833527
O O3 0.126766 0.042657 0.950618
O O4 0.000000 0.000000 0.000000
O O5 0.551355 0.168830 0.891331
O O6 0.413294 0.246576 0.915752
O O7 0.345351 0.033093 0.860494
O O8 0.700250 0.103635 0.074354
O O9 0.192976 0.824301 0.776705
O O10 0.611833 0.883600 0.000938
O O11 0.455234 0.700901 0.797560
O O12 0.750000 0.750000 0.000000
O O13 0.000000 0.692167 0.750000
O O14 0.000000 0.656272 0.250000
#
# Coordination Sequence:
#
# PCOD9306730 Si02
#       6
#     8   8   8   8   8   8
#     4  12  27  45  74 115 152 198 256 327 394 459
#     4  11  26  49  76 107 155 205 261 323 393 477
#     4  11  26  53  74 113 154 206 270 317 399 480
#     4  12  24  45  77 106 150 203 251 319 387 469
#     4  12  28  48  75 114 153 202 263 332 394 463
#     4  12  24  46  75 110 149 200 259 317 390 466
#
# _framework density 27.103916000000002
#
# number of rings (size 3 to 8) (size 9 to 14) (size 15 to 20)
#    0.000    0.333    5.000    2.500    7.000    1.333 
#    6.000    0.000    0.000    0.000    0.000    0.000 
#    0.000    0.000    0.000    0.000    0.000    0.000 
#
# Total GULP energy -133923.371605 kJ/mol
# GULP energy per Si atom -5580.140484 kJ/mol
# Density = 2.704223 g / cm^3
# Si number density = 27.103916 Si / 1000 Ang^3
#
#
#
# Elastic Constant Matrix: (Units=GPa)
#
#
# Indices 1 2 3 4 5 6 
#
# 1 199.5596 51.2713 44.3255 0.0006 -30.1464 0.0006
# 2 51.2713 149.7719 33.6859 -0.0002 -2.2675 0.0004
# 3 44.3255 33.6859 66.3771 -0.0019 -21.0476 0.0002
# 4 0.0006 -0.0002 -0.0019 45.6685 0.0006 0.5336
# 5 -30.1464 -2.2675 -21.0476 0.0006 39.0430 0.0007
# 6 0.0006 0.0004 0.0002 0.5336 0.0007 55.9744
#
#
#
# Elastic Compliance Matrix: (Units=1/GPa)
#
#
# Indices 1 2 3 4 5 6 
#
# 1 0.006509 -0.001644 -0.002351 0.000000 0.003663 0.000000
# 2 -0.001644 0.008079 -0.003927 0.000000 -0.002917 0.000000
# 3 -0.002351 -0.003927 0.021688 0.000001 0.009648 0.000000
# 4 0.000000 0.000000 0.000001 0.021899 0.000000 -0.000209
# 5 0.003663 -0.002917 0.009648 0.000000 0.033473 0.000000
# 6 0.000000 0.000000 0.000000 -0.000209 0.000000 0.017867
#
#
# Mechanical properties :
#
#
# Convention : Reuss Voigt Hill
#
# Bulk Modulus (GPa) = 48.94371 74.91931 61.93151
# Shear Modulus (GPa) = 37.83036 47.23225 42.53130
#
# Velocity S-wave (km/s) = 3.74003 4.17902 3.96560
# Velocity P-wave (km/s) = 6.06197 7.14053 6.62324
#
# Compressibility (1/GPa) = 0.02043163
#
# Stress axis : x y z
#
# Youngs Moduli (GPa) = 153.63580 123.78223 46.10934
#
# Poissons Ratio (x) = 0.20350 0.10839
# Poissons Ratio (y) = 0.25258 0.18107
# Poissons Ratio (z) = 0.36115 0.48610
#
# Static dielectric constant tensor:
#      x y z
#    x 3.382240 -0.000010 1.084710 
#    y -0.000010 2.093730 0.000000 
#    z 1.084710 0.000000 3.072910 
# 
# From -- ./inp_files/296186.got.cif
#   From: 2010.05.17/outbox.cif.g08.bks.cpg/sg15_149_cif.got.tgz:296186.got - 2010.06.03 18:47:42.
