data_PCOD9306682
_publ_section_title
;
Structure prediction by ZEFSAII (Michael W. Deem and Ramdas Pophale) SiO2 
 PCOD9306682
Probable space group: C 2/C
;
_chemical_formula_sum "Si O2"
_cell_formula_units_Z 44
_cell_length_a 6.222456
_cell_length_b 12.654580
_cell_length_c 27.034938
_cell_angle_alpha 90.000000
_cell_angle_beta 92.065892
_cell_angle_gamma 90.000000
_cell_volume 2127.416768
_symmetry_space_group_name_H-M "C 2/C"
_symmetry_group_IT_number 15
_symmetry_cell_setting 'monoclinic'
loop_
_space_group_symop_operation_xyz
x,y,z
-x,y,1/2-z
-x,-y,-z
x,-y,1/2+z
1/2+x,1/2+y,z
1/2-x,1/2+y,1/2-z
1/2-x,1/2-y,-z
1/2+x,1/2-y,1/2+z
loop_
_atom_site_type_symbol
_atom_site_label
_atom_site_fract_x
_atom_site_fract_y
_atom_site_fract_z
Si Si1 0.381636 0.799274 0.700026
Si Si2 0.103542 0.921789 0.199743
Si Si3 0.819708 0.575130 0.525836
Si Si4 0.287287 0.566793 0.382563
Si Si5 0.000000 0.686506 0.750000
Si Si6 0.952606 0.204280 0.469934
O O1 0.500000 0.841367 0.750000
O O2 0.494572 0.689842 0.686501
O O3 0.385275 0.879385 0.655011
O O4 0.146898 0.761170 0.716610
O O5 0.346666 0.887891 0.215513
O O6 0.000000 0.961290 0.250000
O O7 0.070642 0.003615 0.155762
O O8 0.784011 0.516763 0.577128
O O9 0.596097 0.609717 0.496050
O O10 0.000000 0.500000 0.500000
O O11 0.911511 0.690832 0.535955
O O12 0.384818 0.659639 0.416349
O O13 0.750000 0.250000 0.500000
#
# Coordination Sequence:
#
# PCOD9306682 Si02
#       6
#     8   8   8   8   4   8
#     4   9  22  43  62  96 137 167 224 277 321 412
#     4   9  22  43  61  95 135 168 225 272 323 410
#     4  11  26  48  68 100 133 177 228 287 344 412
#     4  12  25  40  74  97 128 190 215 274 354 394
#     4   8  18  44  62  84 136 174 206 276 316 380
#     4  11  26  48  69 100 141 169 233 295 336 415
#
# _framework density 20.682359999999999
#
# number of rings (size 3 to 8) (size 9 to 14) (size 15 to 20)
#    0.000    2.182    1.818    0.545    7.636    0.000 
#    6.545    0.000    0.000    0.000    0.000    0.000 
#    0.000    0.000    0.000    0.000    0.000    0.000 
#
# Total GULP energy -122589.969035 kJ/mol
# GULP energy per Si atom -5572.271320 kJ/mol
# Density = 2.063529 g / cm^3
# Si number density = 20.682360 Si / 1000 Ang^3
#
#
#
# Elastic Constant Matrix: (Units=GPa)
#
#
# Indices 1 2 3 4 5 6 
#
# 1 81.6859 27.8708 36.8500 0.0000 9.6070 0.0000
# 2 27.8708 127.4929 71.1787 0.0000 9.9734 0.0000
# 3 36.8500 71.1787 153.2378 0.0000 12.8777 0.0000
# 4 0.0000 0.0000 0.0000 74.5666 0.0000 4.2221
# 5 9.6070 9.9734 12.8777 0.0000 17.0096 0.0000
# 6 0.0000 0.0000 0.0000 4.2221 0.0000 28.4720
#
#
#
# Elastic Compliance Matrix: (Units=1/GPa)
#
#
# Indices 1 2 3 4 5 6 
#
# 1 0.014436 -0.001409 -0.002351 0.000000 -0.005547 0.000000
# 2 -0.001409 0.010841 -0.004517 0.000000 -0.002141 0.000000
# 3 -0.002351 -0.004517 0.009457 0.000000 -0.003184 0.000000
# 4 0.000000 0.000000 0.000000 0.013524 0.000000 -0.002006
# 5 -0.005547 -0.002141 -0.003184 0.000000 0.065589 0.000000
# 6 0.000000 0.000000 0.000000 -0.002006 0.000000 0.035420
#
#
# Mechanical properties :
#
#
# Convention : Reuss Voigt Hill
#
# Bulk Modulus (GPa) = 55.00658 70.46840 62.73749
# Shear Modulus (GPa) = 29.09017 39.11078 34.10048
#
# Velocity S-wave (km/s) = 3.75443 4.35331 4.06491
# Velocity P-wave (km/s) = 6.74151 7.70805 7.24093
#
# Compressibility (1/GPa) = 0.01817964
#
# Stress axis : x y z
#
# Youngs Moduli (GPa) = 69.27269 92.24400 105.74638
#
# Poissons Ratio (x) = 0.13002 0.24856
# Poissons Ratio (y) = 0.09764 0.47762
# Poissons Ratio (z) = 0.16283 0.41664
#
# Static dielectric constant tensor:
#      x y z
#    x 1.820260 0.000000 0.021880 
#    y 0.000000 1.756100 0.000000 
#    z 0.021880 0.000000 1.731440 
# 
# From -- ./inp_files/285450.got.cif
#   From: 2010.05.17/outbox.cif.g08.bks.cpg/sg15_143_cif.got.tgz:285450.got - 2010.06.03 18:47:42.
