data_PCOD9306096
_publ_section_title
;
Structure prediction by ZEFSAII (Michael W. Deem and Ramdas Pophale) SiO2 
 PCOD9306096
Probable space group: C 2/C
;
_chemical_formula_sum "Si O2"
_cell_formula_units_Z 36
_cell_length_a 5.392501
_cell_length_b 24.925379
_cell_length_c 12.742558
_cell_angle_alpha 90.000000
_cell_angle_beta 101.958631
_cell_angle_gamma 90.000000
_cell_volume 1675.558331
_symmetry_space_group_name_H-M "C 2/C"
_symmetry_group_IT_number 15
_symmetry_cell_setting 'monoclinic'
loop_
_space_group_symop_operation_xyz
x,y,z
-x,y,1/2-z
-x,-y,-z
x,-y,1/2+z
1/2+x,1/2+y,z
1/2-x,1/2+y,1/2-z
1/2-x,1/2-y,-z
1/2+x,1/2-y,1/2+z
loop_
_atom_site_type_symbol
_atom_site_label
_atom_site_fract_x
_atom_site_fract_y
_atom_site_fract_z
Si Si1 0.500000 0.106993 0.250000
Si Si2 0.802249 0.535948 0.045994
Si Si3 0.964735 0.255976 0.427761
Si Si4 0.082907 0.932536 0.141550
Si Si5 0.000000 0.170719 0.250000
Si Si6 0.000000 0.345586 0.250000
O O1 0.415555 0.071398 0.146190
O O2 0.740520 0.138133 0.224238
O O3 0.663491 0.488385 0.096563
O O4 0.654519 0.577466 0.956136
O O5 0.000000 0.500000 0.000000
O O6 0.750000 0.250000 0.500000
O O7 0.954576 0.206410 0.347978
O O8 0.926653 0.306986 0.343417
O O9 0.250000 0.250000 0.500000
O O10 0.284808 0.884976 0.180370
O O11 0.000000 0.946753 0.250000
#
# Coordination Sequence:
#
# PCOD9306096 Si02
#       6
#     4   8   8   8   4   4
#     4  12  27  46  75 104 155 194 249 306 376 446
#     4  11  26  45  71 105 150 199 250 311 367 452
#     4  11  27  50  77 105 151 193 248 319 380 448
#     4  11  25  44  72 107 145 191 257 303 380 447
#     4  11  28  46  71 112 139 192 248 301 374 450
#     4  11  27  46  76 112 146 194 261 315 384 470
#
# _framework density 21.485374
#
# number of rings (size 3 to 8) (size 9 to 14) (size 15 to 20)
#    0.000    0.889    0.000    4.667   14.000    5.333 
#    0.000    0.000    0.000    0.000    0.000    0.000 
#    0.000    0.000    0.000    0.000    0.000    0.000 
#
# Total GULP energy -100317.723393 kJ/mol
# GULP energy per Si atom -5573.206855 kJ/mol
# Density = 2.143647 g / cm^3
# Si number density = 21.485374 Si / 1000 Ang^3
#
#
#
# Elastic Constant Matrix: (Units=GPa)
#
#
# Indices 1 2 3 4 5 6 
#
# 1 119.9134 48.8650 84.6589 0.0000 -19.6309 0.0000
# 2 48.8650 93.5304 77.0127 0.0000 -7.2907 0.0000
# 3 84.6589 77.0127 214.3102 0.0000 0.1483 0.0000
# 4 0.0000 0.0000 0.0000 32.1981 0.0000 -36.2548
# 5 -19.6309 -7.2907 0.1483 0.0000 53.7585 0.0000
# 6 0.0000 0.0000 0.0000 -36.2548 0.0000 -11.2205
#
#
#
# Elastic Compliance Matrix: (Units=1/GPa)
#
#
# Indices 1 2 3 4 5 6 
#
# 1 0.013257 -0.003220 -0.004083 0.000000 0.004416 0.000000
# 2 -0.003220 0.016202 -0.004551 0.000000 0.001034 0.000000
# 3 -0.004083 -0.004551 0.007916 0.000000 -0.002130 0.000000
# 4 0.000000 0.000000 0.000000 0.006696 0.000000 -0.021636
# 5 0.004416 0.001034 -0.002130 0.000000 0.020360 0.000000
# 6 0.000000 0.000000 0.000000 -0.021636 0.000000 -0.019215
#
#
# Mechanical properties :
#
#
# Convention : Reuss Voigt Hill
#
# Bulk Modulus (GPa) = 73.16880 94.31413 83.74146
# Shear Modulus (GPa) = 68.04683 29.42839 48.73761
#
# Velocity S-wave (km/s) = 5.63383 3.70495 4.76795
# Velocity P-wave (km/s) = 8.74352 7.89268 8.32897
#
# Compressibility (1/GPa) = 0.01366703
#
# Stress axis : x y z
#
# Youngs Moduli (GPa) = 75.43271 61.72154 126.33042
#
# Poissons Ratio (x) = 0.19875 0.51577
# Poissons Ratio (y) = 0.24290 0.57491
# Poissons Ratio (z) = 0.30797 0.28088
#
# Static dielectric constant tensor:
#      x y z
#    x 2.161430 0.000000 0.109980 
#    y 0.000000 1.653360 0.000000 
#    z 0.109980 0.000000 1.719480 
# 
# From -- ./inp_files/72550.got.cif
#   From: 2010.05.17/outbox.cif.g08.bks.cpg/sg15_37_cif.got.tgz:72550.got - 2010.06.03 18:47:42.
