data_PCOD9306636
_publ_section_title
;
Structure prediction by ZEFSAII (Michael W. Deem and Ramdas Pophale) SiO2 
 PCOD9306636
Probable space group: C 2/C
;
_chemical_formula_sum "Si O2"
_cell_formula_units_Z 40
_cell_length_a 21.438228
_cell_length_b 7.048809
_cell_length_c 22.498781
_cell_angle_alpha 90.000000
_cell_angle_beta 153.346856
_cell_angle_gamma 90.000000
_cell_volume 1525.146341
_symmetry_space_group_name_H-M "C 2/C"
_symmetry_group_IT_number 15
_symmetry_cell_setting 'monoclinic'
loop_
_space_group_symop_operation_xyz
x,y,z
-x,y,1/2-z
-x,-y,-z
x,-y,1/2+z
1/2+x,1/2+y,z
1/2-x,1/2+y,1/2-z
1/2-x,1/2-y,-z
1/2+x,1/2-y,1/2+z
loop_
_atom_site_type_symbol
_atom_site_label
_atom_site_fract_x
_atom_site_fract_y
_atom_site_fract_z
Si Si1 0.139403 0.961265 0.796158
Si Si2 0.815045 0.975616 0.385634
Si Si3 0.589829 0.185218 0.945290
Si Si4 0.567884 0.889689 0.747085
Si Si5 0.353630 0.891854 0.376702
O O1 0.238488 0.012510 0.823179
O O2 0.014799 0.814568 0.681375
O O3 0.076834 0.164329 0.757779
O O4 0.251104 0.863813 0.934841
O O5 0.719771 0.034755 0.360818
O O6 0.721854 0.898926 0.251891
O O7 0.877362 0.174773 0.417716
O O8 0.092735 0.189964 0.508090
O O9 0.523216 0.974695 0.884317
O O10 0.500000 0.958692 0.750000
O O11 0.500000 0.000000 0.500000
#
# Coordination Sequence:
#
# PCOD9306636 Si02
#       5
#     8   8   8   8   8
#     4  11  28  49  81 119 161 211 271 330 413 483
#     4  11  26  48  76 120 157 214 262 324 403 475
#     4  12  26  52  80 119 162 210 273 335 404 484
#     4  11  28  53  79 116 160 213 275 340 406 479
#     4  11  26  46  79 116 168 211 257 325 395 487
#
# _framework density 26.226991000000002
#
# number of rings (size 3 to 8) (size 9 to 14) (size 15 to 20)
#    0.000    0.800    2.000    2.400   14.000    3.200 
#    0.000    1.000    0.000    0.000    0.000    0.000 
#    0.000    0.000    0.000    0.000    0.000    0.000 
#
# Total GULP energy -111903.563673 kJ/mol
# GULP energy per Si atom -5595.178184 kJ/mol
# Density = 2.616730 g / cm^3
# Si number density = 26.226991 Si / 1000 Ang^3
#
#
#
# Elastic Constant Matrix: (Units=GPa)
#
#
# Indices 1 2 3 4 5 6 
#
# 1 154.5124 51.7293 41.6494 0.0000 18.8034 0.0000
# 2 51.7293 228.3169 80.5974 0.0000 8.1613 0.0000
# 3 41.6494 80.5974 154.9227 0.0000 7.6208 0.0000
# 4 0.0000 0.0000 0.0000 52.1664 0.0000 10.4315
# 5 18.8034 8.1613 7.6208 0.0000 17.0098 0.0000
# 6 0.0000 0.0000 0.0000 10.4315 0.0000 28.1521
#
#
#
# Elastic Compliance Matrix: (Units=1/GPa)
#
#
# Indices 1 2 3 4 5 6 
#
# 1 0.008141 -0.001135 -0.001209 0.000000 -0.007913 0.000000
# 2 -0.001135 0.005554 -0.002572 0.000000 -0.000258 0.000000
# 3 -0.001209 -0.002572 0.008171 0.000000 -0.001091 0.000000
# 4 0.000000 0.000000 0.000000 0.020703 0.000000 -0.007671
# 5 -0.007913 -0.000258 -0.001091 0.000000 0.068150 0.000000
# 6 0.000000 0.000000 0.000000 -0.007671 0.000000 0.038364
#
#
# Mechanical properties :
#
#
# Convention : Reuss Voigt Hill
#
# Bulk Modulus (GPa) = 83.08851 98.41157 90.75004
# Shear Modulus (GPa) = 30.68880 43.71738 37.20309
#
# Velocity S-wave (km/s) = 3.42442 4.08718 3.77039
# Velocity P-wave (km/s) = 6.88366 7.73808 7.32334
#
# Compressibility (1/GPa) = 0.01203536
#
# Stress axis : x y z
#
# Youngs Moduli (GPa) = 122.83877 180.04931 122.37835
#
# Poissons Ratio (x) = 0.20432 0.14795
# Poissons Ratio (y) = 0.13940 0.31472
# Poissons Ratio (z) = 0.14850 0.46303
#
# Static dielectric constant tensor:
#      x y z
#    x 2.115380 0.000000 -0.005970 
#    y 0.000000 2.059800 0.000000 
#    z -0.005970 0.000000 2.075220 
# 
# From -- ./inp_files/279635.got.cif
#   From: 2010.05.17/outbox.cif.g08.bks.cpg/sg15_140_cif.got.tgz:279635.got - 2010.06.03 18:47:42.
