data_PCOD9306759
_publ_section_title
;
Structure prediction by ZEFSAII (Michael W. Deem and Ramdas Pophale) SiO2 
 PCOD9306759
Probable space group: C 2/C
;
_chemical_formula_sum "Si O2"
_cell_formula_units_Z 56
_cell_length_a 14.074843
_cell_length_b 21.329583
_cell_length_c 9.186111
_cell_angle_alpha 90.000000
_cell_angle_beta 116.205856
_cell_angle_gamma 90.000000
_cell_volume 2474.305308
_symmetry_space_group_name_H-M "C 2/C"
_symmetry_group_IT_number 15
_symmetry_cell_setting 'monoclinic'
loop_
_space_group_symop_operation_xyz
x,y,z
-x,y,1/2-z
-x,-y,-z
x,-y,1/2+z
1/2+x,1/2+y,z
1/2-x,1/2+y,1/2-z
1/2-x,1/2-y,-z
1/2+x,1/2-y,1/2+z
loop_
_atom_site_type_symbol
_atom_site_label
_atom_site_fract_x
_atom_site_fract_y
_atom_site_fract_z
Si Si1 0.500000 0.678602 0.250000
Si Si2 0.481079 0.933056 0.566833
Si Si3 0.886066 0.112348 0.932888
Si Si4 0.277526 0.840968 0.398206
Si Si5 0.000000 0.083808 0.750000
Si Si6 0.791693 0.412495 0.822253
Si Si7 0.805001 0.994526 0.000634
Si Si8 0.341862 0.698444 0.392634
O O1 0.585208 0.636394 0.390594
O O2 0.442748 0.708381 0.350879
O O3 0.500000 0.943705 0.750000
O O4 0.372066 0.893023 0.476326
O O5 0.584644 0.895617 0.583161
O O6 0.500000 0.000000 0.500000
O O7 0.783790 0.141314 0.790420
O O8 0.980168 0.123251 0.882138
O O9 0.872536 0.038772 0.941323
O O10 0.318355 0.770747 0.410801
O O11 0.191790 0.834302 0.472943
O O12 0.893889 0.043876 0.648464
O O13 0.765300 0.453585 0.658078
O O14 0.758453 0.458894 0.933245
O O15 0.731267 0.347066 0.757317
#
# Coordination Sequence:
#
# PCOD9306759 Si02
#       8
#     4   8   8   8   4   8   8   8
#     4  12  25  46  74 112 144 192 257 316 376 451
#     4  12  26  48  79 114 148 203 262 327 385 467
#     4  12  24  43  70 104 147 190 248 309 379 453
#     4  11  27  53  75 106 153 207 257 315 389 468
#     4  12  25  40  70 104 148 194 245 286 388 467
#     4  12  24  44  73 105 151 195 253 314 386 452
#     4  12  24  40  67 106 149 192 237 317 380 457
#     4  11  26  50  78 107 151 205 259 315 388 470
#
# _framework density 22.632617
#
# number of rings (size 3 to 8) (size 9 to 14) (size 15 to 20)
#    0.000    0.286    4.286    5.143    0.000    1.714 
#    3.857    0.000    0.000    0.000    0.000    0.000 
#    0.000    0.000    0.000    0.000    0.000    0.000 
#
# Total GULP energy -155916.578349 kJ/mol
# GULP energy per Si atom -5568.449227 kJ/mol
# Density = 2.258110 g / cm^3
# Si number density = 22.632617 Si / 1000 Ang^3
#
#
#
# Elastic Constant Matrix: (Units=GPa)
#
#
# Indices 1 2 3 4 5 6 
#
# 1 133.5123 32.2027 41.6120 0.0000 -7.6470 0.0000
# 2 32.2027 101.8960 28.6830 0.0000 -7.9254 0.0000
# 3 41.6120 28.6830 127.0513 0.0000 -9.4045 0.0000
# 4 0.0000 0.0000 0.0000 -4.2122 0.0000 -11.1109
# 5 -7.6470 -7.9254 -9.4045 0.0000 28.6348 0.0000
# 6 0.0000 0.0000 0.0000 -11.1109 0.0000 31.1946
#
#
#
# Elastic Compliance Matrix: (Units=1/GPa)
#
#
# Indices 1 2 3 4 5 6 
#
# 1 0.008767 -0.002034 -0.002337 0.000000 0.001011 0.000000
# 2 -0.002034 0.011086 -0.001691 0.000000 0.001970 0.000000
# 3 -0.002337 -0.001691 0.009160 0.000000 0.001916 0.000000
# 4 0.000000 0.000000 0.000000 -0.122404 0.000000 -0.043598
# 5 0.001011 0.001970 0.001916 0.000000 0.036367 0.000000
# 6 0.000000 0.000000 0.000000 -0.043598 0.000000 0.016528
#
#
# Mechanical properties :
#
#
# Convention : Reuss Voigt Hill
#
# Bulk Modulus (GPa) = 59.21220 63.05054 61.13137
# Shear Modulus (GPa) = -219.85312 28.45424 -95.69944
#
# Velocity S-wave (km/s) = -9.86665 3.54958 -6.50966
# Velocity P-wave (km/s) = 10.17752 6.68716 5.42512
#
# Compressibility (1/GPa) = 0.01688841
#
# Stress axis : x y z
#
# Youngs Moduli (GPa) = 114.06502 90.20454 109.17152
#
# Poissons Ratio (x) = 0.18349 0.25517
# Poissons Ratio (y) = 0.23202 0.18458
# Poissons Ratio (z) = 0.26661 0.15251
#
# Static dielectric constant tensor:
#      x y z
#    x 1.982290 0.000000 0.040810 
#    y 0.000000 1.844090 0.000000 
#    z 0.040810 0.000000 2.315240 
# 
# From -- ./inp_files/42799.got.cif
#   From: 2010.05.17/outbox.cif.g08.bks.cpg/sg15_22_cif.got.tgz:42799.got - 2010.06.03 18:47:42.
