data_PCOD9306959
_publ_section_title
;
Structure prediction by ZEFSAII (Michael W. Deem and Ramdas Pophale) SiO2 
 PCOD9306959
Probable space group: C 2/C
;
_chemical_formula_sum "Si O2"
_cell_formula_units_Z 36
_cell_length_a 19.700241
_cell_length_b 15.786817
_cell_length_c 7.930966
_cell_angle_alpha 90.000000
_cell_angle_beta 136.618315
_cell_angle_gamma 90.000000
_cell_volume 1694.171633
_symmetry_space_group_name_H-M "C 2/C"
_symmetry_group_IT_number 15
_symmetry_cell_setting 'monoclinic'
loop_
_space_group_symop_operation_xyz
x,y,z
-x,y,1/2-z
-x,-y,-z
x,-y,1/2+z
1/2+x,1/2+y,z
1/2-x,1/2+y,1/2-z
1/2-x,1/2-y,-z
1/2+x,1/2-y,1/2+z
loop_
_atom_site_type_symbol
_atom_site_label
_atom_site_fract_x
_atom_site_fract_y
_atom_site_fract_z
Si Si1 0.445003 0.916145 0.475889
Si Si2 0.784873 0.890907 0.404311
Si Si3 0.929246 0.242403 0.276294
Si Si4 0.000000 0.155648 0.750000
Si Si5 0.890893 0.962835 0.272507
O O1 0.329552 0.914379 0.320604
O O2 0.441701 0.842500 0.328439
O O3 0.500000 0.000000 0.500000
O O4 0.500000 0.893858 0.750000
O O5 0.823752 0.798920 0.535192
O O6 0.843537 0.911904 0.339185
O O7 0.824243 0.957749 0.610557
O O8 0.000000 0.216420 0.250000
O O9 0.966042 0.205025 0.521847
O O10 0.091871 0.098300 0.855204
O O11 0.000000 0.000000 0.500000
#
# Coordination Sequence:
#
# PCOD9306959 Si02
#       5
#     8   8   8   4   8
#     4  12  28  50  70  99 147 203 250 299 357 440
#     4  12  23  42  73 109 144 194 244 295 370 442
#     4  12  24  46  75 105 145 186 240 310 369 431
#     4  12  22  40  68 110 144 178 222 290 384 422
#     4  12  20  37  70 108 147 177 228 303 371 434
#
# _framework density 21.249324000000001
#
# number of rings (size 3 to 8) (size 9 to 14) (size 15 to 20)
#    0.000    0.000    7.778    2.667    0.000    0.000 
#    0.000    8.889    0.000    0.000    0.000    0.000 
#    0.000    0.000    0.000    0.000    0.000    0.000 
#
# Total GULP energy -100438.030364 kJ/mol
# GULP energy per Si atom -5579.890576 kJ/mol
# Density = 2.120096 g / cm^3
# Si number density = 21.249324 Si / 1000 Ang^3
#
#
#
# Elastic Constant Matrix: (Units=GPa)
#
#
# Indices 1 2 3 4 5 6 
#
# 1 164.8175 61.5910 70.1298 0.0000 -1.1396 0.0000
# 2 61.5910 126.4600 43.3619 0.0000 9.1587 0.0000
# 3 70.1298 43.3619 139.6880 0.0000 26.1913 0.0000
# 4 0.0000 0.0000 0.0000 21.0041 0.0000 -5.6342
# 5 -1.1396 9.1587 26.1913 0.0000 48.3557 0.0000
# 6 0.0000 0.0000 0.0000 -5.6342 0.0000 42.9956
#
#
#
# Elastic Compliance Matrix: (Units=1/GPa)
#
#
# Indices 1 2 3 4 5 6 
#
# 1 0.009039 -0.003213 -0.004112 0.000000 0.003049 0.000000
# 2 -0.003213 0.009994 -0.001247 0.000000 -0.001293 0.000000
# 3 -0.004112 -0.001247 0.010668 0.000000 -0.005639 0.000000
# 4 0.000000 0.000000 0.000000 0.049344 0.000000 0.006466
# 5 0.003049 -0.001293 -0.005639 0.000000 0.024051 0.000000
# 6 0.000000 0.000000 0.000000 0.006466 0.000000 0.024106
#
#
# Mechanical properties :
#
#
# Convention : Reuss Voigt Hill
#
# Bulk Modulus (GPa) = 79.64121 86.79230 83.21676
# Shear Modulus (GPa) = 33.66325 39.52993 36.59659
#
# Velocity S-wave (km/s) = 3.98452 4.31779 4.15450
# Velocity P-wave (km/s) = 7.66351 8.11117 7.89052
#
# Compressibility (1/GPa) = 0.01255631
#
# Stress axis : x y z
#
# Youngs Moduli (GPa) = 110.63399 100.06358 93.74235
#
# Poissons Ratio (x) = 0.32151 0.38548
# Poissons Ratio (y) = 0.35547 0.11686
# Poissons Ratio (z) = 0.45495 0.12474
#
# Static dielectric constant tensor:
#      x y z
#    x 1.755320 0.000000 -0.009550 
#    y 0.000000 1.868240 0.000000 
#    z -0.009550 0.000000 1.763780 
# 
# From -- ./inp_files/55699.got.cif
#   From: 2010.05.17/outbox.cif.g08.bks.cpg/sg15_28_cif.got.tgz:55699.got - 2010.06.03 18:47:42.
