data_PCOD9306569
_publ_section_title
;
Structure prediction by ZEFSAII (Michael W. Deem and Ramdas Pophale) SiO2 
 PCOD9306569
Probable space group: C 2/C
;
_chemical_formula_sum "Si O2"
_cell_formula_units_Z 48
_cell_length_a 24.177735
_cell_length_b 5.178644
_cell_length_c 21.207240
_cell_angle_alpha 90.000000
_cell_angle_beta 128.612999
_cell_angle_gamma 90.000000
_cell_volume 2074.806052
_symmetry_space_group_name_H-M "C 2/C"
_symmetry_group_IT_number 15
_symmetry_cell_setting 'monoclinic'
loop_
_space_group_symop_operation_xyz
x,y,z
-x,y,1/2-z
-x,-y,-z
x,-y,1/2+z
1/2+x,1/2+y,z
1/2-x,1/2+y,1/2-z
1/2-x,1/2-y,-z
1/2+x,1/2-y,1/2+z
loop_
_atom_site_type_symbol
_atom_site_label
_atom_site_fract_x
_atom_site_fract_y
_atom_site_fract_z
Si Si1 0.265927 0.469908 0.725430
Si Si2 0.421980 0.595624 0.803808
Si Si3 0.812750 0.313761 0.447403
Si Si4 0.299110 0.051649 0.570472
Si Si5 0.070412 0.404922 0.261247
Si Si6 0.472381 0.251223 0.017392
O O1 0.270656 0.177122 0.753566
O O2 0.345048 0.584597 0.779877
O O3 0.224971 0.491358 0.629312
O O4 0.438348 0.297755 0.801315
O O5 0.484712 0.726619 0.887206
O O6 0.414737 0.794395 0.740986
O O7 0.829846 0.395989 0.531950
O O8 0.887958 0.241156 0.469415
O O9 0.750988 0.105209 0.417183
O O10 0.250000 0.250000 0.500000
O O11 0.361528 0.189340 0.651884
O O12 0.000000 0.384209 0.250000
O O13 0.500000 0.500000 0.000000
O O14 0.500000 0.000000 0.000000
#
# Coordination Sequence:
#
# PCOD9306569 Si02
#       6
#     8   8   8   8   8   8
#     4  12  25  44  71 101 139 185 235 297 350 422
#     4  12  25  46  68 102 143 181 242 287 355 432
#     4  11  26  46  72 108 144 188 246 296 368 430
#     4  11  26  44  76 104 146 190 237 307 362 440
#     4  12  26  45  71 104 142 186 233 293 366 430
#     4  12  27  47  73 106 146 196 245 298 361 430
#
# _framework density 23.134694
#
# number of rings (size 3 to 8) (size 9 to 14) (size 15 to 20)
#    0.000    0.333    1.667    6.500    9.333    0.000 
#    0.000    0.000    0.000    0.000    0.000    0.000 
#    0.000    0.000    0.000    0.000    0.000    0.000 
#
# Total GULP energy -134144.791373 kJ/mol
# GULP energy per Si atom -5589.366307 kJ/mol
# Density = 2.308204 g / cm^3
# Si number density = 23.134694 Si / 1000 Ang^3
#
#
#
# Elastic Constant Matrix: (Units=GPa)
#
#
# Indices 1 2 3 4 5 6 
#
# 1 138.0416 33.0964 15.9969 0.0005 18.2609 0.0023
# 2 33.0964 100.9938 4.7533 -0.0060 -8.2821 0.0017
# 3 15.9969 4.7533 68.8303 0.0003 8.7485 0.0025
# 4 0.0005 -0.0060 0.0003 43.0675 -0.0005 8.4463
# 5 18.2609 -8.2821 8.7485 -0.0005 31.8389 -0.0011
# 6 0.0023 0.0017 0.0025 8.4463 -0.0011 104.5985
#
#
#
# Elastic Compliance Matrix: (Units=1/GPa)
#
#
# Indices 1 2 3 4 5 6 
#
# 1 0.008926 -0.003338 -0.001122 -0.000001 -0.005679 0.000000
# 2 -0.003338 0.011442 -0.000659 0.000002 0.005072 0.000000
# 3 -0.001122 -0.000659 0.015309 0.000000 -0.003735 0.000000
# 4 -0.000001 0.000002 0.000000 0.023593 0.000001 -0.001905
# 5 -0.005679 0.005072 -0.003735 0.000001 0.037011 0.000000
# 6 0.000000 0.000000 0.000000 -0.001905 0.000000 0.009714
#
#
# Mechanical properties :
#
#
# Convention : Reuss Voigt Hill
#
# Bulk Modulus (GPa) = 39.30908 46.17320 42.74114
# Shear Modulus (GPa) = 40.09172 52.83557 46.46365
#
# Velocity S-wave (km/s) = 4.16741 4.78412 4.48638
# Velocity P-wave (km/s) = 6.33914 7.10766 6.73437
#
# Compressibility (1/GPa) = 0.02543941
#
# Stress axis : x y z
#
# Youngs Moduli (GPa) = 112.03456 87.39400 65.31910
#
# Poissons Ratio (x) = 0.29172 0.07329
# Poissons Ratio (y) = 0.37397 0.04305
# Poissons Ratio (z) = 0.12571 0.05760
#
# Static dielectric constant tensor:
#      x y z
#    x 1.844510 0.000000 -0.081140 
#    y 0.000000 1.939530 0.000020 
#    z -0.081140 0.000020 1.866160 
# 
# From -- ./inp_files/254462.got.cif
#   From: 2010.05.17/outbox.cif.g08.bks.cpg/sg15_128_cif.got.tgz:254462.got - 2010.06.03 18:47:42.
