data_PCOD9306814
_publ_section_title
;
Structure prediction by ZEFSAII (Michael W. Deem and Ramdas Pophale) SiO2 
 PCOD9306814
Probable space group: C 2/C
;
_chemical_formula_sum "Si O2"
_cell_formula_units_Z 32
_cell_length_a 8.032810
_cell_length_b 14.670004
_cell_length_c 11.614237
_cell_angle_alpha 90.000000
_cell_angle_beta 94.028195
_cell_angle_gamma 90.000000
_cell_volume 1365.256345
_symmetry_space_group_name_H-M "C 2/C"
_symmetry_group_IT_number 15
_symmetry_cell_setting 'monoclinic'
loop_
_space_group_symop_operation_xyz
x,y,z
-x,y,1/2-z
-x,-y,-z
x,-y,1/2+z
1/2+x,1/2+y,z
1/2-x,1/2+y,1/2-z
1/2-x,1/2-y,-z
1/2+x,1/2-y,1/2+z
loop_
_atom_site_type_symbol
_atom_site_label
_atom_site_fract_x
_atom_site_fract_y
_atom_site_fract_z
Si Si1 0.194772 0.307016 0.108984
Si Si2 0.799142 0.842705 0.717211
Si Si3 0.617511 0.092666 0.979027
Si Si4 0.306313 0.535568 0.766688
O O1 0.256775 0.246973 0.219662
O O2 0.249523 0.407676 0.152177
O O3 0.250000 0.250000 0.000000
O O4 0.001520 0.327503 0.075880
O O5 0.723789 0.864353 0.589035
O O6 0.000000 0.839582 0.750000
O O7 0.735142 0.933826 0.776458
O O8 0.749410 0.076819 0.883664
O O9 0.500000 0.000000 0.000000
O O10 0.500000 0.527573 0.750000
#
# Coordination Sequence:
#
# PCOD9306814 Si02
#       4
#     8   8   8   8
#     4  12  28  46  76 115 153 204 260 316 393 462
#     4  11  27  46  77 111 152 201 263 313 391 459
#     4  12  26  51  81 110 158 205 261 323 392 462
#     4  11  27  48  76 112 156 202 258 322 386 462
#
# _framework density 23.438822999999999
#
# number of rings (size 3 to 8) (size 9 to 14) (size 15 to 20)
#    0.000    0.500    2.500    3.750    7.000    6.000 
#    0.000    0.000    0.000    0.000    0.000    0.000 
#    0.000    0.000    0.000    0.000    0.000    0.000 
#
# Total GULP energy -89084.681647 kJ/mol
# GULP energy per Si atom -5567.792603 kJ/mol
# Density = 2.338548 g / cm^3
# Si number density = 23.438823 Si / 1000 Ang^3
#
#
#
# Elastic Constant Matrix: (Units=GPa)
#
#
# Indices 1 2 3 4 5 6 
#
# 1 66.1225 26.8416 42.6609 0.0000 6.3792 0.0000
# 2 26.8416 108.9523 35.6657 0.0000 10.5555 0.0000
# 3 42.6609 35.6657 108.7112 0.0000 6.5974 0.0000
# 4 0.0000 0.0000 0.0000 64.3126 0.0000 2.7402
# 5 6.3792 10.5555 6.5974 0.0000 50.1636 0.0000
# 6 0.0000 0.0000 0.0000 2.7402 0.0000 27.3471
#
#
#
# Elastic Compliance Matrix: (Units=1/GPa)
#
#
# Indices 1 2 3 4 5 6 
#
# 1 0.021036 -0.002679 -0.007306 0.000000 -0.001150 0.000000
# 2 -0.002679 0.010776 -0.002386 0.000000 -0.001613 0.000000
# 3 -0.007306 -0.002386 0.012864 0.000000 -0.000261 0.000000
# 4 0.000000 0.000000 0.000000 0.015616 0.000000 -0.001565
# 5 -0.001150 -0.001613 -0.000261 0.000000 0.020455 0.000000
# 6 0.000000 0.000000 0.000000 -0.001565 0.000000 0.036724
#
#
# Mechanical properties :
#
#
# Convention : Reuss Voigt Hill
#
# Bulk Modulus (GPa) = 50.16769 54.90250 52.53509
# Shear Modulus (GPa) = 33.58922 40.27251 36.93086
#
# Velocity S-wave (km/s) = 3.78968 4.14961 3.97372
# Velocity P-wave (km/s) = 6.37174 6.81422 6.59669
#
# Compressibility (1/GPa) = 0.01993315
#
# Stress axis : x y z
#
# Youngs Moduli (GPa) = 47.53799 92.80125 77.73391
#
# Poissons Ratio (x) = 0.24864 0.56793
# Poissons Ratio (y) = 0.12737 0.18547
# Poissons Ratio (z) = 0.34732 0.22142
#
# Static dielectric constant tensor:
#      x y z
#    x 1.957610 0.000000 -0.009260 
#    y 0.000000 1.974000 0.000000 
#    z -0.009260 0.000000 1.875400 
# 
# From -- ./inp_files/75594.got.cif
#   From: 2010.05.17/outbox.cif.g08.bks.cpg/sg15_38_cif.got.tgz:75594.got - 2010.06.03 18:47:42.
