data_PCOD9306463
_publ_section_title
;
Structure prediction by ZEFSAII (Michael W. Deem and Ramdas Pophale) SiO2 
 PCOD9306463
Probable space group: C 2/C
;
_chemical_formula_sum "Si O2"
_cell_formula_units_Z 36
_cell_length_a 13.455289
_cell_length_b 20.138377
_cell_length_c 10.397742
_cell_angle_alpha 90.000000
_cell_angle_beta 28.536581
_cell_angle_gamma 90.000000
_cell_volume 1345.952495
_symmetry_space_group_name_H-M "C 2/C"
_symmetry_group_IT_number 15
_symmetry_cell_setting 'monoclinic'
loop_
_space_group_symop_operation_xyz
x,y,z
-x,y,1/2-z
-x,-y,-z
x,-y,1/2+z
1/2+x,1/2+y,z
1/2-x,1/2+y,1/2-z
1/2-x,1/2-y,-z
1/2+x,1/2-y,1/2+z
loop_
_atom_site_type_symbol
_atom_site_label
_atom_site_fract_x
_atom_site_fract_y
_atom_site_fract_z
Si Si1 0.493944 0.402547 0.580211
Si Si2 0.672436 0.311313 0.951064
Si Si3 0.698402 0.997603 0.363833
Si Si4 0.661440 0.267672 0.482292
Si Si5 0.000000 0.387076 0.750000
O O1 0.446476 0.366025 0.499677
O O2 0.626559 0.469455 0.431417
O O3 0.263716 0.434937 0.862975
O O4 0.626178 0.347341 0.506518
O O5 0.500000 0.287115 0.250000
O O6 0.270720 0.238913 0.235341
O O7 0.866742 0.344647 0.801902
O O8 0.661619 0.937058 0.500945
O O9 0.500000 0.000000 0.500000
O O10 0.398503 0.247142 0.781571
#
# Coordination Sequence:
#
# PCOD9306463 Si02
#       5
#     8   8   8   8   4
#     4  11  26  52  79 117 167 221 285 352 429 515
#     4  12  27  54  82 124 174 221 284 361 431 522
#     4  11  25  48  81 118 165 220 279 355 430 514
#     4  12  29  54  82 122 167 230 293 351 441 521
#     4  12  26  48  86 132 164 220 296 348 450 508
#
# _framework density 26.746858
#
# number of rings (size 3 to 8) (size 9 to 14) (size 15 to 20)
#    0.000    0.444    6.667    0.000    3.111    2.667 
#    6.000    0.000    0.000    0.000    0.000    0.000 
#    0.000    0.000    0.000    0.000    0.000    0.000 
#
# Total GULP energy -100458.570873 kJ/mol
# GULP energy per Si atom -5581.031715 kJ/mol
# Density = 2.668598 g / cm^3
# Si number density = 26.746858 Si / 1000 Ang^3
#
#
#
# Elastic Constant Matrix: (Units=GPa)
#
#
# Indices 1 2 3 4 5 6 
#
# 1 176.9480 82.5580 42.5195 -0.0502 -19.3819 -0.0011
# 2 82.5580 161.9094 54.4870 -0.1818 -23.4413 0.0329
# 3 42.5195 54.4870 157.7226 -0.3479 8.4193 0.0840
# 4 -0.0502 -0.1818 -0.3479 191.1633 0.0619 -48.6162
# 5 -19.3819 -23.4413 8.4193 0.0619 59.0438 0.0081
# 6 -0.0011 0.0329 0.0840 -48.6162 0.0081 36.9857
#
#
#
# Elastic Compliance Matrix: (Units=1/GPa)
#
#
# Indices 1 2 3 4 5 6 
#
# 1 0.007591 -0.003363 -0.000954 -0.000003 0.001293 0.000001
# 2 -0.003363 0.009109 -0.002393 0.000002 0.002854 0.000000
# 3 -0.000954 -0.002393 0.007549 0.000012 -0.002340 0.000002
# 4 -0.000003 0.000002 0.000012 0.007858 -0.000011 0.010329
# 5 0.001293 0.002854 -0.002340 -0.000011 0.018828 -0.000016
# 6 0.000001 0.000000 0.000002 0.010329 -0.000016 0.040615
#
#
# Mechanical properties :
#
#
# Convention : Reuss Voigt Hill
#
# Bulk Modulus (GPa) = 92.32753 95.07878 93.70316
# Shear Modulus (GPa) = 46.04986 78.57292 62.31139
#
# Velocity S-wave (km/s) = 4.15383 5.42589 4.83190
# Velocity P-wave (km/s) = 7.58945 8.65324 8.13874
#
# Compressibility (1/GPa) = 0.01083101
#
# Stress axis : x y z
#
# Youngs Moduli (GPa) = 131.73443 109.77834 132.46971
#
# Poissons Ratio (x) = 0.36913 0.12635
# Poissons Ratio (y) = 0.44296 0.31697
# Poissons Ratio (z) = 0.12565 0.26267
#
# Static dielectric constant tensor:
#      x y z
#    x 2.191440 -0.000010 0.146560 
#    y -0.000010 2.142210 0.002250 
#    z 0.146560 0.002250 3.322730 
# 
# From -- ./inp_files/91093.got.cif
#   From: 2010.05.17/outbox.cif.g08.bks.cpg/sg15_46_cif.got.tgz:91093.got - 2010.06.03 18:47:42.
