data_PCOD9306476
_publ_section_title
;
Structure prediction by ZEFSAII (Michael W. Deem and Ramdas Pophale) SiO2 
 PCOD9306476
Probable space group: C 2/C
;
_chemical_formula_sum "Si O2"
_cell_formula_units_Z 36
_cell_length_a 17.596558
_cell_length_b 8.894480
_cell_length_c 13.527668
_cell_angle_alpha 90.000000
_cell_angle_beta 135.798203
_cell_angle_gamma 90.000000
_cell_volume 1476.117302
_symmetry_space_group_name_H-M "C 2/C"
_symmetry_group_IT_number 15
_symmetry_cell_setting 'monoclinic'
loop_
_space_group_symop_operation_xyz
x,y,z
-x,y,1/2-z
-x,-y,-z
x,-y,1/2+z
1/2+x,1/2+y,z
1/2-x,1/2+y,1/2-z
1/2-x,1/2-y,-z
1/2+x,1/2-y,1/2+z
loop_
_atom_site_type_symbol
_atom_site_label
_atom_site_fract_x
_atom_site_fract_y
_atom_site_fract_z
Si Si1 0.449603 0.356885 0.549469
Si Si2 0.686397 0.443921 0.704484
Si Si3 0.500000 0.392138 0.250000
Si Si4 0.175489 0.671846 0.347547
Si Si5 0.178268 0.613358 0.977513
O O1 0.571395 0.362777 0.620851
O O2 0.356566 0.402080 0.384803
O O3 0.439413 0.491431 0.620913
O O4 0.425153 0.197222 0.573225
O O5 0.758976 0.359245 0.691222
O O6 0.752874 0.458475 0.867900
O O7 0.571667 0.281643 0.249332
O O8 0.250000 0.750000 0.500000
O O9 0.149007 0.509352 0.369367
O O10 0.250000 0.750000 0.000000
#
# Coordination Sequence:
#
# PCOD9306476 Si02
#       5
#     8   8   4   8   8
#     4  11  25  49  74 106 146 204 243 305 377 441
#     4  11  26  44  77 104 146 191 250 303 372 436
#     4  12  26  48  74 104 150 194 248 304 374 436
#     4  12  26  47  73 111 145 194 246 310 370 440
#     4  12  26  47  74 111 149 194 252 306 374 448
#
# _framework density 24.388304000000002
#
# number of rings (size 3 to 8) (size 9 to 14) (size 15 to 20)
#    0.000    0.444    4.444    2.667    9.333    2.667 
#    0.000    2.222    0.000    0.000    0.000    0.000 
#    0.000    0.000    0.000    0.000    0.000    0.000 
#
# Total GULP energy -100888.614647 kJ/mol
# GULP energy per Si atom -5604.923036 kJ/mol
# Density = 2.433280 g / cm^3
# Si number density = 24.388304 Si / 1000 Ang^3
#
#
#
# Elastic Constant Matrix: (Units=GPa)
#
#
# Indices 1 2 3 4 5 6 
#
# 1 167.2994 64.3340 31.5587 0.0000 -10.2152 0.0000
# 2 64.3340 143.6300 45.2632 0.0000 1.4043 0.0000
# 3 31.5587 45.2632 93.5767 0.0000 -17.0631 0.0000
# 4 0.0000 0.0000 0.0000 43.2074 0.0000 -5.2909
# 5 -10.2152 1.4043 -17.0631 0.0000 32.1737 0.0000
# 6 0.0000 0.0000 0.0000 -5.2909 0.0000 36.0902
#
#
#
# Elastic Compliance Matrix: (Units=1/GPa)
#
#
# Indices 1 2 3 4 5 6 
#
# 1 0.007440 -0.003173 -0.000574 0.000000 0.002196 0.000000
# 2 -0.003173 0.009790 -0.004347 0.000000 -0.003740 0.000000
# 3 -0.000574 -0.004347 0.014374 0.000000 0.007631 0.000000
# 4 0.000000 0.000000 0.000000 0.023567 0.000000 0.003455
# 5 0.002196 -0.003740 0.007631 0.000000 0.035989 0.000000
# 6 0.000000 0.000000 0.000000 0.003455 0.000000 0.028215
#
#
# Mechanical properties :
#
#
# Convention : Reuss Voigt Hill
#
# Bulk Modulus (GPa) = 64.86901 76.31309 70.59105
# Shear Modulus (GPa) = 35.53595 39.85092 37.69343
#
# Velocity S-wave (km/s) = 3.82133 4.04668 3.93562
# Velocity P-wave (km/s) = 6.79163 7.29335 7.04696
#
# Compressibility (1/GPa) = 0.01541568
#
# Stress axis : x y z
#
# Youngs Moduli (GPa) = 134.41150 102.14273 69.56886
#
# Poissons Ratio (x) = 0.32411 0.03992
# Poissons Ratio (y) = 0.42650 0.30245
# Poissons Ratio (z) = 0.07712 0.44406
#
# Static dielectric constant tensor:
#      x y z
#    x 1.987470 0.000000 -0.003450 
#    y 0.000000 1.920840 0.000000 
#    z -0.003450 0.000000 1.972240 
# 
# From -- ./inp_files/159588.got.cif
#   From: 2010.05.17/outbox.cif.g08.bks.cpg/sg15_80_cif.got.tgz:159588.got - 2010.06.03 18:47:42.
