data_PCOD9306398
_publ_section_title
;
Structure prediction by ZEFSAII (Michael W. Deem and Ramdas Pophale) SiO2 
 PCOD9306398
Probable space group: C 2/C
;
_chemical_formula_sum "Si O2"
_cell_formula_units_Z 48
_cell_length_a 25.750223
_cell_length_b 19.713477
_cell_length_c 8.619629
_cell_angle_alpha 90.000000
_cell_angle_beta 150.356691
_cell_angle_gamma 90.000000
_cell_volume 2164.143229
_symmetry_space_group_name_H-M "C 2/C"
_symmetry_group_IT_number 15
_symmetry_cell_setting 'monoclinic'
loop_
_space_group_symop_operation_xyz
x,y,z
-x,y,1/2-z
-x,-y,-z
x,-y,1/2+z
1/2+x,1/2+y,z
1/2-x,1/2+y,1/2-z
1/2-x,1/2-y,-z
1/2+x,1/2-y,1/2+z
loop_
_atom_site_type_symbol
_atom_site_label
_atom_site_fract_x
_atom_site_fract_y
_atom_site_fract_z
Si Si1 0.703935 0.019901 0.819011
Si Si2 0.131487 0.773749 0.668874
Si Si3 0.148547 0.998467 0.546772
Si Si4 0.561900 0.127589 0.569217
Si Si5 0.500000 0.926447 0.250000
Si Si6 0.500000 0.608779 0.250000
Si Si7 0.056660 0.853308 0.201282
O O1 0.671031 0.088310 0.821499
O O2 0.739602 0.021699 0.734254
O O3 0.604332 0.970088 0.561981
O O4 0.816984 0.000534 0.183801
O O5 0.071465 0.707338 0.573524
O O6 0.119144 0.795791 0.458079
O O7 0.066059 0.835239 0.579285
O O8 0.250000 0.750000 0.000000
O O9 0.100798 0.925854 0.375640
O O10 0.065576 0.057890 0.312754
O O11 0.523382 0.110131 0.643714
O O12 0.500000 0.104752 0.250000
O O13 0.568920 0.650997 0.548434
#
# Coordination Sequence:
#
# PCOD9306398 Si02
#       7
#     8   8   8   8   4   4   8
#     4  12  24  44  75 111 149 195 241 309 385 444
#     4  11  26  47  73  98 138 204 248 296 370 444
#     4  12  25  42  75 113 148 187 239 314 390 442
#     4  12  24  46  70  99 151 197 246 307 368 433
#     4  12  26  45  72 113 152 194 262 312 362 460
#     4  12  26  43  72 113 152 184 244 320 372 458
#     4  11  25  48  70 106 145 190 246 300 370 443
#
# _framework density 22.179677999999999
#
# number of rings (size 3 to 8) (size 9 to 14) (size 15 to 20)
#    0.000    0.333    5.833    4.000    7.000    0.667 
#    0.000    0.833    0.000    0.000    0.000    0.000 
#    0.000    0.000    0.000    0.000    0.000    0.000 
#
# Total GULP energy -133604.532320 kJ/mol
# GULP energy per Si atom -5566.855513 kJ/mol
# Density = 2.212920 g / cm^3
# Si number density = 22.179678 Si / 1000 Ang^3
#
#
#
# Elastic Constant Matrix: (Units=GPa)
#
#
# Indices 1 2 3 4 5 6 
#
# 1 117.5364 77.3923 40.6930 0.0000 0.3461 0.0000
# 2 77.3923 121.1148 46.1157 0.0000 -9.4473 0.0000
# 3 40.6930 46.1157 125.6052 0.0000 -12.2444 0.0000
# 4 0.0000 0.0000 0.0000 30.0959 0.0000 -8.7486
# 5 0.3461 -9.4473 -12.2444 0.0000 45.7334 0.0000
# 6 0.0000 0.0000 0.0000 -8.7486 0.0000 22.3310
#
#
#
# Elastic Compliance Matrix: (Units=1/GPa)
#
#
# Indices 1 2 3 4 5 6 
#
# 1 0.015216 -0.009240 -0.001781 0.000000 -0.002501 0.000000
# 2 -0.009240 0.015260 -0.002357 0.000000 0.002591 0.000000
# 3 -0.001781 -0.002357 0.009608 0.000000 0.002099 0.000000
# 4 0.000000 0.000000 0.000000 0.037497 0.000000 0.014690
# 5 -0.002501 0.002591 0.002099 0.000000 0.022982 0.000000
# 6 0.000000 0.000000 0.000000 0.014690 0.000000 0.050536
#
#
# Mechanical properties :
#
#
# Convention : Reuss Voigt Hill
#
# Bulk Modulus (GPa) = 75.02142 76.96205 75.99174
# Shear Modulus (GPa) = 27.42751 32.96910 30.19831
#
# Velocity S-wave (km/s) = 3.52035 3.85964 3.69390
# Velocity P-wave (km/s) = 7.10082 7.39169 7.24772
#
# Compressibility (1/GPa) = 0.01332953
#
# Stress axis : x y z
#
# Youngs Moduli (GPa) = 65.71990 65.52879 104.07642
#
# Poissons Ratio (x) = 0.60549 0.18536
# Poissons Ratio (y) = 0.60725 0.24528
# Poissons Ratio (z) = 0.11704 0.15443
#
# Static dielectric constant tensor:
#      x y z
#    x 1.831790 0.000000 -0.005220 
#    y 0.000000 1.792620 0.000000 
#    z -0.005220 0.000000 1.962240 
# 
# From -- ./inp_files/67556.got.cif
#   From: 2010.05.17/outbox.cif.g08.bks.cpg/sg15_34_cif.got.tgz:67556.got - 2010.06.03 18:47:42.
