data_PCOD9306232
_publ_section_title
;
Structure prediction by ZEFSAII (Michael W. Deem and Ramdas Pophale) SiO2 
 PCOD9306232
Probable space group: C 2/C
;
_chemical_formula_sum "Si O2"
_cell_formula_units_Z 44
_cell_length_a 6.901954
_cell_length_b 19.081418
_cell_length_c 16.462645
_cell_angle_alpha 90.000000
_cell_angle_beta 67.017943
_cell_angle_gamma 90.000000
_cell_volume 1996.025602
_symmetry_space_group_name_H-M "C 2/C"
_symmetry_group_IT_number 15
_symmetry_cell_setting 'monoclinic'
loop_
_space_group_symop_operation_xyz
x,y,z
-x,y,1/2-z
-x,-y,-z
x,-y,1/2+z
1/2+x,1/2+y,z
1/2-x,1/2+y,1/2-z
1/2-x,1/2-y,-z
1/2+x,1/2-y,1/2+z
loop_
_atom_site_type_symbol
_atom_site_label
_atom_site_fract_x
_atom_site_fract_y
_atom_site_fract_z
Si Si1 0.448371 0.158639 0.111058
Si Si2 0.000000 0.862306 0.750000
Si Si3 0.418788 0.592926 0.586634
Si Si4 0.865563 0.207630 0.851530
Si Si5 0.104917 0.312941 0.055328
Si Si6 0.187432 0.066826 0.379845
O O1 0.215201 0.172988 0.183568
O O2 0.574107 0.231524 0.095241
O O3 0.584075 0.101422 0.138940
O O4 0.431841 0.139211 0.018982
O O5 0.916353 0.904509 0.685258
O O6 0.569994 0.631240 0.626016
O O7 0.225866 0.644821 0.603604
O O8 0.546494 0.588109 0.481014
O O9 0.328215 0.517015 0.622476
O O10 0.618876 0.212734 0.877113
O O11 0.000000 0.222874 0.750000
O O12 0.250000 0.250000 0.000000
#
# Coordination Sequence:
#
# PCOD9306232 Si02
#       6
#     8   4   8   8   8   8
#     4  12  25  45  74 103 139 183 238 289 349 416
#     4  12  26  44  74 102 138 182 234 292 342 410
#     4  11  25  46  71 100 142 185 232 285 360 418
#     4  12  27  44  71 106 141 181 241 292 345 419
#     4  12  24  45  75 100 140 188 230 290 357 411
#     4  11  25  46  69 105 138 185 235 289 350 422
#
# _framework density 22.043804999999999
#
# number of rings (size 3 to 8) (size 9 to 14) (size 15 to 20)
#    0.000    0.364    5.455    3.273    3.818    2.909 
#    3.273    0.000    0.000    0.000    0.000    0.000 
#    0.000    0.000    0.000    0.000    0.000    0.000 
#
# Total GULP energy -123098.297927 kJ/mol
# GULP energy per Si atom -5595.377179 kJ/mol
# Density = 2.199363 g / cm^3
# Si number density = 22.043805 Si / 1000 Ang^3
#
#
#
# Elastic Constant Matrix: (Units=GPa)
#
#
# Indices 1 2 3 4 5 6 
#
# 1 144.3466 36.2803 25.0300 0.0000 -34.8019 0.0000
# 2 36.2803 78.2223 -6.0721 0.0000 -13.8529 0.0000
# 3 25.0300 -6.0721 64.8945 0.0000 -18.2252 0.0000
# 4 0.0000 0.0000 0.0000 14.8489 0.0000 2.8376
# 5 -34.8019 -13.8529 -18.2252 0.0000 51.8377 0.0000
# 6 0.0000 0.0000 0.0000 2.8376 0.0000 30.3289
#
#
#
# Elastic Compliance Matrix: (Units=1/GPa)
#
#
# Indices 1 2 3 4 5 6 
#
# 1 0.009409 -0.003814 -0.002772 0.000000 0.004323 0.000000
# 2 -0.003814 0.015344 0.003705 0.000000 0.002843 0.000000
# 3 -0.002772 0.003705 0.018397 0.000000 0.005597 0.000000
# 4 0.000000 0.000000 0.000000 0.068571 0.000000 -0.006416
# 5 0.004323 0.002843 0.005597 0.000000 0.024921 0.000000
# 6 0.000000 0.000000 0.000000 -0.006416 0.000000 0.033572
#
#
# Mechanical properties :
#
#
# Convention : Reuss Voigt Hill
#
# Bulk Modulus (GPa) = 26.74535 44.21553 35.48044
# Shear Modulus (GPa) = 26.53376 34.88478 30.70927
#
# Velocity S-wave (km/s) = 3.47318 3.98241 3.73648
# Velocity P-wave (km/s) = 5.31442 6.42243 5.89452
#
# Compressibility (1/GPa) = 0.03738968
#
# Stress axis : x y z
#
# Youngs Moduli (GPa) = 106.27773 65.17234 54.35549
#
# Poissons Ratio (x) = 0.24854 0.15067
# Poissons Ratio (y) = 0.40531 -0.20139
# Poissons Ratio (z) = 0.29459 -0.24146
#
# Static dielectric constant tensor:
#      x y z
#    x 1.815440 0.000000 0.000400 
#    y 0.000000 1.796530 0.000000 
#    z 0.000400 0.000000 1.829920 
# 
# From -- ./inp_files/184819.got.cif
#   From: 2010.05.17/outbox.cif.g08.bks.cpg/sg15_93_cif.got.tgz:184819.got - 2010.06.03 18:47:42.
