data_PCOD9306210
_publ_section_title
;
Structure prediction by ZEFSAII (Michael W. Deem and Ramdas Pophale) SiO2 
 PCOD9306210
Probable space group: C 2/C
;
_chemical_formula_sum "Si O2"
_cell_formula_units_Z 40
_cell_length_a 29.968914
_cell_length_b 8.814462
_cell_length_c 14.537954
_cell_angle_alpha 90.000000
_cell_angle_beta 26.590783
_cell_angle_gamma 90.000000
_cell_volume 1718.996420
_symmetry_space_group_name_H-M "C 2/C"
_symmetry_group_IT_number 15
_symmetry_cell_setting 'monoclinic'
loop_
_space_group_symop_operation_xyz
x,y,z
-x,y,1/2-z
-x,-y,-z
x,-y,1/2+z
1/2+x,1/2+y,z
1/2-x,1/2+y,1/2-z
1/2-x,1/2-y,-z
1/2+x,1/2-y,1/2+z
loop_
_atom_site_type_symbol
_atom_site_label
_atom_site_fract_x
_atom_site_fract_y
_atom_site_fract_z
Si Si1 0.293803 0.894213 0.588463
Si Si2 0.272108 0.928061 0.945210
Si Si3 0.500000 0.261958 0.750000
Si Si4 0.000000 0.742759 0.250000
Si Si5 0.677526 0.908468 0.314771
Si Si6 0.049645 0.996125 0.308286
O O1 0.398278 0.831622 0.433428
O O2 0.224865 0.749952 0.695398
O O3 0.306650 0.996616 0.475649
O O4 0.248916 0.997959 0.752872
O O5 0.344834 0.980223 0.728937
O O6 0.250000 0.750000 0.000000
O O7 0.167388 0.004034 0.109005
O O8 0.494121 0.367058 0.670780
O O9 0.912983 0.641644 0.453463
O O10 0.967051 0.848517 0.225003
O O11 0.000000 0.000000 0.500000
#
# Coordination Sequence:
#
# PCOD9306210 Si02
#       6
#     8   8   4   4   8   8
#     4  12  26  47  75 108 150 197 251 312 385 452
#     4  12  27  49  78 113 147 201 254 316 387 459
#     4  11  27  46  70 116 148 204 248 312 384 444
#     4  11  25  46  70 116 148 202 250 316 384 450
#     4  12  26  47  74 106 156 193 255 315 376 459
#     4  11  25  45  76 111 156 195 256 311 384 455
#
# _framework density 23.269390999999999
#
# number of rings (size 3 to 8) (size 9 to 14) (size 15 to 20)
#    0.000    0.400    2.000    6.000   11.200    0.000 
#    0.000    3.000    0.000    0.000    0.000    0.000 
#    0.000    0.000    0.000    0.000    0.000    0.000 
#
# Total GULP energy -111974.608788 kJ/mol
# GULP energy per Si atom -5598.730439 kJ/mol
# Density = 2.321643 g / cm^3
# Si number density = 23.269391 Si / 1000 Ang^3
#
#
#
# Elastic Constant Matrix: (Units=GPa)
#
#
# Indices 1 2 3 4 5 6 
#
# 1 155.1936 61.6484 40.9053 0.0000 32.0643 0.0000
# 2 61.6484 162.2003 49.2916 0.0000 27.6381 0.0000
# 3 40.9053 49.2916 96.4902 0.0000 19.9886 0.0000
# 4 0.0000 0.0000 0.0000 28.2990 0.0000 2.0967
# 5 32.0643 27.6381 19.9886 0.0000 58.1266 0.0000
# 6 0.0000 0.0000 0.0000 2.0967 0.0000 40.3669
#
#
#
# Elastic Compliance Matrix: (Units=1/GPa)
#
#
# Indices 1 2 3 4 5 6 
#
# 1 0.008390 -0.002116 -0.001858 0.000000 -0.002983 0.000000
# 2 -0.002116 0.008144 -0.002910 0.000000 -0.001704 0.000000
# 3 -0.001858 -0.002910 0.013070 0.000000 -0.002086 0.000000
# 4 0.000000 0.000000 0.000000 0.035473 0.000000 -0.001843
# 5 -0.002983 -0.001704 -0.002086 0.000000 0.020377 0.000000
# 6 0.000000 0.000000 0.000000 -0.001843 0.000000 0.024868
#
#
# Mechanical properties :
#
#
# Convention : Reuss Voigt Hill
#
# Bulk Modulus (GPa) = 63.14648 79.73050 71.43849
# Shear Modulus (GPa) = 38.64851 42.82776 40.73814
#
# Velocity S-wave (km/s) = 4.07986 4.29478 4.18870
# Velocity P-wave (km/s) = 7.02778 7.67672 7.35941
#
# Compressibility (1/GPa) = 0.01583620
#
# Stress axis : x y z
#
# Youngs Moduli (GPa) = 119.18715 122.78510 76.50963
#
# Poissons Ratio (x) = 0.25981 0.14215
# Poissons Ratio (y) = 0.25219 0.22267
# Poissons Ratio (z) = 0.22144 0.35735
#
# Static dielectric constant tensor:
#      x y z
#    x 1.888370 0.000000 0.048470 
#    y 0.000000 1.917010 0.000000 
#    z 0.048470 0.000000 2.019510 
# 
# From -- ./inp_files/181020.got.cif
#   From: 2010.05.17/outbox.cif.g08.bks.cpg/sg15_91_cif.got.tgz:181020.got - 2010.06.03 18:47:42.
