data_PCOD9306942
_publ_section_title
;
Structure prediction by ZEFSAII (Michael W. Deem and Ramdas Pophale) SiO2 
 PCOD9306942
Probable space group: C 2/C
;
_chemical_formula_sum "Si O2"
_cell_formula_units_Z 40
_cell_length_a 15.025198
_cell_length_b 9.732886
_cell_length_c 15.133889
_cell_angle_alpha 90.000000
_cell_angle_beta 136.670131
_cell_angle_gamma 90.000000
_cell_volume 1518.663710
_symmetry_space_group_name_H-M "C 2/C"
_symmetry_group_IT_number 15
_symmetry_cell_setting 'monoclinic'
loop_
_space_group_symop_operation_xyz
x,y,z
-x,y,1/2-z
-x,-y,-z
x,-y,1/2+z
1/2+x,1/2+y,z
1/2-x,1/2+y,1/2-z
1/2-x,1/2-y,-z
1/2+x,1/2-y,1/2+z
loop_
_atom_site_type_symbol
_atom_site_label
_atom_site_fract_x
_atom_site_fract_y
_atom_site_fract_z
Si Si1 0.502128 0.743557 0.090827
Si Si2 0.515029 0.303494 0.387274
Si Si3 0.713679 0.530844 0.557066
Si Si4 0.500000 0.954327 0.750000
Si Si5 0.000000 0.500000 0.500000
Si Si6 0.301368 0.482382 0.743043
O O1 0.622948 0.660195 0.217624
O O2 0.519311 0.904285 0.104937
O O3 0.507967 0.729019 0.986863
O O4 0.373491 0.663851 0.027909
O O5 0.641057 0.397532 0.462764
O O6 0.504580 0.158673 0.333351
O O7 0.391217 0.395214 0.272214
O O8 0.697113 0.504842 0.650130
O O9 0.864028 0.533385 0.645647
O O10 0.842390 0.517539 0.395189
#
# Coordination Sequence:
#
# PCOD9306942 Si02
#       6
#     8   8   8   4   4   8
#     4   9  21  40  60  89 130 166 220 269 326 373
#     4   9  20  38  58  92 132 168 210 269 319 382
#     4   9  20  39  58  87 134 168 202 275 323 372
#     4  12  20  32  68 104 128 168 220 258 336 402
#     4  12  22  32  70  96 114 170 226 266 320 392
#     4   9  21  39  59  90 130 163 213 274 312 374
#
# _framework density 26.338944999999999
#
# number of rings (size 3 to 8) (size 9 to 14) (size 15 to 20)
#    0.000    2.400    0.000    4.200   11.200    0.000 
#    3.600    0.000    0.000    6.000    0.000    0.000 
#    0.000    0.000    0.000    0.000    0.000    0.000 
#
# Total GULP energy -111611.214130 kJ/mol
# GULP energy per Si atom -5580.560707 kJ/mol
# Density = 2.627900 g / cm^3
# Si number density = 26.338945 Si / 1000 Ang^3
#
#
#
# Elastic Constant Matrix: (Units=GPa)
#
#
# Indices 1 2 3 4 5 6 
#
# 1 86.1636 47.3507 54.4556 0.0000 39.1213 0.0000
# 2 47.3507 160.3517 59.9722 0.0000 22.3413 0.0000
# 3 54.4556 59.9722 184.0378 0.0000 59.9659 0.0000
# 4 0.0000 0.0000 0.0000 18.4388 0.0000 -9.1659
# 5 39.1213 22.3413 59.9659 0.0000 57.6132 0.0000
# 6 0.0000 0.0000 0.0000 -9.1659 0.0000 26.5600
#
#
#
# Elastic Compliance Matrix: (Units=1/GPa)
#
#
# Indices 1 2 3 4 5 6 
#
# 1 0.019063 -0.003801 -0.001006 0.000000 -0.010424 0.000000
# 2 -0.003801 0.007870 -0.001947 0.000000 0.001555 0.000000
# 3 -0.001006 -0.001947 0.008923 0.000000 -0.007850 0.000000
# 4 0.000000 0.000000 0.000000 0.065464 0.000000 0.022592
# 5 -0.010424 0.001555 -0.007850 0.000000 0.032003 0.000000
# 6 0.000000 0.000000 0.000000 0.022592 0.000000 0.045447
#
#
# Mechanical properties :
#
#
# Convention : Reuss Voigt Hill
#
# Bulk Modulus (GPa) = 44.74242 83.79001 64.26621
# Shear Modulus (GPa) = 25.03431 38.44071 31.73751
#
# Velocity S-wave (km/s) = 3.08631 3.82444 3.47503
# Velocity P-wave (km/s) = 5.45201 7.16820 6.36818
#
# Compressibility (1/GPa) = 0.02235016
#
# Stress axis : x y z
#
# Youngs Moduli (GPa) = 52.45835 127.06454 112.06467
#
# Poissons Ratio (x) = 0.48293 0.11269
# Poissons Ratio (y) = 0.19938 0.21816
# Poissons Ratio (z) = 0.05275 0.24736
#
# Static dielectric constant tensor:
#      x y z
#    x 2.162160 0.000000 -0.017930 
#    y 0.000000 0.345300 0.000000 
#    z -0.017930 0.000000 1.859640 
# 
# From -- ./inp_files/204266.got.cif
#   From: 2010.05.17/outbox.cif.g08.bks.cpg/sg15_103_cif.got.tgz:204266.got - 2010.06.03 18:47:42.
