data_PCOD9306951
_publ_section_title
;
Structure prediction by ZEFSAII (Michael W. Deem and Ramdas Pophale) SiO2 
 PCOD9306951
Probable space group: C 2/C
;
_chemical_formula_sum "Si O2"
_cell_formula_units_Z 36
_cell_length_a 9.522993
_cell_length_b 25.513636
_cell_length_c 9.839494
_cell_angle_alpha 90.000000
_cell_angle_beta 121.412988
_cell_angle_gamma 90.000000
_cell_volume 2040.270969
_symmetry_space_group_name_H-M "C 2/C"
_symmetry_group_IT_number 15
_symmetry_cell_setting 'monoclinic'
loop_
_space_group_symop_operation_xyz
x,y,z
-x,y,1/2-z
-x,-y,-z
x,-y,1/2+z
1/2+x,1/2+y,z
1/2-x,1/2+y,1/2-z
1/2-x,1/2-y,-z
1/2+x,1/2-y,1/2+z
loop_
_atom_site_type_symbol
_atom_site_label
_atom_site_fract_x
_atom_site_fract_y
_atom_site_fract_z
Si Si1 0.000000 0.128804 0.250000
Si Si2 0.875194 0.282149 0.467205
Si Si3 0.508618 0.561649 0.527256
Si Si4 0.747041 0.723002 0.351461
Si Si5 0.823654 0.883750 0.155728
O O1 0.157407 0.167093 0.317268
O O2 0.013647 0.093172 0.390243
O O3 0.750000 0.250000 0.500000
O O4 0.854553 0.256824 0.308011
O O5 0.818477 0.342367 0.428656
O O6 0.065005 0.279471 0.604436
O O7 0.500000 0.500000 0.500000
O O8 0.659572 0.580459 0.701366
O O9 0.351618 0.580223 0.538145
O O10 0.750000 0.750000 0.500000
O O11 0.000000 0.852315 0.250000
#
# Coordination Sequence:
#
# PCOD9306951 Si02
#       5
#     4   8   8   8   8
#     4  12  20  36  58  84 116 148 194 230 294 338
#     4  12  22  38  56  83 120 160 189 228 280 354
#     4   9  19  35  60  82 106 148 199 239 277 334
#     4  12  24  36  56  84 124 152 189 235 285 341
#     4   8  19  34  56  79 112 142 198 223 280 337
#
# _framework density 17.644717
#
# number of rings (size 3 to 8) (size 9 to 14) (size 15 to 20)
#    1.333    0.000    2.222    6.000    0.000    0.000 
#    0.000    0.000    0.000    8.000    0.000    0.000 
#    0.000    0.000    0.000    0.000    0.000    0.000 
#
# Total GULP energy -100286.946994 kJ/mol
# GULP energy per Si atom -5571.497055 kJ/mol
# Density = 1.760456 g / cm^3
# Si number density = 17.644717 Si / 1000 Ang^3
#
#
#
# Elastic Constant Matrix: (Units=GPa)
#
#
# Indices 1 2 3 4 5 6 
#
# 1 84.1881 45.6772 35.8644 0.0000 6.1131 0.0000
# 2 45.6772 148.3946 57.2845 0.0000 -14.6322 0.0000
# 3 35.8644 57.2845 94.9162 0.0000 -27.2630 0.0000
# 4 0.0000 0.0000 0.0000 21.9344 0.0000 0.4328
# 5 6.1131 -14.6322 -27.2630 0.0000 41.2971 0.0000
# 6 0.0000 0.0000 0.0000 0.4328 0.0000 20.0843
#
#
#
# Elastic Compliance Matrix: (Units=1/GPa)
#
#
# Indices 1 2 3 4 5 6 
#
# 1 0.017278 -0.003515 -0.006786 0.000000 -0.008283 0.000000
# 2 -0.003515 0.009509 -0.004064 0.000000 0.001207 0.000000
# 3 -0.006786 -0.004064 0.019037 0.000000 0.012132 0.000000
# 4 0.000000 0.000000 0.000000 0.045610 0.000000 -0.000983
# 5 -0.008283 0.001207 0.012132 0.000000 0.033878 0.000000
# 6 0.000000 0.000000 0.000000 -0.000983 0.000000 0.049811
#
#
# Mechanical properties :
#
#
# Convention : Reuss Voigt Hill
#
# Bulk Modulus (GPa) = 58.50306 67.23901 62.87104
# Shear Modulus (GPa) = 23.86060 29.24136 26.55098
#
# Velocity S-wave (km/s) = 3.68133 4.07533 3.88333
# Velocity P-wave (km/s) = 7.16224 7.76751 7.47101
#
# Compressibility (1/GPa) = 0.01709312
#
# Stress axis : x y z
#
# Youngs Moduli (GPa) = 57.87781 105.16811 52.52890
#
# Poissons Ratio (x) = 0.36971 0.35646
# Poissons Ratio (y) = 0.20346 0.21347
# Poissons Ratio (z) = 0.39276 0.42738
#
# Static dielectric constant tensor:
#      x y z
#    x 1.646410 0.000000 -0.011670 
#    y 0.000000 1.568210 0.000000 
#    z -0.011670 0.000000 1.610960 
# 
# From -- ./inp_files/23842.got.cif
#   From: 2010.05.17/outbox.cif.g08.bks.cpg/sg15_12_cif.got.tgz:23842.got - 2010.06.03 18:47:42.
