data_PCOD9306392
_publ_section_title
;
Structure prediction by ZEFSAII (Michael W. Deem and Ramdas Pophale) SiO2 
 PCOD9306392
Probable space group: C 2/C
;
_chemical_formula_sum "Si O2"
_cell_formula_units_Z 36
_cell_length_a 22.747330
_cell_length_b 8.051608
_cell_length_c 10.089890
_cell_angle_alpha 90.000000
_cell_angle_beta 134.279903
_cell_angle_gamma 90.000000
_cell_volume 1323.045236
_symmetry_space_group_name_H-M "C 2/C"
_symmetry_group_IT_number 15
_symmetry_cell_setting 'monoclinic'
loop_
_space_group_symop_operation_xyz
x,y,z
-x,y,1/2-z
-x,-y,-z
x,-y,1/2+z
1/2+x,1/2+y,z
1/2-x,1/2+y,1/2-z
1/2-x,1/2-y,-z
1/2+x,1/2-y,1/2+z
loop_
_atom_site_type_symbol
_atom_site_label
_atom_site_fract_x
_atom_site_fract_y
_atom_site_fract_z
Si Si1 0.822798 0.026641 0.035422
Si Si2 0.019053 0.307221 0.551652
Si Si3 0.000000 0.877974 0.750000
Si Si4 0.092386 0.351903 0.916320
Si Si5 0.265135 0.887007 0.836921
O O1 0.789351 0.034784 0.131092
O O2 0.792794 0.204039 0.924796
O O3 0.920274 0.026088 0.174440
O O4 0.783487 0.887287 0.878070
O O5 0.098565 0.291861 0.772957
O O6 0.000000 0.500000 0.500000
O O7 0.937051 0.243221 0.502732
O O8 0.027094 0.220907 0.423957
O O9 0.000000 0.428787 0.750000
O O10 0.157467 0.490070 0.054230
#
# Coordination Sequence:
#
# PCOD9306392 Si02
#       5
#     8   8   4   8   8
#     4  11  29  45  76  98 158 181 255 285 369 427
#     4   9  17  32  62  98 129 175 236 286 324 419
#     4  12  24  44  70 104 138 206 224 296 366 440
#     4   8  21  34  66 102 138 171 239 299 344 401
#     4  11  25  48  69 116 140 193 233 316 353 428
#
# _framework density 27.209955999999998
#
# number of rings (size 3 to 8) (size 9 to 14) (size 15 to 20)
#    1.333    0.444    0.000    4.000   14.000    1.778 
#    0.000    0.000    2.444    0.000    0.000    0.000 
#    0.000    0.000    0.000    0.000    0.000    0.000 
#
# Total GULP energy -100674.253999 kJ/mol
# GULP energy per Si atom -5593.014111 kJ/mol
# Density = 2.714802 g / cm^3
# Si number density = 27.209956 Si / 1000 Ang^3
#
#
#
# Elastic Constant Matrix: (Units=GPa)
#
#
# Indices 1 2 3 4 5 6 
#
# 1 139.6152 3.0736 32.6907 0.0000 2.5372 0.0000
# 2 3.0736 53.1920 -2.4269 0.0000 -3.9958 0.0000
# 3 32.6907 -2.4269 122.7107 0.0000 -15.8045 0.0000
# 4 0.0000 0.0000 0.0000 38.2005 0.0000 -10.6348
# 5 2.5372 -3.9958 -15.8045 0.0000 60.3846 0.0000
# 6 0.0000 0.0000 0.0000 -10.6348 0.0000 41.0356
#
#
#
# Elastic Compliance Matrix: (Units=1/GPa)
#
#
# Indices 1 2 3 4 5 6 
#
# 1 0.007705 -0.000615 -0.002185 0.000000 -0.000936 0.000000
# 2 -0.000615 0.018979 0.000729 0.000000 0.001473 0.000000
# 3 -0.002185 0.000729 0.009070 0.000000 0.002514 0.000000
# 4 0.000000 0.000000 0.000000 0.028213 0.000000 0.007312
# 5 -0.000936 0.001473 0.002514 0.000000 0.017355 0.000000
# 6 0.000000 0.000000 0.000000 0.007312 0.000000 0.026264
#
#
# Mechanical properties :
#
#
# Convention : Reuss Voigt Hill
#
# Bulk Modulus (GPa) = 31.63529 42.46585 37.05057
# Shear Modulus (GPa) = 40.89431 46.73616 43.81523
#
# Velocity S-wave (km/s) = 3.88095 4.14890 4.01716
# Velocity P-wave (km/s) = 5.63329 6.21223 5.92983
#
# Compressibility (1/GPa) = 0.03161027
#
# Stress axis : x y z
#
# Youngs Moduli (GPa) = 129.78907 52.68913 110.25810
#
# Poissons Ratio (x) = 0.03242 0.24095
# Poissons Ratio (y) = 0.07985 -0.08037
# Poissons Ratio (z) = 0.28364 -0.03841
#
# Static dielectric constant tensor:
#      x y z
#    x 2.362230 0.000000 -0.111360 
#    y 0.000000 2.242400 0.000000 
#    z -0.111360 0.000000 2.254720 
# 
# From -- ./inp_files/116589.got.cif
#   From: 2010.05.17/outbox.cif.g08.bks.cpg/sg15_59_cif.got.tgz:116589.got - 2010.06.03 18:47:42.
