data_PCOD9306532
_publ_section_title
;
Structure prediction by ZEFSAII (Michael W. Deem and Ramdas Pophale) SiO2 
 PCOD9306532
Probable space group: C 2/C
;
_chemical_formula_sum "Si O2"
_cell_formula_units_Z 36
_cell_length_a 10.007287
_cell_length_b 9.390012
_cell_length_c 15.415862
_cell_angle_alpha 90.000000
_cell_angle_beta 71.026475
_cell_angle_gamma 90.000000
_cell_volume 1369.901775
_symmetry_space_group_name_H-M "C 2/C"
_symmetry_group_IT_number 15
_symmetry_cell_setting 'monoclinic'
loop_
_space_group_symop_operation_xyz
x,y,z
-x,y,1/2-z
-x,-y,-z
x,-y,1/2+z
1/2+x,1/2+y,z
1/2-x,1/2+y,1/2-z
1/2-x,1/2-y,-z
1/2+x,1/2-y,1/2+z
loop_
_atom_site_type_symbol
_atom_site_label
_atom_site_fract_x
_atom_site_fract_y
_atom_site_fract_z
Si Si1 0.774344 0.826868 0.131039
Si Si2 0.038173 0.352137 0.040036
Si Si3 0.266505 0.287413 0.396792
Si Si4 0.229208 0.966315 0.720162
Si Si5 0.000000 0.398593 0.750000
O O1 0.891251 0.751855 0.046730
O O2 0.710199 0.698912 0.203200
O O3 0.653871 0.878182 0.090395
O O4 0.832068 0.948186 0.184067
O O5 0.305791 0.552582 0.859478
O O6 0.000000 0.500000 0.000000
O O7 0.895476 0.273994 0.100634
O O8 0.250000 0.250000 0.500000
O O9 0.387502 0.193424 0.327801
O O10 0.396514 0.980368 0.707570
#
# Coordination Sequence:
#
# PCOD9306532 Si02
#       5
#     8   8   8   8   4
#     4  11  26  48  88 119 163 217 277 339 423 496
#     4  11  25  51  83 120 162 219 276 342 414 498
#     4  12  28  48  83 116 160 217 267 337 416 484
#     4  12  25  50  81 117 162 216 270 340 414 489
#     4  12  28  54  78 116 168 216 274 344 410 498
#
# _framework density 26.279257000000001
#
# number of rings (size 3 to 8) (size 9 to 14) (size 15 to 20)
#    0.000    0.444    4.444    2.667    3.111    0.000 
#    4.000    2.222    0.000    0.000    0.000    0.000 
#    0.000    0.000    0.000    0.000    0.000    0.000 
#
# Total GULP energy -100814.111026 kJ/mol
# GULP energy per Si atom -5600.783946 kJ/mol
# Density = 2.621944 g / cm^3
# Si number density = 26.279257 Si / 1000 Ang^3
#
#
#
# Elastic Constant Matrix: (Units=GPa)
#
#
# Indices 1 2 3 4 5 6 
#
# 1 123.3499 39.6170 58.6921 0.0000 -4.7907 0.0000
# 2 39.6170 138.6398 65.8750 0.0000 2.7540 0.0000
# 3 58.6921 65.8750 190.4672 0.0000 -2.4473 0.0000
# 4 0.0000 0.0000 0.0000 49.9425 0.0000 7.4605
# 5 -4.7907 2.7540 -2.4473 0.0000 60.2006 0.0000
# 6 0.0000 0.0000 0.0000 7.4605 0.0000 51.4622
#
#
#
# Elastic Compliance Matrix: (Units=1/GPa)
#
#
# Indices 1 2 3 4 5 6 
#
# 1 0.009834 -0.001663 -0.002445 0.000000 0.000759 0.000000
# 2 -0.001663 0.008929 -0.002584 0.000000 -0.000646 0.000000
# 3 -0.002445 -0.002584 0.006900 0.000000 0.000204 0.000000
# 4 0.000000 0.000000 0.000000 0.020466 0.000000 -0.002967
# 5 0.000759 -0.000646 0.000204 0.000000 0.016709 0.000000
# 6 0.000000 0.000000 0.000000 -0.002967 0.000000 0.019862
#
#
# Mechanical properties :
#
#
# Convention : Reuss Voigt Hill
#
# Bulk Modulus (GPa) = 81.44660 86.75835 84.10247
# Shear Modulus (GPa) = 49.91090 51.53923 50.72507
#
# Velocity S-wave (km/s) = 4.36277 4.43336 4.39821
# Velocity P-wave (km/s) = 7.51255 7.70013 7.60691
#
# Compressibility (1/GPa) = 0.01227798
#
# Stress axis : x y z
#
# Youngs Moduli (GPa) = 101.68494 111.99705 144.92621
#
# Poissons Ratio (x) = 0.18629 0.35440
# Poissons Ratio (y) = 0.16914 0.37447
# Poissons Ratio (z) = 0.24866 0.28938
#
# Static dielectric constant tensor:
#      x y z
#    x 2.066180 0.000000 -0.009790 
#    y 0.000000 2.113650 0.000000 
#    z -0.009790 0.000000 2.182030 
# 
# From -- ./inp_files/241713.got.cif
#   From: 2010.05.17/outbox.cif.g08.bks.cpg/sg15_121_cif.got.tgz:241713.got - 2010.06.03 18:47:42.
