data_PCOD9306470
_publ_section_title
;
Structure prediction by ZEFSAII (Michael W. Deem and Ramdas Pophale) SiO2 
 PCOD9306470
Probable space group: C 2/C
;
_chemical_formula_sum "Si O2"
_cell_formula_units_Z 40
_cell_length_a 15.733135
_cell_length_b 12.048840
_cell_length_c 17.165390
_cell_angle_alpha 90.000000
_cell_angle_beta 145.717260
_cell_angle_gamma 90.000000
_cell_volume 1832.889689
_symmetry_space_group_name_H-M "C 2/C"
_symmetry_group_IT_number 15
_symmetry_cell_setting 'monoclinic'
loop_
_space_group_symop_operation_xyz
x,y,z
-x,y,1/2-z
-x,-y,-z
x,-y,1/2+z
1/2+x,1/2+y,z
1/2-x,1/2+y,1/2-z
1/2-x,1/2-y,-z
1/2+x,1/2-y,1/2+z
loop_
_atom_site_type_symbol
_atom_site_label
_atom_site_fract_x
_atom_site_fract_y
_atom_site_fract_z
Si Si1 0.653738 0.485791 0.567541
Si Si2 0.394592 0.860130 0.856112
Si Si3 0.173247 0.646068 0.901658
Si Si4 0.310842 0.008276 0.434869
Si Si5 0.533458 0.648318 0.688890
O O1 0.500000 0.500000 0.500000
O O2 0.780281 0.428086 0.715263
O O3 0.725591 0.600513 0.592379
O O4 0.609334 0.407769 0.461010
O O5 0.406610 0.739357 0.826910
O O6 0.335149 0.884243 0.898049
O O7 0.558676 0.917623 0.980090
O O8 0.000000 0.670114 0.750000
O O9 0.250000 0.750000 0.000000
O O10 0.174289 0.548582 0.966243
O O11 0.154504 0.949016 0.295694
O O12 0.500000 0.696473 0.750000
#
# Coordination Sequence:
#
# PCOD9306470 Si02
#       5
#     8   8   8   8   8
#     4  12  26  48  72 110 151 189 249 313 371 449
#     4  11  26  45  73 104 145 192 243 306 372 440
#     4  12  29  49  79 106 148 201 251 309 377 449
#     4  11  25  49  70 105 149 188 249 305 367 451
#     4  12  26  44  77 109 144 192 244 307 379 446
#
# _framework density 21.823461000000002
#
# number of rings (size 3 to 8) (size 9 to 14) (size 15 to 20)
#    0.000    0.400    6.000    1.200    8.400    1.600 
#    0.000    0.000    0.000    0.000    0.000    0.000 
#    0.000    0.000    0.000    0.000    0.000    0.000 
#
# Total GULP energy -111879.586453 kJ/mol
# GULP energy per Si atom -5593.979323 kJ/mol
# Density = 2.177379 g / cm^3
# Si number density = 21.823461 Si / 1000 Ang^3
#
#
#
# Elastic Constant Matrix: (Units=GPa)
#
#
# Indices 1 2 3 4 5 6 
#
# 1 100.5339 28.9043 26.3756 0.0000 3.2535 0.0000
# 2 28.9043 71.4398 13.5514 0.0000 7.9039 0.0000
# 3 26.3756 13.5514 119.8529 0.0000 -3.8077 0.0000
# 4 0.0000 0.0000 0.0000 39.5078 0.0000 -9.4771
# 5 3.2535 7.9039 -3.8077 0.0000 24.0806 0.0000
# 6 0.0000 0.0000 0.0000 -9.4771 0.0000 27.3065
#
#
#
# Elastic Compliance Matrix: (Units=1/GPa)
#
#
# Indices 1 2 3 4 5 6 
#
# 1 0.011754 -0.004298 -0.002117 0.000000 -0.000512 0.000000
# 2 -0.004298 0.016495 -0.001078 0.000000 -0.005004 0.000000
# 3 -0.002117 -0.001078 0.008997 0.000000 0.002063 0.000000
# 4 0.000000 0.000000 0.000000 0.027610 0.000000 0.009582
# 5 -0.000512 -0.005004 0.002063 0.000000 0.043565 0.000000
# 6 0.000000 0.000000 0.000000 0.009582 0.000000 0.039947
#
#
# Mechanical properties :
#
#
# Convention : Reuss Voigt Hill
#
# Bulk Modulus (GPa) = 44.92302 47.72100 46.32201
# Shear Modulus (GPa) = 29.27842 33.04532 31.16187
#
# Velocity S-wave (km/s) = 3.66676 3.89551 3.78286
# Velocity P-wave (km/s) = 6.20937 6.49212 6.35232
#
# Compressibility (1/GPa) = 0.02226030
#
# Stress axis : x y z
#
# Youngs Moduli (GPa) = 85.07388 60.62546 111.14921
#
# Poissons Ratio (x) = 0.26054 0.23532
# Poissons Ratio (y) = 0.36561 0.11984
# Poissons Ratio (z) = 0.18011 0.06537
#
# Static dielectric constant tensor:
#      x y z
#    x 1.945890 0.000000 0.012560 
#    y 0.000000 1.787310 0.000000 
#    z 0.012560 0.000000 1.729260 
# 
# From -- ./inp_files/210768.got.cif
#   From: 2010.05.17/outbox.cif.g08.bks.cpg/sg15_106_cif.got.tgz:210768.got - 2010.06.03 18:47:42.
