data_PCOD9306058
_publ_section_title
;
Structure prediction by ZEFSAII (Michael W. Deem and Ramdas Pophale) SiO2 
 PCOD9306058
Probable space group: C 2/C
;
_chemical_formula_sum "Si O2"
_cell_formula_units_Z 60
_cell_length_a 12.326907
_cell_length_b 15.243079
_cell_length_c 15.579098
_cell_angle_alpha 90.000000
_cell_angle_beta 63.824522
_cell_angle_gamma 90.000000
_cell_volume 2627.108799
_symmetry_space_group_name_H-M "C 2/C"
_symmetry_group_IT_number 15
_symmetry_cell_setting 'monoclinic'
loop_
_space_group_symop_operation_xyz
x,y,z
-x,y,1/2-z
-x,-y,-z
x,-y,1/2+z
1/2+x,1/2+y,z
1/2-x,1/2+y,1/2-z
1/2-x,1/2-y,-z
1/2+x,1/2-y,1/2+z
loop_
_atom_site_type_symbol
_atom_site_label
_atom_site_fract_x
_atom_site_fract_y
_atom_site_fract_z
Si Si1 0.776813 0.845076 0.530190
Si Si2 0.823740 0.918096 0.276261
Si Si3 0.631751 0.786556 0.735822
Si Si4 0.333481 0.818863 0.574435
Si Si5 0.500000 0.571719 0.250000
Si Si6 0.412472 0.300337 0.917226
Si Si7 0.358558 0.981139 0.047667
Si Si8 0.546344 0.588968 0.945641
O O1 0.750000 0.750000 0.500000
O O2 0.732050 0.837891 0.644732
O O3 0.699725 0.919303 0.505970
O O4 0.920502 0.860807 0.470323
O O5 0.855445 0.817838 0.288873
O O6 0.686306 0.935178 0.348824
O O7 0.869278 0.925603 0.164231
O O8 0.893683 0.999405 0.297577
O O9 0.500000 0.815002 0.750000
O O10 0.636992 0.801031 0.836510
O O11 0.433587 0.784714 0.470424
O O12 0.201464 0.777551 0.601931
O O13 0.311329 0.919996 0.563542
O O14 0.496837 0.640211 0.171175
O O15 0.378507 0.364125 0.007153
O O16 0.500000 0.000000 0.000000
O O17 0.500000 0.500000 0.000000
#
# Coordination Sequence:
#
# PCOD9306058 Si02
#       8
#     8   8   8   8   4   8   8   8
#     4  12  27  47  76 115 151 203 266 328 397 467
#     4  12  23  44  77 112 149 194 265 338 391 457
#     4  12  25  45  78 113 153 206 268 331 398 475
#     4  11  26  48  66 106 158 201 251 315 399 482
#     4  12  22  44  76 114 144 196 262 342 390 448
#     4  11  25  43  72 107 153 198 248 320 397 472
#     4  12  27  49  72 105 163 202 249 323 403 477
#     4  12  25  44  77 114 148 194 270 329 385 461
#
# _framework density 22.838795999999999
#
# number of rings (size 3 to 8) (size 9 to 14) (size 15 to 20)
#    0.000    0.267    6.000    3.200    5.600    0.000 
#    0.000    0.000    1.467    0.000    0.000    0.000 
#    0.000    0.000    0.000    0.000    0.000    0.000 
#
# Total GULP energy -167373.623243 kJ/mol
# GULP energy per Si atom -5579.120775 kJ/mol
# Density = 2.278681 g / cm^3
# Si number density = 22.838796 Si / 1000 Ang^3
#
#
#
# Elastic Constant Matrix: (Units=GPa)
#
#
# Indices 1 2 3 4 5 6 
#
# 1 115.1361 25.5611 52.6228 0.0000 7.3548 0.0000
# 2 25.5611 132.9193 51.4811 0.0000 7.8121 0.0000
# 3 52.6228 51.4811 161.7839 0.0000 4.6179 0.0000
# 4 0.0000 0.0000 0.0000 40.7919 0.0000 2.6276
# 5 7.3548 7.8121 4.6179 0.0000 38.1297 0.0000
# 6 0.0000 0.0000 0.0000 2.6276 0.0000 32.6710
#
#
#
# Elastic Compliance Matrix: (Units=1/GPa)
#
#
# Indices 1 2 3 4 5 6 
#
# 1 0.010353 -0.000703 -0.003102 0.000000 -0.001477 0.000000
# 2 -0.000703 0.008707 -0.002504 0.000000 -0.001345 0.000000
# 3 -0.003102 -0.002504 0.007983 0.000000 0.000145 0.000000
# 4 0.000000 0.000000 0.000000 0.024642 0.000000 -0.001982
# 5 -0.001477 -0.001345 0.000145 0.000000 0.026769 0.000000
# 6 0.000000 0.000000 0.000000 -0.001982 0.000000 0.030768
#
#
# Mechanical properties :
#
#
# Convention : Reuss Voigt Hill
#
# Bulk Modulus (GPa) = 69.31644 74.35216 71.83430
# Shear Modulus (GPa) = 39.47940 40.99679 40.23810
#
# Velocity S-wave (km/s) = 4.16217 4.24140 4.20197
# Velocity P-wave (km/s) = 7.31535 7.52408 7.42045
#
# Compressibility (1/GPa) = 0.01442659
#
# Stress axis : x y z
#
# Youngs Moduli (GPa) = 96.58608 114.84601 125.27264
#
# Poissons Ratio (x) = 0.08072 0.38857
# Poissons Ratio (y) = 0.06788 0.31365
# Poissons Ratio (z) = 0.29959 0.28755
#
# Static dielectric constant tensor:
#      x y z
#    x 1.810530 0.000000 -0.142720 
#    y 0.000000 1.863900 0.000000 
#    z -0.142720 0.000000 1.903890 
# 
# From -- ./inp_files/154238.got.cif
#   From: 2010.05.17/outbox.cif.g08.bks.cpg/sg15_78_cif.got.tgz:154238.got - 2010.06.03 18:47:42.
