data_PCOD9306530
_publ_section_title
;
Structure prediction by ZEFSAII (Michael W. Deem and Ramdas Pophale) SiO2 
 PCOD9306530
Probable space group: C 2/C
;
_chemical_formula_sum "Si O2"
_cell_formula_units_Z 32
_cell_length_a 18.977610
_cell_length_b 5.060473
_cell_length_c 13.362717
_cell_angle_alpha 90.000000
_cell_angle_beta 109.244546
_cell_angle_gamma 90.000000
_cell_volume 1211.587494
_symmetry_space_group_name_H-M "C 2/C"
_symmetry_group_IT_number 15
_symmetry_cell_setting 'monoclinic'
loop_
_space_group_symop_operation_xyz
x,y,z
-x,y,1/2-z
-x,-y,-z
x,-y,1/2+z
1/2+x,1/2+y,z
1/2-x,1/2+y,1/2-z
1/2-x,1/2-y,-z
1/2+x,1/2-y,1/2+z
loop_
_atom_site_type_symbol
_atom_site_label
_atom_site_fract_x
_atom_site_fract_y
_atom_site_fract_z
Si Si1 0.325475 0.231290 0.336350
Si Si2 0.429090 0.723206 0.411647
Si Si3 0.454642 0.920852 0.634515
Si Si4 0.783470 0.566944 0.102405
O O1 0.387427 0.460345 0.361424
O O2 0.268399 0.316068 0.396751
O O3 0.285347 0.217345 0.210481
O O4 0.368949 0.961206 0.375449
O O5 0.498398 0.825718 0.379690
O O6 0.451802 0.725453 0.538673
O O7 0.500000 0.811037 0.750000
O O8 0.370028 0.994279 0.622066
O O9 0.750000 0.750000 0.000000
#
# Coordination Sequence:
#
# PCOD9306530 Si02
#       4
#     8   8   8   8
#     4  12  27  53  76 117 157 206 266 325 383 481
#     4  11  27  52  79 114 157 202 265 324 387 473
#     4  11  25  51  76 119 149 211 254 325 391 467
#     4  12  27  51  82 117 160 212 261 326 401 461
#
# _framework density 26.411631
#
# number of rings (size 3 to 8) (size 9 to 14) (size 15 to 20)
#    0.000    0.500    5.000    1.500    0.000    7.000 
#    4.500    0.000    0.000    0.000    0.000    0.000 
#    0.000    0.000    0.000    0.000    0.000    0.000 
#
# Total GULP energy -89950.358568 kJ/mol
# GULP energy per Si atom -5621.897411 kJ/mol
# Density = 2.635152 g / cm^3
# Si number density = 26.411631 Si / 1000 Ang^3
#
#
#
# Elastic Constant Matrix: (Units=GPa)
#
#
# Indices 1 2 3 4 5 6 
#
# 1 249.4127 35.6984 40.1518 0.0000 1.7370 0.0000
# 2 35.6984 124.7134 53.2880 0.0000 24.4632 0.0000
# 3 40.1518 53.2880 200.7364 0.0000 13.5481 0.0000
# 4 0.0000 0.0000 0.0000 36.6609 0.0000 11.5873
# 5 1.7370 24.4632 13.5481 0.0000 53.6825 0.0000
# 6 0.0000 0.0000 0.0000 11.5873 0.0000 38.4278
#
#
#
# Elastic Compliance Matrix: (Units=1/GPa)
#
#
# Indices 1 2 3 4 5 6 
#
# 1 0.004254 -0.001057 -0.000604 0.000000 0.000496 0.000000
# 2 -0.001057 0.010036 -0.002184 0.000000 -0.003988 0.000000
# 3 -0.000604 -0.002184 0.005711 0.000000 -0.000427 0.000000
# 4 0.000000 0.000000 0.000000 0.030151 0.000000 -0.009091
# 5 0.000496 -0.003988 -0.000427 0.000000 0.020537 0.000000
# 6 0.000000 0.000000 0.000000 -0.009091 0.000000 0.028764
#
#
# Mechanical properties :
#
#
# Convention : Reuss Voigt Hill
#
# Bulk Modulus (GPa) = 81.21903 92.57098 86.89501
# Shear Modulus (GPa) = 44.94502 55.46921 50.20711
#
# Velocity S-wave (km/s) = 4.12966 4.58774 4.36472
# Velocity P-wave (km/s) = 7.31825 7.94913 7.64020
#
# Compressibility (1/GPa) = 0.01231239
#
# Stress axis : x y z
#
# Youngs Moduli (GPa) = 235.04589 99.63779 175.10340
#
# Poissons Ratio (x) = 0.10534 0.10574
# Poissons Ratio (y) = 0.24849 0.38236
# Poissons Ratio (z) = 0.14193 0.21757
#
# Static dielectric constant tensor:
#      x y z
#    x 2.075280 0.000000 -0.012550 
#    y 0.000000 2.063230 0.000000 
#    z -0.012550 0.000000 2.078820 
# 
# From -- ./inp_files/115721.got.cif
#   From: 2010.05.17/outbox.cif.g08.bks.cpg/sg15_58_cif.got.tgz:115721.got - 2010.06.03 18:47:42.
