data_PCOD9306266
_publ_section_title
;
Structure prediction by ZEFSAII (Michael W. Deem and Ramdas Pophale) SiO2 
 PCOD9306266
Probable space group: C 2/C
;
_chemical_formula_sum "Si O2"
_cell_formula_units_Z 48
_cell_length_a 10.849299
_cell_length_b 22.091431
_cell_length_c 8.991163
_cell_angle_alpha 90.000000
_cell_angle_beta 76.719500
_cell_angle_gamma 90.000000
_cell_volume 2097.340696
_symmetry_space_group_name_H-M "C 2/C"
_symmetry_group_IT_number 15
_symmetry_cell_setting 'monoclinic'
loop_
_space_group_symop_operation_xyz
x,y,z
-x,y,1/2-z
-x,-y,-z
x,-y,1/2+z
1/2+x,1/2+y,z
1/2-x,1/2+y,1/2-z
1/2-x,1/2-y,-z
1/2+x,1/2-y,1/2+z
loop_
_atom_site_type_symbol
_atom_site_label
_atom_site_fract_x
_atom_site_fract_y
_atom_site_fract_z
Si Si1 0.444710 0.304190 0.100855
Si Si2 0.520045 0.935315 0.416860
Si Si3 0.620403 0.367354 0.823370
Si Si4 0.359637 0.517542 0.990167
Si Si5 0.603771 0.169179 0.359140
Si Si6 0.782718 0.078250 0.719434
O O1 0.500000 0.299953 0.250000
O O2 0.399856 0.237048 0.074540
O O3 0.346729 0.360158 0.144016
O O4 0.555244 0.322318 0.957879
O O5 0.500000 0.947044 0.250000
O O6 0.439358 0.883102 0.516072
O O7 0.336960 0.909943 0.140603
O O8 0.500000 0.000000 0.500000
O O9 0.500000 0.383273 0.750000
O O10 0.748428 0.341227 0.719031
O O11 0.668870 0.424436 0.902446
O O12 0.357904 0.536406 0.818504
O O13 0.500000 0.500000 0.000000
O O14 0.270656 0.463447 0.074684
O O15 0.500000 0.165448 0.250000
#
# Coordination Sequence:
#
# PCOD9306266 Si02
#       6
#     8   8   8   8   8   8
#     4  11  25  46  72 105 144 196 245 298 365 440
#     4  12  27  48  76 106 146 196 245 302 365 440
#     4  12  26  44  71 105 147 182 241 307 365 428
#     4  12  22  40  68 105 138 180 234 300 366 420
#     4  11  28  49  74 105 148 197 246 295 368 441
#     4  12  24  43  72 101 146 185 245 299 364 431
#
# _framework density 22.886123999999999
#
# number of rings (size 3 to 8) (size 9 to 14) (size 15 to 20)
#    0.000    0.333    3.333    5.000    4.667    2.667 
#    0.000    0.000    0.000    0.000    0.000    0.000 
#    0.000    0.000    0.000    0.000    0.000    0.000 
#
# Total GULP energy -134050.604148 kJ/mol
# GULP energy per Si atom -5585.441840 kJ/mol
# Density = 2.283403 g / cm^3
# Si number density = 22.886124 Si / 1000 Ang^3
#
#
#
# Elastic Constant Matrix: (Units=GPa)
#
#
# Indices 1 2 3 4 5 6 
#
# 1 134.6267 62.1339 55.7170 0.0000 -46.6578 0.0000
# 2 62.1339 231.1054 88.1125 0.0000 -46.1801 0.0000
# 3 55.7170 88.1125 130.0829 0.0000 -22.9589 0.0000
# 4 0.0000 0.0000 0.0000 533.2758 0.0000 -571.6811
# 5 -46.6578 -46.1801 -22.9589 0.0000 63.3330 0.0000
# 6 0.0000 0.0000 0.0000 -571.6811 0.0000 661.2832
#
#
#
# Elastic Compliance Matrix: (Units=1/GPa)
#
#
# Indices 1 2 3 4 5 6 
#
# 1 0.011402 -0.000393 -0.003403 0.000000 0.006880 0.000000
# 2 -0.000393 0.006440 -0.003650 0.000000 0.003083 0.000000
# 3 -0.003403 -0.003650 0.011437 0.000000 -0.001022 0.000000
# 4 0.000000 0.000000 0.000000 0.025604 0.000000 0.022135
# 5 0.006880 0.003083 -0.001022 0.000000 0.022735 0.000000
# 6 0.000000 0.000000 0.000000 0.022135 0.000000 0.020648
#
#
# Mechanical properties :
#
#
# Convention : Reuss Voigt Hill
#
# Bulk Modulus (GPa) = 69.50805 100.86021 85.18413
# Shear Modulus (GPa) = 42.38897 270.90186 156.64541
#
# Velocity S-wave (km/s) = 4.30835 10.89158 8.28216
# Velocity P-wave (km/s) = 7.42875 14.22444 11.34727
#
# Compressibility (1/GPa) = 0.01438682
#
# Stress axis : x y z
#
# Youngs Moduli (GPa) = 87.70254 155.26901 87.43704
#
# Poissons Ratio (x) = 0.06107 0.29756
# Poissons Ratio (y) = 0.03450 0.31913
# Poissons Ratio (z) = 0.29846 0.56670
#
# Static dielectric constant tensor:
#      x y z
#    x 2.157470 0.000000 0.160820 
#    y 0.000000 1.867230 0.000000 
#    z 0.160820 0.000000 2.120380 
# 
# From -- ./inp_files/32035.got.cif
#   From: 2010.05.17/outbox.cif.g08.bks.cpg/sg15_17_cif.got.tgz:32035.got - 2010.06.03 18:47:42.
