data_PCOD9306958
_publ_section_title
;
Structure prediction by ZEFSAII (Michael W. Deem and Ramdas Pophale) SiO2 
 PCOD9306958
Probable space group: C 2/C
;
_chemical_formula_sum "Si O2"
_cell_formula_units_Z 60
_cell_length_a 11.947171
_cell_length_b 16.965042
_cell_length_c 15.478414
_cell_angle_alpha 90.000000
_cell_angle_beta 111.075005
_cell_angle_gamma 90.000000
_cell_volume 2927.383028
_symmetry_space_group_name_H-M "C 2/C"
_symmetry_group_IT_number 15
_symmetry_cell_setting 'monoclinic'
loop_
_space_group_symop_operation_xyz
x,y,z
-x,y,1/2-z
-x,-y,-z
x,-y,1/2+z
1/2+x,1/2+y,z
1/2-x,1/2+y,1/2-z
1/2-x,1/2-y,-z
1/2+x,1/2-y,1/2+z
loop_
_atom_site_type_symbol
_atom_site_label
_atom_site_fract_x
_atom_site_fract_y
_atom_site_fract_z
Si Si1 0.107681 0.255769 0.964465
Si Si2 0.226368 0.291888 0.714804
Si Si3 0.282754 0.664224 0.046466
Si Si4 0.256257 0.049770 0.625653
Si Si5 0.886140 0.393152 0.665291
Si Si6 0.060457 0.863911 0.173464
Si Si7 0.000000 0.620282 0.750000
Si Si8 0.975730 0.758759 0.864923
O O1 0.073396 0.333023 0.898784
O O2 0.046427 0.177185 0.909612
O O3 0.250000 0.250000 0.000000
O O4 0.068072 0.260034 0.051662
O O5 0.215779 0.336498 0.620232
O O6 0.178211 0.340150 0.781513
O O7 0.158395 0.207911 0.700021
O O8 0.366082 0.280349 0.772618
O O9 0.424863 0.673315 0.102794
O O10 0.250000 0.750000 0.000000
O O11 0.256159 0.599703 0.966452
O O12 0.134654 0.066272 0.646984
O O13 0.371485 0.076804 0.715615
O O14 0.293757 0.960783 0.612008
O O15 0.000000 0.425847 0.750000
O O16 0.000000 0.881437 0.250000
O O17 0.980231 0.676741 0.662413
#
# Coordination Sequence:
#
# PCOD9306958 Si02
#       8
#     8   8   8   8   8   8   4   8
#     4  12  23  40  69 102 130 179 244 289 342 427
#     4  12  21  41  68  99 132 183 241 286 347 421
#     4  12  21  38  68 100 135 181 233 285 349 425
#     4  12  26  44  65 106 145 179 231 302 363 419
#     4  12  26  46  67 100 147 185 229 298 372 418
#     4  12  21  41  72  99 132 187 241 289 338 426
#     4  12  22  38  66  98 136 170 226 294 344 414
#     4  12  20  37  68 102 127 171 240 291 328 410
#
# _framework density 20.496122
#
# number of rings (size 3 to 8) (size 9 to 14) (size 15 to 20)
#    0.000    0.000   11.333    0.000    0.000    0.000 
#    2.400    5.333    0.000    0.000    0.000    0.000 
#    0.000    0.000    0.000    0.000    0.000    0.000 
#
# Total GULP energy -167430.386938 kJ/mol
# GULP energy per Si atom -5581.012898 kJ/mol
# Density = 2.044947 g / cm^3
# Si number density = 20.496122 Si / 1000 Ang^3
#
#
#
# Elastic Constant Matrix: (Units=GPa)
#
#
# Indices 1 2 3 4 5 6 
#
# 1 98.5676 8.1255 29.0469 0.0000 -2.1552 0.0000
# 2 8.1255 37.0016 7.9603 0.0000 -8.9444 0.0000
# 3 29.0469 7.9603 96.0581 0.0000 -23.6338 0.0000
# 4 0.0000 0.0000 0.0000 12.2253 0.0000 8.4300
# 5 -2.1552 -8.9444 -23.6338 0.0000 61.4167 0.0000
# 6 0.0000 0.0000 0.0000 8.4300 0.0000 18.8140
#
#
#
# Elastic Compliance Matrix: (Units=1/GPa)
#
#
# Indices 1 2 3 4 5 6 
#
# 1 0.011338 -0.002029 -0.003573 0.000000 -0.001273 0.000000
# 2 -0.002029 0.028560 -0.000826 0.000000 0.003770 0.000000
# 3 -0.003573 -0.000826 0.012701 0.000000 0.004642 0.000000
# 4 0.000000 0.000000 0.000000 0.118371 0.000000 -0.053039
# 5 -0.001273 0.003770 0.004642 0.000000 0.018573 0.000000
# 6 0.000000 0.000000 0.000000 -0.053039 0.000000 0.076917
#
#
# Mechanical properties :
#
#
# Convention : Reuss Voigt Hill
#
# Bulk Modulus (GPa) = 25.16091 35.76586 30.46338
# Shear Modulus (GPa) = 17.09026 30.92417 24.00722
#
# Velocity S-wave (km/s) = 2.89074 3.88852 3.42615
# Velocity P-wave (km/s) = 4.84195 6.13585 5.52690
#
# Compressibility (1/GPa) = 0.03974419
#
# Stress axis : x y z
#
# Youngs Moduli (GPa) = 88.20065 35.01345 78.73109
#
# Poissons Ratio (x) = 0.07103 0.28134
# Poissons Ratio (y) = 0.17893 0.06501
# Poissons Ratio (z) = 0.31518 0.02891
#
# Static dielectric constant tensor:
#      x y z
#    x 1.815590 0.000000 0.054780 
#    y 0.000000 1.749460 0.000000 
#    z 0.054780 0.000000 1.750540 
# 
# From -- ./inp_files/146112.got.cif
#   From: 2010.05.17/outbox.cif.g08.bks.cpg/sg15_74_cif.got.tgz:146112.got - 2010.06.03 18:47:42.
