data_PCOD9306416
_publ_section_title
;
Structure prediction by ZEFSAII (Michael W. Deem and Ramdas Pophale) SiO2 
 PCOD9306416
Probable space group: C 2/C
;
_chemical_formula_sum "Si O2"
_cell_formula_units_Z 44
_cell_length_a 10.718491
_cell_length_b 11.370845
_cell_length_c 18.590565
_cell_angle_alpha 90.000000
_cell_angle_beta 54.021673
_cell_angle_gamma 90.000000
_cell_volume 1833.563388
_symmetry_space_group_name_H-M "C 2/C"
_symmetry_group_IT_number 15
_symmetry_cell_setting 'monoclinic'
loop_
_space_group_symop_operation_xyz
x,y,z
-x,y,1/2-z
-x,-y,-z
x,-y,1/2+z
1/2+x,1/2+y,z
1/2-x,1/2+y,1/2-z
1/2-x,1/2-y,-z
1/2+x,1/2-y,1/2+z
loop_
_atom_site_type_symbol
_atom_site_label
_atom_site_fract_x
_atom_site_fract_y
_atom_site_fract_z
Si Si1 0.654317 0.921965 0.393842
Si Si2 0.470273 0.827835 0.577216
Si Si3 0.218021 0.243113 0.263518
Si Si4 0.000000 0.649571 0.750000
Si Si5 0.714366 0.476196 0.865677
Si Si6 0.613419 0.592406 0.558387
O O1 0.534337 0.832824 0.474009
O O2 0.751275 0.859182 0.298955
O O3 0.775834 0.952596 0.415765
O O4 0.556113 0.033091 0.399338
O O5 0.307510 0.777438 0.658829
O O6 0.582198 0.733161 0.577822
O O7 0.250591 0.134053 0.302945
O O8 0.041863 0.266215 0.301993
O O9 0.144872 0.566308 0.686484
O O10 0.553081 0.530950 0.892342
O O11 0.691074 0.434575 0.955377
#
# Coordination Sequence:
#
# PCOD9306416 Si02
#       6
#     8   8   8   4   8   8
#     4  11  27  47  80 109 151 197 252 316 379 454
#     4  11  25  48  72 113 146 198 253 299 389 450
#     4  12  27  48  76 110 147 198 252 310 387 444
#     4  12  28  50  72 114 156 200 254 326 368 460
#     4  11  27  46  75 108 150 200 252 308 389 446
#     4  11  25  49  74 111 149 199 252 312 376 462
#
# _framework density 23.996988000000002
#
# number of rings (size 3 to 8) (size 9 to 14) (size 15 to 20)
#    0.000    0.727    3.636    1.636   10.182    0.727 
#    0.000    4.545    0.000    0.000    0.000    0.000 
#    0.000    0.000    0.000    0.000    0.000    0.000 
#
# Total GULP energy -122825.302092 kJ/mol
# GULP energy per Si atom -5582.968277 kJ/mol
# Density = 2.394237 g / cm^3
# Si number density = 23.996988 Si / 1000 Ang^3
#
#
#
# Elastic Constant Matrix: (Units=GPa)
#
#
# Indices 1 2 3 4 5 6 
#
# 1 102.7639 0.9366 33.2937 0.0000 -2.6149 0.0000
# 2 0.9366 60.7648 20.9926 0.0000 -10.4909 0.0000
# 3 33.2937 20.9926 109.6756 0.0000 -12.6214 0.0000
# 4 0.0000 0.0000 0.0000 32.4586 0.0000 -10.9175
# 5 -2.6149 -10.4909 -12.6214 0.0000 32.7879 0.0000
# 6 0.0000 0.0000 0.0000 -10.9175 0.0000 29.8726
#
#
#
# Elastic Compliance Matrix: (Units=1/GPa)
#
#
# Indices 1 2 3 4 5 6 
#
# 1 0.010854 0.001017 -0.003508 0.000000 -0.000159 0.000000
# 2 0.001017 0.018388 -0.003288 0.000000 0.004699 0.000000
# 3 -0.003508 -0.003288 0.011153 0.000000 0.002961 0.000000
# 4 0.000000 0.000000 0.000000 0.035126 0.000000 0.012838
# 5 -0.000159 0.004699 0.002961 0.000000 0.033130 0.000000
# 6 0.000000 0.000000 0.000000 0.012838 0.000000 0.038167
#
#
# Mechanical properties :
#
#
# Convention : Reuss Voigt Hill
#
# Bulk Modulus (GPa) = 34.67607 42.62780 38.65194
# Shear Modulus (GPa) = 29.76393 33.55593 31.65993
#
# Velocity S-wave (km/s) = 3.52564 3.74349 3.63620
# Velocity P-wave (km/s) = 5.57270 6.04048 5.81130
#
# Compressibility (1/GPa) = 0.02883833
#
# Stress axis : x y z
#
# Youngs Moduli (GPa) = 92.12989 54.38244 89.66378
#
# Poissons Ratio (x) = -0.05531 0.31454
# Poissons Ratio (y) = -0.09371 0.29478
# Poissons Ratio (z) = 0.32319 0.17879
#
# Static dielectric constant tensor:
#      x y z
#    x 1.945380 0.000000 0.005130 
#    y 0.000000 1.940290 0.000000 
#    z 0.005130 0.000000 1.943380 
# 
# From -- ./inp_files/236805.got.cif
#   From: 2010.05.17/outbox.cif.g08.bks.cpg/sg15_119_cif.got.tgz:236805.got - 2010.06.03 18:47:42.
