data_PCOD9306897
_publ_section_title
;
Structure prediction by ZEFSAII (Michael W. Deem and Ramdas Pophale) SiO2 
 PCOD9306897
Probable space group: C 2/C
;
_chemical_formula_sum "Si O2"
_cell_formula_units_Z 40
_cell_length_a 7.588133
_cell_length_b 26.578549
_cell_length_c 10.028609
_cell_angle_alpha 90.000000
_cell_angle_beta 128.269923
_cell_angle_gamma 90.000000
_cell_volume 1587.935178
_symmetry_space_group_name_H-M "C 2/C"
_symmetry_group_IT_number 15
_symmetry_cell_setting 'monoclinic'
loop_
_space_group_symop_operation_xyz
x,y,z
-x,y,1/2-z
-x,-y,-z
x,-y,1/2+z
1/2+x,1/2+y,z
1/2-x,1/2+y,1/2-z
1/2-x,1/2-y,-z
1/2+x,1/2-y,1/2+z
loop_
_atom_site_type_symbol
_atom_site_label
_atom_site_fract_x
_atom_site_fract_y
_atom_site_fract_z
Si Si1 0.772494 0.737146 0.663252
Si Si2 0.282160 0.153527 0.241129
Si Si3 0.668731 0.503435 0.952340
Si Si4 0.083123 0.136992 0.640223
Si Si5 0.522164 0.080717 0.555324
O O1 0.750000 0.750000 0.500000
O O2 0.783750 0.789811 0.745648
O O3 0.604917 0.697607 0.644923
O O4 0.000000 0.706102 0.750000
O O5 0.500000 0.158120 0.250000
O O6 0.367557 0.121946 0.407839
O O7 0.081463 0.127614 0.062349
O O8 0.500000 0.497113 0.750000
O O9 0.822379 0.552480 0.985770
O O10 0.500000 0.500000 0.000000
O O11 0.855589 0.460262 0.038192
O O12 0.311603 0.105662 0.759074
O O13 0.000000 0.127014 0.750000
#
# Coordination Sequence:
#
# PCOD9306897 Si02
#       5
#     8   8   8   8   8
#     4  12  26  49  71 113 165 218 275 336 404 490
#     4  12  27  48  81 115 162 217 280 340 418 500
#     4  11  29  56  87 120 166 216 279 358 437 510
#     4  12  26  49  80 114 164 217 275 334 415 498
#     4  11  28  54  83 124 164 216 279 349 427 512
#
# _framework density 25.189945999999999
#
# number of rings (size 3 to 8) (size 9 to 14) (size 15 to 20)
#    0.000    0.400    4.000    2.400    2.800    4.800 
#   21.600    3.000    0.000    0.000    0.000    0.000 
#    0.000    0.000    0.000    0.000    0.000    0.000 
#
# Total GULP energy -111753.511865 kJ/mol
# GULP energy per Si atom -5587.675593 kJ/mol
# Density = 2.513261 g / cm^3
# Si number density = 25.189946 Si / 1000 Ang^3
#
#
#
# Elastic Constant Matrix: (Units=GPa)
#
#
# Indices 1 2 3 4 5 6 
#
# 1 153.9059 56.8354 50.0789 0.0000 -5.4138 0.0000
# 2 56.8354 158.3418 59.5250 0.0000 11.7743 0.0000
# 3 50.0789 59.5250 183.2931 0.0000 19.6351 0.0000
# 4 0.0000 0.0000 0.0000 38.3836 0.0000 8.1750
# 5 -5.4138 11.7743 19.6351 0.0000 38.3510 0.0000
# 6 0.0000 0.0000 0.0000 8.1750 0.0000 42.6110
#
#
#
# Elastic Compliance Matrix: (Units=1/GPa)
#
#
# Indices 1 2 3 4 5 6 
#
# 1 0.008055 -0.002458 -0.001698 0.000000 0.002761 0.000000
# 2 -0.002458 0.007986 -0.001716 0.000000 -0.001920 0.000000
# 3 -0.001698 -0.001716 0.006820 0.000000 -0.003205 0.000000
# 4 0.000000 0.000000 0.000000 0.027163 0.000000 -0.005211
# 5 0.002761 -0.001920 -0.003205 0.000000 0.028695 0.000000
# 6 0.000000 0.000000 0.000000 -0.005211 0.000000 0.024468
#
#
# Mechanical properties :
#
#
# Convention : Reuss Voigt Hill
#
# Bulk Modulus (GPa) = 89.96036 92.04663 91.00349
# Shear Modulus (GPa) = 42.14537 45.80920 43.97728
#
# Velocity S-wave (km/s) = 4.09480 4.26907 4.18284
# Velocity P-wave (km/s) = 7.62540 7.80515 7.71580
#
# Compressibility (1/GPa) = 0.01111601
#
# Stress axis : x y z
#
# Youngs Moduli (GPa) = 124.14709 125.22404 146.62014
#
# Poissons Ratio (x) = 0.30782 0.24900
# Poissons Ratio (y) = 0.30517 0.25161
# Poissons Ratio (z) = 0.21083 0.21489
#
# Static dielectric constant tensor:
#      x y z
#    x 2.030600 0.000000 0.070210 
#    y 0.000000 1.992300 0.000000 
#    z 0.070210 0.000000 1.994160 
# 
# From -- ./inp_files/74083.got.cif
#   From: 2010.05.17/outbox.cif.g08.bks.cpg/sg15_38_cif.got.tgz:74083.got - 2010.06.03 18:47:42.
