data_PCOD9306354
_publ_section_title
;
Structure prediction by ZEFSAII (Michael W. Deem and Ramdas Pophale) SiO2 
 PCOD9306354
Probable space group: C 2/C
;
_chemical_formula_sum "Si O2"
_cell_formula_units_Z 24
_cell_length_a 12.101815
_cell_length_b 7.919168
_cell_length_c 26.642713
_cell_angle_alpha 90.000000
_cell_angle_beta 158.968157
_cell_angle_gamma 90.000000
_cell_volume 916.359595
_symmetry_space_group_name_H-M "C 2/C"
_symmetry_group_IT_number 15
_symmetry_cell_setting 'monoclinic'
loop_
_space_group_symop_operation_xyz
x,y,z
-x,y,1/2-z
-x,-y,-z
x,-y,1/2+z
1/2+x,1/2+y,z
1/2-x,1/2+y,1/2-z
1/2-x,1/2-y,-z
1/2+x,1/2-y,1/2+z
loop_
_atom_site_type_symbol
_atom_site_label
_atom_site_fract_x
_atom_site_fract_y
_atom_site_fract_z
Si Si1 0.036481 0.676900 0.694802
Si Si2 0.394112 0.791068 0.760254
Si Si3 0.034813 0.323974 0.543890
O O1 0.109547 0.706707 0.667802
O O2 0.234125 0.813596 0.810794
O O3 0.691756 0.700495 0.568869
O O4 0.148277 0.508583 0.256949
O O5 0.500000 0.735821 0.750000
O O6 0.704415 0.741051 0.921463
O O7 0.000000 0.500000 0.500000
#
# Coordination Sequence:
#
# PCOD9306354 Si02
#       3
#     8   8   8
#     4  11  26  47  70 106 143 185 241 288 352 423
#     4  12  26  46  75 103 145 185 237 291 353 415
#     4  11  25  47  73 104 145 187 236 290 354 418
#
# _framework density 26.190594000000001
#
# number of rings (size 3 to 8) (size 9 to 14) (size 15 to 20)
#    0.000    0.667    3.333    4.000    9.333    1.333 
#    0.000    0.000    0.000    0.000    0.000    0.000 
#    0.000    0.000    0.000    0.000    0.000    0.000 
#
# Total GULP energy -67212.509389 kJ/mol
# GULP energy per Si atom -5601.042449 kJ/mol
# Density = 2.613098 g / cm^3
# Si number density = 26.190594 Si / 1000 Ang^3
#
#
#
# Elastic Constant Matrix: (Units=GPa)
#
#
# Indices 1 2 3 4 5 6 
#
# 1 186.5458 13.9785 4.0585 0.0011 17.7009 0.0000
# 2 13.9785 98.3215 0.2550 0.0010 -3.9318 0.0000
# 3 4.0585 0.2550 62.1592 0.0069 9.0772 -0.0017
# 4 0.0011 0.0010 0.0069 32.1859 -0.0018 6.7415
# 5 17.7009 -3.9318 9.0772 -0.0018 51.2447 0.0002
# 6 0.0000 0.0000 -0.0017 6.7415 0.0002 36.0696
#
#
#
# Elastic Compliance Matrix: (Units=1/GPa)
#
#
# Indices 1 2 3 4 5 6 
#
# 1 0.005617 -0.000878 -0.000072 0.000000 -0.001995 0.000000
# 2 -0.000878 0.010341 -0.000149 0.000000 0.001123 0.000000
# 3 -0.000072 -0.000149 0.016518 -0.000004 -0.002913 0.000002
# 4 0.000000 0.000000 -0.000004 0.032335 0.000002 -0.006044
# 5 -0.001995 0.001123 -0.002913 0.000002 0.020805 -0.000001
# 6 0.000000 0.000000 0.000002 -0.006044 -0.000001 0.028854
#
#
# Mechanical properties :
#
#
# Convention : Reuss Voigt Hill
#
# Bulk Modulus (GPa) = 33.02702 42.62340 37.82521
# Shear Modulus (GPa) = 39.44396 45.81566 42.62981
#
# Velocity S-wave (km/s) = 3.88498 4.18702 4.03882
# Velocity P-wave (km/s) = 5.72378 6.29956 6.01856
#
# Compressibility (1/GPa) = 0.03027824
#
# Stress axis : x y z
#
# Youngs Moduli (GPa) = 178.02203 96.70364 60.53867
#
# Poissons Ratio (x) = 0.08493 0.00435
# Poissons Ratio (y) = 0.15634 0.00903
# Poissons Ratio (z) = 0.01279 0.01442
#
# Static dielectric constant tensor:
#      x y z
#    x 2.062890 0.000000 -0.108460 
#    y 0.000000 1.964520 0.000000 
#    z -0.108460 0.000000 2.143220 
# 
# From -- ./inp_files/21398.got.cif
#   From: 2010.05.17/outbox.cif.g08.bks.cpg/sg15_11_cif.got.tgz:21398.got - 2010.06.03 18:47:42.
