data_PCOD9306500
_publ_section_title
;
Structure prediction by ZEFSAII (Michael W. Deem and Ramdas Pophale) SiO2 
 PCOD9306500
Probable space group: C 2/C
;
_chemical_formula_sum "Si O2"
_cell_formula_units_Z 32
_cell_length_a 11.040945
_cell_length_b 9.178784
_cell_length_c 12.853636
_cell_angle_alpha 90.000000
_cell_angle_beta 72.264463
_cell_angle_gamma 90.000000
_cell_volume 1240.709026
_symmetry_space_group_name_H-M "C 2/C"
_symmetry_group_IT_number 15
_symmetry_cell_setting 'monoclinic'
loop_
_space_group_symop_operation_xyz
x,y,z
-x,y,1/2-z
-x,-y,-z
x,-y,1/2+z
1/2+x,1/2+y,z
1/2-x,1/2+y,1/2-z
1/2-x,1/2-y,-z
1/2+x,1/2-y,1/2+z
loop_
_atom_site_type_symbol
_atom_site_label
_atom_site_fract_x
_atom_site_fract_y
_atom_site_fract_z
Si Si1 0.618247 0.717260 0.092931
Si Si2 0.971067 0.490915 0.649539
Si Si3 0.005375 0.818060 0.076601
Si Si4 0.821091 0.055386 0.801797
O O1 0.564096 0.873743 0.133170
O O2 0.639455 0.612117 0.185148
O O3 0.750000 0.750000 0.000000
O O4 0.525854 0.637790 0.033715
O O5 0.999016 0.358448 0.564916
O O6 0.828800 0.548720 0.674261
O O7 0.000000 0.408746 0.750000
O O8 0.893972 0.874925 0.184323
O O9 0.133132 0.863442 0.104218
#
# Coordination Sequence:
#
# PCOD9306500 Si02
#       4
#     8   8   8   8
#     4  12  26  48  76 108 144 190 245 293 356 430
#     4  12  26  46  76 104 147 190 237 299 359 422
#     4  11  25  50  70 110 146 188 240 296 362 427
#     4  11  26  47  73 106 148 187 236 301 359 422
#
# _framework density 25.791702999999998
#
# number of rings (size 3 to 8) (size 9 to 14) (size 15 to 20)
#    0.000    0.500    5.000    3.000    3.500    1.000 
#    4.500    0.000    0.000    0.000    0.000    0.000 
#    0.000    0.000    0.000    0.000    0.000    0.000 
#
# Total GULP energy -89621.107923 kJ/mol
# GULP energy per Si atom -5601.319245 kJ/mol
# Density = 2.573300 g / cm^3
# Si number density = 25.791703 Si / 1000 Ang^3
#
#
#
# Elastic Constant Matrix: (Units=GPa)
#
#
# Indices 1 2 3 4 5 6 
#
# 1 168.8035 32.8348 20.9185 0.0000 -9.7064 0.0000
# 2 32.8348 157.3588 19.7882 0.0000 -20.6045 0.0000
# 3 20.9185 19.7882 79.6279 0.0000 9.3205 0.0000
# 4 0.0000 0.0000 0.0000 42.4392 0.0000 7.7234
# 5 -9.7064 -20.6045 9.3205 0.0000 44.3250 0.0000
# 6 0.0000 0.0000 0.0000 7.7234 0.0000 33.1097
#
#
#
# Elastic Compliance Matrix: (Units=1/GPa)
#
#
# Indices 1 2 3 4 5 6 
#
# 1 0.006382 -0.000964 -0.001587 0.000000 0.001283 0.000000
# 2 -0.000964 0.007274 -0.001974 0.000000 0.003585 0.000000
# 3 -0.001587 -0.001974 0.013958 0.000000 -0.004200 0.000000
# 4 0.000000 0.000000 0.000000 0.024608 0.000000 -0.005740
# 5 0.001283 0.003585 -0.004200 0.000000 0.025391 0.000000
# 6 0.000000 0.000000 0.000000 -0.005740 0.000000 0.031542
#
#
# Mechanical properties :
#
#
# Convention : Reuss Voigt Hill
#
# Bulk Modulus (GPa) = 53.87105 61.43037 57.65071
# Shear Modulus (GPa) = 40.19548 46.12471 43.16009
#
# Velocity S-wave (km/s) = 3.95202 4.23348 4.09517
# Velocity P-wave (km/s) = 6.46196 6.91130 6.69041
#
# Compressibility (1/GPa) = 0.01856285
#
# Stress axis : x y z
#
# Youngs Moduli (GPa) = 156.68947 137.48080 71.64587
#
# Poissons Ratio (x) = 0.13254 0.11372
# Poissons Ratio (y) = 0.15106 0.14143
# Poissons Ratio (z) = 0.24870 0.27138
#
# Static dielectric constant tensor:
#      x y z
#    x 1.996570 0.000000 0.034340 
#    y 0.000000 2.034110 0.000000 
#    z 0.034340 0.000000 2.144590 
# 
# From -- ./inp_files/140723.got.cif
#   From: 2010.05.17/outbox.cif.g08.bks.cpg/sg15_71_cif.got.tgz:140723.got - 2010.06.03 18:47:42.
