data_PCOD9306772
_publ_section_title
;
Structure prediction by ZEFSAII (Michael W. Deem and Ramdas Pophale) SiO2 
 PCOD9306772
Probable space group: C 2/C
;
_chemical_formula_sum "Si O2"
_cell_formula_units_Z 36
_cell_length_a 24.205445
_cell_length_b 12.348049
_cell_length_c 13.515359
_cell_angle_alpha 90.000000
_cell_angle_beta 19.122849
_cell_angle_gamma 90.000000
_cell_volume 1323.353532
_symmetry_space_group_name_H-M "C 2/C"
_symmetry_group_IT_number 15
_symmetry_cell_setting 'monoclinic'
loop_
_space_group_symop_operation_xyz
x,y,z
-x,y,1/2-z
-x,-y,-z
x,-y,1/2+z
1/2+x,1/2+y,z
1/2-x,1/2+y,1/2-z
1/2-x,1/2-y,-z
1/2+x,1/2-y,1/2+z
loop_
_atom_site_type_symbol
_atom_site_label
_atom_site_fract_x
_atom_site_fract_y
_atom_site_fract_z
Si Si1 0.898651 0.591397 0.057423
Si Si2 0.089231 0.625817 0.231867
Si Si3 0.075149 0.902678 0.464162
Si Si4 0.000000 0.746997 0.750000
Si Si5 0.068637 0.143067 0.489984
O O1 0.871267 0.616929 0.217998
O O2 0.050851 0.532594 0.044886
O O3 0.047226 0.664658 0.758611
O O4 0.740590 0.630517 0.260188
O O5 0.747525 0.596880 0.609091
O O6 0.027144 0.747841 0.316347
O O7 0.609663 0.667534 0.002532
O O8 0.940529 0.852567 0.614435
O O9 0.002991 0.019773 0.616417
#
# Coordination Sequence:
#
# PCOD9306772 Si02
#       5
#     8   8   8   4   8
#     4  11  27  50  84 119 165 218 284 341 434 493
#     4  11  26  57  81 119 170 224 273 360 419 509
#     4  11  27  51  80 125 168 216 288 339 430 496
#     4  12  26  52  74 120 168 216 268 358 400 514
#     4  11  26  50  83 123 160 222 280 342 415 511
#
# _framework density 27.203616
#
# number of rings (size 3 to 8) (size 9 to 14) (size 15 to 20)
#    0.000    0.889    2.222    2.000    3.111    5.333 
#   12.000    0.000    0.000    1.333    0.000    0.000 
#    0.000    0.000    0.000    0.000    0.000    0.000 
#
# Total GULP energy -100619.112181 kJ/mol
# GULP energy per Si atom -5589.950677 kJ/mol
# Density = 2.714170 g / cm^3
# Si number density = 27.203616 Si / 1000 Ang^3
#
#
#
# Elastic Constant Matrix: (Units=GPa)
#
#
# Indices 1 2 3 4 5 6 
#
# 1 197.7864 60.8017 76.6317 0.0000 12.7999 0.0000
# 2 60.8017 258.4271 75.5604 0.0000 5.0546 0.0000
# 3 76.6317 75.5604 148.0083 0.0001 -18.5096 -0.0001
# 4 0.0000 0.0000 0.0001 29.5969 0.0000 -9.4721
# 5 12.7999 5.0546 -18.5096 0.0000 40.2772 0.0000
# 6 0.0000 0.0000 -0.0001 -9.4721 0.0000 46.2930
#
#
#
# Elastic Compliance Matrix: (Units=1/GPa)
#
#
# Indices 1 2 3 4 5 6 
#
# 1 0.006939 -0.000425 -0.003867 0.000000 -0.003929 0.000000
# 2 -0.000425 0.004692 -0.002368 0.000000 -0.001542 0.000000
# 3 -0.003867 -0.002368 0.010778 0.000000 0.006479 0.000000
# 4 0.000000 0.000000 0.000000 0.036155 0.000000 0.007398
# 5 -0.003929 -0.001542 0.006479 0.000000 0.029248 0.000000
# 6 0.000000 0.000000 0.000000 0.007398 0.000000 0.023115
#
#
# Mechanical properties :
#
#
# Convention : Reuss Voigt Hill
#
# Bulk Modulus (GPa) = 110.03004 114.46772 112.24888
# Shear Modulus (GPa) = 39.28430 49.31529 44.29980
#
# Velocity S-wave (km/s) = 3.80423 4.26234 4.03979
# Velocity P-wave (km/s) = 7.73504 8.14818 7.94430
#
# Compressibility (1/GPa) = 0.00908843
#
# Stress axis : x y z
#
# Youngs Moduli (GPa) = 144.10837 213.12160 92.78271
#
# Poissons Ratio (x) = 0.09059 0.35880
# Poissons Ratio (y) = 0.06126 0.21973
# Poissons Ratio (z) = 0.55729 0.50471
#
# Static dielectric constant tensor:
#      x y z
#    x 2.098780 0.000000 0.008740 
#    y 0.000000 2.136320 0.000000 
#    z 0.008740 0.000000 2.392450 
# 
# From -- ./inp_files/68715.got.cif
#   From: 2010.05.17/outbox.cif.g08.bks.cpg/sg15_35_cif.got.tgz:68715.got - 2010.06.03 18:47:42.
