data_PCOD9306126
_publ_section_title
;
Structure prediction by ZEFSAII (Michael W. Deem and Ramdas Pophale) SiO2 
 PCOD9306126
Probable space group: C 2/C
;
_chemical_formula_sum "Si O2"
_cell_formula_units_Z 48
_cell_length_a 21.939856
_cell_length_b 11.539897
_cell_length_c 9.306843
_cell_angle_alpha 90.000000
_cell_angle_beta 95.574344
_cell_angle_gamma 90.000000
_cell_volume 2345.197601
_symmetry_space_group_name_H-M "C 2/C"
_symmetry_group_IT_number 15
_symmetry_cell_setting 'monoclinic'
loop_
_space_group_symop_operation_xyz
x,y,z
-x,y,1/2-z
-x,-y,-z
x,-y,1/2+z
1/2+x,1/2+y,z
1/2-x,1/2+y,1/2-z
1/2-x,1/2-y,-z
1/2+x,1/2-y,1/2+z
loop_
_atom_site_type_symbol
_atom_site_label
_atom_site_fract_x
_atom_site_fract_y
_atom_site_fract_z
Si Si1 0.372001 0.016007 0.029412
Si Si2 0.066080 0.620866 0.188264
Si Si3 0.753035 0.373252 0.075369
Si Si4 0.427203 0.615496 0.754867
Si Si5 0.857647 0.949876 0.946274
Si Si6 0.296909 0.780864 0.382519
O O1 0.312888 0.935785 0.028011
O O2 0.390210 0.053640 0.192349
O O3 0.425139 0.945763 0.959390
O O4 0.350417 0.132482 0.944799
O O5 0.085035 0.755557 0.186066
O O6 0.000000 0.617221 0.250000
O O7 0.696085 0.457761 0.034760
O O8 0.761498 0.344160 0.245853
O O9 0.750000 0.250000 0.000000
O O10 0.500000 0.606995 0.750000
O O11 0.405804 0.517868 0.860093
O O12 0.389886 0.597503 0.598027
O O13 0.827884 0.842125 0.853616
O O14 0.250000 0.750000 0.500000
#
# Coordination Sequence:
#
# PCOD9306126 Si02
#       6
#     8   8   8   8   8   8
#     4  12  24  45  67  99 136 171 227 277 338 406
#     4  11  25  46  70  96 133 181 228 282 336 396
#     4  12  27  40  68 100 131 173 222 276 336 407
#     4  11  25  45  68  96 132 178 226 277 331 394
#     4  12  24  43  68  94 136 174 220 270 339 399
#     4  12  25  42  65  98 137 178 213 271 347 398
#
# _framework density 20.467358999999998
#
# number of rings (size 3 to 8) (size 9 to 14) (size 15 to 20)
#    0.000    0.333    5.000    4.000    4.667    0.000 
#    0.000    0.833    0.000    0.000    0.000    0.000 
#    0.000    0.000    0.000    0.000    0.000    0.000 
#
# Total GULP energy -134264.559744 kJ/mol
# GULP energy per Si atom -5594.356656 kJ/mol
# Density = 2.042077 g / cm^3
# Si number density = 20.467359 Si / 1000 Ang^3
#
#
#
# Elastic Constant Matrix: (Units=GPa)
#
#
# Indices 1 2 3 4 5 6 
#
# 1 69.9726 37.0314 -10.1388 0.0000 -9.8461 0.0000
# 2 37.0314 146.1481 8.1863 0.0000 -14.0873 0.0000
# 3 -10.1388 8.1863 35.5820 0.0000 -6.6529 0.0000
# 4 0.0000 0.0000 0.0000 37.9895 0.0000 -3.5391
# 5 -9.8461 -14.0873 -6.6529 0.0000 36.3911 0.0000
# 6 0.0000 0.0000 0.0000 -3.5391 0.0000 42.9917
#
#
#
# Elastic Compliance Matrix: (Units=1/GPa)
#
#
# Indices 1 2 3 4 5 6 
#
# 1 0.018412 -0.004633 0.007153 0.000000 0.004496 0.000000
# 2 -0.004633 0.008320 -0.002968 0.000000 0.001425 0.000000
# 3 0.007153 -0.002968 0.032068 0.000000 0.006649 0.000000
# 4 0.000000 0.000000 0.000000 0.026526 0.000000 0.002184
# 5 0.004496 0.001425 0.006649 0.000000 0.030463 0.000000
# 6 0.000000 0.000000 0.000000 0.002184 0.000000 0.023440
#
#
# Mechanical properties :
#
#
# Convention : Reuss Voigt Hill
#
# Bulk Modulus (GPa) = 17.26967 35.76229 26.51598
# Shear Modulus (GPa) = 31.36251 37.91607 34.63929
#
# Velocity S-wave (km/s) = 3.91873 4.30875 4.11836
# Velocity P-wave (km/s) = 5.37878 6.50112 5.96640
#
# Compressibility (1/GPa) = 0.05790497
#
# Stress axis : x y z
#
# Youngs Moduli (GPa) = 54.31223 120.19595 31.18351
#
# Poissons Ratio (x) = 0.55682 -0.22305
# Poissons Ratio (y) = 0.25161 0.09254
# Poissons Ratio (z) = -0.38848 0.35671
#
# Static dielectric constant tensor:
#      x y z
#    x 1.740020 0.000000 -0.015300 
#    y 0.000000 1.712750 0.000000 
#    z -0.015300 0.000000 1.777600 
# 
# From -- ./inp_files/60596.got.cif
#   From: 2010.05.17/outbox.cif.g08.bks.cpg/sg15_31_cif.got.tgz:60596.got - 2010.06.03 18:47:42.
