data_PCOD9306000
_publ_section_title
;
Structure prediction by ZEFSAII (Michael W. Deem and Ramdas Pophale) SiO2 
 PCOD9306000
Probable space group: C 2/C
;
_chemical_formula_sum "Si O2"
_cell_formula_units_Z 48
_cell_length_a 21.393508
_cell_length_b 5.232638
_cell_length_c 27.347186
_cell_angle_alpha 90.000000
_cell_angle_beta 139.847470
_cell_angle_gamma 90.000000
_cell_volume 1974.044660
_symmetry_space_group_name_H-M "C 2/C"
_symmetry_group_IT_number 15
_symmetry_cell_setting 'monoclinic'
loop_
_space_group_symop_operation_xyz
x,y,z
-x,y,1/2-z
-x,-y,-z
x,-y,1/2+z
1/2+x,1/2+y,z
1/2-x,1/2+y,1/2-z
1/2-x,1/2-y,-z
1/2+x,1/2-y,1/2+z
loop_
_atom_site_type_symbol
_atom_site_label
_atom_site_fract_x
_atom_site_fract_y
_atom_site_fract_z
Si Si1 0.749181 0.013235 0.617738
Si Si2 0.166555 0.482920 0.372816
Si Si3 0.140187 0.672493 0.756158
Si Si4 0.940721 0.870835 0.035608
Si Si5 0.559654 0.870303 0.408645
Si Si6 0.358561 0.360090 0.390476
O O1 0.767167 0.769731 0.593101
O O2 0.835550 0.961262 0.710371
O O3 0.658270 0.924241 0.597000
O O4 0.772269 0.262033 0.600369
O O5 0.105677 0.459585 0.286112
O O6 0.109459 0.458811 0.388394
O O7 0.248638 0.566807 0.808956
O O8 0.056696 0.637673 0.667871
O O9 0.914299 0.083718 0.059837
O O10 0.914525 0.586580 0.036608
O O11 0.895516 0.963086 0.957202
O O12 0.057139 0.870872 0.098105
#
# Coordination Sequence:
#
# PCOD9306000 Si02
#       6
#     8   8   8   8   8   8
#     4   8  19  37  65  82 114 171 204 244 294 393
#     4   9  19  38  58  91 123 160 197 255 316 374
#     4   8  22  39  64  87 122 167 205 253 312 384
#     4  11  25  40  63  91 129 164 208 270 310 381
#     4  12  24  37  61 100 126 154 212 270 314 363
#     4   8  22  47  62  86 122 178 212 246 330 381
#
# _framework density 24.315559
#
# number of rings (size 3 to 8) (size 9 to 14) (size 15 to 20)
#    2.000    0.333    0.000    1.500    2.333    9.333 
#    3.000   11.667    0.000    0.000    0.000    0.000 
#    0.000    0.000    0.000    0.000    0.000    0.000 
#
# Total GULP energy -133714.226442 kJ/mol
# GULP energy per Si atom -5571.426102 kJ/mol
# Density = 2.426022 g / cm^3
# Si number density = 24.315559 Si / 1000 Ang^3
#
#
#
# Elastic Constant Matrix: (Units=GPa)
#
#
# Indices 1 2 3 4 5 6 
#
# 1 58.4263 36.6982 -11.1642 -0.0021 8.5150 0.0240
# 2 36.6982 168.5418 21.2965 -0.0030 -3.7263 0.0386
# 3 -11.1642 21.2965 61.0295 -0.0004 16.6316 0.0019
# 4 -0.0021 -0.0030 -0.0004 19.0078 -0.0025 -1.3273
# 5 8.5150 -3.7263 16.6316 -0.0025 27.3114 0.0037
# 6 0.0240 0.0386 0.0019 -1.3273 0.0037 26.8436
#
#
#
# Elastic Compliance Matrix: (Units=1/GPa)
#
#
# Indices 1 2 3 4 5 6 
#
# 1 0.026749 -0.007734 0.012172 -0.000001 -0.016807 -0.000011
# 2 -0.007734 0.008601 -0.006466 0.000001 0.007522 -0.000006
# 3 0.012172 -0.006466 0.026549 -0.000002 -0.020845 -0.000001
# 4 -0.000001 0.000001 -0.000002 0.052792 0.000006 0.002610
# 5 -0.016807 0.007522 -0.020845 0.000006 0.055575 -0.000002
# 6 -0.000011 -0.000006 -0.000001 0.002610 -0.000002 0.037382
#
#
# Mechanical properties :
#
#
# Convention : Reuss Voigt Hill
#
# Bulk Modulus (GPa) = 17.28811 42.40648 29.84730
# Shear Modulus (GPa) = 21.64658 30.71037 26.17848
#
# Velocity S-wave (km/s) = 2.98692 3.55772 3.28474
# Velocity P-wave (km/s) = 4.36130 5.86126 5.16601
#
# Compressibility (1/GPa) = 0.05784321
#
# Stress axis : x y z
#
# Youngs Moduli (GPa) = 37.38494 116.27175 37.66618
#
# Poissons Ratio (x) = 0.89923 -0.45848
# Poissons Ratio (y) = 0.28913 0.24355
# Poissons Ratio (z) = -0.45506 0.75180
#
# Static dielectric constant tensor:
#      x y z
#    x 1.934420 0.000000 0.077330 
#    y 0.000000 1.966220 0.000010 
#    z 0.077330 0.000010 2.054280 
# 
# From -- ./inp_files/279034.got.cif
#   From: 2010.05.17/outbox.cif.g08.bks.cpg/sg15_140_cif.got.tgz:279034.got - 2010.06.03 18:47:42.
