data_PCOD9306787
_publ_section_title
;
Structure prediction by ZEFSAII (Michael W. Deem and Ramdas Pophale) SiO2 
 PCOD9306787
Probable space group: C 2/C
;
_chemical_formula_sum "Si O2"
_cell_formula_units_Z 44
_cell_length_a 5.230178
_cell_length_b 18.477700
_cell_length_c 18.107645
_cell_angle_alpha 90.000000
_cell_angle_beta 111.629102
_cell_angle_gamma 90.000000
_cell_volume 1626.737616
_symmetry_space_group_name_H-M "C 2/C"
_symmetry_group_IT_number 15
_symmetry_cell_setting 'monoclinic'
loop_
_space_group_symop_operation_xyz
x,y,z
-x,y,1/2-z
-x,-y,-z
x,-y,1/2+z
1/2+x,1/2+y,z
1/2-x,1/2+y,1/2-z
1/2-x,1/2-y,-z
1/2+x,1/2-y,1/2+z
loop_
_atom_site_type_symbol
_atom_site_label
_atom_site_fract_x
_atom_site_fract_y
_atom_site_fract_z
Si Si1 0.316248 0.502604 0.553030
Si Si2 0.248737 0.664788 0.582826
Si Si3 0.000000 0.136219 0.750000
Si Si4 0.254297 0.093733 0.154134
Si Si5 0.572813 0.798043 0.580173
Si Si6 0.000000 0.537405 0.750000
Si Si7 0.000000 0.176479 0.250000
O O1 0.500000 0.500000 0.500000
O O2 0.338533 0.581613 0.590805
O O3 0.438366 0.434765 0.610102
O O4 0.000000 0.500000 0.500000
O O5 0.320926 0.685199 0.674816
O O6 0.455330 0.717113 0.562436
O O7 0.960271 0.674205 0.508611
O O8 0.759481 0.085919 0.757639
O O9 0.364804 0.147828 0.103458
O O10 0.228405 0.129456 0.231896
O O11 0.418039 0.017639 0.175445
O O12 0.837263 0.789974 0.662287
#
# Coordination Sequence:
#
# PCOD9306787 Si02
#       7
#     8   8   4   8   8   4   4
#     4  12  27  48  79 115 156 205 262 330 398 467
#     4  11  27  50  77 112 163 203 270 324 405 472
#     4  12  29  47  78 115 159 204 258 336 403 460
#     4  12  25  45  78 110 156 205 269 325 395 476
#     4  11  26  52  73 114 154 215 264 328 396 488
#     4  12  26  46  78 114 154 204 268 324 396 473
#     4  12  25  47  80 109 153 210 266 322 397 471
#
# _framework density 27.047999000000001
#
# number of rings (size 3 to 8) (size 9 to 14) (size 15 to 20)
#    0.000    0.364    5.455    1.636    5.091    0.727 
#    6.545    2.727    0.000    0.000    0.000    0.000 
#    0.000    0.000    0.000    0.000    0.000    0.000 
#
# Total GULP energy -122958.934259 kJ/mol
# GULP energy per Si atom -5589.042466 kJ/mol
# Density = 2.698644 g / cm^3
# Si number density = 27.047999 Si / 1000 Ang^3
#
#
#
# Elastic Constant Matrix: (Units=GPa)
#
#
# Indices 1 2 3 4 5 6 
#
# 1 147.5677 33.0256 40.0228 0.0000 25.2977 0.0000
# 2 33.0256 71.1830 24.0882 0.0000 14.6348 0.0000
# 3 40.0228 24.0882 227.0563 0.0000 37.3712 0.0000
# 4 0.0000 0.0000 0.0000 23.5317 0.0000 18.3163
# 5 25.2977 14.6348 37.3712 0.0000 45.5995 0.0000
# 6 0.0000 0.0000 0.0000 18.3163 0.0000 31.0519
#
#
#
# Elastic Compliance Matrix: (Units=1/GPa)
#
#
# Indices 1 2 3 4 5 6 
#
# 1 0.008125 -0.002931 -0.000617 0.000000 -0.003061 0.000000
# 2 -0.002931 0.016269 -0.000714 0.000000 -0.003010 0.000000
# 3 -0.000617 -0.000714 0.005195 0.000000 -0.003686 0.000000
# 4 0.000000 0.000000 0.000000 0.078569 0.000000 -0.046345
# 5 -0.003061 -0.003010 -0.003686 0.000000 0.027615 0.000000
# 6 0.000000 0.000000 0.000000 -0.046345 0.000000 0.059541
#
#
# Mechanical properties :
#
#
# Convention : Reuss Voigt Hill
#
# Bulk Modulus (GPa) = 47.47467 71.12001 59.29734
# Shear Modulus (GPa) = 23.71233 43.28132 33.49682
#
# Velocity S-wave (km/s) = 2.96408 4.00455 3.52294
# Velocity P-wave (km/s) = 5.41336 6.90890 6.20635
#
# Compressibility (1/GPa) = 0.02106387
#
# Stress axis : x y z
#
# Youngs Moduli (GPa) = 123.08115 61.46775 192.47474
#
# Poissons Ratio (x) = 0.18018 0.11883
# Poissons Ratio (y) = 0.36079 0.13739
# Poissons Ratio (z) = 0.07599 0.04388
#
# Static dielectric constant tensor:
#      x y z
#    x 2.080270 0.000000 -0.042110 
#    y 0.000000 2.111320 0.000000 
#    z -0.042110 0.000000 2.154810 
# 
# From -- ./inp_files/227432.got.cif
#   From: 2010.05.17/outbox.cif.g08.bks.cpg/sg15_114_cif.got.tgz:227432.got - 2010.06.03 18:47:42.
