data_PCOD9306379
_publ_section_title
;
Structure prediction by ZEFSAII (Michael W. Deem and Ramdas Pophale) SiO2 
 PCOD9306379
Probable space group: C 2/C
;
_chemical_formula_sum "Si O2"
_cell_formula_units_Z 40
_cell_length_a 11.393137
_cell_length_b 10.871018
_cell_length_c 14.283293
_cell_angle_alpha 90.000000
_cell_angle_beta 110.004879
_cell_angle_gamma 90.000000
_cell_volume 1662.318484
_symmetry_space_group_name_H-M "C 2/C"
_symmetry_group_IT_number 15
_symmetry_cell_setting 'monoclinic'
loop_
_space_group_symop_operation_xyz
x,y,z
-x,y,1/2-z
-x,-y,-z
x,-y,1/2+z
1/2+x,1/2+y,z
1/2-x,1/2+y,1/2-z
1/2-x,1/2-y,-z
1/2+x,1/2-y,1/2+z
loop_
_atom_site_type_symbol
_atom_site_label
_atom_site_fract_x
_atom_site_fract_y
_atom_site_fract_z
Si Si1 0.650897 0.138533 0.471603
Si Si2 0.000000 0.684796 0.250000
Si Si3 0.958140 0.298224 0.369499
Si Si4 0.000000 0.074876 0.250000
Si Si5 0.721079 0.883994 0.446509
Si Si6 0.313845 0.616896 0.772776
O O1 0.750000 0.250000 0.500000
O O2 0.586116 0.125425 0.352900
O O3 0.550620 0.178162 0.522028
O O4 0.714912 0.006306 0.508135
O O5 0.902626 0.767094 0.281259
O O6 0.824724 0.347209 0.298098
O O7 0.986216 0.162956 0.336646
O O8 0.080116 0.369042 0.370230
O O9 0.120738 0.988732 0.270837
O O10 0.750000 0.750000 0.500000
O O11 0.808416 0.911040 0.381542
#
# Coordination Sequence:
#
# PCOD9306379 Si02
#       6
#     8   4   8   4   8   8
#     4  12  27  49  80 115 161 217 278 341 410 490
#     4  11  26  49  76 114 162 208 280 342 406 488
#     4  12  25  48  77 114 159 214 273 338 412 487
#     4  11  26  47  84 116 168 212 276 346 414 488
#     4  12  28  47  77 117 166 217 277 339 418 497
#     4  11  25  47  77 117 162 214 270 342 413 491
#
# _framework density 24.062775999999999
#
# number of rings (size 3 to 8) (size 9 to 14) (size 15 to 20)
#    0.000    0.400    4.000    3.000    5.600    0.000 
#    0.000    5.000    0.000    0.000    0.000    0.000 
#    0.000    0.000    0.000    0.000    0.000    0.000 
#
# Total GULP energy -111766.750915 kJ/mol
# GULP energy per Si atom -5588.337546 kJ/mol
# Density = 2.400801 g / cm^3
# Si number density = 24.062776 Si / 1000 Ang^3
#
#
#
# Elastic Constant Matrix: (Units=GPa)
#
#
# Indices 1 2 3 4 5 6 
#
# 1 146.5704 68.7266 44.6190 0.0000 -14.7009 0.0000
# 2 68.7266 181.3273 50.8027 0.0000 7.8921 0.0000
# 3 44.6190 50.8027 114.5333 0.0000 -11.8472 0.0000
# 4 0.0000 0.0000 0.0000 3.1158 0.0000 -20.6932
# 5 -14.7009 7.8921 -11.8472 0.0000 48.5379 0.0000
# 6 0.0000 0.0000 0.0000 -20.6932 0.0000 10.6887
#
#
#
# Elastic Compliance Matrix: (Units=1/GPa)
#
#
# Indices 1 2 3 4 5 6 
#
# 1 0.009109 -0.003038 -0.001913 0.000000 0.002786 0.000000
# 2 -0.003038 0.007459 -0.002406 0.000000 -0.002720 0.000000
# 3 -0.001913 -0.002406 0.010797 0.000000 0.002447 0.000000
# 4 0.000000 0.000000 0.000000 -0.027067 0.000000 -0.052401
# 5 0.002786 -0.002720 0.002447 0.000000 0.022486 0.000000
# 6 0.000000 0.000000 0.000000 -0.052401 0.000000 -0.007890
#
#
# Mechanical properties :
#
#
# Convention : Reuss Voigt Hill
#
# Bulk Modulus (GPa) = 79.04945 85.63638 82.34292
# Shear Modulus (GPa) = 147.82131 31.02066 89.42099
#
# Velocity S-wave (km/s) = 7.84633 3.59438 6.10264
# Velocity P-wave (km/s) = 10.72423 7.27269 9.16246
#
# Compressibility (1/GPa) = 0.01265031
#
# Stress axis : x y z
#
# Youngs Moduli (GPa) = 109.78406 134.06900 92.61949
#
# Poissons Ratio (x) = 0.40726 0.17718
# Poissons Ratio (y) = 0.33349 0.22288
# Poissons Ratio (z) = 0.21001 0.32263
#
# Static dielectric constant tensor:
#      x y z
#    x 1.891090 0.000000 -0.013550 
#    y 0.000000 1.969520 0.000000 
#    z -0.013550 0.000000 2.063560 
# 
# From -- ./inp_files/141944.got.cif
#   From: 2010.05.17/outbox.cif.g08.bks.cpg/sg15_71_cif.got.tgz:141944.got - 2010.06.03 18:47:42.
