data_PCOD9306496
_publ_section_title
;
Structure prediction by ZEFSAII (Michael W. Deem and Ramdas Pophale) SiO2 
 PCOD9306496
Probable space group: C 2/C
;
_chemical_formula_sum "Si O2"
_cell_formula_units_Z 28
_cell_length_a 7.437003
_cell_length_b 29.784689
_cell_length_c 5.340178
_cell_angle_alpha 90.000000
_cell_angle_beta 70.115314
_cell_angle_gamma 90.000000
_cell_volume 1112.371144
_symmetry_space_group_name_H-M "C 2/C"
_symmetry_group_IT_number 15
_symmetry_cell_setting 'monoclinic'
loop_
_space_group_symop_operation_xyz
x,y,z
-x,y,1/2-z
-x,-y,-z
x,-y,1/2+z
1/2+x,1/2+y,z
1/2-x,1/2+y,1/2-z
1/2-x,1/2-y,-z
1/2+x,1/2-y,1/2+z
loop_
_atom_site_type_symbol
_atom_site_label
_atom_site_fract_x
_atom_site_fract_y
_atom_site_fract_z
Si Si1 0.732406 0.524495 0.126387
Si Si2 0.000000 0.314823 0.750000
Si Si3 0.709352 0.713678 0.782174
Si Si4 0.777810 0.874422 0.919815
O O1 0.500000 0.524023 0.250000
O O2 0.790838 0.509185 0.376707
O O3 0.792098 0.574761 0.021735
O O4 0.883342 0.283933 0.001290
O O5 0.161500 0.348256 0.766778
O O6 0.500000 0.710739 0.750000
O O7 0.750000 0.750000 0.000000
O O8 0.740445 0.662178 0.855895
O O9 0.000000 0.877062 0.750000
#
# Coordination Sequence:
#
# PCOD9306496 Si02
#       4
#     8   4   8   8
#     4   9  20  39  74 116 160 214 274 337 415 496
#     4  12  28  54  86 118 166 214 280 342 424 492
#     4  12  30  56  86 123 166 221 279 348 423 506
#     4  11  25  49  81 117 164 219 272 346 413 498
#
# _framework density 25.171457
#
# number of rings (size 3 to 8) (size 9 to 14) (size 15 to 20)
#    0.000    1.143    2.857    0.857    6.000    5.714 
#    0.000    1.429    0.000    0.000    0.000    0.000 
#    0.000    0.000    0.000    0.000    0.000    0.000 
#
# Total GULP energy -78127.409144 kJ/mol
# GULP energy per Si atom -5580.529225 kJ/mol
# Density = 2.511417 g / cm^3
# Si number density = 25.171457 Si / 1000 Ang^3
#
#
#
# Elastic Constant Matrix: (Units=GPa)
#
#
# Indices 1 2 3 4 5 6 
#
# 1 125.9939 26.3455 52.7002 0.0000 -5.1894 0.0000
# 2 26.3455 200.9452 69.9353 0.0000 -6.0751 0.0000
# 3 52.7002 69.9353 156.8252 0.0000 -3.5727 0.0000
# 4 0.0000 0.0000 0.0000 6.7224 0.0000 -11.1812
# 5 -5.1894 -6.0751 -3.5727 0.0000 33.6159 0.0000
# 6 0.0000 0.0000 0.0000 -11.1812 0.0000 32.5991
#
#
#
# Elastic Compliance Matrix: (Units=1/GPa)
#
#
# Indices 1 2 3 4 5 6 
#
# 1 0.009278 -0.000127 -0.003037 0.000000 0.001087 0.000000
# 2 -0.000127 0.005913 -0.002577 0.000000 0.000775 0.000000
# 3 -0.003037 -0.002577 0.008545 0.000000 -0.000026 0.000000
# 4 0.000000 0.000000 0.000000 0.346336 0.000000 0.118790
# 5 0.001087 0.000775 -0.000026 0.000000 0.030053 0.000000
# 6 0.000000 0.000000 0.000000 0.118790 0.000000 0.071420
#
#
# Mechanical properties :
#
#
# Convention : Reuss Voigt Hill
#
# Bulk Modulus (GPa) = 81.58744 86.85850 84.22297
# Shear Modulus (GPa) = 10.26458 36.90638 23.58548
#
# Velocity S-wave (km/s) = 2.02156 3.83325 3.06436
# Velocity P-wave (km/s) = 6.15890 7.36026 6.78621
#
# Compressibility (1/GPa) = 0.01225679
#
# Stress axis : x y z
#
# Youngs Moduli (GPa) = 107.77831 169.10941 117.02115
#
# Poissons Ratio (x) = 0.02144 0.35535
# Poissons Ratio (y) = 0.01366 0.30154
# Poissons Ratio (z) = 0.32728 0.43575
#
# Static dielectric constant tensor:
#      x y z
#    x 1.941020 0.000000 0.078120 
#    y 0.000000 2.052480 0.000000 
#    z 0.078120 0.000000 2.057680 
# 
# From -- ./inp_files/1963.got.cif
#   From: 2010.05.17/outbox.cif.g08.bks.cpg/sg15_1_cif.got.tgz:1963.got - 2010.06.03 18:47:42.
