data_PCOD9306661
_publ_section_title
;
Structure prediction by ZEFSAII (Michael W. Deem and Ramdas Pophale) SiO2 
 PCOD9306661
Probable space group: C 2/C
;
_chemical_formula_sum "Si O2"
_cell_formula_units_Z 44
_cell_length_a 19.358807
_cell_length_b 9.085478
_cell_length_c 12.036223
_cell_angle_alpha 90.000000
_cell_angle_beta 69.902146
_cell_angle_gamma 90.000000
_cell_volume 1988.070272
_symmetry_space_group_name_H-M "C 2/C"
_symmetry_group_IT_number 15
_symmetry_cell_setting 'monoclinic'
loop_
_space_group_symop_operation_xyz
x,y,z
-x,y,1/2-z
-x,-y,-z
x,-y,1/2+z
1/2+x,1/2+y,z
1/2-x,1/2+y,1/2-z
1/2-x,1/2-y,-z
1/2+x,1/2-y,1/2+z
loop_
_atom_site_type_symbol
_atom_site_label
_atom_site_fract_x
_atom_site_fract_y
_atom_site_fract_z
Si Si1 0.577132 0.716826 0.642320
Si Si2 0.173092 0.579527 0.240213
Si Si3 0.140642 0.098261 0.077196
Si Si4 0.500000 0.245726 0.750000
Si Si5 0.757496 0.211270 0.647284
Si Si6 0.566813 0.099690 0.927539
O O1 0.500000 0.683238 0.750000
O O2 0.613374 0.848464 0.693037
O O3 0.629824 0.574353 0.604813
O O4 0.571180 0.775632 0.519083
O O5 0.227670 0.710879 0.244035
O O6 0.213608 0.440703 0.166074
O O7 0.136532 0.507181 0.370826
O O8 0.207621 0.168904 0.110777
O O9 0.061707 0.162599 0.152420
O O10 0.163419 0.160769 0.944226
O O11 0.546093 0.158834 0.817138
O O12 0.500000 0.000000 0.000000
#
# Coordination Sequence:
#
# PCOD9306661 Si02
#       6
#     8   8   8   4   8   8
#     4  12  27  46  73 113 143 190 244 302 362 429
#     4  12  26  47  73 103 150 189 245 297 362 434
#     4  11  26  47  74 104 149 186 247 297 362 429
#     4  12  24  48  76 104 142 192 236 306 358 422
#     4  11  27  47  72 108 144 199 239 295 362 435
#     4  12  25  43  74 107 144 187 238 300 365 424
#
# _framework density 22.132014999999999
#
# number of rings (size 3 to 8) (size 9 to 14) (size 15 to 20)
#    0.000    0.364    4.545    3.273    7.636    2.909 
#    0.000    0.000    0.000    0.000    0.000    0.000 
#    0.000    0.000    0.000    0.000    0.000    0.000 
#
# Total GULP energy -122847.975315 kJ/mol
# GULP energy per Si atom -5583.998878 kJ/mol
# Density = 2.208164 g / cm^3
# Si number density = 22.132015 Si / 1000 Ang^3
#
#
#
# Elastic Constant Matrix: (Units=GPa)
#
#
# Indices 1 2 3 4 5 6 
#
# 1 66.6508 52.9454 21.1828 0.0000 -9.5975 0.0000
# 2 52.9454 161.1488 59.6742 0.0000 -7.8878 0.0000
# 3 21.1828 59.6742 55.4739 0.0000 -8.4392 0.0000
# 4 0.0000 0.0000 0.0000 33.6977 0.0000 -6.0624
# 5 -9.5975 -7.8878 -8.4392 0.0000 43.6225 0.0000
# 6 0.0000 0.0000 0.0000 -6.0624 0.0000 46.1101
#
#
#
# Elastic Compliance Matrix: (Units=1/GPa)
#
#
# Indices 1 2 3 4 5 6 
#
# 1 0.020787 -0.006507 -0.000434 0.000000 0.003313 0.000000
# 2 -0.006507 0.012354 -0.011007 0.000000 -0.001327 0.000000
# 3 -0.000434 -0.011007 0.030616 0.000000 0.003837 0.000000
# 4 0.000000 0.000000 0.000000 0.030395 0.000000 0.003996
# 5 0.003313 -0.001327 0.003837 0.000000 0.024155 0.000000
# 6 0.000000 0.000000 0.000000 0.003996 0.000000 0.022213
#
#
# Mechanical properties :
#
#
# Convention : Reuss Voigt Hill
#
# Bulk Modulus (GPa) = 35.89101 61.20870 48.54986
# Shear Modulus (GPa) = 26.92463 34.65079 30.78771
#
# Velocity S-wave (km/s) = 3.49169 3.96111 3.73378
# Velocity P-wave (km/s) = 5.70156 6.97401 6.36964
#
# Compressibility (1/GPa) = 0.02786213
#
# Stress axis : x y z
#
# Youngs Moduli (GPa) = 48.10604 80.94433 32.66228
#
# Poissons Ratio (x) = 0.52668 0.01419
# Poissons Ratio (y) = 0.31301 0.35951
# Poissons Ratio (z) = 0.02089 0.89094
#
# Static dielectric constant tensor:
#      x y z
#    x 1.790510 0.000000 -0.001810 
#    y 0.000000 1.795480 0.000000 
#    z -0.001810 0.000000 1.857780 
# 
# From -- ./inp_files/109932.got.cif
#   From: 2010.05.17/outbox.cif.g08.bks.cpg/sg15_55_cif.got.tgz:109932.got - 2010.06.03 18:47:42.
