data_PCOD9306423
_publ_section_title
;
Structure prediction by ZEFSAII (Michael W. Deem and Ramdas Pophale) SiO2 
 PCOD9306423
Probable space group: C 2/C
;
_chemical_formula_sum "Si O2"
_cell_formula_units_Z 32
_cell_length_a 13.728822
_cell_length_b 5.176675
_cell_length_c 18.973339
_cell_angle_alpha 90.000000
_cell_angle_beta 111.743358
_cell_angle_gamma 90.000000
_cell_volume 1252.491239
_symmetry_space_group_name_H-M "C 2/C"
_symmetry_group_IT_number 15
_symmetry_cell_setting 'monoclinic'
loop_
_space_group_symop_operation_xyz
x,y,z
-x,y,1/2-z
-x,-y,-z
x,-y,1/2+z
1/2+x,1/2+y,z
1/2-x,1/2+y,1/2-z
1/2-x,1/2-y,-z
1/2+x,1/2-y,1/2+z
loop_
_atom_site_type_symbol
_atom_site_label
_atom_site_fract_x
_atom_site_fract_y
_atom_site_fract_z
Si Si1 0.372582 0.759124 0.017977
Si Si2 0.050284 0.387076 0.601314
Si Si3 0.942738 0.054268 0.671312
Si Si4 0.759397 0.708109 0.800020
O O1 0.422393 0.596111 0.094182
O O2 0.434906 0.029396 0.043317
O O3 0.250000 0.750000 0.000000
O O4 0.398403 0.699255 0.943511
O O5 0.132211 0.618940 0.634692
O O6 0.026769 0.268531 0.671036
O O7 0.000000 0.901438 0.750000
O O8 0.833371 0.168594 0.668664
O O9 0.759001 0.991338 0.766035
#
# Coordination Sequence:
#
# PCOD9306423 Si02
#       4
#     8   8   8   8
#     4  11  25  48  73 108 154 203 259 318 391 463
#     4  11  26  47  73 110 151 206 255 324 384 466
#     4  12  25  46  77 108 150 204 254 323 385 466
#     4  12  27  49  79 116 157 207 262 324 392 461
#
# _framework density 25.54908
#
# number of rings (size 3 to 8) (size 9 to 14) (size 15 to 20)
#    0.000    0.500    5.000    2.250    3.500    2.000 
#    0.000    0.000    0.000    0.000    0.000    0.000 
#    0.000    0.000    0.000    0.000    0.000    0.000 
#
# Total GULP energy -89573.655689 kJ/mol
# GULP energy per Si atom -5598.353481 kJ/mol
# Density = 2.549093 g / cm^3
# Si number density = 25.549080 Si / 1000 Ang^3
#
#
#
# Elastic Constant Matrix: (Units=GPa)
#
#
# Indices 1 2 3 4 5 6 
#
# 1 236.9445 33.4809 54.4365 0.0000 -13.1545 0.0000
# 2 33.4809 51.4985 21.4507 0.0000 -6.7536 0.0000
# 3 54.4365 21.4507 113.1483 0.0000 1.5187 0.0000
# 4 0.0000 0.0000 0.0000 43.6067 0.0000 6.5252
# 5 -13.1545 -6.7536 1.5187 0.0000 59.7688 0.0000
# 6 0.0000 0.0000 0.0000 6.5252 0.0000 24.8232
#
#
#
# Elastic Compliance Matrix: (Units=1/GPa)
#
#
# Indices 1 2 3 4 5 6 
#
# 1 0.005061 -0.002338 -0.002004 0.000000 0.000901 0.000000
# 2 -0.002338 0.022538 -0.003176 0.000000 0.002113 0.000000
# 3 -0.002004 -0.003176 0.010419 0.000000 -0.001065 0.000000
# 4 0.000000 0.000000 0.000000 0.023871 0.000000 -0.006275
# 5 0.000901 0.002113 -0.001065 0.000000 0.017195 0.000000
# 6 0.000000 0.000000 0.000000 -0.006275 0.000000 0.041934
#
#
# Mechanical properties :
#
#
# Convention : Reuss Voigt Hill
#
# Bulk Modulus (GPa) = 43.51286 68.92526 56.21906
# Shear Modulus (GPa) = 34.79113 45.12127 39.95620
#
# Velocity S-wave (km/s) = 3.69418 4.20701 3.95891
# Velocity P-wave (km/s) = 5.93835 7.11581 6.55358
#
# Compressibility (1/GPa) = 0.02298171
#
# Stress axis : x y z
#
# Youngs Moduli (GPa) = 197.58631 44.36957 95.98295
#
# Poissons Ratio (x) = 0.10372 0.19234
# Poissons Ratio (y) = 0.46188 0.30489
# Poissons Ratio (z) = 0.39593 0.14094
#
# Static dielectric constant tensor:
#      x y z
#    x 1.962210 0.000000 0.025370 
#    y 0.000000 2.086810 0.000000 
#    z 0.025370 0.000000 2.143900 
# 
# From -- ./inp_files/201815.got.cif
#   From: 2010.05.17/outbox.cif.g08.bks.cpg/sg15_101_cif.got.tgz:201815.got - 2010.06.03 18:47:42.
