data_PCOD9306930
_publ_section_title
;
Structure prediction by ZEFSAII (Michael W. Deem and Ramdas Pophale) SiO2 
 PCOD9306930
Probable space group: C 2/C
;
_chemical_formula_sum "Si O2"
_cell_formula_units_Z 48
_cell_length_a 11.536694
_cell_length_b 18.524042
_cell_length_c 15.170543
_cell_angle_alpha 90.000000
_cell_angle_beta 36.934754
_cell_angle_gamma 90.000000
_cell_volume 1948.158128
_symmetry_space_group_name_H-M "C 2/C"
_symmetry_group_IT_number 15
_symmetry_cell_setting 'monoclinic'
loop_
_space_group_symop_operation_xyz
x,y,z
-x,y,1/2-z
-x,-y,-z
x,-y,1/2+z
1/2+x,1/2+y,z
1/2-x,1/2+y,1/2-z
1/2-x,1/2-y,-z
1/2+x,1/2-y,1/2+z
loop_
_atom_site_type_symbol
_atom_site_label
_atom_site_fract_x
_atom_site_fract_y
_atom_site_fract_z
Si Si1 0.108663 0.193929 0.837908
Si Si2 0.221032 0.100156 0.495029
Si Si3 0.943769 0.704288 0.968987
Si Si4 0.000000 0.643923 0.750000
Si Si5 0.450526 0.072576 0.080636
Si Si6 0.500000 0.793685 0.750000
Si Si7 0.228995 0.986403 0.364761
O O1 0.325255 0.199456 0.673891
O O2 0.995920 0.247108 0.840079
O O3 0.003902 0.118599 0.876315
O O4 0.098559 0.226349 0.943040
O O5 0.351271 0.107450 0.501884
O O6 0.314687 0.155421 0.368118
O O7 0.272598 0.019928 0.434044
O O8 0.906922 0.691506 0.886187
O O9 0.862131 0.634876 0.072401
O O10 0.838482 0.590638 0.802587
O O11 0.316820 0.040750 0.239078
O O12 0.500000 0.000000 0.000000
O O13 0.000000 0.000000 0.500000
#
# Coordination Sequence:
#
# PCOD9306930 Si02
#       7
#     8   8   8   4   8   4   8
#     4  12  25  42  70 109 141 197 245 299 379 435
#     4  12  21  40  69  98 144 180 233 300 367 434
#     4  12  26  46  72 101 150 192 249 306 368 444
#     4  12  25  52  70 102 152 195 248 316 362 440
#     4  12  23  44  69 103 142 185 231 305 374 435
#     4  12  19  40  64 102 140 181 228 308 362 418
#     4  12  24  45  74 104 141 191 237 300 374 438
#
# _framework density 24.638656000000001
#
# number of rings (size 3 to 8) (size 9 to 14) (size 15 to 20)
#    0.000    0.000    8.333    2.500    0.000    0.667 
#    0.000    2.500    0.000    0.000    0.000    0.000 
#    0.000    0.000    0.000    0.000    0.000    0.000 
#
# Total GULP energy -133941.368229 kJ/mol
# GULP energy per Si atom -5580.890343 kJ/mol
# Density = 2.458258 g / cm^3
# Si number density = 24.638656 Si / 1000 Ang^3
#
#
#
# Elastic Constant Matrix: (Units=GPa)
#
#
# Indices 1 2 3 4 5 6 
#
# 1 110.4231 19.6035 53.4703 0.0002 21.1705 -0.0002
# 2 19.6035 93.2522 26.8975 -0.0115 19.1162 0.0065
# 3 53.4703 26.8975 125.9994 -0.0187 -1.1293 0.0112
# 4 0.0002 -0.0115 -0.0187 45.7907 0.0021 21.0937
# 5 21.1705 19.1162 -1.1293 0.0021 49.9448 -0.0018
# 6 -0.0002 0.0065 0.0112 21.0937 -0.0018 42.8716
#
#
#
# Elastic Compliance Matrix: (Units=1/GPa)
#
#
# Indices 1 2 3 4 5 6 
#
# 1 0.012764 0.000032 -0.005473 -0.000003 -0.005547 0.000003
# 2 0.000032 0.012499 -0.002726 0.000004 -0.004859 -0.000003
# 3 -0.005473 -0.002726 0.010873 0.000006 0.003609 -0.000005
# 4 -0.000003 0.000004 0.000006 0.028239 -0.000002 -0.013894
# 5 -0.005547 -0.004859 0.003609 -0.000002 0.024315 0.000002
# 6 0.000003 -0.000003 -0.000005 -0.013894 0.000002 0.030162
#
#
# Mechanical properties :
#
#
# Convention : Reuss Voigt Hill
#
# Bulk Modulus (GPa) = 50.49542 58.84637 54.67089
# Shear Modulus (GPa) = 35.26445 43.03498 39.14971
#
# Velocity S-wave (km/s) = 3.78731 4.18382 3.99049
# Velocity P-wave (km/s) = 6.29792 6.87566 6.59313
#
# Compressibility (1/GPa) = 0.01980378
#
# Stress axis : x y z
#
# Youngs Moduli (GPa) = 78.34492 80.00591 91.96722
#
# Poissons Ratio (x) = -0.00260 0.50337
# Poissons Ratio (y) = -0.00254 0.25066
# Poissons Ratio (z) = 0.42881 0.21806
#
# Static dielectric constant tensor:
#      x y z
#    x 2.094560 0.000010 0.014780 
#    y 0.000010 1.830990 0.000000 
#    z 0.014780 0.000000 1.983460 
# 
# From -- ./inp_files/147390.got.cif
#   From: 2010.05.17/outbox.cif.g08.bks.cpg/sg15_74_cif.got.tgz:147390.got - 2010.06.03 18:47:42.
