data_PCOD9306744
_publ_section_title
;
Structure prediction by ZEFSAII (Michael W. Deem and Ramdas Pophale) SiO2 
 PCOD9306744
Probable space group: C 2/C
;
_chemical_formula_sum "Si O2"
_cell_formula_units_Z 24
_cell_length_a 8.821548
_cell_length_b 12.617345
_cell_length_c 11.734004
_cell_angle_alpha 90.000000
_cell_angle_beta 45.054356
_cell_angle_gamma 90.000000
_cell_volume 924.390843
_symmetry_space_group_name_H-M "C 2/C"
_symmetry_group_IT_number 15
_symmetry_cell_setting 'monoclinic'
loop_
_space_group_symop_operation_xyz
x,y,z
-x,y,1/2-z
-x,-y,-z
x,-y,1/2+z
1/2+x,1/2+y,z
1/2-x,1/2+y,1/2-z
1/2-x,1/2-y,-z
1/2+x,1/2-y,1/2+z
loop_
_atom_site_type_symbol
_atom_site_label
_atom_site_fract_x
_atom_site_fract_y
_atom_site_fract_z
Si Si1 0.554924 0.717495 0.339343
Si Si2 0.509111 0.886365 0.557113
Si Si3 0.109572 0.000344 0.566202
O O1 0.500000 0.775889 0.250000
O O2 0.573913 0.796765 0.432970
O O3 0.368995 0.627408 0.436714
O O4 0.777422 0.652405 0.219240
O O5 0.696434 0.916319 0.545224
O O6 0.500000 0.000000 0.500000
O O7 0.000000 0.027528 0.750000
O O8 0.000000 0.000000 0.500000
#
# Coordination Sequence:
#
# PCOD9306744 Si02
#       3
#     8   8   8
#     4  11  26  49  84 125 172 221 289 352 433 512
#     4  12  26  50  83 122 167 230 278 357 430 511
#     4  11  27  51  80 122 170 218 288 352 425 515
#
# _framework density 25.963044
#
# number of rings (size 3 to 8) (size 9 to 14) (size 15 to 20)
#    0.000    0.667    6.667    1.000    4.667    2.667 
#    0.000    0.000    0.000    0.000    0.000    0.000 
#    0.000    0.000    0.000    0.000    0.000    0.000 
#
# Total GULP energy -66934.133631 kJ/mol
# GULP energy per Si atom -5577.844469 kJ/mol
# Density = 2.590395 g / cm^3
# Si number density = 25.963044 Si / 1000 Ang^3
#
#
#
# Elastic Constant Matrix: (Units=GPa)
#
#
# Indices 1 2 3 4 5 6 
#
# 1 231.6121 64.6415 88.4257 -0.0003 19.2602 0.0002
# 2 64.6415 154.2727 79.1137 -0.0002 -14.2523 0.0002
# 3 88.4257 79.1137 136.4874 -0.0007 -8.3313 0.0007
# 4 -0.0003 -0.0002 -0.0007 62.7593 0.0006 -3.6645
# 5 19.2602 -14.2523 -8.3313 0.0006 48.3427 -0.0006
# 6 0.0002 0.0002 0.0007 -3.6645 -0.0006 53.5211
#
#
#
# Elastic Compliance Matrix: (Units=1/GPa)
#
#
# Indices 1 2 3 4 5 6 
#
# 1 0.006310 -0.001080 -0.003673 0.000000 -0.003465 0.000000
# 2 -0.001080 0.009569 -0.004698 0.000000 0.002442 0.000000
# 3 -0.003673 -0.004698 0.012566 0.000000 0.002244 0.000000
# 4 0.000000 0.000000 0.000000 0.015998 0.000000 0.001095
# 5 -0.003465 0.002442 0.002244 0.000000 0.023173 0.000000
# 6 0.000000 0.000000 0.000000 0.001095 0.000000 0.018759
#
#
# Mechanical properties :
#
#
# Convention : Reuss Voigt Hill
#
# Bulk Modulus (GPa) = 104.79021 109.63712 107.21366
# Shear Modulus (GPa) = 46.10038 52.27072 49.18555
#
# Velocity S-wave (km/s) = 4.21838 4.49182 4.35724
# Velocity P-wave (km/s) = 8.01094 8.31996 8.16691
#
# Compressibility (1/GPa) = 0.00954288
#
# Stress axis : x y z
#
# Youngs Moduli (GPa) = 158.48986 104.49930 79.57682
#
# Poissons Ratio (x) = 0.11288 0.29230
# Poissons Ratio (y) = 0.17121 0.37385
# Poissons Ratio (z) = 0.58215 0.49093
#
# Static dielectric constant tensor:
#      x y z
#    x 2.377020 0.000000 -0.056020 
#    y 0.000000 1.994980 0.000000 
#    z -0.056020 0.000000 2.311490 
# 
# From -- ./inp_files/74978.got.cif
#   From: 2010.05.17/outbox.cif.g08.bks.cpg/sg15_38_cif.got.tgz:74978.got - 2010.06.03 18:47:42.
