data_PCOD9306608
_publ_section_title
;
Structure prediction by ZEFSAII (Michael W. Deem and Ramdas Pophale) SiO2 
 PCOD9306608
Probable space group: C 2/C
;
_chemical_formula_sum "Si O2"
_cell_formula_units_Z 36
_cell_length_a 11.267631
_cell_length_b 13.637274
_cell_length_c 20.067270
_cell_angle_alpha 90.000000
_cell_angle_beta 145.366944
_cell_angle_gamma 90.000000
_cell_volume 1752.428495
_symmetry_space_group_name_H-M "C 2/C"
_symmetry_group_IT_number 15
_symmetry_cell_setting 'monoclinic'
loop_
_space_group_symop_operation_xyz
x,y,z
-x,y,1/2-z
-x,-y,-z
x,-y,1/2+z
1/2+x,1/2+y,z
1/2-x,1/2+y,1/2-z
1/2-x,1/2-y,-z
1/2+x,1/2-y,1/2+z
loop_
_atom_site_type_symbol
_atom_site_label
_atom_site_fract_x
_atom_site_fract_y
_atom_site_fract_z
Si Si1 0.031153 0.183161 0.585405
Si Si2 0.445558 0.142450 0.147751
Si Si3 0.681901 0.048095 0.702646
Si Si4 0.500000 0.447569 0.750000
Si Si5 0.837652 0.687836 0.479186
O O1 0.209044 0.106334 0.686873
O O2 0.080518 0.239635 0.540233
O O3 0.803773 0.134119 0.475795
O O4 0.018794 0.264449 0.638183
O O5 0.500000 0.157116 0.250000
O O6 0.559788 0.046609 0.172673
O O7 0.522988 0.118609 0.590570
O O8 0.862236 0.013072 0.735736
O O9 0.343828 0.379167 0.635929
O O10 0.750000 0.750000 0.500000
#
# Coordination Sequence:
#
# PCOD9306608 Si02
#       5
#     8   8   8   4   8
#     4  11  26  47  72 101 142 186 231 288 348 415
#     4  11  26  46  72 103 139 185 235 283 351 416
#     4  12  27  46  72 103 142 183 235 289 347 417
#     4  12  26  46  72 104 138 186 236 284 350 412
#     4  12  27  47  71 104 143 185 232 291 348 413
#
# _framework density 20.542922000000001
#
# number of rings (size 3 to 8) (size 9 to 14) (size 15 to 20)
#    0.000    0.444    2.222    4.667   14.000    0.889 
#    0.000    0.000    0.000    0.000    0.000    0.000 
#    0.000    0.000    0.000    0.000    0.000    0.000 
#
# Total GULP energy -100891.977702 kJ/mol
# GULP energy per Si atom -5605.109872 kJ/mol
# Density = 2.049616 g / cm^3
# Si number density = 20.542922 Si / 1000 Ang^3
#
#
#
# Elastic Constant Matrix: (Units=GPa)
#
#
# Indices 1 2 3 4 5 6 
#
# 1 142.1482 47.0707 37.0905 0.0006 -2.3715 -0.0003
# 2 47.0707 86.8994 59.8632 0.0008 11.9255 -0.0004
# 3 37.0905 59.8632 121.3511 0.0083 10.0508 -0.0049
# 4 0.0006 0.0008 0.0083 638.4184 0.0020 -365.7727
# 5 -2.3715 11.9255 10.0508 0.0020 36.5367 -0.0012
# 6 -0.0003 -0.0004 -0.0049 -365.7727 -0.0012 254.0581
#
#
#
# Elastic Compliance Matrix: (Units=1/GPa)
#
#
# Indices 1 2 3 4 5 6 
#
# 1 0.008765 -0.004669 -0.000562 0.000000 0.002248 0.000000
# 2 -0.004669 0.020342 -0.008220 0.000000 -0.004681 0.000000
# 3 -0.000562 -0.008220 0.012534 0.000000 -0.000801 0.000000
# 4 0.000000 0.000000 0.000000 0.008944 0.000000 0.012877
# 5 0.002248 -0.004681 -0.000801 0.000000 0.029264 0.000000
# 6 0.000000 0.000000 0.000000 0.012877 0.000000 0.022475
#
#
# Mechanical properties :
#
#
# Convention : Reuss Voigt Hill
#
# Bulk Modulus (GPa) = 67.84892 70.93862 69.39377
# Shear Modulus (GPa) = 37.27509 199.56090 118.41799
#
# Velocity S-wave (km/s) = 4.26431 9.86683 7.60061
# Velocity P-wave (km/s) = 7.57268 12.82235 10.52991
#
# Compressibility (1/GPa) = 0.01473863
#
# Stress axis : x y z
#
# Youngs Moduli (GPa) = 114.08801 49.16034 79.78608
#
# Poissons Ratio (x) = 0.22954 0.04483
# Poissons Ratio (y) = 0.53270 0.65582
# Poissons Ratio (z) = 0.06410 0.40409
#
# Static dielectric constant tensor:
#      x y z
#    x 1.699790 0.000000 0.003130 
#    y 0.000000 1.697600 0.000000 
#    z 0.003130 0.000000 1.702890 
# 
# From -- ./inp_files/85343.got.cif
#   From: 2010.05.17/outbox.cif.g08.bks.cpg/sg15_43_cif.got.tgz:85343.got - 2010.06.03 18:47:42.
