data_PCOD9306025
_publ_section_title
;
Structure prediction by ZEFSAII (Michael W. Deem and Ramdas Pophale) SiO2 
 PCOD9306025
Probable space group: C 2/C
;
_chemical_formula_sum "Si O2"
_cell_formula_units_Z 48
_cell_length_a 14.347586
_cell_length_b 10.716544
_cell_length_c 14.394230
_cell_angle_alpha 90.000000
_cell_angle_beta 65.862651
_cell_angle_gamma 90.000000
_cell_volume 2019.701417
_symmetry_space_group_name_H-M "C 2/C"
_symmetry_group_IT_number 15
_symmetry_cell_setting 'monoclinic'
loop_
_space_group_symop_operation_xyz
x,y,z
-x,y,1/2-z
-x,-y,-z
x,-y,1/2+z
1/2+x,1/2+y,z
1/2-x,1/2+y,1/2-z
1/2-x,1/2-y,-z
1/2+x,1/2-y,1/2+z
loop_
_atom_site_type_symbol
_atom_site_label
_atom_site_fract_x
_atom_site_fract_y
_atom_site_fract_z
Si Si1 0.611246 0.622741 0.870180
Si Si2 0.303196 0.761470 0.377713
Si Si3 0.867526 0.390968 0.075989
Si Si4 0.113357 0.871277 0.982822
Si Si5 0.846199 0.986848 0.333489
Si Si6 0.042890 0.519201 0.639661
O O1 0.708655 0.709870 0.847628
O O2 0.506629 0.667508 0.960950
O O3 0.595456 0.587406 0.769905
O O4 0.630661 0.489212 0.910484
O O5 0.250000 0.750000 0.500000
O O6 0.365215 0.634722 0.332074
O O7 0.377873 0.878643 0.354834
O O8 0.773478 0.476984 0.142411
O O9 0.955309 0.410803 0.115977
O O10 0.831667 0.248885 0.080300
O O11 0.905161 0.431581 0.958149
O O12 0.142574 0.919883 0.072385
O O13 0.000000 0.454008 0.750000
#
# Coordination Sequence:
#
# PCOD9306025 Si02
#       6
#     8   8   8   8   8   8
#     4  11  26  43  70 104 133 180 223 277 335 396
#     4  12  23  48  69  98 138 179 223 278 331 405
#     4  11  25  45  67 103 138 173 225 284 332 394
#     4  11  25  46  67 101 140 173 224 281 334 394
#     4  12  26  44  72 101 135 180 225 273 340 398
#     4  11  25  42  70 101 133 182 226 274 338 397
#
# _framework density 23.765888
#
# number of rings (size 3 to 8) (size 9 to 14) (size 15 to 20)
#    0.000    0.667    3.333    3.000    9.333    1.333 
#    0.000    0.000    0.000    0.000    0.000    0.000 
#    0.000    0.000    0.000    0.000    0.000    0.000 
#
# Total GULP energy -134412.722959 kJ/mol
# GULP energy per Si atom -5600.530123 kJ/mol
# Density = 2.371180 g / cm^3
# Si number density = 23.765888 Si / 1000 Ang^3
#
#
#
# Elastic Constant Matrix: (Units=GPa)
#
#
# Indices 1 2 3 4 5 6 
#
# 1 78.8743 7.9012 -7.6820 0.0000 2.4049 0.0000
# 2 7.9012 69.0977 -5.4309 0.0000 2.9635 0.0000
# 3 -7.6820 -5.4309 102.2842 0.0000 16.1592 0.0000
# 4 0.0000 0.0000 0.0000 16.3275 0.0000 7.7140
# 5 2.4049 2.9635 16.1592 0.0000 31.2634 0.0000
# 6 0.0000 0.0000 0.0000 7.7140 0.0000 13.6255
#
#
#
# Elastic Compliance Matrix: (Units=1/GPa)
#
#
# Indices 1 2 3 4 5 6 
#
# 1 0.012967 -0.001331 0.001133 0.000000 -0.001457 0.000000
# 2 -0.001331 0.014778 0.000969 0.000000 -0.001799 0.000000
# 3 0.001133 0.000969 0.010826 0.000000 -0.005774 0.000000
# 4 0.000000 0.000000 0.000000 0.083610 0.000000 -0.047336
# 5 -0.001457 -0.001799 -0.005774 0.000000 0.035254 0.000000
# 6 0.000000 0.000000 0.000000 -0.047336 0.000000 0.100190
#
#
# Mechanical properties :
#
#
# Convention : Reuss Voigt Hill
#
# Bulk Modulus (GPa) = 24.93009 26.64808 25.78908
# Shear Modulus (GPa) = 18.55614 29.27448 23.91531
#
# Velocity S-wave (km/s) = 2.79729 3.51349 3.17564
# Velocity P-wave (km/s) = 4.57665 5.26275 4.93165
#
# Compressibility (1/GPa) = 0.04011217
#
# Stress axis : x y z
#
# Youngs Moduli (GPa) = 77.12143 67.66904 92.37437
#
# Poissons Ratio (x) = 0.09008 -0.10469
# Poissons Ratio (y) = 0.10266 -0.08950
# Poissons Ratio (z) = -0.08741 -0.06557
#
# Static dielectric constant tensor:
#      x y z
#    x 1.937610 0.000000 -0.030170 
#    y 0.000000 1.840610 0.000000 
#    z -0.030170 0.000000 1.935210 
# 
# From -- ./inp_files/152479.got.cif
#   From: 2010.05.17/outbox.cif.g08.bks.cpg/sg15_77_cif.got.tgz:152479.got - 2010.06.03 18:47:42.
