data_PCOD9306102
_publ_section_title
;
Structure prediction by ZEFSAII (Michael W. Deem and Ramdas Pophale) SiO2 
 PCOD9306102
Probable space group: C 2/C
;
_chemical_formula_sum "Si O2"
_cell_formula_units_Z 56
_cell_length_a 15.005899
_cell_length_b 8.752300
_cell_length_c 22.763020
_cell_angle_alpha 90.000000
_cell_angle_beta 57.846780
_cell_angle_gamma 90.000000
_cell_volume 2531.084830
_symmetry_space_group_name_H-M "C 2/C"
_symmetry_group_IT_number 15
_symmetry_cell_setting 'monoclinic'
loop_
_space_group_symop_operation_xyz
x,y,z
-x,y,1/2-z
-x,-y,-z
x,-y,1/2+z
1/2+x,1/2+y,z
1/2-x,1/2+y,1/2-z
1/2-x,1/2-y,-z
1/2+x,1/2-y,1/2+z
loop_
_atom_site_type_symbol
_atom_site_label
_atom_site_fract_x
_atom_site_fract_y
_atom_site_fract_z
Si Si1 0.908688 0.103418 0.440147
Si Si2 0.505784 0.704078 0.647825
Si Si3 0.626626 0.754243 0.360447
Si Si4 0.248126 0.794141 0.418790
Si Si5 0.389841 0.849967 0.260870
Si Si6 0.139685 0.308640 0.711461
Si Si7 0.577151 0.923353 0.926197
O O1 0.823361 0.081739 0.522145
O O2 0.845190 0.228210 0.423106
O O3 0.020225 0.175272 0.420898
O O4 0.940950 0.951629 0.393798
O O5 0.584056 0.778855 0.668565
O O6 0.400445 0.686013 0.725516
O O7 0.477598 0.808086 0.601096
O O8 0.627226 0.748012 0.289772
O O9 0.736752 0.689274 0.342360
O O10 0.624715 0.933028 0.375537
O O11 0.297701 0.840778 0.340228
O O12 0.166517 0.661073 0.431966
O O13 0.500000 0.800816 0.250000
O O14 0.396392 0.031166 0.247504
O O15 0.500000 0.000000 0.000000
#
# Coordination Sequence:
#
# PCOD9306102 Si02
#       7
#     8   8   8   8   8   8   8
#     4  11  26  46  72 107 146 185 244 293 366 432
#     4  11  25  46  72 105 146 187 235 300 352 429
#     4  12  25  44  72 105 139 192 238 298 358 429
#     4  11  26  46  72 103 144 191 240 299 362 435
#     4  12  23  45  72 104 142 190 240 300 357 427
#     4  11  25  44  73 106 148 181 246 291 358 423
#     4  12  25  47  74 102 143 188 240 295 360 432
#
# _framework density 22.124901000000001
#
# number of rings (size 3 to 8) (size 9 to 14) (size 15 to 20)
#    0.000    0.571    5.714    1.714    4.000    4.000 
#    0.000    2.143    0.000    0.000    0.000    0.000 
#    0.000    0.000    0.000    0.000    0.000    0.000 
#
# Total GULP energy -156457.895755 kJ/mol
# GULP energy per Si atom -5587.781991 kJ/mol
# Density = 2.207454 g / cm^3
# Si number density = 22.124901 Si / 1000 Ang^3
#
#
#
# Elastic Constant Matrix: (Units=GPa)
#
#
# Indices 1 2 3 4 5 6 
#
# 1 115.0597 10.6906 15.1799 0.0000 -24.0977 0.0000
# 2 10.6906 33.1467 -2.7871 0.0000 -10.6619 0.0000
# 3 15.1799 -2.7871 101.0154 0.0000 -23.8766 0.0000
# 4 0.0000 0.0000 0.0000 45.5780 0.0000 -5.1507
# 5 -24.0977 -10.6619 -23.8766 0.0000 34.7442 0.0000
# 6 0.0000 0.0000 0.0000 -5.1507 0.0000 11.4342
#
#
#
# Elastic Compliance Matrix: (Units=1/GPa)
#
#
# Indices 1 2 3 4 5 6 
#
# 1 0.010206 -0.001115 0.000033 0.000000 0.006759 0.000000
# 2 -0.001115 0.035006 0.004167 0.000000 0.012833 0.000000
# 3 0.000033 0.004167 0.012318 0.000000 0.009767 0.000000
# 4 0.000000 0.000000 0.000000 0.023117 0.000000 0.010414
# 5 0.006759 0.012833 0.009767 0.000000 0.044120 0.000000
# 6 0.000000 0.000000 0.000000 0.010414 0.000000 0.092148
#
#
# Mechanical properties :
#
#
# Convention : Reuss Voigt Hill
#
# Bulk Modulus (GPa) = 15.69843 32.82096 24.25970
# Shear Modulus (GPa) = 21.55374 33.42718 27.49046
#
# Velocity S-wave (km/s) = 3.12458 3.89117 3.52875
# Velocity P-wave (km/s) = 4.48643 5.92071 5.25276
#
# Compressibility (1/GPa) = 0.06370063
#
# Stress axis : x y z
#
# Youngs Moduli (GPa) = 97.98172 28.56615 81.18237
#
# Poissons Ratio (x) = 0.03184 -0.00270
# Poissons Ratio (y) = 0.10922 -0.33825
# Poissons Ratio (z) = -0.00326 -0.11902
#
# Static dielectric constant tensor:
#      x y z
#    x 1.804240 0.000000 0.027090 
#    y 0.000000 1.835840 0.000000 
#    z 0.027090 0.000000 2.006990 
# 
# From -- ./inp_files/273052.got.cif
#   From: 2010.05.17/outbox.cif.g08.bks.cpg/sg15_137_cif.got.tgz:273052.got - 2010.06.03 18:47:42.
