data_PCOD9306599
_publ_section_title
;
Structure prediction by ZEFSAII (Michael W. Deem and Ramdas Pophale) SiO2 
 PCOD9306599
Probable space group: C 2/C
;
_chemical_formula_sum "Si O2"
_cell_formula_units_Z 20
_cell_length_a 19.753420
_cell_length_b 4.886759
_cell_length_c 10.366030
_cell_angle_alpha 90.000000
_cell_angle_beta 38.915249
_cell_angle_gamma 90.000000
_cell_volume 628.569037
_symmetry_space_group_name_H-M "C 2/C"
_symmetry_group_IT_number 15
_symmetry_cell_setting 'monoclinic'
loop_
_space_group_symop_operation_xyz
x,y,z
-x,y,1/2-z
-x,-y,-z
x,-y,1/2+z
1/2+x,1/2+y,z
1/2-x,1/2+y,1/2-z
1/2-x,1/2-y,-z
1/2+x,1/2-y,1/2+z
loop_
_atom_site_type_symbol
_atom_site_label
_atom_site_fract_x
_atom_site_fract_y
_atom_site_fract_z
Si Si1 0.073749 0.705372 0.383153
Si Si2 0.500000 0.814032 0.250000
Si Si3 0.710824 0.508127 0.966675
O O1 0.007882 0.465650 0.379611
O O2 0.188892 0.557722 0.272739
O O3 0.000000 0.000000 0.500000
O O4 0.151356 0.789578 0.144682
O O5 0.398217 0.629221 0.435291
O O6 0.750000 0.750000 0.000000
#
# Coordination Sequence:
#
# PCOD9306599 Si02
#       3
#     8   4   8
#     4  11  26  46  70 104 142 181 245 300 347 435
#     4  12  26  42  76  96 138 198 224 292 372 414
#     4  11  26  47  67 104 144 182 241 298 354 431
#
# _framework density 31.818301000000002
#
# number of rings (size 3 to 8) (size 9 to 14) (size 15 to 20)
#    0.000    0.800    4.000    1.200    5.600    1.600 
#    0.000    0.000    0.000    0.000    0.000    0.000 
#    0.000    0.000    0.000    0.000    0.000    0.000 
#
# Total GULP energy -55685.506097 kJ/mol
# GULP energy per Si atom -5568.550610 kJ/mol
# Density = 3.174588 g / cm^3
# Si number density = 31.818301 Si / 1000 Ang^3
#
#
#
# Elastic Constant Matrix: (Units=GPa)
#
#
# Indices 1 2 3 4 5 6 
#
# 1 107.8134 8.8367 78.5546 0.0006 -30.4409 0.0004
# 2 8.8367 169.0009 126.0984 -0.0206 -29.3012 0.0053
# 3 78.5546 126.0984 469.7109 -0.0060 -58.6019 0.0008
# 4 0.0006 -0.0206 -0.0060 113.4215 0.0022 -4.4080
# 5 -30.4409 -29.3012 -58.6019 0.0022 99.4892 0.0007
# 6 0.0004 0.0053 0.0008 -4.4080 0.0007 64.0300
#
#
#
# Elastic Compliance Matrix: (Units=1/GPa)
#
#
# Indices 1 2 3 4 5 6 
#
# 1 0.011325 0.001301 -0.001903 0.000000 0.002727 0.000000
# 2 0.001301 0.007660 -0.002097 0.000001 0.001419 -0.000001
# 3 -0.001903 -0.002097 0.003087 0.000000 0.000619 0.000000
# 4 0.000000 0.000001 0.000000 0.008840 0.000000 0.000609
# 5 0.002727 0.001419 0.000619 0.000000 0.011668 0.000000
# 6 0.000000 -0.000001 0.000000 0.000609 0.000000 0.015660
#
#
# Mechanical properties :
#
#
# Convention : Reuss Voigt Hill
#
# Bulk Modulus (GPa) = 59.97424 130.38939 95.18181
# Shear Modulus (GPa) = 72.25803 90.92385 81.59094
#
# Velocity S-wave (km/s) = 4.77063 5.35145 5.06936
# Velocity P-wave (km/s) = 7.01677 8.90238 8.01522
#
# Compressibility (1/GPa) = 0.01667383
#
# Stress axis : x y z
#
# Youngs Moduli (GPa) = 88.29835 130.55498 323.90655
#
# Poissons Ratio (x) = -0.16979 0.61636
# Poissons Ratio (y) = -0.11483 0.67917
# Poissons Ratio (z) = 0.16802 0.27375
#
# Static dielectric constant tensor:
#      x y z
#    x -311.026700 0.009890 55.970150 
#    y 0.009890 3.696020 -0.001720 
#    z 55.970150 -0.001720 -8.072390 
# 
# From -- ./inp_files/108759.got.cif
#   From: 2010.05.17/outbox.cif.g08.bks.cpg/sg15_55_cif.got.tgz:108759.got - 2010.06.03 18:47:42.
