data_PCOD9306546
_publ_section_title
;
Structure prediction by ZEFSAII (Michael W. Deem and Ramdas Pophale) SiO2 
 PCOD9306546
Probable space group: C 2/C
;
_chemical_formula_sum "Si O2"
_cell_formula_units_Z 40
_cell_length_a 13.323832
_cell_length_b 5.241487
_cell_length_c 29.226861
_cell_angle_alpha 90.000000
_cell_angle_beta 131.142109
_cell_angle_gamma 90.000000
_cell_volume 1537.117199
_symmetry_space_group_name_H-M "C 2/C"
_symmetry_group_IT_number 15
_symmetry_cell_setting 'monoclinic'
loop_
_space_group_symop_operation_xyz
x,y,z
-x,y,1/2-z
-x,-y,-z
x,-y,1/2+z
1/2+x,1/2+y,z
1/2-x,1/2+y,1/2-z
1/2-x,1/2-y,-z
1/2+x,1/2-y,1/2+z
loop_
_atom_site_type_symbol
_atom_site_label
_atom_site_fract_x
_atom_site_fract_y
_atom_site_fract_z
Si Si1 0.471602 0.529064 0.696309
Si Si2 0.386266 0.841167 0.596053
Si Si3 0.772299 0.221393 0.886962
Si Si4 0.221062 0.679226 0.770382
Si Si5 0.158975 0.436455 0.504042
O O1 0.500000 0.692740 0.750000
O O2 0.488319 0.661761 0.652928
O O3 0.314954 0.470945 0.650298
O O4 0.569419 0.288074 0.730098
O O5 0.256403 0.668946 0.545996
O O6 0.331097 0.048733 0.614916
O O7 0.440669 0.959525 0.564901
O O8 0.786099 0.116820 0.839839
O O9 0.877745 0.296583 0.959172
O O10 0.222299 0.428563 0.739396
O O11 0.250000 0.250000 0.500000
#
# Coordination Sequence:
#
# PCOD9306546 Si02
#       5
#     8   8   8   8   8
#     4   9  20  34  55  83 109 152 195 245 286 346
#     4   9  16  29  59  83 114 139 191 246 289 337
#     4   9  19  34  58  83 112 149 198 242 286 346
#     4  11  26  40  56  83 122 161 195 239 298 352
#     4   8  15  29  50  91 110 140 182 248 292 334
#
# _framework density 26.022739999999999
#
# number of rings (size 3 to 8) (size 9 to 14) (size 15 to 20)
#    0.000    2.800    0.000    0.000   11.200    0.800 
#    0.000    0.000    0.000    2.400    0.000    0.000 
#    0.000    0.000    0.000    0.000    0.000    0.000 
#
# Total GULP energy -111397.220832 kJ/mol
# GULP energy per Si atom -5569.861042 kJ/mol
# Density = 2.596351 g / cm^3
# Si number density = 26.022740 Si / 1000 Ang^3
#
#
#
# Elastic Constant Matrix: (Units=GPa)
#
#
# Indices 1 2 3 4 5 6 
#
# 1 66.8921 -3.0422 21.8334 -0.0001 -35.8886 0.0001
# 2 -3.0422 52.1438 44.3783 -0.0002 -11.0426 0.0003
# 3 21.8334 44.3783 178.9288 0.0000 -54.4615 0.0000
# 4 -0.0001 -0.0002 0.0000 44.0462 0.0000 -3.6173
# 5 -35.8886 -11.0426 -54.4615 0.0000 42.9055 0.0000
# 6 0.0001 0.0003 0.0000 -3.6173 0.0000 26.0016
#
#
#
# Elastic Compliance Matrix: (Units=1/GPa)
#
#
# Indices 1 2 3 4 5 6 
#
# 1 0.032312 0.004518 0.005732 0.000000 0.035466 0.000000
# 2 0.004518 0.025078 -0.005958 0.000000 0.002670 0.000000
# 3 0.005732 -0.005958 0.011993 0.000000 0.018484 0.000000
# 4 0.000000 0.000000 0.000000 0.022966 0.000000 0.003195
# 5 0.035466 0.002670 0.018484 0.000000 0.077123 0.000000
# 6 0.000000 0.000000 0.000000 0.003195 0.000000 0.038904
#
#
# Mechanical properties :
#
#
# Convention : Reuss Voigt Hill
#
# Bulk Modulus (GPa) = 12.82621 47.14484 29.98552
# Shear Modulus (GPa) = 22.14524 38.24367 30.19446
#
# Velocity S-wave (km/s) = 2.92035 3.83773 3.41003
# Velocity P-wave (km/s) = 4.03866 6.14765 5.20117
#
# Compressibility (1/GPa) = 0.07796536
#
# Stress axis : x y z
#
# Youngs Moduli (GPa) = 30.94817 39.87581 83.37874
#
# Poissons Ratio (x) = -0.18015 -0.47789
# Poissons Ratio (y) = -0.13982 0.49681
# Poissons Ratio (z) = -0.17738 0.23760
#
# Static dielectric constant tensor:
#      x y z
#    x 2.156250 0.000000 -0.082720 
#    y 0.000000 2.137310 0.000000 
#    z -0.082720 0.000000 2.214740 
# 
# From -- ./inp_files/271653.got.cif
#   From: 2010.05.17/outbox.cif.g08.bks.cpg/sg15_136_cif.got.tgz:271653.got - 2010.06.03 18:47:42.
