data_PCOD9306885
_publ_section_title
;
Structure prediction by ZEFSAII (Michael W. Deem and Ramdas Pophale) SiO2 
 PCOD9306885
Probable space group: C 2/C
;
_chemical_formula_sum "Si O2"
_cell_formula_units_Z 32
_cell_length_a 25.894159
_cell_length_b 4.918089
_cell_length_c 10.592210
_cell_angle_alpha 90.000000
_cell_angle_beta 123.101570
_cell_angle_gamma 90.000000
_cell_volume 1129.991658
_symmetry_space_group_name_H-M "C 2/C"
_symmetry_group_IT_number 15
_symmetry_cell_setting 'monoclinic'
loop_
_space_group_symop_operation_xyz
x,y,z
-x,y,1/2-z
-x,-y,-z
x,-y,1/2+z
1/2+x,1/2+y,z
1/2-x,1/2+y,1/2-z
1/2-x,1/2-y,-z
1/2+x,1/2-y,1/2+z
loop_
_atom_site_type_symbol
_atom_site_label
_atom_site_fract_x
_atom_site_fract_y
_atom_site_fract_z
Si Si1 0.660049 0.490537 0.887392
Si Si2 0.063245 0.402662 0.861086
Si Si3 0.733437 0.879036 0.647213
Si Si4 0.552471 0.284692 0.608242
O O1 0.623464 0.731052 0.905938
O O2 0.726939 0.507397 0.913442
O O3 0.617213 0.437707 0.708847
O O4 0.671749 0.254694 0.007328
O O5 0.000000 0.229647 0.750000
O O6 0.052633 0.640941 0.745462
O O7 0.059831 0.438583 0.007100
O O8 0.769365 0.619035 0.754633
O O9 0.500000 0.500000 0.500000
#
# Coordination Sequence:
#
# PCOD9306885 Si02
#       4
#     8   8   8   8
#     4  11  28  49  87 123 172 239 289 369 451 533
#     4  12  28  52  82 124 179 228 292 358 448 537
#     4  11  28  53  84 125 174 230 309 372 445 523
#     4  12  29  52  84 128 178 235 295 363 454 545
#
# _framework density 28.318792999999999
#
# number of rings (size 3 to 8) (size 9 to 14) (size 15 to 20)
#    0.000    0.500    2.500    2.250   14.000    2.000 
#    0.000    0.000    0.000    0.000    0.000    0.000 
#    0.000    0.000    0.000    0.000    0.000    0.000 
#
# Total GULP energy -89521.802630 kJ/mol
# GULP energy per Si atom -5595.112664 kJ/mol
# Density = 2.825434 g / cm^3
# Si number density = 28.318793 Si / 1000 Ang^3
#
#
#
# Elastic Constant Matrix: (Units=GPa)
#
#
# Indices 1 2 3 4 5 6 
#
# 1 114.8800 68.2858 56.5692 0.0000 -21.9878 0.0000
# 2 68.2858 191.8101 94.1329 0.0000 1.4685 0.0000
# 3 56.5692 94.1329 213.9444 0.0000 0.7433 0.0000
# 4 0.0000 0.0000 0.0000 76.7493 0.0000 -7.5900
# 5 -21.9878 1.4685 0.7433 0.0000 66.6910 0.0000
# 6 0.0000 0.0000 0.0000 -7.5900 0.0000 34.4900
#
#
#
# Elastic Compliance Matrix: (Units=1/GPa)
#
#
# Indices 1 2 3 4 5 6 
#
# 1 0.012531 -0.003648 -0.001723 0.000000 0.004231 0.000000
# 2 -0.003648 0.007712 -0.002424 0.000000 -0.001346 0.000000
# 3 -0.001723 -0.002424 0.006198 0.000000 -0.000584 0.000000
# 4 0.000000 0.000000 0.000000 0.013319 0.000000 0.002931
# 5 0.004231 -0.001346 -0.000584 0.000000 0.016426 0.000000
# 6 0.000000 0.000000 0.000000 0.002931 0.000000 0.029639
#
#
# Mechanical properties :
#
#
# Convention : Reuss Voigt Hill
#
# Bulk Modulus (GPa) = 92.15191 106.51225 99.33208
# Shear Modulus (GPa) = 47.60400 55.69584 51.64992
#
# Velocity S-wave (km/s) = 4.10445 4.43961 4.27532
# Velocity P-wave (km/s) = 7.42116 7.99836 7.71516
#
# Compressibility (1/GPa) = 0.01085165
#
# Stress axis : x y z
#
# Youngs Moduli (GPa) = 79.79902 129.66586 161.33598
#
# Poissons Ratio (x) = 0.47303 0.27799
# Poissons Ratio (y) = 0.29111 0.39107
# Poissons Ratio (z) = 0.13750 0.31431
#
# Static dielectric constant tensor:
#      x y z
#    x 2.384520 0.000000 0.069970 
#    y 0.000000 2.295000 0.000000 
#    z 0.069970 0.000000 2.238840 
# 
# From -- ./inp_files/124638.got.cif
#   From: 2010.05.17/outbox.cif.g08.bks.cpg/sg15_63_cif.got.tgz:124638.got - 2010.06.03 18:47:42.
