data_PCOD9306913
_publ_section_title
;
Structure prediction by ZEFSAII (Michael W. Deem and Ramdas Pophale) SiO2 
 PCOD9306913
Probable space group: C 2/C
;
_chemical_formula_sum "Si O2"
_cell_formula_units_Z 40
_cell_length_a 16.488506
_cell_length_b 9.272062
_cell_length_c 18.792973
_cell_angle_alpha 90.000000
_cell_angle_beta 149.140875
_cell_angle_gamma 90.000000
_cell_volume 1473.704319
_symmetry_space_group_name_H-M "C 2/C"
_symmetry_group_IT_number 15
_symmetry_cell_setting 'monoclinic'
loop_
_space_group_symop_operation_xyz
x,y,z
-x,y,1/2-z
-x,-y,-z
x,-y,1/2+z
1/2+x,1/2+y,z
1/2-x,1/2+y,1/2-z
1/2-x,1/2-y,-z
1/2+x,1/2-y,1/2+z
loop_
_atom_site_type_symbol
_atom_site_label
_atom_site_fract_x
_atom_site_fract_y
_atom_site_fract_z
Si Si1 0.850415 0.889639 0.321878
Si Si2 0.086502 0.475867 0.708523
Si Si3 0.722399 0.756234 0.357721
Si Si4 0.675010 0.468618 0.501513
Si Si5 0.260258 0.421641 0.101273
O O1 0.726285 0.010370 0.255717
O O2 0.839606 0.777155 0.378238
O O3 0.026257 0.941502 0.439465
O O4 0.792028 0.844248 0.199678
O O5 0.070696 0.647692 0.717820
O O6 0.166472 0.413833 0.839973
O O7 0.925636 0.413958 0.558328
O O8 0.697273 0.590450 0.352317
O O9 0.793637 0.859363 0.472921
O O10 0.654554 0.396894 0.409954
#
# Coordination Sequence:
#
# PCOD9306913 Si02
#       5
#     8   8   8   8   8
#     4   9  20  36  50  78 118 156 176 221 286 344
#     4   8  20  34  49  77 116 149 182 219 282 338
#     4   8  21  32  50  78 121 144 182 216 287 330
#     4   9  19  33  50  80 114 142 177 229 281 323
#     4  12  18  32  59  83 105 147 192 236 267 324
#
# _framework density 27.142486999999999
#
# number of rings (size 3 to 8) (size 9 to 14) (size 15 to 20)
#    2.400    0.000    0.000    4.800    2.800    0.000 
#    3.600    0.000    0.000    0.000    0.000   40.600 
#    0.000    0.000    0.000    0.000    0.000    0.000 
#
# Total GULP energy -111666.027111 kJ/mol
# GULP energy per Si atom -5583.301356 kJ/mol
# Density = 2.708071 g / cm^3
# Si number density = 27.142487 Si / 1000 Ang^3
#
#
#
# Elastic Constant Matrix: (Units=GPa)
#
#
# Indices 1 2 3 4 5 6 
#
# 1 161.3068 13.8947 25.3226 -0.0001 -12.6156 0.0000
# 2 13.8947 88.7725 -17.3002 0.0000 -16.4028 0.0000
# 3 25.3226 -17.3002 120.7029 -0.0001 -7.7162 -0.0001
# 4 -0.0001 0.0000 -0.0001 1.8385 0.0000 -4.2378
# 5 -12.6156 -16.4028 -7.7162 0.0000 53.0602 0.0000
# 6 0.0000 0.0000 -0.0001 -4.2378 0.0000 26.5748
#
#
#
# Elastic Compliance Matrix: (Units=1/GPa)
#
#
# Indices 1 2 3 4 5 6 
#
# 1 0.006609 -0.001139 -0.001486 0.000000 0.001003 0.000000
# 2 -0.001139 0.012625 0.002302 0.000000 0.003967 0.000000
# 3 -0.001486 0.002302 0.009033 0.000001 0.001672 0.000000
# 4 0.000000 0.000000 0.000001 0.860034 0.000000 0.137146
# 5 0.001003 0.003967 0.001672 0.000000 0.020555 0.000000
# 6 0.000000 0.000000 0.000000 0.137146 0.000000 0.059500
#
#
# Mechanical properties :
#
#
# Convention : Reuss Voigt Hill
#
# Bulk Modulus (GPa) = 36.20250 46.06846 41.13548
# Shear Modulus (GPa) = 5.11139 39.55236 22.33188
#
# Velocity S-wave (km/s) = 1.37378 3.82149 2.87150
# Velocity P-wave (km/s) = 3.98538 6.03998 5.11686
#
# Compressibility (1/GPa) = 0.02762240
#
# Stress axis : x y z
#
# Youngs Moduli (GPa) = 151.30580 79.21099 110.70157
#
# Poissons Ratio (x) = 0.09019 0.16446
# Poissons Ratio (y) = 0.17227 -0.25483
# Poissons Ratio (z) = 0.22478 -0.18234
#
# Static dielectric constant tensor:
#      x y z
#    x 2.101780 0.000000 -0.021510 
#    y 0.000000 2.276750 0.000000 
#    z -0.021510 0.000000 2.096690 
# 
# From -- ./inp_files/248707.got.cif
#   From: 2010.05.17/outbox.cif.g08.bks.cpg/sg15_125_cif.got.tgz:248707.got - 2010.06.03 18:47:42.
