data_PCOD9306004
_publ_section_title
;
Structure prediction by ZEFSAII (Michael W. Deem and Ramdas Pophale) SiO2 
 PCOD9306004
Probable space group: C 2/C
;
_chemical_formula_sum "Si O2"
_cell_formula_units_Z 48
_cell_length_a 18.838511
_cell_length_b 12.554308
_cell_length_c 11.582877
_cell_angle_alpha 90.000000
_cell_angle_beta 51.237435
_cell_angle_gamma 90.000000
_cell_volume 2136.041175
_symmetry_space_group_name_H-M "C 2/C"
_symmetry_group_IT_number 15
_symmetry_cell_setting 'monoclinic'
loop_
_space_group_symop_operation_xyz
x,y,z
-x,y,1/2-z
-x,-y,-z
x,-y,1/2+z
1/2+x,1/2+y,z
1/2-x,1/2+y,1/2-z
1/2-x,1/2-y,-z
1/2+x,1/2-y,1/2+z
loop_
_atom_site_type_symbol
_atom_site_label
_atom_site_fract_x
_atom_site_fract_y
_atom_site_fract_z
Si Si1 0.105232 0.655645 0.682323
Si Si2 0.855826 0.909148 0.452935
Si Si3 0.163043 0.283969 0.378876
Si Si4 0.414704 0.352295 0.923349
Si Si5 0.144242 0.591480 0.121836
Si Si6 0.117526 0.214915 0.798306
O O1 0.127527 0.684621 0.790597
O O2 0.144112 0.753439 0.566694
O O3 0.132928 0.534075 0.636648
O O4 0.000000 0.655172 0.750000
O O5 0.871253 0.832105 0.545639
O O6 0.750500 0.888671 0.532790
O O7 0.901900 0.865880 0.288225
O O8 0.869620 0.032008 0.466553
O O9 0.123801 0.362918 0.516479
O O10 0.274251 0.290088 0.275224
O O11 0.500000 0.364330 0.750000
O O12 0.435280 0.318624 0.033298
O O13 0.098926 0.667135 0.265343
#
# Coordination Sequence:
#
# PCOD9306004 Si02
#       6
#     8   8   8   8   8   8
#     4  11  25  41  57  94 133 170 209 256 314 383
#     4   9  20  41  68  96 122 163 216 267 320 373
#     4   9  20  41  67  93 124 163 214 267 318 374
#     4  11  25  41  57  94 133 170 209 256 314 383
#     4   9  20  41  68  96 122 163 216 267 320 373
#     4   9  20  41  67  93 124 163 214 267 318 374
#
# _framework density 22.471477
#
# number of rings (size 3 to 8) (size 9 to 14) (size 15 to 20)
#    0.000    2.333    0.000    3.000    4.667    4.000 
#    6.000    1.667    0.000    0.000    0.000    0.000 
#    0.000    0.000    0.000    0.000    0.000    0.000 
#
# Total GULP energy -133988.363564 kJ/mol
# GULP energy per Si atom -5582.848482 kJ/mol
# Density = 2.242033 g / cm^3
# Si number density = 22.471477 Si / 1000 Ang^3
#
#
#
# Elastic Constant Matrix: (Units=GPa)
#
#
# Indices 1 2 3 4 5 6 
#
# 1 99.6033 28.1951 23.9495 0.0000 13.4889 0.0000
# 2 28.1951 202.0526 53.0626 0.0000 36.6040 0.0000
# 3 23.9495 53.0626 75.6915 0.0000 6.4589 0.0000
# 4 0.0000 0.0000 0.0000 14.0591 0.0000 -3.0482
# 5 13.4889 36.6040 6.4589 0.0000 22.6778 0.0000
# 6 0.0000 0.0000 0.0000 -3.0482 0.0000 31.9644
#
#
#
# Elastic Compliance Matrix: (Units=1/GPa)
#
#
# Indices 1 2 3 4 5 6 
#
# 1 0.011644 0.000510 -0.003465 0.000000 -0.006763 0.000000
# 2 0.000510 0.008472 -0.005030 0.000000 -0.012545 0.000000
# 3 -0.003465 -0.005030 0.017388 0.000000 0.005227 0.000000
# 4 0.000000 0.000000 0.000000 0.072630 0.000000 0.006926
# 5 -0.006763 -0.012545 0.005227 0.000000 0.066878 0.000000
# 6 0.000000 0.000000 0.000000 0.006926 0.000000 0.031945
#
#
# Mechanical properties :
#
#
# Convention : Reuss Voigt Hill
#
# Bulk Modulus (GPa) = 46.43676 65.30685 55.87181
# Shear Modulus (GPa) = 21.54199 31.88295 26.71247
#
# Velocity S-wave (km/s) = 3.09955 3.77081 3.45153
# Velocity P-wave (km/s) = 5.78958 6.93425 6.38761
#
# Compressibility (1/GPa) = 0.02153466
#
# Stress axis : x y z
#
# Youngs Moduli (GPa) = 85.87800 118.04221 57.51119
#
# Poissons Ratio (x) = -0.06023 0.19928
# Poissons Ratio (y) = -0.04382 0.28927
# Poissons Ratio (z) = 0.29757 0.59373
#
# Static dielectric constant tensor:
#      x y z
#    x 1.885810 0.000000 -0.088070 
#    y 0.000000 1.876130 0.000000 
#    z -0.088070 0.000000 1.878910 
# 
# From -- ./inp_files/110883.got.cif
#   From: 2010.05.17/outbox.cif.g08.bks.cpg/sg15_56_cif.got.tgz:110883.got - 2010.06.03 18:47:42.
