data_PCOD9306385
_publ_section_title
;
Structure prediction by ZEFSAII (Michael W. Deem and Ramdas Pophale) SiO2 
 PCOD9306385
Probable space group: C 2/C
;
_chemical_formula_sum "Si O2"
_cell_formula_units_Z 44
_cell_length_a 9.576621
_cell_length_b 19.881834
_cell_length_c 8.715777
_cell_angle_alpha 90.000000
_cell_angle_beta 82.015134
_cell_angle_gamma 90.000000
_cell_volume 1643.401714
_symmetry_space_group_name_H-M "C 2/C"
_symmetry_group_IT_number 15
_symmetry_cell_setting 'monoclinic'
loop_
_space_group_symop_operation_xyz
x,y,z
-x,y,1/2-z
-x,-y,-z
x,-y,1/2+z
1/2+x,1/2+y,z
1/2-x,1/2+y,1/2-z
1/2-x,1/2-y,-z
1/2+x,1/2-y,1/2+z
loop_
_atom_site_type_symbol
_atom_site_label
_atom_site_fract_x
_atom_site_fract_y
_atom_site_fract_z
Si Si1 0.750000 0.250000 0.000000
Si Si2 0.880608 0.627508 0.980385
Si Si3 0.209325 0.040654 0.204018
Si Si4 0.500000 0.206769 0.250000
Si Si5 0.500000 0.020486 0.750000
Si Si6 0.500000 0.235488 0.750000
Si Si7 0.500000 0.579203 0.750000
Si Si8 0.100505 0.145034 0.457432
O O1 0.749396 0.333695 0.006993
O O2 0.876016 0.251362 0.848921
O O3 0.741308 0.586176 0.050444
O O4 0.928614 0.662617 0.128658
O O5 0.888405 0.687809 0.853900
O O6 0.981373 0.569994 0.897478
O O7 0.121321 0.085914 0.335074
O O8 0.360192 0.022467 0.251871
O O9 0.128522 0.971028 0.192772
O O10 0.425534 0.283786 0.633461
O O11 0.490062 0.624835 0.601692
#
# Coordination Sequence:
#
# PCOD9306385 Si02
#       8
#     4   8   8   4   4   4   4   8
#     4  12  26  48  80 118 152 220 258 340 412 490
#     4  11  25  47  79 108 156 198 266 337 391 484
#     4  12  26  49  76 114 152 210 266 329 399 483
#     4  12  24  50  77 115 158 206 268 324 418 482
#     4  11  27  46  80 116 144 204 270 330 392 475
#     4  11  27  48  73 119 145 203 262 338 410 465
#     4  12  30  50  78 112 165 217 260 328 412 488
#     4  12  27  47  78 112 161 202 264 330 407 488
#
# _framework density 26.773736
#
# number of rings (size 3 to 8) (size 9 to 14) (size 15 to 20)
#    0.000    0.364    3.636    3.818    2.545    2.182 
#    0.000    0.000    0.000    0.000    0.000    0.000 
#    0.000    0.000    0.000    0.000    0.000    0.000 
#
# Total GULP energy -122885.130371 kJ/mol
# GULP energy per Si atom -5585.687744 kJ/mol
# Density = 2.671280 g / cm^3
# Si number density = 26.773736 Si / 1000 Ang^3
#
#
#
# Elastic Constant Matrix: (Units=GPa)
#
#
# Indices 1 2 3 4 5 6 
#
# 1 106.7449 44.9345 55.3107 0.0000 -11.9948 0.0000
# 2 44.9345 156.8947 88.2005 0.0000 -2.5400 0.0000
# 3 55.3107 88.2005 210.9114 0.0000 -34.6624 0.0000
# 4 0.0000 0.0000 0.0000 224.7602 0.0000 -90.9757
# 5 -11.9948 -2.5400 -34.6624 0.0000 39.4179 0.0000
# 6 0.0000 0.0000 0.0000 -90.9757 0.0000 52.1542
#
#
#
# Elastic Compliance Matrix: (Units=1/GPa)
#
#
# Indices 1 2 3 4 5 6 
#
# 1 0.011430 -0.002254 -0.001762 0.000000 0.001784 0.000000
# 2 -0.002254 0.009082 -0.003768 0.000000 -0.003414 0.000000
# 3 -0.001762 -0.003768 0.007775 0.000000 0.006058 0.000000
# 4 0.000000 0.000000 0.000000 0.015136 0.000000 0.026403
# 5 0.001784 -0.003414 0.006058 0.000000 0.031019 0.000000
# 6 0.000000 0.000000 0.000000 0.026403 0.000000 0.065231
#
#
# Mechanical properties :
#
#
# Convention : Reuss Voigt Hill
#
# Bulk Modulus (GPa) = 78.62139 94.60470 86.61304
# Shear Modulus (GPa) = 31.35156 82.34014 56.84585
#
# Velocity S-wave (km/s) = 3.42567 5.55165 4.61281
# Velocity P-wave (km/s) = 6.71386 8.74677 7.79686
#
# Compressibility (1/GPa) = 0.01271919
#
# Stress axis : x y z
#
# Youngs Moduli (GPa) = 87.48600 110.10385 128.62381
#
# Poissons Ratio (x) = 0.24822 0.22659
# Poissons Ratio (y) = 0.19723 0.48465
# Poissons Ratio (z) = 0.15412 0.41487
#
# Static dielectric constant tensor:
#      x y z
#    x 1.799400 0.000000 -0.181320 
#    y 0.000000 1.918270 0.000000 
#    z -0.181320 0.000000 2.014760 
# 
# From -- ./inp_files/30811.got.cif
#   From: 2010.05.17/outbox.cif.g08.bks.cpg/sg15_16_cif.got.tgz:30811.got - 2010.06.03 18:47:42.
