data_PCOD9306613
_publ_section_title
;
Structure prediction by ZEFSAII (Michael W. Deem and Ramdas Pophale) SiO2 
 PCOD9306613
Probable space group: C 2/C
;
_chemical_formula_sum "Si O2"
_cell_formula_units_Z 36
_cell_length_a 12.047177
_cell_length_b 21.516028
_cell_length_c 9.090364
_cell_angle_alpha 90.000000
_cell_angle_beta 44.399677
_cell_angle_gamma 90.000000
_cell_volume 1648.599959
_symmetry_space_group_name_H-M "C 2/C"
_symmetry_group_IT_number 15
_symmetry_cell_setting 'monoclinic'
loop_
_space_group_symop_operation_xyz
x,y,z
-x,y,1/2-z
-x,-y,-z
x,-y,1/2+z
1/2+x,1/2+y,z
1/2-x,1/2+y,1/2-z
1/2-x,1/2-y,-z
1/2+x,1/2-y,1/2+z
loop_
_atom_site_type_symbol
_atom_site_label
_atom_site_fract_x
_atom_site_fract_y
_atom_site_fract_z
Si Si1 0.772106 0.713788 0.324294
Si Si2 0.954770 0.809455 0.955464
Si Si3 0.848018 0.947767 0.985715
Si Si4 0.000000 0.618202 0.250000
Si Si5 0.163070 0.510514 0.929648
O O1 0.750000 0.750000 0.500000
O O2 0.609138 0.686417 0.414402
O O3 0.905582 0.661691 0.225872
O O4 0.834648 0.763463 0.148208
O O5 0.880931 0.877234 0.999272
O O6 0.000000 0.785903 0.750000
O O7 0.000000 0.971157 0.750000
O O8 0.705427 0.957246 0.005316
O O9 0.798872 0.983850 0.178594
O O10 0.869128 0.574120 0.450512
O O11 0.000000 0.500000 0.000000
#
# Coordination Sequence:
#
# PCOD9306613 Si02
#       5
#     8   8   8   4   8
#     4  12  24  49  74 108 145 197 249 302 364 454
#     4  11  26  46  72 110 150 189 244 309 376 424
#     4  11  26  46  74 106 147 194 245 305 370 439
#     4  12  26  42  82 104 148 190 258 294 374 444
#     4  12  25  48  71 107 146 196 245 304 368 442
#
# _framework density 21.836711000000001
#
# number of rings (size 3 to 8) (size 9 to 14) (size 15 to 20)
#    0.000    0.444    4.444    2.667    6.222    1.778 
#    0.000    0.000    0.000    0.000    0.000    0.000 
#    0.000    0.000    0.000    0.000    0.000    0.000 
#
# Total GULP energy -100723.978609 kJ/mol
# GULP energy per Si atom -5595.776589 kJ/mol
# Density = 2.178701 g / cm^3
# Si number density = 21.836711 Si / 1000 Ang^3
#
#
#
# Elastic Constant Matrix: (Units=GPa)
#
#
# Indices 1 2 3 4 5 6 
#
# 1 163.3484 82.1516 24.5375 0.0000 5.7264 0.0000
# 2 82.1516 84.3949 42.1667 0.0000 7.5164 0.0000
# 3 24.5375 42.1667 132.4657 0.0000 23.9212 0.0000
# 4 0.0000 0.0000 0.0000 32.4042 0.0000 -1.5642
# 5 5.7264 7.5164 23.9212 0.0000 39.4300 0.0000
# 6 0.0000 0.0000 0.0000 -1.5642 0.0000 53.6079
#
#
#
# Elastic Compliance Matrix: (Units=1/GPa)
#
#
# Indices 1 2 3 4 5 6 
#
# 1 0.012364 -0.012952 0.001921 0.000000 -0.000492 0.000000
# 2 -0.012952 0.027657 -0.006505 0.000000 0.000555 0.000000
# 3 0.001921 -0.006505 0.010209 0.000000 -0.005232 0.000000
# 4 0.000000 0.000000 0.000000 0.030904 0.000000 0.000902
# 5 -0.000492 0.000555 -0.005232 0.000000 0.028501 0.000000
# 6 0.000000 0.000000 0.000000 0.000902 0.000000 0.018680
#
#
# Mechanical properties :
#
#
# Convention : Reuss Voigt Hill
#
# Bulk Modulus (GPa) = 65.96490 75.32451 70.64470
# Shear Modulus (GPa) = 29.68423 40.51197 35.09810
#
# Velocity S-wave (km/s) = 3.69097 4.31190 4.01346
# Velocity P-wave (km/s) = 6.95975 7.70450 7.34158
#
# Compressibility (1/GPa) = 0.01515958
#
# Stress axis : x y z
#
# Youngs Moduli (GPa) = 80.87842 36.15691 97.95473
#
# Poissons Ratio (x) = 0.46830 -0.18821
# Poissons Ratio (y) = 1.04752 0.63720
# Poissons Ratio (z) = -0.15540 0.23520
#
# Static dielectric constant tensor:
#      x y z
#    x 1.799370 0.000000 -0.007160 
#    y 0.000000 1.783280 0.000000 
#    z -0.007160 0.000000 1.826030 
# 
# From -- ./inp_files/31686.got.cif
#   From: 2010.05.17/outbox.cif.g08.bks.cpg/sg15_16_cif.got.tgz:31686.got - 2010.06.03 18:47:42.
