data_PCOD9306255
_publ_section_title
;
Structure prediction by ZEFSAII (Michael W. Deem and Ramdas Pophale) SiO2 
 PCOD9306255
Probable space group: C 2/C
;
_chemical_formula_sum "Si O2"
_cell_formula_units_Z 44
_cell_length_a 15.433041
_cell_length_b 12.245938
_cell_length_c 12.230618
_cell_angle_alpha 90.000000
_cell_angle_beta 112.505800
_cell_angle_gamma 90.000000
_cell_volume 2135.448497
_symmetry_space_group_name_H-M "C 2/C"
_symmetry_group_IT_number 15
_symmetry_cell_setting 'monoclinic'
loop_
_space_group_symop_operation_xyz
x,y,z
-x,y,1/2-z
-x,-y,-z
x,-y,1/2+z
1/2+x,1/2+y,z
1/2-x,1/2+y,1/2-z
1/2-x,1/2-y,-z
1/2+x,1/2-y,1/2+z
loop_
_atom_site_type_symbol
_atom_site_label
_atom_site_fract_x
_atom_site_fract_y
_atom_site_fract_z
Si Si1 0.214900 0.666878 0.889549
Si Si2 0.500000 0.674885 0.750000
Si Si3 0.005679 0.323647 0.960088
Si Si4 0.429862 0.682939 0.312221
Si Si5 0.849739 0.478472 0.952209
Si Si6 0.333615 0.537968 0.774287
O O1 0.144517 0.733143 0.777224
O O2 0.295481 0.612753 0.854391
O O3 0.250000 0.750000 0.000000
O O4 0.165722 0.570254 0.934368
O O5 0.523619 0.752356 0.862812
O O6 0.412283 0.602221 0.744788
O O7 0.906541 0.386346 0.912093
O O8 0.012128 0.245785 0.067979
O O9 0.084833 0.415869 0.010754
O O10 0.500000 0.647758 0.250000
O O11 0.378064 0.576703 0.334010
O O12 0.753139 0.507303 0.846319
#
# Coordination Sequence:
#
# PCOD9306255 Si02
#       6
#     8   4   8   8   8   8
#     4  12  25  45  74 102 145 189 241 291 359 430
#     4  12  30  46  66 106 146 186 234 304 364 420
#     4  11  27  45  73 103 148 183 241 299 360 424
#     4  12  25  46  72 107 145 188 235 297 359 428
#     4  11  25  46  71 108 135 192 240 291 354 431
#     4  12  28  45  72 106 141 188 243 291 363 429
#
# _framework density 20.604571
#
# number of rings (size 3 to 8) (size 9 to 14) (size 15 to 20)
#    0.000    0.364    6.364    1.091    5.091    1.455 
#    0.000    0.000    0.000    0.000    0.000    0.000 
#    0.000    0.000    0.000    0.000    0.000    0.000 
#
# Total GULP energy -123161.866252 kJ/mol
# GULP energy per Si atom -5598.266648 kJ/mol
# Density = 2.055767 g / cm^3
# Si number density = 20.604571 Si / 1000 Ang^3
#
#
#
# Elastic Constant Matrix: (Units=GPa)
#
#
# Indices 1 2 3 4 5 6 
#
# 1 104.8715 50.6565 3.8823 0.0000 -16.8202 0.0000
# 2 50.6565 116.1349 34.7678 0.0000 -6.9201 0.0000
# 3 3.8823 34.7678 61.9031 0.0000 -11.2742 0.0000
# 4 0.0000 0.0000 0.0000 128.6783 0.0000 -125.1004
# 5 -16.8202 -6.9201 -11.2742 0.0000 34.9846 0.0000
# 6 0.0000 0.0000 0.0000 -125.1004 0.0000 170.0045
#
#
#
# Elastic Compliance Matrix: (Units=1/GPa)
#
#
# Indices 1 2 3 4 5 6 
#
# 1 0.013754 -0.006861 0.004194 0.000000 0.006607 0.000000
# 2 -0.006861 0.013775 -0.007873 0.000000 -0.003111 0.000000
# 3 0.004194 -0.007873 0.021669 0.000000 0.007442 0.000000
# 4 0.000000 0.000000 0.000000 0.027307 0.000000 0.020094
# 5 0.006607 -0.003111 0.007442 0.000000 0.033544 0.000000
# 6 0.000000 0.000000 0.000000 0.020094 0.000000 0.020669
#
#
# Mechanical properties :
#
#
# Convention : Reuss Voigt Hill
#
# Bulk Modulus (GPa) = 35.56460 51.28029 43.42244
# Shear Modulus (GPa) = 31.02322 79.64035 55.33178
#
# Velocity S-wave (km/s) = 3.88448 6.22380 5.18772
# Velocity P-wave (km/s) = 6.11693 8.75154 7.55004
#
# Compressibility (1/GPa) = 0.02811785
#
# Stress axis : x y z
#
# Youngs Moduli (GPa) = 72.70479 72.59443 46.14976
#
# Poissons Ratio (x) = 0.49810 -0.19357
# Poissons Ratio (y) = 0.49886 0.36334
# Poissons Ratio (z) = -0.30496 0.57155
#
# Static dielectric constant tensor:
#      x y z
#    x 1.733220 0.000000 -0.011920 
#    y 0.000000 1.727840 0.000000 
#    z -0.011920 0.000000 1.715130 
# 
# From -- ./inp_files/95051.got.cif
#   From: 2010.05.17/outbox.cif.g08.bks.cpg/sg15_48_cif.got.tgz:95051.got - 2010.06.03 18:47:42.
