data_PCOD9306521
_publ_section_title
;
Structure prediction by ZEFSAII (Michael W. Deem and Ramdas Pophale) SiO2 
 PCOD9306521
Probable space group: C 2/C
;
_chemical_formula_sum "Si O2"
_cell_formula_units_Z 40
_cell_length_a 7.407956
_cell_length_b 11.808677
_cell_length_c 17.531834
_cell_angle_alpha 90.000000
_cell_angle_beta 114.159978
_cell_angle_gamma 90.000000
_cell_volume 1399.314165
_symmetry_space_group_name_H-M "C 2/C"
_symmetry_group_IT_number 15
_symmetry_cell_setting 'monoclinic'
loop_
_space_group_symop_operation_xyz
x,y,z
-x,y,1/2-z
-x,-y,-z
x,-y,1/2+z
1/2+x,1/2+y,z
1/2-x,1/2+y,1/2-z
1/2-x,1/2-y,-z
1/2+x,1/2-y,1/2+z
loop_
_atom_site_type_symbol
_atom_site_label
_atom_site_fract_x
_atom_site_fract_y
_atom_site_fract_z
Si Si1 0.722760 0.801658 0.133219
Si Si2 0.061256 0.653859 0.137351
Si Si3 0.207627 0.646126 0.903781
Si Si4 0.789088 0.989213 0.566198
Si Si5 0.710930 0.488813 0.220691
O O1 0.857238 0.694035 0.138923
O O2 0.489693 0.789085 0.104778
O O3 0.754590 0.877108 0.062492
O O4 0.785787 0.882763 0.217085
O O5 0.152490 0.764012 0.112580
O O6 0.099891 0.558612 0.080212
O O7 0.204673 0.600997 0.226018
O O8 0.165379 0.554877 0.830600
O O9 0.300574 0.577745 0.989806
O O10 0.994379 0.980902 0.649455
#
# Coordination Sequence:
#
# PCOD9306521 Si02
#       5
#     8   8   8   8   8
#     4  11  25  50  80 115 165 219 283 336 419 501
#     4  11  26  50  82 118 166 219 280 340 414 506
#     4  12  26  52  83 116 170 218 274 358 418 489
#     4  11  25  53  80 119 169 218 278 350 423 493
#     4  11  26  53  80 123 168 221 280 342 417 506
#
# _framework density 28.585433999999999
#
# number of rings (size 3 to 8) (size 9 to 14) (size 15 to 20)
#    0.000    0.800    2.000    4.800    0.000    4.000 
#   28.800    0.000    0.000    2.400    0.000    0.000 
#    0.000    0.000    0.000    0.000    0.000    0.000 
#
# Total GULP energy -112215.122868 kJ/mol
# GULP energy per Si atom -5610.756143 kJ/mol
# Density = 2.852037 g / cm^3
# Si number density = 28.585434 Si / 1000 Ang^3
#
#
#
# Elastic Constant Matrix: (Units=GPa)
#
#
# Indices 1 2 3 4 5 6 
#
# 1 174.1006 51.0425 32.2658 0.0000 -0.9294 0.0000
# 2 51.0425 125.7823 38.4486 0.0000 -17.0275 0.0000
# 3 32.2658 38.4486 158.7148 0.0000 -8.5192 0.0000
# 4 0.0000 0.0000 0.0000 48.4126 0.0000 -5.0396
# 5 -0.9294 -17.0275 -8.5192 0.0000 47.5906 0.0000
# 6 0.0000 0.0000 0.0000 -5.0396 0.0000 61.0669
#
#
#
# Elastic Compliance Matrix: (Units=1/GPa)
#
#
# Indices 1 2 3 4 5 6 
#
# 1 0.006640 -0.002584 -0.000774 0.000000 -0.000933 0.000000
# 2 -0.002584 0.009957 -0.001715 0.000000 0.003205 0.000000
# 3 -0.000774 -0.001715 0.006906 0.000000 0.000608 0.000000
# 4 0.000000 0.000000 0.000000 0.020835 0.000000 0.001719
# 5 -0.000933 0.003205 0.000608 0.000000 0.022250 0.000000
# 6 0.000000 0.000000 0.000000 0.001719 0.000000 0.016517
#
#
# Mechanical properties :
#
#
# Convention : Reuss Voigt Hill
#
# Bulk Modulus (GPa) = 74.86671 78.01242 76.43956
# Shear Modulus (GPa) = 51.17558 53.87008 52.52283
#
# Velocity S-wave (km/s) = 4.23575 4.34583 4.29114
# Velocity P-wave (km/s) = 7.08304 7.24788 7.16593
#
# Compressibility (1/GPa) = 0.01335707
#
# Stress axis : x y z
#
# Youngs Moduli (GPa) = 150.60456 100.43225 144.80298
#
# Poissons Ratio (x) = 0.25954 0.11207
# Poissons Ratio (y) = 0.38920 0.24829
# Poissons Ratio (z) = 0.11656 0.17221
#
# Static dielectric constant tensor:
#      x y z
#    x 2.224340 0.000000 0.037810 
#    y 0.000000 2.254520 0.000000 
#    z 0.037810 0.000000 2.322680 
# 
# From -- ./inp_files/70052.got.cif
#   From: 2010.05.17/outbox.cif.g08.bks.cpg/sg15_36_cif.got.tgz:70052.got - 2010.06.03 18:47:42.
