data_PCOD9306725
_publ_section_title
;
Structure prediction by ZEFSAII (Michael W. Deem and Ramdas Pophale) SiO2 
 PCOD9306725
Probable space group: C 2/C
;
_chemical_formula_sum "Si O2"
_cell_formula_units_Z 48
_cell_length_a 8.529160
_cell_length_b 11.134211
_cell_length_c 24.026445
_cell_angle_alpha 90.000000
_cell_angle_beta 107.741119
_cell_angle_gamma 90.000000
_cell_volume 2173.172692
_symmetry_space_group_name_H-M "C 2/C"
_symmetry_group_IT_number 15
_symmetry_cell_setting 'monoclinic'
loop_
_space_group_symop_operation_xyz
x,y,z
-x,y,1/2-z
-x,-y,-z
x,-y,1/2+z
1/2+x,1/2+y,z
1/2-x,1/2+y,1/2-z
1/2-x,1/2-y,-z
1/2+x,1/2-y,1/2+z
loop_
_atom_site_type_symbol
_atom_site_label
_atom_site_fract_x
_atom_site_fract_y
_atom_site_fract_z
Si Si1 0.903427 0.776554 0.398993
Si Si2 0.395471 0.380126 0.989562
Si Si3 0.045611 0.729017 0.907578
Si Si4 0.631594 0.665485 0.215076
Si Si5 0.841882 0.104885 0.772810
Si Si6 0.026833 0.529177 0.437109
O O1 0.741479 0.787747 0.420383
O O2 0.878761 0.845201 0.338769
O O3 0.069784 0.825292 0.445987
O O4 0.920851 0.633834 0.398090
O O5 0.479988 0.285942 0.957259
O O6 0.213302 0.421393 0.954652
O O7 0.500000 0.500000 0.000000
O O8 0.987750 0.591938 0.900059
O O9 0.970181 0.814655 0.852501
O O10 0.500000 0.665894 0.250000
O O11 0.735125 0.787384 0.234707
O O12 0.719253 0.534161 0.226657
O O13 0.000000 0.096527 0.750000
O O14 0.000000 0.500000 0.500000
#
# Coordination Sequence:
#
# PCOD9306725 Si02
#       6
#     8   8   8   8   8   8
#     4  12  25  47  70 103 147 187 239 296 362 430
#     4  12  24  44  71 103 145 183 238 294 362 429
#     4  12  26  45  72 104 142 190 238 297 361 429
#     4  11  26  49  72 103 143 188 244 298 357 428
#     4  11  28  47  73 106 139 191 240 299 360 423
#     4  12  27  44  70 110 142 193 236 291 365 434
#
# _framework density 22.087520999999999
#
# number of rings (size 3 to 8) (size 9 to 14) (size 15 to 20)
#    0.000    0.333    5.000    3.000    4.667    0.667 
#    0.000    0.000    0.000    0.000    0.000    0.000 
#    0.000    0.000    0.000    0.000    0.000    0.000 
#
# Total GULP energy -134032.052496 kJ/mol
# GULP energy per Si atom -5584.668854 kJ/mol
# Density = 2.203725 g / cm^3
# Si number density = 22.087521 Si / 1000 Ang^3
#
#
#
# Elastic Constant Matrix: (Units=GPa)
#
#
# Indices 1 2 3 4 5 6 
#
# 1 51.3705 26.9855 8.4502 0.0000 -12.5518 0.0000
# 2 26.9855 196.2145 -2.4694 0.0000 10.1094 0.0000
# 3 8.4502 -2.4694 59.6501 0.0000 4.2576 0.0000
# 4 0.0000 0.0000 0.0000 42.9744 0.0000 1.6584
# 5 -12.5518 10.1094 4.2576 0.0000 15.5173 0.0000
# 6 0.0000 0.0000 0.0000 1.6584 0.0000 36.3830
#
#
#
# Elastic Compliance Matrix: (Units=1/GPa)
#
#
# Indices 1 2 3 4 5 6 
#
# 1 0.031388 -0.006012 -0.006923 0.000000 0.031206 0.000000
# 2 -0.006012 0.006438 0.001800 0.000000 -0.009551 0.000000
# 3 -0.006923 0.001800 0.018669 0.000000 -0.011895 0.000000
# 4 0.000000 0.000000 0.000000 0.023311 0.000000 -0.001063
# 5 0.031206 -0.009551 -0.011895 0.000000 0.099172 0.000000
# 6 0.000000 0.000000 0.000000 -0.001063 0.000000 0.027534
#
#
# Mechanical properties :
#
#
# Convention : Reuss Voigt Hill
#
# Bulk Modulus (GPa) = 29.21801 41.46309 35.34055
# Shear Modulus (GPa) = 20.81693 37.25951 29.03822
#
# Velocity S-wave (km/s) = 3.07331 4.11165 3.62980
# Velocity P-wave (km/s) = 5.08435 6.43069 5.79674
#
# Compressibility (1/GPa) = 0.03422546
#
# Stress axis : x y z
#
# Youngs Moduli (GPa) = 31.85931 155.32770 53.56581
#
# Poissons Ratio (x) = 0.93379 0.37082
# Poissons Ratio (y) = 0.19153 -0.09641
# Poissons Ratio (z) = 0.22055 -0.27957
#
# Static dielectric constant tensor:
#      x y z
#    x 1.486300 0.000000 0.160260 
#    y 0.000000 1.814190 0.000000 
#    z 0.160260 0.000000 1.709660 
# 
# From -- ./inp_files/263561.got.cif
#   From: 2010.05.17/outbox.cif.g08.bks.cpg/sg15_132_cif.got.tgz:263561.got - 2010.06.03 18:47:42.
