data_PCOD9306647
_publ_section_title
;
Structure prediction by ZEFSAII (Michael W. Deem and Ramdas Pophale) SiO2 
 PCOD9306647
Probable space group: C 2/C
;
_chemical_formula_sum "Si O2"
_cell_formula_units_Z 32
_cell_length_a 29.921227
_cell_length_b 4.889320
_cell_length_c 9.885577
_cell_angle_alpha 90.000000
_cell_angle_beta 61.377875
_cell_angle_gamma 90.000000
_cell_volume 1269.476020
_symmetry_space_group_name_H-M "C 2/C"
_symmetry_group_IT_number 15
_symmetry_cell_setting 'monoclinic'
loop_
_space_group_symop_operation_xyz
x,y,z
-x,y,1/2-z
-x,-y,-z
x,-y,1/2+z
1/2+x,1/2+y,z
1/2-x,1/2+y,1/2-z
1/2-x,1/2-y,-z
1/2+x,1/2-y,1/2+z
loop_
_atom_site_type_symbol
_atom_site_label
_atom_site_fract_x
_atom_site_fract_y
_atom_site_fract_z
Si Si1 0.665978 0.402397 0.153146
Si Si2 0.758249 0.496624 0.336648
Si Si3 0.100525 0.842546 0.982979
Si Si4 0.032638 0.349846 0.067135
O O1 0.690702 0.118660 0.170120
O O2 0.640453 0.559881 0.313483
O O3 0.714382 0.546322 0.011945
O O4 0.623726 0.378883 0.098200
O O5 0.761380 0.246390 0.229918
O O6 0.083936 0.529267 0.997581
O O7 0.051356 0.037630 0.029353
O O8 0.000000 0.375540 0.250000
O O9 0.000000 0.500000 0.000000
#
# Coordination Sequence:
#
# PCOD9306647 Si02
#       4
#     8   8   8   8
#     4  11  26  47  72 110 144 193 239 296 352 419
#     4  11  26  47  72 103 154 193 243 294 353 421
#     4  12  26  45  75 107 141 186 246 291 354 442
#     4  12  26  48  73 103 143 184 233 301 374 426
#
# _framework density 25.207252
#
# number of rings (size 3 to 8) (size 9 to 14) (size 15 to 20)
#    0.000    0.500    2.500    4.500    3.500    8.000 
#    0.000    0.000    0.000    0.000    0.000    0.000 
#    0.000    0.000    0.000    0.000    0.000    0.000 
#
# Total GULP energy -89770.120949 kJ/mol
# GULP energy per Si atom -5610.632559 kJ/mol
# Density = 2.514988 g / cm^3
# Si number density = 25.207252 Si / 1000 Ang^3
#
#
#
# Elastic Constant Matrix: (Units=GPa)
#
#
# Indices 1 2 3 4 5 6 
#
# 1 108.3027 15.7401 23.6239 0.0000 17.9819 0.0000
# 2 15.7401 100.5648 29.3757 0.0000 -7.1175 0.0000
# 3 23.6239 29.3757 160.6900 0.0000 -8.2527 0.0000
# 4 0.0000 0.0000 0.0000 14.2549 0.0000 -10.8930
# 5 17.9819 -7.1175 -8.2527 0.0000 49.0923 0.0000
# 6 0.0000 0.0000 0.0000 -10.8930 0.0000 56.8512
#
#
#
# Elastic Compliance Matrix: (Units=1/GPa)
#
#
# Indices 1 2 3 4 5 6 
#
# 1 0.010494 -0.001513 -0.001488 0.000000 -0.004313 0.000000
# 2 -0.001513 0.010795 -0.001656 0.000000 0.001841 0.000000
# 3 -0.001488 -0.001656 0.006819 0.000000 0.001451 0.000000
# 4 0.000000 0.000000 0.000000 0.082184 0.000000 0.015747
# 5 -0.004313 0.001841 0.001451 0.000000 0.022461 0.000000
# 6 0.000000 0.000000 0.000000 0.015747 0.000000 0.020607
#
#
# Mechanical properties :
#
#
# Convention : Reuss Voigt Hill
#
# Bulk Modulus (GPa) = 53.21002 56.33743 54.77372
# Shear Modulus (GPa) = 29.59652 44.09421 36.84537
#
# Velocity S-wave (km/s) = 3.43027 4.18696 3.82736
# Velocity P-wave (km/s) = 6.06991 6.76553 6.42714
#
# Compressibility (1/GPa) = 0.01879345
#
# Stress axis : x y z
#
# Youngs Moduli (GPa) = 95.29300 92.63716 146.64473
#
# Poissons Ratio (x) = 0.14018 0.21816
# Poissons Ratio (y) = 0.14420 0.24290
# Poissons Ratio (z) = 0.14176 0.15344
#
# Static dielectric constant tensor:
#      x y z
#    x 2.029050 0.000000 0.012870 
#    y 0.000000 1.969950 0.000000 
#    z 0.012870 0.000000 1.932000 
# 
# From -- ./inp_files/67974.got.cif
#   From: 2010.05.17/outbox.cif.g08.bks.cpg/sg15_34_cif.got.tgz:67974.got - 2010.06.03 18:47:42.
