data_PCOD9306020
_publ_section_title
;
Structure prediction by ZEFSAII (Michael W. Deem and Ramdas Pophale) SiO2 
 PCOD9306020
Probable space group: C 2/C
;
_chemical_formula_sum "Si O2"
_cell_formula_units_Z 56
_cell_length_a 9.099105
_cell_length_b 11.077727
_cell_length_c 26.727551
_cell_angle_alpha 90.000000
_cell_angle_beta 112.324562
_cell_angle_gamma 90.000000
_cell_volume 2492.139131
_symmetry_space_group_name_H-M "C 2/C"
_symmetry_group_IT_number 15
_symmetry_cell_setting 'monoclinic'
loop_
_space_group_symop_operation_xyz
x,y,z
-x,y,1/2-z
-x,-y,-z
x,-y,1/2+z
1/2+x,1/2+y,z
1/2-x,1/2+y,1/2-z
1/2-x,1/2-y,-z
1/2+x,1/2-y,1/2+z
loop_
_atom_site_type_symbol
_atom_site_label
_atom_site_fract_x
_atom_site_fract_y
_atom_site_fract_z
Si Si1 0.500000 0.002550 0.250000
Si Si2 0.753915 0.564166 0.947418
Si Si3 0.533112 0.757989 0.883852
Si Si4 0.957334 0.094820 0.151919
Si Si5 0.000000 0.917293 0.250000
Si Si6 0.704357 0.793283 0.799719
Si Si7 0.695696 0.157123 0.852558
Si Si8 0.929778 0.519059 0.568065
O O1 0.361412 0.099514 0.244271
O O2 0.416686 0.920648 0.198104
O O3 0.662053 0.690206 0.934875
O O4 0.636348 0.468986 0.905139
O O5 0.913287 0.579834 0.934777
O O6 0.810634 0.514151 0.007801
O O7 0.605330 0.777111 0.838113
O O8 0.381919 0.668286 0.864926
O O9 0.508299 0.892404 0.901164
O O10 0.853454 0.204695 0.158302
O O11 0.122990 0.162630 0.161952
O O12 0.982095 0.999370 0.199205
O O13 0.841685 0.832094 0.233007
O O14 0.657455 0.100679 0.901939
#
# Coordination Sequence:
#
# PCOD9306020 Si02
#       8
#     4   8   8   8   4   8   8   8
#     4  11  25  42  66 106 139 183 238 294 348 435
#     4  11  25  49  75 106 146 188 243 299 367 423
#     4  12  24  51  71 107 142 190 239 297 366 428
#     4  12  26  46  72 107 144 193 237 300 357 435
#     4  11  27  46  70 106 143 187 242 298 358 429
#     4  11  26  45  74 101 148 190 236 299 364 424
#     4  12  27  45  73 106 145 190 242 295 365 431
#     4  11  26  50  74 106 146 187 241 308 354 437
#
# _framework density 22.470656000000002
#
# number of rings (size 3 to 8) (size 9 to 14) (size 15 to 20)
#    0.000    0.571    4.286    2.571    2.000    4.571 
#    2.571    0.000    0.000    0.000    0.000    0.000 
#    0.000    0.000    0.000    0.000    0.000    0.000 
#
# Total GULP energy -156551.976291 kJ/mol
# GULP energy per Si atom -5591.142010 kJ/mol
# Density = 2.241951 g / cm^3
# Si number density = 22.470656 Si / 1000 Ang^3
#
#
#
# Elastic Constant Matrix: (Units=GPa)
#
#
# Indices 1 2 3 4 5 6 
#
# 1 95.0905 22.0887 54.8062 0.0000 13.4152 0.0000
# 2 22.0887 113.5910 40.7652 0.0000 -3.1351 0.0000
# 3 54.8062 40.7652 138.0659 0.0000 9.7919 0.0000
# 4 0.0000 0.0000 0.0000 24.7447 0.0000 4.6936
# 5 13.4152 -3.1351 9.7919 0.0000 27.6492 0.0000
# 6 0.0000 0.0000 0.0000 4.6936 0.0000 23.9995
#
#
#
# Elastic Compliance Matrix: (Units=1/GPa)
#
#
# Indices 1 2 3 4 5 6 
#
# 1 0.014425 -0.001157 -0.005005 0.000000 -0.005358 0.000000
# 2 -0.001157 0.010072 -0.002703 0.000000 0.002661 0.000000
# 3 -0.005005 -0.002703 0.010132 0.000000 -0.001466 0.000000
# 4 0.000000 0.000000 0.000000 0.041970 0.000000 -0.008208
# 5 -0.005358 0.002661 -0.001466 0.000000 0.039588 0.000000
# 6 0.000000 0.000000 0.000000 -0.008208 0.000000 0.043273
#
#
# Mechanical properties :
#
#
# Convention : Reuss Voigt Hill
#
# Bulk Modulus (GPa) = 59.17391 64.67419 61.92405
# Shear Modulus (GPa) = 27.34890 30.55117 28.95004
#
# Velocity S-wave (km/s) = 3.49247 3.69128 3.59325
# Velocity P-wave (km/s) = 6.53102 6.85649 6.69573
#
# Compressibility (1/GPa) = 0.01689934
#
# Stress axis : x y z
#
# Youngs Moduli (GPa) = 69.32205 99.28426 98.69966
#
# Poissons Ratio (x) = 0.11487 0.49396
# Poissons Ratio (y) = 0.08020 0.26682
# Poissons Ratio (z) = 0.34693 0.26840
#
# Static dielectric constant tensor:
#      x y z
#    x 1.911570 0.000000 0.025360 
#    y 0.000000 1.838910 0.000000 
#    z 0.025360 0.000000 1.825160 
# 
# From -- ./inp_files/288109.got.cif
#   From: 2010.05.17/outbox.cif.g08.bks.cpg/sg15_145_cif.got.tgz:288109.got - 2010.06.03 18:47:42.
