data_PCOD9306179
_publ_section_title
;
Structure prediction by ZEFSAII (Michael W. Deem and Ramdas Pophale) SiO2 
 PCOD9306179
Probable space group: C 2/C
;
_chemical_formula_sum "Si O2"
_cell_formula_units_Z 32
_cell_length_a 5.049250
_cell_length_b 23.177307
_cell_length_c 11.791717
_cell_angle_alpha 90.000000
_cell_angle_beta 66.682101
_cell_angle_gamma 90.000000
_cell_volume 1267.249848
_symmetry_space_group_name_H-M "C 2/C"
_symmetry_group_IT_number 15
_symmetry_cell_setting 'monoclinic'
loop_
_space_group_symop_operation_xyz
x,y,z
-x,y,1/2-z
-x,-y,-z
x,-y,1/2+z
1/2+x,1/2+y,z
1/2-x,1/2+y,1/2-z
1/2-x,1/2-y,-z
1/2+x,1/2-y,1/2+z
loop_
_atom_site_type_symbol
_atom_site_label
_atom_site_fract_x
_atom_site_fract_y
_atom_site_fract_z
Si Si1 0.721369 0.439065 0.369209
Si Si2 0.000000 0.337695 0.750000
Si Si3 0.000000 0.857676 0.250000
Si Si4 0.437708 0.428719 0.629077
Si Si5 0.587107 0.744543 0.908398
O O1 0.448513 0.407522 0.356139
O O2 0.711564 0.421800 0.501574
O O3 0.692744 0.507866 0.369781
O O4 0.000000 0.420683 0.250000
O O5 0.213556 0.378376 0.644871
O O6 0.158247 0.297350 0.813276
O O7 0.134860 0.811183 0.318028
O O8 0.500000 0.425874 0.750000
O O9 0.750000 0.750000 0.000000
O O10 0.250000 0.750000 0.000000
#
# Coordination Sequence:
#
# PCOD9306179 Si02
#       5
#     8   4   4   8   8
#     4  11  25  45  72 111 156 201 253 317 391 472
#     4  11  26  46  76 108 152 201 262 318 392 465
#     4  11  26  46  74 108 148 199 258 314 390 455
#     4  11  25  45  72 112 154 202 254 315 392 471
#     4  11  28  49  75 108 153 208 265 324 389 462
#
# _framework density 25.251531
#
# number of rings (size 3 to 8) (size 9 to 14) (size 15 to 20)
#    0.000    1.000    2.500    1.500   10.500    5.000 
#    0.000    0.000    0.000    0.000    0.000    0.000 
#    0.000    0.000    0.000    0.000    0.000    0.000 
#
# Total GULP energy -89243.516560 kJ/mol
# GULP energy per Si atom -5577.719785 kJ/mol
# Density = 2.519406 g / cm^3
# Si number density = 25.251531 Si / 1000 Ang^3
#
#
#
# Elastic Constant Matrix: (Units=GPa)
#
#
# Indices 1 2 3 4 5 6 
#
# 1 108.0451 20.3297 66.3984 0.0000 6.0815 0.0000
# 2 20.3297 170.4673 44.4079 0.0000 4.1051 0.0000
# 3 66.3984 44.4079 218.8468 0.0000 7.5049 0.0000
# 4 0.0000 0.0000 0.0000 -16.7160 0.0000 1.7458
# 5 6.0815 4.1051 7.5049 0.0000 61.9862 0.0000
# 6 0.0000 0.0000 0.0000 1.7458 0.0000 16.3042
#
#
#
# Elastic Compliance Matrix: (Units=1/GPa)
#
#
# Indices 1 2 3 4 5 6 
#
# 1 0.011443 -0.000475 -0.003352 0.000000 -0.000685 0.000000
# 2 -0.000475 0.006217 -0.001110 0.000000 -0.000231 0.000000
# 3 -0.003352 -0.001110 0.005822 0.000000 -0.000303 0.000000
# 4 0.000000 0.000000 0.000000 -0.059161 0.000000 0.006335
# 5 -0.000685 -0.000231 -0.000303 0.000000 0.016252 0.000000
# 6 0.000000 0.000000 0.000000 0.006335 0.000000 0.060655
#
#
# Mechanical properties :
#
#
# Convention : Reuss Voigt Hill
#
# Bulk Modulus (GPa) = 73.47803 84.40346 78.94074
# Shear Modulus (GPa) = 89.86562 36.72974 63.29768
#
# Velocity S-wave (km/s) = 5.97206 3.81800 5.01211
# Velocity P-wave (km/s) = 8.75874 7.27556 8.05138
#
# Compressibility (1/GPa) = 0.01360951
#
# Stress axis : x y z
#
# Youngs Moduli (GPa) = 87.38728 160.83645 171.76366
#
# Poissons Ratio (x) = 0.07639 0.57576
# Poissons Ratio (y) = 0.04151 0.19059
# Poissons Ratio (z) = 0.29292 0.17847
#
# Static dielectric constant tensor:
#      x y z
#    x 2.389080 0.000000 -0.069100 
#    y 0.000000 2.041060 0.000000 
#    z -0.069100 0.000000 1.997120 
# 
# From -- ./inp_files/72398.got.cif
#   From: 2010.05.17/outbox.cif.g08.bks.cpg/sg15_37_cif.got.tgz:72398.got - 2010.06.03 18:47:42.
