data_PCOD9306093
_publ_section_title
;
Structure prediction by ZEFSAII (Michael W. Deem and Ramdas Pophale) SiO2 
 PCOD9306093
Probable space group: C 2/C
;
_chemical_formula_sum "Si O2"
_cell_formula_units_Z 56
_cell_length_a 26.983189
_cell_length_b 4.915471
_cell_length_c 16.490907
_cell_angle_alpha 90.000000
_cell_angle_beta 97.428724
_cell_angle_gamma 90.000000
_cell_volume 2168.913876
_symmetry_space_group_name_H-M "C 2/C"
_symmetry_group_IT_number 15
_symmetry_cell_setting 'monoclinic'
loop_
_space_group_symop_operation_xyz
x,y,z
-x,y,1/2-z
-x,-y,-z
x,-y,1/2+z
1/2+x,1/2+y,z
1/2-x,1/2+y,1/2-z
1/2-x,1/2-y,-z
1/2+x,1/2-y,1/2+z
loop_
_atom_site_type_symbol
_atom_site_label
_atom_site_fract_x
_atom_site_fract_y
_atom_site_fract_z
Si Si1 0.462727 0.481110 0.892308
Si Si2 0.531897 0.991360 0.906940
Si Si3 0.130622 0.299656 0.634500
Si Si4 0.860732 0.325145 0.508306
Si Si5 0.675856 0.324551 0.899254
Si Si6 0.091013 0.677899 0.763196
Si Si7 0.737570 0.718661 0.695045
O O1 0.440149 0.352402 0.806629
O O2 0.496875 0.737967 0.882082
O O3 0.412108 0.617451 0.918335
O O4 0.501576 0.758808 0.063752
O O5 0.554878 0.099174 0.828415
O O6 0.580318 0.876450 0.963326
O O7 0.145295 0.560397 0.583213
O O8 0.110245 0.422039 0.714611
O O9 0.181614 0.141137 0.659381
O O10 0.832120 0.534742 0.561104
O O11 0.840341 0.040498 0.536392
O O12 0.637050 0.333474 0.815574
O O13 0.730729 0.338026 0.873078
O O14 0.764427 0.456153 0.738158
#
# Coordination Sequence:
#
# PCOD9306093 Si02
#       7
#     8   8   8   8   8   8   8
#     4  12  26  43  71 103 140 188 247 300 354 419
#     4  11  26  43  70  99 144 192 240 293 364 429
#     4  12  29  46  74 107 149 183 246 303 357 428
#     4  11  28  48  70 107 148 194 235 292 365 439
#     4  11  25  48  75 102 148 189 237 293 369 434
#     4  11  25  44  72 104 137 182 243 301 348 422
#     4  12  26  47  78 113 140 185 241 309 364 427
#
# _framework density 25.819374
#
# number of rings (size 3 to 8) (size 9 to 14) (size 15 to 20)
#    0.000    0.571    2.857    3.857   12.000    2.286 
#    0.000    0.000    0.000    0.000    0.000    0.000 
#    0.000    0.000    0.000    0.000    0.000    0.000 
#
# Total GULP energy -157050.305497 kJ/mol
# GULP energy per Si atom -5608.939482 kJ/mol
# Density = 2.576061 g / cm^3
# Si number density = 25.819374 Si / 1000 Ang^3
#
#
#
# Elastic Constant Matrix: (Units=GPa)
#
#
# Indices 1 2 3 4 5 6 
#
# 1 137.4212 41.9169 24.6102 0.0000 -21.9525 0.0000
# 2 41.9169 107.2622 -1.1547 0.0000 -1.3387 0.0000
# 3 24.6102 -1.1547 63.3020 0.0000 -20.8826 0.0000
# 4 0.0000 0.0000 0.0000 39.4900 0.0000 -6.9617
# 5 -21.9525 -1.3387 -20.8826 0.0000 44.5835 0.0000
# 6 0.0000 0.0000 0.0000 -6.9617 0.0000 27.7827
#
#
#
# Elastic Compliance Matrix: (Units=1/GPa)
#
#
# Indices 1 2 3 4 5 6 
#
# 1 0.009388 -0.003656 -0.002635 0.000000 0.003278 0.000000
# 2 -0.003656 0.010755 0.001337 0.000000 -0.000851 0.000000
# 3 -0.002635 0.001337 0.019434 0.000000 0.007846 0.000000
# 4 0.000000 0.000000 0.000000 0.026493 0.000000 0.006639
# 5 0.003278 -0.000851 0.007846 0.000000 0.027693 0.000000
# 6 0.000000 0.000000 0.000000 0.006639 0.000000 0.037657
#
#
# Mechanical properties :
#
#
# Convention : Reuss Voigt Hill
#
# Bulk Modulus (GPa) = 33.70499 48.74778 41.22639
# Shear Modulus (GPa) = 33.06463 38.54543 35.80503
#
# Velocity S-wave (km/s) = 3.58245 3.86798 3.72795
# Velocity P-wave (km/s) = 5.49494 6.23456 5.87640
#
# Compressibility (1/GPa) = 0.02966920
#
# Stress axis : x y z
#
# Youngs Moduli (GPa) = 106.52271 92.97607 51.45558
#
# Poissons Ratio (x) = 0.33992 0.13558
# Poissons Ratio (y) = 0.38945 -0.06879
# Poissons Ratio (z) = 0.28067 -0.12429
#
# Static dielectric constant tensor:
#      x y z
#    x 2.029280 0.000000 0.018970 
#    y 0.000000 2.007100 0.000000 
#    z 0.018970 0.000000 2.007720 
# 
# From -- ./inp_files/180115.got.cif
#   From: 2010.05.17/outbox.cif.g08.bks.cpg/sg15_91_cif.got.tgz:180115.got - 2010.06.03 18:47:42.
