data_PCOD9306812
_publ_section_title
;
Structure prediction by ZEFSAII (Michael W. Deem and Ramdas Pophale) SiO2 
 PCOD9306812
Probable space group: C 2/C
;
_chemical_formula_sum "Si O2"
_cell_formula_units_Z 56
_cell_length_a 10.952801
_cell_length_b 9.371661
_cell_length_c 24.085043
_cell_angle_alpha 90.000000
_cell_angle_beta 75.763595
_cell_angle_gamma 90.000000
_cell_volume 2396.307833
_symmetry_space_group_name_H-M "C 2/C"
_symmetry_group_IT_number 15
_symmetry_cell_setting 'monoclinic'
loop_
_space_group_symop_operation_xyz
x,y,z
-x,y,1/2-z
-x,-y,-z
x,-y,1/2+z
1/2+x,1/2+y,z
1/2-x,1/2+y,1/2-z
1/2-x,1/2-y,-z
1/2+x,1/2-y,1/2+z
loop_
_atom_site_type_symbol
_atom_site_label
_atom_site_fract_x
_atom_site_fract_y
_atom_site_fract_z
Si Si1 0.440853 0.349707 0.429464
Si Si2 0.788820 0.238319 0.628852
Si Si3 0.609288 0.696987 0.694439
Si Si4 0.361589 0.664287 0.456238
Si Si5 0.853738 0.456066 0.146159
Si Si6 0.588874 0.964756 0.189705
Si Si7 0.078221 0.358790 0.476913
O O1 0.592965 0.328357 0.417693
O O2 0.425133 0.346564 0.364828
O O3 0.385229 0.495636 0.460769
O O4 0.382250 0.214784 0.469471
O O5 0.682475 0.307521 0.601494
O O6 0.838171 0.374626 0.656678
O O7 0.718361 0.119038 0.671182
O O8 0.500000 0.654441 0.750000
O O9 0.745393 0.627191 0.691049
O O10 0.616748 0.868221 0.693049
O O11 0.250000 0.750000 0.500000
O O12 0.490203 0.739991 0.458754
O O13 0.835879 0.410891 0.083565
O O14 0.998516 0.433530 0.147092
O O15 0.500000 0.918492 0.250000
O O16 0.000000 0.500000 0.500000
#
# Coordination Sequence:
#
# PCOD9306812 Si02
#       7
#     8   8   8   8   8   8   8
#     4  12  26  46  74 110 145 201 243 304 384 436
#     4  12  25  46  71 102 152 184 248 300 364 448
#     4  11  27  50  73 106 145 189 249 310 366 439
#     4  12  25  45  67 109 147 190 246 293 364 448
#     4  12  25  48  71 108 147 190 242 304 372 443
#     4  11  27  46  74 106 139 197 248 305 372 435
#     4  12  24  45  72 105 152 191 238 306 365 448
#
# _framework density 23.369285000000001
#
# number of rings (size 3 to 8) (size 9 to 14) (size 15 to 20)
#    0.000    0.286    7.143    0.429    4.000    1.143 
#    0.000    0.000    0.000    0.000    0.000    0.000 
#    0.000    0.000    0.000    0.000    0.000    0.000 
#
# Total GULP energy -156517.426432 kJ/mol
# GULP energy per Si atom -5589.908087 kJ/mol
# Density = 2.331610 g / cm^3
# Si number density = 23.369285 Si / 1000 Ang^3
#
#
#
# Elastic Constant Matrix: (Units=GPa)
#
#
# Indices 1 2 3 4 5 6 
#
# 1 80.5607 38.8126 22.7234 0.0000 -24.5903 0.0000
# 2 38.8126 147.9038 52.5787 0.0000 -29.6086 0.0000
# 3 22.7234 52.5787 107.8817 0.0000 -26.7095 0.0000
# 4 0.0000 0.0000 0.0000 34.4525 0.0000 -13.4196
# 5 -24.5903 -29.6086 -26.7095 0.0000 52.6995 0.0000
# 6 0.0000 0.0000 0.0000 -13.4196 0.0000 43.5205
#
#
#
# Elastic Compliance Matrix: (Units=1/GPa)
#
#
# Indices 1 2 3 4 5 6 
#
# 1 0.015574 -0.002800 -0.000579 0.000000 0.005400 0.000000
# 2 -0.002800 0.009101 -0.003320 0.000000 0.002124 0.000000
# 3 -0.000579 -0.003320 0.011985 0.000000 0.003939 0.000000
# 4 0.000000 0.000000 0.000000 0.032987 0.000000 0.010172
# 5 0.005400 0.002124 0.003939 0.000000 0.024685 0.000000
# 6 0.000000 0.000000 0.000000 0.010172 0.000000 0.026114
#
#
# Mechanical properties :
#
#
# Convention : Reuss Voigt Hill
#
# Bulk Modulus (GPa) = 42.98809 62.73060 52.85934
# Shear Modulus (GPa) = 35.31126 40.94996 38.13061
#
# Velocity S-wave (km/s) = 3.89139 4.19059 4.04376
# Velocity P-wave (km/s) = 6.21495 7.09339 6.66865
#
# Compressibility (1/GPa) = 0.02326226
#
# Stress axis : x y z
#
# Youngs Moduli (GPa) = 64.21111 109.87262 83.44057
#
# Poissons Ratio (x) = 0.30764 0.04828
# Poissons Ratio (y) = 0.17979 0.27703
# Poissons Ratio (z) = 0.03715 0.36479
#
# Static dielectric constant tensor:
#      x y z
#    x 2.023150 0.000000 0.055140 
#    y 0.000000 1.832860 0.000000 
#    z 0.055140 0.000000 1.937480 
# 
# From -- ./inp_files/291531.got.cif
#   From: 2010.05.17/outbox.cif.g08.bks.cpg/sg15_146_cif.got.tgz:291531.got - 2010.06.03 18:47:42.
