data_PCOD9306831
_publ_section_title
;
Structure prediction by ZEFSAII (Michael W. Deem and Ramdas Pophale) SiO2 
 PCOD9306831
Probable space group: C 2/C
;
_chemical_formula_sum "Si O2"
_cell_formula_units_Z 28
_cell_length_a 4.700386
_cell_length_b 16.212572
_cell_length_c 14.636240
_cell_angle_alpha 90.000000
_cell_angle_beta 114.362857
_cell_angle_gamma 90.000000
_cell_volume 1016.038373
_symmetry_space_group_name_H-M "C 2/C"
_symmetry_group_IT_number 15
_symmetry_cell_setting 'monoclinic'
loop_
_space_group_symop_operation_xyz
x,y,z
-x,y,1/2-z
-x,-y,-z
x,-y,1/2+z
1/2+x,1/2+y,z
1/2-x,1/2+y,1/2-z
1/2-x,1/2-y,-z
1/2+x,1/2-y,1/2+z
loop_
_atom_site_type_symbol
_atom_site_label
_atom_site_fract_x
_atom_site_fract_y
_atom_site_fract_z
Si Si1 0.500000 0.810436 0.250000
Si Si2 0.520593 0.693057 0.412636
Si Si3 0.068183 0.961622 0.153975
Si Si4 0.061631 0.574535 0.437939
O O1 0.394331 0.749596 0.315419
O O2 0.227343 0.871449 0.180473
O O3 0.750000 0.750000 0.500000
O O4 0.246835 0.658344 0.437220
O O5 0.716837 0.612938 0.403933
O O6 0.000000 0.985051 0.250000
O O7 0.316557 0.015275 0.128372
O O8 0.740740 0.955393 0.054548
#
# Coordination Sequence:
#
# PCOD9306831 Si02
#       4
#     4   8   8   8
#     4  12  28  42  80 108 154 192 262 308 382 438
#     4  12  26  50  74 114 150 201 245 326 374 454
#     4  11  27  48  76 113 149 208 250 318 371 466
#     4  11  28  50  77 107 160 197 255 308 389 444
#
# _framework density 27.558017
#
# number of rings (size 3 to 8) (size 9 to 14) (size 15 to 20)
#    0.000    0.571    2.857    2.571   10.000    2.286 
#    0.000    0.000    0.000    0.000    0.000    0.000 
#    0.000    0.000    0.000    0.000    0.000    0.000 
#
# Total GULP energy -78598.246315 kJ/mol
# GULP energy per Si atom -5614.160451 kJ/mol
# Density = 2.749529 g / cm^3
# Si number density = 27.558017 Si / 1000 Ang^3
#
#
#
# Elastic Constant Matrix: (Units=GPa)
#
#
# Indices 1 2 3 4 5 6 
#
# 1 166.9999 12.1707 36.1728 0.0000 -6.5237 0.0000
# 2 12.1707 129.6393 49.6603 0.0000 -13.6509 0.0000
# 3 36.1728 49.6603 159.9356 0.0000 -17.0919 0.0000
# 4 0.0000 0.0000 0.0000 76.0831 0.0000 5.3743
# 5 -6.5237 -13.6509 -17.0919 0.0000 59.7977 0.0000
# 6 0.0000 0.0000 0.0000 5.3743 0.0000 -32.3851
#
#
#
# Elastic Compliance Matrix: (Units=1/GPa)
#
#
# Indices 1 2 3 4 5 6 
#
# 1 0.006301 -0.000031 -0.001385 0.000000 0.000284 0.000000
# 2 -0.000031 0.008848 -0.002604 0.000000 0.001272 0.000000
# 3 -0.001385 -0.002604 0.007525 0.000000 0.001405 0.000000
# 4 0.000000 0.000000 0.000000 0.012991 0.000000 0.002156
# 5 0.000284 0.001272 0.001405 0.000000 0.017446 0.000000
# 6 0.000000 0.000000 0.000000 0.002156 0.000000 -0.030521
#
#
# Mechanical properties :
#
#
# Convention : Reuss Voigt Hill
#
# Bulk Modulus (GPa) = 68.33837 72.50916 70.42376
# Shear Modulus (GPa) = 140.80563 44.60389 92.70476
#
# Velocity S-wave (km/s) = 7.15578 4.02748 5.80628
# Velocity P-wave (km/s) = 9.65015 6.92792 8.40004
#
# Compressibility (1/GPa) = 0.01463307
#
# Stress axis : x y z
#
# Youngs Moduli (GPa) = 158.69402 113.01683 132.89665
#
# Poissons Ratio (x) = 0.00351 0.18408
# Poissons Ratio (y) = 0.00492 0.34612
# Poissons Ratio (z) = 0.21982 0.29434
#
# Static dielectric constant tensor:
#      x y z
#    x 2.786200 0.000000 -0.333900 
#    y 0.000000 2.514360 0.000000 
#    z -0.333900 0.000000 2.344470 
# 
# From -- ./inp_files/128083.got.cif
#   From: 2010.05.17/outbox.cif.g08.bks.cpg/sg15_65_cif.got.tgz:128083.got - 2010.06.03 18:47:42.
