data_PCOD9306504
_publ_section_title
;
Structure prediction by ZEFSAII (Michael W. Deem and Ramdas Pophale) SiO2 
 PCOD9306504
Probable space group: C 2/C
;
_chemical_formula_sum "Si O2"
_cell_formula_units_Z 48
_cell_length_a 10.270970
_cell_length_b 16.400298
_cell_length_c 11.093275
_cell_angle_alpha 90.000000
_cell_angle_beta 89.976847
_cell_angle_gamma 90.000000
_cell_volume 1868.628395
_symmetry_space_group_name_H-M "C 2/C"
_symmetry_group_IT_number 15
_symmetry_cell_setting 'monoclinic'
loop_
_space_group_symop_operation_xyz
x,y,z
-x,y,1/2-z
-x,-y,-z
x,-y,1/2+z
1/2+x,1/2+y,z
1/2-x,1/2+y,1/2-z
1/2-x,1/2-y,-z
1/2+x,1/2-y,1/2+z
loop_
_atom_site_type_symbol
_atom_site_label
_atom_site_fract_x
_atom_site_fract_y
_atom_site_fract_z
Si Si1 0.086153 0.219678 0.628763
Si Si2 0.301914 0.086315 0.633214
Si Si3 0.727603 0.075310 0.482828
Si Si4 0.955019 0.704431 0.895330
Si Si5 0.203152 0.164395 0.259570
Si Si6 0.125921 0.005298 0.827695
O O1 0.178464 0.142910 0.603086
O O2 0.186930 0.292464 0.661517
O O3 0.000000 0.208367 0.750000
O O4 0.003667 0.245376 0.512623
O O5 0.424065 0.146336 0.642821
O O6 0.332593 0.014638 0.537793
O O7 0.251439 0.039065 0.752944
O O8 0.653204 0.140799 0.561646
O O9 0.738077 0.117294 0.354295
O O10 0.864300 0.051989 0.545996
O O11 0.886189 0.767524 0.804161
O O12 0.133053 0.092605 0.333398
O O13 0.000000 0.024423 0.750000
#
# Coordination Sequence:
#
# PCOD9306504 Si02
#       6
#     8   8   8   8   8   8
#     4  12  26  47  76 109 152 195 252 310 373 452
#     4  11  27  44  73 111 145 196 251 306 376 444
#     4  11  25  50  73 108 148 201 247 309 381 442
#     4  12  26  48  79 106 156 193 251 316 374 444
#     4  11  27  46  76 114 141 201 256 305 379 446
#     4  11  27  46  74 104 154 195 253 309 379 448
#
# _framework density 25.687287999999999
#
# number of rings (size 3 to 8) (size 9 to 14) (size 15 to 20)
#    0.000    0.667    1.667    4.000    9.333    3.333 
#    0.000    1.667    0.000    0.000    0.000    0.000 
#    0.000    0.000    0.000    0.000    0.000    0.000 
#
# Total GULP energy -134473.656897 kJ/mol
# GULP energy per Si atom -5603.069037 kJ/mol
# Density = 2.562882 g / cm^3
# Si number density = 25.687288 Si / 1000 Ang^3
#
#
#
# Elastic Constant Matrix: (Units=GPa)
#
#
# Indices 1 2 3 4 5 6 
#
# 1 59.9189 35.1807 -6.7293 0.0000 4.7244 0.0000
# 2 35.1807 188.4910 29.8392 0.0000 9.7981 0.0000
# 3 -6.7293 29.8392 60.8809 0.0000 24.6485 0.0000
# 4 0.0000 0.0000 0.0000 42.6399 0.0000 -3.9367
# 5 4.7244 9.7981 24.6485 0.0000 42.1468 0.0000
# 6 0.0000 0.0000 0.0000 -3.9367 0.0000 25.9745
#
#
#
# Elastic Compliance Matrix: (Units=1/GPa)
#
#
# Indices 1 2 3 4 5 6 
#
# 1 0.020538 -0.004612 0.006589 0.000000 -0.005083 0.000000
# 2 -0.004612 0.006793 -0.004467 0.000000 0.001550 0.000000
# 3 0.006589 -0.004467 0.025185 0.000000 -0.014429 0.000000
# 4 0.000000 0.000000 0.000000 0.023785 0.000000 0.003605
# 5 -0.005083 0.001550 -0.014429 0.000000 0.032374 0.000000
# 6 0.000000 0.000000 0.000000 0.003605 0.000000 0.039046
#
#
# Mechanical properties :
#
#
# Convention : Reuss Voigt Hill
#
# Bulk Modulus (GPa) = 21.03717 47.31910 34.17814
# Shear Modulus (GPa) = 29.66569 38.88561 34.27565
#
# Velocity S-wave (km/s) = 3.40204 3.89499 3.65683
# Velocity P-wave (km/s) = 4.86203 6.22006 5.58249
#
# Compressibility (1/GPa) = 0.04753490
#
# Stress axis : x y z
#
# Youngs Moduli (GPa) = 48.69060 147.21891 39.70690
#
# Poissons Ratio (x) = 0.67898 -0.26161
# Poissons Ratio (y) = 0.22456 0.17735
# Poissons Ratio (z) = -0.32080 0.65756
#
# Static dielectric constant tensor:
#      x y z
#    x 2.025670 0.000000 -0.074250 
#    y 0.000000 1.983240 0.000000 
#    z -0.074250 0.000000 2.155030 
# 
# From -- ./inp_files/87894.got.cif
#   From: 2010.05.17/outbox.cif.g08.bks.cpg/sg15_44_cif.got.tgz:87894.got - 2010.06.03 18:47:42.
