data_PCOD9306568
_publ_section_title
;
Structure prediction by ZEFSAII (Michael W. Deem and Ramdas Pophale) SiO2 
 PCOD9306568
Probable space group: C 2/C
;
_chemical_formula_sum "Si O2"
_cell_formula_units_Z 44
_cell_length_a 6.617102
_cell_length_b 24.199391
_cell_length_c 14.944084
_cell_angle_alpha 90.000000
_cell_angle_beta 123.032129
_cell_angle_gamma 90.000000
_cell_volume 2006.202275
_symmetry_space_group_name_H-M "C 2/C"
_symmetry_group_IT_number 15
_symmetry_cell_setting 'monoclinic'
loop_
_space_group_symop_operation_xyz
x,y,z
-x,y,1/2-z
-x,-y,-z
x,-y,1/2+z
1/2+x,1/2+y,z
1/2-x,1/2+y,1/2-z
1/2-x,1/2-y,-z
1/2+x,1/2-y,1/2+z
loop_
_atom_site_type_symbol
_atom_site_label
_atom_site_fract_x
_atom_site_fract_y
_atom_site_fract_z
Si Si1 0.037664 0.710632 0.481203
Si Si2 0.404751 0.405360 0.433903
Si Si3 0.379788 0.202834 0.627090
Si Si4 0.000000 0.918465 0.250000
Si Si5 0.981854 0.511553 0.889708
Si Si6 0.421870 0.893235 0.635620
O O1 0.250000 0.750000 0.500000
O O2 0.030171 0.652900 0.427849
O O3 0.784535 0.742730 0.408566
O O4 0.074387 0.704998 0.595974
O O5 0.285038 0.348903 0.437815
O O6 0.470408 0.394673 0.344619
O O7 0.213289 0.454982 0.405695
O O8 0.646444 0.411947 0.550255
O O9 0.500000 0.192096 0.750000
O O10 0.246677 0.952377 0.317033
O O11 0.940322 0.451150 0.838564
O O12 0.000000 0.500000 0.000000
O O13 0.500000 0.868852 0.750000
#
# Coordination Sequence:
#
# PCOD9306568 Si02
#       6
#     8   8   8   4   8   8
#     4  11  26  49  68 104 145 190 248 298 376 437
#     4  12  26  47  72 111 145 190 251 300 370 437
#     4  11  26  44  76 103 142 189 250 309 360 445
#     4  12  26  46  76 106 148 196 234 308 356 444
#     4  12  26  47  73 109 151 192 247 299 373 447
#     4  12  27  46  74 106 151 197 242 308 373 448
#
# _framework density 21.931985999999998
#
# number of rings (size 3 to 8) (size 9 to 14) (size 15 to 20)
#    0.000    0.364    3.636    4.364    7.636    0.000 
#    1.636    0.000    0.000    0.000    0.000    0.000 
#    0.000    0.000    0.000    0.000    0.000    0.000 
#
# Total GULP energy -122953.488316 kJ/mol
# GULP energy per Si atom -5588.794923 kJ/mol
# Density = 2.188207 g / cm^3
# Si number density = 21.931986 Si / 1000 Ang^3
#
#
#
# Elastic Constant Matrix: (Units=GPa)
#
#
# Indices 1 2 3 4 5 6 
#
# 1 122.8782 35.9681 30.1814 0.0000 -22.5550 0.0000
# 2 35.9681 99.3263 -17.8615 0.0000 -7.3748 0.0000
# 3 30.1814 -17.8615 90.0689 0.0000 -14.9799 0.0000
# 4 0.0000 0.0000 0.0000 16.6760 0.0000 -11.0935
# 5 -22.5550 -7.3748 -14.9799 0.0000 37.8507 0.0000
# 6 0.0000 0.0000 0.0000 -11.0935 0.0000 35.0020
#
#
#
# Elastic Compliance Matrix: (Units=1/GPa)
#
#
# Indices 1 2 3 4 5 6 
#
# 1 0.011179 -0.004438 -0.003920 0.000000 0.004246 0.000000
# 2 -0.004438 0.012543 0.004219 0.000000 0.001469 0.000000
# 3 -0.003920 0.004219 0.013917 0.000000 0.003994 0.000000
# 4 0.000000 0.000000 0.000000 0.075988 0.000000 0.024083
# 5 0.004246 0.001469 0.003994 0.000000 0.030816 0.000000
# 6 0.000000 0.000000 0.000000 0.024083 0.000000 0.036203
#
#
# Mechanical properties :
#
#
# Convention : Reuss Voigt Hill
#
# Bulk Modulus (GPa) = 34.05952 45.42771 39.74361
# Shear Modulus (GPa) = 25.16210 35.50475 30.33343
#
# Velocity S-wave (km/s) = 3.39083 4.02787 3.72300
# Velocity P-wave (km/s) = 5.55820 6.51073 6.05323
#
# Compressibility (1/GPa) = 0.02936037
#
# Stress axis : x y z
#
# Youngs Moduli (GPa) = 89.45053 79.72811 71.85415
#
# Poissons Ratio (x) = 0.35383 0.28168
# Poissons Ratio (y) = 0.39698 -0.30314
# Poissons Ratio (z) = 0.35066 -0.33635
#
# Static dielectric constant tensor:
#      x y z
#    x 1.882910 0.000000 -0.046520 
#    y 0.000000 2.084760 0.000000 
#    z -0.046520 0.000000 1.868510 
# 
# From -- ./inp_files/130127.got.cif
#   From: 2010.05.17/outbox.cif.g08.bks.cpg/sg15_66_cif.got.tgz:130127.got - 2010.06.03 18:47:42.
