data_PCOD9306881
_publ_section_title
;
Structure prediction by ZEFSAII (Michael W. Deem and Ramdas Pophale) SiO2 
 PCOD9306881
Probable space group: C 2/C
;
_chemical_formula_sum "Si O2"
_cell_formula_units_Z 32
_cell_length_a 22.958594
_cell_length_b 7.208073
_cell_length_c 10.606081
_cell_angle_alpha 90.000000
_cell_angle_beta 40.050996
_cell_angle_gamma 90.000000
_cell_volume 1129.398349
_symmetry_space_group_name_H-M "C 2/C"
_symmetry_group_IT_number 15
_symmetry_cell_setting 'monoclinic'
loop_
_space_group_symop_operation_xyz
x,y,z
-x,y,1/2-z
-x,-y,-z
x,-y,1/2+z
1/2+x,1/2+y,z
1/2-x,1/2+y,1/2-z
1/2-x,1/2-y,-z
1/2+x,1/2-y,1/2+z
loop_
_atom_site_type_symbol
_atom_site_label
_atom_site_fract_x
_atom_site_fract_y
_atom_site_fract_z
Si Si1 0.893855 0.523420 0.159509
Si Si2 0.401995 0.231270 0.864620
Si Si3 0.647812 0.570199 0.681422
Si Si4 0.789580 0.790975 0.697300
O O1 0.858726 0.408237 0.336389
O O2 0.885186 0.739445 0.206137
O O3 0.852100 0.394272 0.115864
O O4 0.000000 0.500000 0.000000
O O5 0.500000 0.163881 0.750000
O O6 0.422993 0.429070 0.765356
O O7 0.314718 0.256487 0.097998
O O8 0.682204 0.440122 0.740931
O O9 0.702454 0.637504 0.461884
#
# Coordination Sequence:
#
# PCOD9306881 Si02
#       4
#     8   8   8   8
#     4  11  28  48  84 123 168 225 291 353 428 517
#     4  11  29  49  80 126 170 226 289 350 435 516
#     4  11  28  53  89 121 179 223 285 366 430 517
#     4  11  29  55  84 130 168 233 287 353 444 510
#
# _framework density 28.333669
#
# number of rings (size 3 to 8) (size 9 to 14) (size 15 to 20)
#    0.000    1.000    0.000    3.000   14.000   10.000 
#    0.000    0.000    0.000    0.000    0.000    0.000 
#    0.000    0.000    0.000    0.000    0.000    0.000 
#
# Total GULP energy -89311.919230 kJ/mol
# GULP energy per Si atom -5581.994952 kJ/mol
# Density = 2.826918 g / cm^3
# Si number density = 28.333669 Si / 1000 Ang^3
#
#
#
# Elastic Constant Matrix: (Units=GPa)
#
#
# Indices 1 2 3 4 5 6 
#
# 1 188.5510 88.2615 65.4919 0.0000 31.7469 0.0000
# 2 88.2615 268.7270 54.2013 0.0000 10.3817 0.0000
# 3 65.4919 54.2013 105.4881 0.0000 8.0414 0.0000
# 4 0.0000 0.0000 0.0000 45.5899 0.0000 12.4209
# 5 31.7469 10.3817 8.0414 0.0000 35.7673 0.0000
# 6 0.0000 0.0000 0.0000 12.4209 0.0000 62.4943
#
#
#
# Elastic Compliance Matrix: (Units=1/GPa)
#
#
# Indices 1 2 3 4 5 6 
#
# 1 0.008535 -0.001775 -0.003916 0.000000 -0.006180 0.000000
# 2 -0.001775 0.004540 -0.001272 0.000000 0.000544 0.000000
# 3 -0.003916 -0.001272 0.012486 0.000000 0.001038 0.000000
# 4 0.000000 0.000000 0.000000 0.023190 0.000000 -0.004609
# 5 -0.006180 0.000544 0.001038 0.000000 0.033053 0.000000
# 6 0.000000 0.000000 0.000000 -0.004609 0.000000 0.016918
#
#
# Mechanical properties :
#
#
# Convention : Reuss Voigt Hill
#
# Bulk Modulus (GPa) = 85.95082 108.74171 97.34626
# Shear Modulus (GPa) = 42.90913 52.42440 47.66677
#
# Velocity S-wave (km/s) = 3.89578 4.30612 4.10608
# Velocity P-wave (km/s) = 7.11598 7.94895 7.54397
#
# Compressibility (1/GPa) = 0.01163456
#
# Stress axis : x y z
#
# Youngs Moduli (GPa) = 117.16271 220.27713 80.09273
#
# Poissons Ratio (x) = 0.39093 0.31364
# Poissons Ratio (y) = 0.20793 0.10189
# Poissons Ratio (z) = 0.45881 0.28024
#
# Static dielectric constant tensor:
#      x y z
#    x 2.470880 0.000000 0.173290 
#    y 0.000000 2.330800 0.000000 
#    z 0.173290 0.000000 2.442620 
# 
# From -- ./inp_files/93504.got.cif
#   From: 2010.05.17/outbox.cif.g08.bks.cpg/sg15_47_cif.got.tgz:93504.got - 2010.06.03 18:47:42.
