data_PCOD9306138
_publ_section_title
;
Structure prediction by ZEFSAII (Michael W. Deem and Ramdas Pophale) SiO2 
 PCOD9306138
Probable space group: C 2/C
;
_chemical_formula_sum "Si O2"
_cell_formula_units_Z 48
_cell_length_a 13.997913
_cell_length_b 13.152236
_cell_length_c 14.330852
_cell_angle_alpha 90.000000
_cell_angle_beta 66.616486
_cell_angle_gamma 90.000000
_cell_volume 2421.673172
_symmetry_space_group_name_H-M "C 2/C"
_symmetry_group_IT_number 15
_symmetry_cell_setting 'monoclinic'
loop_
_space_group_symop_operation_xyz
x,y,z
-x,y,1/2-z
-x,-y,-z
x,-y,1/2+z
1/2+x,1/2+y,z
1/2-x,1/2+y,1/2-z
1/2-x,1/2-y,-z
1/2+x,1/2-y,1/2+z
loop_
_atom_site_type_symbol
_atom_site_label
_atom_site_fract_x
_atom_site_fract_y
_atom_site_fract_z
Si Si1 0.347654 0.479820 0.628678
Si Si2 0.895023 0.731907 0.850040
Si Si3 0.989802 0.660731 0.145434
Si Si4 0.027889 0.168637 0.992075
Si Si5 0.765348 0.601341 0.155013
Si Si6 0.337318 0.990219 0.431844
O O1 0.393925 0.590573 0.588420
O O2 0.438505 0.399007 0.574067
O O3 0.303657 0.466935 0.749175
O O4 0.254519 0.459885 0.592376
O O5 0.914859 0.770682 0.947660
O O6 0.802161 0.798967 0.843712
O O7 0.869338 0.613001 0.865857
O O8 0.000000 0.747571 0.750000
O O9 0.871696 0.630675 0.165947
O O10 0.000000 0.688575 0.250000
O O11 0.065492 0.565465 0.097993
O O12 0.016633 0.752875 0.065859
O O13 0.794673 0.543323 0.048962
#
# Coordination Sequence:
#
# PCOD9306138 Si02
#       6
#     8   8   8   8   8   8
#     4  11  25  45  70 102 137 179 230 280 337 407
#     4  12  24  43  74 101 131 183 232 275 336 415
#     4  12  26  46  67 104 142 175 226 286 343 400
#     4  11  25  47  69 101 141 176 226 287 340 402
#     4  12  24  44  70 101 135 183 230 276 342 407
#     4  12  25  44  71 102 139 178 226 284 337 402
#
# _framework density 19.821006000000001
#
# number of rings (size 3 to 8) (size 9 to 14) (size 15 to 20)
#    0.000    0.333    6.667    2.500    0.000    2.000 
#    3.000    0.000    0.000    0.000    0.000    0.000 
#    0.000    0.000    0.000    0.000    0.000    0.000 
#
# Total GULP energy -134335.761521 kJ/mol
# GULP energy per Si atom -5597.323397 kJ/mol
# Density = 1.977589 g / cm^3
# Si number density = 19.821006 Si / 1000 Ang^3
#
#
#
# Elastic Constant Matrix: (Units=GPa)
#
#
# Indices 1 2 3 4 5 6 
#
# 1 100.5075 17.9123 27.4417 0.0000 -8.4305 0.0000
# 2 17.9123 49.8659 17.0510 0.0000 -11.3986 0.0000
# 3 27.4417 17.0510 105.6771 0.0000 2.1198 0.0000
# 4 0.0000 0.0000 0.0000 19.8187 0.0000 7.7693
# 5 -8.4305 -11.3986 2.1198 0.0000 28.6058 0.0000
# 6 0.0000 0.0000 0.0000 7.7693 0.0000 23.1829
#
#
#
# Elastic Compliance Matrix: (Units=1/GPa)
#
#
# Indices 1 2 3 4 5 6 
#
# 1 0.011326 -0.002623 -0.002568 0.000000 0.002483 0.000000
# 2 -0.002623 0.024254 -0.003416 0.000000 0.009145 0.000000
# 3 -0.002568 -0.003416 0.010739 0.000000 -0.002914 0.000000
# 4 0.000000 0.000000 0.000000 0.058089 0.000000 -0.019467
# 5 0.002483 0.009145 -0.002914 0.000000 0.039550 0.000000
# 6 0.000000 0.000000 0.000000 -0.019467 0.000000 0.049659
#
#
# Mechanical properties :
#
#
# Convention : Reuss Voigt Hill
#
# Bulk Modulus (GPa) = 34.35612 42.31783 38.33698
# Shear Modulus (GPa) = 22.67237 27.23121 24.95179
#
# Velocity S-wave (km/s) = 3.38576 3.71058 3.55188
# Velocity P-wave (km/s) = 5.71448 6.30509 6.01704
#
# Compressibility (1/GPa) = 0.02910690
#
# Stress axis : x y z
#
# Youngs Moduli (GPa) = 88.29001 41.22984 93.11720
#
# Poissons Ratio (x) = 0.10814 0.23910
# Poissons Ratio (y) = 0.23157 0.31807
# Poissons Ratio (z) = 0.22671 0.14083
#
# Static dielectric constant tensor:
#      x y z
#    x 1.676840 0.000000 -0.014370 
#    y 0.000000 1.670900 0.000000 
#    z -0.014370 0.000000 1.686200 
# 
# From -- ./inp_files/152447.got.cif
#   From: 2010.05.17/outbox.cif.g08.bks.cpg/sg15_77_cif.got.tgz:152447.got - 2010.06.03 18:47:42.
