data_PCOD9306973
_publ_section_title
;
Structure prediction by ZEFSAII (Michael W. Deem and Ramdas Pophale) SiO2 
 PCOD9306973
Probable space group: C 2/C
;
_chemical_formula_sum "Si O2"
_cell_formula_units_Z 60
_cell_length_a 11.911301
_cell_length_b 16.662617
_cell_length_c 14.530300
_cell_angle_alpha 90.000000
_cell_angle_beta 106.239599
_cell_angle_gamma 90.000000
_cell_volume 2768.813795
_symmetry_space_group_name_H-M "C 2/C"
_symmetry_group_IT_number 15
_symmetry_cell_setting 'monoclinic'
loop_
_space_group_symop_operation_xyz
x,y,z
-x,y,1/2-z
-x,-y,-z
x,-y,1/2+z
1/2+x,1/2+y,z
1/2-x,1/2+y,1/2-z
1/2-x,1/2-y,-z
1/2+x,1/2-y,1/2+z
loop_
_atom_site_type_symbol
_atom_site_label
_atom_site_fract_x
_atom_site_fract_y
_atom_site_fract_z
Si Si1 0.000000 0.262386 0.750000
Si Si2 0.365865 0.269883 0.746337
Si Si3 0.274624 0.577396 0.544404
Si Si4 0.218873 0.332053 0.548423
Si Si5 0.088566 0.185988 0.046214
Si Si6 0.631874 0.430502 0.038277
Si Si7 0.459776 0.148302 0.053620
Si Si8 0.192211 0.129846 0.743489
O O1 0.953343 0.316808 0.655812
O O2 0.902269 0.201434 0.765744
O O3 0.500000 0.259440 0.750000
O O4 0.303470 0.322645 0.654659
O O5 0.358505 0.317514 0.840570
O O6 0.305180 0.182652 0.741837
O O7 0.323138 0.659813 0.512815
O O8 0.363107 0.515366 0.512994
O O9 0.136924 0.579575 0.486373
O O10 0.290894 0.582144 0.657546
O O11 0.250000 0.250000 0.500000
O O12 0.251185 0.395468 0.479192
O O13 0.096443 0.361121 0.562571
O O14 0.065394 0.278950 0.022672
O O15 0.971050 0.132107 0.011803
O O16 0.647252 0.427380 0.151238
#
# Coordination Sequence:
#
# PCOD9306973 Si02
#       8
#     4   8   8   8   8   8   8   8
#     4  12  20  40  72 102 130 186 236 290 346 404
#     4  12  22  38  73 109 127 173 244 294 336 411
#     4  12  28  43  67 105 147 180 234 291 359 433
#     4  12  22  43  70 100 137 182 237 289 343 414
#     4  12  22  43  71 103 136 181 239 294 342 412
#     4  12  26  46  68  99 146 189 222 292 369 423
#     4  12  23  41  72 102 138 180 234 295 343 412
#     4  12  23  42  70  97 135 188 233 286 360 418
#
# _framework density 21.669930999999998
#
# number of rings (size 3 to 8) (size 9 to 14) (size 15 to 20)
#    0.000    0.000    9.333    1.600    0.000    1.600 
#    0.000    0.000    0.000    0.000    0.000    0.000 
#    0.000    0.000    0.000    0.000    0.000    0.000 
#
# Total GULP energy -167395.260326 kJ/mol
# GULP energy per Si atom -5579.842011 kJ/mol
# Density = 2.162061 g / cm^3
# Si number density = 21.669931 Si / 1000 Ang^3
#
#
#
# Elastic Constant Matrix: (Units=GPa)
#
#
# Indices 1 2 3 4 5 6 
#
# 1 73.6890 -9.6113 4.5642 0.0000 -1.0739 0.0000
# 2 -9.6113 31.0810 6.8803 0.0000 -4.7631 0.0000
# 3 4.5642 6.8803 183.2115 0.0000 -10.8024 0.0000
# 4 0.0000 0.0000 0.0000 17.4351 0.0000 -1.5320
# 5 -1.0739 -4.7631 -10.8024 0.0000 28.8035 0.0000
# 6 0.0000 0.0000 0.0000 -1.5320 0.0000 30.9492
#
#
#
# Elastic Compliance Matrix: (Units=1/GPa)
#
#
# Indices 1 2 3 4 5 6 
#
# 1 0.014225 0.004675 -0.000463 0.000000 0.001130 0.000000
# 2 0.004675 0.034705 -0.001095 0.000000 0.005502 0.000000
# 3 -0.000463 -0.001095 0.005624 0.000000 0.001911 0.000000
# 4 0.000000 0.000000 0.000000 0.057606 0.000000 0.002851
# 5 0.001130 0.005502 0.001911 0.000000 0.036387 0.000000
# 6 0.000000 0.000000 0.000000 0.002851 0.000000 0.032452
#
#
# Mechanical properties :
#
#
# Convention : Reuss Voigt Hill
#
# Bulk Modulus (GPa) = 16.45109 32.40532 24.42821
# Shear Modulus (GPa) = 25.63719 34.51411 30.07565
#
# Velocity S-wave (km/s) = 3.44332 3.99522 3.72949
# Velocity P-wave (km/s) = 4.83909 6.02236 5.46286
#
# Compressibility (1/GPa) = 0.06078624
#
# Stress axis : x y z
#
# Youngs Moduli (GPa) = 70.29661 28.81405 177.82516
#
# Poissons Ratio (x) = -0.13470 0.08239
# Poissons Ratio (y) = -0.32861 0.19478
# Poissons Ratio (z) = 0.03257 0.03156
#
# Static dielectric constant tensor:
#      x y z
#    x 1.898900 0.000000 0.039410 
#    y 0.000000 1.705680 0.000000 
#    z 0.039410 0.000000 1.799240 
# 
# From -- ./inp_files/146103.got.cif
#   From: 2010.05.17/outbox.cif.g08.bks.cpg/sg15_74_cif.got.tgz:146103.got - 2010.06.03 18:47:42.
