data_PCOD9306668
_publ_section_title
;
Structure prediction by ZEFSAII (Michael W. Deem and Ramdas Pophale) SiO2 
 PCOD9306668
Probable space group: C 2/C
;
_chemical_formula_sum "Si O2"
_cell_formula_units_Z 24
_cell_length_a 20.327577
_cell_length_b 10.321603
_cell_length_c 4.909702
_cell_angle_alpha 90.000000
_cell_angle_beta 124.762000
_cell_angle_gamma 90.000000
_cell_volume 846.272104
_symmetry_space_group_name_H-M "C 2/C"
_symmetry_group_IT_number 15
_symmetry_cell_setting 'monoclinic'
loop_
_space_group_symop_operation_xyz
x,y,z
-x,y,1/2-z
-x,-y,-z
x,-y,1/2+z
1/2+x,1/2+y,z
1/2-x,1/2+y,1/2-z
1/2-x,1/2-y,-z
1/2+x,1/2-y,1/2+z
loop_
_atom_site_type_symbol
_atom_site_label
_atom_site_fract_x
_atom_site_fract_y
_atom_site_fract_z
Si Si1 0.000000 0.901357 0.250000
Si Si2 0.220040 0.909992 0.148260
Si Si3 0.500000 0.000000 0.500000
Si Si4 0.879920 0.288719 0.755016
O O1 0.072670 0.811191 0.321991
O O2 0.000000 0.000000 0.500000
O O3 0.158100 0.799910 0.095790
O O4 0.307643 0.852788 0.417342
O O5 0.212196 0.033653 0.329877
O O6 0.500000 0.903034 0.750000
O O7 0.569430 0.908791 0.485440
#
# Coordination Sequence:
#
# PCOD9306668 Si02
#       4
#     4   8   4   8
#     4  12  28  46  72 108 152 196 246 306 380 436
#     4  11  26  47  75 107 149 197 251 308 376 443
#     4  12  26  44  72 110 148 190 248 304 370 436
#     4  11  26  47  76 110 150 199 251 312 369 455
#
# _framework density 28.359674999999999
#
# number of rings (size 3 to 8) (size 9 to 14) (size 15 to 20)
#    0.000    0.667    1.667    4.000    2.333   10.667 
#    0.000    0.000    0.000    0.000    0.000    0.000 
#    0.000    0.000    0.000    0.000    0.000    0.000 
#
# Total GULP energy -66988.910930 kJ/mol
# GULP energy per Si atom -5582.409244 kJ/mol
# Density = 2.829513 g / cm^3
# Si number density = 28.359675 Si / 1000 Ang^3
#
#
#
# Elastic Constant Matrix: (Units=GPa)
#
#
# Indices 1 2 3 4 5 6 
#
# 1 160.7803 106.9483 51.2386 0.0000 19.6240 0.0000
# 2 106.9483 222.0627 54.1135 0.0000 45.1369 0.0000
# 3 51.2386 54.1135 66.5637 0.0000 2.1704 0.0000
# 4 0.0000 0.0000 0.0000 -68.1871 0.0000 14.7511
# 5 19.6240 45.1369 2.1704 0.0000 64.2849 0.0000
# 6 0.0000 0.0000 0.0000 14.7511 0.0000 84.9726
#
#
#
# Elastic Compliance Matrix: (Units=1/GPa)
#
#
# Indices 1 2 3 4 5 6 
#
# 1 0.010275 -0.003672 -0.004912 0.000000 -0.000393 0.000000
# 2 -0.003672 0.008034 -0.003561 0.000000 -0.004400 0.000000
# 3 -0.004912 -0.003561 0.021592 0.000000 0.003271 0.000000
# 4 0.000000 0.000000 0.000000 -0.014135 0.000000 0.002454
# 5 -0.000393 -0.004400 0.003271 0.000000 0.018654 0.000000
# 6 0.000000 0.000000 0.000000 0.002454 0.000000 0.011343
#
#
# Mechanical properties :
#
#
# Convention : Reuss Voigt Hill
#
# Bulk Modulus (GPa) = 64.05305 97.11193 80.58249
# Shear Modulus (GPa) = 58.64590 32.02118 45.33354
#
# Velocity S-wave (km/s) = 4.55239 3.36387 4.00249
# Velocity P-wave (km/s) = 7.08994 7.02885 7.05946
#
# Compressibility (1/GPa) = 0.01561206
#
# Stress axis : x y z
#
# Youngs Moduli (GPa) = 97.31895 124.47382 46.31270
#
# Poissons Ratio (x) = 0.45708 0.22747
# Poissons Ratio (y) = 0.35737 0.16492
# Poissons Ratio (z) = 0.47800 0.44325
#
# Static dielectric constant tensor:
#      x y z
#    x 2.767010 0.000000 0.287980 
#    y 0.000000 1.964340 0.000000 
#    z 0.287980 0.000000 1.704250 
# 
# From -- ./inp_files/12280.got.cif
#   From: 2010.05.17/outbox.cif.g08.bks.cpg/sg15_7_cif.got.tgz:12280.got - 2010.06.03 18:47:42.
