data_PCOD9306035
_publ_section_title
;
Structure prediction by ZEFSAII (Michael W. Deem and Ramdas Pophale) SiO2 
 PCOD9306035
Probable space group: C 2/C
;
_chemical_formula_sum "Si O2"
_cell_formula_units_Z 52
_cell_length_a 18.557069
_cell_length_b 6.704602
_cell_length_c 23.114955
_cell_angle_alpha 90.000000
_cell_angle_beta 64.605940
_cell_angle_gamma 90.000000
_cell_volume 2598.039751
_symmetry_space_group_name_H-M "C 2/C"
_symmetry_group_IT_number 15
_symmetry_cell_setting 'monoclinic'
loop_
_space_group_symop_operation_xyz
x,y,z
-x,y,1/2-z
-x,-y,-z
x,-y,1/2+z
1/2+x,1/2+y,z
1/2-x,1/2+y,1/2-z
1/2-x,1/2-y,-z
1/2+x,1/2-y,1/2+z
loop_
_atom_site_type_symbol
_atom_site_label
_atom_site_fract_x
_atom_site_fract_y
_atom_site_fract_z
Si Si1 0.864760 0.242745 0.288124
Si Si2 0.170895 0.134168 0.509812
Si Si3 0.052615 0.932985 0.155018
Si Si4 0.394081 0.621871 0.155474
Si Si5 0.194681 0.825296 0.402280
Si Si6 0.500000 0.927546 0.750000
Si Si7 0.087450 0.433323 0.450247
O O1 0.844642 0.175112 0.229949
O O2 0.785002 0.291607 0.350682
O O3 0.924757 0.430286 0.263255
O O4 0.912434 0.067987 0.305179
O O5 0.250000 0.250000 0.500000
O O6 0.121049 0.085170 0.583807
O O7 0.119351 0.279241 0.486939
O O8 0.191233 0.941822 0.464224
O O9 0.024930 0.720060 0.189505
O O10 0.977112 0.035841 0.150809
O O11 0.349399 0.463349 0.130237
O O12 0.412136 0.814980 0.110380
O O13 0.146501 0.620293 0.424992
O O14 0.000000 0.500000 0.500000
#
# Coordination Sequence:
#
# PCOD9306035 Si02
#       7
#     8   8   8   8   8   4   8
#     4  12  26  44  67 104 136 181 237 276 353 413
#     4  11  25  45  68 101 135 175 228 282 343 407
#     4  12  24  45  72  97 137 174 234 284 334 414
#     4  11  25  43  64 102 134 181 226 281 336 415
#     4  11  27  44  68 100 142 180 221 291 346 407
#     4  12  24  42  68 100 130 182 230 284 342 402
#     4  11  25  44  69 101 133 183 230 274 348 408
#
# _framework density 20.015091000000002
#
# number of rings (size 3 to 8) (size 9 to 14) (size 15 to 20)
#    0.000    0.615    3.077    3.692    6.462    8.615 
#    0.000    0.000    0.000    0.000    0.000    0.000 
#    0.000    0.000    0.000    0.000    0.000    0.000 
#
# Total GULP energy -145539.251704 kJ/mol
# GULP energy per Si atom -5597.663527 kJ/mol
# Density = 1.996954 g / cm^3
# Si number density = 20.015091 Si / 1000 Ang^3
#
#
#
# Elastic Constant Matrix: (Units=GPa)
#
#
# Indices 1 2 3 4 5 6 
#
# 1 50.8488 5.7604 22.2484 0.0004 -6.5859 0.0006
# 2 5.7604 95.3546 43.6811 -0.0006 3.5045 0.0011
# 3 22.2484 43.6811 152.4312 0.0004 -7.3350 0.0004
# 4 0.0004 -0.0006 0.0004 38.0329 0.0000 -1.3070
# 5 -6.5859 3.5045 -7.3350 0.0000 42.8535 -0.0004
# 6 0.0006 0.0011 0.0004 -1.3070 -0.0004 24.4469
#
#
#
# Elastic Compliance Matrix: (Units=1/GPa)
#
#
# Indices 1 2 3 4 5 6 
#
# 1 0.021329 -0.000029 -0.002971 0.000000 0.002772 0.000000
# 2 -0.000029 0.012181 -0.003564 0.000000 -0.001611 0.000000
# 3 -0.002971 -0.003564 0.008074 0.000000 0.001217 0.000000
# 4 0.000000 0.000000 0.000000 0.026341 0.000000 0.001408
# 5 0.002772 -0.001611 0.001217 0.000000 0.024101 0.000000
# 6 0.000000 0.000000 0.000000 0.001408 0.000000 0.040980
#
#
# Mechanical properties :
#
#
# Convention : Reuss Voigt Hill
#
# Bulk Modulus (GPa) = 35.14390 49.11273 42.12832
# Shear Modulus (GPa) = 32.12971 36.19631 34.16301
#
# Velocity S-wave (km/s) = 4.01093 4.25720 4.13590
# Velocity P-wave (km/s) = 6.24876 6.98256 6.62582
#
# Compressibility (1/GPa) = 0.02845444
#
# Stress axis : x y z
#
# Youngs Moduli (GPa) = 46.88562 82.09742 123.85722
#
# Poissons Ratio (x) = 0.00240 0.36802
# Poissons Ratio (y) = 0.00137 0.44140
# Poissons Ratio (z) = 0.13931 0.29258
#
# Static dielectric constant tensor:
#      x y z
#    x 1.661850 0.000000 -0.002690 
#    y 0.000000 1.683280 0.000000 
#    z -0.002690 0.000000 1.681120 
# 
# From -- ./inp_files/278896.got.cif
#   From: 2010.05.17/outbox.cif.g08.bks.cpg/sg15_140_cif.got.tgz:278896.got - 2010.06.03 18:47:42.
