data_PCOD9306339
_publ_section_title
;
Structure prediction by ZEFSAII (Michael W. Deem and Ramdas Pophale) SiO2 
 PCOD9306339
Probable space group: C 2/C
;
_chemical_formula_sum "Si O2"
_cell_formula_units_Z 36
_cell_length_a 13.648934
_cell_length_b 16.834158
_cell_length_c 7.443411
_cell_angle_alpha 90.000000
_cell_angle_beta 116.502168
_cell_angle_gamma 90.000000
_cell_volume 1530.541544
_symmetry_space_group_name_H-M "C 2/C"
_symmetry_group_IT_number 15
_symmetry_cell_setting 'monoclinic'
loop_
_space_group_symop_operation_xyz
x,y,z
-x,y,1/2-z
-x,-y,-z
x,-y,1/2+z
1/2+x,1/2+y,z
1/2-x,1/2+y,1/2-z
1/2-x,1/2-y,-z
1/2+x,1/2-y,1/2+z
loop_
_atom_site_type_symbol
_atom_site_label
_atom_site_fract_x
_atom_site_fract_y
_atom_site_fract_z
Si Si1 0.077644 0.058785 0.960170
Si Si2 0.262981 0.671691 0.262162
Si Si3 0.836531 0.340983 0.417377
Si Si4 0.500000 0.926830 0.750000
Si Si5 0.790585 0.544361 0.575131
O O1 0.000000 0.098313 0.750000
O O2 0.123320 0.125734 0.125066
O O3 0.180329 0.007867 0.970759
O O4 0.000000 0.000000 0.000000
O O5 0.206117 0.667928 0.412611
O O6 0.298546 0.763315 0.275039
O O7 0.202408 0.614901 0.067852
O O8 0.962771 0.368042 0.556218
O O9 0.784903 0.411934 0.261540
O O10 0.396320 0.986817 0.674059
#
# Coordination Sequence:
#
# PCOD9306339 Si02
#       5
#     8   8   8   4   8
#     4  12  23  43  71  99 136 188 241 289 348 433
#     4  11  25  47  70 103 145 188 235 296 369 423
#     4  11  26  45  71 105 147 183 236 302 364 432
#     4  12  26  46  78 110 142 196 242 302 366 430
#     4  12  25  48  72 105 142 189 246 292 359 439
#
# _framework density 23.521086
#
# number of rings (size 3 to 8) (size 9 to 14) (size 15 to 20)
#    0.000    0.444    4.444    4.000    4.667    0.000 
#    0.000    2.222    0.000    0.000    0.000    0.000 
#    0.000    0.000    0.000    0.000    0.000    0.000 
#
# Total GULP energy -100403.136736 kJ/mol
# GULP energy per Si atom -5577.952041 kJ/mol
# Density = 2.346755 g / cm^3
# Si number density = 23.521086 Si / 1000 Ang^3
#
#
#
# Elastic Constant Matrix: (Units=GPa)
#
#
# Indices 1 2 3 4 5 6 
#
# 1 111.1552 49.9692 27.7398 0.0000 19.1913 0.0000
# 2 49.9692 137.4173 24.9348 0.0000 12.7202 0.0000
# 3 27.7398 24.9348 91.5288 0.0000 15.3677 0.0000
# 4 0.0000 0.0000 0.0000 58.4021 0.0000 2.1994
# 5 19.1913 12.7202 15.3677 0.0000 37.7741 0.0000
# 6 0.0000 0.0000 0.0000 2.1994 0.0000 22.5079
#
#
#
# Elastic Compliance Matrix: (Units=1/GPa)
#
#
# Indices 1 2 3 4 5 6 
#
# 1 0.011767 -0.003560 -0.001926 0.000000 -0.003996 0.000000
# 2 -0.003560 0.008856 -0.001220 0.000000 -0.000677 0.000000
# 3 -0.001926 -0.001220 0.012459 0.000000 -0.003680 0.000000
# 4 0.000000 0.000000 0.000000 0.017186 0.000000 -0.001679
# 5 -0.003996 -0.000677 -0.003680 0.000000 0.030229 0.000000
# 6 0.000000 0.000000 0.000000 -0.001679 0.000000 0.044593
#
#
# Mechanical properties :
#
#
# Convention : Reuss Voigt Hill
#
# Bulk Modulus (GPa) = 50.83437 60.59875 55.71656
# Shear Modulus (GPa) = 34.46924 39.56733 37.01828
#
# Velocity S-wave (km/s) = 3.83229 4.10592 3.97146
# Velocity P-wave (km/s) = 6.42192 6.94965 6.69099
#
# Compressibility (1/GPa) = 0.01967173
#
# Stress axis : x y z
#
# Youngs Moduli (GPa) = 84.98251 112.92377 80.26141
#
# Poissons Ratio (x) = 0.40196 0.15455
# Poissons Ratio (y) = 0.30250 0.09792
# Poissons Ratio (z) = 0.16364 0.13776
#
# Static dielectric constant tensor:
#      x y z
#    x 1.931980 0.000000 -0.029210 
#    y 0.000000 1.964000 0.000000 
#    z -0.029210 0.000000 1.991800 
# 
# From -- ./inp_files/38777.got.cif
#   From: 2010.05.17/outbox.cif.g08.bks.cpg/sg15_20_cif.got.tgz:38777.got - 2010.06.03 18:47:42.
