data_PCOD9306576
_publ_section_title
;
Structure prediction by ZEFSAII (Michael W. Deem and Ramdas Pophale) SiO2 
 PCOD9306576
Probable space group: C 2/C
;
_chemical_formula_sum "Si O2"
_cell_formula_units_Z 56
_cell_length_a 9.526757
_cell_length_b 17.809233
_cell_length_c 19.374515
_cell_angle_alpha 90.000000
_cell_angle_beta 139.569487
_cell_angle_gamma 90.000000
_cell_volume 2131.808120
_symmetry_space_group_name_H-M "C 2/C"
_symmetry_group_IT_number 15
_symmetry_cell_setting 'monoclinic'
loop_
_space_group_symop_operation_xyz
x,y,z
-x,y,1/2-z
-x,-y,-z
x,-y,1/2+z
1/2+x,1/2+y,z
1/2-x,1/2+y,1/2-z
1/2-x,1/2-y,-z
1/2+x,1/2-y,1/2+z
loop_
_atom_site_type_symbol
_atom_site_label
_atom_site_fract_x
_atom_site_fract_y
_atom_site_fract_z
Si Si1 0.790616 0.495642 0.143088
Si Si2 0.118780 0.721093 0.690580
Si Si3 0.866574 0.900207 0.797145
Si Si4 0.831458 0.404837 0.927416
Si Si5 0.621224 0.607997 0.986775
Si Si6 0.668062 0.275972 0.080401
Si Si7 0.713348 0.389354 0.361956
O O1 0.748430 0.558380 0.184705
O O2 0.595148 0.438176 0.074834
O O3 0.000000 0.454260 0.250000
O O4 0.798023 0.547128 0.077803
O O5 0.126884 0.811078 0.688766
O O6 0.238389 0.707648 0.808113
O O7 0.237688 0.677505 0.673891
O O8 0.863781 0.699255 0.602855
O O9 0.744624 0.917377 0.679916
O O10 0.116911 0.926590 0.889157
O O11 0.854338 0.313268 0.936586
O O12 0.056901 0.431184 0.045070
O O13 0.565700 0.683924 0.007985
O O14 0.659000 0.627773 0.921416
O O15 0.500000 0.428122 0.250000
#
# Coordination Sequence:
#
# PCOD9306576 Si02
#       7
#     8   8   8   8   8   8   8
#     4  11  26  47  71  89 126 183 232 274 322 400
#     4   9  20  37  67  99 131 171 214 265 343 390
#     4   9  20  45  67  98 128 177 227 271 331 399
#     4   9  21  40  69  99 141 169 216 277 345 399
#     4  11  26  45  64  96 130 176 232 265 333 393
#     4   9  19  41  67  95 131 180 217 267 319 413
#     4  12  24  40  60 107 141 170 215 279 342 388
#
# _framework density 26.268782000000002
#
# number of rings (size 3 to 8) (size 9 to 14) (size 15 to 20)
#    0.000    2.000    1.429    2.571    6.000    2.286 
#    5.143    0.714    0.000    0.000    0.000    0.000 
#    0.000    0.000    0.000    0.000    0.000    0.000 
#
# Total GULP energy -156647.796916 kJ/mol
# GULP energy per Si atom -5594.564176 kJ/mol
# Density = 2.620899 g / cm^3
# Si number density = 26.268782 Si / 1000 Ang^3
#
#
#
# Elastic Constant Matrix: (Units=GPa)
#
#
# Indices 1 2 3 4 5 6 
#
# 1 107.5965 28.5062 43.9954 0.0000 -8.7989 0.0000
# 2 28.5062 72.6845 15.9665 0.0000 -6.9826 0.0000
# 3 43.9954 15.9665 157.6558 -0.0001 9.5246 0.0000
# 4 0.0000 0.0000 -0.0001 23.7606 0.0000 -8.9558
# 5 -8.7989 -6.9826 9.5246 0.0000 56.8521 0.0000
# 6 0.0000 0.0000 0.0000 -8.9558 0.0000 12.2622
#
#
#
# Elastic Compliance Matrix: (Units=1/GPa)
#
#
# Indices 1 2 3 4 5 6 
#
# 1 0.011656 -0.003738 -0.002986 0.000000 0.001845 0.000000
# 2 -0.003738 0.015496 -0.000612 0.000000 0.001427 0.000000
# 3 -0.002986 -0.000612 0.007345 0.000000 -0.001768 0.000000
# 4 0.000000 0.000000 0.000000 0.058073 0.000000 0.042414
# 5 0.001845 0.001427 -0.001768 0.000000 0.018347 0.000000
# 6 0.000000 0.000000 0.000000 0.042414 0.000000 0.112529
#
#
# Mechanical properties :
#
#
# Convention : Reuss Voigt Hill
#
# Bulk Modulus (GPa) = 50.44318 57.20813 53.82565
# Shear Modulus (GPa) = 20.43104 35.20624 27.81864
#
# Velocity S-wave (km/s) = 2.79188 3.66489 3.25776
# Velocity P-wave (km/s) = 5.44400 6.30348 5.88944
#
# Compressibility (1/GPa) = 0.01982429
#
# Stress axis : x y z
#
# Youngs Moduli (GPa) = 85.79214 64.53346 136.14868
#
# Poissons Ratio (x) = 0.24125 0.40649
# Poissons Ratio (y) = 0.32072 0.08337
# Poissons Ratio (z) = 0.25614 0.03952
#
# Static dielectric constant tensor:
#      x y z
#    x 2.029260 0.000000 0.059660 
#    y 0.000000 2.082820 0.000000 
#    z 0.059660 0.000000 2.179880 
# 
# From -- ./inp_files/193319.got.cif
#   From: 2010.05.17/outbox.cif.g08.bks.cpg/sg15_97_cif.got.tgz:193319.got - 2010.06.03 18:47:42.
