data_PCOD9306239
_publ_section_title
;
Structure prediction by ZEFSAII (Michael W. Deem and Ramdas Pophale) SiO2 
 PCOD9306239
Probable space group: C 2/C
;
_chemical_formula_sum "Si O2"
_cell_formula_units_Z 36
_cell_length_a 22.406446
_cell_length_b 16.749259
_cell_length_c 9.120877
_cell_angle_alpha 90.000000
_cell_angle_beta 153.513387
_cell_angle_gamma 90.000000
_cell_volume 1526.613262
_symmetry_space_group_name_H-M "C 2/C"
_symmetry_group_IT_number 15
_symmetry_cell_setting 'monoclinic'
loop_
_space_group_symop_operation_xyz
x,y,z
-x,y,1/2-z
-x,-y,-z
x,-y,1/2+z
1/2+x,1/2+y,z
1/2-x,1/2+y,1/2-z
1/2-x,1/2-y,-z
1/2+x,1/2-y,1/2+z
loop_
_atom_site_type_symbol
_atom_site_label
_atom_site_fract_x
_atom_site_fract_y
_atom_site_fract_z
Si Si1 0.680523 0.154780 0.788032
Si Si2 0.892847 0.067407 0.807539
Si Si3 0.500000 0.978688 0.750000
Si Si4 0.941259 0.227346 0.269121
Si Si5 0.745306 0.050476 0.182616
O O1 0.608605 0.079537 0.559922
O O2 0.571463 0.213484 0.620490
O O3 0.786798 0.197595 0.916091
O O4 0.768703 0.120340 0.117155
O O5 0.795285 0.073329 0.453263
O O6 0.817953 0.028847 0.781966
O O7 0.965319 0.150558 0.998144
O O8 0.000000 0.000000 0.000000
O O9 0.412685 0.033817 0.663016
O O10 0.000000 0.265767 0.250000
#
# Coordination Sequence:
#
# PCOD9306239 Si02
#       5
#     8   8   4   8   8
#     4  11  26  44  69 104 144 185 228 297 355 422
#     4  12  23  43  72 102 134 184 242 292 339 418
#     4  12  24  46  68 100 144 184 236 288 356 426
#     4  11  25  46  70 102 144 183 237 290 359 420
#     4  12  25  43  73 103 138 188 239 290 351 415
#
# _framework density 23.581610000000001
#
# number of rings (size 3 to 8) (size 9 to 14) (size 15 to 20)
#    0.000    0.444    4.444    4.000    1.556    3.556 
#    0.000    3.333    0.000    0.000    0.000    0.000 
#    0.000    0.000    0.000    0.000    0.000    0.000 
#
# Total GULP energy -100738.838162 kJ/mol
# GULP energy per Si atom -5596.602120 kJ/mol
# Density = 2.352794 g / cm^3
# Si number density = 23.581610 Si / 1000 Ang^3
#
#
#
# Elastic Constant Matrix: (Units=GPa)
#
#
# Indices 1 2 3 4 5 6 
#
# 1 137.9126 20.9222 20.6146 0.0000 34.1588 0.0000
# 2 20.9222 76.1298 -2.5449 0.0000 8.0232 0.0000
# 3 20.6146 -2.5449 53.6998 0.0000 0.2476 0.0000
# 4 0.0000 0.0000 0.0000 35.5935 0.0000 12.7390
# 5 34.1588 8.0232 0.2476 0.0000 45.6669 0.0000
# 6 0.0000 0.0000 0.0000 12.7390 0.0000 36.5475
#
#
#
# Elastic Compliance Matrix: (Units=1/GPa)
#
#
# Indices 1 2 3 4 5 6 
#
# 1 0.009882 -0.002107 -0.003861 0.000000 -0.007000 0.000000
# 2 -0.002107 0.013855 0.001469 0.000000 -0.000866 0.000000
# 3 -0.003861 0.001469 0.020162 0.000000 0.002521 0.000000
# 4 0.000000 0.000000 0.000000 0.032099 0.000000 -0.011189
# 5 -0.007000 -0.000866 0.002521 0.000000 0.027272 0.000000
# 6 0.000000 0.000000 0.000000 -0.011189 0.000000 0.031262
#
#
# Mechanical properties :
#
#
# Convention : Reuss Voigt Hill
#
# Bulk Modulus (GPa) = 28.65192 38.41399 33.53295
# Shear Modulus (GPa) = 32.22416 38.81161 35.51788
#
# Velocity S-wave (km/s) = 3.70062 4.06130 3.88515
# Velocity P-wave (km/s) = 5.51688 6.19010 5.86316
#
# Compressibility (1/GPa) = 0.03490168
#
# Stress axis : x y z
#
# Youngs Moduli (GPa) = 101.19818 72.17660 49.59771
#
# Poissons Ratio (x) = 0.15208 0.19150
# Poissons Ratio (y) = 0.21322 -0.07288
# Poissons Ratio (z) = 0.39072 -0.10606
#
# Static dielectric constant tensor:
#      x y z
#    x 1.971200 0.000000 0.003110 
#    y 0.000000 1.869500 0.000000 
#    z 0.003110 0.000000 1.905040 
# 
# From -- ./inp_files/22517.got.cif
#   From: 2010.05.17/outbox.cif.g08.bks.cpg/sg15_12_cif.got.tgz:22517.got - 2010.06.03 18:47:42.
