data_PCOD9306877
_publ_section_title
;
Structure prediction by ZEFSAII (Michael W. Deem and Ramdas Pophale) SiO2 
 PCOD9306877
Probable space group: C 2/C
;
_chemical_formula_sum "Si O2"
_cell_formula_units_Z 24
_cell_length_a 23.085315
_cell_length_b 5.017181
_cell_length_c 19.073682
_cell_angle_alpha 90.000000
_cell_angle_beta 158.526216
_cell_angle_gamma 90.000000
_cell_volume 808.724762
_symmetry_space_group_name_H-M "C 2/C"
_symmetry_group_IT_number 15
_symmetry_cell_setting 'monoclinic'
loop_
_space_group_symop_operation_xyz
x,y,z
-x,y,1/2-z
-x,-y,-z
x,-y,1/2+z
1/2+x,1/2+y,z
1/2-x,1/2+y,1/2-z
1/2-x,1/2-y,-z
1/2+x,1/2-y,1/2+z
loop_
_atom_site_type_symbol
_atom_site_label
_atom_site_fract_x
_atom_site_fract_y
_atom_site_fract_z
Si Si1 0.883261 0.537711 0.676314
Si Si2 0.721466 0.726163 0.804849
Si Si3 0.970919 0.142077 0.045485
O O1 0.750000 0.750000 0.500000
O O2 0.809692 0.342031 0.652010
O O3 0.000000 0.406475 0.750000
O O4 0.015837 0.695431 0.869556
O O5 0.883112 0.864792 0.963620
O O6 0.611910 0.789687 0.612428
O O7 0.654892 0.424589 0.736011
#
# Coordination Sequence:
#
# PCOD9306877 Si02
#       3
#     8   8   8
#     4  12  27  50  75 113 158 201 255 316 392 462
#     4  11  28  48  78 111 153 199 261 316 383 457
#     4  11  28  47  79 115 149 206 258 322 378 459
#
# _framework density 29.676349999999999
#
# number of rings (size 3 to 8) (size 9 to 14) (size 15 to 20)
#    0.000    0.667    3.333    1.000   18.667    2.667 
#    0.000    0.000    0.000    0.000    0.000    0.000 
#    0.000    0.000    0.000    0.000    0.000    0.000 
#
# Total GULP energy -67062.021249 kJ/mol
# GULP energy per Si atom -5588.501771 kJ/mol
# Density = 2.960881 g / cm^3
# Si number density = 29.676350 Si / 1000 Ang^3
#
#
#
# Elastic Constant Matrix: (Units=GPa)
#
#
# Indices 1 2 3 4 5 6 
#
# 1 228.5114 16.1011 48.2953 0.0000 -6.8643 -0.0002
# 2 16.1011 46.6480 7.5157 0.0022 -2.1367 0.0010
# 3 48.2953 7.5157 149.3023 -0.0009 -9.6529 -0.0001
# 4 0.0000 0.0022 -0.0009 73.9055 -0.0002 -4.3027
# 5 -6.8643 -2.1367 -9.6529 -0.0002 57.3127 -0.0001
# 6 -0.0002 0.0010 -0.0001 -4.3027 -0.0001 42.1190
#
#
#
# Elastic Compliance Matrix: (Units=1/GPa)
#
#
# Indices 1 2 3 4 5 6 
#
# 1 0.004792 -0.001406 -0.001462 0.000000 0.000275 0.000000
# 2 -0.001406 0.022047 -0.000620 -0.000001 0.000549 -0.000001
# 3 -0.001462 -0.000620 0.007268 0.000000 0.001026 0.000000
# 4 0.000000 -0.000001 0.000000 0.013612 0.000000 0.001391
# 5 0.000275 0.000549 0.001026 0.000000 0.017674 0.000000
# 6 0.000000 -0.000001 0.000000 0.001391 0.000000 0.023884
#
#
# Mechanical properties :
#
#
# Convention : Reuss Voigt Hill
#
# Bulk Modulus (GPa) = 36.85472 63.14290 49.99881
# Shear Modulus (GPa) = 47.48460 58.17076 52.82768
#
# Velocity S-wave (km/s) = 4.00444 4.43219 4.22373
# Velocity P-wave (km/s) = 5.81606 6.89317 6.37739
#
# Compressibility (1/GPa) = 0.02713357
#
# Stress axis : x y z
#
# Youngs Moduli (GPa) = 208.66352 45.35679 137.58685
#
# Poissons Ratio (x) = 0.06377 0.20110
# Poissons Ratio (y) = 0.29339 0.08524
# Poissons Ratio (z) = 0.30499 0.02810
#
# Static dielectric constant tensor:
#      x y z
#    x 2.397450 0.000000 0.050130 
#    y 0.000000 2.436820 0.000000 
#    z 0.050130 0.000000 2.307640 
# 
# From -- ./inp_files/250675.got.cif
#   From: 2010.05.17/outbox.cif.g08.bks.cpg/sg15_126_cif.got.tgz:250675.got - 2010.06.03 18:47:42.
