data_PCOD9306736
_publ_section_title
;
Structure prediction by ZEFSAII (Michael W. Deem and Ramdas Pophale) SiO2 
 PCOD9306736
Probable space group: C 2/C
;
_chemical_formula_sum "Si O2"
_cell_formula_units_Z 32
_cell_length_a 12.694609
_cell_length_b 6.935784
_cell_length_c 20.251885
_cell_angle_alpha 90.000000
_cell_angle_beta 135.574808
_cell_angle_gamma 90.000000
_cell_volume 1248.143066
_symmetry_space_group_name_H-M "C 2/C"
_symmetry_group_IT_number 15
_symmetry_cell_setting 'monoclinic'
loop_
_space_group_symop_operation_xyz
x,y,z
-x,y,1/2-z
-x,-y,-z
x,-y,1/2+z
1/2+x,1/2+y,z
1/2-x,1/2+y,1/2-z
1/2-x,1/2-y,-z
1/2+x,1/2-y,1/2+z
loop_
_atom_site_type_symbol
_atom_site_label
_atom_site_fract_x
_atom_site_fract_y
_atom_site_fract_z
Si Si1 0.845974 0.723961 0.256901
Si Si2 0.064022 0.286211 0.207891
Si Si3 0.399572 0.477702 0.072150
Si Si4 0.632420 0.850347 0.041184
O O1 0.921144 0.516133 0.284595
O O2 0.733627 0.717455 0.269205
O O3 0.739595 0.791581 0.149909
O O4 0.978251 0.873110 0.326715
O O5 0.000000 0.227832 0.250000
O O6 0.955870 0.196615 0.103184
O O7 0.414622 0.355710 0.011903
O O8 0.237580 0.446430 0.031850
O O9 0.500000 0.000000 0.000000
#
# Coordination Sequence:
#
# PCOD9306736 Si02
#       4
#     8   8   8   8
#     4  12  25  51  78 113 162 208 262 331 399 472
#     4  12  26  45  80 111 149 212 262 313 395 469
#     4  11  26  49  78 119 160 205 262 332 394 476
#     4  11  26  49  84 119 163 207 269 333 395 478
#
# _framework density 25.638088
#
# number of rings (size 3 to 8) (size 9 to 14) (size 15 to 20)
#    0.000    0.500    2.500    5.250    3.500    3.000 
#    0.000   20.000    0.000    0.000    0.000    0.000 
#    0.000    0.000    0.000    0.000    0.000    0.000 
#
# Total GULP energy -89705.508600 kJ/mol
# GULP energy per Si atom -5606.594287 kJ/mol
# Density = 2.557973 g / cm^3
# Si number density = 25.638088 Si / 1000 Ang^3
#
#
#
# Elastic Constant Matrix: (Units=GPa)
#
#
# Indices 1 2 3 4 5 6 
#
# 1 166.3497 59.3960 39.7391 0.0000 27.2350 0.0000
# 2 59.3960 167.3234 83.3082 0.0000 -1.8155 0.0000
# 3 39.7391 83.3082 154.6304 0.0000 -11.7048 0.0000
# 4 0.0000 0.0000 0.0000 124.4868 0.0000 -42.1919
# 5 27.2350 -1.8155 -11.7048 0.0000 38.0754 0.0000
# 6 0.0000 0.0000 0.0000 -42.1919 0.0000 93.8877
#
#
#
# Elastic Compliance Matrix: (Units=1/GPa)
#
#
# Indices 1 2 3 4 5 6 
#
# 1 0.008205 -0.002311 -0.001348 0.000000 -0.006394 0.000000
# 2 -0.002311 0.008855 -0.004115 0.000000 0.000810 0.000000
# 3 -0.001348 -0.004115 0.009305 0.000000 0.003628 0.000000
# 4 0.000000 0.000000 0.000000 0.009476 0.000000 0.004259
# 5 -0.006394 0.000810 0.003628 0.000000 0.031991 0.000000
# 6 0.000000 0.000000 0.000000 0.004259 0.000000 0.012565
#
#
# Mechanical properties :
#
#
# Convention : Reuss Voigt Hill
#
# Bulk Modulus (GPa) = 92.44527 94.79891 93.62209
# Shear Modulus (GPa) = 50.22587 71.68066 60.95327
#
# Velocity S-wave (km/s) = 4.43090 5.29333 4.88120
# Velocity P-wave (km/s) = 7.89387 8.62643 8.26827
#
# Compressibility (1/GPa) = 0.01081721
#
# Stress axis : x y z
#
# Youngs Moduli (GPa) = 121.87204 112.93655 107.46873
#
# Poissons Ratio (x) = 0.26101 0.14482
# Poissons Ratio (y) = 0.28167 0.44225
# Poissons Ratio (z) = 0.16423 0.46475
#
# Static dielectric constant tensor:
#      x y z
#    x 2.045900 0.000000 -0.051730 
#    y 0.000000 2.084060 0.000000 
#    z -0.051730 0.000000 1.966760 
# 
# From -- ./inp_files/176019.got.cif
#   From: 2010.05.17/outbox.cif.g08.bks.cpg/sg15_89_cif.got.tgz:176019.got - 2010.06.03 18:47:42.
