data_PCOD9306612
_publ_section_title
;
Structure prediction by ZEFSAII (Michael W. Deem and Ramdas Pophale) SiO2 
 PCOD9306612
Probable space group: C 2/C
;
_chemical_formula_sum "Si O2"
_cell_formula_units_Z 40
_cell_length_a 11.861654
_cell_length_b 16.237091
_cell_length_c 18.540719
_cell_angle_alpha 90.000000
_cell_angle_beta 28.228694
_cell_angle_gamma 90.000000
_cell_volume 1689.016548
_symmetry_space_group_name_H-M "C 2/C"
_symmetry_group_IT_number 15
_symmetry_cell_setting 'monoclinic'
loop_
_space_group_symop_operation_xyz
x,y,z
-x,y,1/2-z
-x,-y,-z
x,-y,1/2+z
1/2+x,1/2+y,z
1/2-x,1/2+y,1/2-z
1/2-x,1/2-y,-z
1/2+x,1/2-y,1/2+z
loop_
_atom_site_type_symbol
_atom_site_label
_atom_site_fract_x
_atom_site_fract_y
_atom_site_fract_z
Si Si1 0.373786 0.911517 0.074787
Si Si2 0.116165 0.817340 0.527795
Si Si3 0.088379 0.866884 0.090667
Si Si4 0.728601 0.487670 0.424369
Si Si5 0.357262 0.764313 0.632128
O O1 0.220204 0.883806 0.091498
O O2 0.182961 0.902493 0.246581
O O3 0.569600 0.840014 0.960751
O O4 0.500000 0.000000 0.000000
O O5 0.250000 0.750000 0.500000
O O6 0.160762 0.913504 0.517279
O O7 0.191542 0.804713 0.401587
O O8 0.844288 0.796593 0.700455
O O9 0.047762 0.778652 0.077209
O O10 0.240382 0.922938 0.952554
O O11 0.500000 0.500000 0.500000
O O12 0.000000 0.468050 0.250000
#
# Coordination Sequence:
#
# PCOD9306612 Si02
#       5
#     8   8   8   8   8
#     4  11  26  46  73 106 147 199 258 322 396 475
#     4  12  27  46  76 109 153 207 260 325 392 480
#     4  11  26  46  72 109 149 196 258 323 392 471
#     4  12  28  49  79 114 156 205 262 326 403 481
#     4  12  24  48  75 106 153 196 263 315 399 469
#
# _framework density 23.68242
#
# number of rings (size 3 to 8) (size 9 to 14) (size 15 to 20)
#    0.000    0.400    4.000    3.600    8.400    0.000 
#    3.600    0.000    0.000    0.000    0.000    0.000 
#    0.000    0.000    0.000    0.000    0.000    0.000 
#
# Total GULP energy -111558.826120 kJ/mol
# GULP energy per Si atom -5577.941306 kJ/mol
# Density = 2.362852 g / cm^3
# Si number density = 23.682420 Si / 1000 Ang^3
#
#
#
# Elastic Constant Matrix: (Units=GPa)
#
#
# Indices 1 2 3 4 5 6 
#
# 1 86.1673 13.7416 29.8811 -0.0123 -8.1696 0.0065
# 2 13.7416 132.1289 43.8798 0.0020 -21.6489 0.0049
# 3 29.8811 43.8798 85.3467 0.0062 3.5006 0.0037
# 4 -0.0123 0.0020 0.0062 47.5895 0.0107 2.9473
# 5 -8.1696 -21.6489 3.5006 0.0107 21.0351 -0.0073
# 6 0.0065 0.0049 0.0037 2.9473 -0.0073 38.2851
#
#
#
# Elastic Compliance Matrix: (Units=1/GPa)
#
#
# Indices 1 2 3 4 5 6 
#
# 1 0.014347 0.002097 -0.006462 0.000003 0.008805 -0.000001
# 2 0.002097 0.012318 -0.007673 -0.000002 0.014769 0.000002
# 3 -0.006462 -0.007673 0.018477 -0.000001 -0.013482 -0.000002
# 4 0.000003 -0.000002 -0.000001 0.021114 -0.000013 -0.001625
# 5 0.008805 0.014769 -0.013482 -0.000013 0.068403 0.000012
# 6 -0.000001 0.000002 -0.000002 -0.001625 0.000012 0.026245
#
#
# Mechanical properties :
#
#
# Convention : Reuss Voigt Hill
#
# Bulk Modulus (GPa) = 47.47141 53.18309 50.32725
# Shear Modulus (GPa) = 26.04117 35.79130 30.91623
#
# Velocity S-wave (km/s) = 3.31962 3.89176 3.61702
# Velocity P-wave (km/s) = 5.89760 6.53452 6.22421
#
# Compressibility (1/GPa) = 0.02106531
#
# Stress axis : x y z
#
# Youngs Moduli (GPa) = 69.70232 81.17893 54.11995
#
# Poissons Ratio (x) = -0.17021 0.34973
# Poissons Ratio (y) = -0.14614 0.41528
# Poissons Ratio (z) = 0.45043 0.62291
#
# Static dielectric constant tensor:
#      x y z
#    x 0.888340 0.000080 -0.555380 
#    y 0.000080 1.884010 0.000000 
#    z -0.555380 0.000000 1.757290 
# 
# From -- ./inp_files/199678.got.cif
#   From: 2010.05.17/outbox.cif.g08.bks.cpg/sg15_100_cif.got.tgz:199678.got - 2010.06.03 18:47:42.
