data_PCOD9306038
_publ_section_title
;
Structure prediction by ZEFSAII (Michael W. Deem and Ramdas Pophale) SiO2 
 PCOD9306038
Probable space group: C 2/C
;
_chemical_formula_sum "Si O2"
_cell_formula_units_Z 40
_cell_length_a 8.557973
_cell_length_b 24.747480
_cell_length_c 9.213990
_cell_angle_alpha 90.000000
_cell_angle_beta 85.377079
_cell_angle_gamma 90.000000
_cell_volume 1945.066454
_symmetry_space_group_name_H-M "C 2/C"
_symmetry_group_IT_number 15
_symmetry_cell_setting 'monoclinic'
loop_
_space_group_symop_operation_xyz
x,y,z
-x,y,1/2-z
-x,-y,-z
x,-y,1/2+z
1/2+x,1/2+y,z
1/2-x,1/2+y,1/2-z
1/2-x,1/2-y,-z
1/2+x,1/2-y,1/2+z
loop_
_atom_site_type_symbol
_atom_site_label
_atom_site_fract_x
_atom_site_fract_y
_atom_site_fract_z
Si Si1 0.854513 0.400855 0.958307
Si Si2 0.884676 0.984650 0.382154
Si Si3 0.833077 0.195640 0.557977
Si Si4 0.301763 0.698341 0.906686
Si Si5 0.291709 0.096620 0.131027
O O1 0.805841 0.385409 0.797318
O O2 0.034504 0.418240 0.937646
O O3 0.745602 0.444981 0.044003
O O4 0.825110 0.347192 0.049513
O O5 0.807019 0.041652 0.346858
O O6 0.000000 0.960963 0.250000
O O7 0.000000 0.000000 0.500000
O O8 0.750000 0.250000 0.500000
O O9 0.802304 0.200829 0.732722
O O10 0.770962 0.143521 0.471500
O O11 0.022444 0.188417 0.544872
O O12 0.250000 0.750000 0.000000
#
# Coordination Sequence:
#
# PCOD9306038 Si02
#       5
#     8   8   8   8   8
#     4  11  25  44  69  97 136 177 224 278 331 398
#     4  12  25  44  69  98 135 179 226 277 336 395
#     4  11  25  43  68  98 134 176 222 274 334 397
#     4  11  25  43  67  99 134 174 223 275 332 398
#     4  11  25  45  67  98 136 178 224 275 335 396
#
# _framework density 20.56485
#
# number of rings (size 3 to 8) (size 9 to 14) (size 15 to 20)
#    0.000    0.800    2.000    4.200    5.600    8.000 
#    0.000    0.000    0.000    0.000    0.000    0.000 
#    0.000    0.000    0.000    0.000    0.000    0.000 
#
# Total GULP energy -111599.418761 kJ/mol
# GULP energy per Si atom -5579.970938 kJ/mol
# Density = 2.051804 g / cm^3
# Si number density = 20.564850 Si / 1000 Ang^3
#
#
#
# Elastic Constant Matrix: (Units=GPa)
#
#
# Indices 1 2 3 4 5 6 
#
# 1 88.5896 9.9581 55.3010 0.0000 -12.3231 0.0000
# 2 9.9581 67.6177 17.7867 0.0000 -8.7114 0.0000
# 3 55.3010 17.7867 104.9186 0.0000 -13.5238 0.0000
# 4 0.0000 0.0000 0.0000 32.9981 0.0000 -5.5156
# 5 -12.3231 -8.7114 -13.5238 0.0000 38.8596 0.0000
# 6 0.0000 0.0000 0.0000 -5.5156 0.0000 34.9993
#
#
#
# Elastic Compliance Matrix: (Units=1/GPa)
#
#
# Indices 1 2 3 4 5 6 
#
# 1 0.017032 0.000085 -0.008683 0.000000 0.002398 0.000000
# 2 0.000085 0.015750 -0.002362 0.000000 0.002736 0.000000
# 3 -0.008683 -0.002362 0.014746 0.000000 0.001849 0.000000
# 4 0.000000 0.000000 0.000000 0.031125 0.000000 0.004905
# 5 0.002398 0.002736 0.001849 0.000000 0.027751 0.000000
# 6 0.000000 0.000000 0.000000 0.004905 0.000000 0.029345
#
#
# Mechanical properties :
#
#
# Convention : Reuss Voigt Hill
#
# Bulk Modulus (GPa) = 39.04910 47.46859 43.25885
# Shear Modulus (GPa) = 30.08317 33.24342 31.66330
#
# Velocity S-wave (km/s) = 3.82886 4.02495 3.92813
# Velocity P-wave (km/s) = 6.21099 6.68826 6.45404
#
# Compressibility (1/GPa) = 0.02560878
#
# Stress axis : x y z
#
# Youngs Moduli (GPa) = 58.71266 63.49067 67.81310
#
# Poissons Ratio (x) = -0.00537 0.58879
# Poissons Ratio (y) = -0.00497 0.16018
# Poissons Ratio (z) = 0.50977 0.14997
#
# Static dielectric constant tensor:
#      x y z
#    x 1.734700 0.000000 -0.015130 
#    y 0.000000 1.598440 0.000000 
#    z -0.015130 0.000000 1.723450 
# 
# From -- ./inp_files/23447.got.cif
#   From: 2010.05.17/outbox.cif.g08.bks.cpg/sg15_12_cif.got.tgz:23447.got - 2010.06.03 18:47:42.
