data_PCOD9306581
_publ_section_title
;
Structure prediction by ZEFSAII (Michael W. Deem and Ramdas Pophale) SiO2 
 PCOD9306581
Probable space group: C 2/C
;
_chemical_formula_sum "Si O2"
_cell_formula_units_Z 48
_cell_length_a 28.224854
_cell_length_b 11.501517
_cell_length_c 15.471479
_cell_angle_alpha 90.000000
_cell_angle_beta 24.194806
_cell_angle_gamma 90.000000
_cell_volume 2058.417056
_symmetry_space_group_name_H-M "C 2/C"
_symmetry_group_IT_number 15
_symmetry_cell_setting 'monoclinic'
loop_
_space_group_symop_operation_xyz
x,y,z
-x,y,1/2-z
-x,-y,-z
x,-y,1/2+z
1/2+x,1/2+y,z
1/2-x,1/2+y,1/2-z
1/2-x,1/2-y,-z
1/2+x,1/2-y,1/2+z
loop_
_atom_site_type_symbol
_atom_site_label
_atom_site_fract_x
_atom_site_fract_y
_atom_site_fract_z
Si Si1 0.449609 0.696277 0.930495
Si Si2 0.773084 0.198829 0.620022
Si Si3 0.356893 0.448830 0.120022
Si Si4 0.130104 0.446276 0.069505
Si Si5 0.865019 0.497211 0.742589
Si Si6 0.142393 0.747211 0.242589
O O1 0.500000 0.706695 0.750000
O O2 0.531543 0.756947 0.864502
O O3 0.323842 0.753232 0.151741
O O4 0.437449 0.561441 0.979541
O O5 0.865288 0.125000 0.519424
O O6 0.833009 0.311441 0.479542
O O7 0.707151 0.107883 0.668459
O O8 0.225582 0.496769 0.348259
O O9 0.374389 0.357884 0.168460
O O10 0.146045 0.506948 0.135499
O O11 0.000000 0.456693 0.250000
O O12 0.833240 0.375000 0.750000
O O13 0.000000 0.500000 0.500000
O O14 0.250000 0.750000 0.000000
#
# Coordination Sequence:
#
# PCOD9306581 Si02
#       6
#     8   8   8   8   8   8
#     4  11  26  46  70 100 139 181 228 281 338 407
#     4  11  26  45  70 100 136 181 231 281 339 402
#     4  11  26  45  70 100 136 181 231 281 339 402
#     4  11  26  46  70 100 139 181 228 281 338 407
#     4  12  25  45  72 100 137 181 228 281 339 407
#     4  12  25  45  72 100 137 181 228 281 339 407
#
# _framework density 23.31889
#
# number of rings (size 3 to 8) (size 9 to 14) (size 15 to 20)
#    0.000    0.667    3.333    3.000    9.333    0.667 
#    0.000    0.000    0.000    0.000    0.000    0.000 
#    0.000    0.000    0.000    0.000    0.000    0.000 
#
# Total GULP energy -134249.199901 kJ/mol
# GULP energy per Si atom -5593.716663 kJ/mol
# Density = 2.326581 g / cm^3
# Si number density = 23.318890 Si / 1000 Ang^3
#
#
#
# Elastic Constant Matrix: (Units=GPa)
#
#
# Indices 1 2 3 4 5 6 
#
# 1 93.0442 43.0823 13.5638 0.0000 1.3331 0.0000
# 2 43.0823 168.2905 5.2142 0.0000 1.4239 0.0000
# 3 13.5638 5.2142 50.6159 0.0000 0.2630 0.0000
# 4 0.0000 0.0000 0.0000 34.5847 0.0000 0.2082
# 5 1.3331 1.4239 0.2630 0.0000 22.0631 0.0000
# 6 0.0000 0.0000 0.0000 0.2082 0.0000 40.1218
#
#
#
# Elastic Compliance Matrix: (Units=1/GPa)
#
#
# Indices 1 2 3 4 5 6 
#
# 1 0.012656 -0.003141 -0.003065 0.000000 -0.000525 0.000000
# 2 -0.003141 0.006744 0.000148 0.000000 -0.000247 0.000000
# 3 -0.003065 0.000148 0.020563 0.000000 -0.000070 0.000000
# 4 0.000000 0.000000 0.000000 0.028915 0.000000 -0.000150
# 5 -0.000525 -0.000247 -0.000070 0.000000 0.045373 0.000000
# 6 0.000000 0.000000 0.000000 -0.000150 0.000000 0.024925
#
#
# Mechanical properties :
#
#
# Convention : Reuss Voigt Hill
#
# Bulk Modulus (GPa) = 35.90971 48.40788 42.15880
# Shear Modulus (GPa) = 31.13825 36.02658 33.58242
#
# Velocity S-wave (km/s) = 3.65817 3.93485 3.79903
# Velocity P-wave (km/s) = 5.76852 6.43803 6.11245
#
# Compressibility (1/GPa) = 0.02784762
#
# Stress axis : x y z
#
# Youngs Moduli (GPa) = 79.01309 148.28906 48.63064
#
# Poissons Ratio (x) = 0.46571 0.14907
# Poissons Ratio (y) = 0.24814 -0.00721
# Poissons Ratio (z) = 0.24220 -0.02197
#
# Static dielectric constant tensor:
#      x y z
#    x 1.890840 0.000000 0.000880 
#    y 0.000000 1.977500 0.000000 
#    z 0.000880 0.000000 1.867380 
# 
# From -- ./inp_files/177739.got.cif
#   From: 2010.05.17/outbox.cif.g08.bks.cpg/sg15_89_cif.got.tgz:177739.got - 2010.06.03 18:47:42.
