data_PCOD9306773
_publ_section_title
;
Structure prediction by ZEFSAII (Michael W. Deem and Ramdas Pophale) SiO2 
 PCOD9306773
Probable space group: C 2/C
;
_chemical_formula_sum "Si O2"
_cell_formula_units_Z 28
_cell_length_a 12.861049
_cell_length_b 4.864160
_cell_length_c 17.057522
_cell_angle_alpha 90.000000
_cell_angle_beta 59.741689
_cell_angle_gamma 90.000000
_cell_volume 921.710407
_symmetry_space_group_name_H-M "C 2/C"
_symmetry_group_IT_number 15
_symmetry_cell_setting 'monoclinic'
loop_
_space_group_symop_operation_xyz
x,y,z
-x,y,1/2-z
-x,-y,-z
x,-y,1/2+z
1/2+x,1/2+y,z
1/2-x,1/2+y,1/2-z
1/2-x,1/2-y,-z
1/2+x,1/2-y,1/2+z
loop_
_atom_site_type_symbol
_atom_site_label
_atom_site_fract_x
_atom_site_fract_y
_atom_site_fract_z
Si Si1 0.000000 0.000000 0.000000
Si Si2 0.613623 0.730421 0.841388
Si Si3 0.375259 0.006929 0.954149
Si Si4 0.233923 0.762046 0.145788
O O1 0.980411 0.270931 0.933828
O O2 0.853421 0.023992 0.112703
O O3 0.620205 0.676248 0.749248
O O4 0.684782 0.005824 0.827802
O O5 0.562593 0.721693 0.037256
O O6 0.343919 0.980540 0.876936
O O7 0.266747 0.936607 0.052905
#
# Coordination Sequence:
#
# PCOD9306773 Si02
#       4
#     4   8   8   8
#     4  12  26  48  84 112 172 206 280 350 418 486
#     4  12  25  50  78 118 161 220 273 351 411 517
#     4  11  26  54  76 122 164 222 272 361 418 512
#     4  11  26  50  84 115 168 219 287 338 442 494
#
# _framework density 30.378308000000001
#
# number of rings (size 3 to 8) (size 9 to 14) (size 15 to 20)
#    0.000    0.571    2.857    3.429    4.000    1.143 
#   10.286    1.429    6.286    0.000    0.000    0.000 
#    0.000    0.000    0.000    0.000    0.000    0.000 
#
# Total GULP energy -77951.236810 kJ/mol
# GULP energy per Si atom -5567.945486 kJ/mol
# Density = 3.030917 g / cm^3
# Si number density = 30.378308 Si / 1000 Ang^3
#
#
#
# Elastic Constant Matrix: (Units=GPa)
#
#
# Indices 1 2 3 4 5 6 
#
# 1 199.3240 83.8590 84.5569 0.0011 9.2475 0.0027
# 2 83.8590 246.3280 29.1039 0.0052 -0.7827 0.0111
# 3 84.5569 29.1039 255.5768 -0.0005 -25.3515 0.0016
# 4 0.0011 0.0052 -0.0005 26.1335 -0.0004 -0.6396
# 5 9.2475 -0.7827 -25.3515 -0.0004 24.2870 0.0009
# 6 0.0027 0.0111 0.0016 -0.6396 0.0009 55.0564
#
#
#
# Elastic Compliance Matrix: (Units=1/GPa)
#
#
# Indices 1 2 3 4 5 6 
#
# 1 0.007385 -0.002206 -0.002764 0.000000 -0.005769 0.000000
# 2 -0.002206 0.004777 0.000317 -0.000001 0.001325 -0.000001
# 3 -0.002764 0.000317 0.005462 0.000000 0.006764 0.000000
# 4 0.000000 -0.000001 0.000000 0.038276 0.000001 0.000445
# 5 -0.005769 0.001325 0.006764 0.000001 0.050474 -0.000001
# 6 0.000000 -0.000001 0.000000 0.000445 -0.000001 0.018168
#
#
# Mechanical properties :
#
#
# Convention : Reuss Voigt Hill
#
# Bulk Modulus (GPa) = 120.21261 121.80760 121.01010
# Shear Modulus (GPa) = 36.59708 54.67599 45.63653
#
# Velocity S-wave (km/s) = 3.47466 4.24705 3.88012
# Velocity P-wave (km/s) = 7.46696 8.01460 7.74562
#
# Compressibility (1/GPa) = 0.00831860
#
# Stress axis : x y z
#
# Youngs Moduli (GPa) = 135.40172 209.32118 183.07662
#
# Poissons Ratio (x) = 0.46176 0.50611
# Poissons Ratio (y) = 0.29869 -0.05808
# Poissons Ratio (z) = 0.37431 -0.06641
#
# Static dielectric constant tensor:
#      x y z
#    x 2.968580 0.000000 -0.456070 
#    y 0.000000 2.686980 0.000000 
#    z -0.456070 0.000000 2.637930 
# 
# From -- ./inp_files/158002.got.cif
#   From: 2010.05.17/outbox.cif.g08.bks.cpg/sg15_80_cif.got.tgz:158002.got - 2010.06.03 18:47:42.
