data_PCOD9306340
_publ_section_title
;
Structure prediction by ZEFSAII (Michael W. Deem and Ramdas Pophale) SiO2 
 PCOD9306340
Probable space group: C 2/C
;
_chemical_formula_sum "Si O2"
_cell_formula_units_Z 56
_cell_length_a 8.690519
_cell_length_b 17.985658
_cell_length_c 19.254810
_cell_angle_alpha 90.000000
_cell_angle_beta 123.266274
_cell_angle_gamma 90.000000
_cell_volume 2516.432522
_symmetry_space_group_name_H-M "C 2/C"
_symmetry_group_IT_number 15
_symmetry_cell_setting 'monoclinic'
loop_
_space_group_symop_operation_xyz
x,y,z
-x,y,1/2-z
-x,-y,-z
x,-y,1/2+z
1/2+x,1/2+y,z
1/2-x,1/2+y,1/2-z
1/2-x,1/2-y,-z
1/2+x,1/2-y,1/2+z
loop_
_atom_site_type_symbol
_atom_site_label
_atom_site_fract_x
_atom_site_fract_y
_atom_site_fract_z
Si Si1 0.283965 0.998200 0.515550
Si Si2 0.912941 0.272491 0.836768
Si Si3 0.138254 0.417553 0.832040
Si Si4 0.948781 0.741927 0.511440
Si Si5 0.000000 0.147194 0.750000
Si Si6 0.000000 0.193029 0.250000
Si Si7 0.849913 0.591446 0.899476
Si Si8 0.993874 0.121028 0.108556
O O1 0.489729 0.031635 0.574065
O O2 0.146870 0.063063 0.458901
O O3 0.255501 0.960577 0.581779
O O4 0.271975 0.935502 0.453989
O O5 0.945215 0.264089 0.927460
O O6 0.991811 0.202475 0.813901
O O7 0.689194 0.268474 0.770124
O O8 0.021475 0.346691 0.834366
O O9 0.303734 0.403095 0.820238
O O10 0.000000 0.463715 0.750000
O O11 0.750000 0.750000 0.500000
O O12 0.050598 0.670391 0.567058
O O13 0.040035 0.816610 0.562419
O O14 0.816346 0.098546 0.695524
O O15 0.917643 0.150192 0.162896
#
# Coordination Sequence:
#
# PCOD9306340 Si02
#       8
#     8   8   8   8   4   4   8   8
#     4  11  26  47  71 100 145 197 240 291 369 447
#     4  12  24  44  74 108 142 188 236 303 362 429
#     4  12  25  46  70 104 143 185 237 296 361 432
#     4  12  23  44  74 103 136 190 242 302 354 428
#     4  12  28  45  72 110 145 180 242 306 360 422
#     4  12  22  41  72 106 143 184 238 294 354 444
#     4  11  25  47  70 103 146 189 241 300 370 433
#     4  12  26  44  76 105 139 189 249 293 364 433
#
# _framework density 22.253727999999999
#
# number of rings (size 3 to 8) (size 9 to 14) (size 15 to 20)
#    0.000    0.286    6.429    2.143    4.000    2.857 
#    2.571    0.000    0.000    0.000    0.000    0.000 
#    0.000    0.000    0.000    0.000    0.000    0.000 
#
# Total GULP energy -156223.633573 kJ/mol
# GULP energy per Si atom -5579.415485 kJ/mol
# Density = 2.220308 g / cm^3
# Si number density = 22.253728 Si / 1000 Ang^3
#
#
#
# Elastic Constant Matrix: (Units=GPa)
#
#
# Indices 1 2 3 4 5 6 
#
# 1 61.2132 -3.5735 11.4024 0.0000 2.6895 0.0000
# 2 -3.5735 54.1916 18.1047 0.0000 2.4323 0.0000
# 3 11.4024 18.1047 93.1038 0.0000 3.5792 0.0000
# 4 0.0000 0.0000 0.0000 22.6061 0.0000 0.0484
# 5 2.6895 2.4323 3.5792 0.0000 42.7514 0.0000
# 6 0.0000 0.0000 0.0000 0.0484 0.0000 4.7529
#
#
#
# Elastic Compliance Matrix: (Units=1/GPa)
#
#
# Indices 1 2 3 4 5 6 
#
# 1 0.016945 0.001970 -0.002421 0.000000 -0.000975 0.000000
# 2 0.001970 0.019992 -0.004093 0.000000 -0.000919 0.000000
# 3 -0.002421 -0.004093 0.011857 0.000000 -0.000607 0.000000
# 4 0.000000 0.000000 0.000000 0.044237 0.000000 -0.000450
# 5 -0.000975 -0.000919 -0.000607 0.000000 0.023556 0.000000
# 6 0.000000 0.000000 0.000000 -0.000450 0.000000 0.210404
#
#
# Mechanical properties :
#
#
# Convention : Reuss Voigt Hill
#
# Bulk Modulus (GPa) = 25.18595 28.93064 27.05830
# Shear Modulus (GPa) = 14.31380 26.19374 20.25377
#
# Velocity S-wave (km/s) = 2.53891 3.43454 3.02011
# Velocity P-wave (km/s) = 4.46508 5.36252 4.93425
#
# Compressibility (1/GPa) = 0.03970468
#
# Stress axis : x y z
#
# Youngs Moduli (GPa) = 59.01392 50.02065 84.34166
#
# Poissons Ratio (x) = -0.09854 0.20418
# Poissons Ratio (y) = -0.11625 0.34525
# Poissons Ratio (z) = 0.14286 0.20476
#
# Static dielectric constant tensor:
#      x y z
#    x 1.884410 0.000000 0.021260 
#    y 0.000000 1.915640 0.000000 
#    z 0.021260 0.000000 1.851660 
# 
# From -- ./inp_files/192275.got.cif
#   From: 2010.05.17/outbox.cif.g08.bks.cpg/sg15_97_cif.got.tgz:192275.got - 2010.06.03 18:47:42.
