data_PCOD9306888
_publ_section_title
;
Structure prediction by ZEFSAII (Michael W. Deem and Ramdas Pophale) SiO2 
 PCOD9306888
Probable space group: C 2/C
;
_chemical_formula_sum "Si O2"
_cell_formula_units_Z 52
_cell_length_a 25.886061
_cell_length_b 9.466999
_cell_length_c 11.667365
_cell_angle_alpha 90.000000
_cell_angle_beta 53.617206
_cell_angle_gamma 90.000000
_cell_volume 2301.896485
_symmetry_space_group_name_H-M "C 2/C"
_symmetry_group_IT_number 15
_symmetry_cell_setting 'monoclinic'
loop_
_space_group_symop_operation_xyz
x,y,z
-x,y,1/2-z
-x,-y,-z
x,-y,1/2+z
1/2+x,1/2+y,z
1/2-x,1/2+y,1/2-z
1/2-x,1/2-y,-z
1/2+x,1/2-y,1/2+z
loop_
_atom_site_type_symbol
_atom_site_label
_atom_site_fract_x
_atom_site_fract_y
_atom_site_fract_z
Si Si1 0.178999 0.777874 0.208583
Si Si2 0.500000 0.000000 0.500000
Si Si3 0.863070 0.701386 0.989363
Si Si4 0.183912 0.397966 0.481868
Si Si5 0.500000 0.065810 0.750000
Si Si6 0.877835 0.068163 0.295203
Si Si7 0.578432 0.742771 0.470009
Si Si8 0.500000 0.448887 0.250000
O O1 0.139825 0.744805 0.374165
O O2 0.251483 0.820927 0.144506
O O3 0.152631 0.914194 0.176665
O O4 0.177096 0.647550 0.123412
O O5 0.513060 0.026731 0.345339
O O6 0.537299 0.847117 0.444405
O O7 0.935521 0.651320 0.866166
O O8 0.844792 0.829824 0.930856
O O9 0.817656 0.565969 0.030203
O O10 0.125481 0.338293 0.484397
O O11 0.881242 0.142300 0.167777
O O12 0.949238 0.042551 0.248357
O O13 0.536850 0.646367 0.608940
#
# Coordination Sequence:
#
# PCOD9306888 Si02
#       8
#     8   4   8   8   4   8   8   4
#     4  11  29  52  77 108 161 200 267 328 382 474
#     4  12  26  44  72 114 160 190 272 320 396 480
#     4  12  28  48  80 111 156 201 263 322 390 478
#     4  11  28  52  76 114 146 210 268 318 394 464
#     4  12  26  44  74 122 153 207 258 328 399 475
#     4  12  27  46  73 114 149 201 249 317 395 467
#     4  12  26  44  75 106 153 200 252 318 388 465
#     4  12  26  44  70 106 155 201 246 308 401 459
#
# _framework density 22.590069
#
# number of rings (size 3 to 8) (size 9 to 14) (size 15 to 20)
#    0.000    0.308    4.615    2.308    8.615    1.846 
#    0.000    0.000    0.000    0.000    0.000    0.000 
#    0.000    0.000    0.000    0.000    0.000    0.000 
#
# Total GULP energy -145161.661913 kJ/mol
# GULP energy per Si atom -5583.140843 kJ/mol
# Density = 2.253865 g / cm^3
# Si number density = 22.590069 Si / 1000 Ang^3
#
#
#
# Elastic Constant Matrix: (Units=GPa)
#
#
# Indices 1 2 3 4 5 6 
#
# 1 51.5780 23.5205 11.1911 0.0000 7.6952 0.0000
# 2 23.5205 80.1087 -4.7777 0.0000 7.3688 0.0000
# 3 11.1911 -4.7777 97.6588 0.0000 16.2321 0.0000
# 4 0.0000 0.0000 0.0000 33.3433 0.0000 11.7483
# 5 7.6952 7.3688 16.2321 0.0000 18.9940 0.0000
# 6 0.0000 0.0000 0.0000 11.7483 0.0000 24.7661
#
#
#
# Elastic Compliance Matrix: (Units=1/GPa)
#
#
# Indices 1 2 3 4 5 6 
#
# 1 0.023637 -0.006595 -0.002174 0.000000 -0.005160 0.000000
# 2 -0.006595 0.015035 0.002351 0.000000 -0.005170 0.000000
# 3 -0.002174 0.002351 0.012365 0.000000 -0.010599 0.000000
# 4 0.000000 0.000000 0.000000 0.036010 0.000000 -0.017082
# 5 -0.005160 -0.005170 -0.010599 0.000000 0.065802 0.000000
# 6 0.000000 0.000000 0.000000 -0.017082 0.000000 0.048481
#
#
# Mechanical properties :
#
#
# Convention : Reuss Voigt Hill
#
# Bulk Modulus (GPa) = 26.17695 32.13480 29.15588
# Shear Modulus (GPa) = 22.03613 28.71479 25.37546
#
# Velocity S-wave (km/s) = 3.12665 3.56915 3.35521
# Velocity P-wave (km/s) = 4.96463 5.58938 5.28625
#
# Compressibility (1/GPa) = 0.03820155
#
# Stress axis : x y z
#
# Youngs Moduli (GPa) = 42.30648 66.51105 80.87057
#
# Poissons Ratio (x) = 0.43864 0.17578
# Poissons Ratio (y) = 0.27901 -0.19009
# Poissons Ratio (z) = 0.09196 -0.15634
#
# Static dielectric constant tensor:
#      x y z
#    x 1.928030 0.000000 0.036660 
#    y 0.000000 1.838150 0.000000 
#    z 0.036660 0.000000 1.899370 
# 
# From -- ./inp_files/121601.got.cif
#   From: 2010.05.17/outbox.cif.g08.bks.cpg/sg15_61_cif.got.tgz:121601.got - 2010.06.03 18:47:42.
