data_PCOD9306720
_publ_section_title
;
Structure prediction by ZEFSAII (Michael W. Deem and Ramdas Pophale) SiO2 
 PCOD9306720
Probable space group: C 2/C
;
_chemical_formula_sum "Si O2"
_cell_formula_units_Z 24
_cell_length_a 12.081224
_cell_length_b 10.275444
_cell_length_c 20.524223
_cell_angle_alpha 90.000000
_cell_angle_beta 159.053352
_cell_angle_gamma 90.000000
_cell_volume 910.861720
_symmetry_space_group_name_H-M "C 2/C"
_symmetry_group_IT_number 15
_symmetry_cell_setting 'monoclinic'
loop_
_space_group_symop_operation_xyz
x,y,z
-x,y,1/2-z
-x,-y,-z
x,-y,1/2+z
1/2+x,1/2+y,z
1/2-x,1/2+y,1/2-z
1/2-x,1/2-y,-z
1/2+x,1/2-y,1/2+z
loop_
_atom_site_type_symbol
_atom_site_label
_atom_site_fract_x
_atom_site_fract_y
_atom_site_fract_z
Si Si1 0.382542 0.987947 0.834033
Si Si2 0.788027 0.907139 0.948250
Si Si3 0.159856 0.303646 0.572312
O O1 0.082015 0.003595 0.624233
O O2 0.633793 0.898539 0.935429
O O3 0.279132 0.921624 0.843963
O O4 0.517799 0.129710 0.929260
O O5 0.500000 0.961982 0.750000
O O6 0.918123 0.787488 0.977454
O O7 0.500000 0.243623 0.750000
#
# Coordination Sequence:
#
# PCOD9306720 Si02
#       3
#     8   8   8
#     4  11  26  51  75 115 161 193 259 316 376 457
#     4  12  28  47  80 115 152 204 254 314 382 451
#     4  11  26  48  82 111 152 210 247 315 388 443
#
# _framework density 26.348675
#
# number of rings (size 3 to 8) (size 9 to 14) (size 15 to 20)
#    0.000    0.667    3.333    2.000    9.333    5.333 
#    0.000    0.000    0.000    0.000    0.000    0.000 
#    0.000    0.000    0.000    0.000    0.000    0.000 
#
# Total GULP energy -67132.810046 kJ/mol
# GULP energy per Si atom -5594.400837 kJ/mol
# Density = 2.628870 g / cm^3
# Si number density = 26.348675 Si / 1000 Ang^3
#
#
#
# Elastic Constant Matrix: (Units=GPa)
#
#
# Indices 1 2 3 4 5 6 
#
# 1 130.7180 35.3417 64.3300 0.0537 19.8717 0.0190
# 2 35.3417 94.6772 65.6085 0.0421 -5.2218 0.0109
# 3 64.3300 65.6085 192.6957 0.0860 14.0734 0.0166
# 4 0.0537 0.0421 0.0860 -435.9258 0.0855 -162.5773
# 5 19.8717 -5.2218 14.0734 0.0855 46.4307 0.0302
# 6 0.0190 0.0109 0.0166 -162.5773 0.0302 -0.1826
#
#
#
# Elastic Compliance Matrix: (Units=1/GPa)
#
#
# Indices 1 2 3 4 5 6 
#
# 1 0.009985 -0.002390 -0.002237 0.000000 -0.003864 -0.000001
# 2 -0.002390 0.014831 -0.004549 0.000001 0.004070 0.000000
# 3 -0.002237 -0.004549 0.007621 0.000000 -0.001864 0.000001
# 4 0.000000 0.000001 0.000000 0.000007 0.000004 -0.006170
# 5 -0.003864 0.004070 -0.001864 0.000004 0.024214 0.000000
# 6 -0.000001 0.000000 0.000001 -0.006170 0.000000 0.016543
#
#
# Mechanical properties :
#
#
# Convention : Reuss Voigt Hill
#
# Bulk Modulus (GPa) = 70.99908 83.18346 77.09127
# Shear Modulus (GPa) = 51.94908 -61.08152 -4.56622
#
# Velocity S-wave (km/s) = 4.44509 -4.81999 -1.31786
# Velocity P-wave (km/s) = 7.30408 0.81385 5.19673
#
# Compressibility (1/GPa) = 0.01408469
#
# Stress axis : x y z
#
# Youngs Moduli (GPa) = 100.15359 67.42588 131.20813
#
# Poissons Ratio (x) = 0.16113 0.29357
# Poissons Ratio (y) = 0.23934 0.59687
# Poissons Ratio (z) = 0.22409 0.30672
#
# Static dielectric constant tensor:
#      x y z
#    x 2.099260 0.000000 -0.024620 
#    y 0.000000 2.119480 -0.000010 
#    z -0.024620 -0.000010 2.002250 
# 
# From -- ./inp_files/26940.got.cif
#   From: 2010.05.17/outbox.cif.g08.bks.cpg/sg15_14_cif.got.tgz:26940.got - 2010.06.03 18:47:42.
