data_PCOD9306436
_publ_section_title
;
Structure prediction by ZEFSAII (Michael W. Deem and Ramdas Pophale) SiO2 
 PCOD9306436
Probable space group: C 2/C
;
_chemical_formula_sum "Si O2"
_cell_formula_units_Z 64
_cell_length_a 24.894318
_cell_length_b 9.767518
_cell_length_c 14.029756
_cell_angle_alpha 90.000000
_cell_angle_beta 126.093148
_cell_angle_gamma 90.000000
_cell_volume 2756.629270
_symmetry_space_group_name_H-M "C 2/C"
_symmetry_group_IT_number 15
_symmetry_cell_setting 'monoclinic'
loop_
_space_group_symop_operation_xyz
x,y,z
-x,y,1/2-z
-x,-y,-z
x,-y,1/2+z
1/2+x,1/2+y,z
1/2-x,1/2+y,1/2-z
1/2-x,1/2-y,-z
1/2+x,1/2-y,1/2+z
loop_
_atom_site_type_symbol
_atom_site_label
_atom_site_fract_x
_atom_site_fract_y
_atom_site_fract_z
Si Si1 0.349197 0.048345 0.128393
Si Si2 0.926187 0.834960 0.942399
Si Si3 0.704134 0.708959 0.706006
Si Si4 0.573702 0.382954 0.166728
Si Si5 0.068678 0.539249 0.623306
Si Si6 0.693073 0.987548 0.624029
Si Si7 0.361052 0.644127 0.581574
Si Si8 0.770891 0.890092 0.466042
O O1 0.335935 0.206603 0.089911
O O2 0.417770 0.022092 0.256819
O O3 0.295365 0.969557 0.136685
O O4 0.333668 0.975614 0.011599
O O5 0.881952 0.840600 0.992788
O O6 0.002716 0.832636 0.057213
O O7 0.919642 0.702316 0.869175
O O8 0.914805 0.968856 0.867644
O O9 0.636193 0.705274 0.694030
O O10 0.732155 0.857185 0.706612
O O11 0.759881 0.618221 0.814869
O O12 0.688527 0.648735 0.585435
O O13 0.577041 0.384148 0.284055
O O14 0.125972 0.488359 0.613327
O O15 0.000000 0.500000 0.500000
O O16 0.312392 0.516202 0.554661
O O17 0.750000 0.750000 0.500000
#
# Coordination Sequence:
#
# PCOD9306436 Si02
#       8
#     8   8   8   8   8   8   8   8
#     4  12  26  46  73 111 144 197 256 306 377 454
#     4  11  25  48  76 105 150 198 252 309 386 448
#     4  12  26  45  72 109 157 192 249 310 383 445
#     4  11  26  45  75 111 145 197 251 311 374 465
#     4  12  27  49  76 106 151 200 254 314 380 451
#     4  12  27  44  76 108 152 197 248 311 379 450
#     4  12  25  47  77 106 154 196 252 307 386 452
#     4  12  26  45  72 109 152 196 254 309 377 445
#
# _framework density 23.216760000000001
#
# number of rings (size 3 to 8) (size 9 to 14) (size 15 to 20)
#    0.000    0.250    5.000    3.750    5.250    0.500 
#    0.000    0.000    2.750    0.000    0.000    0.000 
#    0.000    0.000    0.000    0.000    0.000    0.000 
#
# Total GULP energy -178754.570716 kJ/mol
# GULP energy per Si atom -5586.080335 kJ/mol
# Density = 2.316392 g / cm^3
# Si number density = 23.216760 Si / 1000 Ang^3
#
#
#
# Elastic Constant Matrix: (Units=GPa)
#
#
# Indices 1 2 3 4 5 6 
#
# 1 70.3434 32.8096 17.5502 0.0000 1.8597 0.0000
# 2 32.8096 156.5201 53.3322 0.0000 -2.0414 0.0000
# 3 17.5502 53.3322 109.6774 0.0000 0.8633 0.0000
# 4 0.0000 0.0000 0.0000 35.6284 0.0000 -1.1942
# 5 1.8597 -2.0414 0.8633 0.0000 29.2808 0.0000
# 6 0.0000 0.0000 0.0000 -1.1942 0.0000 25.1379
#
#
#
# Elastic Compliance Matrix: (Units=1/GPa)
#
#
# Indices 1 2 3 4 5 6 
#
# 1 0.015908 -0.002980 -0.001087 0.000000 -0.001186 0.000000
# 2 -0.002980 0.008228 -0.003531 0.000000 0.000867 0.000000
# 3 -0.001087 -0.003531 0.011013 0.000000 -0.000502 0.000000
# 4 0.000000 0.000000 0.000000 0.028112 0.000000 0.001336
# 5 -0.001186 0.000867 -0.000502 0.000000 0.034303 0.000000
# 6 0.000000 0.000000 0.000000 0.001336 0.000000 0.039844
#
#
# Mechanical properties :
#
#
# Convention : Reuss Voigt Hill
#
# Bulk Modulus (GPa) = 50.11800 60.43610 55.27705
# Shear Modulus (GPa) = 31.39619 33.53268 32.46443
#
# Velocity S-wave (km/s) = 3.68136 3.80456 3.74347
# Velocity P-wave (km/s) = 6.30109 6.73701 6.52269
#
# Compressibility (1/GPa) = 0.01995291
#
# Stress axis : x y z
#
# Youngs Moduli (GPa) = 62.85985 121.53607 90.80506
#
# Poissons Ratio (x) = 0.36214 0.09874
# Poissons Ratio (y) = 0.18730 0.32063
# Poissons Ratio (z) = 0.06835 0.42915
#
# Static dielectric constant tensor:
#      x y z
#    x 1.882830 0.000000 -0.021890 
#    y 0.000000 2.008440 0.000000 
#    z -0.021890 0.000000 1.924380 
# 
# From -- ./inp_files/181174.got.cif
#   From: 2010.05.17/outbox.cif.g08.bks.cpg/sg15_91_cif.got.tgz:181174.got - 2010.06.03 18:47:42.
