data_PCOD9306864
_publ_section_title
;
Structure prediction by ZEFSAII (Michael W. Deem and Ramdas Pophale) SiO2 
 PCOD9306864
Probable space group: C 2/C
;
_chemical_formula_sum "Si O2"
_cell_formula_units_Z 32
_cell_length_a 19.715143
_cell_length_b 5.072234
_cell_length_c 13.101692
_cell_angle_alpha 90.000000
_cell_angle_beta 60.223426
_cell_angle_gamma 90.000000
_cell_volume 1137.183630
_symmetry_space_group_name_H-M "C 2/C"
_symmetry_group_IT_number 15
_symmetry_cell_setting 'monoclinic'
loop_
_space_group_symop_operation_xyz
x,y,z
-x,y,1/2-z
-x,-y,-z
x,-y,1/2+z
1/2+x,1/2+y,z
1/2-x,1/2+y,1/2-z
1/2-x,1/2-y,-z
1/2+x,1/2-y,1/2+z
loop_
_atom_site_type_symbol
_atom_site_label
_atom_site_fract_x
_atom_site_fract_y
_atom_site_fract_z
Si Si1 0.040056 0.649851 0.816591
Si Si2 0.164732 0.848556 0.593437
Si Si3 0.743083 0.141729 0.825137
Si Si4 0.577602 0.719626 0.511279
O O1 0.124284 0.640692 0.700110
O O2 0.048896 0.805552 0.915560
O O3 0.000000 0.792029 0.750000
O O4 0.989301 0.388910 0.880274
O O5 0.250000 0.750000 0.500000
O O6 0.187766 0.098988 0.646319
O O7 0.387899 0.539224 0.459686
O O8 0.755709 0.919735 0.730926
O O9 0.657256 0.107544 0.939503
#
# Coordination Sequence:
#
# PCOD9306864 Si02
#       4
#     8   8   8   8
#     4  11  27  51  77 120 178 229 290 355 456 534
#     4  12  27  52  88 129 170 236 307 384 447 544
#     4  12  26  50  87 124 170 228 299 383 452 531
#     4  11  27  51  83 122 176 235 296 369 456 540
#
# _framework density 28.139697000000002
#
# number of rings (size 3 to 8) (size 9 to 14) (size 15 to 20)
#    0.000    0.500    2.500    3.750    3.500    2.000 
#    4.500    2.500    0.000    0.000    0.000    0.000 
#    0.000    0.000    0.000    0.000    0.000    0.000 
#
# Total GULP energy -89609.931126 kJ/mol
# GULP energy per Si atom -5600.620695 kJ/mol
# Density = 2.807565 g / cm^3
# Si number density = 28.139697 Si / 1000 Ang^3
#
#
#
# Elastic Constant Matrix: (Units=GPa)
#
#
# Indices 1 2 3 4 5 6 
#
# 1 187.2731 69.9630 77.6940 0.0002 30.6245 -0.0003
# 2 69.9630 122.7715 96.9225 0.0024 -4.0313 0.0031
# 3 77.6940 96.9225 244.3684 -0.0002 -34.9692 0.0003
# 4 0.0002 0.0024 -0.0002 52.9162 -0.0003 -2.6660
# 5 30.6245 -4.0313 -34.9692 -0.0003 78.9496 0.0002
# 6 -0.0003 0.0031 0.0003 -2.6660 0.0002 50.6356
#
#
#
# Elastic Compliance Matrix: (Units=1/GPa)
#
#
# Indices 1 2 3 4 5 6 
#
# 1 0.007974 -0.003226 -0.001838 0.000000 -0.004072 0.000000
# 2 -0.003226 0.013351 -0.004263 -0.000001 0.000045 -0.000001
# 3 -0.001838 -0.004263 0.006874 0.000000 0.003540 0.000000
# 4 0.000000 -0.000001 0.000000 0.018948 0.000000 0.000998
# 5 -0.004072 0.000045 0.003540 0.000000 0.015816 0.000000
# 6 0.000000 -0.000001 0.000000 0.000998 0.000000 0.019801
#
#
# Mechanical properties :
#
#
# Convention : Reuss Voigt Hill
#
# Bulk Modulus (GPa) = 104.78624 115.95244 110.36934
# Shear Modulus (GPa) = 47.80109 57.15584 52.47847
#
# Velocity S-wave (km/s) = 4.12601 4.51171 4.32316
# Velocity P-wave (km/s) = 7.74708 8.27262 8.01416
#
# Compressibility (1/GPa) = 0.00954324
#
# Stress axis : x y z
#
# Youngs Moduli (GPa) = 125.41378 74.90210 145.47654
#
# Poissons Ratio (x) = 0.24167 0.26740
# Poissons Ratio (y) = 0.40464 0.62016
# Poissons Ratio (z) = 0.23052 0.31931
#
# Static dielectric constant tensor:
#      x y z
#    x 2.353430 0.000000 -0.087760 
#    y 0.000000 2.231750 0.000000 
#    z -0.087760 0.000000 2.267700 
# 
# From -- ./inp_files/164976.got.cif
#   From: 2010.05.17/outbox.cif.g08.bks.cpg/sg15_83_cif.got.tgz:164976.got - 2010.06.03 18:47:42.
