data_PCOD9306840
_publ_section_title
;
Structure prediction by ZEFSAII (Michael W. Deem and Ramdas Pophale) SiO2 
 PCOD9306840
Probable space group: C 2/C
;
_chemical_formula_sum "Si O2"
_cell_formula_units_Z 48
_cell_length_a 26.999044
_cell_length_b 6.891335
_cell_length_c 14.654143
_cell_angle_alpha 90.000000
_cell_angle_beta 53.977549
_cell_angle_gamma 90.000000
_cell_volume 2205.190576
_symmetry_space_group_name_H-M "C 2/C"
_symmetry_group_IT_number 15
_symmetry_cell_setting 'monoclinic'
loop_
_space_group_symop_operation_xyz
x,y,z
-x,y,1/2-z
-x,-y,-z
x,-y,1/2+z
1/2+x,1/2+y,z
1/2-x,1/2+y,1/2-z
1/2-x,1/2-y,-z
1/2+x,1/2-y,1/2+z
loop_
_atom_site_type_symbol
_atom_site_label
_atom_site_fract_x
_atom_site_fract_y
_atom_site_fract_z
Si Si1 0.754359 0.738836 0.356733
Si Si2 0.381371 0.458256 0.248683
Si Si3 0.803699 0.123675 0.488095
Si Si4 0.516158 0.869896 0.838711
Si Si5 0.082021 0.333929 0.397543
Si Si6 0.313505 0.913805 0.628661
O O1 0.731105 0.572255 0.446954
O O2 0.708233 0.915854 0.413828
O O3 0.756092 0.649208 0.253038
O O4 0.822078 0.825221 0.292996
O O5 0.359206 0.578619 0.360742
O O6 0.437117 0.311446 0.204564
O O7 0.396105 0.621244 0.157045
O O8 0.750000 0.250000 0.500000
O O9 0.829735 0.231726 0.549130
O O10 0.500000 0.900698 0.750000
O O11 0.545332 0.061392 0.854809
O O12 0.458812 0.822277 0.966765
O O13 0.136254 0.484147 0.363025
#
# Coordination Sequence:
#
# PCOD9306840 Si02
#       6
#     8   8   8   8   8   8
#     4  12  24  43  68 107 145 189 230 291 366 443
#     4  12  26  46  73 103 152 186 244 305 365 437
#     4  12  27  41  69 110 146 190 238 290 367 448
#     4  11  28  50  76 104 142 195 253 309 364 432
#     4  11  27  49  75 105 147 190 252 307 366 434
#     4  12  24  42  73 101 149 191 232 296 365 437
#
# _framework density 21.766826999999999
#
# number of rings (size 3 to 8) (size 9 to 14) (size 15 to 20)
#    0.000    0.333    5.000    3.000    4.667    0.667 
#    3.000    0.000    0.000    0.000    0.000    0.000 
#    0.000    0.000    0.000    0.000    0.000    0.000 
#
# Total GULP energy -134216.393801 kJ/mol
# GULP energy per Si atom -5592.349742 kJ/mol
# Density = 2.171728 g / cm^3
# Si number density = 21.766827 Si / 1000 Ang^3
#
#
#
# Elastic Constant Matrix: (Units=GPa)
#
#
# Indices 1 2 3 4 5 6 
#
# 1 72.5175 36.8413 30.4635 -0.0001 11.0490 -0.0001
# 2 36.8413 104.2875 53.6380 -0.0002 2.5513 -0.0004
# 3 30.4635 53.6380 128.9929 0.0000 6.9379 -0.0001
# 4 -0.0001 -0.0002 0.0000 56.2769 0.0000 4.8499
# 5 11.0490 2.5513 6.9379 0.0000 31.9854 0.0000
# 6 -0.0001 -0.0004 -0.0001 4.8499 0.0000 28.4666
#
#
#
# Elastic Compliance Matrix: (Units=1/GPa)
#
#
# Indices 1 2 3 4 5 6 
#
# 1 0.018072 -0.005351 -0.001751 0.000000 -0.005436 0.000000
# 2 -0.005351 0.013782 -0.004561 0.000000 0.001738 0.000000
# 3 -0.001751 -0.004561 0.010128 0.000000 -0.001228 0.000000
# 4 0.000000 0.000000 0.000000 0.018034 0.000000 -0.003072
# 5 -0.005436 0.001738 -0.001228 0.000000 0.033270 0.000000
# 6 0.000000 0.000000 0.000000 -0.003072 0.000000 0.035652
#
#
# Mechanical properties :
#
#
# Convention : Reuss Voigt Hill
#
# Bulk Modulus (GPa) = 53.59586 60.85370 57.22478
# Shear Modulus (GPa) = 31.54920 35.66946 33.60933
#
# Velocity S-wave (km/s) = 3.81125 4.05249 3.93372
# Velocity P-wave (km/s) = 6.63654 7.06503 6.85413
#
# Compressibility (1/GPa) = 0.01865816
#
# Stress axis : x y z
#
# Youngs Moduli (GPa) = 55.33478 72.55641 98.73283
#
# Poissons Ratio (x) = 0.38824 0.17284
# Poissons Ratio (y) = 0.29609 0.45030
# Poissons Ratio (z) = 0.09687 0.33092
#
# Static dielectric constant tensor:
#      x y z
#    x 1.846480 0.000000 0.059060 
#    y 0.000000 1.791360 0.000000 
#    z 0.059060 0.000000 1.794500 
# 
# From -- ./inp_files/179956.got.cif
#   From: 2010.05.17/outbox.cif.g08.bks.cpg/sg15_90_cif.got.tgz:179956.got - 2010.06.03 18:47:42.
