data_PCOD9306311
_publ_section_title
;
Structure prediction by ZEFSAII (Michael W. Deem and Ramdas Pophale) SiO2 
 PCOD9306311
Probable space group: C 2/C
;
_chemical_formula_sum "Si O2"
_cell_formula_units_Z 48
_cell_length_a 13.838627
_cell_length_b 11.535662
_cell_length_c 15.445376
_cell_angle_alpha 90.000000
_cell_angle_beta 49.244207
_cell_angle_gamma 90.000000
_cell_volume 1867.738474
_symmetry_space_group_name_H-M "C 2/C"
_symmetry_group_IT_number 15
_symmetry_cell_setting 'monoclinic'
loop_
_space_group_symop_operation_xyz
x,y,z
-x,y,1/2-z
-x,-y,-z
x,-y,1/2+z
1/2+x,1/2+y,z
1/2-x,1/2+y,1/2-z
1/2-x,1/2-y,-z
1/2+x,1/2-y,1/2+z
loop_
_atom_site_type_symbol
_atom_site_label
_atom_site_fract_x
_atom_site_fract_y
_atom_site_fract_z
Si Si1 0.184485 0.522923 0.737785
Si Si2 0.241971 0.736576 0.266739
Si Si3 0.920492 0.481827 0.958206
Si Si4 0.461822 0.261692 0.374612
Si Si5 0.687269 0.344736 0.597033
Si Si6 0.897517 0.004219 0.483086
O O1 0.238890 0.392321 0.725858
O O2 0.215251 0.631978 0.784300
O O3 0.264438 0.544114 0.603916
O O4 0.031945 0.516985 0.824911
O O5 0.089797 0.756341 0.358877
O O6 0.324963 0.714198 0.303393
O O7 0.887451 0.351817 0.948517
O O8 0.795156 0.556574 0.044146
O O9 0.000000 0.500000 0.000000
O O10 0.500000 0.258799 0.250000
O O11 0.394521 0.379512 0.440386
O O12 0.750000 0.250000 0.500000
O O13 0.573987 0.404441 0.609916
O O14 0.000000 0.000000 0.500000
#
# Coordination Sequence:
#
# PCOD9306311 Si02
#       6
#     8   8   8   8   8   8
#     4  11  25  46  77 108 155 197 261 314 394 461
#     4  11  25  47  71 115 151 200 257 314 389 472
#     4  11  26  49  75 107 153 200 250 316 387 472
#     4  11  26  46  74 110 157 197 258 324 390 462
#     4  12  25  47  76 107 147 196 255 309 384 457
#     4  12  27  47  76 111 153 198 255 323 381 459
#
# _framework density 25.699529999999999
#
# number of rings (size 3 to 8) (size 9 to 14) (size 15 to 20)
#    0.000    0.667    6.667    0.000    9.333    0.667 
#    0.000    1.667    0.000    0.000    0.000    0.000 
#    0.000    0.000    0.000    0.000    0.000    0.000 
#
# Total GULP energy -133989.525711 kJ/mol
# GULP energy per Si atom -5582.896905 kJ/mol
# Density = 2.564104 g / cm^3
# Si number density = 25.699530 Si / 1000 Ang^3
#
#
#
# Elastic Constant Matrix: (Units=GPa)
#
#
# Indices 1 2 3 4 5 6 
#
# 1 102.3157 22.2991 23.0275 0.0000 15.1746 0.0000
# 2 22.2991 213.7719 23.4880 0.0000 -1.7915 0.0000
# 3 23.0275 23.4880 89.2300 0.0000 8.5289 0.0000
# 4 0.0000 0.0000 0.0000 47.4229 0.0000 -1.9597
# 5 15.1746 -1.7915 8.5289 0.0000 37.5636 0.0000
# 6 0.0000 0.0000 0.0000 -1.9597 0.0000 27.4088
#
#
#
# Elastic Compliance Matrix: (Units=1/GPa)
#
#
# Indices 1 2 3 4 5 6 
#
# 1 0.011076 -0.000944 -0.002226 0.000000 -0.004014 0.000000
# 2 -0.000944 0.004908 -0.001132 0.000000 0.000873 0.000000
# 3 -0.002226 -0.001132 0.012265 0.000000 -0.001939 0.000000
# 4 0.000000 0.000000 0.000000 0.021149 0.000000 0.001512
# 5 -0.004014 0.000873 -0.001939 0.000000 0.028725 0.000000
# 6 0.000000 0.000000 0.000000 0.001512 0.000000 0.036593
#
#
# Mechanical properties :
#
#
# Convention : Reuss Voigt Hill
#
# Bulk Modulus (GPa) = 50.90505 60.32740 55.61623
# Shear Modulus (GPa) = 38.50060 44.91257 41.70659
#
# Velocity S-wave (km/s) = 3.87474 4.18497 4.03284
# Velocity P-wave (km/s) = 6.31418 6.84668 6.58582
#
# Compressibility (1/GPa) = 0.01964442
#
# Stress axis : x y z
#
# Youngs Moduli (GPa) = 90.28685 203.74713 81.53465
#
# Poissons Ratio (x) = 0.19242 0.18150
# Poissons Ratio (y) = 0.08527 0.09227
# Poissons Ratio (z) = 0.20098 0.23056
#
# Static dielectric constant tensor:
#      x y z
#    x 2.093230 0.000000 0.086330 
#    y 0.000000 2.141290 0.000000 
#    z 0.086330 0.000000 2.110900 
# 
# From -- ./inp_files/152431.got.cif
#   From: 2010.05.17/outbox.cif.g08.bks.cpg/sg15_77_cif.got.tgz:152431.got - 2010.06.03 18:47:42.
