data_PCOD9306231
_publ_section_title
;
Structure prediction by ZEFSAII (Michael W. Deem and Ramdas Pophale) SiO2 
 PCOD9306231
Probable space group: C 2/C
;
_chemical_formula_sum "Si O2"
_cell_formula_units_Z 36
_cell_length_a 27.415913
_cell_length_b 10.763149
_cell_length_c 17.538391
_cell_angle_alpha 90.000000
_cell_angle_beta 162.635118
_cell_angle_gamma 90.000000
_cell_volume 1544.585388
_symmetry_space_group_name_H-M "C 2/C"
_symmetry_group_IT_number 15
_symmetry_cell_setting 'monoclinic'
loop_
_space_group_symop_operation_xyz
x,y,z
-x,y,1/2-z
-x,-y,-z
x,-y,1/2+z
1/2+x,1/2+y,z
1/2-x,1/2+y,1/2-z
1/2-x,1/2-y,-z
1/2+x,1/2-y,1/2+z
loop_
_atom_site_type_symbol
_atom_site_label
_atom_site_fract_x
_atom_site_fract_y
_atom_site_fract_z
Si Si1 0.500000 0.210490 0.750000
Si Si2 0.881690 0.612976 0.416309
Si Si3 0.634387 0.820374 0.004245
Si Si4 0.725528 0.916898 0.357489
Si Si5 0.806767 0.611775 0.063663
O O1 0.452909 0.126557 0.607621
O O2 0.348214 0.302331 0.540115
O O3 0.763476 0.732017 0.233494
O O4 0.773470 0.502327 0.217023
O O5 0.039558 0.626001 0.596851
O O6 0.500000 0.748704 0.750000
O O7 0.719370 0.905507 0.066157
O O8 0.504875 0.884822 0.866866
O O9 0.763809 0.009877 0.485398
O O10 0.750000 0.750000 0.000000
#
# Coordination Sequence:
#
# PCOD9306231 Si02
#       5
#     4   8   8   8   8
#     4  12  30  48  70 112 146 184 248 298 352 440
#     4  11  25  46  68 104 150 183 236 302 349 431
#     4   8  20  36  68  99 141 178 225 301 337 407
#     4  11  25  47  75  99 144 200 225 295 384 405
#     4   9  18  37  66 104 135 174 244 286 338 431
#
# _framework density 23.307226
#
# number of rings (size 3 to 8) (size 9 to 14) (size 15 to 20)
#    1.333    0.444    2.222    0.667   10.889    1.778 
#    0.000    1.111    0.000    0.000    0.000    0.000 
#    0.000    0.000    0.000    0.000    0.000    0.000 
#
# Total GULP energy -100367.119028 kJ/mol
# GULP energy per Si atom -5575.951057 kJ/mol
# Density = 2.325418 g / cm^3
# Si number density = 23.307226 Si / 1000 Ang^3
#
#
#
# Elastic Constant Matrix: (Units=GPa)
#
#
# Indices 1 2 3 4 5 6 
#
# 1 143.2866 61.0490 30.1522 0.0000 -26.0558 0.0000
# 2 61.0490 128.0496 46.9719 0.0000 5.5656 0.0000
# 3 30.1522 46.9719 73.7084 0.0000 -12.8052 0.0000
# 4 0.0000 0.0000 0.0000 31.7030 0.0000 4.4403
# 5 -26.0558 5.5656 -12.8052 0.0000 45.4164 0.0000
# 6 0.0000 0.0000 0.0000 4.4403 0.0000 46.7228
#
#
#
# Elastic Compliance Matrix: (Units=1/GPa)
#
#
# Indices 1 2 3 4 5 6 
#
# 1 0.010430 -0.005390 0.000339 0.000000 0.006740 0.000000
# 2 -0.005390 0.013451 -0.007561 0.000000 -0.006872 0.000000
# 3 0.000339 -0.007561 0.019391 0.000000 0.006589 0.000000
# 4 0.000000 0.000000 0.000000 0.031968 0.000000 -0.003038
# 5 0.006740 -0.006872 0.006589 0.000000 0.028585 0.000000
# 6 0.000000 0.000000 0.000000 -0.003038 0.000000 0.021692
#
#
# Mechanical properties :
#
#
# Convention : Reuss Voigt Hill
#
# Bulk Modulus (GPa) = 55.40601 69.04344 62.22473
# Shear Modulus (GPa) = 31.89641 38.55986 35.22814
#
# Velocity S-wave (km/s) = 3.70337 4.07186 3.89198
# Velocity P-wave (km/s) = 6.48924 7.19682 6.85217
#
# Compressibility (1/GPa) = 0.01804858
#
# Stress axis : x y z
#
# Youngs Moduli (GPa) = 95.88107 74.34121 51.56910
#
# Poissons Ratio (x) = 0.40068 -0.01749
# Poissons Ratio (y) = 0.51677 0.38993
# Poissons Ratio (z) = -0.03251 0.56212
#
# Static dielectric constant tensor:
#      x y z
#    x 1.986330 0.000000 -0.034410 
#    y 0.000000 1.956060 0.000000 
#    z -0.034410 0.000000 1.879980 
# 
# From -- ./inp_files/222507.got.cif
#   From: 2010.05.17/outbox.cif.g08.bks.cpg/sg15_112_cif.got.tgz:222507.got - 2010.06.03 18:47:42.
