data_PCOD9306406
_publ_section_title
;
Structure prediction by ZEFSAII (Michael W. Deem and Ramdas Pophale) SiO2 
 PCOD9306406
Probable space group: C 2/C
;
_chemical_formula_sum "Si O2"
_cell_formula_units_Z 60
_cell_length_a 19.158436
_cell_length_b 5.915855
_cell_length_c 25.671985
_cell_angle_alpha 90.000000
_cell_angle_beta 118.562962
_cell_angle_gamma 90.000000
_cell_volume 2555.501068
_symmetry_space_group_name_H-M "C 2/C"
_symmetry_group_IT_number 15
_symmetry_cell_setting 'monoclinic'
loop_
_space_group_symop_operation_xyz
x,y,z
-x,y,1/2-z
-x,-y,-z
x,-y,1/2+z
1/2+x,1/2+y,z
1/2-x,1/2+y,1/2-z
1/2-x,1/2-y,-z
1/2+x,1/2-y,1/2+z
loop_
_atom_site_type_symbol
_atom_site_label
_atom_site_fract_x
_atom_site_fract_y
_atom_site_fract_z
Si Si1 0.722832 0.356803 0.117540
Si Si2 0.038035 0.040193 0.570141
Si Si3 0.000000 0.032437 0.750000
Si Si4 0.035981 0.352968 0.666511
Si Si5 0.199792 0.401380 0.944099
Si Si6 0.066764 0.704631 0.905577
Si Si7 0.283832 0.033533 0.245035
Si Si8 0.842437 0.999097 0.140859
O O1 0.631750 0.416157 0.096519
O O2 0.741993 0.431716 0.065752
O O3 0.771663 0.489899 0.179368
O O4 0.758985 0.101949 0.131201
O O5 0.017219 0.244148 0.603061
O O6 0.000000 0.000000 0.500000
O O7 0.002330 0.820777 0.586463
O O8 0.984237 0.173460 0.796731
O O9 0.911340 0.939424 0.706952
O O10 0.126598 0.427621 0.704125
O O11 0.980752 0.568256 0.655282
O O12 0.129767 0.525656 0.950627
O O13 0.165243 0.252678 0.883844
O O14 0.250000 0.250000 0.000000
O O15 0.124945 0.880278 0.899450
O O16 0.254985 0.784631 0.256902
#
# Coordination Sequence:
#
# PCOD9306406 Si02
#       8
#     8   8   4   8   8   8   8   8
#     4  11  28  45  75 113 149 205 259 331 406 485
#     4  12  28  50  75 109 154 209 268 325 402 490
#     4  12  24  44  78 106 154 196 256 334 402 500
#     4  12  27  46  74 111 148 199 262 326 402 481
#     4  11  26  48  76 107 149 200 265 334 404 481
#     4  11  25  48  71 107 150 195 260 318 403 476
#     4  12  28  50  77 111 162 208 258 334 413 496
#     4  11  26  46  73 112 149 195 257 324 405 480
#
# _framework density 23.478760999999999
#
# number of rings (size 3 to 8) (size 9 to 14) (size 15 to 20)
#    0.000    0.533    4.000    1.600   13.067    2.667 
#    0.000    0.000    0.000    0.000    0.000    0.000 
#    0.000    0.000    0.000    0.000    0.000    0.000 
#
# Total GULP energy -167238.824031 kJ/mol
# GULP energy per Si atom -5574.627468 kJ/mol
# Density = 2.342532 g / cm^3
# Si number density = 23.478761 Si / 1000 Ang^3
#
#
#
# Elastic Constant Matrix: (Units=GPa)
#
#
# Indices 1 2 3 4 5 6 
#
# 1 133.5011 57.7275 16.6545 -0.0001 17.2069 0.0002
# 2 57.7275 82.6607 12.8859 -0.0003 7.8291 0.0006
# 3 16.6545 12.8859 83.1377 0.0000 -3.6258 0.0000
# 4 -0.0001 -0.0003 0.0000 23.1045 0.0000 2.8236
# 5 17.2069 7.8291 -3.6258 0.0000 32.2625 -0.0001
# 6 0.0002 0.0006 0.0000 2.8236 -0.0001 49.1356
#
#
#
# Elastic Compliance Matrix: (Units=1/GPa)
#
#
# Indices 1 2 3 4 5 6 
#
# 1 0.011402 -0.007332 -0.001342 0.000000 -0.004453 0.000000
# 2 -0.007332 0.017458 -0.001258 0.000000 -0.000467 0.000000
# 3 -0.001342 -0.001258 0.012598 0.000000 0.002437 0.000000
# 4 0.000000 0.000000 0.000000 0.043588 0.000000 -0.002505
# 5 -0.004453 -0.000467 0.002437 0.000000 0.033758 0.000000
# 6 0.000000 0.000000 0.000000 -0.002505 0.000000 0.020496
#
#
# Mechanical properties :
#
#
# Convention : Reuss Voigt Hill
#
# Bulk Modulus (GPa) = 46.30511 52.64838 49.47674
# Shear Modulus (GPa) = 30.05484 35.03595 32.54540
#
# Velocity S-wave (km/s) = 3.58171 3.86714 3.72716
# Velocity P-wave (km/s) = 6.07205 6.51247 6.29611
#
# Compressibility (1/GPa) = 0.02159589
#
# Stress axis : x y z
#
# Youngs Moduli (GPa) = 87.70069 57.27883 79.37613
#
# Poissons Ratio (x) = 0.41998 0.10652
# Poissons Ratio (y) = 0.64303 0.09982
# Poissons Ratio (z) = 0.11769 0.07203
#
# Static dielectric constant tensor:
#      x y z
#    x 1.916470 0.000000 0.025180 
#    y 0.000000 1.965280 0.000000 
#    z 0.025180 0.000000 1.899350 
# 
# From -- ./inp_files/300140.got.cif
#   From: 2010.05.17/outbox.cif.g08.bks.cpg/sg15_151_cif.got.tgz:300140.got - 2010.06.03 18:47:42.
