data_PCOD9306185
_publ_section_title
;
Structure prediction by ZEFSAII (Michael W. Deem and Ramdas Pophale) SiO2 
 PCOD9306185
Probable space group: C 2/C
;
_chemical_formula_sum "Si O2"
_cell_formula_units_Z 40
_cell_length_a 8.965009
_cell_length_b 14.443996
_cell_length_c 13.885266
_cell_angle_alpha 90.000000
_cell_angle_beta 74.432491
_cell_angle_gamma 90.000000
_cell_volume 1732.050600
_symmetry_space_group_name_H-M "C 2/C"
_symmetry_group_IT_number 15
_symmetry_cell_setting 'monoclinic'
loop_
_space_group_symop_operation_xyz
x,y,z
-x,y,1/2-z
-x,-y,-z
x,-y,1/2+z
1/2+x,1/2+y,z
1/2-x,1/2+y,1/2-z
1/2-x,1/2-y,-z
1/2+x,1/2-y,1/2+z
loop_
_atom_site_type_symbol
_atom_site_label
_atom_site_fract_x
_atom_site_fract_y
_atom_site_fract_z
Si Si1 0.864517 0.817182 0.572466
Si Si2 0.303784 0.348256 0.947889
Si Si3 0.370599 0.666433 0.854037
Si Si4 0.176962 0.499049 0.110781
Si Si5 0.318857 0.992872 0.662345
O O1 0.780260 0.730406 0.634518
O O2 0.922626 0.802642 0.452170
O O3 0.738912 0.897939 0.582695
O O4 0.014435 0.845227 0.605597
O O5 0.215699 0.389876 0.870489
O O6 0.250000 0.250000 0.000000
O O7 0.274197 0.423757 0.036551
O O8 0.500000 0.678702 0.750000
O O9 0.305735 0.561857 0.863454
O O10 0.194954 0.490039 0.221885
O O11 0.998888 0.486942 0.110461
#
# Coordination Sequence:
#
# PCOD9306185 Si02
#       5
#     8   8   8   8   8
#     4  11  26  44  71 107 143 185 239 296 364 425
#     4  12  26  45  74 107 145 191 245 303 357 432
#     4  11  25  45  74 102 143 189 239 297 365 434
#     4  11  25  46  72 105 146 191 239 296 365 433
#     4  11  26  44  72 104 146 192 240 297 361 429
#
# _framework density 23.094014999999999
#
# number of rings (size 3 to 8) (size 9 to 14) (size 15 to 20)
#    0.000    0.800    2.000    3.600   11.200    1.600 
#    0.000    0.000    0.000    0.000    0.000    0.000 
#    0.000    0.000    0.000    0.000    0.000    0.000 
#
# Total GULP energy -111878.652791 kJ/mol
# GULP energy per Si atom -5593.932640 kJ/mol
# Density = 2.304145 g / cm^3
# Si number density = 23.094015 Si / 1000 Ang^3
#
#
#
# Elastic Constant Matrix: (Units=GPa)
#
#
# Indices 1 2 3 4 5 6 
#
# 1 89.5639 13.3362 22.0516 0.0000 -13.6661 0.0000
# 2 13.3362 96.9515 37.9495 0.0000 -9.4931 0.0000
# 3 22.0516 37.9495 80.3827 0.0000 -7.5541 0.0000
# 4 0.0000 0.0000 0.0000 26.6487 0.0000 -8.4034
# 5 -13.6661 -9.4931 -7.5541 0.0000 32.9894 0.0000
# 6 0.0000 0.0000 0.0000 -8.4034 0.0000 43.2476
#
#
#
# Elastic Compliance Matrix: (Units=1/GPa)
#
#
# Indices 1 2 3 4 5 6 
#
# 1 0.012604 -0.000129 -0.002974 0.000000 0.004503 0.000000
# 2 -0.000129 0.012831 -0.005805 0.000000 0.002310 0.000000
# 3 -0.002974 -0.005805 0.016070 0.000000 0.000777 0.000000
# 4 0.000000 0.000000 0.000000 0.039975 0.000000 0.007767
# 5 0.004503 0.002310 0.000777 0.000000 0.033021 0.000000
# 6 0.000000 0.000000 0.000000 0.007767 0.000000 0.024632
#
#
# Mechanical properties :
#
#
# Convention : Reuss Voigt Hill
#
# Bulk Modulus (GPa) = 42.21331 45.95251 44.08291
# Shear Modulus (GPa) = 30.33189 33.48118 31.90654
#
# Velocity S-wave (km/s) = 3.62803 3.81173 3.72101
# Velocity P-wave (km/s) = 5.98905 6.27005 6.13116
#
# Compressibility (1/GPa) = 0.02368921
#
# Stress axis : x y z
#
# Youngs Moduli (GPa) = 79.34216 77.93889 62.22800
#
# Poissons Ratio (x) = 0.01004 0.18504
# Poissons Ratio (y) = 0.01022 0.36124
# Poissons Ratio (z) = 0.23593 0.45244
#
# Static dielectric constant tensor:
#      x y z
#    x 1.891400 0.000000 0.053390 
#    y 0.000000 1.833500 0.000000 
#    z 0.053390 0.000000 1.919850 
# 
# From -- ./inp_files/133085.got.cif
#   From: 2010.05.17/outbox.cif.g08.bks.cpg/sg15_67_cif.got.tgz:133085.got - 2010.06.03 18:47:42.
