data_PCOD9306103
_publ_section_title
;
Structure prediction by ZEFSAII (Michael W. Deem and Ramdas Pophale) SiO2 
 PCOD9306103
Probable space group: C 2/C
;
_chemical_formula_sum "Si O2"
_cell_formula_units_Z 40
_cell_length_a 8.558271
_cell_length_b 18.168272
_cell_length_c 11.523740
_cell_angle_alpha 90.000000
_cell_angle_beta 106.370984
_cell_angle_gamma 90.000000
_cell_volume 1719.168916
_symmetry_space_group_name_H-M "C 2/C"
_symmetry_group_IT_number 15
_symmetry_cell_setting 'monoclinic'
loop_
_space_group_symop_operation_xyz
x,y,z
-x,y,1/2-z
-x,-y,-z
x,-y,1/2+z
1/2+x,1/2+y,z
1/2-x,1/2+y,1/2-z
1/2-x,1/2-y,-z
1/2+x,1/2-y,1/2+z
loop_
_atom_site_type_symbol
_atom_site_label
_atom_site_fract_x
_atom_site_fract_y
_atom_site_fract_z
Si Si1 0.064984 0.243118 0.504535
Si Si2 0.989163 0.399369 0.110655
Si Si3 0.000000 0.038223 0.250000
Si Si4 0.000000 0.258362 0.750000
Si Si5 0.303725 0.636516 0.350328
Si Si6 0.256953 0.485391 0.033749
O O1 0.250000 0.250000 0.500000
O O2 0.994199 0.324238 0.459518
O O3 0.040431 0.221273 0.634750
O O4 0.963479 0.183359 0.412830
O O5 0.000000 0.383083 0.250000
O O6 0.133535 0.455323 0.106415
O O7 0.823063 0.441860 0.039994
O O8 0.846038 0.088809 0.247187
O O9 0.935669 0.994310 0.126312
O O10 0.156447 0.308680 0.803732
O O11 0.262651 0.578151 0.440028
#
# Coordination Sequence:
#
# PCOD9306103 Si02
#       6
#     8   8   4   4   8   8
#     4  12  28  47  73 111 148 199 249 308 385 446
#     4  11  25  44  73 106 148 191 249 307 373 456
#     4  12  26  45  74 105 148 186 244 318 358 456
#     4  12  26  47  74 101 158 190 244 320 362 466
#     4  12  26  46  73 108 145 196 250 301 385 443
#     4  11  25  46  71 107 143 199 250 304 380 439
#
# _framework density 23.267056
#
# number of rings (size 3 to 8) (size 9 to 14) (size 15 to 20)
#    0.000    0.400    2.000    6.000    8.400    2.400 
#    0.000    0.000    0.000    0.000    0.000    0.000 
#    0.000    0.000    0.000    0.000    0.000    0.000 
#
# Total GULP energy -111963.838044 kJ/mol
# GULP energy per Si atom -5598.191902 kJ/mol
# Density = 2.321410 g / cm^3
# Si number density = 23.267056 Si / 1000 Ang^3
#
#
#
# Elastic Constant Matrix: (Units=GPa)
#
#
# Indices 1 2 3 4 5 6 
#
# 1 66.4160 -25.7643 5.6597 0.0000 -2.1963 0.0000
# 2 -25.7643 52.9618 4.1433 0.0000 2.8978 0.0000
# 3 5.6597 4.1433 94.2008 0.0000 -0.9172 0.0000
# 4 0.0000 0.0000 0.0000 -1.9746 0.0000 -24.1720
# 5 -2.1963 2.8978 -0.9172 0.0000 31.8529 0.0000
# 6 0.0000 0.0000 0.0000 -24.1720 0.0000 23.3796
#
#
#
# Elastic Compliance Matrix: (Units=1/GPa)
#
#
# Indices 1 2 3 4 5 6 
#
# 1 0.018783 0.009235 -0.001531 0.000000 0.000411 0.000000
# 2 0.009235 0.023585 -0.001607 0.000000 -0.001555 0.000000
# 3 -0.001531 -0.001607 0.010782 0.000000 0.000351 0.000000
# 4 0.000000 0.000000 0.000000 -0.037084 0.000000 -0.038341
# 5 0.000411 -0.001555 0.000351 0.000000 0.031574 0.000000
# 6 0.000000 0.000000 0.000000 -0.038341 0.000000 0.003132
#
#
# Mechanical properties :
#
#
# Convention : Reuss Voigt Hill
#
# Bulk Modulus (GPa) = 15.30398 20.18401 17.74400
# Shear Modulus (GPa) = 82.83744 25.95425 54.39585
#
# Velocity S-wave (km/s) = 5.97329 3.34352 4.84042
# Velocity P-wave (km/s) = 7.35971 4.85791 6.23557
#
# Compressibility (1/GPa) = 0.06534247
#
# Stress axis : x y z
#
# Youngs Moduli (GPa) = 53.23986 42.40043 92.74976
#
# Poissons Ratio (x) = -0.39155 0.14197
# Poissons Ratio (y) = -0.49165 0.14908
# Poissons Ratio (z) = 0.08149 0.06815
#
# Static dielectric constant tensor:
#      x y z
#    x 1.869990 0.000000 -0.053050 
#    y 0.000000 1.877740 0.000000 
#    z -0.053050 0.000000 1.932040 
# 
# From -- ./inp_files/76955.got.cif
#   From: 2010.05.17/outbox.cif.g08.bks.cpg/sg15_39_cif.got.tgz:76955.got - 2010.06.03 18:47:42.
