data_PCOD9306492
_publ_section_title
;
Structure prediction by ZEFSAII (Michael W. Deem and Ramdas Pophale) SiO2 
 PCOD9306492
Probable space group: C 2/C
;
_chemical_formula_sum "Si O2"
_cell_formula_units_Z 44
_cell_length_a 14.202293
_cell_length_b 5.512093
_cell_length_c 23.099861
_cell_angle_alpha 90.000000
_cell_angle_beta 71.079090
_cell_angle_gamma 90.000000
_cell_volume 1710.646981
_symmetry_space_group_name_H-M "C 2/C"
_symmetry_group_IT_number 15
_symmetry_cell_setting 'monoclinic'
loop_
_space_group_symop_operation_xyz
x,y,z
-x,y,1/2-z
-x,-y,-z
x,-y,1/2+z
1/2+x,1/2+y,z
1/2-x,1/2+y,1/2-z
1/2-x,1/2-y,-z
1/2+x,1/2-y,1/2+z
loop_
_atom_site_type_symbol
_atom_site_label
_atom_site_fract_x
_atom_site_fract_y
_atom_site_fract_z
Si Si1 0.341571 0.552282 0.478892
Si Si2 0.948821 0.520500 0.666284
Si Si3 0.446764 0.790867 0.048688
Si Si4 0.500000 0.588523 0.250000
Si Si5 0.793183 0.290879 0.761421
Si Si6 0.638117 0.733852 0.638004
O O1 0.250000 0.750000 0.500000
O O2 0.369221 0.377375 0.528545
O O3 0.319470 0.397845 0.425972
O O4 0.455433 0.648248 0.447535
O O5 0.901158 0.587765 0.614805
O O6 0.899918 0.293033 0.708319
O O7 0.947226 0.731513 0.714145
O O8 0.060844 0.435175 0.631886
O O9 0.500000 0.000000 0.000000
O O10 0.420134 0.451226 0.307012
O O11 0.749035 0.525997 0.738989
O O12 0.792171 0.359866 0.828978
#
# Coordination Sequence:
#
# PCOD9306492 Si02
#       6
#     8   8   8   4   8   8
#     4  11  27  51  78 116 159 216 283 342 410 496
#     4  12  24  46  78 106 156 210 264 333 411 504
#     4  11  25  49  79 111 154 216 272 336 418 494
#     4  12  20  44  78 108 146 206 268 320 412 490
#     4  12  28  48  75 124 163 205 266 341 419 487
#     4  12  24  47  80 105 154 214 265 328 418 497
#
# _framework density 25.721264999999999
#
# number of rings (size 3 to 8) (size 9 to 14) (size 15 to 20)
#    0.000    0.364    7.273    1.091    0.000    2.182 
#   13.091    0.000    0.000    0.000    0.000    0.000 
#    0.000    0.000    0.000    0.000    0.000    0.000 
#
# Total GULP energy -122928.683144 kJ/mol
# GULP energy per Si atom -5587.667416 kJ/mol
# Density = 2.566272 g / cm^3
# Si number density = 25.721265 Si / 1000 Ang^3
#
#
#
# Elastic Constant Matrix: (Units=GPa)
#
#
# Indices 1 2 3 4 5 6 
#
# 1 111.0507 39.5160 60.2255 -0.0002 16.6028 -0.0003
# 2 39.5160 85.5716 46.3486 -0.0003 9.4321 -0.0005
# 3 60.2255 46.3486 160.9178 0.0000 36.9481 0.0000
# 4 -0.0002 -0.0003 0.0000 59.0138 -0.0001 -6.5068
# 5 16.6028 9.4321 36.9481 -0.0001 42.9945 -0.0002
# 6 -0.0003 -0.0005 0.0000 -6.5068 -0.0002 68.2865
#
#
#
# Elastic Compliance Matrix: (Units=1/GPa)
#
#
# Indices 1 2 3 4 5 6 
#
# 1 0.012282 -0.003789 -0.003248 0.000000 -0.001120 0.000000
# 2 -0.003789 0.015023 -0.003100 0.000000 0.000831 0.000000
# 3 -0.003248 -0.003100 0.009816 0.000000 -0.006501 0.000000
# 4 0.000000 0.000000 0.000000 0.017125 0.000000 0.001632
# 5 -0.001120 0.000831 -0.006501 0.000000 0.029096 0.000000
# 6 0.000000 0.000000 0.000000 0.001632 0.000000 0.014800
#
#
# Mechanical properties :
#
#
# Convention : Reuss Voigt Hill
#
# Bulk Modulus (GPa) = 59.35850 72.19114 65.77482
# Shear Modulus (GPa) = 40.31249 48.15564 44.23407
#
# Velocity S-wave (km/s) = 3.96319 4.33160 4.15148
# Velocity P-wave (km/s) = 6.63854 7.29004 6.97190
#
# Compressibility (1/GPa) = 0.01684679
#
# Stress axis : x y z
#
# Youngs Moduli (GPa) = 81.41845 66.56375 101.87943
#
# Poissons Ratio (x) = 0.25221 0.33093
# Poissons Ratio (y) = 0.30849 0.31581
# Poissons Ratio (z) = 0.26447 0.20634
#
# Static dielectric constant tensor:
#      x y z
#    x 2.601210 0.000000 0.015850 
#    y 0.000000 2.060480 0.000000 
#    z 0.015850 0.000000 1.993810 
# 
# From -- ./inp_files/275806.got.cif
#   From: 2010.05.17/outbox.cif.g08.bks.cpg/sg15_138_cif.got.tgz:275806.got - 2010.06.03 18:47:42.
