data_PCOD9306450
_publ_section_title
;
Structure prediction by ZEFSAII (Michael W. Deem and Ramdas Pophale) SiO2 
 PCOD9306450
Probable space group: C 2/C
;
_chemical_formula_sum "Si O2"
_cell_formula_units_Z 44
_cell_length_a 26.364583
_cell_length_b 4.949351
_cell_length_c 13.813782
_cell_angle_alpha 90.000000
_cell_angle_beta 81.629807
_cell_angle_gamma 90.000000
_cell_volume 1783.326754
_symmetry_space_group_name_H-M "C 2/C"
_symmetry_group_IT_number 15
_symmetry_cell_setting 'monoclinic'
loop_
_space_group_symop_operation_xyz
x,y,z
-x,y,1/2-z
-x,-y,-z
x,-y,1/2+z
1/2+x,1/2+y,z
1/2-x,1/2+y,1/2-z
1/2-x,1/2-y,-z
1/2+x,1/2-y,1/2+z
loop_
_atom_site_type_symbol
_atom_site_label
_atom_site_fract_x
_atom_site_fract_y
_atom_site_fract_z
Si Si1 0.048247 0.681545 0.010942
Si Si2 0.024678 0.978648 0.837017
Si Si3 0.774375 0.036907 0.194296
Si Si4 0.362660 0.129753 0.904663
Si Si5 0.874995 0.858205 0.267666
Si Si6 0.250000 0.250000 0.000000
O O1 0.058588 0.815901 0.904726
O O2 0.093217 0.504567 0.042679
O O3 0.000000 0.500000 0.000000
O O4 0.023033 0.895001 0.092138
O O5 0.067250 0.186936 0.785914
O O6 0.000000 0.834170 0.750000
O O7 0.741720 0.842859 0.276467
O O8 0.833194 0.969714 0.203786
O O9 0.760717 0.953673 0.090105
O O10 0.376683 0.412972 0.850799
O O11 0.311104 0.175071 0.977762
O O12 0.354792 0.915498 0.820509
#
# Coordination Sequence:
#
# PCOD9306450 Si02
#       6
#     8   8   8   8   8   4
#     4  11  27  46  75 119 153 210 270 329 406 505
#     4  11  25  48  77 111 163 211 263 335 417 487
#     4  12  26  50  75 115 155 203 272 327 407 485
#     4  12  28  49  80 114 161 207 278 324 418 479
#     4  12  26  50  78 115 156 212 258 341 398 497
#     4  12  28  50  84 112 164 220 264 356 404 496
#
# _framework density 24.672989999999999
#
# number of rings (size 3 to 8) (size 9 to 14) (size 15 to 20)
#    0.000    0.364    5.455    1.091    7.636    5.091 
#    0.000    0.000    0.000    0.000    0.000    0.000 
#    0.000    0.000    0.000    0.000    0.000    0.000 
#
# Total GULP energy -122689.645046 kJ/mol
# GULP energy per Si atom -5576.802048 kJ/mol
# Density = 2.461683 g / cm^3
# Si number density = 24.672990 Si / 1000 Ang^3
#
#
#
# Elastic Constant Matrix: (Units=GPa)
#
#
# Indices 1 2 3 4 5 6 
#
# 1 175.5090 7.0825 38.4633 0.0000 6.6932 0.0000
# 2 7.0825 71.1682 12.0390 0.0000 -15.9494 0.0000
# 3 38.4633 12.0390 84.2225 0.0000 9.8375 0.0000
# 4 0.0000 0.0000 0.0000 16.9162 0.0000 2.3015
# 5 6.6932 -15.9494 9.8375 0.0000 37.8857 0.0000
# 6 0.0000 0.0000 0.0000 2.3015 0.0000 32.0994
#
#
#
# Elastic Compliance Matrix: (Units=1/GPa)
#
#
# Indices 1 2 3 4 5 6 
#
# 1 0.006341 -0.000272 -0.002798 0.000000 -0.000508 0.000000
# 2 -0.000272 0.016339 -0.003115 0.000000 0.007735 0.000000
# 3 -0.002798 -0.003115 0.014120 0.000000 -0.004484 0.000000
# 4 0.000000 0.000000 0.000000 0.059697 0.000000 -0.004280
# 5 -0.000508 0.007735 -0.004484 0.000000 0.030906 0.000000
# 6 0.000000 0.000000 0.000000 -0.004280 0.000000 0.031460
#
#
# Mechanical properties :
#
#
# Convention : Reuss Voigt Hill
#
# Bulk Modulus (GPa) = 40.93136 49.56326 45.24731
# Shear Modulus (GPa) = 27.87450 35.60124 31.73787
#
# Velocity S-wave (km/s) = 3.36483 3.80270 3.59045
# Velocity P-wave (km/s) = 5.63220 6.27793 5.96381
#
# Compressibility (1/GPa) = 0.02443114
#
# Stress axis : x y z
#
# Youngs Moduli (GPa) = 157.69904 61.20431 70.82172
#
# Poissons Ratio (x) = 0.01663 0.19814
# Poissons Ratio (y) = 0.04284 0.22061
# Poissons Ratio (z) = 0.44120 0.19065
#
# Static dielectric constant tensor:
#      x y z
#    x 1.916440 0.000000 0.050230 
#    y 0.000000 2.017950 0.000000 
#    z 0.050230 0.000000 1.744650 
# 
# From -- ./inp_files/175412.got.cif
#   From: 2010.05.17/outbox.cif.g08.bks.cpg/sg15_88_cif.got.tgz:175412.got - 2010.06.03 18:47:42.
