data_PCOD9306493
_publ_section_title
;
Structure prediction by ZEFSAII (Michael W. Deem and Ramdas Pophale) SiO2 
 PCOD9306493
Probable space group: C 2/C
;
_chemical_formula_sum "Si O2"
_cell_formula_units_Z 40
_cell_length_a 13.423474
_cell_length_b 10.005537
_cell_length_c 14.228678
_cell_angle_alpha 90.000000
_cell_angle_beta 118.010984
_cell_angle_gamma 90.000000
_cell_volume 1687.176538
_symmetry_space_group_name_H-M "C 2/C"
_symmetry_group_IT_number 15
_symmetry_cell_setting 'monoclinic'
loop_
_space_group_symop_operation_xyz
x,y,z
-x,y,1/2-z
-x,-y,-z
x,-y,1/2+z
1/2+x,1/2+y,z
1/2-x,1/2+y,1/2-z
1/2-x,1/2-y,-z
1/2+x,1/2-y,1/2+z
loop_
_atom_site_type_symbol
_atom_site_label
_atom_site_fract_x
_atom_site_fract_y
_atom_site_fract_z
Si Si1 0.620802 0.931910 0.355741
Si Si2 0.874824 0.865691 0.652245
Si Si3 0.156114 0.334217 0.014924
Si Si4 0.516396 0.412275 0.415752
Si Si5 0.730402 0.541916 0.759472
O O1 0.500000 0.941669 0.250000
O O2 0.627615 0.032391 0.445111
O O3 0.643898 0.779861 0.398708
O O4 0.712542 0.967616 0.316399
O O5 0.000000 0.852756 0.750000
O O6 0.888106 0.000779 0.596930
O O7 0.786419 0.899979 0.695077
O O8 0.196120 0.367627 0.137677
O O9 0.250000 0.250000 0.000000
O O10 0.051550 0.233920 0.963154
O O11 0.500000 0.500000 0.500000
O O12 0.398373 0.406815 0.307981
#
# Coordination Sequence:
#
# PCOD9306493 Si02
#       5
#     8   8   8   8   8
#     4  11  28  47  74 109 153 192 251 313 371 438
#     4   9  22  45  70 102 146 189 243 296 368 434
#     4  12  27  46  74 114 148 195 254 301 375 445
#     4  11  25  49  80 107 148 201 250 300 380 448
#     4  11  26  47  78 106 152 196 246 308 374 449
#
# _framework density 23.708248000000001
#
# number of rings (size 3 to 8) (size 9 to 14) (size 15 to 20)
#    0.000    1.200    2.000    1.200   14.000    1.600 
#    0.000    0.000    0.000    0.000    0.000    0.000 
#    0.000    0.000    0.000    0.000    0.000    0.000 
#
# Total GULP energy -111936.742901 kJ/mol
# GULP energy per Si atom -5596.837145 kJ/mol
# Density = 2.365429 g / cm^3
# Si number density = 23.708248 Si / 1000 Ang^3
#
#
#
# Elastic Constant Matrix: (Units=GPa)
#
#
# Indices 1 2 3 4 5 6 
#
# 1 74.1977 28.7916 16.1686 0.0000 -3.5158 0.0000
# 2 28.7916 182.4819 75.4126 0.0000 5.7431 0.0000
# 3 16.1686 75.4126 145.1314 0.0000 6.4345 0.0000
# 4 0.0000 0.0000 0.0000 27.1236 0.0000 -5.9926
# 5 -3.5158 5.7431 6.4345 0.0000 36.2185 0.0000
# 6 0.0000 0.0000 0.0000 -5.9926 0.0000 26.4178
#
#
#
# Elastic Compliance Matrix: (Units=1/GPa)
#
#
# Indices 1 2 3 4 5 6 
#
# 1 0.014511 -0.002096 -0.000610 0.000000 0.001849 0.000000
# 2 -0.002096 0.007289 -0.003521 0.000000 -0.000734 0.000000
# 3 -0.000610 -0.003521 0.008836 0.000000 -0.001070 0.000000
# 4 0.000000 0.000000 0.000000 0.038814 0.000000 0.008804
# 5 0.001849 -0.000734 -0.001070 0.000000 0.028096 0.000000
# 6 0.000000 0.000000 0.000000 0.008804 0.000000 0.039851
#
#
# Mechanical properties :
#
#
# Convention : Reuss Voigt Hill
#
# Bulk Modulus (GPa) = 54.99962 71.39517 63.19740
# Shear Modulus (GPa) = 32.06966 36.71452 34.39209
#
# Velocity S-wave (km/s) = 3.68187 3.93949 3.81286
# Velocity P-wave (km/s) = 6.42836 7.13248 6.78955
#
# Compressibility (1/GPa) = 0.01818194
#
# Stress axis : x y z
#
# Youngs Moduli (GPa) = 68.91210 137.19193 113.17970
#
# Poissons Ratio (x) = 0.28753 0.06900
# Poissons Ratio (y) = 0.14443 0.39856
# Poissons Ratio (z) = 0.04201 0.48312
#
# Static dielectric constant tensor:
#      x y z
#    x 1.971460 0.000000 -0.004290 
#    y 0.000000 1.905720 0.000000 
#    z -0.004290 0.000000 1.952040 
# 
# From -- ./inp_files/152297.got.cif
#   From: 2010.05.17/outbox.cif.g08.bks.cpg/sg15_77_cif.got.tgz:152297.got - 2010.06.03 18:47:42.
