data_PCOD9306522
_publ_section_title
;
Structure prediction by ZEFSAII (Michael W. Deem and Ramdas Pophale) SiO2 
 PCOD9306522
Probable space group: C 2/C
;
_chemical_formula_sum "Si O2"
_cell_formula_units_Z 36
_cell_length_a 12.122132
_cell_length_b 6.908658
_cell_length_c 14.525186
_cell_angle_alpha 90.000000
_cell_angle_beta 93.155396
_cell_angle_gamma 90.000000
_cell_volume 1214.606161
_symmetry_space_group_name_H-M "C 2/C"
_symmetry_group_IT_number 15
_symmetry_cell_setting 'monoclinic'
loop_
_space_group_symop_operation_xyz
x,y,z
-x,y,1/2-z
-x,-y,-z
x,-y,1/2+z
1/2+x,1/2+y,z
1/2-x,1/2+y,1/2-z
1/2-x,1/2-y,-z
1/2+x,1/2-y,1/2+z
loop_
_atom_site_type_symbol
_atom_site_label
_atom_site_fract_x
_atom_site_fract_y
_atom_site_fract_z
Si Si1 0.849981 0.607859 0.567308
Si Si2 0.323371 0.686202 0.392265
Si Si3 0.995645 0.255978 0.557009
Si Si4 0.000000 0.232772 0.750000
Si Si5 0.240569 0.406265 0.700010
O O1 0.765212 0.433063 0.553216
O O2 0.958416 0.472802 0.587871
O O3 0.810093 0.753061 0.642956
O O4 0.880613 0.723587 0.476146
O O5 0.071981 0.809329 0.535741
O O6 0.317817 0.572375 0.294389
O O7 0.283266 0.896255 0.355658
O O8 0.978424 0.136235 0.649162
O O9 0.882126 0.342076 0.767908
#
# Coordination Sequence:
#
# PCOD9306522 Si02
#       5
#     8   8   8   4   8
#     4  11  25  50  80 118 158 216 273 341 416 497
#     4  12  25  48  82 117 161 219 265 339 420 496
#     4  11  26  49  83 116 167 215 275 345 422 482
#     4  12  26  50  76 116 166 222 270 354 410 480
#     4  12  26  49  80 117 169 209 281 342 413 506
#
# _framework density 29.639234999999999
#
# number of rings (size 3 to 8) (size 9 to 14) (size 15 to 20)
#    0.000    0.444    4.444    3.333    0.000    4.444 
#    4.000    6.667    0.000    0.000    0.000    0.000 
#    0.000    0.000    0.000    0.000    0.000    0.000 
#
# Total GULP energy -100814.479764 kJ/mol
# GULP energy per Si atom -5600.804431 kJ/mol
# Density = 2.957177 g / cm^3
# Si number density = 29.639235 Si / 1000 Ang^3
#
#
#
# Elastic Constant Matrix: (Units=GPa)
#
#
# Indices 1 2 3 4 5 6 
#
# 1 167.5122 61.7086 98.5564 0.0000 25.3962 0.0000
# 2 61.7086 162.1356 88.1961 0.0000 -9.7532 0.0000
# 3 98.5564 88.1961 319.3422 0.0000 8.3228 0.0000
# 4 0.0000 0.0000 0.0000 59.2453 0.0000 -6.8335
# 5 25.3962 -9.7532 8.3228 0.0000 75.7019 0.0000
# 6 0.0000 0.0000 0.0000 -6.8335 0.0000 58.7380
#
#
#
# Elastic Compliance Matrix: (Units=1/GPa)
#
#
# Indices 1 2 3 4 5 6 
#
# 1 0.008369 -0.002349 -0.001858 0.000000 -0.002906 0.000000
# 2 -0.002349 0.008020 -0.001542 0.000000 0.001991 0.000000
# 3 -0.001858 -0.001542 0.004132 0.000000 -0.000029 0.000000
# 4 0.000000 0.000000 0.000000 0.017109 0.000000 0.001990
# 5 -0.002906 0.001991 -0.000029 0.000000 0.014444 0.000000
# 6 0.000000 0.000000 0.000000 0.001990 0.000000 0.017256
#
#
# Mechanical properties :
#
#
# Convention : Reuss Voigt Hill
#
# Bulk Modulus (GPa) = 110.84000 127.32358 119.08179
# Shear Modulus (GPa) = 59.63998 65.43895 62.53947
#
# Velocity S-wave (km/s) = 4.49062 4.70387 4.59848
# Velocity P-wave (km/s) = 8.02279 8.51780 8.27400
#
# Compressibility (1/GPa) = 0.00902201
#
# Stress axis : x y z
#
# Youngs Moduli (GPa) = 119.48789 124.68381 242.03793
#
# Poissons Ratio (x) = 0.29290 0.44979
# Poissons Ratio (y) = 0.28070 0.37320
# Poissons Ratio (z) = 0.22205 0.19225
#
# Static dielectric constant tensor:
#      x y z
#    x 2.421510 0.000000 0.044760 
#    y 0.000000 2.383590 0.000000 
#    z 0.044760 0.000000 2.353980 
# 
# From -- ./inp_files/202020.got.cif
#   From: 2010.05.17/outbox.cif.g08.bks.cpg/sg15_102_cif.got.tgz:202020.got - 2010.06.03 18:47:42.
