data_PCOD9306723
_publ_section_title
;
Structure prediction by ZEFSAII (Michael W. Deem and Ramdas Pophale) SiO2 
 PCOD9306723
Probable space group: C 2/C
;
_chemical_formula_sum "Si O2"
_cell_formula_units_Z 44
_cell_length_a 9.558688
_cell_length_b 11.245539
_cell_length_c 25.052723
_cell_angle_alpha 90.000000
_cell_angle_beta 43.718259
_cell_angle_gamma 90.000000
_cell_volume 1861.154459
_symmetry_space_group_name_H-M "C 2/C"
_symmetry_group_IT_number 15
_symmetry_cell_setting 'monoclinic'
loop_
_space_group_symop_operation_xyz
x,y,z
-x,y,1/2-z
-x,-y,-z
x,-y,1/2+z
1/2+x,1/2+y,z
1/2-x,1/2+y,1/2-z
1/2-x,1/2-y,-z
1/2+x,1/2-y,1/2+z
loop_
_atom_site_type_symbol
_atom_site_label
_atom_site_fract_x
_atom_site_fract_y
_atom_site_fract_z
Si Si1 0.500000 0.539298 0.250000
Si Si2 0.280897 0.015243 0.964914
Si Si3 0.663681 0.854892 0.384065
Si Si4 0.945114 0.732450 0.385761
Si Si5 0.272755 0.357611 0.715134
Si Si6 0.341660 0.557311 0.618194
O O1 0.310803 0.455481 0.318309
O O2 0.566076 0.615989 0.282652
O O3 0.357211 0.879825 0.940566
O O4 0.440735 0.092958 0.952831
O O5 0.275831 0.059905 0.904930
O O6 0.052705 0.013071 0.048627
O O7 0.766134 0.810862 0.410114
O O8 0.661231 0.744603 0.343912
O O9 0.070819 0.685154 0.300381
O O10 0.093752 0.813945 0.379095
O O11 0.239956 0.480396 0.692502
#
# Coordination Sequence:
#
# PCOD9306723 Si02
#       6
#     4   8   8   8   8   8
#     4  12  24  44  64 110 132 182 236 284 358 408
#     4  11  27  47  72 102 144 190 230 291 350 422
#     4  12  24  43  70 101 138 180 232 290 349 405
#     4  12  24  46  72  99 139 186 233 292 346 411
#     4  12  24  43  73 101 142 178 235 294 341 420
#     4  11  26  49  70 105 144 186 237 282 358 422
#
# _framework density 23.641241000000001
#
# number of rings (size 3 to 8) (size 9 to 14) (size 15 to 20)
#    0.000    0.364    7.273    0.545    2.545    1.455 
#    0.000    0.000    0.000    0.000    0.000    0.000 
#    0.000    0.000    0.000    0.000    0.000    0.000 
#
# Total GULP energy -123404.268268 kJ/mol
# GULP energy per Si atom -5609.284921 kJ/mol
# Density = 2.358743 g / cm^3
# Si number density = 23.641241 Si / 1000 Ang^3
#
#
#
# Elastic Constant Matrix: (Units=GPa)
#
#
# Indices 1 2 3 4 5 6 
#
# 1 96.5231 61.4883 -0.2141 0.0000 8.0931 0.0000
# 2 61.4883 29.8558 7.4939 0.0000 7.1139 0.0000
# 3 -0.2141 7.4939 52.5852 -0.0001 5.9943 -0.0001
# 4 0.0000 0.0000 -0.0001 11.4021 0.0000 -15.8870
# 5 8.0931 7.1139 5.9943 0.0000 35.5269 0.0000
# 6 0.0000 0.0000 -0.0001 -15.8870 0.0000 39.1695
#
#
#
# Elastic Compliance Matrix: (Units=1/GPa)
#
#
# Indices 1 2 3 4 5 6 
#
# 1 -0.027958 0.060700 -0.008264 0.000000 -0.004391 0.000000
# 2 0.060700 -0.095639 0.013530 0.000001 0.003040 0.000000
# 3 -0.008264 0.013530 0.017485 0.000000 -0.003777 0.000000
# 4 0.000000 0.000001 0.000000 0.201678 0.000000 0.081800
# 5 -0.004391 0.003040 -0.003777 0.000000 0.029177 0.000000
# 6 0.000000 0.000000 0.000000 0.081800 0.000000 0.058708
#
#
# Mechanical properties :
#
#
# Convention : Reuss Voigt Hill
#
# Bulk Modulus (GPa) = 38.72668 35.16670 36.94669
# Shear Modulus (GPa) = 83.16071 24.56610 53.86340
#
# Velocity S-wave (km/s) = 5.93738 3.22704 4.77840
# Velocity P-wave (km/s) = 7.96366 5.36586 6.79015
#
# Compressibility (1/GPa) = 0.02582199
#
# Stress axis : x y z
#
# Youngs Moduli (GPa) = -35.76792 -10.45594 57.19040
#
# Poissons Ratio (x) = 0.63468 0.47261
# Poissons Ratio (y) = 2.17113 -0.77380
# Poissons Ratio (z) = -0.29558 0.14147
#
# Static dielectric constant tensor:
#      x y z
#    x 1.865650 0.000000 -0.014590 
#    y 0.000000 1.865820 0.000000 
#    z -0.014590 0.000000 1.892670 
# 
# From -- ./inp_files/230241.got.cif
#   From: 2010.05.17/outbox.cif.g08.bks.cpg/sg15_116_cif.got.tgz:230241.got - 2010.06.03 18:47:42.
