data_PCOD9306156
_publ_section_title
;
Structure prediction by ZEFSAII (Michael W. Deem and Ramdas Pophale) SiO2 
 PCOD9306156
Probable space group: C 2/C
;
_chemical_formula_sum "Si O2"
_cell_formula_units_Z 44
_cell_length_a 21.251374
_cell_length_b 6.643469
_cell_length_c 14.677221
_cell_angle_alpha 90.000000
_cell_angle_beta 76.368479
_cell_angle_gamma 90.000000
_cell_volume 2013.801818
_symmetry_space_group_name_H-M "C 2/C"
_symmetry_group_IT_number 15
_symmetry_cell_setting 'monoclinic'
loop_
_space_group_symop_operation_xyz
x,y,z
-x,y,1/2-z
-x,-y,-z
x,-y,1/2+z
1/2+x,1/2+y,z
1/2-x,1/2+y,1/2-z
1/2-x,1/2-y,-z
1/2+x,1/2-y,1/2+z
loop_
_atom_site_type_symbol
_atom_site_label
_atom_site_fract_x
_atom_site_fract_y
_atom_site_fract_z
Si Si1 0.295156 0.446162 0.988562
Si Si2 0.526679 0.951480 0.392213
Si Si3 0.153993 0.401217 0.263814
Si Si4 0.766117 0.735784 0.341999
Si Si5 0.921181 0.859441 0.860682
Si Si6 0.500000 0.286209 0.250000
O O1 0.283489 0.579333 0.901741
O O2 0.371214 0.394432 0.960502
O O3 0.250000 0.250000 0.000000
O O4 0.272915 0.578199 0.081561
O O5 0.518121 0.138764 0.326586
O O6 0.500000 0.000000 0.500000
O O7 0.602916 0.906044 0.363641
O O8 0.484280 0.766092 0.368500
O O9 0.172104 0.619226 0.218331
O O10 0.220347 0.305977 0.276056
O O11 0.119171 0.274322 0.197162
O O12 0.944469 0.064885 0.806184
#
# Coordination Sequence:
#
# PCOD9306156 Si02
#       6
#     8   8   8   8   8   4
#     4  11  25  45  71 106 144 188 247 298 364 435
#     4  12  29  46  75 108 145 190 248 306 361 449
#     4  12  24  49  68 106 146 184 247 294 368 438
#     4  11  27  43  74 105 142 196 235 308 359 438
#     4  12  25  47  73 105 143 193 243 299 371 435
#     4  12  24  50  74 100 148 200 230 308 368 424
#
# _framework density 21.849221
#
# number of rings (size 3 to 8) (size 9 to 14) (size 15 to 20)
#    0.000    0.364    5.455    2.182    5.091    2.182 
#    0.000    0.000    0.000    0.000    0.000    0.000 
#    0.000    0.000    0.000    0.000    0.000    0.000 
#
# Total GULP energy -123197.984430 kJ/mol
# GULP energy per Si atom -5599.908383 kJ/mol
# Density = 2.179949 g / cm^3
# Si number density = 21.849221 Si / 1000 Ang^3
#
#
#
# Elastic Constant Matrix: (Units=GPa)
#
#
# Indices 1 2 3 4 5 6 
#
# 1 82.8678 39.7545 17.7498 0.0000 -29.8819 0.0000
# 2 39.7545 120.2697 21.8735 0.0000 -13.7735 0.0000
# 3 17.7498 21.8735 83.4154 0.0000 -21.9234 0.0000
# 4 0.0000 0.0000 0.0000 38.0844 0.0000 -13.2231
# 5 -29.8819 -13.7735 -21.9234 0.0000 48.5837 0.0000
# 6 0.0000 0.0000 0.0000 -13.2231 0.0000 45.0082
#
#
#
# Elastic Compliance Matrix: (Units=1/GPa)
#
#
# Indices 1 2 3 4 5 6 
#
# 1 0.017832 -0.004792 -0.000014 0.000000 0.009603 0.000000
# 2 -0.004792 0.010135 -0.001880 0.000000 -0.000923 0.000000
# 3 -0.000014 -0.001880 0.014003 0.000000 0.005777 0.000000
# 4 0.000000 0.000000 0.000000 0.029240 0.000000 0.008591
# 5 0.009603 -0.000923 0.005777 0.000000 0.028835 0.000000
# 6 0.000000 0.000000 0.000000 0.008591 0.000000 0.024742
#
#
# Mechanical properties :
#
#
# Convention : Reuss Voigt Hill
#
# Bulk Modulus (GPa) = 34.96905 49.47872 42.22389
# Shear Modulus (GPa) = 33.85434 40.14697 37.00065
#
# Velocity S-wave (km/s) = 3.94058 4.29121 4.11962
# Velocity P-wave (km/s) = 6.06166 6.87367 6.48039
#
# Compressibility (1/GPa) = 0.02859672
#
# Stress axis : x y z
#
# Youngs Moduli (GPa) = 56.07866 98.66849 71.41546
#
# Poissons Ratio (x) = 0.47282 0.00100
# Poissons Ratio (y) = 0.26873 0.13429
# Poissons Ratio (z) = 0.00079 0.18554
#
# Static dielectric constant tensor:
#      x y z
#    x 1.784100 0.000000 -0.033930 
#    y 0.000000 1.796820 0.000000 
#    z -0.033930 0.000000 1.766760 
# 
# From -- ./inp_files/170815.got.cif
#   From: 2010.05.17/outbox.cif.g08.bks.cpg/sg15_86_cif.got.tgz:170815.got - 2010.06.03 18:47:42.
