data_PCOD9306458
_publ_section_title
;
Structure prediction by ZEFSAII (Michael W. Deem and Ramdas Pophale) SiO2 
 PCOD9306458
Probable space group: C 2/C
;
_chemical_formula_sum "Si O2"
_cell_formula_units_Z 56
_cell_length_a 12.349502
_cell_length_b 7.772677
_cell_length_c 27.340111
_cell_angle_alpha 90.000000
_cell_angle_beta 126.554586
_cell_angle_gamma 90.000000
_cell_volume 2108.106727
_symmetry_space_group_name_H-M "C 2/C"
_symmetry_group_IT_number 15
_symmetry_cell_setting 'monoclinic'
loop_
_space_group_symop_operation_xyz
x,y,z
-x,y,1/2-z
-x,-y,-z
x,-y,1/2+z
1/2+x,1/2+y,z
1/2-x,1/2+y,1/2-z
1/2-x,1/2-y,-z
1/2+x,1/2-y,1/2+z
loop_
_atom_site_type_symbol
_atom_site_label
_atom_site_fract_x
_atom_site_fract_y
_atom_site_fract_z
Si Si1 0.632125 0.670208 0.817944
Si Si2 0.139437 0.426880 0.486823
Si Si3 0.675781 0.313927 0.875902
Si Si4 0.379368 0.277946 0.817716
Si Si5 0.774527 0.154193 0.811893
Si Si6 0.546805 0.235882 0.399361
Si Si7 0.427292 0.429296 0.527283
O O1 0.500000 0.720448 0.750000
O O2 0.625803 0.467484 0.827349
O O3 0.769528 0.702174 0.825634
O O4 0.629830 0.760623 0.871109
O O5 0.213394 0.405139 0.559247
O O6 0.918223 0.393880 0.547547
O O7 0.265159 0.408511 0.482506
O O8 0.032881 0.271425 0.458480
O O9 0.539564 0.254177 0.865990
O O10 0.733394 0.162516 0.857486
O O11 0.338994 0.478731 0.809766
O O12 0.345397 0.202614 0.755615
O O13 0.894130 0.293792 0.841027
O O14 0.552689 0.425465 0.425934
O O15 0.500000 0.500000 0.500000
#
# Coordination Sequence:
#
# PCOD9306458 Si02
#       7
#     8   8   8   8   8   8   8
#     4  12  25  52  81 111 163 211 266 345 410 480
#     4  11  27  51  76 118 160 212 274 325 414 492
#     4  12  26  51  79 115 160 209 271 336 409 494
#     4  12  26  51  79 117 159 212 268 343 410 482
#     4  12  26  50  79 114 157 210 276 335 414 488
#     4  12  26  54  81 117 167 214 275 341 411 493
#     4  11  25  48  79 112 160 207 266 331 402 486
#
# _framework density 26.564118000000001
#
# number of rings (size 3 to 8) (size 9 to 14) (size 15 to 20)
#    0.000    0.286    4.286    3.429    0.000    8.000 
#   18.000    0.000    0.000    0.857    0.000    0.000 
#    0.000    0.000    0.000    0.000    0.000    0.000 
#
# Total GULP energy -156689.990886 kJ/mol
# GULP energy per Si atom -5596.071103 kJ/mol
# Density = 2.650366 g / cm^3
# Si number density = 26.564118 Si / 1000 Ang^3
#
#
#
# Elastic Constant Matrix: (Units=GPa)
#
#
# Indices 1 2 3 4 5 6 
#
# 1 113.7875 9.6018 30.2413 0.0000 -21.4012 0.0000
# 2 9.6018 88.4625 38.0438 0.0000 1.4400 0.0000
# 3 30.2413 38.0438 131.2287 0.0000 -14.9998 0.0000
# 4 0.0000 0.0000 0.0000 24.4995 0.0000 -4.7873
# 5 -21.4012 1.4400 -14.9998 0.0000 49.6249 0.0000
# 6 0.0000 0.0000 0.0000 -4.7873 0.0000 39.2700
#
#
#
# Elastic Compliance Matrix: (Units=1/GPa)
#
#
# Indices 1 2 3 4 5 6 
#
# 1 0.010002 -0.000391 -0.001758 0.000000 0.003793 0.000000
# 2 -0.000391 0.013047 -0.003889 0.000000 -0.001723 0.000000
# 3 -0.001758 -0.003889 0.009404 0.000000 0.002197 0.000000
# 4 0.000000 0.000000 0.000000 0.041813 0.000000 0.005097
# 5 0.003793 -0.001723 0.002197 0.000000 0.022501 0.000000
# 6 0.000000 0.000000 0.000000 0.005097 0.000000 0.026086
#
#
# Mechanical properties :
#
#
# Convention : Reuss Voigt Hill
#
# Bulk Modulus (GPa) = 49.07635 54.36138 51.71887
# Shear Modulus (GPa) = 35.28006 39.71834 37.49920
#
# Velocity S-wave (km/s) = 3.64828 3.87096 3.76127
# Velocity P-wave (km/s) = 6.02174 6.36300 6.19472
#
# Compressibility (1/GPa) = 0.02037641
#
# Stress axis : x y z
#
# Youngs Moduli (GPa) = 99.97990 76.64400 106.33731
#
# Poissons Ratio (x) = 0.03000 0.18693
# Poissons Ratio (y) = 0.03913 0.41357
# Poissons Ratio (z) = 0.17575 0.29809
#
# Static dielectric constant tensor:
#      x y z
#    x 2.086970 0.000000 -0.016850 
#    y 0.000000 2.217520 0.000000 
#    z -0.016850 0.000000 2.175140 
# 
# From -- ./inp_files/291637.got.cif
#   From: 2010.05.17/outbox.cif.g08.bks.cpg/sg15_146_cif.got.tgz:291637.got - 2010.06.03 18:47:42.
