data_PCOD9306769
_publ_section_title
;
Structure prediction by ZEFSAII (Michael W. Deem and Ramdas Pophale) SiO2 
 PCOD9306769
Probable space group: C 2/C
;
_chemical_formula_sum "Si O2"
_cell_formula_units_Z 32
_cell_length_a 11.579678
_cell_length_b 17.406947
_cell_length_c 9.704138
_cell_angle_alpha 90.000000
_cell_angle_beta 37.588508
_cell_angle_gamma 90.000000
_cell_volume 1193.152875
_symmetry_space_group_name_H-M "C 2/C"
_symmetry_group_IT_number 15
_symmetry_cell_setting 'monoclinic'
loop_
_space_group_symop_operation_xyz
x,y,z
-x,y,1/2-z
-x,-y,-z
x,-y,1/2+z
1/2+x,1/2+y,z
1/2-x,1/2+y,1/2-z
1/2-x,1/2-y,-z
1/2+x,1/2-y,1/2+z
loop_
_atom_site_type_symbol
_atom_site_label
_atom_site_fract_x
_atom_site_fract_y
_atom_site_fract_z
Si Si1 0.186841 0.552949 0.481057
Si Si2 0.028917 0.636107 0.377668
Si Si3 0.500000 0.424488 0.250000
Si Si4 0.500000 0.323078 0.750000
Si Si5 0.122408 0.197647 0.839364
O O1 0.872876 0.427632 0.619649
O O2 0.326023 0.480927 0.377319
O O3 0.317786 0.624611 0.397482
O O4 0.000000 0.553466 0.750000
O O5 0.827032 0.658003 0.636711
O O6 0.000000 0.608746 0.250000
O O7 0.130713 0.718788 0.263696
O O8 0.510241 0.365036 0.111998
O O9 0.548887 0.282772 0.561523
#
# Coordination Sequence:
#
# PCOD9306769 Si02
#       5
#     8   8   4   4   8
#     4  11  26  54  80 121 169 225 272 338 424 503
#     4  12  27  50  85 127 161 221 282 347 411 493
#     4  11  30  54  82 120 174 219 272 347 420 500
#     4  11  26  50  82 122 162 219 274 345 406 496
#     4  12  27  52  83 125 170 215 282 345 416 495
#
# _framework density 26.819699
#
# number of rings (size 3 to 8) (size 9 to 14) (size 15 to 20)
#    0.000    0.500    3.750    2.250    5.250    8.000 
#    0.000    0.000    0.000    0.000    0.000    0.000 
#    0.000    0.000    0.000    0.000    0.000    0.000 
#
# Total GULP energy -89737.056890 kJ/mol
# GULP energy per Si atom -5608.566056 kJ/mol
# Density = 2.675866 g / cm^3
# Si number density = 26.819699 Si / 1000 Ang^3
#
#
#
# Elastic Constant Matrix: (Units=GPa)
#
#
# Indices 1 2 3 4 5 6 
#
# 1 220.3793 97.6623 84.7774 -0.0027 14.7734 0.0035
# 2 97.6623 121.5429 45.6381 -0.0044 -29.1114 0.0015
# 3 84.7774 45.6381 170.7273 -0.0059 -9.1375 0.0043
# 4 -0.0027 -0.0044 -0.0059 -15.8691 0.0005 -85.2658
# 5 14.7734 -29.1114 -9.1375 0.0005 44.9997 -0.0026
# 6 0.0035 0.0015 0.0043 -85.2658 -0.0026 -69.1841
#
#
#
# Elastic Compliance Matrix: (Units=1/GPa)
#
#
# Indices 1 2 3 4 5 6 
#
# 1 0.011157 -0.010345 -0.003365 0.000000 -0.011038 0.000000
# 2 -0.010345 0.020303 0.000601 0.000000 0.016652 -0.000001
# 3 -0.003365 0.000601 0.007530 0.000001 0.003023 -0.000001
# 4 0.000000 0.000000 0.000001 0.011209 -0.000001 -0.013814
# 5 -0.011038 0.016652 0.003023 -0.000001 0.037233 0.000000
# 6 0.000000 -0.000001 -0.000001 -0.013814 0.000000 0.002571
#
#
# Mechanical properties :
#
#
# Convention : Reuss Voigt Hill
#
# Bulk Modulus (GPa) = 78.30707 107.64503 92.97605
# Shear Modulus (GPa) = 41.50185 10.96074 26.23130
#
# Velocity S-wave (km/s) = 3.93802 2.02378 3.13079
# Velocity P-wave (km/s) = 7.06670 6.75904 6.91458
#
# Compressibility (1/GPa) = 0.01277024
#
# Stress axis : x y z
#
# Youngs Moduli (GPa) = 89.63347 49.25477 132.80896
#
# Poissons Ratio (x) = 0.50952 0.44696
# Poissons Ratio (y) = 0.92723 -0.07980
# Poissons Ratio (z) = 0.30166 -0.02960
#
# Static dielectric constant tensor:
#      x y z
#    x 2.175960 0.000000 -0.038580 
#    y 0.000000 2.003280 0.000000 
#    z -0.038580 0.000000 2.086380 
# 
# From -- ./inp_files/41125.got.cif
#   From: 2010.05.17/outbox.cif.g08.bks.cpg/sg15_21_cif.got.tgz:41125.got - 2010.06.03 18:47:42.
