data_PCOD9306487
_publ_section_title
;
Structure prediction by ZEFSAII (Michael W. Deem and Ramdas Pophale) SiO2 
 PCOD9306487
Probable space group: C 2/C
;
_chemical_formula_sum "Si O2"
_cell_formula_units_Z 24
_cell_length_a 7.341437
_cell_length_b 7.154053
_cell_length_c 21.166981
_cell_angle_alpha 90.000000
_cell_angle_beta 58.651040
_cell_angle_gamma 90.000000
_cell_volume 949.417944
_symmetry_space_group_name_H-M "C 2/C"
_symmetry_group_IT_number 15
_symmetry_cell_setting 'monoclinic'
loop_
_space_group_symop_operation_xyz
x,y,z
-x,y,1/2-z
-x,-y,-z
x,-y,1/2+z
1/2+x,1/2+y,z
1/2-x,1/2+y,1/2-z
1/2-x,1/2-y,-z
1/2+x,1/2-y,1/2+z
loop_
_atom_site_type_symbol
_atom_site_label
_atom_site_fract_x
_atom_site_fract_y
_atom_site_fract_z
Si Si1 0.333539 0.347890 0.334664
Si Si2 0.087531 0.402109 0.165336
Si Si3 0.045206 0.875000 0.053196
O O1 0.500000 0.402936 0.250000
O O2 0.095264 0.375000 0.353157
O O3 0.390520 0.450806 0.389364
O O4 0.364656 0.124999 0.340230
O O5 0.000000 0.347059 0.250000
O O6 0.308614 0.299194 0.110636
O O7 0.250000 0.750000 0.000000
O O8 0.000000 0.000000 0.000000
#
# Coordination Sequence:
#
# PCOD9306487 Si02
#       3
#     8   8   8
#     4  11  25  49  77 110 150 204 256 307 373 457
#     4  11  25  49  77 110 150 204 256 307 373 457
#     4  12  26  50  75 118 154 196 250 322 381 440
#
# _framework density 25.278645999999998
#
# number of rings (size 3 to 8) (size 9 to 14) (size 15 to 20)
#    0.000    0.667    6.667    0.000    0.000    5.333 
#    0.000    0.000    0.000    0.000    0.000    0.000 
#    0.000    0.000    0.000    0.000    0.000    0.000 
#
# Total GULP energy -67204.521958 kJ/mol
# GULP energy per Si atom -5600.376830 kJ/mol
# Density = 2.522111 g / cm^3
# Si number density = 25.278646 Si / 1000 Ang^3
#
#
#
# Elastic Constant Matrix: (Units=GPa)
#
#
# Indices 1 2 3 4 5 6 
#
# 1 332.9984 80.9601 119.6621 0.0000 -4.0795 0.0000
# 2 80.9601 121.6716 33.7296 0.0000 -2.1537 0.0000
# 3 119.6621 33.7296 235.5048 0.0000 -0.3692 0.0000
# 4 0.0000 0.0000 0.0000 -40.1566 0.0000 -4.4291
# 5 -4.0795 -2.1537 -0.3692 0.0000 62.1182 0.0000
# 6 0.0000 0.0000 0.0000 -4.4291 0.0000 56.9592
#
#
#
# Elastic Compliance Matrix: (Units=1/GPa)
#
#
# Indices 1 2 3 4 5 6 
#
# 1 0.004216 -0.002299 -0.001812 0.000000 0.000186 0.000000
# 2 -0.002299 0.009818 -0.000238 0.000000 0.000188 0.000000
# 3 -0.001812 -0.000238 0.005201 0.000000 -0.000096 0.000000
# 4 0.000000 0.000000 0.000000 -0.024691 0.000000 -0.001920
# 5 0.000186 0.000188 -0.000096 0.000000 0.016117 0.000000
# 6 0.000000 0.000000 0.000000 -0.001920 0.000000 0.017407
#
#
# Mechanical properties :
#
#
# Convention : Reuss Voigt Hill
#
# Bulk Modulus (GPa) = 94.91238 128.76427 111.83832
# Shear Modulus (GPa) = 124.13716 46.17234 85.15475
#
# Velocity S-wave (km/s) = 7.01528 4.27843 5.81030
# Velocity P-wave (km/s) = 10.16104 8.68650 9.45257
#
# Compressibility (1/GPa) = 0.01053603
#
# Stress axis : x y z
#
# Youngs Moduli (GPa) = 237.21437 101.85373 192.27239
#
# Poissons Ratio (x) = 0.23420 0.34847
# Poissons Ratio (y) = 0.54543 0.04568
# Poissons Ratio (z) = 0.42992 0.02420
#
# Static dielectric constant tensor:
#      x y z
#    x 1.898490 0.000000 0.004960 
#    y 0.000000 2.155320 0.000000 
#    z 0.004960 0.000000 2.007260 
# 
# From -- ./inp_files/183397.got.cif
#   From: 2010.05.17/outbox.cif.g08.bks.cpg/sg15_92_cif.got.tgz:183397.got - 2010.06.03 18:47:42.
