data_PCOD9306587
_publ_section_title
;
Structure prediction by ZEFSAII (Michael W. Deem and Ramdas Pophale) SiO2 
 PCOD9306587
Probable space group: C 2/C
;
_chemical_formula_sum "Si O2"
_cell_formula_units_Z 44
_cell_length_a 5.089199
_cell_length_b 17.986563
_cell_length_c 20.309995
_cell_angle_alpha 90.000000
_cell_angle_beta 114.164546
_cell_angle_gamma 90.000000
_cell_volume 1696.212041
_symmetry_space_group_name_H-M "C 2/C"
_symmetry_group_IT_number 15
_symmetry_cell_setting 'monoclinic'
loop_
_space_group_symop_operation_xyz
x,y,z
-x,y,1/2-z
-x,-y,-z
x,-y,1/2+z
1/2+x,1/2+y,z
1/2-x,1/2+y,1/2-z
1/2-x,1/2-y,-z
1/2+x,1/2-y,1/2+z
loop_
_atom_site_type_symbol
_atom_site_label
_atom_site_fract_x
_atom_site_fract_y
_atom_site_fract_z
Si Si1 0.489079 0.411506 0.173838
Si Si2 0.423124 0.992126 0.067303
Si Si3 0.133827 0.843548 0.058657
Si Si4 0.097534 0.367075 0.650334
Si Si5 0.500000 0.024501 0.250000
Si Si6 0.448754 0.714497 0.399075
O O1 0.500000 0.383391 0.250000
O O2 0.201230 0.458424 0.132790
O O3 0.499366 0.351153 0.116941
O O4 0.759479 0.469186 0.195003
O O5 0.182127 0.929648 0.046323
O O6 0.389208 0.074616 0.090826
O O7 0.500000 0.000000 0.000000
O O8 0.426484 0.796742 0.098361
O O9 0.988147 0.803240 0.981488
O O10 0.171385 0.418246 0.720277
O O11 0.880975 0.302621 0.650722
O O12 0.342675 0.337158 0.626051
#
# Coordination Sequence:
#
# PCOD9306587 Si02
#       6
#     8   8   8   8   4   8
#     4  12  24  45  73 109 152 197 256 317 388 455
#     4  12  24  41  77 111 143 190 262 315 372 445
#     4  11  26  45  73 111 146 203 243 318 377 465
#     4  12  25  47  72 109 143 199 245 316 371 455
#     4  12  26  44  72 110 148 198 250 324 380 454
#     4  11  28  47  75 108 159 190 252 311 393 445
#
# _framework density 25.940155000000001
#
# number of rings (size 3 to 8) (size 9 to 14) (size 15 to 20)
#    0.000    0.364    5.455    2.182    2.545    2.909 
#    1.636    1.818    0.000    0.000    0.000    0.000 
#    0.000    0.000    0.000    0.000    0.000    0.000 
#
# Total GULP energy -123123.346862 kJ/mol
# GULP energy per Si atom -5596.515766 kJ/mol
# Density = 2.588111 g / cm^3
# Si number density = 25.940155 Si / 1000 Ang^3
#
#
#
# Elastic Constant Matrix: (Units=GPa)
#
#
# Indices 1 2 3 4 5 6 
#
# 1 128.2936 30.9864 39.3487 0.0000 -19.2041 0.0000
# 2 30.9864 117.1733 -0.6609 0.0000 -24.5346 0.0000
# 3 39.3487 -0.6609 91.1721 0.0000 -39.1971 0.0000
# 4 0.0000 0.0000 0.0000 6.2552 0.0000 -12.9685
# 5 -19.2041 -24.5346 -39.1971 0.0000 52.8683 0.0000
# 6 0.0000 0.0000 0.0000 -12.9685 0.0000 53.5782
#
#
#
# Elastic Compliance Matrix: (Units=1/GPa)
#
#
# Indices 1 2 3 4 5 6 
#
# 1 0.009770 -0.002899 -0.004830 0.000000 -0.001377 0.000000
# 2 -0.002899 0.010854 0.004466 0.000000 0.007295 0.000000
# 3 -0.004830 0.004466 0.019408 0.000000 0.014708 0.000000
# 4 0.000000 0.000000 0.000000 0.320909 0.000000 0.077676
# 5 -0.001377 0.007295 0.014708 0.000000 0.032705 0.000000
# 6 0.000000 0.000000 0.000000 0.077676 0.000000 0.037466
#
#
# Mechanical properties :
#
#
# Convention : Reuss Voigt Hill
#
# Bulk Modulus (GPa) = 29.84490 52.88746 41.36618
# Shear Modulus (GPa) = 11.14066 40.33798 25.73932
#
# Velocity S-wave (km/s) = 2.07463 3.94768 3.15343
# Velocity P-wave (km/s) = 4.15560 6.41961 5.40742
#
# Compressibility (1/GPa) = 0.03350656
#
# Stress axis : x y z
#
# Youngs Moduli (GPa) = 102.35355 92.13362 51.52407
#
# Poissons Ratio (x) = 0.26713 0.24885
# Poissons Ratio (y) = 0.29676 -0.23012
# Poissons Ratio (z) = 0.49435 -0.41150
#
# Static dielectric constant tensor:
#      x y z
#    x 2.115000 0.000000 0.034870 
#    y 0.000000 2.119280 0.000000 
#    z 0.034870 0.000000 2.207420 
# 
# From -- ./inp_files/227064.got.cif
#   From: 2010.05.17/outbox.cif.g08.bks.cpg/sg15_114_cif.got.tgz:227064.got - 2010.06.03 18:47:42.
