data_PCOD9306901
_publ_section_title
;
Structure prediction by ZEFSAII (Michael W. Deem and Ramdas Pophale) SiO2 
 PCOD9306901
Probable space group: C 2/C
;
_chemical_formula_sum "Si O2"
_cell_formula_units_Z 32
_cell_length_a 7.220065
_cell_length_b 7.275197
_cell_length_c 26.417563
_cell_angle_alpha 90.000000
_cell_angle_beta 120.275046
_cell_angle_gamma 90.000000
_cell_volume 1198.391989
_symmetry_space_group_name_H-M "C 2/C"
_symmetry_group_IT_number 15
_symmetry_cell_setting 'monoclinic'
loop_
_space_group_symop_operation_xyz
x,y,z
-x,y,1/2-z
-x,-y,-z
x,-y,1/2+z
1/2+x,1/2+y,z
1/2-x,1/2+y,1/2-z
1/2-x,1/2-y,-z
1/2+x,1/2-y,1/2+z
loop_
_atom_site_type_symbol
_atom_site_label
_atom_site_fract_x
_atom_site_fract_y
_atom_site_fract_z
Si Si1 0.703328 0.528789 0.175979
Si Si2 0.777311 0.504751 0.403063
Si Si3 0.029745 0.217132 0.499619
Si Si4 0.157115 0.385836 0.693736
O O1 0.715367 0.583937 0.236791
O O2 0.725839 0.308887 0.181063
O O3 0.908347 0.606214 0.175220
O O4 0.654514 0.827892 0.055303
O O5 0.931373 0.669506 0.443204
O O6 0.531858 0.563002 0.378022
O O7 0.805497 0.474023 0.346925
O O8 0.250000 0.250000 0.500000
O O9 0.000000 0.000000 0.500000
#
# Coordination Sequence:
#
# PCOD9306901 Si02
#       4
#     8   8   8   8
#     4  11  29  50  81 122 166 212 272 338 419 502
#     4  11  29  50  84 118 167 217 282 338 424 493
#     4  11  30  53  81 120 164 218 286 350 414 488
#     4  11  29  50  81 122 166 212 272 338 419 502
#
# _framework density 26.702448
#
# number of rings (size 3 to 8) (size 9 to 14) (size 15 to 20)
#    0.000    1.000    0.000    0.750   28.000    2.000 
#    0.000    3.750    0.000    0.000    0.000    0.000 
#    0.000    0.000    0.000    0.000    0.000    0.000 
#
# Total GULP energy -89907.964835 kJ/mol
# GULP energy per Si atom -5619.247802 kJ/mol
# Density = 2.664167 g / cm^3
# Si number density = 26.702448 Si / 1000 Ang^3
#
#
#
# Elastic Constant Matrix: (Units=GPa)
#
#
# Indices 1 2 3 4 5 6 
#
# 1 132.5473 42.1564 59.9303 0.0000 22.2109 0.0000
# 2 42.1564 177.0608 36.1591 0.0000 18.7279 0.0000
# 3 59.9303 36.1591 120.2789 0.0000 27.3864 0.0000
# 4 0.0000 0.0000 0.0000 29.9635 0.0000 11.1772
# 5 22.2109 18.7279 27.3864 0.0000 50.1941 0.0000
# 6 0.0000 0.0000 0.0000 11.1772 0.0000 31.7184
#
#
#
# Elastic Compliance Matrix: (Units=1/GPa)
#
#
# Indices 1 2 3 4 5 6 
#
# 1 0.010200 -0.001377 -0.004291 0.000000 -0.001659 0.000000
# 2 -0.001377 0.006295 -0.000925 0.000000 -0.001235 0.000000
# 3 -0.004291 -0.000925 0.011669 0.000000 -0.004123 0.000000
# 4 0.000000 0.000000 0.000000 0.038425 0.000000 -0.013541
# 5 -0.001659 -0.001235 -0.004123 0.000000 0.023367 0.000000
# 6 0.000000 0.000000 0.000000 -0.013541 0.000000 0.036299
#
#
# Mechanical properties :
#
#
# Convention : Reuss Voigt Hill
#
# Bulk Modulus (GPa) = 66.76318 78.48651 72.62485
# Shear Modulus (GPa) = 34.61788 41.81794 38.21791
#
# Velocity S-wave (km/s) = 3.60450 3.96166 3.78729
# Velocity P-wave (km/s) = 6.51001 7.09810 6.81041
#
# Compressibility (1/GPa) = 0.01497831
#
# Stress axis : x y z
#
# Youngs Moduli (GPa) = 98.03497 158.85220 85.69818
#
# Poissons Ratio (x) = 0.21872 0.36772
# Poissons Ratio (y) = 0.13498 0.07930
# Poissons Ratio (z) = 0.42065 0.14699
#
# Static dielectric constant tensor:
#      x y z
#    x 2.061830 0.000000 -0.048700 
#    y 0.000000 2.093540 0.000000 
#    z -0.048700 0.000000 2.152000 
# 
# From -- ./inp_files/229170.got.cif
#   From: 2010.05.17/outbox.cif.g08.bks.cpg/sg15_115_cif.got.tgz:229170.got - 2010.06.03 18:47:42.
