data_PCOD9306653
_publ_section_title
;
Structure prediction by ZEFSAII (Michael W. Deem and Ramdas Pophale) SiO2 
 PCOD9306653
Probable space group: C 2/C
;
_chemical_formula_sum "Si O2"
_cell_formula_units_Z 44
_cell_length_a 29.107478
_cell_length_b 11.704125
_cell_length_c 9.205155
_cell_angle_alpha 90.000000
_cell_angle_beta 136.405576
_cell_angle_gamma 90.000000
_cell_volume 2162.418800
_symmetry_space_group_name_H-M "C 2/C"
_symmetry_group_IT_number 15
_symmetry_cell_setting 'monoclinic'
loop_
_space_group_symop_operation_xyz
x,y,z
-x,y,1/2-z
-x,-y,-z
x,-y,1/2+z
1/2+x,1/2+y,z
1/2-x,1/2+y,1/2-z
1/2-x,1/2-y,-z
1/2+x,1/2-y,1/2+z
loop_
_atom_site_type_symbol
_atom_site_label
_atom_site_fract_x
_atom_site_fract_y
_atom_site_fract_z
Si Si1 0.000000 0.877524 0.250000
Si Si2 0.448670 0.037919 0.504900
Si Si3 0.189388 0.131366 0.456894
Si Si4 0.588143 0.737297 0.738557
Si Si5 0.874154 0.037820 0.896326
Si Si6 0.156033 0.332986 0.177174
O O1 0.981817 0.798536 0.346147
O O2 0.061601 0.959159 0.427532
O O3 0.413407 0.150109 0.362393
O O4 0.500000 0.000000 0.500000
O O5 0.395357 0.938411 0.420793
O O6 0.500000 0.066639 0.750000
O O7 0.149418 0.090561 0.506216
O O8 0.160764 0.251081 0.329465
O O9 0.267296 0.133793 0.672215
O O10 0.179968 0.043341 0.302801
O O11 0.609998 0.634322 0.686041
O O12 0.632752 0.762356 0.982381
#
# Coordination Sequence:
#
# PCOD9306653 Si02
#       6
#     4   8   8   8   8   8
#     4  12  24  46  72 104 146 174 238 304 356 408
#     4  12  27  45  71 103 140 189 235 286 357 422
#     4  11  26  47  73 104 143 189 241 289 359 418
#     4  12  26  45  73 104 141 187 233 300 356 419
#     4  12  26  44  74 107 138 186 240 297 358 420
#     4  11  26  50  70 101 150 190 234 297 345 430
#
# _framework density 20.347584000000001
#
# number of rings (size 3 to 8) (size 9 to 14) (size 15 to 20)
#    0.000    0.364    5.455    1.636    6.364    0.727 
#    3.273    0.000    0.000    0.000    0.000    0.000 
#    0.000    0.000    0.000    0.000    0.000    0.000 
#
# Total GULP energy -122987.766905 kJ/mol
# GULP energy per Si atom -5590.353041 kJ/mol
# Density = 2.030127 g / cm^3
# Si number density = 20.347584 Si / 1000 Ang^3
#
#
#
# Elastic Constant Matrix: (Units=GPa)
#
#
# Indices 1 2 3 4 5 6 
#
# 1 56.6622 23.9438 58.1801 0.0000 -12.5427 0.0000
# 2 23.9438 97.7717 39.6239 0.0000 -1.1977 0.0000
# 3 58.1801 39.6239 119.6860 0.0000 4.5928 0.0000
# 4 0.0000 0.0000 0.0000 33.7037 0.0000 -16.5664
# 5 -12.5427 -1.1977 4.5928 0.0000 32.2188 0.0000
# 6 0.0000 0.0000 0.0000 -16.5664 0.0000 19.3562
#
#
#
# Elastic Compliance Matrix: (Units=1/GPa)
#
#
# Indices 1 2 3 4 5 6 
#
# 1 0.046668 -0.001895 -0.022877 0.000000 0.021358 0.000000
# 2 -0.001895 0.011922 -0.003031 0.000000 0.000137 0.000000
# 3 -0.022877 -0.003031 0.020940 0.000000 -0.012004 0.000000
# 4 0.000000 0.000000 0.000000 0.051216 0.000000 0.043834
# 5 0.021358 0.000137 -0.012004 0.000000 0.041069 0.000000
# 6 0.000000 0.000000 0.000000 0.043834 0.000000 0.089179
#
#
# Mechanical properties :
#
#
# Convention : Reuss Voigt Hill
#
# Bulk Modulus (GPa) = 41.80219 57.51284 49.65752
# Shear Modulus (GPa) = 15.40471 27.21388 21.30930
#
# Velocity S-wave (km/s) = 2.75449 3.66108 3.23966
# Velocity P-wave (km/s) = 5.54120 6.79691 6.20092
#
# Compressibility (1/GPa) = 0.02392219
#
# Stress axis : x y z
#
# Youngs Moduli (GPa) = 21.42812 83.87778 47.75519
#
# Poissons Ratio (x) = 0.15899 1.09252
# Poissons Ratio (y) = 0.04062 0.14474
# Poissons Ratio (z) = 0.49022 0.25422
#
# Static dielectric constant tensor:
#      x y z
#    x 1.722040 0.000000 0.018050 
#    y 0.000000 1.613550 0.000000 
#    z 0.018050 0.000000 1.674830 
# 
# From -- ./inp_files/54340.got.cif
#   From: 2010.05.17/outbox.cif.g08.bks.cpg/sg15_28_cif.got.tgz:54340.got - 2010.06.03 18:47:42.
