data_PCOD9306089
_publ_section_title
;
Structure prediction by ZEFSAII (Michael W. Deem and Ramdas Pophale) SiO2 
 PCOD9306089
Probable space group: C 2/C
;
_chemical_formula_sum "Si O2"
_cell_formula_units_Z 44
_cell_length_a 6.691702
_cell_length_b 16.327790
_cell_length_c 23.754856
_cell_angle_alpha 90.000000
_cell_angle_beta 124.149643
_cell_angle_gamma 90.000000
_cell_volume 2147.946098
_symmetry_space_group_name_H-M "C 2/C"
_symmetry_group_IT_number 15
_symmetry_cell_setting 'monoclinic'
loop_
_space_group_symop_operation_xyz
x,y,z
-x,y,1/2-z
-x,-y,-z
x,-y,1/2+z
1/2+x,1/2+y,z
1/2-x,1/2+y,1/2-z
1/2-x,1/2-y,-z
1/2+x,1/2-y,1/2+z
loop_
_atom_site_type_symbol
_atom_site_label
_atom_site_fract_x
_atom_site_fract_y
_atom_site_fract_z
Si Si1 0.028937 0.073127 0.690840
Si Si2 0.000000 0.532954 0.250000
Si Si3 0.400411 0.288506 0.574184
Si Si4 0.720476 0.784609 0.326804
Si Si5 0.136731 0.454341 0.571891
Si Si6 0.090576 0.355333 0.869030
O O1 0.090259 0.142528 0.654507
O O2 0.000000 0.107226 0.750000
O O3 0.271317 0.019204 0.733082
O O4 0.808217 0.016471 0.634425
O O5 0.090861 0.588502 0.314801
O O6 0.250000 0.250000 0.500000
O O7 0.372403 0.230621 0.624653
O O8 0.296959 0.378440 0.574030
O O9 0.672771 0.300058 0.596306
O O10 0.500000 0.799741 0.250000
O O11 0.855019 0.701493 0.330704
O O12 0.000000 0.500000 0.500000
O O13 0.939003 0.412780 0.581473
#
# Coordination Sequence:
#
# PCOD9306089 Si02
#       6
#     8   4   8   8   8   8
#     4  12  26  44  68 107 138 177 234 291 346 414
#     4  12  22  44  70  98 134 174 232 282 350 400
#     4  11  27  46  68 100 138 186 231 279 348 419
#     4  11  27  43  69 104 136 180 231 280 346 413
#     4  11  27  45  69 100 138 182 232 284 348 419
#     4  11  25  44  71  96 139 183 223 291 339 412
#
# _framework density 20.484683
#
# number of rings (size 3 to 8) (size 9 to 14) (size 15 to 20)
#    0.000    0.727    4.545    1.091   11.455    3.636 
#    0.000    0.000    0.000    0.000    0.000    0.000 
#    0.000    0.000    0.000    0.000    0.000    0.000 
#
# Total GULP energy -123007.762524 kJ/mol
# GULP energy per Si atom -5591.261933 kJ/mol
# Density = 2.043806 g / cm^3
# Si number density = 20.484683 Si / 1000 Ang^3
#
#
#
# Elastic Constant Matrix: (Units=GPa)
#
#
# Indices 1 2 3 4 5 6 
#
# 1 115.5852 25.3709 43.6271 0.0000 -7.5212 0.0000
# 2 25.3709 75.0126 33.0620 0.0000 -10.6034 0.0000
# 3 43.6271 33.0620 99.6435 0.0000 -13.1891 0.0000
# 4 0.0000 0.0000 0.0000 39.1076 0.0000 -5.9895
# 5 -7.5212 -10.6034 -13.1891 0.0000 25.0526 0.0000
# 6 0.0000 0.0000 0.0000 -5.9895 0.0000 35.0070
#
#
#
# Elastic Compliance Matrix: (Units=1/GPa)
#
#
# Indices 1 2 3 4 5 6 
#
# 1 0.010570 -0.001767 -0.003999 0.000000 0.000320 0.000000
# 2 -0.001767 0.016327 -0.004084 0.000000 0.004230 0.000000
# 3 -0.003999 -0.004084 0.013709 0.000000 0.004288 0.000000
# 4 0.000000 0.000000 0.000000 0.026259 0.000000 0.004493
# 5 0.000320 0.004230 0.004288 0.000000 0.044060 0.000000
# 6 0.000000 0.000000 0.000000 0.004493 0.000000 0.029334
#
#
# Mechanical properties :
#
#
# Convention : Reuss Voigt Hill
#
# Bulk Modulus (GPa) = 47.83333 54.92903 51.38118
# Shear Modulus (GPa) = 29.95326 32.37886 31.16606
#
# Velocity S-wave (km/s) = 3.82806 3.98004 3.90479
# Velocity P-wave (km/s) = 6.55287 6.92776 6.74292
#
# Compressibility (1/GPa) = 0.02090592
#
# Stress axis : x y z
#
# Youngs Moduli (GPa) = 94.60947 61.24999 72.94318
#
# Poissons Ratio (x) = 0.10823 0.29171
# Poissons Ratio (y) = 0.16718 0.29787
# Poissons Ratio (z) = 0.37835 0.25012
#
# Static dielectric constant tensor:
#      x y z
#    x 1.783880 0.000000 0.009600 
#    y 0.000000 1.748620 0.000000 
#    z 0.009600 0.000000 1.673750 
# 
# From -- ./inp_files/226962.got.cif
#   From: 2010.05.17/outbox.cif.g08.bks.cpg/sg15_114_cif.got.tgz:226962.got - 2010.06.03 18:47:42.
