data_PCOD9306847
_publ_section_title
;
Structure prediction by ZEFSAII (Michael W. Deem and Ramdas Pophale) SiO2 
 PCOD9306847
Probable space group: C 2/C
;
_chemical_formula_sum "Si O2"
_cell_formula_units_Z 28
_cell_length_a 10.638516
_cell_length_b 14.942358
_cell_length_c 7.286894
_cell_angle_alpha 90.000000
_cell_angle_beta 65.506926
_cell_angle_gamma 90.000000
_cell_volume 1054.118584
_symmetry_space_group_name_H-M "C 2/C"
_symmetry_group_IT_number 15
_symmetry_cell_setting 'monoclinic'
loop_
_space_group_symop_operation_xyz
x,y,z
-x,y,1/2-z
-x,-y,-z
x,-y,1/2+z
1/2+x,1/2+y,z
1/2-x,1/2+y,1/2-z
1/2-x,1/2-y,-z
1/2+x,1/2-y,1/2+z
loop_
_atom_site_type_symbol
_atom_site_label
_atom_site_fract_x
_atom_site_fract_y
_atom_site_fract_z
Si Si1 0.000000 0.443511 0.250000
Si Si2 0.957777 0.118493 0.490323
Si Si3 0.769916 0.950961 0.630432
Si Si4 0.931877 0.317694 0.592341
O O1 0.129749 0.507736 0.130290
O O2 0.027984 0.375395 0.398785
O O3 0.904546 0.218925 0.536162
O O4 0.000000 0.100559 0.250000
O O5 0.100493 0.107262 0.519073
O O6 0.851187 0.043234 0.622273
O O7 0.704011 0.878993 0.809865
O O8 0.000000 0.308858 0.750000
#
# Coordination Sequence:
#
# PCOD9306847 Si02
#       4
#     4   8   8   8
#     4  12  26  52  78 116 162 206 256 336 380 472
#     4  11  27  51  81 114 161 207 260 325 394 465
#     4  11  27  49  80 113 158 211 257 320 396 462
#     4  12  28  48  82 118 155 207 264 322 394 467
#
# _framework density 26.562479
#
# number of rings (size 3 to 8) (size 9 to 14) (size 15 to 20)
#    0.000    0.571    2.857    2.571    8.000   10.286 
#    0.000    0.000    0.000    0.000    0.000    0.000 
#    0.000    0.000    0.000    0.000    0.000    0.000 
#
# Total GULP energy -78195.574237 kJ/mol
# GULP energy per Si atom -5585.398160 kJ/mol
# Density = 2.650202 g / cm^3
# Si number density = 26.562479 Si / 1000 Ang^3
#
#
#
# Elastic Constant Matrix: (Units=GPa)
#
#
# Indices 1 2 3 4 5 6 
#
# 1 98.7058 44.4832 49.0510 0.0000 -20.8826 0.0000
# 2 44.4832 276.3700 79.3719 0.0000 -16.0281 0.0000
# 3 49.0510 79.3719 96.4031 0.0000 7.1645 0.0000
# 4 0.0000 0.0000 0.0000 31.2818 0.0000 -20.8886
# 5 -20.8826 -16.0281 7.1645 0.0000 52.7225 0.0000
# 6 0.0000 0.0000 0.0000 -20.8886 0.0000 12.8188
#
#
#
# Elastic Compliance Matrix: (Units=1/GPa)
#
#
# Indices 1 2 3 4 5 6 
#
# 1 0.016121 0.000496 -0.009190 0.000000 0.007785 0.000000
# 2 0.000496 0.004970 -0.004517 0.000000 0.002321 0.000000
# 3 -0.009190 -0.004517 0.019336 0.000000 -0.007641 0.000000
# 4 0.000000 0.000000 0.000000 -0.362721 0.000000 -0.591066
# 5 0.007785 0.002321 -0.007641 0.000000 0.023795 0.000000
# 6 0.000000 0.000000 0.000000 -0.591066 0.000000 -0.885151
#
#
# Mechanical properties :
#
#
# Convention : Reuss Voigt Hill
#
# Bulk Modulus (GPa) = 71.39831 90.81012 81.10422
# Shear Modulus (GPa) = -4.33817 39.26947 17.46565
#
# Velocity S-wave (km/s) = -1.27935 3.84914 2.56702
# Velocity P-wave (km/s) = 4.97548 7.34957 6.27581
#
# Compressibility (1/GPa) = 0.01400593
#
# Stress axis : x y z
#
# Youngs Moduli (GPa) = 62.02962 201.18893 51.71747
#
# Poissons Ratio (x) = -0.09976 0.47526
# Poissons Ratio (y) = -0.03076 0.23362
# Poissons Ratio (z) = 0.57002 0.90880
#
# Static dielectric constant tensor:
#      x y z
#    x 2.176500 0.000000 0.105940 
#    y 0.000000 1.973650 0.000000 
#    z 0.105940 0.000000 2.174290 
# 
# From -- ./inp_files/27809.got.cif
#   From: 2010.05.17/outbox.cif.g08.bks.cpg/sg15_14_cif.got.tgz:27809.got - 2010.06.03 18:47:42.
