data_PCOD9306166
_publ_section_title
;
Structure prediction by ZEFSAII (Michael W. Deem and Ramdas Pophale) SiO2 
 PCOD9306166
Probable space group: C 2/C
;
_chemical_formula_sum "Si O2"
_cell_formula_units_Z 40
_cell_length_a 6.326585
_cell_length_b 20.534771
_cell_length_c 16.192226
_cell_angle_alpha 90.000000
_cell_angle_beta 113.740335
_cell_angle_gamma 90.000000
_cell_volume 1925.603669
_symmetry_space_group_name_H-M "C 2/C"
_symmetry_group_IT_number 15
_symmetry_cell_setting 'monoclinic'
loop_
_space_group_symop_operation_xyz
x,y,z
-x,y,1/2-z
-x,-y,-z
x,-y,1/2+z
1/2+x,1/2+y,z
1/2-x,1/2+y,1/2-z
1/2-x,1/2-y,-z
1/2+x,1/2-y,1/2+z
loop_
_atom_site_type_symbol
_atom_site_label
_atom_site_fract_x
_atom_site_fract_y
_atom_site_fract_z
Si Si1 0.020475 0.479165 0.099295
Si Si2 0.762716 0.141689 0.985010
Si Si3 0.000000 0.006044 0.750000
Si Si4 0.483132 0.237173 0.431647
Si Si5 0.703074 0.417131 0.639683
Si Si6 0.000000 0.697312 0.250000
O O1 0.878502 0.412846 0.085298
O O2 0.904869 0.540180 0.129149
O O3 0.275456 0.462359 0.172689
O O4 0.000000 0.500000 0.000000
O O5 0.831485 0.203656 0.941917
O O6 0.617146 0.171468 0.040004
O O7 0.997760 0.105323 0.048045
O O8 0.902058 0.962144 0.807361
O O9 0.750000 0.250000 0.500000
O O10 0.461794 0.234480 0.329463
O O11 0.792900 0.351499 0.695681
#
# Coordination Sequence:
#
# PCOD9306166 Si02
#       6
#     8   8   4   8   8   4
#     4  12  25  42  72 105 140 183 224 295 360 415
#     4  11  25  45  72 101 143 181 240 289 356 415
#     4  12  24  40  67 110 139 180 230 276 366 424
#     4  11  25  46  71 100 137 193 237 290 344 418
#     4  12  23  44  75 103 133 179 240 294 348 427
#     4  12  22  44  75  98 135 180 244 284 342 422
#
# _framework density 20.772705999999999
#
# number of rings (size 3 to 8) (size 9 to 14) (size 15 to 20)
#    0.000    0.400    6.000    3.000    0.000    0.000 
#    0.000    6.000    0.000    0.000    0.000    0.000 
#    0.000    0.000    0.000    0.000    0.000    0.000 
#
# Total GULP energy -111754.796304 kJ/mol
# GULP energy per Si atom -5587.739815 kJ/mol
# Density = 2.072543 g / cm^3
# Si number density = 20.772706 Si / 1000 Ang^3
#
#
#
# Elastic Constant Matrix: (Units=GPa)
#
#
# Indices 1 2 3 4 5 6 
#
# 1 93.3718 31.7207 60.2357 0.0000 19.6022 0.0000
# 2 31.7207 67.4432 43.0503 0.0000 5.4289 0.0000
# 3 60.2357 43.0503 139.0350 0.0000 11.7326 0.0000
# 4 0.0000 0.0000 0.0000 29.6314 0.0000 10.9367
# 5 19.6022 5.4289 11.7326 0.0000 51.9625 0.0000
# 6 0.0000 0.0000 0.0000 10.9367 0.0000 27.8424
#
#
#
# Elastic Compliance Matrix: (Units=1/GPa)
#
#
# Indices 1 2 3 4 5 6 
#
# 1 0.016605 -0.003858 -0.005612 0.000000 -0.004594 0.000000
# 2 -0.003858 0.019398 -0.004370 0.000000 0.000415 0.000000
# 3 -0.005612 -0.004370 0.010969 0.000000 0.000097 0.000000
# 4 0.000000 0.000000 0.000000 0.039471 0.000000 -0.015504
# 5 -0.004594 0.000415 0.000097 0.000000 0.020912 0.000000
# 6 0.000000 0.000000 0.000000 -0.015504 0.000000 0.042007
#
#
# Mechanical properties :
#
#
# Convention : Reuss Voigt Hill
#
# Bulk Modulus (GPa) = 51.83446 63.31814 57.57630
# Shear Modulus (GPa) = 27.25219 32.87679 30.06449
#
# Velocity S-wave (km/s) = 3.62598 3.98262 3.80848
# Velocity P-wave (km/s) = 6.52209 7.18999 6.86417
#
# Compressibility (1/GPa) = 0.01929219
#
# Stress axis : x y z
#
# Youngs Moduli (GPa) = 60.22180 51.55225 91.16948
#
# Poissons Ratio (x) = 0.19889 0.51163
# Poissons Ratio (y) = 0.23234 0.39840
# Poissons Ratio (z) = 0.33795 0.22528
#
# Static dielectric constant tensor:
#      x y z
#    x 1.788920 0.000000 0.023480 
#    y 0.000000 1.720730 0.000000 
#    z 0.023480 0.000000 1.763470 
# 
# From -- ./inp_files/129576.got.cif
#   From: 2010.05.17/outbox.cif.g08.bks.cpg/sg15_65_cif.got.tgz:129576.got - 2010.06.03 18:47:42.
