data_PCOD9306886
_publ_section_title
;
Structure prediction by ZEFSAII (Michael W. Deem and Ramdas Pophale) SiO2 
 PCOD9306886
Probable space group: C 2/C
;
_chemical_formula_sum "Si O2"
_cell_formula_units_Z 40
_cell_length_a 5.230881
_cell_length_b 23.090914
_cell_length_c 15.246933
_cell_angle_alpha 90.000000
_cell_angle_beta 56.672075
_cell_angle_gamma 90.000000
_cell_volume 1538.741029
_symmetry_space_group_name_H-M "C 2/C"
_symmetry_group_IT_number 15
_symmetry_cell_setting 'monoclinic'
loop_
_space_group_symop_operation_xyz
x,y,z
-x,y,1/2-z
-x,-y,-z
x,-y,1/2+z
1/2+x,1/2+y,z
1/2-x,1/2+y,1/2-z
1/2-x,1/2-y,-z
1/2+x,1/2-y,1/2+z
loop_
_atom_site_type_symbol
_atom_site_label
_atom_site_fract_x
_atom_site_fract_y
_atom_site_fract_z
Si Si1 0.872598 0.374816 0.539782
Si Si2 0.248836 0.159628 0.873785
Si Si3 0.386295 0.459957 0.439326
Si Si4 0.870181 0.720677 0.176260
Si Si5 0.780531 0.058054 0.193686
O O1 0.879687 0.338684 0.447602
O O2 0.984973 0.331604 0.594236
O O3 0.523470 0.392793 0.631661
O O4 0.045484 0.435982 0.488621
O O5 0.500000 0.152632 0.750000
O O6 0.070551 0.217587 0.880628
O O7 0.053964 0.101439 0.912452
O O8 0.542624 0.498641 0.335478
O O9 0.986862 0.438915 0.682262
O O10 0.500000 0.716955 0.250000
O O11 0.000000 0.718286 0.250000
O O12 0.000000 0.000000 0.000000
#
# Coordination Sequence:
#
# PCOD9306886 Si02
#       5
#     8   8   8   8   8
#     4  12  28  49  84 120 166 212 279 342 411 489
#     4  11  28  50  80 115 167 219 274 335 414 488
#     4  12  27  47  79 117 165 211 275 329 412 483
#     4  11  29  53  83 119 161 213 276 342 417 489
#     4  12  28  48  78 118 162 214 263 331 405 481
#
# _framework density 25.995276
#
# number of rings (size 3 to 8) (size 9 to 14) (size 15 to 20)
#    0.000    0.400    2.000    3.600   14.000    4.000 
#    0.000    0.000    0.000    0.000    0.000    0.000 
#    0.000    0.000    0.000    0.000    0.000    0.000 
#
# Total GULP energy -111666.949403 kJ/mol
# GULP energy per Si atom -5583.347470 kJ/mol
# Density = 2.593611 g / cm^3
# Si number density = 25.995276 Si / 1000 Ang^3
#
#
#
# Elastic Constant Matrix: (Units=GPa)
#
#
# Indices 1 2 3 4 5 6 
#
# 1 154.5685 68.2710 88.3173 0.0000 2.5068 0.0000
# 2 68.2710 211.3371 83.3832 0.0000 12.2514 0.0000
# 3 88.3173 83.3832 119.1697 0.0000 28.1421 0.0000
# 4 0.0000 0.0000 0.0000 37.8263 0.0000 -5.8150
# 5 2.5068 12.2514 28.1421 0.0000 58.6205 0.0000
# 6 0.0000 0.0000 0.0000 -5.8150 0.0000 18.3602
#
#
#
# Elastic Compliance Matrix: (Units=1/GPa)
#
#
# Indices 1 2 3 4 5 6 
#
# 1 0.012115 -0.000307 -0.009764 0.000000 0.004233 0.000000
# 2 -0.000307 0.006590 -0.004581 0.000000 0.000835 0.000000
# 3 -0.009764 -0.004581 0.020874 0.000000 -0.008646 0.000000
# 4 0.000000 0.000000 0.000000 0.027790 0.000000 0.008802
# 5 0.004233 0.000835 -0.008646 0.000000 0.020854 0.000000
# 6 0.000000 0.000000 0.000000 0.008802 0.000000 0.057253
#
#
# Mechanical properties :
#
#
# Convention : Reuss Voigt Hill
#
# Bulk Modulus (GPa) = 97.30547 107.22424 102.26486
# Shear Modulus (GPa) = 28.05769 39.30166 33.67967
#
# Velocity S-wave (km/s) = 3.28889 3.89250 3.60336
# Velocity P-wave (km/s) = 7.20664 7.84470 7.53243
#
# Compressibility (1/GPa) = 0.01027691
#
# Stress axis : x y z
#
# Youngs Moduli (GPa) = 82.54044 151.74955 47.90608
#
# Poissons Ratio (x) = 0.04657 0.46774
# Poissons Ratio (y) = 0.02533 0.21944
# Poissons Ratio (z) = 0.80590 0.69511
#
# Static dielectric constant tensor:
#      x y z
#    x 2.288800 0.000000 0.095910 
#    y 0.000000 2.000750 0.000000 
#    z 0.095910 0.000000 2.243450 
# 
# From -- ./inp_files/129276.got.cif
#   From: 2010.05.17/outbox.cif.g08.bks.cpg/sg15_65_cif.got.tgz:129276.got - 2010.06.03 18:47:42.
