data_PCOD9306201
_publ_section_title
;
Structure prediction by ZEFSAII (Michael W. Deem and Ramdas Pophale) SiO2 
 PCOD9306201
Probable space group: C 2/C
;
_chemical_formula_sum "Si O2"
_cell_formula_units_Z 64
_cell_length_a 13.829754
_cell_length_b 12.110391
_cell_length_c 26.791763
_cell_angle_alpha 90.000000
_cell_angle_beta 144.621027
_cell_angle_gamma 90.000000
_cell_volume 2597.998925
_symmetry_space_group_name_H-M "C 2/C"
_symmetry_group_IT_number 15
_symmetry_cell_setting 'monoclinic'
loop_
_space_group_symop_operation_xyz
x,y,z
-x,y,1/2-z
-x,-y,-z
x,-y,1/2+z
1/2+x,1/2+y,z
1/2-x,1/2+y,1/2-z
1/2-x,1/2-y,-z
1/2+x,1/2-y,1/2+z
loop_
_atom_site_type_symbol
_atom_site_label
_atom_site_fract_x
_atom_site_fract_y
_atom_site_fract_z
Si Si1 0.803982 0.836390 0.863034
Si Si2 0.482393 0.025319 0.416265
Si Si3 0.396510 0.165306 0.655187
Si Si4 0.110132 0.978515 0.747668
Si Si5 0.093282 0.326819 0.520981
Si Si6 0.789706 0.743228 0.753069
Si Si7 0.041054 0.935572 0.113578
Si Si8 0.694524 0.073818 0.413415
O O1 0.730186 0.780488 0.782440
O O2 0.684179 0.850862 0.860104
O O3 0.871134 0.958043 0.874960
O O4 0.961138 0.763420 0.946641
O O5 0.296554 0.974033 0.333174
O O6 0.468826 0.116606 0.454051
O O7 0.548996 0.078326 0.393247
O O8 0.603304 0.928603 0.486504
O O9 0.500000 0.158129 0.750000
O O10 0.269367 0.266379 0.601044
O O11 0.535385 0.178130 0.670730
O O12 0.303221 0.051681 0.605580
O O13 0.154820 0.852692 0.752869
O O14 0.000000 0.988118 0.750000
O O15 0.018117 0.030144 0.661573
O O16 0.163269 0.168808 0.668651
O O17 0.870623 0.906061 0.014587
#
# Coordination Sequence:
#
# PCOD9306201 Si02
#       8
#     8   8   8   8   8   8   8   8
#     4  11  25  45  75 107 150 199 251 312 378 454
#     4  11  27  46  73 110 158 196 252 317 375 464
#     4  12  25  45  80 111 146 196 264 327 370 441
#     4  11  25  48  77 109 145 199 253 315 380 447
#     4  11  25  46  73 110 148 200 259 311 382 445
#     4  11  25  47  76 108 150 196 262 314 371 451
#     4  11  25  47  74 111 151 198 251 315 377 448
#     4  12  27  46  76 113 152 202 246 316 387 453
#
# _framework density 24.634343999999999
#
# number of rings (size 3 to 8) (size 9 to 14) (size 15 to 20)
#    0.000    0.750    1.250    5.250   10.500    2.500 
#    0.000    0.000    0.000    0.000    0.000    0.000 
#    0.000    0.000    0.000    0.000    0.000    0.000 
#
# Total GULP energy -179512.110872 kJ/mol
# GULP energy per Si atom -5609.753465 kJ/mol
# Density = 2.457828 g / cm^3
# Si number density = 24.634344 Si / 1000 Ang^3
#
#
#
# Elastic Constant Matrix: (Units=GPa)
#
#
# Indices 1 2 3 4 5 6 
#
# 1 184.5101 37.1928 59.9464 0.0000 -20.6868 0.0000
# 2 37.1928 79.1476 46.8999 0.0000 1.7500 0.0000
# 3 59.9464 46.8999 136.1496 0.0001 -1.3381 0.0000
# 4 0.0000 0.0000 0.0001 46.5622 0.0000 -10.5582
# 5 -20.6868 1.7500 -1.3381 0.0000 37.1644 0.0000
# 6 0.0000 0.0000 0.0000 -10.5582 0.0000 27.8422
#
#
#
# Elastic Compliance Matrix: (Units=1/GPa)
#
#
# Indices 1 2 3 4 5 6 
#
# 1 0.007030 -0.001984 -0.002374 0.000000 0.003921 0.000000
# 2 -0.001984 0.016468 -0.004819 0.000000 -0.002053 0.000000
# 3 -0.002374 -0.004819 0.010043 0.000000 -0.000733 0.000000
# 4 0.000000 0.000000 0.000000 0.023497 0.000000 0.008911
# 5 0.003921 -0.002053 -0.000733 0.000000 0.029160 0.000000
# 6 0.000000 0.000000 0.000000 0.008911 0.000000 0.039296
#
#
# Mechanical properties :
#
#
# Convention : Reuss Voigt Hill
#
# Bulk Modulus (GPa) = 65.84336 76.43174 71.13755
# Shear Modulus (GPa) = 33.57700 39.36498 36.47099
#
# Velocity S-wave (km/s) = 3.69591 4.00180 3.85189
# Velocity P-wave (km/s) = 6.70815 7.24199 6.98018
#
# Compressibility (1/GPa) = 0.01518756
#
# Stress axis : x y z
#
# Youngs Moduli (GPa) = 142.23778 60.72320 99.57274
#
# Poissons Ratio (x) = 0.12047 0.23634
# Poissons Ratio (y) = 0.28220 0.47989
# Poissons Ratio (z) = 0.33761 0.29265
#
# Static dielectric constant tensor:
#      x y z
#    x 1.975630 0.000000 0.005740 
#    y 0.000000 1.971910 0.000000 
#    z 0.005740 0.000000 1.962970 
# 
# From -- ./inp_files/313616.got.cif
#   From: 2010.05.17/outbox.cif.g08.bks.cpg/sg15_157_cif.got.tgz:313616.got - 2010.06.03 18:47:42.
