data_PCOD9306996
_publ_section_title
;
Structure prediction by ZEFSAII (Michael W. Deem and Ramdas Pophale) SiO2 
 PCOD9306996
Probable space group: C 2/C
;
_chemical_formula_sum "Si O2"
_cell_formula_units_Z 36
_cell_length_a 14.477044
_cell_length_b 16.419897
_cell_length_c 8.929205
_cell_angle_alpha 90.000000
_cell_angle_beta 135.495891
_cell_angle_gamma 90.000000
_cell_volume 1487.841296
_symmetry_space_group_name_H-M "C 2/C"
_symmetry_group_IT_number 15
_symmetry_cell_setting 'monoclinic'
loop_
_space_group_symop_operation_xyz
x,y,z
-x,y,1/2-z
-x,-y,-z
x,-y,1/2+z
1/2+x,1/2+y,z
1/2-x,1/2+y,1/2-z
1/2-x,1/2-y,-z
1/2+x,1/2-y,1/2+z
loop_
_atom_site_type_symbol
_atom_site_label
_atom_site_fract_x
_atom_site_fract_y
_atom_site_fract_z
Si Si1 0.500000 0.557391 0.750000
Si Si2 0.781270 0.700383 0.883501
Si Si3 0.290928 0.424870 0.589650
Si Si4 0.856484 0.465037 0.365378
Si Si5 0.011817 0.186013 0.029653
O O1 0.379077 0.497660 0.627803
O O2 0.505550 0.613257 0.901200
O O3 0.826320 0.606175 0.952711
O O4 0.642953 0.706103 0.630945
O O5 0.750000 0.750000 0.000000
O O6 0.906019 0.741903 0.949719
O O7 0.184866 0.418766 0.335517
O O8 0.225489 0.457668 0.666550
O O9 0.389922 0.350458 0.732208
O O10 0.000000 0.500000 0.500000
#
# Coordination Sequence:
#
# PCOD9306996 Si02
#       5
#     4   8   8   8   8
#     4  12  20  46  76 108 138 200 262 314 380 478
#     4  12  26  47  76 112 158 206 262 323 396 475
#     4  12  25  47  77 110 153 199 266 323 396 475
#     4  12  28  48  78 115 157 206 264 333 398 475
#     4  12  25  44  76 110 150 203 258 320 389 466
#
# _framework density 24.19613
#
# number of rings (size 3 to 8) (size 9 to 14) (size 15 to 20)
#    0.000    0.000    6.667    2.667    3.111    2.667 
#    0.000    0.000    0.000    0.000    0.000    0.000 
#    0.000    0.000    0.000    0.000    0.000    0.000 
#
# Total GULP energy -100616.820101 kJ/mol
# GULP energy per Si atom -5589.823339 kJ/mol
# Density = 2.414106 g / cm^3
# Si number density = 24.196130 Si / 1000 Ang^3
#
#
#
# Elastic Constant Matrix: (Units=GPa)
#
#
# Indices 1 2 3 4 5 6 
#
# 1 100.8929 17.5260 22.1224 0.0000 36.0558 0.0000
# 2 17.5260 70.0284 10.9912 0.0000 22.3871 0.0000
# 3 22.1224 10.9912 117.3954 0.0000 3.8595 0.0000
# 4 0.0000 0.0000 0.0000 -7.8146 0.0000 -34.7897
# 5 36.0558 22.3871 3.8595 0.0000 48.1232 0.0000
# 6 0.0000 0.0000 0.0000 -34.7897 0.0000 0.6980
#
#
#
# Elastic Compliance Matrix: (Units=1/GPa)
#
#
# Indices 1 2 3 4 5 6 
#
# 1 0.014142 0.000182 -0.002337 0.000000 -0.010493 0.000000
# 2 0.000182 0.016983 -0.001364 0.000000 -0.007927 0.000000
# 3 -0.002337 -0.001364 0.009032 0.000000 0.001661 0.000000
# 4 0.000000 0.000000 0.000000 -0.000574 0.000000 -0.028615
# 5 -0.010493 -0.007927 0.001661 0.000000 0.032197 0.000000
# 6 0.000000 0.000000 0.000000 -0.028615 0.000000 0.006428
#
#
# Mechanical properties :
#
#
# Convention : Reuss Voigt Hill
#
# Bulk Modulus (GPa) = 30.19414 43.28844 36.74129
# Shear Modulus (GPa) = 51.92977 24.04647 37.98812
#
# Velocity S-wave (km/s) = 4.63774 3.15590 3.96663
# Velocity P-wave (km/s) = 6.41749 5.58651 6.01636
#
# Compressibility (1/GPa) = 0.03311901
#
# Stress axis : x y z
#
# Youngs Moduli (GPa) = 70.71021 58.88349 110.72116
#
# Poissons Ratio (x) = -0.01071 0.25876
# Poissons Ratio (y) = -0.01287 0.15099
# Poissons Ratio (z) = 0.16526 0.08030
#
# Static dielectric constant tensor:
#      x y z
#    x 1.915610 0.000000 -0.083100 
#    y 0.000000 1.952030 0.000000 
#    z -0.083100 0.000000 2.059880 
# 
# From -- ./inp_files/39479.got.cif
#   From: 2010.05.17/outbox.cif.g08.bks.cpg/sg15_20_cif.got.tgz:39479.got - 2010.06.03 18:47:42.
