data_PCOD9306490
_publ_section_title
;
Structure prediction by ZEFSAII (Michael W. Deem and Ramdas Pophale) SiO2 
 PCOD9306490
Probable space group: C 2/C
;
_chemical_formula_sum "Si O2"
_cell_formula_units_Z 36
_cell_length_a 7.615441
_cell_length_b 17.129337
_cell_length_c 18.311360
_cell_angle_alpha 90.000000
_cell_angle_beta 144.216553
_cell_angle_gamma 90.000000
_cell_volume 1396.711263
_symmetry_space_group_name_H-M "C 2/C"
_symmetry_group_IT_number 15
_symmetry_cell_setting 'monoclinic'
loop_
_space_group_symop_operation_xyz
x,y,z
-x,y,1/2-z
-x,-y,-z
x,-y,1/2+z
1/2+x,1/2+y,z
1/2-x,1/2+y,1/2-z
1/2-x,1/2-y,-z
1/2+x,1/2-y,1/2+z
loop_
_atom_site_type_symbol
_atom_site_label
_atom_site_fract_x
_atom_site_fract_y
_atom_site_fract_z
Si Si1 0.821528 0.585784 0.615715
Si Si2 0.086717 0.570045 0.176449
Si Si3 0.500000 0.787270 0.750000
Si Si4 0.024952 0.242448 0.992066
Si Si5 0.235302 0.398794 0.570683
O O1 0.568510 0.652234 0.534379
O O2 0.899553 0.593319 0.555491
O O3 0.000000 0.608118 0.750000
O O4 0.847384 0.491088 0.628444
O O5 0.443038 0.556614 0.314224
O O6 0.043765 0.571437 0.074906
O O7 0.060285 0.654204 0.204147
O O8 0.780633 0.738556 0.870234
O O9 0.250000 0.250000 0.000000
O O10 0.757033 0.305629 0.905986
#
# Coordination Sequence:
#
# PCOD9306490 Si02
#       5
#     8   8   4   8   8
#     4  12  28  47  78 113 153 201 261 315 397 464
#     4  11  25  49  78 106 158 205 252 327 385 458
#     4  12  24  48  74 108 158 202 258 308 396 448
#     4  12  28  48  76 113 155 206 257 321 385 468
#     4  11  26  50  76 110 157 202 264 321 384 459
#
# _framework density 25.774833000000001
#
# number of rings (size 3 to 8) (size 9 to 14) (size 15 to 20)
#    0.000    0.444    5.556    1.333    6.222    3.556 
#    8.000    0.000    0.000    0.000    0.000    0.000 
#    0.000    0.000    0.000    0.000    0.000    0.000 
#
# Total GULP energy -100244.200185 kJ/mol
# GULP energy per Si atom -5569.122233 kJ/mol
# Density = 2.571617 g / cm^3
# Si number density = 25.774833 Si / 1000 Ang^3
#
#
#
# Elastic Constant Matrix: (Units=GPa)
#
#
# Indices 1 2 3 4 5 6 
#
# 1 108.3800 46.2301 42.8509 0.0012 -36.4696 0.0006
# 2 46.2301 130.9869 22.7595 0.0002 10.6394 -0.0034
# 3 42.8509 22.7595 156.0662 0.0005 -41.5757 -0.0153
# 4 0.0012 0.0002 0.0005 33.9140 0.0012 6.1927
# 5 -36.4696 10.6394 -41.5757 0.0012 56.0673 -0.0015
# 6 0.0006 -0.0034 -0.0153 6.1927 -0.0015 230.6105
#
#
#
# Elastic Compliance Matrix: (Units=1/GPa)
#
#
# Indices 1 2 3 4 5 6 
#
# 1 0.015957 -0.006474 -0.000430 -0.000001 0.011289 0.000000
# 2 -0.006474 0.010859 -0.001840 0.000000 -0.007637 0.000000
# 3 -0.000430 -0.001840 0.008490 0.000000 0.006365 0.000001
# 4 -0.000001 0.000000 0.000000 0.029632 -0.000002 -0.000796
# 5 0.011289 -0.007637 0.006365 -0.000002 0.031348 0.000001
# 6 0.000000 0.000000 0.000001 -0.000796 0.000001 0.004358
#
#
# Mechanical properties :
#
#
# Convention : Reuss Voigt Hill
#
# Bulk Modulus (GPa) = 56.12478 68.79046 62.45762
# Shear Modulus (GPa) = 40.29942 83.02454 61.66198
#
# Velocity S-wave (km/s) = 3.95842 5.68167 4.89645
# Velocity P-wave (km/s) = 6.53563 8.35397 7.50011
#
# Compressibility (1/GPa) = 0.01781744
#
# Stress axis : x y z
#
# Youngs Moduli (GPa) = 62.66784 92.08613 117.79195
#
# Poissons Ratio (x) = 0.59618 0.05062
# Poissons Ratio (y) = 0.40572 0.21679
# Poissons Ratio (z) = 0.02693 0.16948
#
# Static dielectric constant tensor:
#      x y z
#    x 2.147920 0.000000 0.093550 
#    y 0.000000 2.124810 0.000000 
#    z 0.093550 0.000000 2.174110 
# 
# From -- ./inp_files/190730.got.cif
#   From: 2010.05.17/outbox.cif.g08.bks.cpg/sg15_96_cif.got.tgz:190730.got - 2010.06.03 18:47:42.
