data_PCOD9306172
_publ_section_title
;
Structure prediction by ZEFSAII (Michael W. Deem and Ramdas Pophale) SiO2 
 PCOD9306172
Probable space group: C 2/C
;
_chemical_formula_sum "Si O2"
_cell_formula_units_Z 64
_cell_length_a 28.708772
_cell_length_b 9.202921
_cell_length_c 18.200650
_cell_angle_alpha 90.000000
_cell_angle_beta 39.133443
_cell_angle_gamma 90.000000
_cell_volume 3034.905119
_symmetry_space_group_name_H-M "C 2/C"
_symmetry_group_IT_number 15
_symmetry_cell_setting 'monoclinic'
loop_
_space_group_symop_operation_xyz
x,y,z
-x,y,1/2-z
-x,-y,-z
x,-y,1/2+z
1/2+x,1/2+y,z
1/2-x,1/2+y,1/2-z
1/2-x,1/2-y,-z
1/2+x,1/2-y,1/2+z
loop_
_atom_site_type_symbol
_atom_site_label
_atom_site_fract_x
_atom_site_fract_y
_atom_site_fract_z
Si Si1 0.344100 0.100179 0.758472
Si Si2 0.647390 0.166739 0.479541
Si Si3 0.566676 0.582000 0.878021
Si Si4 0.818302 0.995068 0.038361
Si Si5 0.576712 0.334286 0.199617
Si Si6 0.933580 0.601474 0.058855
Si Si7 0.308199 0.386968 0.714861
Si Si8 0.920690 0.512218 0.806400
O O1 0.344868 0.242989 0.706362
O O2 0.262366 0.063119 0.887456
O O3 0.362317 0.968897 0.682532
O O4 0.403807 0.095200 0.750681
O O5 0.641143 0.340940 0.495784
O O6 0.581699 0.113660 0.507820
O O7 0.724643 0.126946 0.345963
O O8 0.638855 0.080841 0.565304
O O9 0.566503 0.586804 0.790212
O O10 0.556486 0.744065 0.917975
O O11 0.645001 0.519114 0.808714
O O12 0.500000 0.500000 0.000000
O O13 0.813100 0.087512 0.120948
O O14 0.859954 0.089242 0.926308
O O15 0.500000 0.346911 0.250000
O O16 0.590594 0.160830 0.192612
O O17 0.000000 0.500000 0.000000
O O18 0.000000 0.530850 0.750000
#
# Coordination Sequence:
#
# PCOD9306172 Si02
#       8
#     8   8   8   8   8   8   8   8
#     4  11  25  45  72 106 142 189 242 287 358 424
#     4  11  26  43  72 102 142 186 238 288 361 416
#     4  12  26  47  72 103 137 185 238 287 353 419
#     4  11  25  46  71 105 144 184 237 297 357 424
#     4  11  27  45  69 101 144 184 232 293 359 425
#     4  12  24  44  72 102 138 184 239 289 342 423
#     4  11  25  46  72 102 143 185 238 298 348 423
#     4  11  26  47  68 101 146 189 236 298 357 424
#
# _framework density 21.087973999999999
#
# number of rings (size 3 to 8) (size 9 to 14) (size 15 to 20)
#    0.000    0.750    3.750    2.250    7.000    3.000 
#    0.000    0.000    0.000    0.000    0.000    0.000 
#    0.000    0.000    0.000    0.000    0.000    0.000 
#
# Total GULP energy -178788.956471 kJ/mol
# GULP energy per Si atom -5587.154890 kJ/mol
# Density = 2.103998 g / cm^3
# Si number density = 21.087974 Si / 1000 Ang^3
#
#
#
# Elastic Constant Matrix: (Units=GPa)
#
#
# Indices 1 2 3 4 5 6 
#
# 1 121.7917 43.7302 36.4562 -0.0010 18.8727 -0.0003
# 2 43.7302 120.4674 53.2555 0.0046 -0.3637 0.0196
# 3 36.4562 53.2555 105.8593 0.0019 31.7636 0.0061
# 4 -0.0010 0.0046 0.0019 -57.4141 0.0038 11.5648
# 5 18.8727 -0.3637 31.7636 0.0038 37.0034 -0.0021
# 6 -0.0003 0.0196 0.0061 11.5648 -0.0021 29.2198
#
#
#
# Elastic Compliance Matrix: (Units=1/GPa)
#
#
# Indices 1 2 3 4 5 6 
#
# 1 0.010401 -0.003730 -0.000138 0.000000 -0.005223 0.000002
# 2 -0.003730 0.013249 -0.008069 0.000000 0.008959 -0.000007
# 3 -0.000138 -0.008069 0.018259 -0.000001 -0.015682 0.000001
# 4 0.000000 0.000000 -0.000001 -0.016131 0.000003 0.006385
# 5 -0.005223 0.008959 -0.015682 0.000003 0.043238 -0.000001
# 6 0.000002 -0.000007 0.000001 0.006385 -0.000001 0.031697
#
#
# Mechanical properties :
#
#
# Convention : Reuss Voigt Hill
#
# Bulk Modulus (GPa) = 55.45018 68.33356 61.89187
# Shear Modulus (GPa) = 38.28535 16.07360 27.17947
#
# Velocity S-wave (km/s) = 4.26550 2.76382 3.59397
# Velocity P-wave (km/s) = 7.11415 6.53141 6.82900
#
# Compressibility (1/GPa) = 0.01803421
#
# Stress axis : x y z
#
# Youngs Moduli (GPa) = 96.14686 75.47606 54.76756
#
# Poissons Ratio (x) = 0.28154 0.00757
# Poissons Ratio (y) = 0.35865 0.44192
# Poissons Ratio (z) = 0.01328 0.60902
#
# Static dielectric constant tensor:
#      x y z
#    x 1.778520 0.000000 -0.001730 
#    y 0.000000 1.730600 0.000010 
#    z -0.001730 0.000010 1.814270 
# 
# From -- ./inp_files/224593.got.cif
#   From: 2010.05.17/outbox.cif.g08.bks.cpg/sg15_113_cif.got.tgz:224593.got - 2010.06.03 18:47:42.
