data_PCOD9306433
_publ_section_title
;
Structure prediction by ZEFSAII (Michael W. Deem and Ramdas Pophale) SiO2 
 PCOD9306433
Probable space group: C 2/C
;
_chemical_formula_sum "Si O2"
_cell_formula_units_Z 64
_cell_length_a 10.988150
_cell_length_b 9.011136
_cell_length_c 28.301234
_cell_angle_alpha 90.000000
_cell_angle_beta 90.530843
_cell_angle_gamma 90.000000
_cell_volume 2802.146621
_symmetry_space_group_name_H-M "C 2/C"
_symmetry_group_IT_number 15
_symmetry_cell_setting 'monoclinic'
loop_
_space_group_symop_operation_xyz
x,y,z
-x,y,1/2-z
-x,-y,-z
x,-y,1/2+z
1/2+x,1/2+y,z
1/2-x,1/2+y,1/2-z
1/2-x,1/2-y,-z
1/2+x,1/2-y,1/2+z
loop_
_atom_site_type_symbol
_atom_site_label
_atom_site_fract_x
_atom_site_fract_y
_atom_site_fract_z
Si Si1 0.873879 0.818420 0.773318
Si Si2 0.724860 0.111925 0.446153
Si Si3 0.535861 0.853969 0.529584
Si Si4 0.876106 0.932610 0.518956
Si Si5 0.376680 0.786525 0.374910
Si Si6 0.350063 0.118980 0.633298
Si Si7 0.869766 0.484937 0.736421
Si Si8 0.235597 0.414222 0.609950
O O1 0.874372 0.825079 0.830368
O O2 0.868973 0.643625 0.762092
O O3 0.000000 0.873764 0.750000
O O4 0.752260 0.894559 0.753693
O O5 0.598399 0.197668 0.454166
O O6 0.824320 0.217835 0.422746
O O7 0.772565 0.028537 0.492504
O O8 0.703152 0.983375 0.407697
O O9 0.609708 0.736973 0.498335
O O10 0.619645 0.883239 0.575468
O O11 0.500000 0.000000 0.500000
O O12 0.847440 0.937507 0.574026
O O13 0.000000 0.000000 0.500000
O O14 0.515242 0.833314 0.381252
O O15 0.296544 0.933704 0.363999
O O16 0.365683 0.026254 0.681091
O O17 0.269165 0.267277 0.639261
O O18 0.000000 0.412263 0.750000
#
# Coordination Sequence:
#
# PCOD9306433 Si02
#       8
#     8   8   8   8   8   8   8   8
#     4  11  25  48  75 109 146 182 235 295 366 439
#     4  12  25  44  72 101 145 184 241 297 348 419
#     4  12  24  42  67  96 138 192 242 289 353 410
#     4  12  26  44  65 100 140 195 245 289 351 411
#     4  12  26  45  71 108 138 185 237 293 358 421
#     4  12  24  47  70 103 143 182 236 299 349 422
#     4  11  25  48  78 106 144 191 231 293 369 441
#     4  12  26  42  70 101 142 189 239 293 349 418
#
# _framework density 22.839634
#
# number of rings (size 3 to 8) (size 9 to 14) (size 15 to 20)
#    0.000    0.250    7.500    2.625    3.500    1.500 
#    0.000    1.250    0.000    0.000    0.000    0.000 
#    0.000    0.000    0.000    0.000    0.000    0.000 
#
# Total GULP energy -179161.294510 kJ/mol
# GULP energy per Si atom -5598.790453 kJ/mol
# Density = 2.278765 g / cm^3
# Si number density = 22.839634 Si / 1000 Ang^3
#
#
#
# Elastic Constant Matrix: (Units=GPa)
#
#
# Indices 1 2 3 4 5 6 
#
# 1 152.6363 44.7345 17.8449 0.0000 -23.1202 0.0000
# 2 44.7345 70.0907 9.5673 0.0000 -4.6450 0.0000
# 3 17.8449 9.5673 79.0415 0.0000 -8.0364 0.0000
# 4 0.0000 0.0000 0.0000 16.5671 0.0000 7.2987
# 5 -23.1202 -4.6450 -8.0364 0.0000 25.1330 0.0000
# 6 0.0000 0.0000 0.0000 7.2987 0.0000 42.5688
#
#
#
# Elastic Compliance Matrix: (Units=1/GPa)
#
#
# Indices 1 2 3 4 5 6 
#
# 1 0.009321 -0.005365 -0.000707 0.000000 0.007357 0.000000
# 2 -0.005365 0.017712 -0.001139 0.000000 -0.002026 0.000000
# 3 -0.000707 -0.001139 0.013294 0.000000 0.003390 0.000000
# 4 0.000000 0.000000 0.000000 0.065293 0.000000 -0.011195
# 5 0.007357 -0.002026 0.003390 0.000000 0.047265 0.000000
# 6 0.000000 0.000000 0.000000 -0.011195 0.000000 0.025411
#
#
# Mechanical properties :
#
#
# Convention : Reuss Voigt Hill
#
# Bulk Modulus (GPa) = 38.60120 49.56242 44.08181
# Shear Modulus (GPa) = 24.83210 32.16191 28.49701
#
# Velocity S-wave (km/s) = 3.30091 3.75662 3.53611
# Velocity P-wave (km/s) = 5.60942 6.36895 6.00122
#
# Compressibility (1/GPa) = 0.02590593
#
# Stress axis : x y z
#
# Youngs Moduli (GPa) = 107.28622 56.45743 75.22363
#
# Poissons Ratio (x) = 0.30289 0.05318
# Poissons Ratio (y) = 0.57558 0.08566
# Poissons Ratio (z) = 0.07585 0.06429
#
# Static dielectric constant tensor:
#      x y z
#    x 1.883620 0.000000 -0.009110 
#    y 0.000000 1.889050 0.000000 
#    z -0.009110 0.000000 1.922450 
# 
# From -- ./inp_files/310323.got.cif
#   From: 2010.05.17/outbox.cif.g08.bks.cpg/sg15_156_cif.got.tgz:310323.got - 2010.06.03 18:47:42.
