data_PCOD9306055
_publ_section_title
;
Structure prediction by ZEFSAII (Michael W. Deem and Ramdas Pophale) SiO2 
 PCOD9306055
Probable space group: C 2/C
;
_chemical_formula_sum "Si O2"
_cell_formula_units_Z 48
_cell_length_a 19.343606
_cell_length_b 8.363025
_cell_length_c 23.503986
_cell_angle_alpha 90.000000
_cell_angle_beta 150.775609
_cell_angle_gamma 90.000000
_cell_volume 1856.384357
_symmetry_space_group_name_H-M "C 2/C"
_symmetry_group_IT_number 15
_symmetry_cell_setting 'monoclinic'
loop_
_space_group_symop_operation_xyz
x,y,z
-x,y,1/2-z
-x,-y,-z
x,-y,1/2+z
1/2+x,1/2+y,z
1/2-x,1/2+y,1/2-z
1/2-x,1/2-y,-z
1/2+x,1/2-y,1/2+z
loop_
_atom_site_type_symbol
_atom_site_label
_atom_site_fract_x
_atom_site_fract_y
_atom_site_fract_z
Si Si1 0.132272 0.749439 0.802751
Si Si2 0.543735 0.929251 0.419491
Si Si3 0.326910 0.527924 0.744303
Si Si4 0.162495 0.462567 0.890478
Si Si5 0.092227 0.794898 0.597601
Si Si6 0.577172 0.287554 0.461711
O O1 0.222315 0.619099 0.901251
O O2 0.000000 0.783159 0.750000
O O3 0.075569 0.650986 0.707276
O O4 0.193335 0.914491 0.824298
O O5 0.536008 0.801038 0.464811
O O6 0.657695 0.977855 0.452254
O O7 0.519415 0.107279 0.425484
O O8 0.207648 0.657861 0.667152
O O9 0.340505 0.418419 0.809966
O O10 0.475797 0.619200 0.845847
O O11 0.263770 0.317355 0.946253
O O12 0.000000 0.436293 0.750000
O O13 0.061363 0.861901 0.513009
#
# Coordination Sequence:
#
# PCOD9306055 Si02
#       6
#     8   8   8   8   8   8
#     4   8  19  45  66  92 131 181 217 274 334 401
#     4   9  20  43  65  94 135 173 222 272 343 401
#     4  11  25  43  71  95 139 177 231 275 345 407
#     4   9  21  42  72  92 139 176 224 280 344 396
#     4  11  25  44  67  99 141 180 224 287 342 407
#     4  12  24  41  69 108 129 180 230 284 339 417
#
# _framework density 25.856714
#
# number of rings (size 3 to 8) (size 9 to 14) (size 15 to 20)
#    0.000    2.333    0.000    2.500   11.667    0.000 
#   15.000   10.000    0.000    0.000    0.000    0.000 
#    0.000    0.000    0.000    0.000    0.000    0.000 
#
# Total GULP energy -134134.306424 kJ/mol
# GULP energy per Si atom -5588.929434 kJ/mol
# Density = 2.579786 g / cm^3
# Si number density = 25.856714 Si / 1000 Ang^3
#
#
#
# Elastic Constant Matrix: (Units=GPa)
#
#
# Indices 1 2 3 4 5 6 
#
# 1 90.8792 -1.0725 34.0987 0.0000 -11.8166 0.0000
# 2 -1.0725 51.9811 26.2221 0.0000 19.2941 0.0000
# 3 34.0987 26.2221 84.4669 -0.0002 22.7723 -0.0001
# 4 0.0000 0.0000 -0.0002 40.8652 -0.0001 -2.5716
# 5 -11.8166 19.2941 22.7723 -0.0001 31.9484 0.0000
# 6 0.0000 0.0000 -0.0001 -2.5716 0.0000 47.8176
#
#
#
# Elastic Compliance Matrix: (Units=1/GPa)
#
#
# Indices 1 2 3 4 5 6 
#
# 1 0.016685 0.000748 -0.010534 0.000000 0.013228 0.000000
# 2 0.000748 0.026315 -0.005275 0.000000 -0.011855 0.000000
# 3 -0.010534 -0.005275 0.022184 0.000000 -0.016523 0.000000
# 4 0.000000 0.000000 0.000000 0.024554 0.000000 0.001321
# 5 0.013228 -0.011855 -0.016523 0.000000 0.055129 0.000000
# 6 0.000000 0.000000 0.000000 0.001321 0.000000 0.020984
#
#
# Mechanical properties :
#
#
# Convention : Reuss Voigt Hill
#
# Bulk Modulus (GPa) = 28.52148 38.42487 33.47318
# Shear Modulus (GPa) = 24.07796 35.33151 29.70473
#
# Velocity S-wave (km/s) = 3.05488 3.70054 3.39310
# Velocity P-wave (km/s) = 4.84743 5.75775 5.32209
#
# Compressibility (1/GPa) = 0.03506129
#
# Stress axis : x y z
#
# Youngs Moduli (GPa) = 59.93453 38.00177 45.07819
#
# Poissons Ratio (x) = -0.02844 0.47486
# Poissons Ratio (y) = -0.04486 0.23780
# Poissons Ratio (z) = 0.63136 0.20047
#
# Static dielectric constant tensor:
#      x y z
#    x 2.022120 0.000000 0.029030 
#    y 0.000000 2.028930 0.000000 
#    z 0.029030 0.000000 2.157930 
# 
# From -- ./inp_files/300564.got.cif
#   From: 2010.05.17/outbox.cif.g08.bks.cpg/sg15_151_cif.got.tgz:300564.got - 2010.06.03 18:47:42.
