data_PCOD9306119
_publ_section_title
;
Structure prediction by ZEFSAII (Michael W. Deem and Ramdas Pophale) SiO2 
 PCOD9306119
Probable space group: C 2/C
;
_chemical_formula_sum "Si O2"
_cell_formula_units_Z 48
_cell_length_a 13.166562
_cell_length_b 18.219883
_cell_length_c 12.954728
_cell_angle_alpha 90.000000
_cell_angle_beta 135.365320
_cell_angle_gamma 90.000000
_cell_volume 2183.456100
_symmetry_space_group_name_H-M "C 2/C"
_symmetry_group_IT_number 15
_symmetry_cell_setting 'monoclinic'
loop_
_space_group_symop_operation_xyz
x,y,z
-x,y,1/2-z
-x,-y,-z
x,-y,1/2+z
1/2+x,1/2+y,z
1/2-x,1/2+y,1/2-z
1/2-x,1/2-y,-z
1/2+x,1/2-y,1/2+z
loop_
_atom_site_type_symbol
_atom_site_label
_atom_site_fract_x
_atom_site_fract_y
_atom_site_fract_z
Si Si1 0.287029 0.200872 0.221118
Si Si2 0.877544 0.806940 0.581212
Si Si3 0.314964 0.456612 0.461896
Si Si4 0.000000 0.220420 0.750000
Si Si5 0.500000 0.905067 0.250000
Si Si6 0.481113 0.201056 0.938765
Si Si7 0.958002 0.103931 0.538078
O O1 0.364776 0.226368 0.172621
O O2 0.418863 0.176753 0.392766
O O3 0.185768 0.272628 0.175602
O O4 0.175307 0.133867 0.128627
O O5 0.750000 0.750000 0.500000
O O6 0.840495 0.890906 0.561192
O O7 0.000000 0.790287 0.750000
O O8 0.944637 0.781003 0.523466
O O9 0.141653 0.454343 0.331496
O O10 0.387012 0.532941 0.542462
O O11 0.402961 0.427639 0.423990
O O12 0.987746 0.167709 0.642210
O O13 0.496055 0.852763 0.143549
#
# Coordination Sequence:
#
# PCOD9306119 Si02
#       7
#     8   8   8   4   4   8   8
#     4  12  25  44  70 103 135 181 242 295 342 405
#     4  12  21  36  66 101 134 174 220 271 339 415
#     4  11  25  45  66 101 147 180 226 288 352 426
#     4  12  24  49  73  98 132 194 240 298 336 413
#     4  12  24  43  69 106 140 180 226 290 354 425
#     4  12  23  39  70 104 137 171 235 292 345 407
#     4  11  26  46  70  98 141 185 238 288 351 413
#
# _framework density 21.983497
#
# number of rings (size 3 to 8) (size 9 to 14) (size 15 to 20)
#    0.000    0.333    5.833    3.500    1.167    0.667 
#    3.000    0.833    0.000    0.000    0.000    0.000 
#    0.000    0.000    0.000    0.000    0.000    0.000 
#
# Total GULP energy -133648.682678 kJ/mol
# GULP energy per Si atom -5568.695112 kJ/mol
# Density = 2.193346 g / cm^3
# Si number density = 21.983497 Si / 1000 Ang^3
#
#
#
# Elastic Constant Matrix: (Units=GPa)
#
#
# Indices 1 2 3 4 5 6 
#
# 1 137.7976 19.4755 29.6720 0.0000 33.9708 0.0000
# 2 19.4755 63.7067 1.5301 0.0000 16.1054 0.0000
# 3 29.6720 1.5301 107.1376 0.0000 13.0051 0.0000
# 4 0.0000 0.0000 0.0000 -235.2035 0.0000 -227.4386
# 5 33.9708 16.1054 13.0051 0.0000 40.6110 0.0000
# 6 0.0000 0.0000 0.0000 -227.4386 0.0000 -171.8887
#
#
#
# Elastic Compliance Matrix: (Units=1/GPa)
#
#
# Indices 1 2 3 4 5 6 
#
# 1 0.009508 -0.001108 -0.001774 0.000000 -0.006946 0.000000
# 2 -0.001108 0.017614 0.000823 0.000000 -0.006322 0.000000
# 3 -0.001774 0.000823 0.010064 0.000000 -0.002065 0.000000
# 4 0.000000 0.000000 0.000000 0.015212 0.000000 -0.020128
# 5 -0.006946 -0.006322 -0.002065 0.000000 0.033602 0.000000
# 6 0.000000 0.000000 0.000000 -0.020128 0.000000 0.020815
#
#
# Mechanical properties :
#
#
# Convention : Reuss Voigt Hill
#
# Bulk Modulus (GPa) = 30.24179 45.55526 37.89852
# Shear Modulus (GPa) = 40.99779 -56.09862 -7.55041
#
# Velocity S-wave (km/s) = 4.32317 -5.05707 -1.85527
# Velocity P-wave (km/s) = 6.22143 3.65118 3.56196
#
# Compressibility (1/GPa) = 0.03306682
#
# Stress axis : x y z
#
# Youngs Moduli (GPa) = 105.17455 56.77251 99.36311
#
# Poissons Ratio (x) = 0.06291 0.17630
# Poissons Ratio (y) = 0.11655 -0.08175
# Poissons Ratio (z) = 0.18661 -0.04671
#
# Static dielectric constant tensor:
#      x y z
#    x 1.968080 0.000000 -0.018720 
#    y 0.000000 1.838530 0.000000 
#    z -0.018720 0.000000 1.873150 
# 
# From -- ./inp_files/89827.got.cif
#   From: 2010.05.17/outbox.cif.g08.bks.cpg/sg15_45_cif.got.tgz:89827.got - 2010.06.03 18:47:42.
