data_PCOD9306970
_publ_section_title
;
Structure prediction by ZEFSAII (Michael W. Deem and Ramdas Pophale) SiO2 
 PCOD9306970
Probable space group: C 2/C
;
_chemical_formula_sum "Si O2"
_cell_formula_units_Z 36
_cell_length_a 23.172252
_cell_length_b 16.346159
_cell_length_c 13.754164
_cell_angle_alpha 90.000000
_cell_angle_beta 161.001475
_cell_angle_gamma 90.000000
_cell_volume 1696.006868
_symmetry_space_group_name_H-M "C 2/C"
_symmetry_group_IT_number 15
_symmetry_cell_setting 'monoclinic'
loop_
_space_group_symop_operation_xyz
x,y,z
-x,y,1/2-z
-x,-y,-z
x,-y,1/2+z
1/2+x,1/2+y,z
1/2-x,1/2+y,1/2-z
1/2-x,1/2-y,-z
1/2+x,1/2-y,1/2+z
loop_
_atom_site_type_symbol
_atom_site_label
_atom_site_fract_x
_atom_site_fract_y
_atom_site_fract_z
Si Si1 0.650545 0.993281 0.819451
Si Si2 0.324699 0.724005 0.726083
Si Si3 0.500000 0.119830 0.250000
Si Si4 0.191386 0.879607 0.577598
Si Si5 0.884652 0.916831 0.827651
O O1 0.798081 0.945813 0.991594
O O2 0.500000 0.000000 0.500000
O O3 0.567152 0.936346 0.769544
O O4 0.672506 0.824664 0.042829
O O5 0.250000 0.750000 0.500000
O O6 0.343521 0.811902 0.806581
O O7 0.491605 0.663381 0.985286
O O8 0.735108 0.928596 0.506914
O O9 0.196801 0.914991 0.694079
O O10 0.000000 0.839447 0.250000
O O11 0.000000 0.000000 0.000000
#
# Coordination Sequence:
#
# PCOD9306970 Si02
#       5
#     8   8   4   8   8
#     4  12  27  42  68 100 138 182 233 299 348 413
#     4  12  21  40  71 103 138 183 229 290 353 427
#     4  12  20  40  68  98 132 170 234 276 358 404
#     4  12  22  41  72 102 139 179 236 288 357 420
#     4  12  23  44  72 103 134 183 243 289 349 427
#
# _framework density 21.226327999999999
#
# number of rings (size 3 to 8) (size 9 to 14) (size 15 to 20)
#    0.000    0.000   10.000    1.333    0.000    0.000 
#    0.000    1.111    4.889    0.000    0.000    0.000 
#    0.000    0.000    0.000    0.000    0.000    0.000 
#
# Total GULP energy -100487.270134 kJ/mol
# GULP energy per Si atom -5582.626119 kJ/mol
# Density = 2.117802 g / cm^3
# Si number density = 21.226328 Si / 1000 Ang^3
#
#
#
# Elastic Constant Matrix: (Units=GPa)
#
#
# Indices 1 2 3 4 5 6 
#
# 1 159.2234 65.9577 40.8062 0.0000 -1.2056 0.0000
# 2 65.9577 99.0665 38.6551 0.0000 -14.7826 0.0000
# 3 40.8062 38.6551 88.3582 0.0000 -21.2545 0.0000
# 4 0.0000 0.0000 0.0000 38.0811 0.0000 16.1624
# 5 -1.2056 -14.7826 -21.2545 0.0000 32.3046 0.0000
# 6 0.0000 0.0000 0.0000 16.1624 0.0000 36.6037
#
#
#
# Elastic Compliance Matrix: (Units=1/GPa)
#
#
# Indices 1 2 3 4 5 6 
#
# 1 0.009346 -0.005747 -0.002792 0.000000 -0.004118 0.000000
# 2 -0.005747 0.015872 -0.003082 0.000000 0.005021 0.000000
# 3 -0.002792 -0.003082 0.016147 0.000000 0.009109 0.000000
# 4 0.000000 0.000000 0.000000 0.032316 0.000000 -0.014269
# 5 -0.004118 0.005021 0.009109 0.000000 0.039092 0.000000
# 6 0.000000 0.000000 0.000000 -0.014269 0.000000 0.033620
#
#
# Mechanical properties :
#
#
# Convention : Reuss Voigt Hill
#
# Bulk Modulus (GPa) = 55.18263 70.83181 63.00722
# Shear Modulus (GPa) = 28.46127 34.81314 31.63720
#
# Velocity S-wave (km/s) = 3.66573 4.05420 3.86485
# Velocity P-wave (km/s) = 6.63102 7.44027 7.04727
#
# Compressibility (1/GPa) = 0.01812164
#
# Stress axis : x y z
#
# Youngs Moduli (GPa) = 107.00048 63.00207 61.93236
#
# Poissons Ratio (x) = 0.36209 0.17295
# Poissons Ratio (y) = 0.61496 0.19087
# Poissons Ratio (z) = 0.29880 0.19416
#
# Static dielectric constant tensor:
#      x y z
#    x 1.760560 0.000000 0.038310 
#    y 0.000000 1.954060 0.000000 
#    z 0.038310 0.000000 1.931480 
# 
# From -- ./inp_files/173750.got.cif
#   From: 2010.05.17/outbox.cif.g08.bks.cpg/sg15_87_cif.got.tgz:173750.got - 2010.06.03 18:47:42.
