data_PCOD9306391
_publ_section_title
;
Structure prediction by ZEFSAII (Michael W. Deem and Ramdas Pophale) SiO2 
 PCOD9306391
Probable space group: C 2/C
;
_chemical_formula_sum "Si O2"
_cell_formula_units_Z 44
_cell_length_a 25.721116
_cell_length_b 6.855999
_cell_length_c 12.037005
_cell_angle_alpha 90.000000
_cell_angle_beta 76.444941
_cell_angle_gamma 90.000000
_cell_volume 2063.526753
_symmetry_space_group_name_H-M "C 2/C"
_symmetry_group_IT_number 15
_symmetry_cell_setting 'monoclinic'
loop_
_space_group_symop_operation_xyz
x,y,z
-x,y,1/2-z
-x,-y,-z
x,-y,1/2+z
1/2+x,1/2+y,z
1/2-x,1/2+y,1/2-z
1/2-x,1/2-y,-z
1/2+x,1/2-y,1/2+z
loop_
_atom_site_type_symbol
_atom_site_label
_atom_site_fract_x
_atom_site_fract_y
_atom_site_fract_z
Si Si1 0.451910 0.608383 0.085989
Si Si2 0.782793 0.054153 0.506724
Si Si3 0.307017 0.803955 0.850374
Si Si4 0.873533 0.780537 0.107415
Si Si5 0.908599 0.571508 0.442966
Si Si6 0.500000 0.889055 0.250000
O O1 0.411930 0.438304 0.145826
O O2 0.472756 0.748353 0.172581
O O3 0.500000 0.500000 0.000000
O O4 0.423456 0.742213 0.008431
O O5 0.750000 0.250000 0.500000
O O6 0.838762 0.110428 0.532280
O O7 0.746742 0.927435 0.608927
O O8 0.793030 0.915428 0.396139
O O9 0.332730 0.807197 0.716830
O O10 0.351886 0.891900 0.911303
O O11 0.905144 0.610505 0.029146
O O12 0.954571 0.519870 0.331167
#
# Coordination Sequence:
#
# PCOD9306391 Si02
#       6
#     8   8   8   8   8   4
#     4  12  28  47  71 105 141 185 239 286 352 419
#     4  11  25  48  69 106 141 181 239 285 351 419
#     4  11  27  44  74 102 142 186 230 294 347 418
#     4  12  27  46  75 103 143 189 233 292 351 420
#     4  12  26  50  69 109 140 182 241 290 350 419
#     4  12  28  46  76 102 144 188 230 298 348 412
#
# _framework density 21.322718999999999
#
# number of rings (size 3 to 8) (size 9 to 14) (size 15 to 20)
#    0.000    0.364    5.455    1.636   10.182    1.455 
#    0.000    0.000    0.000    0.000    0.000    0.000 
#    0.000    0.000    0.000    0.000    0.000    0.000 
#
# Total GULP energy -123189.172529 kJ/mol
# GULP energy per Si atom -5599.507842 kJ/mol
# Density = 2.127419 g / cm^3
# Si number density = 21.322719 Si / 1000 Ang^3
#
#
#
# Elastic Constant Matrix: (Units=GPa)
#
#
# Indices 1 2 3 4 5 6 
#
# 1 43.7460 20.0748 -13.9679 0.0000 -13.5066 0.0000
# 2 20.0748 88.4840 16.3762 0.0000 -2.6356 0.0000
# 3 -13.9679 16.3762 69.0477 0.0000 -28.1529 0.0000
# 4 0.0000 0.0000 0.0000 13.5965 0.0000 -7.6689
# 5 -13.5066 -2.6356 -28.1529 0.0000 37.8640 0.0000
# 6 0.0000 0.0000 0.0000 -7.6689 0.0000 48.3373
#
#
#
# Elastic Compliance Matrix: (Units=1/GPa)
#
#
# Indices 1 2 3 4 5 6 
#
# 1 0.053499 -0.016772 0.031722 0.000000 0.041503 0.000000
# 2 -0.016772 0.017166 -0.013513 0.000000 -0.014835 0.000000
# 3 0.031722 -0.013513 0.040663 0.000000 0.040609 0.000000
# 4 0.000000 0.000000 0.000000 0.080777 0.000000 0.012816
# 5 0.041503 -0.014835 0.040609 0.000000 0.070376 0.000000
# 6 0.000000 0.000000 0.000000 0.012816 0.000000 0.022721
#
#
# Mechanical properties :
#
#
# Convention : Reuss Voigt Hill
#
# Bulk Modulus (GPa) = 8.75647 27.36044 18.05846
# Shear Modulus (GPa) = 15.60576 31.87920 23.74248
#
# Velocity S-wave (km/s) = 2.70827 3.87082 3.34051
# Velocity P-wave (km/s) = 3.72763 5.73037 4.83386
#
# Compressibility (1/GPa) = 0.11420125
#
# Stress axis : x y z
#
# Youngs Moduli (GPa) = 18.69197 58.25557 24.59268
#
# Poissons Ratio (x) = 0.97708 -0.78014
# Poissons Ratio (y) = 0.31351 0.33232
# Poissons Ratio (z) = -0.59296 0.78721
#
# Static dielectric constant tensor:
#      x y z
#    x 1.759880 0.000000 0.005680 
#    y 0.000000 1.750170 0.000000 
#    z 0.005680 0.000000 1.725110 
# 
# From -- ./inp_files/124991.got.cif
#   From: 2010.05.17/outbox.cif.g08.bks.cpg/sg15_63_cif.got.tgz:124991.got - 2010.06.03 18:47:42.
