data_PCOD9306192
_publ_section_title
;
Structure prediction by ZEFSAII (Michael W. Deem and Ramdas Pophale) SiO2 
 PCOD9306192
Probable space group: C 2/C
;
_chemical_formula_sum "Si O2"
_cell_formula_units_Z 44
_cell_length_a 24.362643
_cell_length_b 8.711124
_cell_length_c 23.801965
_cell_angle_alpha 90.000000
_cell_angle_beta 160.470855
_cell_angle_gamma 90.000000
_cell_volume 1688.612530
_symmetry_space_group_name_H-M "C 2/C"
_symmetry_group_IT_number 15
_symmetry_cell_setting 'monoclinic'
loop_
_space_group_symop_operation_xyz
x,y,z
-x,y,1/2-z
-x,-y,-z
x,-y,1/2+z
1/2+x,1/2+y,z
1/2-x,1/2+y,1/2-z
1/2-x,1/2-y,-z
1/2+x,1/2-y,1/2+z
loop_
_atom_site_type_symbol
_atom_site_label
_atom_site_fract_x
_atom_site_fract_y
_atom_site_fract_z
Si Si1 0.727519 0.215823 0.769928
Si Si2 0.500000 0.365800 0.250000
Si Si3 0.906531 0.265417 0.779486
Si Si4 0.813922 0.417834 0.046697
Si Si5 0.392935 0.393361 0.952545
Si Si6 0.431091 0.927747 0.035515
O O1 0.640417 0.270890 0.629076
O O2 0.594497 0.176759 0.689833
O O3 0.841193 0.062066 0.880728
O O4 0.831121 0.362745 0.887567
O O5 0.541464 0.270382 0.233643
O O6 0.666717 0.465358 0.420767
O O7 0.011679 0.398792 0.910616
O O8 0.729269 0.341842 0.614761
O O9 0.934733 0.121558 0.848457
O O10 0.833567 0.416823 0.998768
O O11 0.000000 0.444611 0.250000
O O12 0.750000 0.250000 0.000000
#
# Coordination Sequence:
#
# PCOD9306192 Si02
#       6
#     8   4   8   8   8   8
#     4  11  25  45  75 109 152 199 254 329 388 480
#     4  12  30  50  82 112 160 214 264 326 394 456
#     4  11  27  48  73 109 151 204 260 323 389 472
#     4  12  27  48  79 116 157 204 265 321 387 468
#     4  11  25  45  74 110 150 199 260 318 402 467
#     4  11  26  46  73 106 153 198 259 320 398 461
#
# _framework density 26.056895000000001
#
# number of rings (size 3 to 8) (size 9 to 14) (size 15 to 20)
#    0.000    0.727    0.909    4.364    8.909    8.727 
#    0.000    0.000    0.000    0.000    0.000    0.000 
#    0.000    0.000    0.000    0.000    0.000    0.000 
#
# Total GULP energy -123160.900363 kJ/mol
# GULP energy per Si atom -5598.222744 kJ/mol
# Density = 2.599759 g / cm^3
# Si number density = 26.056895 Si / 1000 Ang^3
#
#
#
# Elastic Constant Matrix: (Units=GPa)
#
#
# Indices 1 2 3 4 5 6 
#
# 1 112.1241 33.1261 34.9538 -0.0013 6.0804 0.0001
# 2 33.1261 127.3456 63.8503 -0.0017 1.9857 -0.0001
# 3 34.9538 63.8503 123.2205 -0.0078 -3.2385 -0.0015
# 4 -0.0013 -0.0017 -0.0078 50.8533 -0.0021 0.3817
# 5 6.0804 1.9857 -3.2385 -0.0021 46.4205 -0.0001
# 6 0.0001 -0.0001 -0.0015 0.3817 -0.0001 37.5602
#
#
#
# Elastic Compliance Matrix: (Units=1/GPa)
#
#
# Indices 1 2 3 4 5 6 
#
# 1 0.010109 -0.001556 -0.002098 0.000000 -0.001404 0.000000
# 2 -0.001556 0.010881 -0.005214 0.000000 -0.000625 0.000000
# 3 -0.002098 -0.005214 0.011446 0.000002 0.001296 0.000000
# 4 0.000000 0.000000 0.000002 0.019666 0.000001 -0.000200
# 5 -0.001404 -0.000625 0.001296 0.000001 0.021843 0.000000
# 6 0.000000 0.000000 0.000000 -0.000200 0.000000 0.026626
#
#
# Mechanical properties :
#
#
# Convention : Reuss Voigt Hill
#
# Bulk Modulus (GPa) = 68.02164 69.61675 68.81919
# Shear Modulus (GPa) = 40.58236 42.35082 41.46659
#
# Velocity S-wave (km/s) = 3.95074 4.03590 3.99355
# Velocity P-wave (km/s) = 6.85367 6.96371 6.90891
#
# Compressibility (1/GPa) = 0.01470120
#
# Stress axis : x y z
#
# Youngs Moduli (GPa) = 98.92642 91.90280 87.36391
#
# Poissons Ratio (x) = 0.14296 0.18332
# Poissons Ratio (y) = 0.15388 0.45547
# Poissons Ratio (z) = 0.20758 0.47914
#
# Static dielectric constant tensor:
#      x y z
#    x 1.715540 0.000000 -0.495330 
#    y 0.000000 1.752090 0.000010 
#    z -0.495330 0.000010 1.004670 
# 
# From -- ./inp_files/303181.got.cif
#   From: 2010.05.17/outbox.cif.g08.bks.cpg/sg15_152_cif.got.tgz:303181.got - 2010.06.03 18:47:42.
