data_PCOD9306548
_publ_section_title
;
Structure prediction by ZEFSAII (Michael W. Deem and Ramdas Pophale) SiO2 
 PCOD9306548
Probable space group: C 2/C
;
_chemical_formula_sum "Si O2"
_cell_formula_units_Z 44
_cell_length_a 19.248965
_cell_length_b 15.241206
_cell_length_c 24.877934
_cell_angle_alpha 90.000000
_cell_angle_beta 164.221804
_cell_angle_gamma 90.000000
_cell_volume 1984.598605
_symmetry_space_group_name_H-M "C 2/C"
_symmetry_group_IT_number 15
_symmetry_cell_setting 'monoclinic'
loop_
_space_group_symop_operation_xyz
x,y,z
-x,y,1/2-z
-x,-y,-z
x,-y,1/2+z
1/2+x,1/2+y,z
1/2-x,1/2+y,1/2-z
1/2-x,1/2-y,-z
1/2+x,1/2-y,1/2+z
loop_
_atom_site_type_symbol
_atom_site_label
_atom_site_fract_x
_atom_site_fract_y
_atom_site_fract_z
Si Si1 0.783098 0.314417 0.475471
Si Si2 0.000000 0.399882 0.250000
Si Si3 0.390832 0.709360 0.865797
Si Si4 0.173627 0.468182 0.178319
Si Si5 0.497894 0.644111 0.434405
Si Si6 0.294095 0.991082 0.991430
O O1 0.500000 0.340175 0.250000
O O2 0.750000 0.250000 0.500000
O O3 0.897464 0.408669 0.573392
O O4 0.912771 0.265230 0.522903
O O5 0.220544 0.351116 0.380916
O O6 0.158655 0.451268 0.414509
O O7 0.297904 0.626761 0.761089
O O8 0.175056 0.780088 0.720540
O O9 0.500920 0.668380 0.001877
O O10 0.378076 0.546527 0.339356
O O11 0.000000 0.500000 0.000000
O O12 0.988370 0.453091 0.091568
O O13 0.000000 0.980618 0.750000
#
# Coordination Sequence:
#
# PCOD9306548 Si02
#       6
#     8   4   8   8   8   8
#     4  11  26  41  69 107 145 189 241 312 382 447
#     4  12  28  50  78 110 150 208 260 314 382 448
#     4  12  26  48  73 106 151 196 253 315 376 461
#     4  12  26  48  75 106 151 203 251 315 385 456
#     4  12  27  48  75 110 146 200 260 309 383 457
#     4  11  26  49  73 112 151 193 255 316 383 454
#
# _framework density 22.170729000000001
#
# number of rings (size 3 to 8) (size 9 to 14) (size 15 to 20)
#    0.000    0.364    3.636    3.818    8.909    0.727 
#    1.636    0.000    0.000    0.000    0.000    0.000 
#    0.000    0.000    0.000    0.000    0.000    0.000 
#
# Total GULP energy -122996.412966 kJ/mol
# GULP energy per Si atom -5590.746044 kJ/mol
# Density = 2.212027 g / cm^3
# Si number density = 22.170729 Si / 1000 Ang^3
#
#
#
# Elastic Constant Matrix: (Units=GPa)
#
#
# Indices 1 2 3 4 5 6 
#
# 1 105.5684 3.3452 28.6186 0.0129 -1.4294 0.1055
# 2 3.3452 91.6551 25.1775 -0.1748 12.9375 -0.0225
# 3 28.6186 25.1775 85.2621 -0.0334 14.8069 -0.0989
# 4 0.0129 -0.1748 -0.0334 36.0321 0.0251 -3.5600
# 5 -1.4294 12.9375 14.8069 0.0251 41.2156 0.0780
# 6 0.1055 -0.0225 -0.0989 -3.5600 0.0780 21.7724
#
#
#
# Elastic Compliance Matrix: (Units=1/GPa)
#
#
# Indices 1 2 3 4 5 6 
#
# 1 0.010556 0.000473 -0.003968 -0.000014 0.001643 -0.000077
# 2 0.000473 0.012169 -0.003297 0.000059 -0.002619 0.000014
# 3 -0.003968 -0.003297 0.014802 0.000012 -0.004420 0.000101
# 4 -0.000014 0.000059 0.000012 0.028209 -0.000049 0.004613
# 5 0.001643 -0.002619 -0.004420 -0.000049 0.026730 -0.000135
# 6 -0.000077 0.000014 0.000101 0.004613 -0.000135 0.046685
#
#
# Mechanical properties :
#
#
# Convention : Reuss Voigt Hill
#
# Bulk Modulus (GPa) = 41.76921 44.08535 42.92728
# Shear Modulus (GPa) = 31.11072 34.82697 32.96885
#
# Velocity S-wave (km/s) = 3.75004 3.96770 3.86040
# Velocity P-wave (km/s) = 6.13442 6.39671 6.26693
#
# Compressibility (1/GPa) = 0.02394108
#
# Stress axis : x y z
#
# Youngs Moduli (GPa) = 94.73634 82.17783 67.55880
#
# Poissons Ratio (x) = -0.03885 0.26808
# Poissons Ratio (y) = -0.04479 0.22276
# Poissons Ratio (z) = 0.37593 0.27096
#
# Static dielectric constant tensor:
#      x y z
#    x 1.773950 -0.000100 -0.034690 
#    y -0.000100 1.871640 -0.000250 
#    z -0.034690 -0.000250 1.857100 
# 
# From -- ./inp_files/47557.got.cif
#   From: 2010.05.17/outbox.cif.g08.bks.cpg/sg15_24_cif.got.tgz:47557.got - 2010.06.03 18:47:42.
