data_PCOD9306574
_publ_section_title
;
Structure prediction by ZEFSAII (Michael W. Deem and Ramdas Pophale) SiO2 
 PCOD9306574
Probable space group: C 2/C
;
_chemical_formula_sum "Si O2"
_cell_formula_units_Z 40
_cell_length_a 10.953786
_cell_length_b 15.890448
_cell_length_c 8.942934
_cell_angle_alpha 90.000000
_cell_angle_beta 103.671618
_cell_angle_gamma 90.000000
_cell_volume 1512.507612
_symmetry_space_group_name_H-M "C 2/C"
_symmetry_group_IT_number 15
_symmetry_cell_setting 'monoclinic'
loop_
_space_group_symop_operation_xyz
x,y,z
-x,y,1/2-z
-x,-y,-z
x,-y,1/2+z
1/2+x,1/2+y,z
1/2-x,1/2+y,1/2-z
1/2-x,1/2-y,-z
1/2+x,1/2-y,1/2+z
loop_
_atom_site_type_symbol
_atom_site_label
_atom_site_fract_x
_atom_site_fract_y
_atom_site_fract_z
Si Si1 0.750000 0.250000 0.000000
Si Si2 0.500000 0.349455 0.250000
Si Si3 0.213963 0.424875 0.616448
Si Si4 0.633656 0.486302 0.117190
Si Si5 0.386774 0.788435 0.516419
Si Si6 0.500000 0.070669 0.250000
Si Si7 0.500000 0.763178 0.250000
O O1 0.819381 0.329837 0.937491
O O2 0.615256 0.278171 0.876581
O O3 0.612748 0.408660 0.225647
O O4 0.531897 0.289010 0.395225
O O5 0.264632 0.464927 0.478432
O O6 0.323437 0.436155 0.770550
O O7 0.094596 0.470574 0.659048
O O8 0.500000 0.500000 0.000000
O O9 0.250000 0.750000 0.500000
O O10 0.410632 0.867980 0.627657
O O11 0.418926 0.809241 0.354970
#
# Coordination Sequence:
#
# PCOD9306574 Si02
#       7
#     4   4   8   8   8   4   4
#     4  12  28  50  86 120 168 220 280 368 414 524
#     4  11  26  47  72 118 158 212 286 336 445 501
#     4  12  28  52  78 120 169 218 288 346 437 513
#     4  12  27  50  79 118 160 221 276 358 430 513
#     4  11  26  44  77 114 165 212 280 361 416 512
#     4  11  26  50  71 123 159 228 274 350 431 506
#     4  12  26  47  73 123 157 210 272 350 428 477
#
# _framework density 26.446148999999998
#
# number of rings (size 3 to 8) (size 9 to 14) (size 15 to 20)
#    0.000    0.400    4.000    2.400   16.800    0.800 
#    0.000    1.000    0.000    0.000    0.000    0.000 
#    0.000    0.000    0.000    0.000    0.000    0.000 
#
# Total GULP energy -111468.832458 kJ/mol
# GULP energy per Si atom -5573.441623 kJ/mol
# Density = 2.638596 g / cm^3
# Si number density = 26.446149 Si / 1000 Ang^3
#
#
#
# Elastic Constant Matrix: (Units=GPa)
#
#
# Indices 1 2 3 4 5 6 
#
# 1 145.2637 44.5444 78.6713 0.0000 -24.7539 0.0000
# 2 44.5444 80.7522 46.8207 0.0000 -11.0700 0.0000
# 3 78.6713 46.8207 146.9519 0.0000 -38.3528 0.0000
# 4 0.0000 0.0000 0.0000 24.5224 0.0000 10.6691
# 5 -24.7539 -11.0700 -38.3528 0.0000 75.2162 0.0000
# 6 0.0000 0.0000 0.0000 10.6691 0.0000 29.9072
#
#
#
# Elastic Compliance Matrix: (Units=1/GPa)
#
#
# Indices 1 2 3 4 5 6 
#
# 1 0.010302 -0.003061 -0.004352 0.000000 0.000721 0.000000
# 2 -0.003061 0.016104 -0.003618 0.000000 -0.000482 0.000000
# 3 -0.004352 -0.003618 0.011275 0.000000 0.003785 0.000000
# 4 0.000000 0.000000 0.000000 0.048271 0.000000 -0.017220
# 5 0.000721 -0.000482 0.003785 0.000000 0.015391 0.000000
# 6 0.000000 0.000000 0.000000 -0.017220 0.000000 0.039580
#
#
# Mechanical properties :
#
#
# Convention : Reuss Voigt Hill
#
# Bulk Modulus (GPa) = 64.02228 79.22674 71.62451
# Shear Modulus (GPa) = 29.72793 39.45791 34.59292
#
# Velocity S-wave (km/s) = 3.35639 3.86684 3.62062
# Velocity P-wave (km/s) = 6.26750 7.06820 6.67986
#
# Compressibility (1/GPa) = 0.01561956
#
# Stress axis : x y z
#
# Youngs Moduli (GPa) = 97.06420 62.09783 88.68925
#
# Poissons Ratio (x) = 0.19007 0.38598
# Poissons Ratio (y) = 0.29710 0.32088
# Poissons Ratio (z) = 0.42243 0.22467
#
# Static dielectric constant tensor:
#      x y z
#    x 2.195640 0.000000 0.028040 
#    y 0.000000 2.022890 0.000000 
#    z 0.028040 0.000000 2.088100 
# 
# From -- ./inp_files/29398.got.cif
#   From: 2010.05.17/outbox.cif.g08.bks.cpg/sg15_15_cif.got.tgz:29398.got - 2010.06.03 18:47:42.
