data_PCOD9306380
_publ_section_title
;
Structure prediction by ZEFSAII (Michael W. Deem and Ramdas Pophale) SiO2 
 PCOD9306380
Probable space group: C 2/C
;
_chemical_formula_sum "Si O2"
_cell_formula_units_Z 40
_cell_length_a 18.335694
_cell_length_b 8.116595
_cell_length_c 21.247141
_cell_angle_alpha 90.000000
_cell_angle_beta 154.122537
_cell_angle_gamma 90.000000
_cell_volume 1380.079659
_symmetry_space_group_name_H-M "C 2/C"
_symmetry_group_IT_number 15
_symmetry_cell_setting 'monoclinic'
loop_
_space_group_symop_operation_xyz
x,y,z
-x,y,1/2-z
-x,-y,-z
x,-y,1/2+z
1/2+x,1/2+y,z
1/2-x,1/2+y,1/2-z
1/2-x,1/2-y,-z
1/2+x,1/2-y,1/2+z
loop_
_atom_site_type_symbol
_atom_site_label
_atom_site_fract_x
_atom_site_fract_y
_atom_site_fract_z
Si Si1 0.000000 0.730399 0.750000
Si Si2 0.410870 0.417306 0.006448
Si Si3 0.806720 0.542160 0.036612
Si Si4 0.755767 0.250788 0.838866
Si Si5 0.500000 0.706147 0.750000
Si Si6 0.804741 0.612085 0.836958
O O1 0.892037 0.630298 0.614139
O O2 0.858832 0.791928 0.689562
O O3 0.602228 0.400419 0.174953
O O4 0.294851 0.431685 0.977572
O O5 0.373602 0.593536 0.945035
O O6 0.355742 0.258249 0.923672
O O7 0.960665 0.669591 0.161851
O O8 0.665268 0.594365 0.877662
O O9 0.650178 0.176409 0.698228
O O10 0.154684 0.578448 0.112945
#
# Coordination Sequence:
#
# PCOD9306380 Si02
#       6
#     4   8   8   8   4   8
#     4   9  22  46  73 104 159 201 254 319 395 458
#     4  11  25  47  77 119 154 206 267 325 394 467
#     4   9  18  37  67 102 153 196 253 318 383 465
#     4  11  25  49  78 117 155 208 260 328 388 472
#     4   9  16  32  61 104 145 199 254 309 385 462
#     4  12  26  48  85 113 158 208 270 326 394 472
#
# _framework density 28.983834999999999
#
# number of rings (size 3 to 8) (size 9 to 14) (size 15 to 20)
#    0.000    1.600    2.000    1.800    0.000    4.000 
#    0.000   16.000    0.000    0.000    0.000    1.400 
#    0.000    0.000    0.000    0.000    0.000    0.000 
#
# Total GULP energy -111938.279362 kJ/mol
# GULP energy per Si atom -5596.913968 kJ/mol
# Density = 2.891787 g / cm^3
# Si number density = 28.983835 Si / 1000 Ang^3
#
#
#
# Elastic Constant Matrix: (Units=GPa)
#
#
# Indices 1 2 3 4 5 6 
#
# 1 147.9615 64.1975 9.1413 -0.0001 14.2091 0.0000
# 2 64.1975 262.0971 93.7583 0.0006 -13.2865 0.0001
# 3 9.1413 93.7583 193.9810 0.0012 -17.3641 0.0003
# 4 -0.0001 0.0006 0.0012 53.7916 0.0004 -9.8599
# 5 14.2091 -13.2865 -17.3641 0.0004 30.3110 0.0001
# 6 0.0000 0.0001 0.0003 -9.8599 0.0001 27.4708
#
#
#
# Elastic Compliance Matrix: (Units=1/GPa)
#
#
# Indices 1 2 3 4 5 6 
#
# 1 0.008218 -0.002372 0.000339 0.000000 -0.004698 0.000000
# 2 -0.002372 0.005316 -0.002265 0.000000 0.002144 0.000000
# 3 0.000339 -0.002265 0.006462 0.000000 0.002550 0.000000
# 4 0.000000 0.000000 0.000000 0.019899 0.000000 0.007142
# 5 -0.004698 0.002144 0.002550 0.000000 0.037595 0.000000
# 6 0.000000 0.000000 0.000000 0.007142 0.000000 0.038966
#
#
# Mechanical properties :
#
#
# Convention : Reuss Voigt Hill
#
# Bulk Modulus (GPa) = 87.73373 104.24821 95.99097
# Shear Modulus (GPa) = 38.80385 51.44419 45.12402
#
# Velocity S-wave (km/s) = 3.66294 4.21756 3.95000
# Velocity P-wave (km/s) = 6.94443 7.73064 7.34806
#
# Compressibility (1/GPa) = 0.01139812
#
# Stress axis : x y z
#
# Youngs Moduli (GPa) = 121.68349 188.12733 154.74004
#
# Poissons Ratio (x) = 0.44629 -0.05242
# Poissons Ratio (y) = 0.28867 0.35056
# Poissons Ratio (z) = -0.04122 0.42620
#
# Static dielectric constant tensor:
#      x y z
#    x 2.410340 0.000000 -0.000570 
#    y 0.000000 2.320570 0.000000 
#    z -0.000570 0.000000 2.295820 
# 
# From -- ./inp_files/302152.got.cif
#   From: 2010.05.17/outbox.cif.g08.bks.cpg/sg15_152_cif.got.tgz:302152.got - 2010.06.03 18:47:42.
