data_PCOD9306256
_publ_section_title
;
Structure prediction by ZEFSAII (Michael W. Deem and Ramdas Pophale) SiO2 
 PCOD9306256
Probable space group: C 2/C
;
_chemical_formula_sum "Si O2"
_cell_formula_units_Z 48
_cell_length_a 26.720449
_cell_length_b 5.091856
_cell_length_c 14.703271
_cell_angle_alpha 90.000000
_cell_angle_beta 71.157166
_cell_angle_gamma 90.000000
_cell_volume 1893.268731
_symmetry_space_group_name_H-M "C 2/C"
_symmetry_group_IT_number 15
_symmetry_cell_setting 'monoclinic'
loop_
_space_group_symop_operation_xyz
x,y,z
-x,y,1/2-z
-x,-y,-z
x,-y,1/2+z
1/2+x,1/2+y,z
1/2-x,1/2+y,1/2-z
1/2-x,1/2-y,-z
1/2+x,1/2-y,1/2+z
loop_
_atom_site_type_symbol
_atom_site_label
_atom_site_fract_x
_atom_site_fract_y
_atom_site_fract_z
Si Si1 0.309112 0.230601 0.151931
Si Si2 0.146595 0.588318 0.021127
Si Si3 0.121057 0.871461 0.788005
Si Si4 0.584152 0.569789 0.115532
Si Si5 0.512732 0.248404 0.930771
Si Si6 0.712310 0.992709 0.652451
O O1 0.357349 0.414418 0.154019
O O2 0.404790 0.496750 0.286473
O O3 0.280078 0.197772 0.265958
O O4 0.267774 0.362579 0.107240
O O5 0.122133 0.306308 0.061532
O O6 0.172178 0.534662 0.908256
O O7 0.189540 0.640352 0.075411
O O8 0.102080 0.810331 0.050912
O O9 0.072221 0.719807 0.860738
O O10 0.167732 0.691904 0.718752
O O11 0.526909 0.690936 0.129443
O O12 0.500000 0.500000 0.000000
O O13 0.500000 0.000000 0.000000
#
# Coordination Sequence:
#
# PCOD9306256 Si02
#       6
#     8   8   8   8   8   8
#     4  12  24  45  75 109 155 207 266 328 399 474
#     4  11  26  45  76 111 154 201 256 326 390 469
#     4  11  26  47  72 104 154 206 255 328 391 471
#     4  11  25  49  72 110 149 198 261 314 394 472
#     4  12  28  46  75 111 145 194 257 314 391 465
#     4  11  25  46  71 111 152 205 268 318 401 480
#
# _framework density 25.352976999999999
#
# number of rings (size 3 to 8) (size 9 to 14) (size 15 to 20)
#    0.000    0.667    3.333    3.000    9.333    0.000 
#    0.000    6.667    0.000    0.000    0.000    0.000 
#    0.000    0.000    0.000    0.000    0.000    0.000 
#
# Total GULP energy -134470.556843 kJ/mol
# GULP energy per Si atom -5602.939868 kJ/mol
# Density = 2.529527 g / cm^3
# Si number density = 25.352977 Si / 1000 Ang^3
#
#
#
# Elastic Constant Matrix: (Units=GPa)
#
#
# Indices 1 2 3 4 5 6 
#
# 1 162.4612 34.2032 48.8237 0.0000 8.0033 0.0000
# 2 34.2032 118.9884 35.0807 0.0000 -9.6480 0.0000
# 3 48.8237 35.0807 115.8151 0.0000 10.8226 0.0000
# 4 0.0000 0.0000 0.0000 44.3925 0.0000 -6.7562
# 5 8.0033 -9.6480 10.8226 0.0000 41.6238 0.0000
# 6 0.0000 0.0000 0.0000 -6.7562 0.0000 41.5176
#
#
#
# Elastic Compliance Matrix: (Units=1/GPa)
#
#
# Indices 1 2 3 4 5 6 
#
# 1 0.007270 -0.001430 -0.002531 0.000000 -0.001071 0.000000
# 2 -0.001430 0.009874 -0.002693 0.000000 0.003264 0.000000
# 3 -0.002531 -0.002693 0.010792 0.000000 -0.002944 0.000000
# 4 0.000000 0.000000 0.000000 0.023098 0.000000 0.003759
# 5 -0.001071 0.003264 -0.002944 0.000000 0.025753 0.000000
# 6 0.000000 0.000000 0.000000 0.003759 0.000000 0.024698
#
#
# Mechanical properties :
#
#
# Convention : Reuss Voigt Hill
#
# Bulk Modulus (GPa) = 68.36648 70.38665 69.37656
# Shear Modulus (GPa) = 41.78162 44.11726 42.94944
#
# Velocity S-wave (km/s) = 4.06396 4.17600 4.12036
# Velocity P-wave (km/s) = 7.00324 7.14667 7.07532
#
# Compressibility (1/GPa) = 0.01462705
#
# Stress axis : x y z
#
# Youngs Moduli (GPa) = 137.55230 101.27732 92.65802
#
# Poissons Ratio (x) = 0.14485 0.23456
# Poissons Ratio (y) = 0.19674 0.24952
# Poissons Ratio (z) = 0.34821 0.27273
#
# Static dielectric constant tensor:
#      x y z
#    x 2.041970 0.000000 0.050760 
#    y 0.000000 1.990540 0.000000 
#    z 0.050760 0.000000 2.009100 
# 
# From -- ./inp_files/250818.got.cif
#   From: 2010.05.17/outbox.cif.g08.bks.cpg/sg15_126_cif.got.tgz:250818.got - 2010.06.03 18:47:42.
