data_PCOD9306572
_publ_section_title
;
Structure prediction by ZEFSAII (Michael W. Deem and Ramdas Pophale) SiO2 
 PCOD9306572
Probable space group: C 2/C
;
_chemical_formula_sum "Si O2"
_cell_formula_units_Z 32
_cell_length_a 12.223656
_cell_length_b 4.732664
_cell_length_c 22.977393
_cell_angle_alpha 90.000000
_cell_angle_beta 105.016229
_cell_angle_gamma 90.000000
_cell_volume 1283.861993
_symmetry_space_group_name_H-M "C 2/C"
_symmetry_group_IT_number 15
_symmetry_cell_setting 'monoclinic'
loop_
_space_group_symop_operation_xyz
x,y,z
-x,y,1/2-z
-x,-y,-z
x,-y,1/2+z
1/2+x,1/2+y,z
1/2-x,1/2+y,1/2-z
1/2-x,1/2-y,-z
1/2+x,1/2-y,1/2+z
loop_
_atom_site_type_symbol
_atom_site_label
_atom_site_fract_x
_atom_site_fract_y
_atom_site_fract_z
Si Si1 0.581733 0.118301 0.560415
Si Si2 0.328029 0.164122 0.748851
Si Si3 0.767134 0.879556 0.438959
Si Si4 0.546299 0.148244 0.846055
O O1 0.653135 0.359306 0.541275
O O2 0.515051 0.264543 0.604716
O O3 0.500000 0.000000 0.500000
O O4 0.666932 0.862512 0.588931
O O5 0.263347 0.415927 0.773161
O O6 0.434561 0.028345 0.798407
O O7 0.386347 0.291206 0.698454
O O8 0.750000 0.750000 0.500000
O O9 0.653662 0.996004 0.392243
#
# Coordination Sequence:
#
# PCOD9306572 Si02
#       4
#     8   8   8   8
#     4  12  26  44  68 104 143 183 231 279 347 421
#     4  11  26  49  70 102 134 179 238 291 346 414
#     4  12  26  44  68 104 143 183 231 279 347 421
#     4  11  26  44  76  98 140 184 228 292 352 406
#
# _framework density 24.924795
#
# number of rings (size 3 to 8) (size 9 to 14) (size 15 to 20)
#    0.000    0.500    2.500    4.500    0.000    8.000 
#    0.000    0.000    0.000    0.000    0.000    0.000 
#    0.000    0.000    0.000    0.000    0.000    0.000 
#
# Total GULP energy -89149.950591 kJ/mol
# GULP energy per Si atom -5571.871912 kJ/mol
# Density = 2.486806 g / cm^3
# Si number density = 24.924795 Si / 1000 Ang^3
#
#
#
# Elastic Constant Matrix: (Units=GPa)
#
#
# Indices 1 2 3 4 5 6 
#
# 1 161.4713 55.2960 65.1353 0.0000 18.1104 0.0000
# 2 55.2960 102.1197 5.6954 0.0000 7.5858 0.0000
# 3 65.1353 5.6954 123.0808 0.0000 17.2678 0.0000
# 4 0.0000 0.0000 0.0000 9.2259 0.0000 3.1085
# 5 18.1104 7.5858 17.2678 0.0000 35.8527 0.0000
# 6 0.0000 0.0000 0.0000 3.1085 0.0000 32.6284
#
#
#
# Elastic Compliance Matrix: (Units=1/GPa)
#
#
# Indices 1 2 3 4 5 6 
#
# 1 0.010075 -0.005060 -0.004863 0.000000 -0.001677 0.000000
# 2 -0.005060 0.012493 0.002265 0.000000 -0.001178 0.000000
# 3 -0.004863 0.002265 0.011063 0.000000 -0.003351 0.000000
# 4 0.000000 0.000000 0.000000 0.111985 0.000000 -0.010669
# 5 -0.001677 -0.001178 -0.003351 0.000000 0.030602 0.000000
# 6 0.000000 0.000000 0.000000 -0.010669 0.000000 0.031665
#
#
# Mechanical properties :
#
#
# Convention : Reuss Voigt Hill
#
# Bulk Modulus (GPa) = 54.59331 70.99167 62.79249
# Shear Modulus (GPa) = 21.80499 32.91108 27.35803
#
# Velocity S-wave (km/s) = 2.96096 3.63769 3.31663
# Velocity P-wave (km/s) = 5.80004 6.79617 6.31777
#
# Compressibility (1/GPa) = 0.01831726
#
# Stress axis : x y z
#
# Youngs Moduli (GPa) = 99.25194 80.04180 90.38777
#
# Poissons Ratio (x) = 0.40500 0.43952
# Poissons Ratio (y) = 0.50220 -0.20472
# Poissons Ratio (z) = 0.48262 -0.18129
#
# Static dielectric constant tensor:
#      x y z
#    x 1.868060 0.000000 -0.001160 
#    y 0.000000 1.958960 0.000000 
#    z -0.001160 0.000000 2.000930 
# 
# From -- ./inp_files/267133.got.cif
#   From: 2010.05.17/outbox.cif.g08.bks.cpg/sg15_134_cif.got.tgz:267133.got - 2010.06.03 18:47:42.
