data_PCOD9306750
_publ_section_title
;
Structure prediction by ZEFSAII (Michael W. Deem and Ramdas Pophale) SiO2 
 PCOD9306750
Probable space group: C 2/C
;
_chemical_formula_sum "Si O2"
_cell_formula_units_Z 48
_cell_length_a 17.176435
_cell_length_b 16.460615
_cell_length_c 20.140100
_cell_angle_alpha 90.000000
_cell_angle_beta 157.911640
_cell_angle_gamma 90.000000
_cell_volume 2141.263744
_symmetry_space_group_name_H-M "C 2/C"
_symmetry_group_IT_number 15
_symmetry_cell_setting 'monoclinic'
loop_
_space_group_symop_operation_xyz
x,y,z
-x,y,1/2-z
-x,-y,-z
x,-y,1/2+z
1/2+x,1/2+y,z
1/2-x,1/2+y,1/2-z
1/2-x,1/2-y,-z
1/2+x,1/2-y,1/2+z
loop_
_atom_site_type_symbol
_atom_site_label
_atom_site_fract_x
_atom_site_fract_y
_atom_site_fract_z
Si Si1 0.268448 0.342487 0.039999
Si Si2 0.752525 0.187039 0.778543
Si Si3 0.044647 0.931865 0.589789
Si Si4 0.892731 0.673302 0.596412
Si Si5 0.838239 0.987158 0.564093
Si Si6 0.484120 0.856210 0.942415
O O1 0.500000 0.340821 0.250000
O O2 0.247195 0.422809 0.976502
O O3 0.250000 0.250000 0.000000
O O4 0.107616 0.360981 0.971633
O O5 0.552000 0.199670 0.666070
O O6 0.654868 0.142383 0.636682
O O7 0.865956 0.269744 0.849040
O O8 0.920977 0.142109 0.957693
O O9 0.940402 0.952435 0.577927
O O10 0.290421 0.917816 0.794034
O O11 0.000000 0.000000 0.500000
O O12 0.750000 0.750000 0.500000
O O13 0.792972 0.585428 0.505227
O O14 0.000000 0.656422 0.750000
O O15 0.000000 0.002661 0.750000
#
# Coordination Sequence:
#
# PCOD9306750 Si02
#       6
#     8   8   8   8   8   8
#     4  11  28  49  78 108 150 205 258 320 386 459
#     4  12  25  46  77 111 154 202 260 315 394 456
#     4  12  29  47  78 116 155 201 257 326 390 466
#     4  12  23  42  70 104 147 196 242 305 379 452
#     4  11  26  50  73 109 154 198 260 315 386 463
#     4  12  26  49  80 112 156 203 261 322 384 471
#
# _framework density 22.416667
#
# number of rings (size 3 to 8) (size 9 to 14) (size 15 to 20)
#    0.000    0.333    3.333    4.500    9.333    1.333 
#    0.000    0.000    0.000    0.000    0.000    0.000 
#    0.000    0.000    0.000    0.000    0.000    0.000 
#
# Total GULP energy -134023.055680 kJ/mol
# GULP energy per Si atom -5584.293987 kJ/mol
# Density = 2.236565 g / cm^3
# Si number density = 22.416667 Si / 1000 Ang^3
#
#
#
# Elastic Constant Matrix: (Units=GPa)
#
#
# Indices 1 2 3 4 5 6 
#
# 1 100.3807 1.7431 24.0101 0.0366 17.0668 0.0128
# 2 1.7431 116.7007 35.2812 -0.0592 10.1481 -0.0177
# 3 24.0101 35.2812 93.6549 -0.1437 -4.9329 -0.0409
# 4 0.0366 -0.0592 -0.1437 13.3242 -0.0437 -10.1618
# 5 17.0668 10.1481 -4.9329 -0.0437 47.2426 -0.0082
# 6 0.0128 -0.0177 -0.0409 -10.1618 -0.0082 41.6556
#
#
#
# Elastic Compliance Matrix: (Units=1/GPa)
#
#
# Indices 1 2 3 4 5 6 
#
# 1 0.011677 0.001395 -0.003778 -0.000109 -0.004913 -0.000034
# 2 0.001395 0.010133 -0.004340 -0.000020 -0.003134 -0.000006
# 3 -0.003778 -0.004340 0.013476 0.000195 0.003704 0.000061
# 4 -0.000109 -0.000020 0.000195 0.092210 0.000153 0.022495
# 5 -0.004913 -0.003134 0.003704 0.000153 0.024002 0.000046
# 6 -0.000034 -0.000006 0.000061 0.022495 0.000046 0.029494
#
#
# Mechanical properties :
#
#
# Convention : Reuss Voigt Hill
#
# Bulk Modulus (GPa) = 45.78753 48.08943 46.93848
# Shear Modulus (GPa) = 24.78715 37.09128 30.93921
#
# Velocity S-wave (km/s) = 3.32888 4.07213 3.71912
# Velocity P-wave (km/s) = 5.93678 6.60369 6.27909
#
# Compressibility (1/GPa) = 0.02184001
#
# Stress axis : x y z
#
# Youngs Moduli (GPa) = 85.64002 98.69143 74.20414
#
# Poissons Ratio (x) = -0.13766 0.28034
# Poissons Ratio (y) = -0.11946 0.32203
# Poissons Ratio (z) = 0.32354 0.42830
#
# Static dielectric constant tensor:
#      x y z
#    x 0.670790 0.000180 -0.760520 
#    y 0.000180 1.834800 0.000100 
#    z -0.760520 0.000100 1.341900 
# 
# From -- ./inp_files/249759.got.cif
#   From: 2010.05.17/outbox.cif.g08.bks.cpg/sg15_125_cif.got.tgz:249759.got - 2010.06.03 18:47:42.
