data_PCOD9306262
_publ_section_title
;
Structure prediction by ZEFSAII (Michael W. Deem and Ramdas Pophale) SiO2 
 PCOD9306262
Probable space group: C 2/C
;
_chemical_formula_sum "Si O2"
_cell_formula_units_Z 40
_cell_length_a 14.894105
_cell_length_b 14.662877
_cell_length_c 25.683504
_cell_angle_alpha 90.000000
_cell_angle_beta 161.890899
_cell_angle_gamma 90.000000
_cell_volume 1743.440714
_symmetry_space_group_name_H-M "C 2/C"
_symmetry_group_IT_number 15
_symmetry_cell_setting 'monoclinic'
loop_
_space_group_symop_operation_xyz
x,y,z
-x,y,1/2-z
-x,-y,-z
x,-y,1/2+z
1/2+x,1/2+y,z
1/2-x,1/2+y,1/2-z
1/2-x,1/2-y,-z
1/2+x,1/2-y,1/2+z
loop_
_atom_site_type_symbol
_atom_site_label
_atom_site_fract_x
_atom_site_fract_y
_atom_site_fract_z
Si Si1 0.252723 0.402676 0.034503
Si Si2 0.000000 0.756311 0.250000
Si Si3 0.500000 0.292705 0.750000
Si Si4 0.194766 0.962422 0.549599
Si Si5 0.260501 0.955053 0.830174
Si Si6 0.484295 0.351414 0.520829
O O1 0.319563 0.317947 0.109392
O O2 0.498818 0.475545 0.183793
O O3 0.266433 0.400485 0.979920
O O4 0.939184 0.439325 0.876520
O O5 0.222887 0.701209 0.335361
O O6 0.637077 0.359903 0.783049
O O7 0.243979 0.226106 0.591527
O O8 0.500000 0.968849 0.750000
O O9 0.951043 0.910875 0.449331
O O10 0.079934 0.064710 0.475119
O O11 0.500000 0.000000 0.000000
#
# Coordination Sequence:
#
# PCOD9306262 Si02
#       6
#     8   4   4   8   8   8
#     4  12  26  43  77 108 146 191 241 302 374 436
#     4  12  23  47  76 114 140 182 256 313 359 424
#     4  12  21  43  72 102 148 180 252 307 353 436
#     4  11  27  51  73 102 153 204 240 288 381 448
#     4  12  22  43  70 110 145 187 233 307 378 426
#     4  11  25  46  72 104 145 194 244 301 357 441
#
# _framework density 22.943135999999999
#
# number of rings (size 3 to 8) (size 9 to 14) (size 15 to 20)
#    0.000    0.400    8.000    0.000    5.600    0.800 
#    3.600    1.000    0.000    0.000    0.000    0.000 
#    0.000    0.000    0.000    0.000    0.000    0.000 
#
# Total GULP energy -111562.195278 kJ/mol
# GULP energy per Si atom -5578.109764 kJ/mol
# Density = 2.289092 g / cm^3
# Si number density = 22.943136 Si / 1000 Ang^3
#
#
#
# Elastic Constant Matrix: (Units=GPa)
#
#
# Indices 1 2 3 4 5 6 
#
# 1 77.8543 9.5954 34.7996 0.0064 14.6949 -0.0006
# 2 9.5954 135.7557 62.7064 0.0225 7.5319 -0.0060
# 3 34.7996 62.7064 135.5343 0.0548 10.4527 0.0073
# 4 0.0064 0.0225 0.0548 28.7150 0.0019 35.6875
# 5 14.6949 7.5319 10.4527 0.0019 46.1286 0.0014
# 6 -0.0006 -0.0060 0.0073 35.6875 0.0014 32.0065
#
#
#
# Elastic Compliance Matrix: (Units=1/GPa)
#
#
# Indices 1 2 3 4 5 6 
#
# 1 0.015326 0.001038 -0.004097 -0.000005 -0.004123 0.000007
# 2 0.001038 0.009453 -0.004575 0.000006 -0.000837 -0.000004
# 3 -0.004097 -0.004575 0.010574 0.000030 -0.000344 -0.000037
# 4 -0.000005 0.000006 0.000030 -0.090277 -0.000006 0.100660
# 5 -0.004123 -0.000837 -0.000344 -0.000006 0.023207 0.000005
# 6 0.000007 -0.000004 -0.000037 0.100660 0.000005 -0.080993
#
#
# Mechanical properties :
#
#
# Convention : Reuss Voigt Hill
#
# Bulk Modulus (GPa) = 49.79283 62.59413 56.19348
# Shear Modulus (GPa) = -55.09801 37.50620 -8.79590
#
# Velocity S-wave (km/s) = -4.90583 4.04759 -1.96013
# Velocity P-wave (km/s) = 3.21554 7.01323 4.40714
#
# Compressibility (1/GPa) = 0.02008321
#
# Stress axis : x y z
#
# Youngs Moduli (GPa) = 65.24717 105.79072 94.57536
#
# Poissons Ratio (x) = -0.10982 0.38752
# Poissons Ratio (y) = -0.06773 0.43271
# Poissons Ratio (z) = 0.26735 0.48403
#
# Static dielectric constant tensor:
#      x y z
#    x 1.990410 0.000020 0.022140 
#    y 0.000020 1.917350 -0.000010 
#    z 0.022140 -0.000010 1.932390 
# 
# From -- ./inp_files/105168.got.cif
#   From: 2010.05.17/outbox.cif.g08.bks.cpg/sg15_53_cif.got.tgz:105168.got - 2010.06.03 18:47:42.
