data_PCOD9306399
_publ_section_title
;
Structure prediction by ZEFSAII (Michael W. Deem and Ramdas Pophale) SiO2 
 PCOD9306399
Probable space group: C 2/C
;
_chemical_formula_sum "Si O2"
_cell_formula_units_Z 52
_cell_length_a 10.198857
_cell_length_b 21.500024
_cell_length_c 11.265572
_cell_angle_alpha 90.000000
_cell_angle_beta 116.567623
_cell_angle_gamma 90.000000
_cell_volume 2209.423356
_symmetry_space_group_name_H-M "C 2/C"
_symmetry_group_IT_number 15
_symmetry_cell_setting 'monoclinic'
loop_
_space_group_symop_operation_xyz
x,y,z
-x,y,1/2-z
-x,-y,-z
x,-y,1/2+z
1/2+x,1/2+y,z
1/2-x,1/2+y,1/2-z
1/2-x,1/2-y,-z
1/2+x,1/2-y,1/2+z
loop_
_atom_site_type_symbol
_atom_site_label
_atom_site_fract_x
_atom_site_fract_y
_atom_site_fract_z
Si Si1 0.194207 0.933755 0.175548
Si Si2 0.999603 0.623045 0.077876
Si Si3 0.666244 0.257390 0.838092
Si Si4 0.000000 0.275353 0.750000
Si Si5 0.000000 0.008975 0.250000
Si Si6 0.226608 0.817999 0.345270
Si Si7 0.500000 0.008947 0.250000
Si Si8 0.214817 0.891380 0.927398
O O1 0.187444 0.886064 0.282202
O O2 0.352309 0.969519 0.223611
O O3 0.174312 0.894321 0.048180
O O4 0.055550 0.975704 0.153025
O O5 0.076990 0.672916 0.197339
O O6 0.964674 0.558205 0.129097
O O7 0.110106 0.608500 0.016438
O O8 0.864227 0.664081 0.980392
O O9 0.500000 0.233711 0.750000
O O10 0.744397 0.222099 0.762097
O O11 0.658254 0.331793 0.834064
O O12 0.750000 0.250000 0.000000
O O13 0.105679 0.225403 0.858132
O O14 0.857940 0.048955 0.159798
#
# Coordination Sequence:
#
# PCOD9306399 Si02
#       8
#     8   8   8   4   4   8   4   8
#     4  12  27  45  74 108 149 197 256 313 381 457
#     4  11  25  48  77 106 149 202 259 317 385 459
#     4  12  25  46  73 109 147 190 259 321 384 460
#     4  11  25  48  70 112 153 191 252 316 400 453
#     4  12  27  50  68 108 153 198 244 318 376 456
#     4  12  26  44  74 107 149 197 249 316 386 464
#     4  11  26  48  74 108 150 205 268 312 372 465
#     4  12  24  48  75 106 146 202 252 316 386 452
#
# _framework density 23.535551999999999
#
# number of rings (size 3 to 8) (size 9 to 14) (size 15 to 20)
#    0.000    0.308    5.385    3.231    3.231    1.231 
#    2.769    0.000    0.000    0.000    0.000    0.000 
#    0.000    0.000    0.000    0.000    0.000    0.000 
#
# Total GULP energy -144936.202828 kJ/mol
# GULP energy per Si atom -5574.469340 kJ/mol
# Density = 2.348198 g / cm^3
# Si number density = 23.535552 Si / 1000 Ang^3
#
#
#
# Elastic Constant Matrix: (Units=GPa)
#
#
# Indices 1 2 3 4 5 6 
#
# 1 85.1957 36.5355 1.7249 0.0000 0.2743 0.0000
# 2 36.5355 109.4390 7.7037 0.0000 -0.0269 0.0000
# 3 1.7249 7.7037 52.5078 0.0000 1.4115 0.0000
# 4 0.0000 0.0000 0.0000 7.0238 0.0000 -0.3497
# 5 0.2743 -0.0269 1.4115 0.0000 27.4051 0.0000
# 6 0.0000 0.0000 0.0000 -0.3497 0.0000 20.0755
#
#
#
# Elastic Compliance Matrix: (Units=1/GPa)
#
#
# Indices 1 2 3 4 5 6 
#
# 1 0.013702 -0.004590 0.000227 0.000000 -0.000153 0.000000
# 2 -0.004590 0.010771 -0.001433 0.000000 0.000130 0.000000
# 3 0.000227 -0.001433 0.019274 0.000000 -0.000996 0.000000
# 4 0.000000 0.000000 0.000000 0.142496 0.000000 0.002482
# 5 -0.000153 0.000130 -0.000996 0.000000 0.036543 0.000000
# 6 0.000000 0.000000 0.000000 0.002482 0.000000 0.049855
#
#
# Mechanical properties :
#
#
# Convention : Reuss Voigt Hill
#
# Bulk Modulus (GPa) = 31.09884 37.67455 34.38669
# Shear Modulus (GPa) = 16.95196 24.31278 20.63237
#
# Velocity S-wave (km/s) = 2.68670 3.21756 2.96403
# Velocity P-wave (km/s) = 4.78191 5.46313 5.13383
#
# Compressibility (1/GPa) = 0.03215555
#
# Stress axis : x y z
#
# Youngs Moduli (GPa) = 72.98134 92.84281 51.88249
#
# Poissons Ratio (x) = 0.42619 -0.01180
# Poissons Ratio (y) = 0.33502 0.07435
# Poissons Ratio (z) = -0.01660 0.13304
#
# Static dielectric constant tensor:
#      x y z
#    x 2.067720 0.000000 0.011180 
#    y 0.000000 2.277250 0.000000 
#    z 0.011180 0.000000 2.022340 
# 
# From -- ./inp_files/89752.got.cif
#   From: 2010.05.17/outbox.cif.g08.bks.cpg/sg15_45_cif.got.tgz:89752.got - 2010.06.03 18:47:42.
