data_PCOD9306605
_publ_section_title
;
Structure prediction by ZEFSAII (Michael W. Deem and Ramdas Pophale) SiO2 
 PCOD9306605
Probable space group: C 2/C
;
_chemical_formula_sum "Si O2"
_cell_formula_units_Z 48
_cell_length_a 18.230574
_cell_length_b 13.205811
_cell_length_c 17.838102
_cell_angle_alpha 90.000000
_cell_angle_beta 148.248791
_cell_angle_gamma 90.000000
_cell_volume 2259.910329
_symmetry_space_group_name_H-M "C 2/C"
_symmetry_group_IT_number 15
_symmetry_cell_setting 'monoclinic'
loop_
_space_group_symop_operation_xyz
x,y,z
-x,y,1/2-z
-x,-y,-z
x,-y,1/2+z
1/2+x,1/2+y,z
1/2-x,1/2+y,1/2-z
1/2-x,1/2-y,-z
1/2+x,1/2-y,1/2+z
loop_
_atom_site_type_symbol
_atom_site_label
_atom_site_fract_x
_atom_site_fract_y
_atom_site_fract_z
Si Si1 0.672070 0.440056 0.981574
Si Si2 0.448173 0.233419 0.357090
Si Si3 0.285400 0.327725 0.963801
Si Si4 0.742950 0.704599 0.681241
Si Si5 0.877986 0.568238 0.926113
Si Si6 0.843377 0.912571 0.701755
O O1 0.736194 0.553020 0.040740
O O2 0.722766 0.366345 0.091523
O O3 0.504419 0.443996 0.844233
O O4 0.699430 0.397910 0.922195
O O5 0.550316 0.317100 0.411868
O O6 0.313068 0.207823 0.190356
O O7 0.397508 0.263379 0.396173
O O8 0.549424 0.136661 0.448067
O O9 0.250000 0.250000 0.000000
O O10 0.824972 0.640294 0.814145
O O11 0.818002 0.808060 0.723086
O O12 0.752799 0.499835 0.847031
O O13 0.000000 0.500000 0.000000
#
# Coordination Sequence:
#
# PCOD9306605 Si02
#       6
#     8   8   8   8   8   8
#     4  11  27  46  72 102 146 192 238 299 364 439
#     4  12  25  44  75 106 142 189 239 306 359 430
#     4  12  27  47  74 107 146 190 244 300 367 433
#     4  12  25  46  72 105 143 189 245 296 364 431
#     4  12  24  43  71 103 141 179 240 302 356 428
#     4  11  26  46  71 104 142 194 241 296 362 433
#
# _framework density 21.239781000000001
#
# number of rings (size 3 to 8) (size 9 to 14) (size 15 to 20)
#    0.000    0.333    3.333    5.000    4.667    1.333 
#    0.000    1.667    0.000    0.000    0.000    0.000 
#    0.000    0.000    0.000    0.000    0.000    0.000 
#
# Total GULP energy -134280.318048 kJ/mol
# GULP energy per Si atom -5595.013252 kJ/mol
# Density = 2.119144 g / cm^3
# Si number density = 21.239781 Si / 1000 Ang^3
#
#
#
# Elastic Constant Matrix: (Units=GPa)
#
#
# Indices 1 2 3 4 5 6 
#
# 1 117.8971 63.9405 40.5149 0.0000 -7.2349 0.0000
# 2 63.9405 140.0243 42.2861 0.0000 -8.9989 0.0000
# 3 40.5149 42.2861 92.3702 0.0000 -10.6319 0.0000
# 4 0.0000 0.0000 0.0000 35.6431 0.0000 -9.8936
# 5 -7.2349 -8.9989 -10.6319 0.0000 31.1030 0.0000
# 6 0.0000 0.0000 0.0000 -9.8936 0.0000 36.3552
#
#
#
# Elastic Compliance Matrix: (Units=1/GPa)
#
#
# Indices 1 2 3 4 5 6 
#
# 1 0.012046 -0.004517 -0.003168 0.000000 0.000412 0.000000
# 2 -0.004517 0.010021 -0.002491 0.000000 0.000997 0.000000
# 3 -0.003168 -0.002491 0.013728 0.000000 0.003235 0.000000
# 4 0.000000 0.000000 0.000000 0.030348 0.000000 0.008259
# 5 0.000412 0.000997 0.003235 0.000000 0.033641 0.000000
# 6 0.000000 0.000000 0.000000 0.008259 0.000000 0.029754
#
#
# Mechanical properties :
#
#
# Convention : Reuss Voigt Hill
#
# Bulk Modulus (GPa) = 64.75998 71.53052 68.14525
# Shear Modulus (GPa) = 32.24983 34.19028 33.22005
#
# Velocity S-wave (km/s) = 3.90085 4.01649 3.95910
# Velocity P-wave (km/s) = 7.13057 7.43373 7.28373
#
# Compressibility (1/GPa) = 0.01544164
#
# Stress axis : x y z
#
# Youngs Moduli (GPa) = 83.01556 99.79177 72.84171
#
# Poissons Ratio (x) = 0.45080 0.23077
# Poissons Ratio (y) = 0.37502 0.18147
# Poissons Ratio (z) = 0.26300 0.24861
#
# Static dielectric constant tensor:
#      x y z
#    x 1.451830 0.000000 -0.197670 
#    y 0.000000 1.918040 0.000000 
#    z -0.197670 0.000000 1.632230 
# 
# From -- ./inp_files/211444.got.cif
#   From: 2010.05.17/outbox.cif.g08.bks.cpg/sg15_106_cif.got.tgz:211444.got - 2010.06.03 18:47:42.
