data_PCOD9306007
_publ_section_title
;
Structure prediction by ZEFSAII (Michael W. Deem and Ramdas Pophale) SiO2 
 PCOD9306007
Probable space group: C 2/C
;
_chemical_formula_sum "Si O2"
_cell_formula_units_Z 40
_cell_length_a 37.924923
_cell_length_b 7.089623
_cell_length_c 19.372965
_cell_angle_alpha 90.000000
_cell_angle_beta 19.278880
_cell_angle_gamma 90.000000
_cell_volume 1719.795914
_symmetry_space_group_name_H-M "C 2/C"
_symmetry_group_IT_number 15
_symmetry_cell_setting 'monoclinic'
loop_
_space_group_symop_operation_xyz
x,y,z
-x,y,1/2-z
-x,-y,-z
x,-y,1/2+z
1/2+x,1/2+y,z
1/2-x,1/2+y,1/2-z
1/2-x,1/2-y,-z
1/2+x,1/2-y,1/2+z
loop_
_atom_site_type_symbol
_atom_site_label
_atom_site_fract_x
_atom_site_fract_y
_atom_site_fract_z
Si Si1 0.126131 0.904066 0.389177
Si Si2 0.264543 0.709933 0.391893
Si Si3 0.125669 0.877633 0.538404
Si Si4 0.453039 0.001677 0.511103
Si Si5 0.458683 0.278107 0.251803
O O1 0.192315 0.001660 0.205788
O O2 0.183625 0.871913 0.357171
O O3 0.038061 0.065252 0.570706
O O4 0.423704 0.207444 0.041621
O O5 0.250000 0.750000 0.500000
O O6 0.348856 0.864994 0.207401
O O7 0.164754 0.741028 0.525508
O O8 0.138581 0.087007 0.547517
O O9 0.000000 0.844590 0.750000
O O10 0.538837 0.105860 0.303950
O O11 0.500000 0.000000 0.500000
O O12 0.500000 0.211021 0.250000
#
# Coordination Sequence:
#
# PCOD9306007 Si02
#       5
#     8   8   8   8   8
#     4   9  22  43  65  94 131 176 220 268 338 398
#     4  11  26  43  64  98 140 171 219 291 334 395
#     4   9  21  44  70  93 127 179 225 276 336 403
#     4  11  25  41  67  97 133 178 219 272 338 409
#     4   8  19  42  67  93 126 170 224 275 320 394
#
# _framework density 23.258575
#
# number of rings (size 3 to 8) (size 9 to 14) (size 15 to 20)
#    0.000    2.800    0.000    0.000   11.200    5.600 
#    0.000    0.000    0.000    0.000    0.000    0.000 
#    0.000    0.000    0.000    0.000    0.000    0.000 
#
# Total GULP energy -111580.779631 kJ/mol
# GULP energy per Si atom -5579.038982 kJ/mol
# Density = 2.320564 g / cm^3
# Si number density = 23.258575 Si / 1000 Ang^3
#
#
#
# Elastic Constant Matrix: (Units=GPa)
#
#
# Indices 1 2 3 4 5 6 
#
# 1 146.4420 103.5177 32.1290 -0.0002 33.7476 -0.0003
# 2 103.5177 168.6154 40.7867 -0.0006 22.1683 -0.0005
# 3 32.1290 40.7867 57.6158 -0.0005 10.7783 -0.0002
# 4 -0.0002 -0.0006 -0.0005 28.2816 -0.0002 15.6253
# 5 33.7476 22.1683 10.7783 -0.0002 41.7766 -0.0002
# 6 -0.0003 -0.0005 -0.0002 15.6253 -0.0002 34.0257
#
#
#
# Elastic Compliance Matrix: (Units=1/GPa)
#
#
# Indices 1 2 3 4 5 6 
#
# 1 0.013877 -0.007291 -0.001265 0.000000 -0.007014 0.000000
# 2 -0.007291 0.011270 -0.004093 0.000000 0.000966 0.000000
# 3 -0.001265 -0.004093 0.021394 0.000000 -0.002326 0.000000
# 4 0.000000 0.000000 0.000000 0.047380 0.000000 -0.021758
# 5 -0.007014 0.000966 -0.002326 0.000000 0.029691 0.000000
# 6 0.000000 0.000000 0.000000 -0.021758 0.000000 0.039381
#
#
# Mechanical properties :
#
#
# Convention : Reuss Voigt Hill
#
# Bulk Modulus (GPa) = 47.07310 80.61557 63.84434
# Shear Modulus (GPa) = 25.59238 33.89941 29.74590
#
# Velocity S-wave (km/s) = 3.32074 3.82187 3.58008
# Velocity P-wave (km/s) = 5.91490 7.36284 6.67823
#
# Compressibility (1/GPa) = 0.02124355
#
# Stress axis : x y z
#
# Youngs Moduli (GPa) = 72.06412 88.73135 46.74194
#
# Poissons Ratio (x) = 0.64695 0.05911
# Poissons Ratio (y) = 0.52543 0.19131
# Poissons Ratio (z) = 0.09113 0.36317
#
# Static dielectric constant tensor:
#      x y z
#    x 1.853820 0.000000 -0.026590 
#    y 0.000000 1.846020 0.000000 
#    z -0.026590 0.000000 2.062510 
# 
# From -- ./inp_files/177287.got.cif
#   From: 2010.05.17/outbox.cif.g08.bks.cpg/sg15_89_cif.got.tgz:177287.got - 2010.06.03 18:47:42.
