data_PCOD9306924
_publ_section_title
;
Structure prediction by ZEFSAII (Michael W. Deem and Ramdas Pophale) SiO2 
 PCOD9306924
Probable space group: C 2/C
;
_chemical_formula_sum "Si O2"
_cell_formula_units_Z 44
_cell_length_a 19.133007
_cell_length_b 9.023572
_cell_length_c 16.128445
_cell_angle_alpha 90.000000
_cell_angle_beta 46.045470
_cell_angle_gamma 90.000000
_cell_volume 2004.568368
_symmetry_space_group_name_H-M "C 2/C"
_symmetry_group_IT_number 15
_symmetry_cell_setting 'monoclinic'
loop_
_space_group_symop_operation_xyz
x,y,z
-x,y,1/2-z
-x,-y,-z
x,-y,1/2+z
1/2+x,1/2+y,z
1/2-x,1/2+y,1/2-z
1/2-x,1/2-y,-z
1/2+x,1/2-y,1/2+z
loop_
_atom_site_type_symbol
_atom_site_label
_atom_site_fract_x
_atom_site_fract_y
_atom_site_fract_z
Si Si1 0.500000 0.018151 0.250000
Si Si2 0.952930 0.601564 0.111074
Si Si3 0.564039 0.634014 0.996963
Si Si4 0.763966 0.587482 0.766477
Si Si5 0.635178 0.245234 0.607123
Si Si6 0.641322 0.593915 0.265131
O O1 0.407253 0.908048 0.323414
O O2 0.503523 0.102875 0.159348
O O3 0.945304 0.759391 0.074214
O O4 0.848095 0.529792 0.211233
O O5 0.000000 0.500000 0.000000
O O6 0.670593 0.560185 0.902279
O O7 0.580439 0.733644 0.065918
O O8 0.458796 0.564475 0.102813
O O9 0.716991 0.539436 0.716805
O O10 0.807790 0.752379 0.743167
O O11 0.750000 0.250000 0.500000
O O12 0.615803 0.371411 0.691389
#
# Coordination Sequence:
#
# PCOD9306924 Si02
#       6
#     4   8   8   8   8   8
#     4  12  22  36  62 100 124 164 224 258 316 398
#     4  12  21  39  67  92 128 167 212 265 322 378
#     4  12  23  41  66  92 130 171 212 275 322 383
#     4  12  23  40  63  95 127 171 213 262 328 379
#     4  12  19  36  63  94 120 163 224 265 304 386
#     4  12  24  39  66  97 129 168 219 268 325 387
#
# _framework density 21.949863000000001
#
# number of rings (size 3 to 8) (size 9 to 14) (size 15 to 20)
#    0.000    0.000   10.909    0.545    0.000    0.000 
#    0.000    0.000    8.000    3.273    0.000    0.000 
#    0.000    0.000    0.000    0.000    0.000    0.000 
#
# Total GULP energy -122766.902412 kJ/mol
# GULP energy per Si atom -5580.313746 kJ/mol
# Density = 2.189990 g / cm^3
# Si number density = 21.949863 Si / 1000 Ang^3
#
#
#
# Elastic Constant Matrix: (Units=GPa)
#
#
# Indices 1 2 3 4 5 6 
#
# 1 109.7627 32.0060 46.4353 0.0000 11.8310 0.0000
# 2 32.0060 73.8014 24.2001 -0.0001 0.1389 0.0001
# 3 46.4353 24.2001 130.0309 0.0000 -15.9571 0.0000
# 4 0.0000 -0.0001 0.0000 29.9172 0.0000 -8.1010
# 5 11.8310 0.1389 -15.9571 0.0000 60.5585 0.0000
# 6 0.0000 0.0001 0.0000 -8.1010 0.0000 41.9604
#
#
#
# Elastic Compliance Matrix: (Units=1/GPa)
#
#
# Indices 1 2 3 4 5 6 
#
# 1 0.012398 -0.004023 -0.004108 0.000000 -0.003495 0.000000
# 2 -0.004023 0.015771 -0.001453 0.000000 0.000367 0.000000
# 3 -0.004108 -0.001453 0.009845 0.000000 0.003400 0.000000
# 4 0.000000 0.000000 0.000000 0.035269 0.000000 0.006809
# 5 -0.003495 0.000367 0.003400 0.000000 0.018091 0.000000
# 6 0.000000 0.000000 0.000000 0.006809 0.000000 0.025147
#
#
# Mechanical properties :
#
#
# Convention : Reuss Voigt Hill
#
# Bulk Modulus (GPa) = 53.06355 57.65309 55.35832
# Shear Modulus (GPa) = 35.21843 40.55078 37.88461
#
# Velocity S-wave (km/s) = 4.00996 4.30283 4.15898
# Velocity P-wave (km/s) = 6.75774 7.14204 6.95254
#
# Compressibility (1/GPa) = 0.01884533
#
# Stress axis : x y z
#
# Youngs Moduli (GPa) = 80.65660 63.40935 101.57344
#
# Poissons Ratio (x) = 0.25512 0.41723
# Poissons Ratio (y) = 0.32451 0.14761
# Poissons Ratio (z) = 0.33131 0.09215
#
# Static dielectric constant tensor:
#      x y z
#    x 1.876540 0.000000 0.045920 
#    y 0.000000 1.828360 0.000000 
#    z 0.045920 0.000000 1.899320 
# 
# From -- ./inp_files/160719.got.cif
#   From: 2010.05.17/outbox.cif.g08.bks.cpg/sg15_81_cif.got.tgz:160719.got - 2010.06.03 18:47:42.
