data_PCOD9306457
_publ_section_title
;
Structure prediction by ZEFSAII (Michael W. Deem and Ramdas Pophale) SiO2 
 PCOD9306457
Probable space group: C 2/C
;
_chemical_formula_sum "Si O2"
_cell_formula_units_Z 32
_cell_length_a 5.219012
_cell_length_b 29.507610
_cell_length_c 10.294903
_cell_angle_alpha 90.000000
_cell_angle_beta 120.728394
_cell_angle_gamma 90.000000
_cell_volume 1362.826501
_symmetry_space_group_name_H-M "C 2/C"
_symmetry_group_IT_number 15
_symmetry_cell_setting 'monoclinic'
loop_
_space_group_symop_operation_xyz
x,y,z
-x,y,1/2-z
-x,-y,-z
x,-y,1/2+z
1/2+x,1/2+y,z
1/2-x,1/2+y,1/2-z
1/2-x,1/2-y,-z
1/2+x,1/2-y,1/2+z
loop_
_atom_site_type_symbol
_atom_site_label
_atom_site_fract_x
_atom_site_fract_y
_atom_site_fract_z
Si Si1 0.335805 0.971939 0.847835
Si Si2 0.703417 0.300155 0.933066
Si Si3 0.354160 0.632269 0.851389
Si Si4 0.060946 0.379246 0.915217
O O1 0.500000 0.973999 0.750000
O O2 0.000000 0.988508 0.750000
O O3 0.336212 0.919313 0.894230
O O4 0.500000 0.000000 0.000000
O O5 0.500000 0.298971 0.750000
O O6 0.980326 0.332152 0.964082
O O7 0.750000 0.250000 0.000000
O O8 0.599595 0.327347 0.033713
O O9 0.500000 0.643214 0.750000
O O10 0.000000 0.620994 0.750000
O O11 0.387721 0.599349 0.526682
O O12 0.000000 0.370258 0.750000
#
# Coordination Sequence:
#
# PCOD9306457 Si02
#       4
#     8   8   8   8
#     4  11  26  50  79 114 152 195 249 308 382 453
#     4  12  26  46  74 110 150 202 252 310 368 444
#     4  12  26  46  71 109 144 190 251 312 365 431
#     4  11  25  48  79 104 152 204 251 300 381 454
#
# _framework density 23.480613000000002
#
# number of rings (size 3 to 8) (size 9 to 14) (size 15 to 20)
#    0.000    0.500    5.000    2.250    3.500    3.000 
#    4.500    0.000    0.000    0.000    0.000    0.000 
#    0.000    0.000    0.000    0.000    0.000    0.000 
#
# Total GULP energy -89221.211385 kJ/mol
# GULP energy per Si atom -5576.325712 kJ/mol
# Density = 2.342717 g / cm^3
# Si number density = 23.480613 Si / 1000 Ang^3
#
#
#
# Elastic Constant Matrix: (Units=GPa)
#
#
# Indices 1 2 3 4 5 6 
#
# 1 183.8180 25.5029 99.9541 0.0000 19.7221 0.0000
# 2 25.5029 56.3915 8.5577 0.0000 5.5945 0.0000
# 3 99.9541 8.5577 156.3564 0.0000 24.8386 0.0000
# 4 0.0000 0.0000 0.0000 24.2106 0.0000 -2.6851
# 5 19.7221 5.5945 24.8386 0.0000 59.1436 0.0000
# 6 0.0000 0.0000 0.0000 -2.6851 0.0000 10.7231
#
#
#
# Elastic Compliance Matrix: (Units=1/GPa)
#
#
# Indices 1 2 3 4 5 6 
#
# 1 0.008877 -0.003151 -0.005443 0.000000 -0.000376 0.000000
# 2 -0.003151 0.019105 0.001167 0.000000 -0.001246 0.000000
# 3 -0.005443 0.001167 0.010222 0.000000 -0.002589 0.000000
# 4 0.000000 0.000000 0.000000 0.042484 0.000000 0.010638
# 5 -0.000376 -0.001246 -0.002589 0.000000 0.018239 0.000000
# 6 0.000000 0.000000 0.000000 0.010638 0.000000 0.095920
#
#
# Mechanical properties :
#
#
# Convention : Reuss Voigt Hill
#
# Bulk Modulus (GPa) = 42.82610 73.84389 58.33500
# Shear Modulus (GPa) = 22.99004 36.31887 29.65446
#
# Velocity S-wave (km/s) = 3.13246 3.93715 3.55763
# Velocity P-wave (km/s) = 5.60014 7.22395 6.46324
#
# Compressibility (1/GPa) = 0.02335024
#
# Stress axis : x y z
#
# Youngs Moduli (GPa) = 112.64588 52.34240 97.82442
#
# Poissons Ratio (x) = 0.16496 0.53244
# Poissons Ratio (y) = 0.35500 -0.11416
# Poissons Ratio (z) = 0.61311 -0.06108
#
# Static dielectric constant tensor:
#      x y z
#    x 2.226180 0.000000 0.009670 
#    y 0.000000 1.899620 0.000000 
#    z 0.009670 0.000000 2.013630 
# 
# From -- ./inp_files/20300.got.cif
#   From: 2010.05.17/outbox.cif.g08.bks.cpg/sg15_11_cif.got.tgz:20300.got - 2010.06.03 18:47:42.
