data_PCOD9306124
_publ_section_title
;
Structure prediction by ZEFSAII (Michael W. Deem and Ramdas Pophale) SiO2 
 PCOD9306124
Probable space group: C 2/C
;
_chemical_formula_sum "Si O2"
_cell_formula_units_Z 32
_cell_length_a 12.477769
_cell_length_b 24.010850
_cell_length_c 10.992559
_cell_angle_alpha 90.000000
_cell_angle_beta 156.360168
_cell_angle_gamma 90.000000
_cell_volume 1320.603613
_symmetry_space_group_name_H-M "C 2/C"
_symmetry_group_IT_number 15
_symmetry_cell_setting 'monoclinic'
loop_
_space_group_symop_operation_xyz
x,y,z
-x,y,1/2-z
-x,-y,-z
x,-y,1/2+z
1/2+x,1/2+y,z
1/2-x,1/2+y,1/2-z
1/2-x,1/2-y,-z
1/2+x,1/2-y,1/2+z
loop_
_atom_site_type_symbol
_atom_site_label
_atom_site_fract_x
_atom_site_fract_y
_atom_site_fract_z
Si Si1 0.748109 0.378958 0.917456
Si Si2 0.000000 0.173907 0.750000
Si Si3 0.003150 0.782071 0.515226
Si Si4 0.327044 0.501261 0.697360
Si Si5 0.500000 0.905201 0.750000
O O1 0.500000 0.384477 0.750000
O O2 0.635264 0.339045 0.696927
O O3 0.819326 0.441620 0.952847
O O4 0.000000 0.354567 0.250000
O O5 0.036542 0.211144 0.669541
O O6 0.742873 0.134345 0.463950
O O7 0.715494 0.766010 0.267537
O O8 0.500000 0.505851 0.750000
O O9 0.123040 0.552938 0.478682
O O10 0.500000 0.500000 0.000000
#
# Coordination Sequence:
#
# PCOD9306124 Si02
#       5
#     8   4   8   8   4
#     4  11  25  45  68 101 142 183 235 294 347 424
#     4  12  26  45  72 108 144 179 240 296 362 428
#     4  12  26  47  72 101 137 188 238 301 355 415
#     4  11  25  46  71 109 151 196 239 294 360 438
#     4  12  24  45  72 110 142 197 228 298 360 444
#
# _framework density 24.231342999999999
#
# number of rings (size 3 to 8) (size 9 to 14) (size 15 to 20)
#    0.000    0.500    2.500    5.250    0.000    8.000 
#    0.000    0.000    0.000    0.000    0.000    0.000 
#    0.000    0.000    0.000    0.000    0.000    0.000 
#
# Total GULP energy -89594.172705 kJ/mol
# GULP energy per Si atom -5599.635794 kJ/mol
# Density = 2.417619 g / cm^3
# Si number density = 24.231343 Si / 1000 Ang^3
#
#
#
# Elastic Constant Matrix: (Units=GPa)
#
#
# Indices 1 2 3 4 5 6 
#
# 1 62.0076 6.4929 38.7882 0.0004 1.3271 -0.0003
# 2 6.4929 73.6323 24.8162 0.0005 8.8928 0.0010
# 3 38.7882 24.8162 146.8542 -0.0004 -4.7528 -0.0044
# 4 0.0004 0.0005 -0.0004 71.8934 -0.0003 38.3088
# 5 1.3271 8.8928 -4.7528 -0.0003 40.5606 -0.0028
# 6 -0.0003 0.0010 -0.0044 38.3088 -0.0028 136.3286
#
#
#
# Elastic Compliance Matrix: (Units=1/GPa)
#
#
# Indices 1 2 3 4 5 6 
#
# 1 0.019383 0.000197 -0.005195 0.000000 -0.001286 0.000000
# 2 0.000197 0.014902 -0.002686 0.000000 -0.003589 0.000000
# 3 -0.005195 -0.002686 0.008693 0.000000 0.001778 0.000000
# 4 0.000000 0.000000 0.000000 0.016359 0.000000 -0.004597
# 5 -0.001286 -0.003589 0.001778 0.000000 0.025692 0.000001
# 6 0.000000 0.000000 0.000000 -0.004597 0.000001 0.008627
#
#
# Mechanical properties :
#
#
# Convention : Reuss Voigt Hill
#
# Bulk Modulus (GPa) = 36.21815 46.96542 41.59179
# Shear Modulus (GPa) = 42.29110 63.91631 53.10371
#
# Velocity S-wave (km/s) = 4.18222 5.14148 4.68646
# Velocity P-wave (km/s) = 6.18874 7.39396 6.81803
#
# Compressibility (1/GPa) = 0.02761046
#
# Stress axis : x y z
#
# Youngs Moduli (GPa) = 51.59062 67.10311 115.03512
#
# Poissons Ratio (x) = -0.01321 0.59756
# Poissons Ratio (y) = -0.01015 0.30903
# Poissons Ratio (z) = 0.26799 0.18027
#
# Static dielectric constant tensor:
#      x y z
#    x 1.912260 0.000000 -0.007140 
#    y 0.000000 1.927090 0.000000 
#    z -0.007140 0.000000 1.916460 
# 
# From -- ./inp_files/101192.got.cif
#   From: 2010.05.17/outbox.cif.g08.bks.cpg/sg15_51_cif.got.tgz:101192.got - 2010.06.03 18:47:42.
