data_PCOD9306693
_publ_section_title
;
Structure prediction by ZEFSAII (Michael W. Deem and Ramdas Pophale) SiO2 
 PCOD9306693
Probable space group: C 2/C
;
_chemical_formula_sum "Si O2"
_cell_formula_units_Z 56
_cell_length_a 11.906662
_cell_length_b 15.346814
_cell_length_c 14.937915
_cell_angle_alpha 90.000000
_cell_angle_beta 57.275001
_cell_angle_gamma 90.000000
_cell_volume 2296.340129
_symmetry_space_group_name_H-M "C 2/C"
_symmetry_group_IT_number 15
_symmetry_cell_setting 'monoclinic'
loop_
_space_group_symop_operation_xyz
x,y,z
-x,y,1/2-z
-x,-y,-z
x,-y,1/2+z
1/2+x,1/2+y,z
1/2-x,1/2+y,1/2-z
1/2-x,1/2-y,-z
1/2+x,1/2-y,1/2+z
loop_
_atom_site_type_symbol
_atom_site_label
_atom_site_fract_x
_atom_site_fract_y
_atom_site_fract_z
Si Si1 0.416668 0.588732 0.549872
Si Si2 0.294034 0.891122 0.009646
Si Si3 0.151166 0.210861 0.416826
Si Si4 0.136547 0.153999 0.234620
Si Si5 0.490904 0.029509 0.647170
Si Si6 0.296355 0.848606 0.492060
Si Si7 0.182618 0.964532 0.227426
O O1 0.500000 0.500000 0.500000
O O2 0.503660 0.671546 0.484661
O O3 0.288513 0.591862 0.540504
O O4 0.374286 0.598024 0.671438
O O5 0.337930 0.804067 0.042692
O O6 0.183342 0.932729 0.124479
O O7 0.236566 0.857296 0.939910
O O8 0.415066 0.957360 0.940340
O O9 0.187845 0.208090 0.296661
O O10 0.000000 0.190269 0.250000
O O11 0.106560 0.055183 0.277235
O O12 0.249649 0.136573 0.112859
O O13 0.500000 0.019736 0.750000
O O14 0.553437 0.122774 0.591716
O O15 0.338513 0.022902 0.683694
O O16 0.250000 0.750000 0.500000
#
# Coordination Sequence:
#
# PCOD9306693 Si02
#       7
#     8   8   8   8   8   8   8
#     4  12  24  48  75 106 148 194 245 306 373 446
#     4  11  27  49  71 108 149 196 247 303 371 453
#     4  11  26  48  74 108 149 189 251 310 367 450
#     4  12  25  46  77 109 142 191 248 316 375 444
#     4  12  25  49  76 104 151 200 251 303 378 449
#     4  12  28  45  75 115 150 191 246 314 379 444
#     4  12  26  43  77 104 144 201 247 299 377 452
#
# _framework density 24.386631000000001
#
# number of rings (size 3 to 8) (size 9 to 14) (size 15 to 20)
#    0.000    0.286    5.714    2.143    6.000    0.571 
#    5.143    0.000    0.000    0.000    0.000    0.000 
#    0.000    0.000    0.000    0.000    0.000    0.000 
#
# Total GULP energy -156906.072490 kJ/mol
# GULP energy per Si atom -5603.788303 kJ/mol
# Density = 2.433113 g / cm^3
# Si number density = 24.386631 Si / 1000 Ang^3
#
#
#
# Elastic Constant Matrix: (Units=GPa)
#
#
# Indices 1 2 3 4 5 6 
#
# 1 118.0379 12.2694 10.6365 0.0000 15.6078 0.0000
# 2 12.2694 99.1543 16.7375 0.0000 2.2707 0.0000
# 3 10.6365 16.7375 136.1539 0.0000 24.8921 0.0000
# 4 0.0000 0.0000 0.0000 22.5702 0.0000 12.2379
# 5 15.6078 2.2707 24.8921 0.0000 38.4413 0.0000
# 6 0.0000 0.0000 0.0000 12.2379 0.0000 28.9418
#
#
#
# Elastic Compliance Matrix: (Units=1/GPa)
#
#
# Indices 1 2 3 4 5 6 
#
# 1 0.009059 -0.001053 0.000094 0.000000 -0.003677 0.000000
# 2 -0.001053 0.010423 -0.001321 0.000000 0.000667 0.000000
# 3 0.000094 -0.001321 0.008498 0.000000 -0.005463 0.000000
# 4 0.000000 0.000000 0.000000 0.057486 0.000000 -0.024308
# 5 -0.003677 0.000667 -0.005463 0.000000 0.031005 0.000000
# 6 0.000000 0.000000 0.000000 -0.024308 0.000000 0.044830
#
#
# Mechanical properties :
#
#
# Convention : Reuss Voigt Hill
#
# Bulk Modulus (GPa) = 42.69651 48.07033 45.38342
# Shear Modulus (GPa) = 28.79047 38.90418 33.84733
#
# Velocity S-wave (km/s) = 3.43969 3.99846 3.72956
# Velocity P-wave (km/s) = 5.77247 6.40870 6.09889
#
# Compressibility (1/GPa) = 0.02342112
#
# Stress axis : x y z
#
# Youngs Moduli (GPa) = 110.38787 95.93921 117.66798
#
# Poissons Ratio (x) = 0.10099 -0.01105
# Poissons Ratio (y) = 0.11620 0.15545
# Poissons Ratio (z) = -0.01036 0.12674
#
# Static dielectric constant tensor:
#      x y z
#    x 1.964630 0.000000 0.047250 
#    y 0.000000 2.018170 0.000000 
#    z 0.047250 0.000000 1.998870 
# 
# From -- ./inp_files/145996.got.cif
#   From: 2010.05.17/outbox.cif.g08.bks.cpg/sg15_73_cif.got.tgz:145996.got - 2010.06.03 18:47:42.
