data_PCOD9306630
_publ_section_title
;
Structure prediction by ZEFSAII (Michael W. Deem and Ramdas Pophale) SiO2 
 PCOD9306630
Probable space group: C 2/C
;
_chemical_formula_sum "Si O2"
_cell_formula_units_Z 52
_cell_length_a 9.041517
_cell_length_b 15.845865
_cell_length_c 20.812258
_cell_angle_alpha 90.000000
_cell_angle_beta 51.317497
_cell_angle_gamma 90.000000
_cell_volume 2327.645603
_symmetry_space_group_name_H-M "C 2/C"
_symmetry_group_IT_number 15
_symmetry_cell_setting 'monoclinic'
loop_
_space_group_symop_operation_xyz
x,y,z
-x,y,1/2-z
-x,-y,-z
x,-y,1/2+z
1/2+x,1/2+y,z
1/2-x,1/2+y,1/2-z
1/2-x,1/2-y,-z
1/2+x,1/2-y,1/2+z
loop_
_atom_site_type_symbol
_atom_site_label
_atom_site_fract_x
_atom_site_fract_y
_atom_site_fract_z
Si Si1 0.914215 0.583593 0.141169
Si Si2 0.566482 0.364760 0.471598
Si Si3 0.170642 0.761779 0.653854
Si Si4 0.889928 0.258938 0.115277
Si Si5 0.783176 0.006924 0.980169
Si Si6 0.801632 0.935034 0.331752
Si Si7 0.000000 0.668574 0.250000
O O1 0.803973 0.659428 0.135588
O O2 0.772211 0.507384 0.195693
O O3 0.001530 0.616264 0.183770
O O4 0.075470 0.541820 0.053391
O O5 0.705334 0.322830 0.382223
O O6 0.444845 0.288459 0.535001
O O7 0.676872 0.416622 0.497445
O O8 0.428122 0.429485 0.475006
O O9 0.000000 0.758482 0.750000
O O10 0.065197 0.761855 0.614112
O O11 0.843644 0.357641 0.120927
O O12 0.696196 0.220082 0.196399
O O13 0.819850 0.016373 0.894674
O O14 0.000000 0.902957 0.250000
#
# Coordination Sequence:
#
# PCOD9306630 Si02
#       7
#     8   8   8   8   8   8   4
#     4  12  26  49  74 107 149 196 242 307 367 435
#     4  11  26  46  76 109 149 198 241 309 360 445
#     4  12  26  44  76 106 148 190 248 303 371 431
#     4  12  25  50  70 112 147 192 248 300 365 436
#     4  11  26  48  73 109 150 196 248 296 379 429
#     4  12  28  44  75 108 148 191 247 306 366 438
#     4  12  26  46  76 106 146 196 246 300 362 436
#
# _framework density 22.340170000000001
#
# number of rings (size 3 to 8) (size 9 to 14) (size 15 to 20)
#    0.000    0.308    3.846    4.154    6.462    1.231 
#    2.769    0.000    0.000    0.000    0.000    0.000 
#    0.000    0.000    0.000    0.000    0.000    0.000 
#
# Total GULP energy -145507.084858 kJ/mol
# GULP energy per Si atom -5596.426341 kJ/mol
# Density = 2.228932 g / cm^3
# Si number density = 22.340170 Si / 1000 Ang^3
#
#
#
# Elastic Constant Matrix: (Units=GPa)
#
#
# Indices 1 2 3 4 5 6 
#
# 1 85.2969 43.7237 10.4530 0.0000 -8.7388 0.0000
# 2 43.7237 145.1838 26.4298 -0.0002 -7.0917 0.0001
# 3 10.4530 26.4298 74.2277 -0.0011 -19.9296 0.0004
# 4 0.0000 -0.0002 -0.0011 29.6058 0.0005 -4.5677
# 5 -8.7388 -7.0917 -19.9296 0.0005 34.4597 -0.0002
# 6 0.0000 0.0001 0.0004 -4.5677 -0.0002 7.1950
#
#
#
# Elastic Compliance Matrix: (Units=1/GPa)
#
#
# Indices 1 2 3 4 5 6 
#
# 1 0.014118 -0.004160 0.000266 0.000000 0.002878 0.000000
# 2 -0.004160 0.008591 -0.002701 0.000000 -0.000849 0.000000
# 3 0.000266 -0.002701 0.016888 0.000000 0.009278 0.000000
# 4 0.000000 0.000000 0.000000 0.037445 0.000000 0.023771
# 5 0.002878 -0.000849 0.009278 0.000000 0.034941 0.000000
# 6 0.000000 0.000000 0.000000 0.023771 0.000000 0.154076
#
#
# Mechanical properties :
#
#
# Convention : Reuss Voigt Hill
#
# Bulk Modulus (GPa) = 37.86957 51.76907 44.81932
# Shear Modulus (GPa) = 17.35808 29.19223 23.27515
#
# Velocity S-wave (km/s) = 2.79048 3.61877 3.23128
# Velocity P-wave (km/s) = 5.23168 6.37841 5.83329
#
# Compressibility (1/GPa) = 0.02640642
#
# Stress axis : x y z
#
# Youngs Moduli (GPa) = 70.83002 116.40380 59.21516
#
# Poissons Ratio (x) = 0.48420 -0.01573
# Poissons Ratio (y) = 0.29463 0.15994
# Poissons Ratio (z) = -0.01881 0.31441
#
# Static dielectric constant tensor:
#      x y z
#    x 1.842500 0.000000 -0.001680 
#    y 0.000000 1.790890 0.000000 
#    z -0.001680 0.000000 1.815750 
# 
# From -- ./inp_files/233001.got.cif
#   From: 2010.05.17/outbox.cif.g08.bks.cpg/sg15_117_cif.got.tgz:233001.got - 2010.06.03 18:47:42.
