data_PCOD9306009
_publ_section_title
;
Structure prediction by ZEFSAII (Michael W. Deem and Ramdas Pophale) SiO2 
 PCOD9306009
Probable space group: C 2/C
;
_chemical_formula_sum "Si O2"
_cell_formula_units_Z 40
_cell_length_a 14.666085
_cell_length_b 23.618997
_cell_length_c 9.031170
_cell_angle_alpha 90.000000
_cell_angle_beta 35.196876
_cell_angle_gamma 90.000000
_cell_volume 1803.160631
_symmetry_space_group_name_H-M "C 2/C"
_symmetry_group_IT_number 15
_symmetry_cell_setting 'monoclinic'
loop_
_space_group_symop_operation_xyz
x,y,z
-x,y,1/2-z
-x,-y,-z
x,-y,1/2+z
1/2+x,1/2+y,z
1/2-x,1/2+y,1/2-z
1/2-x,1/2-y,-z
1/2+x,1/2-y,1/2+z
loop_
_atom_site_type_symbol
_atom_site_label
_atom_site_fract_x
_atom_site_fract_y
_atom_site_fract_z
Si Si1 0.392633 0.533477 0.759654
Si Si2 0.648330 0.881172 0.452200
Si Si3 0.826762 0.219668 0.635252
Si Si4 0.674343 0.679223 0.207252
Si Si5 0.833295 0.568994 0.895798
O O1 0.500000 0.554909 0.750000
O O2 0.500000 0.500000 0.500000
O O3 0.299123 0.583983 0.808411
O O4 0.268047 0.487605 0.987893
O O5 0.691124 0.814873 0.398379
O O6 0.625924 0.902318 0.314676
O O7 0.500000 0.894224 0.750000
O O8 0.792079 0.285878 0.658220
O O9 0.814355 0.197865 0.480924
O O10 0.994957 0.199537 0.476945
O O11 0.726846 0.613918 0.131116
O O12 0.000000 0.556516 0.750000
#
# Coordination Sequence:
#
# PCOD9306009 Si02
#       5
#     8   8   8   8   8
#     4  12  25  44  70 100 135 176 226 280 339 401
#     4  11  25  44  65  98 143 178 218 280 338 401
#     4   9  19  37  62  96 125 169 216 275 330 386
#     4   9  19  35  66  93 127 162 224 276 323 387
#     4  11  25  41  68 102 133 177 229 273 334 403
#
# _framework density 22.18327
#
# number of rings (size 3 to 8) (size 9 to 14) (size 15 to 20)
#    0.000    1.600    2.000    1.800   14.000    1.600 
#    0.000    1.000    0.000    0.000    0.000    0.000 
#    0.000    0.000    0.000    0.000    0.000    0.000 
#
# Total GULP energy -111756.493041 kJ/mol
# GULP energy per Si atom -5587.824652 kJ/mol
# Density = 2.213278 g / cm^3
# Si number density = 22.183270 Si / 1000 Ang^3
#
#
#
# Elastic Constant Matrix: (Units=GPa)
#
#
# Indices 1 2 3 4 5 6 
#
# 1 75.5565 -3.0670 31.9345 -0.0001 -23.3643 -0.0002
# 2 -3.0670 66.8413 -0.8207 0.0000 -6.5712 -0.0001
# 3 31.9345 -0.8207 83.2461 0.0000 -7.9789 -0.0004
# 4 -0.0001 0.0000 0.0000 16.3610 0.0000 3.4479
# 5 -23.3643 -6.5712 -7.9789 0.0000 25.4127 0.0004
# 6 -0.0002 -0.0001 -0.0004 3.4479 0.0004 11.3035
#
#
#
# Elastic Compliance Matrix: (Units=1/GPa)
#
#
# Indices 1 2 3 4 5 6 
#
# 1 0.021959 0.002779 -0.006591 0.000000 0.018838 -0.000001
# 2 0.002779 0.015727 -0.000285 0.000000 0.006532 0.000000
# 3 -0.006591 -0.000285 0.014383 0.000000 -0.001617 0.000000
# 4 0.000000 0.000000 0.000000 0.065320 0.000000 -0.019925
# 5 0.018838 0.006532 -0.001617 0.000000 0.057851 -0.000002
# 6 -0.000001 0.000000 0.000000 -0.019925 -0.000002 0.094546
#
#
# Mechanical properties :
#
#
# Convention : Reuss Voigt Hill
#
# Bulk Modulus (GPa) = 22.79206 31.30416 27.04811
# Shear Modulus (GPa) = 17.08790 23.78857 20.43824
#
# Velocity S-wave (km/s) = 2.77845 3.27825 3.03864
# Velocity P-wave (km/s) = 4.53760 5.33587 4.95284
#
# Compressibility (1/GPa) = 0.04387493
#
# Stress axis : x y z
#
# Youngs Moduli (GPa) = 45.53983 63.58505 69.52607
#
# Poissons Ratio (x) = -0.17668 0.45823
# Poissons Ratio (y) = -0.12654 0.01980
# Poissons Ratio (z) = 0.30014 0.01811
#
# Static dielectric constant tensor:
#      x y z
#    x 1.785890 0.000000 -0.001810 
#    y 0.000000 1.816240 0.000000 
#    z -0.001810 0.000000 1.829440 
# 
# From -- ./inp_files/41962.got.cif
#   From: 2010.05.17/outbox.cif.g08.bks.cpg/sg15_21_cif.got.tgz:41962.got - 2010.06.03 18:47:42.
