data_PCOD9306934
_publ_section_title
;
Structure prediction by ZEFSAII (Michael W. Deem and Ramdas Pophale) SiO2 
 PCOD9306934
Probable space group: C 2/C
;
_chemical_formula_sum "Si O2"
_cell_formula_units_Z 56
_cell_length_a 27.972369
_cell_length_b 16.184070
_cell_length_c 9.251297
_cell_angle_alpha 90.000000
_cell_angle_beta 48.595229
_cell_angle_gamma 90.000000
_cell_volume 3141.328177
_symmetry_space_group_name_H-M "C 2/C"
_symmetry_group_IT_number 15
_symmetry_cell_setting 'monoclinic'
loop_
_space_group_symop_operation_xyz
x,y,z
-x,y,1/2-z
-x,-y,-z
x,-y,1/2+z
1/2+x,1/2+y,z
1/2-x,1/2+y,1/2-z
1/2-x,1/2-y,-z
1/2+x,1/2-y,1/2+z
loop_
_atom_site_type_symbol
_atom_site_label
_atom_site_fract_x
_atom_site_fract_y
_atom_site_fract_z
Si Si1 0.860054 0.176309 0.773571
Si Si2 0.139504 0.964064 0.470924
Si Si3 0.000000 0.963753 0.750000
Si Si4 0.499969 0.675738 0.005189
Si Si5 0.639514 0.183472 0.470897
Si Si6 0.500000 0.815827 0.250000
Si Si7 0.723649 0.375744 0.802671
Si Si8 0.140008 0.823686 0.713516
O O1 0.856372 0.096137 0.675971
O O2 0.930624 0.176619 0.704688
O O3 0.856031 0.255260 0.676283
O O4 0.804899 0.170393 0.000609
O O5 0.068876 0.005464 0.612215
O O6 0.143662 0.903856 0.601243
O O7 0.192739 0.033459 0.364443
O O8 0.999983 0.904028 0.610494
O O9 0.499983 0.754201 0.113038
O O10 0.430540 0.676621 0.073057
O O11 0.569279 0.142067 0.611404
O O12 0.700374 0.125007 0.349165
O O13 0.644001 0.244739 0.600191
O O14 0.695176 0.329605 0.719904
#
# Coordination Sequence:
#
# PCOD9306934 Si02
#       8
#     8   8   4   8   8   4   8   8
#     4   9  18  31  45  63  90 119 146 175 209 252
#     4   9  18  31  44  62  90 123 150 171 202 252
#     4   7  12  26  44  58  84 125 154 164 184 239
#     4   7  12  26  45  61  82 118 150 169 197 243
#     4   9  18  33  48  62  84 115 148 181 216 256
#     4   7  12  28  50  60  72 109 154 182 206 253
#     4  12  20  26  42  70  94 114 140 178 220 256
#     4   9  18  31  45  63  90 119 146 175 209 252
#
# _framework density 17.826854000000001
#
# number of rings (size 3 to 8) (size 9 to 14) (size 15 to 20)
#    0.000    3.143    0.000    5.143    0.000    1.714 
#    0.000    4.286    0.000    0.000    0.000    4.000 
#    0.000    6.857    0.000    0.000    0.000    0.000 
#
# Total GULP energy -155958.539612 kJ/mol
# GULP energy per Si atom -5569.947843 kJ/mol
# Density = 1.778628 g / cm^3
# Si number density = 17.826854 Si / 1000 Ang^3
#
#
#
# Elastic Constant Matrix: (Units=GPa)
#
#
# Indices 1 2 3 4 5 6 
#
# 1 115.3950 16.9409 35.5194 0.0000 -32.6194 0.0000
# 2 16.9409 29.5821 15.3181 0.0000 -18.2863 0.0000
# 3 35.5194 15.3181 109.1196 0.0000 -31.4872 0.0000
# 4 0.0000 0.0000 0.0000 19.3906 0.0000 -10.9257
# 5 -32.6194 -18.2863 -31.4872 0.0000 50.0398 0.0000
# 6 0.0000 0.0000 0.0000 -10.9257 0.0000 20.3248
#
#
#
# Elastic Compliance Matrix: (Units=1/GPa)
#
#
# Indices 1 2 3 4 5 6 
#
# 1 0.011017 -0.002123 -0.001759 0.000000 0.005299 0.000000
# 2 -0.002123 0.044390 -0.001538 0.000000 0.013870 0.000000
# 3 -0.001759 -0.001538 0.011558 0.000000 0.005564 0.000000
# 4 0.000000 0.000000 0.000000 0.073979 0.000000 0.039768
# 5 0.005299 0.013870 0.005564 0.000000 0.032008 0.000000
# 6 0.000000 0.000000 0.000000 0.039768 0.000000 0.070578
#
#
# Mechanical properties :
#
#
# Convention : Reuss Voigt Hill
#
# Bulk Modulus (GPa) = 17.81715 43.29484 30.55599
# Shear Modulus (GPa) = 18.30972 30.37225 24.34099
#
# Velocity S-wave (km/s) = 3.20830 4.13211 3.69916
# Velocity P-wave (km/s) = 4.87242 6.86330 5.95169
#
# Compressibility (1/GPa) = 0.05612571
#
# Stress axis : x y z
#
# Youngs Moduli (GPa) = 90.77006 22.52751 86.51726
#
# Poissons Ratio (x) = 0.04782 0.15219
# Poissons Ratio (y) = 0.19267 0.13308
# Poissons Ratio (z) = 0.15967 0.03465
#
# Static dielectric constant tensor:
#      x y z
#    x 1.645000 0.000000 -0.010840 
#    y 0.000000 1.592590 0.000000 
#    z -0.010840 0.000000 1.644110 
# 
# From -- ./inp_files/49759.got.cif
#   From: 2010.05.17/outbox.cif.g08.bks.cpg/sg15_25_cif.got.tgz:49759.got - 2010.06.03 18:47:42.
