data_PCOD9306068
_publ_section_title
;
Structure prediction by ZEFSAII (Michael W. Deem and Ramdas Pophale) SiO2 
 PCOD9306068
Probable space group: C 2/C
;
_chemical_formula_sum "Si O2"
_cell_formula_units_Z 56
_cell_length_a 19.094183
_cell_length_b 7.678358
_cell_length_c 22.467771
_cell_angle_alpha 90.000000
_cell_angle_beta 133.782156
_cell_angle_gamma 90.000000
_cell_volume 2378.220060
_symmetry_space_group_name_H-M "C 2/C"
_symmetry_group_IT_number 15
_symmetry_cell_setting 'monoclinic'
loop_
_space_group_symop_operation_xyz
x,y,z
-x,y,1/2-z
-x,-y,-z
x,-y,1/2+z
1/2+x,1/2+y,z
1/2-x,1/2+y,1/2-z
1/2-x,1/2-y,-z
1/2+x,1/2-y,1/2+z
loop_
_atom_site_type_symbol
_atom_site_label
_atom_site_fract_x
_atom_site_fract_y
_atom_site_fract_z
Si Si1 0.165427 0.651633 0.369670
Si Si2 0.456174 0.644145 0.360528
Si Si3 0.797632 0.857049 0.228344
Si Si4 0.291276 0.811756 0.851623
Si Si5 0.881159 0.117906 0.546626
Si Si6 0.507749 0.206980 0.495770
Si Si7 0.907404 0.306277 0.220600
O O1 0.174772 0.733124 0.309508
O O2 0.122341 0.787031 0.391686
O O3 0.272258 0.604492 0.457360
O O4 0.101781 0.479911 0.323109
O O5 0.384486 0.491701 0.295403
O O6 0.563510 0.565202 0.416505
O O7 0.441818 0.693362 0.420279
O O8 0.435456 0.811112 0.306886
O O9 0.772604 0.757635 0.273887
O O10 0.710917 0.980118 0.154860
O O11 0.394510 0.736801 0.930097
O O12 0.201947 0.766585 0.842169
O O13 0.942246 0.235708 0.535991
O O14 0.500000 0.000000 0.500000
O O15 0.000000 0.200373 0.250000
#
# Coordination Sequence:
#
# PCOD9306068 Si02
#       7
#     8   8   8   8   8   8   8
#     4  11  27  47  75 108 154 191 247 296 378 437
#     4  11  27  45  76 106 147 192 247 302 365 433
#     4  11  25  43  75 106 146 188 245 303 361 438
#     4  11  25  44  72 107 144 191 239 307 361 431
#     4  11  26  49  75 108 148 201 234 307 371 442
#     4  12  27  46  75 110 146 192 249 299 369 448
#     4  11  28  46  73 106 144 190 245 303 362 433
#
# _framework density 23.547021000000001
#
# number of rings (size 3 to 8) (size 9 to 14) (size 15 to 20)
#    0.000    0.857    1.429    3.000   20.000    0.000 
#    0.000    1.429    0.000    0.000    0.000    0.000 
#    0.000    0.000    0.000    0.000    0.000    0.000 
#
# Total GULP energy -156622.386746 kJ/mol
# GULP energy per Si atom -5593.656670 kJ/mol
# Density = 2.349343 g / cm^3
# Si number density = 23.547021 Si / 1000 Ang^3
#
#
#
# Elastic Constant Matrix: (Units=GPa)
#
#
# Indices 1 2 3 4 5 6 
#
# 1 124.5045 7.5060 29.2112 0.0000 11.1274 0.0000
# 2 7.5060 54.9920 20.5317 0.0000 4.6403 0.0000
# 3 29.2112 20.5317 85.7697 0.0000 5.3392 0.0000
# 4 0.0000 0.0000 0.0000 41.9662 0.0000 3.3908
# 5 11.1274 4.6403 5.3392 0.0000 33.7858 0.0000
# 6 0.0000 0.0000 0.0000 3.3908 0.0000 33.4677
#
#
#
# Elastic Compliance Matrix: (Units=1/GPa)
#
#
# Indices 1 2 3 4 5 6 
#
# 1 0.008932 0.000076 -0.002905 0.000000 -0.002493 0.000000
# 2 0.000076 0.020106 -0.004712 0.000000 -0.002042 0.000000
# 3 -0.002905 -0.004712 0.013812 0.000000 -0.000579 0.000000
# 4 0.000000 0.000000 0.000000 0.024025 0.000000 -0.002434
# 5 -0.002493 -0.002042 -0.000579 0.000000 0.030791 0.000000
# 6 0.000000 0.000000 0.000000 -0.002434 0.000000 0.030126
#
#
# Mechanical properties :
#
#
# Convention : Reuss Voigt Hill
#
# Bulk Modulus (GPa) = 36.01242 42.19599 39.10421
# Shear Modulus (GPa) = 32.86670 35.71176 34.28923
#
# Velocity S-wave (km/s) = 3.74008 3.89860 3.82016
# Velocity P-wave (km/s) = 5.82906 6.18257 6.00842
#
# Compressibility (1/GPa) = 0.02776820
#
# Stress axis : x y z
#
# Youngs Moduli (GPa) = 111.96180 49.73757 72.39884
#
# Poissons Ratio (x) = -0.00377 0.21031
# Poissons Ratio (y) = -0.00849 0.34112
# Poissons Ratio (z) = 0.32523 0.23434
#
# Static dielectric constant tensor:
#      x y z
#    x 1.924860 0.000000 0.059240 
#    y 0.000000 1.891990 0.000000 
#    z 0.059240 0.000000 1.907970 
# 
# From -- ./inp_files/247583.got.cif
#   From: 2010.05.17/outbox.cif.g08.bks.cpg/sg15_124_cif.got.tgz:247583.got - 2010.06.03 18:47:42.
