data_PCOD9306028
_publ_section_title
;
Structure prediction by ZEFSAII (Michael W. Deem and Ramdas Pophale) SiO2 
 PCOD9306028
Probable space group: C 2/C
;
_chemical_formula_sum "Si O2"
_cell_formula_units_Z 44
_cell_length_a 5.224404
_cell_length_b 27.525527
_cell_length_c 15.463990
_cell_angle_alpha 90.000000
_cell_angle_beta 60.878273
_cell_angle_gamma 90.000000
_cell_volume 1942.676496
_symmetry_space_group_name_H-M "C 2/C"
_symmetry_group_IT_number 15
_symmetry_cell_setting 'monoclinic'
loop_
_space_group_symop_operation_xyz
x,y,z
-x,y,1/2-z
-x,-y,-z
x,-y,1/2+z
1/2+x,1/2+y,z
1/2-x,1/2+y,1/2-z
1/2-x,1/2-y,-z
1/2+x,1/2-y,1/2+z
loop_
_atom_site_type_symbol
_atom_site_label
_atom_site_fract_x
_atom_site_fract_y
_atom_site_fract_z
Si Si1 0.645843 0.590797 0.813906
Si Si2 0.888424 0.226452 0.091650
Si Si3 0.011624 0.186061 0.596492
Si Si4 0.500000 0.416952 0.750000
Si Si5 0.000000 0.737601 0.750000
Si Si6 0.148846 0.005701 0.071878
Si Si7 0.000000 0.348250 0.750000
O O1 0.500000 0.608785 0.750000
O O2 0.508398 0.628538 0.904611
O O3 0.509295 0.538662 0.853632
O O4 0.000000 0.590281 0.750000
O O5 0.782375 0.279734 0.077883
O O6 0.627051 0.188452 0.155656
O O7 0.031482 0.230415 0.160962
O O8 0.072792 0.204017 0.984863
O O9 0.774881 0.202474 0.705957
O O10 0.405001 0.449589 0.850639
O O11 0.240507 0.382707 0.755764
O O12 0.500000 0.000000 0.000000
O O13 0.000000 0.000000 0.000000
#
# Coordination Sequence:
#
# PCOD9306028 Si02
#       7
#     8   8   8   4   4   8   4
#     4  12  26  49  78 109 148 195 246 310 382 439
#     4  11  25  44  68 103 148 193 247 296 363 439
#     4  11  25  42  70 104 145 192 244 299 365 444
#     4  12  29  50  77 108 151 192 254 305 378 436
#     4  12  19  46  65 100 146 193 234 303 358 422
#     4  12  28  52  80 111 148 193 249 318 378 450
#     4  12  26  48  74 104 149 201 240 306 358 448
#
# _framework density 22.649166000000001
#
# number of rings (size 3 to 8) (size 9 to 14) (size 15 to 20)
#    0.000    0.364    3.636    4.364    6.364    0.000 
#    0.000    0.000    0.000    0.000    0.000    0.000 
#    0.000    0.000    0.000    0.000    0.000    0.000 
#
# Total GULP energy -122701.964674 kJ/mol
# GULP energy per Si atom -5577.362031 kJ/mol
# Density = 2.259762 g / cm^3
# Si number density = 22.649166 Si / 1000 Ang^3
#
#
#
# Elastic Constant Matrix: (Units=GPa)
#
#
# Indices 1 2 3 4 5 6 
#
# 1 169.1315 55.7660 45.9804 0.0000 0.3637 0.0000
# 2 55.7660 129.8165 29.3026 0.0000 -11.5648 0.0000
# 3 45.9804 29.3026 107.3332 0.0000 9.6623 0.0000
# 4 0.0000 0.0000 0.0000 16.7349 0.0000 2.7734
# 5 0.3637 -11.5648 9.6623 0.0000 42.9345 0.0000
# 6 0.0000 0.0000 0.0000 2.7734 0.0000 42.2693
#
#
#
# Elastic Compliance Matrix: (Units=1/GPa)
#
#
# Indices 1 2 3 4 5 6 
#
# 1 0.007459 -0.002673 -0.002445 0.000000 -0.000233 0.000000
# 2 -0.002673 0.009503 -0.001717 0.000000 0.002969 0.000000
# 3 -0.002445 -0.001717 0.011097 0.000000 -0.002939 0.000000
# 4 0.000000 0.000000 0.000000 0.060412 0.000000 -0.003964
# 5 -0.000233 0.002969 -0.002939 0.000000 0.024754 0.000000
# 6 0.000000 0.000000 0.000000 -0.003964 0.000000 0.023918
#
#
# Mechanical properties :
#
#
# Convention : Reuss Voigt Hill
#
# Bulk Modulus (GPa) = 69.48787 74.26436 71.87612
# Shear Modulus (GPa) = 32.13160 38.73657 35.43408
#
# Velocity S-wave (km/s) = 3.77060 4.14005 3.95964
# Velocity P-wave (km/s) = 7.05006 7.46415 7.26006
#
# Compressibility (1/GPa) = 0.01439100
#
# Stress axis : x y z
#
# Youngs Moduli (GPa) = 134.06524 105.22476 90.11249
#
# Poissons Ratio (x) = 0.28129 0.22029
# Poissons Ratio (y) = 0.35838 0.15469
# Poissons Ratio (z) = 0.32774 0.18063
#
# Static dielectric constant tensor:
#      x y z
#    x 1.871380 0.000000 -0.066560 
#    y 0.000000 1.915040 0.000000 
#    z -0.066560 0.000000 1.822880 
# 
# From -- ./inp_files/130019.got.cif
#   From: 2010.05.17/outbox.cif.g08.bks.cpg/sg15_66_cif.got.tgz:130019.got - 2010.06.03 18:47:42.
