data_PCOD9306170
_publ_section_title
;
Structure prediction by ZEFSAII (Michael W. Deem and Ramdas Pophale) SiO2 
 PCOD9306170
Probable space group: C 2/C
;
_chemical_formula_sum "Si O2"
_cell_formula_units_Z 60
_cell_length_a 21.226050
_cell_length_b 9.792974
_cell_length_c 21.883376
_cell_angle_alpha 90.000000
_cell_angle_beta 38.325034
_cell_angle_gamma 90.000000
_cell_volume 2820.818537
_symmetry_space_group_name_H-M "C 2/C"
_symmetry_group_IT_number 15
_symmetry_cell_setting 'monoclinic'
loop_
_space_group_symop_operation_xyz
x,y,z
-x,y,1/2-z
-x,-y,-z
x,-y,1/2+z
1/2+x,1/2+y,z
1/2-x,1/2+y,1/2-z
1/2-x,1/2-y,-z
1/2+x,1/2-y,1/2+z
loop_
_atom_site_type_symbol
_atom_site_label
_atom_site_fract_x
_atom_site_fract_y
_atom_site_fract_z
Si Si1 0.234352 0.866485 0.627783
Si Si2 0.554451 0.747264 0.036174
Si Si3 0.650598 0.882551 0.270332
Si Si4 0.869719 0.236395 0.897008
Si Si5 0.000000 0.000000 0.000000
Si Si6 0.427820 0.169349 0.216306
Si Si7 0.591264 0.418475 0.632555
Si Si8 0.161460 0.923792 0.282702
O O1 0.354757 0.855054 0.540231
O O2 0.189590 0.729124 0.692226
O O3 0.193761 0.879738 0.590077
O O4 0.191322 0.993459 0.698939
O O5 0.447380 0.822268 0.121366
O O6 0.575326 0.667060 0.083710
O O7 0.558531 0.638919 0.978297
O O8 0.739465 0.910592 0.250929
O O9 0.617129 0.021501 0.262746
O O10 0.891931 0.277933 0.810205
O O11 0.949061 0.325973 0.876313
O O12 0.903307 0.080380 0.884199
O O13 0.750000 0.250000 0.000000
O O14 0.076004 0.990304 0.882924
O O15 0.383732 0.277892 0.202001
O O16 0.500000 0.393472 0.750000
#
# Coordination Sequence:
#
# PCOD9306170 Si02
#       8
#     8   8   8   8   4   8   8   8
#     4  12  25  48  74 106 143 189 247 298 367 432
#     4  12  28  45  74 112 142 191 249 299 373 436
#     4  12  27  44  72 109 144 186 238 311 354 420
#     4  11  25  45  72 104 142 190 236 291 370 435
#     4  12  24  44  74 102 144 192 242 282 360 450
#     4  11  26  46  71 104 145 183 238 294 359 433
#     4  12  22  48  77 102 144 191 239 305 368 442
#     4  12  25  51  73 100 149 196 238 294 363 442
#
# _framework density 21.270423000000001
#
# number of rings (size 3 to 8) (size 9 to 14) (size 15 to 20)
#    0.000    0.267    6.667    2.000    3.733    3.733 
#    0.000    0.000    0.000    0.000    0.000    0.000 
#    0.000    0.000    0.000    0.000    0.000    0.000 
#
# Total GULP energy -167464.088034 kJ/mol
# GULP energy per Si atom -5582.136268 kJ/mol
# Density = 2.122201 g / cm^3
# Si number density = 21.270423 Si / 1000 Ang^3
#
#
#
# Elastic Constant Matrix: (Units=GPa)
#
#
# Indices 1 2 3 4 5 6 
#
# 1 83.6799 16.2159 2.4920 0.0000 -11.5105 0.0000
# 2 16.2159 70.4057 -3.9887 0.0000 -0.2969 0.0000
# 3 2.4920 -3.9887 82.3844 0.0000 -9.6475 0.0000
# 4 0.0000 0.0000 0.0000 20.6237 0.0000 -6.0827
# 5 -11.5105 -0.2969 -9.6475 0.0000 29.1048 0.0000
# 6 0.0000 0.0000 0.0000 -6.0827 0.0000 33.7344
#
#
#
# Elastic Compliance Matrix: (Units=1/GPa)
#
#
# Indices 1 2 3 4 5 6 
#
# 1 0.013255 -0.003027 0.000065 0.000000 0.005233 0.000000
# 2 -0.003027 0.014938 0.000720 0.000000 -0.000806 0.000000
# 3 0.000065 0.000720 0.012667 0.000000 0.004232 0.000000
# 4 0.000000 0.000000 0.000000 0.051211 0.000000 0.009234
# 5 0.005233 -0.000806 0.004232 0.000000 0.037823 0.000000
# 6 0.000000 0.000000 0.000000 0.009234 0.000000 0.031308
#
#
# Mechanical properties :
#
#
# Convention : Reuss Voigt Hill
#
# Bulk Modulus (GPa) = 27.49012 29.54539 28.51775
# Shear Modulus (GPa) = 28.11990 31.47597 29.79794
#
# Velocity S-wave (km/s) = 3.63990 3.85099 3.74693
# Velocity P-wave (km/s) = 5.53329 5.80465 5.67060
#
# Compressibility (1/GPa) = 0.03637671
#
# Stress axis : x y z
#
# Youngs Moduli (GPa) = 75.44464 66.94331 78.94723
#
# Poissons Ratio (x) = 0.20264 -0.00515
# Poissons Ratio (y) = 0.22838 -0.05688
# Poissons Ratio (z) = -0.00493 -0.04823
#
# Static dielectric constant tensor:
#      x y z
#    x 1.869760 0.000000 -0.028850 
#    y 0.000000 1.745630 0.000000 
#    z -0.028850 0.000000 1.768380 
# 
# From -- ./inp_files/279676.got.cif
#   From: 2010.05.17/outbox.cif.g08.bks.cpg/sg15_140_cif.got.tgz:279676.got - 2010.06.03 18:47:42.
