data_PCOD9306879
_publ_section_title
;
Structure prediction by ZEFSAII (Michael W. Deem and Ramdas Pophale) SiO2 
 PCOD9306879
Probable space group: C 2/C
;
_chemical_formula_sum "Si O2"
_cell_formula_units_Z 40
_cell_length_a 26.295641
_cell_length_b 7.039349
_cell_length_c 9.561167
_cell_angle_alpha 90.000000
_cell_angle_beta 60.433116
_cell_angle_gamma 90.000000
_cell_volume 1539.347665
_symmetry_space_group_name_H-M "C 2/C"
_symmetry_group_IT_number 15
_symmetry_cell_setting 'monoclinic'
loop_
_space_group_symop_operation_xyz
x,y,z
-x,y,1/2-z
-x,-y,-z
x,-y,1/2+z
1/2+x,1/2+y,z
1/2-x,1/2+y,1/2-z
1/2-x,1/2-y,-z
1/2+x,1/2-y,1/2+z
loop_
_atom_site_type_symbol
_atom_site_label
_atom_site_fract_x
_atom_site_fract_y
_atom_site_fract_z
Si Si1 0.071966 0.152656 0.753051
Si Si2 0.808107 0.687805 0.337951
Si Si3 0.952321 0.381699 0.961210
Si Si4 0.802690 0.674740 0.022306
Si Si5 0.924436 0.734259 0.800487
O O1 0.133803 0.180941 0.747262
O O2 0.083964 0.232700 0.581485
O O3 0.017253 0.286925 0.873752
O O4 0.048535 0.938428 0.776535
O O5 0.750000 0.750000 0.500000
O O6 0.824972 0.509926 0.410685
O O7 0.789937 0.641141 0.202625
O O8 0.927958 0.376142 0.149230
O O9 0.053583 0.412353 0.108291
O O10 0.859977 0.802775 0.933716
O O11 0.750000 0.750000 0.000000
#
# Coordination Sequence:
#
# PCOD9306879 Si02
#       5
#     8   8   8   8   8
#     4  11  28  48  81 121 163 215 277 331 416 483
#     4  12  27  50  80 118 167 212 284 335 412 492
#     4  11  28  50  81 118 162 216 270 337 406 487
#     4  12  27  48  81 117 160 220 269 342 411 486
#     4  12  27  52  82 114 170 208 276 334 415 480
#
# _framework density 25.985033000000001
#
# number of rings (size 3 to 8) (size 9 to 14) (size 15 to 20)
#    0.000    0.400    2.000    4.200    5.600    8.000 
#    0.000    1.000    0.000    0.000    0.000    0.000 
#    0.000    0.000    0.000    0.000    0.000    0.000 
#
# Total GULP energy -111750.932815 kJ/mol
# GULP energy per Si atom -5587.546641 kJ/mol
# Density = 2.592589 g / cm^3
# Si number density = 25.985033 Si / 1000 Ang^3
#
#
#
# Elastic Constant Matrix: (Units=GPa)
#
#
# Indices 1 2 3 4 5 6 
#
# 1 158.3679 43.0061 77.0610 0.0000 -6.4962 0.0000
# 2 43.0061 149.4053 55.1218 0.0000 6.9608 0.0000
# 3 77.0610 55.1218 255.3186 0.0000 25.2720 0.0000
# 4 0.0000 0.0000 0.0000 24.2796 0.0000 -4.4368
# 5 -6.4962 6.9608 25.2720 0.0000 51.7881 0.0000
# 6 0.0000 0.0000 0.0000 -4.4368 0.0000 38.2860
#
#
#
# Elastic Compliance Matrix: (Units=1/GPa)
#
#
# Indices 1 2 3 4 5 6 
#
# 1 0.007947 -0.001549 -0.002294 0.000000 0.002325 0.000000
# 2 -0.001549 0.007577 -0.001101 0.000000 -0.000675 0.000000
# 3 -0.002294 -0.001101 0.005107 0.000000 -0.002632 0.000000
# 4 0.000000 0.000000 0.000000 0.042078 0.000000 0.004876
# 5 0.002325 -0.000675 -0.002632 0.000000 0.020976 0.000000
# 6 0.000000 0.000000 0.000000 0.004876 0.000000 0.026684
#
#
# Mechanical properties :
#
#
# Convention : Reuss Voigt Hill
#
# Bulk Modulus (GPa) = 93.09683 101.49661 97.29672
# Shear Modulus (GPa) = 40.37470 48.73094 44.55282
#
# Velocity S-wave (km/s) = 3.94606 4.33523 4.14521
# Velocity P-wave (km/s) = 7.52773 8.01270 7.77400
#
# Compressibility (1/GPa) = 0.01074150
#
# Stress axis : x y z
#
# Youngs Moduli (GPa) = 125.83650 131.97863 195.79451
#
# Poissons Ratio (x) = 0.20449 0.44918
# Poissons Ratio (y) = 0.19497 0.21564
# Poissons Ratio (z) = 0.28868 0.14535
#
# Static dielectric constant tensor:
#      x y z
#    x 2.452190 0.000000 -0.018180 
#    y 0.000000 2.148750 0.000000 
#    z -0.018180 0.000000 2.035140 
# 
# From -- ./inp_files/64578.got.cif
#   From: 2010.05.17/outbox.cif.g08.bks.cpg/sg15_33_cif.got.tgz:64578.got - 2010.06.03 18:47:42.
