data_PCOD9306652
_publ_section_title
;
Structure prediction by ZEFSAII (Michael W. Deem and Ramdas Pophale) SiO2 
 PCOD9306652
Probable space group: C 2/C
;
_chemical_formula_sum "Si O2"
_cell_formula_units_Z 48
_cell_length_a 21.202489
_cell_length_b 8.951861
_cell_length_c 11.529198
_cell_angle_alpha 90.000000
_cell_angle_beta 91.832363
_cell_angle_gamma 90.000000
_cell_volume 2187.142828
_symmetry_space_group_name_H-M "C 2/C"
_symmetry_group_IT_number 15
_symmetry_cell_setting 'monoclinic'
loop_
_space_group_symop_operation_xyz
x,y,z
-x,y,1/2-z
-x,-y,-z
x,-y,1/2+z
1/2+x,1/2+y,z
1/2-x,1/2+y,1/2-z
1/2-x,1/2-y,-z
1/2+x,1/2-y,1/2+z
loop_
_atom_site_type_symbol
_atom_site_label
_atom_site_fract_x
_atom_site_fract_y
_atom_site_fract_z
Si Si1 0.202152 0.724650 0.730919
Si Si2 0.416231 0.235365 0.149997
Si Si3 0.765882 0.570534 0.407997
Si Si4 0.114407 0.400305 0.416641
Si Si5 0.943382 0.812616 0.406582
Si Si6 0.848140 0.059467 0.469874
O O1 0.226356 0.579035 0.666792
O O2 0.141457 0.677453 0.803211
O O3 0.182082 0.849689 0.637484
O O4 0.254068 0.793977 0.819663
O O5 0.409847 0.251147 0.287780
O O6 0.482969 0.309822 0.119283
O O7 0.413822 0.061646 0.115564
O O8 0.364828 0.324059 0.072637
O O9 0.825530 0.580317 0.495082
O O10 0.703018 0.554218 0.481456
O O11 0.067262 0.295830 0.484973
O O12 0.909925 0.968768 0.433981
#
# Coordination Sequence:
#
# PCOD9306652 Si02
#       6
#     8   8   8   8   8   8
#     4  12  26  42  71 108 143 186 230 294 360 426
#     4  11  26  47  73 100 140 185 236 290 347 418
#     4  12  26  44  70 106 140 184 232 294 360 426
#     4  12  25  47  70 105 140 184 234 290 358 420
#     4  11  26  47  73 100 140 185 236 290 347 418
#     4  12  25  47  70 105 140 184 234 290 358 420
#
# _framework density 21.946441
#
# number of rings (size 3 to 8) (size 9 to 14) (size 15 to 20)
#    0.000    0.333    3.333    5.000    7.000    0.000 
#    0.000    0.000    0.000    0.000    0.000    0.000 
#    0.000    0.000    0.000    0.000    0.000    0.000 
#
# Total GULP energy -134481.565598 kJ/mol
# GULP energy per Si atom -5603.398567 kJ/mol
# Density = 2.189649 g / cm^3
# Si number density = 21.946441 Si / 1000 Ang^3
#
#
#
# Elastic Constant Matrix: (Units=GPa)
#
#
# Indices 1 2 3 4 5 6 
#
# 1 46.0160 -20.4630 7.4546 0.0000 -16.3852 0.0000
# 2 -20.4630 69.7730 22.1635 0.0000 -7.5768 0.0000
# 3 7.4546 22.1635 106.0300 0.0000 -3.0344 0.0000
# 4 0.0000 0.0000 0.0000 40.1186 0.0000 -5.6506
# 5 -16.3852 -7.5768 -3.0344 0.0000 25.5032 0.0000
# 6 0.0000 0.0000 0.0000 -5.6506 0.0000 36.3701
#
#
#
# Elastic Compliance Matrix: (Units=1/GPa)
#
#
# Indices 1 2 3 4 5 6 
#
# 1 0.041409 0.017311 -0.005640 0.000000 0.031076 0.000000
# 2 0.017311 0.023048 -0.005539 0.000000 0.017310 0.000000
# 3 -0.005640 -0.005539 0.010872 0.000000 -0.003976 0.000000
# 4 0.000000 0.000000 0.000000 0.025484 0.000000 0.003959
# 5 0.031076 0.017310 -0.003976 0.000000 0.063846 0.000000
# 6 0.000000 0.000000 0.000000 0.003959 0.000000 0.028110
#
#
# Mechanical properties :
#
#
# Convention : Reuss Voigt Hill
#
# Bulk Modulus (GPa) = 11.41677 26.68101 19.04889
# Shear Modulus (GPa) = 23.84310 34.57598 29.20954
#
# Velocity S-wave (km/s) = 3.29967 3.97353 3.65217
# Velocity P-wave (km/s) = 4.44190 5.76503 5.14617
#
# Compressibility (1/GPa) = 0.08759043
#
# Stress axis : x y z
#
# Youngs Moduli (GPa) = 24.14955 43.38696 91.97952
#
# Poissons Ratio (x) = -0.75105 0.51880
# Poissons Ratio (y) = -0.41804 0.50952
# Poissons Ratio (z) = 0.13621 0.24034
#
# Static dielectric constant tensor:
#      x y z
#    x 1.787480 0.000000 -0.007360 
#    y 0.000000 1.770890 0.000000 
#    z -0.007360 0.000000 1.774400 
# 
# From -- ./inp_files/116451.got.cif
#   From: 2010.05.17/outbox.cif.g08.bks.cpg/sg15_59_cif.got.tgz:116451.got - 2010.06.03 18:47:42.
