data_PCOD9306335
_publ_section_title
;
Structure prediction by ZEFSAII (Michael W. Deem and Ramdas Pophale) SiO2 
 PCOD9306335
Probable space group: C 2/C
;
_chemical_formula_sum "Si O2"
_cell_formula_units_Z 44
_cell_length_a 5.200621
_cell_length_b 13.789609
_cell_length_c 22.264435
_cell_angle_alpha 90.000000
_cell_angle_beta 78.099456
_cell_angle_gamma 90.000000
_cell_volume 1562.366020
_symmetry_space_group_name_H-M "C 2/C"
_symmetry_group_IT_number 15
_symmetry_cell_setting 'monoclinic'
loop_
_space_group_symop_operation_xyz
x,y,z
-x,y,1/2-z
-x,-y,-z
x,-y,1/2+z
1/2+x,1/2+y,z
1/2-x,1/2+y,1/2-z
1/2-x,1/2-y,-z
1/2+x,1/2-y,1/2+z
loop_
_atom_site_type_symbol
_atom_site_label
_atom_site_fract_x
_atom_site_fract_y
_atom_site_fract_z
Si Si1 0.239386 0.961385 0.562933
Si Si2 0.742809 0.739702 0.302450
Si Si3 0.500000 0.080928 0.750000
Si Si4 0.743980 0.831811 0.450121
Si Si5 0.278571 0.253025 0.896230
Si Si6 0.668336 0.048541 0.138269
O O1 0.293428 0.059542 0.522256
O O2 0.410691 0.978905 0.614138
O O3 0.931257 0.971985 0.589780
O O4 0.267651 0.844492 0.556517
O O5 0.680084 0.849784 0.283190
O O6 0.424215 0.713014 0.327238
O O7 0.830364 0.664221 0.351547
O O8 0.000000 0.718054 0.250000
O O9 0.330546 0.010716 0.800313
O O10 0.750000 0.750000 0.500000
O O11 0.510288 0.809654 0.415590
O O12 0.026367 0.816174 0.403963
#
# Coordination Sequence:
#
# PCOD9306335 Si02
#       6
#     8   8   4   8   8   8
#     4  11  25  47  69  99 142 182 225 290 352 416
#     4  11  26  43  69 102 140 189 238 281 337 422
#     4  12  26  40  68  96 140 190 236 284 348 386
#     4  12  26  47  76 109 136 178 241 295 361 429
#     4  11  26  46  72 101 146 185 228 291 355 415
#     4  11  26  44  67 100 144 184 235 283 339 417
#
# _framework density 28.162413000000001
#
# number of rings (size 3 to 8) (size 9 to 14) (size 15 to 20)
#    0.000    0.727    0.909    6.000   12.727    1.455 
#    0.000    0.000    0.000    0.000    0.000    0.000 
#    0.000    0.000    0.000    0.000    0.000    0.000 
#
# Total GULP energy -122679.525788 kJ/mol
# GULP energy per Si atom -5576.342081 kJ/mol
# Density = 2.809831 g / cm^3
# Si number density = 28.162413 Si / 1000 Ang^3
#
#
#
# Elastic Constant Matrix: (Units=GPa)
#
#
# Indices 1 2 3 4 5 6 
#
# 1 142.9063 63.4131 25.1635 0.0000 0.3465 0.0000
# 2 63.4131 208.0290 51.1479 0.0000 4.6365 0.0000
# 3 25.1635 51.1479 37.1346 0.0000 9.3175 0.0000
# 4 0.0000 0.0000 0.0000 64.8610 0.0000 -8.1242
# 5 0.3465 4.6365 9.3175 0.0000 38.3433 0.0000
# 6 0.0000 0.0000 0.0000 -8.1242 0.0000 16.1728
#
#
#
# Elastic Compliance Matrix: (Units=1/GPa)
#
#
# Indices 1 2 3 4 5 6 
#
# 1 0.008380 -0.001692 -0.003600 0.000000 0.001004 0.000000
# 2 -0.001692 0.007710 -0.009843 0.000000 0.001475 0.000000
# 3 -0.003600 -0.009843 0.045387 0.000000 -0.009806 0.000000
# 4 0.000000 0.000000 0.000000 0.016453 0.000000 0.008265
# 5 0.001004 0.001475 -0.009806 0.000000 0.028276 0.000000
# 6 0.000000 0.000000 0.000000 0.008265 0.000000 0.065984
#
#
# Mechanical properties :
#
#
# Convention : Reuss Voigt Hill
#
# Bulk Modulus (GPa) = 32.04465 74.16878 53.10672
# Shear Modulus (GPa) = 23.48946 40.43177 31.96061
#
# Velocity S-wave (km/s) = 2.89116 3.79313 3.37243
# Velocity P-wave (km/s) = 4.74851 6.75107 5.83632
#
# Compressibility (1/GPa) = 0.03120645
#
# Stress axis : x y z
#
# Youngs Moduli (GPa) = 119.33571 129.70297 22.03276
#
# Poissons Ratio (x) = 0.21940 0.07933
# Poissons Ratio (y) = 0.20186 0.21687
# Poissons Ratio (z) = 0.42965 1.27669
#
# Static dielectric constant tensor:
#      x y z
#    x 2.219730 0.000000 0.002400 
#    y 0.000000 2.199250 0.000000 
#    z 0.002400 0.000000 2.523900 
# 
# From -- ./inp_files/285401.got.cif
#   From: 2010.05.17/outbox.cif.g08.bks.cpg/sg15_143_cif.got.tgz:285401.got - 2010.06.03 18:47:42.
