data_PCOD9306319
_publ_section_title
;
Structure prediction by ZEFSAII (Michael W. Deem and Ramdas Pophale) SiO2 
 PCOD9306319
Probable space group: C 2/C
;
_chemical_formula_sum "Si O2"
_cell_formula_units_Z 40
_cell_length_a 16.757913
_cell_length_b 13.310104
_cell_length_c 14.722191
_cell_angle_alpha 90.000000
_cell_angle_beta 148.678571
_cell_angle_gamma 90.000000
_cell_volume 1707.034872
_symmetry_space_group_name_H-M "C 2/C"
_symmetry_group_IT_number 15
_symmetry_cell_setting 'monoclinic'
loop_
_space_group_symop_operation_xyz
x,y,z
-x,y,1/2-z
-x,-y,-z
x,-y,1/2+z
1/2+x,1/2+y,z
1/2-x,1/2+y,1/2-z
1/2-x,1/2-y,-z
1/2+x,1/2-y,1/2+z
loop_
_atom_site_type_symbol
_atom_site_label
_atom_site_fract_x
_atom_site_fract_y
_atom_site_fract_z
Si Si1 0.448621 0.344330 0.921155
Si Si2 0.338513 0.883644 0.581145
Si Si3 0.896323 0.038106 0.066736
Si Si4 0.208818 0.240024 0.805014
Si Si5 0.639118 0.808675 0.323284
O O1 0.488086 0.447186 0.905668
O O2 0.298293 0.327261 0.836706
O O3 0.424444 0.260797 0.818750
O O4 0.586060 0.310432 0.120261
O O5 0.500000 0.940573 0.750000
O O6 0.313677 0.845652 0.454126
O O7 0.360062 0.791573 0.672348
O O8 0.186110 0.941308 0.468663
O O9 0.000000 0.079707 0.250000
O O10 0.749980 0.104310 0.895398
O O11 0.500000 0.843874 0.250000
O O12 0.750000 0.750000 0.500000
#
# Coordination Sequence:
#
# PCOD9306319 Si02
#       5
#     8   8   8   8   8
#     4  12  22  43  72 107 133 185 247 290 344 426
#     4  11  26  50  69 101 146 194 232 292 370 422
#     4  12  26  42  69 107 144 184 235 302 357 420
#     4  11  25  46  78  98 137 195 243 287 353 433
#     4  12  20  40  67  97 144 189 226 282 368 426
#
# _framework density 23.432442999999999
#
# number of rings (size 3 to 8) (size 9 to 14) (size 15 to 20)
#    0.000    0.400    8.000    0.600    2.800    0.800 
#    0.000    2.000    0.000    0.000    0.000    0.000 
#    0.000    0.000    0.000    0.000    0.000    0.000 
#
# Total GULP energy -111579.132530 kJ/mol
# GULP energy per Si atom -5578.956626 kJ/mol
# Density = 2.337911 g / cm^3
# Si number density = 23.432443 Si / 1000 Ang^3
#
#
#
# Elastic Constant Matrix: (Units=GPa)
#
#
# Indices 1 2 3 4 5 6 
#
# 1 101.2854 17.9053 21.6565 -0.0001 -18.9062 -0.0001
# 2 17.9053 35.8315 19.4443 0.0000 -0.6901 0.0000
# 3 21.6565 19.4443 154.8298 -0.0001 -24.9193 -0.0001
# 4 -0.0001 0.0000 -0.0001 36.4177 -0.0001 10.9717
# 5 -18.9062 -0.6901 -24.9193 -0.0001 45.1264 -0.0001
# 6 -0.0001 0.0000 -0.0001 10.9717 -0.0001 37.8849
#
#
#
# Elastic Compliance Matrix: (Units=1/GPa)
#
#
# Indices 1 2 3 4 5 6 
#
# 1 0.011810 -0.005719 -0.000166 0.000000 0.004769 0.000000
# 2 -0.005719 0.032850 -0.003984 0.000000 -0.004094 0.000000
# 3 -0.000166 -0.003984 0.007640 0.000000 0.004089 0.000000
# 4 0.000000 0.000000 0.000000 0.030084 0.000000 -0.008713
# 5 0.004769 -0.004094 0.004089 0.000000 0.026353 0.000000
# 6 0.000000 0.000000 0.000000 -0.008713 0.000000 0.028919
#
#
# Mechanical properties :
#
#
# Convention : Reuss Voigt Hill
#
# Bulk Modulus (GPa) = 30.71250 45.55100 38.13175
# Shear Modulus (GPa) = 29.71783 39.41517 34.56650
#
# Velocity S-wave (km/s) = 3.56509 4.10576 3.84494
# Velocity P-wave (km/s) = 5.48469 6.47749 6.00165
#
# Compressibility (1/GPa) = 0.03256004
#
# Stress axis : x y z
#
# Youngs Moduli (GPa) = 84.67516 30.44163 130.88398
#
# Poissons Ratio (x) = 0.17411 0.02174
# Poissons Ratio (y) = 0.48430 0.52149
# Poissons Ratio (z) = 0.01406 0.12129
#
# Static dielectric constant tensor:
#      x y z
#    x 1.925170 0.000000 0.042540 
#    y 0.000000 1.978060 0.000000 
#    z 0.042540 0.000000 1.812860 
# 
# From -- ./inp_files/162650.got.cif
#   From: 2010.05.17/outbox.cif.g08.bks.cpg/sg15_82_cif.got.tgz:162650.got - 2010.06.03 18:47:42.
