data_PCOD9306439
_publ_section_title
;
Structure prediction by ZEFSAII (Michael W. Deem and Ramdas Pophale) SiO2 
 PCOD9306439
Probable space group: C 2/C
;
_chemical_formula_sum "Si O2"
_cell_formula_units_Z 44
_cell_length_a 10.276476
_cell_length_b 22.896102
_cell_length_c 7.956783
_cell_angle_alpha 90.000000
_cell_angle_beta 79.559630
_cell_angle_gamma 90.000000
_cell_volume 1841.165922
_symmetry_space_group_name_H-M "C 2/C"
_symmetry_group_IT_number 15
_symmetry_cell_setting 'monoclinic'
loop_
_space_group_symop_operation_xyz
x,y,z
-x,y,1/2-z
-x,-y,-z
x,-y,1/2+z
1/2+x,1/2+y,z
1/2-x,1/2+y,1/2-z
1/2-x,1/2-y,-z
1/2+x,1/2-y,1/2+z
loop_
_atom_site_type_symbol
_atom_site_label
_atom_site_fract_x
_atom_site_fract_y
_atom_site_fract_z
Si Si1 0.119011 0.425623 0.091252
Si Si2 0.647425 0.798219 0.071955
Si Si3 0.736558 0.964140 0.745826
Si Si4 0.058004 0.882673 0.925686
Si Si5 0.395901 0.752000 0.042126
Si Si6 0.500000 0.464673 0.250000
O O1 0.196830 0.364465 0.065594
O O2 0.185350 0.482556 0.150373
O O3 0.000000 0.412765 0.250000
O O4 0.118277 0.443938 0.896087
O O5 0.524607 0.791655 0.968814
O O6 0.621871 0.778026 0.268004
O O7 0.750000 0.750000 0.000000
O O8 0.869843 0.994250 0.795075
O O9 0.793899 0.909228 0.630014
O O10 0.056497 0.815064 0.976151
O O11 0.000000 0.883901 0.750000
O O12 0.994296 0.923833 0.084896
O O13 0.250000 0.750000 0.000000
#
# Coordination Sequence:
#
# PCOD9306439 Si02
#       6
#     8   8   8   8   8   4
#     4  12  26  47  72 104 158 205 256 310 391 479
#     4  11  25  48  76 110 150 202 257 325 393 464
#     4  12  25  45  72 109 151 197 257 317 397 470
#     4  12  24  46  75 113 156 196 257 335 395 465
#     4  11  26  48  73 108 151 194 262 319 392 466
#     4  12  26  42  74 116 150 192 254 324 402 458
#
# _framework density 23.8979
#
# number of rings (size 3 to 8) (size 9 to 14) (size 15 to 20)
#    0.000    0.364    6.364    3.273    5.091    0.727 
#    3.273    0.000    0.000    0.000    0.000    0.000 
#    0.000    0.000    0.000    0.000    0.000    0.000 
#
# Total GULP energy -122621.108163 kJ/mol
# GULP energy per Si atom -5573.686735 kJ/mol
# Density = 2.384351 g / cm^3
# Si number density = 23.897900 Si / 1000 Ang^3
#
#
#
# Elastic Constant Matrix: (Units=GPa)
#
#
# Indices 1 2 3 4 5 6 
#
# 1 55.4295 -32.6127 11.9778 0.0000 5.4857 0.0000
# 2 -32.6127 91.3452 8.8924 0.0000 -7.1514 0.0000
# 3 11.9778 8.8924 84.3111 0.0000 -10.2634 0.0000
# 4 0.0000 0.0000 0.0000 33.9962 0.0000 2.9139
# 5 5.4857 -7.1514 -10.2634 0.0000 27.1278 0.0000
# 6 0.0000 0.0000 0.0000 2.9139 0.0000 129.8867
#
#
#
# Elastic Compliance Matrix: (Units=1/GPa)
#
#
# Indices 1 2 3 4 5 6 
#
# 1 0.024889 0.009020 -0.005043 0.000000 -0.004563 0.000000
# 2 0.009020 0.014507 -0.002692 0.000000 0.000982 0.000000
# 3 -0.005043 -0.002692 0.013522 0.000000 0.005426 0.000000
# 4 0.000000 0.000000 0.000000 0.029472 0.000000 -0.000661
# 5 -0.004563 0.000982 0.005426 0.000000 0.040097 0.000000
# 6 0.000000 0.000000 0.000000 -0.000661 0.000000 0.007714
#
#
# Mechanical properties :
#
#
# Convention : Reuss Voigt Hill
#
# Bulk Modulus (GPa) = 18.02202 23.06675 20.54439
# Shear Modulus (GPa) = 34.21711 54.39067 44.30389
#
# Velocity S-wave (km/s) = 3.78802 4.77588 4.31034
# Velocity P-wave (km/s) = 5.16622 6.33129 5.77819
#
# Compressibility (1/GPa) = 0.05548767
#
# Stress axis : x y z
#
# Youngs Moduli (GPa) = 40.17822 68.93369 73.95540
#
# Poissons Ratio (x) = -0.62176 0.37294
# Poissons Ratio (y) = -0.36240 0.19908
# Poissons Ratio (z) = 0.20261 0.18556
#
# Static dielectric constant tensor:
#      x y z
#    x 2.236250 0.000000 -0.121370 
#    y 0.000000 1.888020 0.000000 
#    z -0.121370 0.000000 1.975370 
# 
# From -- ./inp_files/30744.got.cif
#   From: 2010.05.17/outbox.cif.g08.bks.cpg/sg15_16_cif.got.tgz:30744.got - 2010.06.03 18:47:42.
