data_PCOD9306671
_publ_section_title
;
Structure prediction by ZEFSAII (Michael W. Deem and Ramdas Pophale) SiO2 
 PCOD9306671
Probable space group: C 2/C
;
_chemical_formula_sum "Si O2"
_cell_formula_units_Z 28
_cell_length_a 13.110703
_cell_length_b 10.091027
_cell_length_c 9.538798
_cell_angle_alpha 90.000000
_cell_angle_beta 117.100064
_cell_angle_gamma 90.000000
_cell_volume 1123.436651
_symmetry_space_group_name_H-M "C 2/C"
_symmetry_group_IT_number 15
_symmetry_cell_setting 'monoclinic'
loop_
_space_group_symop_operation_xyz
x,y,z
-x,y,1/2-z
-x,-y,-z
x,-y,1/2+z
1/2+x,1/2+y,z
1/2-x,1/2+y,1/2-z
1/2-x,1/2-y,-z
1/2+x,1/2-y,1/2+z
loop_
_atom_site_type_symbol
_atom_site_label
_atom_site_fract_x
_atom_site_fract_y
_atom_site_fract_z
Si Si1 0.500000 0.099909 0.250000
Si Si2 0.324355 0.451990 0.834456
Si Si3 0.535309 0.700662 0.546512
Si Si4 0.330529 0.903474 0.028708
O O1 0.433423 0.197381 0.310836
O O2 0.433092 0.007996 0.100344
O O3 0.420206 0.562055 0.865975
O O4 0.255034 0.416416 0.653721
O O5 0.240800 0.537516 0.883881
O O6 0.399122 0.325463 0.935854
O O7 0.602949 0.762522 0.453654
#
# Coordination Sequence:
#
# PCOD9306671 Si02
#       4
#     4   8   8   8
#     4  12  26  48  74 110 152 196 256 308 382 462
#     4  11  27  48  76 113 149 204 249 317 388 435
#     4  11  26  47  76 111 154 193 263 309 372 474
#     4  12  26  48  76 111 152 199 250 317 384 446
#
# _framework density 24.923521000000001
#
# number of rings (size 3 to 8) (size 9 to 14) (size 15 to 20)
#    0.000    0.571    2.857    3.429    4.000    8.000 
#    0.000    0.000    0.000    0.000    0.000    0.000 
#    0.000    0.000    0.000    0.000    0.000    0.000 
#
# Total GULP energy -78037.532611 kJ/mol
# GULP energy per Si atom -5574.109472 kJ/mol
# Density = 2.486679 g / cm^3
# Si number density = 24.923521 Si / 1000 Ang^3
#
#
#
# Elastic Constant Matrix: (Units=GPa)
#
#
# Indices 1 2 3 4 5 6 
#
# 1 67.0504 7.4026 23.8788 0.0000 -9.7401 0.0000
# 2 7.4026 105.0000 12.9975 0.0000 8.2974 0.0000
# 3 23.8788 12.9975 69.0529 0.0000 3.6637 0.0000
# 4 0.0000 0.0000 0.0000 46.9243 0.0000 23.6653
# 5 -9.7401 8.2974 3.6637 0.0000 35.3032 0.0000
# 6 0.0000 0.0000 0.0000 23.6653 0.0000 76.2138
#
#
#
# Elastic Compliance Matrix: (Units=1/GPa)
#
#
# Indices 1 2 3 4 5 6 
#
# 1 0.018161 -0.000953 -0.006414 0.000000 0.005900 0.000000
# 2 -0.000953 0.009960 -0.001415 0.000000 -0.002457 0.000000
# 3 -0.006414 -0.001415 0.017136 0.000000 -0.003215 0.000000
# 4 0.000000 0.000000 0.000000 0.025268 0.000000 -0.007846
# 5 0.005900 -0.002457 -0.003215 0.000000 0.030865 0.000000
# 6 0.000000 0.000000 0.000000 -0.007846 0.000000 0.015557
#
#
# Mechanical properties :
#
#
# Convention : Reuss Voigt Hill
#
# Bulk Modulus (GPa) = 36.10814 36.62902 36.36858
# Shear Modulus (GPa) = 34.78465 44.80990 39.79727
#
# Velocity S-wave (km/s) = 3.73990 4.24476 4.00030
# Velocity P-wave (km/s) = 5.75918 6.22515 5.99669
#
# Compressibility (1/GPa) = 0.02769459
#
# Stress axis : x y z
#
# Youngs Moduli (GPa) = 55.06449 100.39871 58.35510
#
# Poissons Ratio (x) = 0.09564 0.37427
# Poissons Ratio (y) = 0.05246 0.08257
# Poissons Ratio (z) = 0.35317 0.14206
#
# Static dielectric constant tensor:
#      x y z
#    x 2.232760 0.000000 -0.001010 
#    y 0.000000 2.070140 0.000000 
#    z -0.001010 0.000000 1.900590 
# 
# From -- ./inp_files/36661.got.cif
#   From: 2010.05.17/outbox.cif.g08.bks.cpg/sg15_19_cif.got.tgz:36661.got - 2010.06.03 18:47:42.
