data_PCOD9306263
_publ_section_title
;
Structure prediction by ZEFSAII (Michael W. Deem and Ramdas Pophale) SiO2 
 PCOD9306263
Probable space group: C 2/C
;
_chemical_formula_sum "Si O2"
_cell_formula_units_Z 48
_cell_length_a 14.835516
_cell_length_b 28.943636
_cell_length_c 14.662671
_cell_angle_alpha 90.000000
_cell_angle_beta 160.675742
_cell_angle_gamma 90.000000
_cell_volume 2083.453978
_symmetry_space_group_name_H-M "C 2/C"
_symmetry_group_IT_number 15
_symmetry_cell_setting 'monoclinic'
loop_
_space_group_symop_operation_xyz
x,y,z
-x,y,1/2-z
-x,-y,-z
x,-y,1/2+z
1/2+x,1/2+y,z
1/2-x,1/2+y,1/2-z
1/2-x,1/2-y,-z
1/2+x,1/2-y,1/2+z
loop_
_atom_site_type_symbol
_atom_site_label
_atom_site_fract_x
_atom_site_fract_y
_atom_site_fract_z
Si Si1 0.735245 0.480555 0.548568
Si Si2 0.112625 0.096990 0.070287
Si Si3 0.844386 0.918057 0.504981
Si Si4 0.107047 0.343030 0.035259
Si Si5 0.000000 0.338253 0.250000
Si Si6 0.820707 0.279948 0.915383
Si Si7 0.000000 0.285107 0.750000
O O1 0.606069 0.448595 0.502747
O O2 0.805025 0.532638 0.647894
O O3 0.000000 0.460619 0.750000
O O4 0.500000 0.485387 0.250000
O O5 0.424878 0.111552 0.364010
O O6 0.033787 0.087651 0.098823
O O7 0.915063 0.138655 0.845295
O O8 0.656430 0.873198 0.332553
O O9 0.000000 0.917598 0.750000
O O10 0.041832 0.317494 0.878125
O O11 0.972255 0.310786 0.984340
O O12 0.170866 0.305689 0.479826
O O13 0.011366 0.234310 0.100335
O O14 0.750000 0.250000 0.500000
#
# Coordination Sequence:
#
# PCOD9306263 Si02
#       7
#     8   8   8   8   4   8   4
#     4  11  25  46  72 108 145 190 234 297 352 420
#     4  12  26  45  74 108 143 190 238 294 353 430
#     4  11  25  46  72 104 148 192 239 289 355 427
#     4  12  26  46  74 104 141 187 235 297 363 423
#     4  12  24  44  71 100 144 186 241 284 356 426
#     4  12  26  45  69 102 140 182 234 296 358 423
#     4  12  26  48  73 102 140 186 239 296 362 430
#
# _framework density 23.038667
#
# number of rings (size 3 to 8) (size 9 to 14) (size 15 to 20)
#    0.000    0.333    2.500    6.000    5.833    0.000 
#    0.000    4.167    0.000    0.000    0.000    0.000 
#    0.000    0.000    0.000    0.000    0.000    0.000 
#
# Total GULP energy -134277.263488 kJ/mol
# GULP energy per Si atom -5594.885979 kJ/mol
# Density = 2.298623 g / cm^3
# Si number density = 23.038667 Si / 1000 Ang^3
#
#
#
# Elastic Constant Matrix: (Units=GPa)
#
#
# Indices 1 2 3 4 5 6 
#
# 1 132.8207 38.4936 14.1437 0.0001 -11.4107 -0.0013
# 2 38.4936 81.5704 -1.0988 -0.0014 -7.4734 -0.0013
# 3 14.1437 -1.0988 72.8200 0.0075 7.3484 0.0029
# 4 0.0001 -0.0014 0.0075 23.5565 0.0022 11.7884
# 5 -11.4107 -7.4734 7.3484 0.0022 35.0066 0.0012
# 6 -0.0013 -0.0013 0.0029 11.7884 0.0012 49.9851
#
#
#
# Elastic Compliance Matrix: (Units=1/GPa)
#
#
# Indices 1 2 3 4 5 6 
#
# 1 0.009166 -0.004120 -0.002100 0.000000 0.002549 0.000000
# 2 -0.004120 0.014356 0.000861 0.000000 0.001541 0.000000
# 3 -0.002100 0.000861 0.014511 -0.000004 -0.003547 0.000000
# 4 0.000000 0.000000 -0.000004 0.048132 -0.000002 -0.011351
# 5 0.002549 0.001541 -0.003547 -0.000002 0.030470 0.000000
# 6 0.000000 0.000000 0.000000 -0.011351 0.000000 0.022683
#
#
# Mechanical properties :
#
#
# Convention : Reuss Voigt Hill
#
# Bulk Modulus (GPa) = 36.60779 43.36533 39.98656
# Shear Modulus (GPa) = 31.41883 37.42114 34.41998
#
# Velocity S-wave (km/s) = 3.69690 4.03460 3.86943
# Velocity P-wave (km/s) = 5.84354 6.36928 6.11206
#
# Compressibility (1/GPa) = 0.02731659
#
# Stress axis : x y z
#
# Youngs Moduli (GPa) = 109.10420 69.65525 68.91232
#
# Poissons Ratio (x) = 0.28698 0.14469
# Poissons Ratio (y) = 0.44951 -0.05936
# Poissons Ratio (z) = 0.22907 -0.06000
#
# Static dielectric constant tensor:
#      x y z
#    x 1.825560 0.000000 0.015010 
#    y 0.000000 1.953440 0.000000 
#    z 0.015010 0.000000 1.822240 
# 
# From -- ./inp_files/157670.got.cif
#   From: 2010.05.17/outbox.cif.g08.bks.cpg/sg15_79_cif.got.tgz:157670.got - 2010.06.03 18:47:42.
