data_PCOD9306542
_publ_section_title
;
Structure prediction by ZEFSAII (Michael W. Deem and Ramdas Pophale) SiO2 
 PCOD9306542
Probable space group: C 2/C
;
_chemical_formula_sum "Si O2"
_cell_formula_units_Z 32
_cell_length_a 7.312876
_cell_length_b 14.163360
_cell_length_c 12.699391
_cell_angle_alpha 90.000000
_cell_angle_beta 109.940646
_cell_angle_gamma 90.000000
_cell_volume 1236.478871
_symmetry_space_group_name_H-M "C 2/C"
_symmetry_group_IT_number 15
_symmetry_cell_setting 'monoclinic'
loop_
_space_group_symop_operation_xyz
x,y,z
-x,y,1/2-z
-x,-y,-z
x,-y,1/2+z
1/2+x,1/2+y,z
1/2-x,1/2+y,1/2-z
1/2-x,1/2-y,-z
1/2+x,1/2-y,1/2+z
loop_
_atom_site_type_symbol
_atom_site_label
_atom_site_fract_x
_atom_site_fract_y
_atom_site_fract_z
Si Si1 0.315915 0.148165 0.972190
Si Si2 0.363616 0.439663 0.864262
Si Si3 0.740526 0.844351 0.630556
Si Si4 0.776479 0.632273 0.720626
O O1 0.548645 0.138751 0.025634
O O2 0.248192 0.141375 0.839722
O O3 0.250000 0.250000 0.000000
O O4 0.229302 0.078278 0.041379
O O5 0.235034 0.396579 0.742845
O O6 0.567479 0.385233 0.887971
O O7 0.364942 0.551182 0.847381
O O8 0.755682 0.733128 0.659614
O O9 0.000000 0.600950 0.750000
#
# Coordination Sequence:
#
# PCOD9306542 Si02
#       4
#     8   8   8   8
#     4  12  26  49  84 116 157 220 269 327 411 485
#     4  11  26  51  76 113 166 209 267 338 397 484
#     4  11  25  53  74 118 167 202 270 340 393 480
#     4  12  26  50  81 118 161 215 268 340 408 478
#
# _framework density 25.879943000000001
#
# number of rings (size 3 to 8) (size 9 to 14) (size 15 to 20)
#    0.000    0.500    5.000    2.250    0.000   12.000 
#    4.500   10.000    0.000    0.000    0.000    0.000 
#    0.000    0.000    0.000    0.000    0.000    0.000 
#
# Total GULP energy -89950.699760 kJ/mol
# GULP energy per Si atom -5621.918735 kJ/mol
# Density = 2.582104 g / cm^3
# Si number density = 25.879943 Si / 1000 Ang^3
#
#
#
# Elastic Constant Matrix: (Units=GPa)
#
#
# Indices 1 2 3 4 5 6 
#
# 1 121.1861 62.0495 36.3126 0.0000 0.0177 0.0000
# 2 62.0495 196.7845 70.5467 0.0000 -7.4176 0.0000
# 3 36.3126 70.5467 142.2762 0.0000 -18.4005 0.0000
# 4 0.0000 0.0000 0.0000 43.8914 0.0000 -12.1154
# 5 0.0177 -7.4176 -18.4005 0.0000 45.4029 0.0000
# 6 0.0000 0.0000 0.0000 -12.1154 0.0000 12.6442
#
#
#
# Elastic Compliance Matrix: (Units=1/GPa)
#
#
# Indices 1 2 3 4 5 6 
#
# 1 0.010049 -0.002725 -0.001342 0.000000 -0.000993 0.000000
# 2 -0.002725 0.006922 -0.002734 0.000000 0.000024 0.000000
# 3 -0.001342 -0.002734 0.009148 0.000000 0.003261 0.000000
# 4 0.000000 0.000000 0.000000 0.030976 0.000000 0.029681
# 5 -0.000993 0.000024 0.003261 0.000000 0.023351 0.000000
# 6 0.000000 0.000000 0.000000 0.029681 0.000000 0.107527
#
#
# Mechanical properties :
#
#
# Convention : Reuss Voigt Hill
#
# Bulk Modulus (GPa) = 79.88374 88.67381 84.27877
# Shear Modulus (GPa) = 24.30152 39.81022 32.05587
#
# Velocity S-wave (km/s) = 3.06765 3.92633 3.52325
# Velocity P-wave (km/s) = 6.59404 7.40896 7.01334
#
# Compressibility (1/GPa) = 0.01251819
#
# Stress axis : x y z
#
# Youngs Moduli (GPa) = 99.50918 144.47076 109.30958
#
# Poissons Ratio (x) = 0.39369 0.14670
# Poissons Ratio (y) = 0.27116 0.29880
# Poissons Ratio (z) = 0.13355 0.39491
#
# Static dielectric constant tensor:
#      x y z
#    x 1.949050 0.000000 0.359860 
#    y 0.000000 2.010630 0.000000 
#    z 0.359860 0.000000 0.063630 
# 
# From -- ./inp_files/141233.got.cif
#   From: 2010.05.17/outbox.cif.g08.bks.cpg/sg15_71_cif.got.tgz:141233.got - 2010.06.03 18:47:42.
