data_PCOD9306010
_publ_section_title
;
Structure prediction by ZEFSAII (Michael W. Deem and Ramdas Pophale) SiO2 
 PCOD9306010
Probable space group: C 2/C
;
_chemical_formula_sum "Si O2"
_cell_formula_units_Z 32
_cell_length_a 10.073237
_cell_length_b 16.365122
_cell_length_c 10.476535
_cell_angle_alpha 90.000000
_cell_angle_beta 56.157716
_cell_angle_gamma 90.000000
_cell_volume 1434.445797
_symmetry_space_group_name_H-M "C 2/C"
_symmetry_group_IT_number 15
_symmetry_cell_setting 'monoclinic'
loop_
_space_group_symop_operation_xyz
x,y,z
-x,y,1/2-z
-x,-y,-z
x,-y,1/2+z
1/2+x,1/2+y,z
1/2-x,1/2+y,1/2-z
1/2-x,1/2-y,-z
1/2+x,1/2-y,1/2+z
loop_
_atom_site_type_symbol
_atom_site_label
_atom_site_fract_x
_atom_site_fract_y
_atom_site_fract_z
Si Si1 0.888141 0.732777 0.527687
Si Si2 0.149519 0.451078 0.517031
Si Si3 0.770725 0.794684 0.125401
Si Si4 0.809677 0.477259 0.266336
O O1 0.750000 0.750000 0.500000
O O2 0.919440 0.636822 0.484012
O O3 0.834201 0.742408 0.703266
O O4 0.047886 0.783597 0.425138
O O5 0.259142 0.478548 0.340233
O O6 0.236656 0.453606 0.607255
O O7 0.996761 0.508650 0.628348
O O8 0.725452 0.890292 0.150179
O O9 0.750000 0.750000 0.000000
#
# Coordination Sequence:
#
# PCOD9306010 Si02
#       4
#     8   8   8   8
#     4  11  25  43  68 102 138 180 228 284 346 409
#     4   9  20  36  66  92 129 180 225 266 336 418
#     4  11  25  41  68 104 138 176 231 288 342 408
#     4   9  20  36  62  96 126 173 231 271 325 413
#
# _framework density 22.308266
#
# number of rings (size 3 to 8) (size 9 to 14) (size 15 to 20)
#    0.000    2.000    0.000    1.500   24.500    0.000 
#    0.000    1.250    0.000    3.000    0.000    0.000 
#    0.000    0.000    0.000    0.000    0.000    0.000 
#
# Total GULP energy -89174.139391 kJ/mol
# GULP energy per Si atom -5573.383712 kJ/mol
# Density = 2.225749 g / cm^3
# Si number density = 22.308266 Si / 1000 Ang^3
#
#
#
# Elastic Constant Matrix: (Units=GPa)
#
#
# Indices 1 2 3 4 5 6 
#
# 1 72.1829 43.9772 30.8965 0.0000 6.8466 0.0000
# 2 43.9772 86.5243 61.0395 0.0000 4.1173 0.0000
# 3 30.8965 61.0395 142.1507 0.0000 41.2795 0.0000
# 4 0.0000 0.0000 0.0000 42.9191 0.0000 0.4272
# 5 6.8466 4.1173 41.2795 0.0000 51.7118 0.0000
# 6 0.0000 0.0000 0.0000 0.4272 0.0000 27.5614
#
#
#
# Elastic Compliance Matrix: (Units=1/GPa)
#
#
# Indices 1 2 3 4 5 6 
#
# 1 0.020325 -0.010950 0.001058 0.000000 -0.002663 0.000000
# 2 -0.010950 0.023868 -0.010073 0.000000 0.007590 0.000000
# 3 0.001058 -0.010073 0.014239 0.000000 -0.010704 0.000000
# 4 0.000000 0.000000 0.000000 0.023303 0.000000 -0.000361
# 5 -0.002663 0.007590 -0.010704 0.000000 0.027631 0.000000
# 6 0.000000 0.000000 0.000000 -0.000361 0.000000 0.036288
#
#
# Mechanical properties :
#
#
# Convention : Reuss Voigt Hill
#
# Bulk Modulus (GPa) = 54.05128 63.63158 58.84143
# Shear Modulus (GPa) = 26.07551 35.43478 30.75515
#
# Velocity S-wave (km/s) = 3.42259 3.98982 3.71704
# Velocity P-wave (km/s) = 6.31670 7.05766 6.69743
#
# Compressibility (1/GPa) = 0.01850095
#
# Stress axis : x y z
#
# Youngs Moduli (GPa) = 49.20124 41.89753 70.23123
#
# Poissons Ratio (x) = 0.45877 -0.07428
# Poissons Ratio (y) = 0.53874 0.70744
# Poissons Ratio (z) = -0.05204 0.42204
#
# Static dielectric constant tensor:
#      x y z
#    x 2.121270 0.000000 0.190880 
#    y 0.000000 1.841610 0.000000 
#    z 0.190880 0.000000 1.896240 
# 
# From -- ./inp_files/86574.got.cif
#   From: 2010.05.17/outbox.cif.g08.bks.cpg/sg15_44_cif.got.tgz:86574.got - 2010.06.03 18:47:42.
