data_PCOD9306887
_publ_section_title
;
Structure prediction by ZEFSAII (Michael W. Deem and Ramdas Pophale) SiO2 
 PCOD9306887
Probable space group: C 2/C
;
_chemical_formula_sum "Si O2"
_cell_formula_units_Z 32
_cell_length_a 15.939363
_cell_length_b 9.410014
_cell_length_c 25.987623
_cell_angle_alpha 90.000000
_cell_angle_beta 160.716798
_cell_angle_gamma 90.000000
_cell_volume 1287.224823
_symmetry_space_group_name_H-M "C 2/C"
_symmetry_group_IT_number 15
_symmetry_cell_setting 'monoclinic'
loop_
_space_group_symop_operation_xyz
x,y,z
-x,y,1/2-z
-x,-y,-z
x,-y,1/2+z
1/2+x,1/2+y,z
1/2-x,1/2+y,1/2-z
1/2-x,1/2-y,-z
1/2+x,1/2-y,1/2+z
loop_
_atom_site_type_symbol
_atom_site_label
_atom_site_fract_x
_atom_site_fract_y
_atom_site_fract_z
Si Si1 0.500000 0.000000 0.000000
Si Si2 0.000000 0.025947 0.750000
Si Si3 0.578179 0.819476 0.148775
Si Si4 0.847434 0.766932 0.999056
Si Si5 0.672380 0.078479 0.895996
O O1 0.574490 0.902375 0.092885
O O2 0.815657 0.060012 0.180540
O O3 0.770547 0.135719 0.600712
O O4 0.470252 0.919643 0.131696
O O5 0.853278 0.769082 0.325471
O O6 0.406790 0.681649 0.041082
O O7 0.756628 0.920725 0.928346
O O8 0.750000 0.750000 0.000000
O O9 0.500000 0.132936 0.750000
#
# Coordination Sequence:
#
# PCOD9306887 Si02
#       5
#     4   4   8   8   8
#     4  12  28  50  78 118 158 200 268 326 400 474
#     4  12  28  46  80 108 152 208 256 328 394 476
#     4  11  29  46  80 113 157 207 263 334 401 474
#     4  12  26  48  73 111 147 203 261 320 395 471
#     4  11  28  51  75 112 159 208 265 329 406 480
#
# _framework density 24.859681999999999
#
# number of rings (size 3 to 8) (size 9 to 14) (size 15 to 20)
#    0.000    0.500    3.750    1.500   12.250    1.000 
#    0.000    0.000    0.000    0.000    0.000    0.000 
#    0.000    0.000    0.000    0.000    0.000    0.000 
#
# Total GULP energy -89166.305413 kJ/mol
# GULP energy per Si atom -5572.894088 kJ/mol
# Density = 2.480310 g / cm^3
# Si number density = 24.859682 Si / 1000 Ang^3
#
#
#
# Elastic Constant Matrix: (Units=GPa)
#
#
# Indices 1 2 3 4 5 6 
#
# 1 94.7890 10.1469 31.4624 0.0028 -4.0510 -0.0007
# 2 10.1469 78.4753 40.2038 0.0080 -10.9679 0.0045
# 3 31.4624 40.2038 220.0698 0.0527 11.4700 -0.0145
# 4 0.0028 0.0080 0.0527 30.9905 -0.0142 -27.0414
# 5 -4.0510 -10.9679 11.4700 -0.0142 47.5057 -0.0026
# 6 -0.0007 0.0045 -0.0145 -27.0414 -0.0026 25.1130
#
#
#
# Elastic Compliance Matrix: (Units=1/GPa)
#
#
# Indices 1 2 3 4 5 6 
#
# 1 0.011175 -0.000466 -0.001576 0.000033 0.001226 0.000035
# 2 -0.000466 0.014836 -0.002856 -0.000008 0.004075 -0.000013
# 3 -0.001576 -0.002856 0.005401 -0.000105 -0.002098 -0.000109
# 4 0.000033 -0.000008 -0.000105 0.534015 0.000218 0.575020
# 5 0.001226 0.004075 -0.002098 0.000218 0.022602 0.000235
# 6 0.000035 -0.000013 -0.000109 0.575020 0.000235 0.658995
#
#
# Mechanical properties :
#
#
# Convention : Reuss Voigt Hill
#
# Bulk Modulus (GPa) = 46.26500 61.88449 54.07474
# Shear Modulus (GPa) = 3.95562 41.48989 22.72275
#
# Velocity S-wave (km/s) = 1.26279 4.08973 3.02659
# Velocity P-wave (km/s) = 4.55818 6.87377 5.83206
#
# Compressibility (1/GPa) = 0.02161461
#
# Stress axis : x y z
#
# Youngs Moduli (GPa) = 89.48313 67.40418 185.16748
#
# Poissons Ratio (x) = 0.03141 0.29191
# Poissons Ratio (y) = 0.04170 0.52885
# Poissons Ratio (z) = 0.14107 0.19251
#
# Static dielectric constant tensor:
#      x y z
#    x 2.738330 -0.001620 0.697210 
#    y -0.001620 2.251990 -0.001270 
#    z 0.697210 -0.001270 2.538380 
# 
# From -- ./inp_files/103492.got.cif
#   From: 2010.05.17/outbox.cif.g08.bks.cpg/sg15_52_cif.got.tgz:103492.got - 2010.06.03 18:47:42.
