data_PCOD9306537
_publ_section_title
;
Structure prediction by ZEFSAII (Michael W. Deem and Ramdas Pophale) SiO2 
 PCOD9306537
Probable space group: C 2/C
;
_chemical_formula_sum "Si O2"
_cell_formula_units_Z 40
_cell_length_a 8.236559
_cell_length_b 13.297941
_cell_length_c 13.992710
_cell_angle_alpha 90.000000
_cell_angle_beta 95.116081
_cell_angle_gamma 90.000000
_cell_volume 1526.505584
_symmetry_space_group_name_H-M "C 2/C"
_symmetry_group_IT_number 15
_symmetry_cell_setting 'monoclinic'
loop_
_space_group_symop_operation_xyz
x,y,z
-x,y,1/2-z
-x,-y,-z
x,-y,1/2+z
1/2+x,1/2+y,z
1/2-x,1/2+y,1/2-z
1/2-x,1/2-y,-z
1/2+x,1/2-y,1/2+z
loop_
_atom_site_type_symbol
_atom_site_label
_atom_site_fract_x
_atom_site_fract_y
_atom_site_fract_z
Si Si1 0.716991 0.412242 0.842781
Si Si2 0.838789 0.468801 0.178230
Si Si3 0.667709 0.276748 0.214250
Si Si4 0.818646 0.587330 0.990298
Si Si5 0.915777 0.222244 0.399448
O O1 0.718213 0.464234 0.738271
O O2 0.858000 0.327356 0.842374
O O3 0.566301 0.342046 0.867081
O O4 0.748039 0.504510 0.914557
O O5 0.747733 0.364226 0.156972
O O6 0.881817 0.526419 0.084650
O O7 0.000000 0.452782 0.250000
O O8 0.500000 0.312631 0.250000
O O9 0.791466 0.249646 0.306878
O O10 0.671162 0.654212 0.025166
O O11 0.939853 0.667770 0.948203
#
# Coordination Sequence:
#
# PCOD9306537 Si02
#       5
#     8   8   8   8   8
#     4  12  26  51  82 117 159 220 265 338 420 482
#     4  12  28  52  82 118 165 216 272 344 413 489
#     4  12  28  50  80 117 163 218 278 334 414 498
#     4  11  27  48  83 118 167 206 287 331 417 490
#     4  11  25  52  82 118 162 215 272 350 408 495
#
# _framework density 26.203638000000002
#
# number of rings (size 3 to 8) (size 9 to 14) (size 15 to 20)
#    0.000    0.400    4.000    3.000    2.800    4.800 
#    0.000    0.000    0.000    0.000    0.000    0.000 
#    0.000    0.000    0.000    0.000    0.000    0.000 
#
# Total GULP energy -112216.370158 kJ/mol
# GULP energy per Si atom -5610.818508 kJ/mol
# Density = 2.614400 g / cm^3
# Si number density = 26.203638 Si / 1000 Ang^3
#
#
#
# Elastic Constant Matrix: (Units=GPa)
#
#
# Indices 1 2 3 4 5 6 
#
# 1 97.0162 46.8435 30.2615 0.0000 -27.5867 0.0000
# 2 46.8435 227.1072 63.2130 0.0000 -8.4459 0.0000
# 3 30.2615 63.2130 122.0219 0.0000 -6.7316 0.0000
# 4 0.0000 0.0000 0.0000 66.7419 0.0000 -17.0177
# 5 -27.5867 -8.4459 -6.7316 0.0000 38.9513 0.0000
# 6 0.0000 0.0000 0.0000 -17.0177 0.0000 54.0344
#
#
#
# Elastic Compliance Matrix: (Units=1/GPa)
#
#
# Indices 1 2 3 4 5 6 
#
# 1 0.014684 -0.002110 -0.002019 0.000000 0.009593 0.000000
# 2 -0.002110 0.005465 -0.002347 0.000000 -0.000715 0.000000
# 3 -0.002019 -0.002347 0.009900 0.000000 -0.000228 0.000000
# 4 0.000000 0.000000 0.000000 0.016291 0.000000 0.005131
# 5 0.009593 -0.000715 -0.000228 0.000000 0.032273 0.000000
# 6 0.000000 0.000000 0.000000 0.005131 0.000000 0.020123
#
#
# Mechanical properties :
#
#
# Convention : Reuss Voigt Hill
#
# Bulk Modulus (GPa) = 58.49541 80.75346 69.62444
# Shear Modulus (GPa) = 42.59399 52.33402 47.46400
#
# Velocity S-wave (km/s) = 4.03612 4.47386 4.26061
# Velocity P-wave (km/s) = 6.64020 7.58761 7.12966
#
# Compressibility (1/GPa) = 0.01709536
#
# Stress axis : x y z
#
# Youngs Moduli (GPa) = 68.10106 182.97629 101.01497
#
# Poissons Ratio (x) = 0.38606 0.20399
# Poissons Ratio (y) = 0.14369 0.23712
# Poissons Ratio (z) = 0.13752 0.42952
#
# Static dielectric constant tensor:
#      x y z
#    x 2.088090 0.000000 0.005100 
#    y 0.000000 2.038060 0.000000 
#    z 0.005100 0.000000 2.064920 
# 
# From -- ./inp_files/133158.got.cif
#   From: 2010.05.17/outbox.cif.g08.bks.cpg/sg15_67_cif.got.tgz:133158.got - 2010.06.03 18:47:42.
