data_PCOD9306477
_publ_section_title
;
Structure prediction by ZEFSAII (Michael W. Deem and Ramdas Pophale) SiO2 
 PCOD9306477
Probable space group: C 2/C
;
_chemical_formula_sum "Si O2"
_cell_formula_units_Z 28
_cell_length_a 9.129463
_cell_length_b 17.652534
_cell_length_c 9.559701
_cell_angle_alpha 90.000000
_cell_angle_beta 43.924058
_cell_angle_gamma 90.000000
_cell_volume 1068.737376
_symmetry_space_group_name_H-M "C 2/C"
_symmetry_group_IT_number 15
_symmetry_cell_setting 'monoclinic'
loop_
_space_group_symop_operation_xyz
x,y,z
-x,y,1/2-z
-x,-y,-z
x,-y,1/2+z
1/2+x,1/2+y,z
1/2-x,1/2+y,1/2-z
1/2-x,1/2-y,-z
1/2+x,1/2-y,1/2+z
loop_
_atom_site_type_symbol
_atom_site_label
_atom_site_fract_x
_atom_site_fract_y
_atom_site_fract_z
Si Si1 0.195494 0.203298 0.180803
Si Si2 0.708450 0.140096 0.821241
Si Si3 0.000000 0.533197 0.750000
Si Si4 0.803848 0.895274 0.564693
O O1 0.155310 0.275592 0.308270
O O2 0.283422 0.145071 0.236096
O O3 0.000000 0.157171 0.250000
O O4 0.250000 0.250000 0.000000
O O5 0.942219 0.113105 0.609736
O O6 0.541520 0.086706 0.854694
O O7 0.728910 0.143107 0.973078
O O8 0.796489 0.478346 0.887402
#
# Coordination Sequence:
#
# PCOD9306477 Si02
#       4
#     8   8   4   8
#     4  12  25  46  77 107 148 192 250 308 370 437
#     4  11  25  49  74 108 152 196 245 309 367 444
#     4  12  26  46  78 110 150 202 244 304 376 436
#     4  11  27  46  73 113 149 192 251 306 369 440
#
# _framework density 26.199142999999999
#
# number of rings (size 3 to 8) (size 9 to 14) (size 15 to 20)
#    0.000    0.571    4.286    2.571    4.000    4.571 
#    5.143    0.000    0.000    0.000    0.000    0.000 
#    0.000    0.000    0.000    0.000    0.000    0.000 
#
# Total GULP energy -78082.234216 kJ/mol
# GULP energy per Si atom -5577.302444 kJ/mol
# Density = 2.613951 g / cm^3
# Si number density = 26.199143 Si / 1000 Ang^3
#
#
#
# Elastic Constant Matrix: (Units=GPa)
#
#
# Indices 1 2 3 4 5 6 
#
# 1 219.7160 93.5193 96.5951 0.0000 29.4246 0.0000
# 2 93.5193 102.7108 37.2794 0.0000 16.5976 0.0000
# 3 96.5951 37.2794 132.9000 0.0000 52.4681 0.0000
# 4 0.0000 0.0000 0.0000 1.7384 0.0000 8.0760
# 5 29.4246 16.5976 52.4681 0.0000 78.5075 0.0000
# 6 0.0000 0.0000 0.0000 8.0760 0.0000 104.0772
#
#
#
# Elastic Compliance Matrix: (Units=1/GPa)
#
#
# Indices 1 2 3 4 5 6 
#
# 1 0.010007 -0.007241 -0.005931 0.000000 0.001744 0.000000
# 2 -0.007241 0.016086 0.001388 0.000000 -0.001615 0.000000
# 3 -0.005931 0.001388 0.014513 0.000000 -0.007770 0.000000
# 4 0.000000 0.000000 0.000000 0.899534 0.000000 -0.069800
# 5 0.001744 -0.001615 -0.007770 0.000000 0.017618 0.000000
# 6 0.000000 0.000000 0.000000 -0.069800 0.000000 0.015024
#
#
# Mechanical properties :
#
#
# Convention : Reuss Voigt Hill
#
# Bulk Modulus (GPa) = 58.68781 101.12384 79.90582
# Shear Modulus (GPa) = 4.98987 52.06013 28.52500
#
# Velocity S-wave (km/s) = 1.38157 4.46252 3.30324
# Velocity P-wave (km/s) = 4.99943 8.07676 6.71671
#
# Compressibility (1/GPa) = 0.01703931
#
# Stress axis : x y z
#
# Youngs Moduli (GPa) = 99.92868 62.16573 68.90203
#
# Poissons Ratio (x) = 0.45013 0.40864
# Poissons Ratio (y) = 0.72356 -0.09563
# Poissons Ratio (z) = 0.59266 -0.08628
#
# Static dielectric constant tensor:
#      x y z
#    x 2.043280 0.000000 -0.255280 
#    y 0.000000 2.012590 0.000000 
#    z -0.255280 0.000000 2.412880 
# 
# From -- ./inp_files/22477.got.cif
#   From: 2010.05.17/outbox.cif.g08.bks.cpg/sg15_12_cif.got.tgz:22477.got - 2010.06.03 18:47:42.
