data_PCOD9306076
_publ_section_title
;
Structure prediction by ZEFSAII (Michael W. Deem and Ramdas Pophale) SiO2 
 PCOD9306076
Probable space group: C 2/C
;
_chemical_formula_sum "Si O2"
_cell_formula_units_Z 48
_cell_length_a 11.011731
_cell_length_b 17.739871
_cell_length_c 11.165381
_cell_angle_alpha 90.000000
_cell_angle_beta 103.069267
_cell_angle_gamma 90.000000
_cell_volume 2124.623511
_symmetry_space_group_name_H-M "C 2/C"
_symmetry_group_IT_number 15
_symmetry_cell_setting 'monoclinic'
loop_
_space_group_symop_operation_xyz
x,y,z
-x,y,1/2-z
-x,-y,-z
x,-y,1/2+z
1/2+x,1/2+y,z
1/2-x,1/2+y,1/2-z
1/2-x,1/2-y,-z
1/2+x,1/2-y,1/2+z
loop_
_atom_site_type_symbol
_atom_site_label
_atom_site_fract_x
_atom_site_fract_y
_atom_site_fract_z
Si Si1 0.328707 0.571745 0.400174
Si Si2 0.769284 0.684226 0.658651
Si Si3 0.157224 0.241449 0.090218
Si Si4 0.539655 0.955863 0.888813
Si Si5 0.949202 0.071600 0.859773
Si Si6 0.589093 0.189173 0.040394
O O1 0.331423 0.657302 0.355784
O O2 0.189080 0.554963 0.414801
O O3 0.431070 0.565659 0.528662
O O4 0.381461 0.508840 0.321395
O O5 0.818203 0.695001 0.804220
O O6 0.661065 0.623546 0.617912
O O7 0.707133 0.765485 0.616181
O O8 0.872544 0.663208 0.584214
O O9 0.021342 0.252070 0.005334
O O10 0.250000 0.250000 0.000000
O O11 0.500000 0.988389 0.750000
O O12 0.465293 0.876599 0.888914
O O13 0.500000 0.000000 0.000000
O O14 0.000000 0.106722 0.750000
#
# Coordination Sequence:
#
# PCOD9306076 Si02
#       6
#     8   8   8   8   8   8
#     4  11  25  46  69 107 142 191 245 305 370 442
#     4  11  25  44  70 104 146 188 245 302 365 439
#     4  12  23  43  73 104 144 188 243 298 373 438
#     4  12  28  48  75 106 149 196 246 307 374 444
#     4  11  25  44  72 101 143 191 244 302 370 442
#     4  11  25  44  69 103 140 187 243 304 365 435
#
# _framework density 22.592237999999998
#
# number of rings (size 3 to 8) (size 9 to 14) (size 15 to 20)
#    0.000    0.667    3.333    3.500    2.333    2.667 
#    3.000    0.000    0.000    0.000    0.000    0.000 
#    0.000    0.000    0.000    0.000    0.000    0.000 
#
# Total GULP energy -134150.655811 kJ/mol
# GULP energy per Si atom -5589.610659 kJ/mol
# Density = 2.254082 g / cm^3
# Si number density = 22.592238 Si / 1000 Ang^3
#
#
#
# Elastic Constant Matrix: (Units=GPa)
#
#
# Indices 1 2 3 4 5 6 
#
# 1 121.8804 16.8226 25.1886 0.0000 -14.9078 0.0000
# 2 16.8226 60.8035 5.2696 0.0000 2.2186 0.0000
# 3 25.1886 5.2696 86.2244 0.0000 -3.1799 0.0000
# 4 0.0000 0.0000 0.0000 29.6150 0.0000 -1.8114
# 5 -14.9078 2.2186 -3.1799 0.0000 31.0289 0.0000
# 6 0.0000 0.0000 0.0000 -1.8114 0.0000 23.4029
#
#
#
# Elastic Compliance Matrix: (Units=1/GPa)
#
#
# Indices 1 2 3 4 5 6 
#
# 1 0.009638 -0.002618 -0.002487 0.000000 0.004563 0.000000
# 2 -0.002618 0.017297 -0.000386 0.000000 -0.002534 0.000000
# 3 -0.002487 -0.000386 0.012351 0.000000 0.000098 0.000000
# 4 0.000000 0.000000 0.000000 0.033927 0.000000 0.002626
# 5 0.004563 -0.002534 0.000098 0.000000 0.034612 0.000000
# 6 0.000000 0.000000 0.000000 0.002626 0.000000 0.042933
#
#
# Mechanical properties :
#
#
# Convention : Reuss Voigt Hill
#
# Bulk Modulus (GPa) = 35.32982 40.38555 37.85768
# Shear Modulus (GPa) = 29.20997 31.58452 30.39725
#
# Velocity S-wave (km/s) = 3.59962 3.74307 3.67205
# Velocity P-wave (km/s) = 5.74007 6.04942 5.89677
#
# Compressibility (1/GPa) = 0.02830470
#
# Stress axis : x y z
#
# Youngs Moduli (GPa) = 103.75364 57.81507 80.96197
#
# Poissons Ratio (x) = 0.15133 0.20138
# Poissons Ratio (y) = 0.27158 0.03124
# Poissons Ratio (z) = 0.25807 0.02231
#
# Static dielectric constant tensor:
#      x y z
#    x 1.787010 0.000000 0.020490 
#    y 0.000000 1.885050 0.000000 
#    z 0.020490 0.000000 1.853940 
# 
# From -- ./inp_files/87467.got.cif
#   From: 2010.05.17/outbox.cif.g08.bks.cpg/sg15_44_cif.got.tgz:87467.got - 2010.06.03 18:47:42.
