data_PCOD9306989
_publ_section_title
;
Structure prediction by ZEFSAII (Michael W. Deem and Ramdas Pophale) SiO2 
 PCOD9306989
Probable space group: C 2/C
;
_chemical_formula_sum "Si O2"
_cell_formula_units_Z 28
_cell_length_a 13.569129
_cell_length_b 5.516691
_cell_length_c 19.680674
_cell_angle_alpha 90.000000
_cell_angle_beta 123.954752
_cell_angle_gamma 90.000000
_cell_volume 1222.013358
_symmetry_space_group_name_H-M "C 2/C"
_symmetry_group_IT_number 15
_symmetry_cell_setting 'monoclinic'
loop_
_space_group_symop_operation_xyz
x,y,z
-x,y,1/2-z
-x,-y,-z
x,-y,1/2+z
1/2+x,1/2+y,z
1/2-x,1/2+y,1/2-z
1/2-x,1/2-y,-z
1/2+x,1/2-y,1/2+z
loop_
_atom_site_type_symbol
_atom_site_label
_atom_site_fract_x
_atom_site_fract_y
_atom_site_fract_z
Si Si1 0.298415 0.720710 0.679597
Si Si2 0.000000 0.412682 0.250000
Si Si3 0.076166 0.063462 0.157454
Si Si4 0.689993 0.499303 0.952769
O O1 0.167772 0.823829 0.639860
O O2 0.352397 0.642094 0.773174
O O3 0.301308 0.506548 0.626180
O O4 0.390476 0.917433 0.686892
O O5 0.042971 0.257928 0.202786
O O6 0.948725 0.987693 0.080122
O O7 0.750000 0.750000 0.000000
O O8 0.750000 0.250000 0.000000
#
# Coordination Sequence:
#
# PCOD9306989 Si02
#       4
#     8   4   8   8
#     4  12  25  43  77 106 137 193 253 309 359 429
#     4  12  20  44  72 106 140 174 250 310 366 412
#     4  12  25  43  77 106 137 193 253 309 359 429
#     4  12  28  48  71 105 158 198 232 296 372 448
#
# _framework density 22.913005999999999
#
# number of rings (size 3 to 8) (size 9 to 14) (size 15 to 20)
#    0.000    0.000    8.571    1.714    0.000    2.286 
#    0.000    0.000    0.000    0.000    0.000    0.000 
#    0.000    0.000    0.000    0.000    0.000    0.000 
#
# Total GULP energy -78400.297094 kJ/mol
# GULP energy per Si atom -5600.021221 kJ/mol
# Density = 2.286086 g / cm^3
# Si number density = 22.913006 Si / 1000 Ang^3
#
#
#
# Elastic Constant Matrix: (Units=GPa)
#
#
# Indices 1 2 3 4 5 6 
#
# 1 177.0230 39.2614 43.5513 0.0000 48.9176 0.0000
# 2 39.2614 109.1599 48.0359 0.0000 29.0066 0.0000
# 3 43.5513 48.0359 89.2116 0.0000 39.5725 0.0000
# 4 0.0000 0.0000 0.0000 56.9176 0.0000 -1.7638
# 5 48.9176 29.0066 39.5725 0.0000 43.5761 0.0000
# 6 0.0000 0.0000 0.0000 -1.7638 0.0000 34.7499
#
#
#
# Elastic Compliance Matrix: (Units=1/GPa)
#
#
# Indices 1 2 3 4 5 6 
#
# 1 0.008232 -0.000717 0.000427 0.000000 -0.009151 0.000000
# 2 -0.000717 0.012405 -0.005063 0.000000 -0.002855 0.000000
# 3 0.000427 -0.005063 0.020839 0.000000 -0.016033 0.000000
# 4 0.000000 0.000000 0.000000 0.017597 0.000000 0.000893
# 5 -0.009151 -0.002855 -0.016033 0.000000 0.049682 0.000000
# 6 0.000000 0.000000 0.000000 0.000893 0.000000 0.028822
#
#
# Mechanical properties :
#
#
# Convention : Reuss Voigt Hill
#
# Bulk Modulus (GPa) = 32.49964 70.78798 51.64381
# Shear Modulus (GPa) = 31.53749 43.35176 37.44462
#
# Velocity S-wave (km/s) = 3.71401 4.35445 4.04692
# Velocity P-wave (km/s) = 5.71022 7.49953 6.66519
#
# Compressibility (1/GPa) = 0.03076957
#
# Stress axis : x y z
#
# Youngs Moduli (GPa) = 121.48057 80.60964 47.98590
#
# Poissons Ratio (x) = 0.05778 -0.02047
# Poissons Ratio (y) = 0.08707 0.24297
# Poissons Ratio (z) = -0.05182 0.40816
#
# Static dielectric constant tensor:
#      x y z
#    x 1.806680 0.000000 -0.017230 
#    y 0.000000 1.885430 0.000000 
#    z -0.017230 0.000000 1.974430 
# 
# From -- ./inp_files/183565.got.cif
#   From: 2010.05.17/outbox.cif.g08.bks.cpg/sg15_92_cif.got.tgz:183565.got - 2010.06.03 18:47:42.
