data_PCOD9306533
_publ_section_title
;
Structure prediction by ZEFSAII (Michael W. Deem and Ramdas Pophale) SiO2 
 PCOD9306533
Probable space group: C 2/C
;
_chemical_formula_sum "Si O2"
_cell_formula_units_Z 40
_cell_length_a 16.642166
_cell_length_b 9.561906
_cell_length_c 10.084572
_cell_angle_alpha 90.000000
_cell_angle_beta 85.774830
_cell_angle_gamma 90.000000
_cell_volume 1600.404860
_symmetry_space_group_name_H-M "C 2/C"
_symmetry_group_IT_number 15
_symmetry_cell_setting 'monoclinic'
loop_
_space_group_symop_operation_xyz
x,y,z
-x,y,1/2-z
-x,-y,-z
x,-y,1/2+z
1/2+x,1/2+y,z
1/2-x,1/2+y,1/2-z
1/2-x,1/2-y,-z
1/2+x,1/2-y,1/2+z
loop_
_atom_site_type_symbol
_atom_site_label
_atom_site_fract_x
_atom_site_fract_y
_atom_site_fract_z
Si Si1 0.410527 0.910488 0.357385
Si Si2 0.086760 0.734264 0.187531
Si Si3 0.765394 0.591405 0.039414
Si Si4 0.577044 0.260737 0.879127
Si Si5 0.329550 0.485903 0.198752
O O1 0.359450 0.925978 0.497327
O O2 0.372586 0.824336 0.238685
O O3 0.490648 0.820482 0.383438
O O4 0.416143 0.066928 0.301938
O O5 0.149066 0.827596 0.262738
O O6 0.000000 0.783584 0.250000
O O7 0.100291 0.760072 0.029581
O O8 0.717893 0.505190 0.932750
O O9 0.750000 0.750000 0.000000
O O10 0.727753 0.550066 0.182204
O O11 0.589797 0.419631 0.827798
#
# Coordination Sequence:
#
# PCOD9306533 Si02
#       5
#     8   8   8   8   8
#     4  11  27  46  79 107 159 198 262 324 395 469
#     4  12  28  44  78 114 148 205 263 329 391 459
#     4  12  29  49  79 116 161 209 255 331 400 467
#     4  11  25  52  73 116 148 207 266 325 379 485
#     4  12  29  50  80 118 157 210 266 328 393 477
#
# _framework density 24.993675
#
# number of rings (size 3 to 8) (size 9 to 14) (size 15 to 20)
#    0.000    0.400    6.000    0.600   11.200    1.600 
#    0.000    0.000    0.000    0.000    0.000    0.000 
#    0.000    0.000    0.000    0.000    0.000    0.000 
#
# Total GULP energy -111830.412999 kJ/mol
# GULP energy per Si atom -5591.520650 kJ/mol
# Density = 2.493679 g / cm^3
# Si number density = 24.993675 Si / 1000 Ang^3
#
#
#
# Elastic Constant Matrix: (Units=GPa)
#
#
# Indices 1 2 3 4 5 6 
#
# 1 95.5447 41.6221 22.8121 0.0000 -14.5917 0.0000
# 2 41.6221 134.1303 39.4605 0.0000 -9.0266 0.0000
# 3 22.8121 39.4605 131.9853 0.0000 9.4384 0.0000
# 4 0.0000 0.0000 0.0000 30.1272 0.0000 0.6962
# 5 -14.5917 -9.0266 9.4384 0.0000 32.9792 0.0000
# 6 0.0000 0.0000 0.0000 0.6962 0.0000 36.5969
#
#
#
# Elastic Compliance Matrix: (Units=1/GPa)
#
#
# Indices 1 2 3 4 5 6 
#
# 1 0.013089 -0.003201 -0.001691 0.000000 0.005399 0.000000
# 2 -0.003201 0.009258 -0.002343 0.000000 0.001788 0.000000
# 3 -0.001691 -0.002343 0.008850 0.000000 -0.003922 0.000000
# 4 0.000000 0.000000 0.000000 0.033207 0.000000 -0.000632
# 5 0.005399 0.001788 -0.003922 0.000000 0.034323 0.000000
# 6 0.000000 0.000000 0.000000 -0.000632 0.000000 0.027337
#
#
# Mechanical properties :
#
#
# Convention : Reuss Voigt Hill
#
# Bulk Modulus (GPa) = 59.78199 63.27219 61.52709
# Shear Modulus (GPa) = 34.22087 37.12503 35.67295
#
# Velocity S-wave (km/s) = 3.70426 3.85824 3.78203
# Velocity P-wave (km/s) = 6.50124 6.72445 6.61379
#
# Compressibility (1/GPa) = 0.01672745
#
# Stress axis : x y z
#
# Youngs Moduli (GPa) = 76.39959 108.01238 112.99632
#
# Poissons Ratio (x) = 0.34572 0.19113
# Poissons Ratio (y) = 0.24453 0.26471
# Poissons Ratio (z) = 0.12923 0.25304
#
# Static dielectric constant tensor:
#      x y z
#    x 2.095020 0.000000 0.014420 
#    y 0.000000 1.970960 0.000000 
#    z 0.014420 0.000000 1.957280 
# 
# From -- ./inp_files/102722.got.cif
#   From: 2010.05.17/outbox.cif.g08.bks.cpg/sg15_52_cif.got.tgz:102722.got - 2010.06.03 18:47:42.
