data_PCOD9306824
_publ_section_title
;
Structure prediction by ZEFSAII (Michael W. Deem and Ramdas Pophale) SiO2 
 PCOD9306824
Probable space group: C 2/C
;
_chemical_formula_sum "Si O2"
_cell_formula_units_Z 36
_cell_length_a 22.653138
_cell_length_b 5.276183
_cell_length_c 14.207089
_cell_angle_alpha 90.000000
_cell_angle_beta 55.374539
_cell_angle_gamma 90.000000
_cell_volume 1397.307254
_symmetry_space_group_name_H-M "C 2/C"
_symmetry_group_IT_number 15
_symmetry_cell_setting 'monoclinic'
loop_
_space_group_symop_operation_xyz
x,y,z
-x,y,1/2-z
-x,-y,-z
x,-y,1/2+z
1/2+x,1/2+y,z
1/2-x,1/2+y,1/2-z
1/2-x,1/2-y,-z
1/2+x,1/2-y,1/2+z
loop_
_atom_site_type_symbol
_atom_site_label
_atom_site_fract_x
_atom_site_fract_y
_atom_site_fract_z
Si Si1 0.752813 0.057906 0.584496
Si Si2 0.000000 0.827930 0.250000
Si Si3 0.567746 0.463721 0.870647
Si Si4 0.344197 0.965432 0.665024
Si Si5 0.642764 0.154179 0.046767
O O1 0.750000 0.250000 0.500000
O O2 0.725351 0.072063 0.716189
O O3 0.687885 0.880759 0.601162
O O4 0.829580 0.925632 0.513493
O O5 0.958570 0.998879 0.212231
O O6 0.940846 0.658215 0.356532
O O7 0.598597 0.185177 0.861092
O O8 0.623946 0.692094 0.837672
O O9 0.500000 0.500000 0.000000
O O10 0.334880 0.974774 0.560326
#
# Coordination Sequence:
#
# PCOD9306824 Si02
#       5
#     8   4   8   8   8
#     4  11  27  49  74 112 153 202 253 310 381 455
#     4  12  24  52  76 108 154 198 250 316 378 452
#     4  12  27  47  76 114 153 193 254 308 382 448
#     4  12  28  48  79 113 149 200 256 312 376 457
#     4  11  27  47  77 109 153 198 250 313 379 445
#
# _framework density 25.763836999999999
#
# number of rings (size 3 to 8) (size 9 to 14) (size 15 to 20)
#    0.000    0.444    4.444    2.000    9.333    2.667 
#    0.000    0.000    0.000    0.000    0.000    0.000 
#    0.000    0.000    0.000    0.000    0.000    0.000 
#
# Total GULP energy -100755.807591 kJ/mol
# GULP energy per Si atom -5597.544866 kJ/mol
# Density = 2.570520 g / cm^3
# Si number density = 25.763837 Si / 1000 Ang^3
#
#
#
# Elastic Constant Matrix: (Units=GPa)
#
#
# Indices 1 2 3 4 5 6 
#
# 1 94.9612 12.5058 35.4930 -0.0004 21.8244 -0.0018
# 2 12.5058 71.3277 -6.5617 0.0002 2.8668 -0.0065
# 3 35.4930 -6.5617 167.2925 0.0006 -17.8868 -0.0019
# 4 -0.0004 0.0002 0.0006 36.6883 0.0000 7.9852
# 5 21.8244 2.8668 -17.8868 0.0000 69.2067 0.0001
# 6 -0.0018 -0.0065 -0.0019 7.9852 0.0001 40.4457
#
#
#
# Elastic Compliance Matrix: (Units=1/GPa)
#
#
# Indices 1 2 3 4 5 6 
#
# 1 0.013285 -0.002446 -0.003447 0.000000 -0.004979 0.000000
# 2 -0.002446 0.014535 0.001139 -0.000001 0.000464 0.000002
# 3 -0.003447 0.001139 0.007060 0.000000 0.002864 0.000000
# 4 0.000000 -0.000001 0.000000 0.028480 0.000000 -0.005623
# 5 -0.004979 0.000464 0.002864 0.000000 0.016741 0.000000
# 6 0.000000 0.000002 0.000000 -0.005623 0.000000 0.025835
#
#
# Mechanical properties :
#
#
# Convention : Reuss Voigt Hill
#
# Bulk Modulus (GPa) = 39.41527 46.27286 42.84406
# Shear Modulus (GPa) = 40.35441 48.74440 44.54940
#
# Velocity S-wave (km/s) = 3.96197 4.35440 4.16281
# Velocity P-wave (km/s) = 6.02175 6.57878 6.30642
#
# Compressibility (1/GPa) = 0.02537088
#
# Stress axis : x y z
#
# Youngs Moduli (GPa) = 75.27021 68.80030 141.64702
#
# Poissons Ratio (x) = 0.16831 0.48825
# Poissons Ratio (y) = 0.18413 -0.16129
# Poissons Ratio (z) = 0.25946 -0.07834
#
# Static dielectric constant tensor:
#      x y z
#    x 2.384280 -0.000010 0.361560 
#    y -0.000010 2.200830 -0.000010 
#    z 0.361560 -0.000010 2.382370 
# 
# From -- ./inp_files/175284.got.cif
#   From: 2010.05.17/outbox.cif.g08.bks.cpg/sg15_88_cif.got.tgz:175284.got - 2010.06.03 18:47:42.
