data_PCOD9306137
_publ_section_title
;
Structure prediction by ZEFSAII (Michael W. Deem and Ramdas Pophale) SiO2 
 PCOD9306137
Probable space group: C 2/C
;
_chemical_formula_sum "Si O2"
_cell_formula_units_Z 64
_cell_length_a 29.004068
_cell_length_b 18.561516
_cell_length_c 9.283405
_cell_angle_alpha 90.000000
_cell_angle_beta 142.508694
_cell_angle_gamma 90.000000
_cell_volume 3041.871675
_symmetry_space_group_name_H-M "C 2/C"
_symmetry_group_IT_number 15
_symmetry_cell_setting 'monoclinic'
loop_
_space_group_symop_operation_xyz
x,y,z
-x,y,1/2-z
-x,-y,-z
x,-y,1/2+z
1/2+x,1/2+y,z
1/2-x,1/2+y,1/2-z
1/2-x,1/2-y,-z
1/2+x,1/2-y,1/2+z
loop_
_atom_site_type_symbol
_atom_site_label
_atom_site_fract_x
_atom_site_fract_y
_atom_site_fract_z
Si Si1 0.079351 0.444731 0.888638
Si Si2 0.301924 0.844613 0.471227
Si Si3 0.624586 0.937168 0.313059
Si Si4 0.328683 0.588037 0.680160
Si Si5 0.298118 0.683382 0.057841
Si Si6 0.701632 0.447736 0.718424
Si Si7 0.903724 0.236383 0.872549
Si Si8 0.074199 0.724152 0.746094
O O1 0.127277 0.392442 0.905563
O O2 0.067310 0.517498 0.769197
O O3 0.000000 0.414385 0.750000
O O4 0.124665 0.460287 0.147146
O O5 0.253168 0.878158 0.479709
O O6 0.337024 0.769111 0.609272
O O7 0.245126 0.840003 0.195034
O O8 0.707742 0.955192 0.578073
O O9 0.601584 0.853798 0.260876
O O10 0.333535 0.518008 0.793409
O O11 0.331759 0.566429 0.521175
O O12 0.389587 0.651400 0.855581
O O13 0.304237 0.619564 0.187434
O O14 0.379645 0.714717 0.221866
O O15 0.250000 0.750000 0.000000
O O16 0.902108 0.270749 0.027503
O O17 0.985278 0.259535 0.013611
#
# Coordination Sequence:
#
# PCOD9306137 Si02
#       8
#     8   8   8   8   8   8   8   8
#     4  12  26  40  61  96 144 178 222 271 344 413
#     4  12  23  42  68 100 134 182 233 285 339 413
#     4  12  24  42  63 100 137 185 219 279 344 418
#     4  12  25  44  70 105 134 176 235 284 353 411
#     4  12  23  43  70 101 136 181 232 292 342 408
#     4  12  24  43  73 104 134 177 230 293 344 409
#     4  11  26  43  71 101 137 185 228 292 342 415
#     4  11  25  45  69  98 142 179 236 284 356 410
#
# _framework density 21.039677000000001
#
# number of rings (size 3 to 8) (size 9 to 14) (size 15 to 20)
#    0.000    0.250    5.000    4.500    3.500    0.000 
#    0.000    3.750    0.000    0.000    0.000    0.000 
#    0.000    0.000    0.000    0.000    0.000    0.000 
#
# Total GULP energy -179055.330762 kJ/mol
# GULP energy per Si atom -5595.479086 kJ/mol
# Density = 2.099179 g / cm^3
# Si number density = 21.039677 Si / 1000 Ang^3
#
#
#
# Elastic Constant Matrix: (Units=GPa)
#
#
# Indices 1 2 3 4 5 6 
#
# 1 91.6274 41.7422 20.1989 0.0000 -7.9146 0.0000
# 2 41.7422 113.3768 22.1757 0.0000 -7.3494 0.0000
# 3 20.1989 22.1757 55.5059 0.0000 -21.6770 0.0000
# 4 0.0000 0.0000 0.0000 14.6585 0.0000 -8.1351
# 5 -7.9146 -7.3494 -21.6770 0.0000 25.6230 0.0000
# 6 0.0000 0.0000 0.0000 -8.1351 0.0000 40.2188
#
#
#
# Elastic Compliance Matrix: (Units=1/GPa)
#
#
# Indices 1 2 3 4 5 6 
#
# 1 0.013621 -0.004393 -0.003063 0.000000 0.000356 0.000000
# 2 -0.004393 0.010994 -0.003124 0.000000 -0.000847 0.000000
# 3 -0.003063 -0.003124 0.029360 0.000000 0.022996 0.000000
# 4 0.000000 0.000000 0.000000 0.076846 0.000000 0.015544
# 5 0.000356 -0.000847 0.022996 0.000000 0.058349 0.000000
# 6 0.000000 0.000000 0.000000 0.015544 0.000000 0.028008
#
#
# Mechanical properties :
#
#
# Convention : Reuss Voigt Hill
#
# Bulk Modulus (GPa) = 30.47392 47.63820 39.05606
# Shear Modulus (GPa) = 20.05817 27.85960 23.95889
#
# Velocity S-wave (km/s) = 3.09099 3.64283 3.37819
# Velocity P-wave (km/s) = 5.22057 6.35491 5.81546
#
# Compressibility (1/GPa) = 0.03281494
#
# Stress axis : x y z
#
# Youngs Moduli (GPa) = 73.41691 90.96177 34.06044
#
# Poissons Ratio (x) = 0.39957 0.10431
# Poissons Ratio (y) = 0.32250 0.10642
# Poissons Ratio (z) = 0.22484 0.28419
#
# Static dielectric constant tensor:
#      x y z
#    x 1.766450 0.000000 0.007770 
#    y 0.000000 1.760550 0.000000 
#    z 0.007770 0.000000 1.761380 
# 
# From -- ./inp_files/70618.got.cif
#   From: 2010.05.17/outbox.cif.g08.bks.cpg/sg15_36_cif.got.tgz:70618.got - 2010.06.03 18:47:42.
