data_PCOD9306917
_publ_section_title
;
Structure prediction by ZEFSAII (Michael W. Deem and Ramdas Pophale) SiO2 
 PCOD9306917
Probable space group: C 2/C
;
_chemical_formula_sum "Si O2"
_cell_formula_units_Z 52
_cell_length_a 12.846800
_cell_length_b 27.334603
_cell_length_c 8.661168
_cell_angle_alpha 90.000000
_cell_angle_beta 138.988837
_cell_angle_gamma 90.000000
_cell_volume 1995.834067
_symmetry_space_group_name_H-M "C 2/C"
_symmetry_group_IT_number 15
_symmetry_cell_setting 'monoclinic'
loop_
_space_group_symop_operation_xyz
x,y,z
-x,y,1/2-z
-x,-y,-z
x,-y,1/2+z
1/2+x,1/2+y,z
1/2-x,1/2+y,1/2-z
1/2-x,1/2-y,-z
1/2+x,1/2-y,1/2+z
loop_
_atom_site_type_symbol
_atom_site_label
_atom_site_fract_x
_atom_site_fract_y
_atom_site_fract_z
Si Si1 0.558577 0.356480 0.482382
Si Si2 0.189494 0.252310 0.110752
Si Si3 0.000000 0.332162 0.750000
Si Si4 0.321835 0.481212 0.127275
Si Si5 0.199404 0.430449 0.315565
Si Si6 0.147537 0.587136 0.202345
Si Si7 0.663325 0.328197 0.026862
O O1 0.500000 0.370762 0.250000
O O2 0.623581 0.301112 0.565061
O O3 0.690938 0.392325 0.692137
O O4 0.392055 0.353502 0.378210
O O5 0.288169 0.273647 0.365225
O O6 0.250000 0.250000 0.000000
O O7 0.063704 0.295751 0.952086
O O8 0.888725 0.367510 0.721684
O O9 0.500000 0.477951 0.250000
O O10 0.290252 0.456405 0.263307
O O11 0.262197 0.536696 0.028820
O O12 0.202140 0.454478 0.878449
O O13 0.222659 0.372669 0.392532
O O14 0.012280 0.429434 0.062270
O O15 0.500000 0.325936 0.750000
#
# Coordination Sequence:
#
# PCOD9306917 Si02
#       7
#     8   8   4   8   8   8   8
#     4  12  24  42  74 111 141 195 253 295 360 450
#     4  12  21  40  75 109 143 191 251 293 353 437
#     4  12  18  38  66 104 140 182 234 298 350 424
#     4  12  25  44  72 101 137 188 251 306 370 438
#     4  12  26  48  71 102 144 194 241 310 375 439
#     4  12  23  40  70 104 147 182 242 308 369 432
#     4  12  27  48  71 106 156 195 241 309 378 430
#
# _framework density 26.054271
#
# number of rings (size 3 to 8) (size 9 to 14) (size 15 to 20)
#    0.000    0.000    6.923    3.692    0.000    1.846 
#    0.000    2.308    0.000    0.000    0.000    0.000 
#    0.000    0.000    0.000    0.000    0.000    0.000 
#
# Total GULP energy -144983.436689 kJ/mol
# GULP energy per Si atom -5576.286027 kJ/mol
# Density = 2.599497 g / cm^3
# Si number density = 26.054271 Si / 1000 Ang^3
#
#
#
# Elastic Constant Matrix: (Units=GPa)
#
#
# Indices 1 2 3 4 5 6 
#
# 1 34.5553 10.2559 13.5286 0.0000 -0.7156 0.0000
# 2 10.2559 184.0221 71.9599 0.0000 -3.5123 0.0000
# 3 13.5286 71.9599 146.7970 0.0000 0.4669 0.0000
# 4 0.0000 0.0000 0.0000 77.0526 0.0000 -15.0283
# 5 -0.7156 -3.5123 0.4669 0.0000 30.5834 0.0000
# 6 0.0000 0.0000 0.0000 -15.0283 0.0000 50.5934
#
#
#
# Elastic Compliance Matrix: (Units=1/GPa)
#
#
# Indices 1 2 3 4 5 6 
#
# 1 0.030115 -0.000717 -0.002426 0.000000 0.000659 0.000000
# 2 -0.000717 0.006761 -0.003251 0.000000 0.000809 0.000000
# 3 -0.002426 -0.003251 0.008631 0.000000 -0.000562 0.000000
# 4 0.000000 0.000000 0.000000 0.013776 0.000000 0.004092
# 5 0.000659 0.000809 -0.000562 0.000000 0.032814 0.000000
# 6 0.000000 0.000000 0.000000 0.004092 0.000000 0.020981
#
#
# Mechanical properties :
#
#
# Convention : Reuss Voigt Hill
#
# Bulk Modulus (GPa) = 30.56269 61.87369 46.21819
# Shear Modulus (GPa) = 36.55710 49.62123 43.08916
#
# Velocity S-wave (km/s) = 3.74988 4.36883 4.07113
# Velocity P-wave (km/s) = 5.52310 7.01772 6.31479
#
# Compressibility (1/GPa) = 0.03271963
#
# Stress axis : x y z
#
# Youngs Moduli (GPa) = 33.20563 147.91506 115.86275
#
# Poissons Ratio (x) = 0.10608 0.28107
# Poissons Ratio (y) = 0.02381 0.37662
# Poissons Ratio (z) = 0.08055 0.48080
#
# Static dielectric constant tensor:
#      x y z
#    x 2.041150 0.000000 0.126560 
#    y 0.000000 2.663040 0.000000 
#    z 0.126560 0.000000 2.087220 
# 
# From -- ./inp_files/108355.got.cif
#   From: 2010.05.17/outbox.cif.g08.bks.cpg/sg15_55_cif.got.tgz:108355.got - 2010.06.03 18:47:42.
