data_PCOD9306197
_publ_section_title
;
Structure prediction by ZEFSAII (Michael W. Deem and Ramdas Pophale) SiO2 
 PCOD9306197
Probable space group: C 2/C
;
_chemical_formula_sum "Si O2"
_cell_formula_units_Z 60
_cell_length_a 11.436934
_cell_length_b 19.966349
_cell_length_c 18.073873
_cell_angle_alpha 90.000000
_cell_angle_beta 139.094217
_cell_angle_gamma 90.000000
_cell_volume 2702.585932
_symmetry_space_group_name_H-M "C 2/C"
_symmetry_group_IT_number 15
_symmetry_cell_setting 'monoclinic'
loop_
_space_group_symop_operation_xyz
x,y,z
-x,y,1/2-z
-x,-y,-z
x,-y,1/2+z
1/2+x,1/2+y,z
1/2-x,1/2+y,1/2-z
1/2-x,1/2-y,-z
1/2+x,1/2-y,1/2+z
loop_
_atom_site_type_symbol
_atom_site_label
_atom_site_fract_x
_atom_site_fract_y
_atom_site_fract_z
Si Si1 0.138236 0.364427 0.065559
Si Si2 0.112749 0.810602 0.431817
Si Si3 0.798438 0.723838 0.766694
Si Si4 0.156609 0.091808 0.089597
Si Si5 0.718291 0.543246 0.528797
Si Si6 0.000000 0.631244 0.750000
Si Si7 0.203447 0.000690 0.352192
Si Si8 0.791291 0.629651 0.299440
O O1 0.316187 0.353773 0.102507
O O2 0.119090 0.307816 0.119079
O O3 0.163367 0.440413 0.107088
O O4 0.974777 0.358497 0.930654
O O5 0.250000 0.750000 0.500000
O O6 0.126076 0.851847 0.513821
O O7 0.912846 0.786207 0.324839
O O8 0.823972 0.801879 0.759073
O O9 0.869726 0.677997 0.735028
O O10 0.306945 0.110505 0.220978
O O11 0.206290 0.024506 0.070559
O O12 0.971100 0.079900 0.045536
O O13 0.740367 0.524315 0.453680
O O14 0.880124 0.586936 0.637759
O O15 0.213385 0.065246 0.304146
O O16 0.000000 0.976711 0.250000
#
# Coordination Sequence:
#
# PCOD9306197 Si02
#       8
#     8   8   8   8   8   4   8   8
#     4  12  27  47  77 110 148 197 257 318 381 453
#     4  12  23  48  74 106 150 196 249 308 381 449
#     4  12  28  49  73 112 152 203 251 315 381 461
#     4  11  25  45  75 105 152 194 251 318 379 443
#     4  11  25  46  73 112 145 199 256 314 381 458
#     4  12  28  46  80 108 156 202 256 318 380 460
#     4  12  25  47  75 108 149 204 249 320 386 448
#     4  12  28  47  74 109 153 199 254 312 379 461
#
# _framework density 22.200959999999998
#
# number of rings (size 3 to 8) (size 9 to 14) (size 15 to 20)
#    0.000    0.267    5.333    3.200    4.667    0.533 
#    0.000    2.000    0.000    0.000    0.000    0.000 
#    0.000    0.000    0.000    0.000    0.000    0.000 
#
# Total GULP energy -167956.562337 kJ/mol
# GULP energy per Si atom -5598.552078 kJ/mol
# Density = 2.215043 g / cm^3
# Si number density = 22.200960 Si / 1000 Ang^3
#
#
#
# Elastic Constant Matrix: (Units=GPa)
#
#
# Indices 1 2 3 4 5 6 
#
# 1 27.0923 11.8655 -2.4640 -0.0002 -1.1638 0.0003
# 2 11.8655 144.0700 46.2207 -0.0002 -9.4297 0.0002
# 3 -2.4640 46.2207 109.0529 -0.0003 -15.1604 0.0005
# 4 -0.0002 -0.0002 -0.0003 99.3532 0.0001 -52.4557
# 5 -1.1638 -9.4297 -15.1604 0.0001 32.7562 0.0000
# 6 0.0003 0.0002 0.0005 -52.4557 0.0000 51.2696
#
#
#
# Elastic Compliance Matrix: (Units=1/GPa)
#
#
# Indices 1 2 3 4 5 6 
#
# 1 0.038985 -0.004006 0.002791 0.000000 0.001523 0.000000
# 2 -0.004006 0.008464 -0.003590 0.000000 0.000633 0.000000
# 3 0.002791 -0.003590 0.011355 0.000000 0.004321 0.000000
# 4 0.000000 0.000000 0.000000 0.021890 0.000000 0.022396
# 5 0.001523 0.000633 0.004321 0.000000 0.032765 0.000000
# 6 0.000000 0.000000 0.000000 0.022396 0.000000 0.042419
#
#
# Mechanical properties :
#
#
# Convention : Reuss Voigt Hill
#
# Bulk Modulus (GPa) = 20.32819 43.49553 31.91186
# Shear Modulus (GPa) = 27.48971 51.64868 39.56919
#
# Velocity S-wave (km/s) = 3.52265 4.82853 4.22633
# Velocity P-wave (km/s) = 5.07167 7.12183 6.18232
#
# Compressibility (1/GPa) = 0.04919276
#
# Stress axis : x y z
#
# Youngs Moduli (GPa) = 25.65103 118.14481 88.06538
#
# Poissons Ratio (x) = 0.47333 -0.24576
# Poissons Ratio (y) = 0.10277 0.31615
# Poissons Ratio (z) = -0.07158 0.42414
#
# Static dielectric constant tensor:
#      x y z
#    x 2.000460 0.000000 -0.045470 
#    y 0.000000 1.911000 0.000000 
#    z -0.045470 0.000000 1.809760 
# 
# From -- ./inp_files/200554.got.cif
#   From: 2010.05.17/outbox.cif.g08.bks.cpg/sg15_101_cif.got.tgz:200554.got - 2010.06.03 18:47:42.
