data_PCOD9306741
_publ_section_title
;
Structure prediction by ZEFSAII (Michael W. Deem and Ramdas Pophale) SiO2 
 PCOD9306741
Probable space group: C 2/C
;
_chemical_formula_sum "Si O2"
_cell_formula_units_Z 56
_cell_length_a 31.142657
_cell_length_b 10.094759
_cell_length_c 25.260151
_cell_angle_alpha 90.000000
_cell_angle_beta 163.916592
_cell_angle_gamma 90.000000
_cell_volume 2200.008799
_symmetry_space_group_name_H-M "C 2/C"
_symmetry_group_IT_number 15
_symmetry_cell_setting 'monoclinic'
loop_
_space_group_symop_operation_xyz
x,y,z
-x,y,1/2-z
-x,-y,-z
x,-y,1/2+z
1/2+x,1/2+y,z
1/2-x,1/2+y,1/2-z
1/2-x,1/2-y,-z
1/2+x,1/2-y,1/2+z
loop_
_atom_site_type_symbol
_atom_site_label
_atom_site_fract_x
_atom_site_fract_y
_atom_site_fract_z
Si Si1 0.847488 0.865804 0.847120
Si Si2 0.783640 0.882774 0.071931
Si Si3 0.408273 0.130877 0.373329
Si Si4 0.000000 0.417409 0.250000
Si Si5 0.394175 0.519867 0.293523
Si Si6 0.000000 0.989073 0.750000
Si Si7 0.470028 0.755218 0.105990
Si Si8 0.718272 0.077346 0.846927
O O1 0.705577 0.824857 0.715016
O O2 0.805084 0.925709 0.739353
O O3 0.693665 0.675670 0.589848
O O4 0.938422 0.983085 0.985307
O O5 0.820582 0.891921 0.178306
O O6 0.940961 0.929154 0.229875
O O7 0.750000 0.750000 0.000000
O O8 0.640092 0.984900 0.899368
O O9 0.308474 0.070638 0.206513
O O10 0.500000 0.000000 0.500000
O O11 0.529418 0.247497 0.508821
O O12 0.026270 0.323636 0.331953
O O13 0.412597 0.634000 0.270939
O O14 0.841534 0.922055 0.541395
O O15 0.551539 0.865978 0.166070
#
# Coordination Sequence:
#
# PCOD9306741 Si02
#       8
#     8   8   8   4   8   4   8   8
#     4  11  28  54  77 118 161 217 280 345 422 505
#     4  12  27  50  75 115 159 213 264 340 412 508
#     4  12  29  52  84 117 163 216 284 352 428 499
#     4  12  28  46  78 122 154 214 280 324 420 486
#     4  11  26  49  83 110 163 212 272 344 422 490
#     4  12  24  50  70 108 168 196 278 320 426 492
#     4  12  25  48  80 115 166 203 284 337 412 498
#     4  12  27  48  79 120 158 219 270 357 416 500
#
# _framework density 25.454445
#
# number of rings (size 3 to 8) (size 9 to 14) (size 15 to 20)
#    0.000    0.286    4.286    2.571    6.000    7.429 
#    2.571    0.000    0.000    0.000    0.000    0.000 
#    0.000    0.000    0.000    0.000    0.000    0.000 
#
# Total GULP energy -156493.721033 kJ/mol
# GULP energy per Si atom -5589.061465 kJ/mol
# Density = 2.539651 g / cm^3
# Si number density = 25.454445 Si / 1000 Ang^3
#
#
#
# Elastic Constant Matrix: (Units=GPa)
#
#
# Indices 1 2 3 4 5 6 
#
# 1 169.2173 103.3580 66.8463 0.0016 27.6702 0.0009
# 2 103.3580 121.7266 43.0669 0.0019 -6.1937 0.0015
# 3 66.8463 43.0669 118.3804 0.0034 5.3362 0.0026
# 4 0.0016 0.0019 0.0034 38.0439 0.0025 4.7196
# 5 27.6702 -6.1937 5.3362 0.0025 62.6397 0.0016
# 6 0.0009 0.0015 0.0026 4.7196 0.0016 40.6028
#
#
#
# Elastic Compliance Matrix: (Units=1/GPa)
#
#
# Indices 1 2 3 4 5 6 
#
# 1 0.017455 -0.013674 -0.004490 0.000001 -0.008680 0.000001
# 2 -0.013674 0.020236 -0.000003 -0.000001 0.008041 -0.000001
# 3 -0.004490 -0.000003 0.010937 -0.000001 0.001052 -0.000001
# 4 0.000001 -0.000001 -0.000001 0.026670 -0.000001 -0.003100
# 5 -0.008680 0.008041 0.001052 -0.000001 0.020504 -0.000001
# 6 0.000001 -0.000001 -0.000001 -0.003100 -0.000001 0.024989
#
#
# Mechanical properties :
#
#
# Convention : Reuss Voigt Hill
#
# Bulk Modulus (GPa) = 81.34926 92.87408 87.11167
# Shear Modulus (GPa) = 31.01313 41.32749 36.17031
#
# Velocity S-wave (km/s) = 3.49431 4.03375 3.77368
# Velocity P-wave (km/s) = 6.95043 7.63285 7.29962
#
# Compressibility (1/GPa) = 0.01229267
#
# Stress axis : x y z
#
# Youngs Moduli (GPa) = 57.29150 49.41767 91.43546
#
# Poissons Ratio (x) = 0.67572 0.41058
# Poissons Ratio (y) = 0.78338 0.00028
# Poissons Ratio (z) = 0.25726 0.00015
#
# Static dielectric constant tensor:
#      x y z
#    x 2.064540 0.000000 -0.135290 
#    y 0.000000 2.068270 0.000000 
#    z -0.135290 0.000000 2.138990 
# 
# From -- ./inp_files/284792.got.cif
#   From: 2010.05.17/outbox.cif.g08.bks.cpg/sg15_143_cif.got.tgz:284792.got - 2010.06.03 18:47:42.
