data_PCOD9306213
_publ_section_title
;
Structure prediction by ZEFSAII (Michael W. Deem and Ramdas Pophale) SiO2 
 PCOD9306213
Probable space group: C 2/C
;
_chemical_formula_sum "Si O2"
_cell_formula_units_Z 32
_cell_length_a 7.947062
_cell_length_b 15.837834
_cell_length_c 11.632205
_cell_angle_alpha 90.000000
_cell_angle_beta 49.782387
_cell_angle_gamma 90.000000
_cell_volume 1117.966979
_symmetry_space_group_name_H-M "C 2/C"
_symmetry_group_IT_number 15
_symmetry_cell_setting 'monoclinic'
loop_
_space_group_symop_operation_xyz
x,y,z
-x,y,1/2-z
-x,-y,-z
x,-y,1/2+z
1/2+x,1/2+y,z
1/2-x,1/2+y,1/2-z
1/2-x,1/2-y,-z
1/2+x,1/2-y,1/2+z
loop_
_atom_site_type_symbol
_atom_site_label
_atom_site_fract_x
_atom_site_fract_y
_atom_site_fract_z
Si Si1 0.944098 0.195653 0.656397
Si Si2 0.485388 0.254352 0.611870
Si Si3 0.765897 0.034095 0.009549
Si Si4 0.249075 0.568504 0.280462
O O1 0.678888 0.184997 0.763414
O O2 0.539278 0.250623 0.012345
O O3 0.000000 0.239789 0.750000
O O4 0.070179 0.108532 0.597138
O O5 0.750000 0.250000 0.500000
O O6 0.630999 0.340918 0.792988
O O7 0.296216 0.479535 0.635465
O O8 0.795632 0.965253 0.892060
O O9 0.516010 0.066529 0.105165
#
# Coordination Sequence:
#
# PCOD9306213 Si02
#       4
#     8   8   8   8
#     4  11  25  45  77 111 153 208 273 329 404 494
#     4  11  25  46  75 115 160 210 268 339 410 485
#     4   9  20  43  76 119 153 209 270 338 409 485
#     4   9  20  42  80 113 161 206 270 338 409 490
#
# _framework density 28.623386
#
# number of rings (size 3 to 8) (size 9 to 14) (size 15 to 20)
#    0.000    2.000    0.000    1.500   10.500    0.000 
#    0.000   16.250   11.000    0.000    0.000    0.000 
#    0.000    0.000    0.000    0.000    0.000    0.000 
#
# Total GULP energy -89431.508260 kJ/mol
# GULP energy per Si atom -5589.469266 kJ/mol
# Density = 2.855824 g / cm^3
# Si number density = 28.623386 Si / 1000 Ang^3
#
#
#
# Elastic Constant Matrix: (Units=GPa)
#
#
# Indices 1 2 3 4 5 6 
#
# 1 189.2044 49.1756 84.8316 0.0000 53.3513 0.0000
# 2 49.1756 115.7505 92.3082 0.0000 1.6263 0.0000
# 3 84.8316 92.3082 294.1999 0.0000 -6.6559 0.0000
# 4 0.0000 0.0000 0.0000 59.6729 0.0000 4.5561
# 5 53.3513 1.6263 -6.6559 0.0000 79.2758 0.0000
# 6 0.0000 0.0000 0.0000 4.5561 0.0000 26.4722
#
#
#
# Elastic Compliance Matrix: (Units=1/GPa)
#
#
# Indices 1 2 3 4 5 6 
#
# 1 0.008228 -0.001897 -0.001906 0.000000 -0.005658 0.000000
# 2 -0.001897 0.011983 -0.003196 0.000000 0.000762 0.000000
# 3 -0.001906 -0.003196 0.004991 0.000000 0.001767 0.000000
# 4 0.000000 0.000000 0.000000 0.016981 0.000000 -0.002923
# 5 -0.005658 0.000762 0.001767 0.000000 0.016555 0.000000
# 6 0.000000 0.000000 0.000000 -0.002923 0.000000 0.038278
#
#
# Mechanical properties :
#
#
# Convention : Reuss Voigt Hill
#
# Bulk Modulus (GPa) = 89.23265 116.86507 103.04886
# Shear Modulus (GPa) = 43.57396 57.94014 50.75705
#
# Velocity S-wave (km/s) = 3.90593 4.50402 4.21559
# Velocity P-wave (km/s) = 7.18221 8.24411 7.73141
#
# Compressibility (1/GPa) = 0.01120666
#
# Stress axis : x y z
#
# Youngs Moduli (GPa) = 121.53425 83.45368 200.35576
#
# Poissons Ratio (x) = 0.15827 0.38178
# Poissons Ratio (y) = 0.23050 0.64025
# Poissons Ratio (z) = 0.23158 0.26668
#
# Static dielectric constant tensor:
#      x y z
#    x 2.454860 0.000000 -0.050790 
#    y 0.000000 2.235350 0.000000 
#    z -0.050790 0.000000 2.213100 
# 
# From -- ./inp_files/189585.got.cif
#   From: 2010.05.17/outbox.cif.g08.bks.cpg/sg15_95_cif.got.tgz:189585.got - 2010.06.03 18:47:42.
