data_PCOD9306481
_publ_section_title
;
Structure prediction by ZEFSAII (Michael W. Deem and Ramdas Pophale) SiO2 
 PCOD9306481
Probable space group: C 2/C
;
_chemical_formula_sum "Si O2"
_cell_formula_units_Z 48
_cell_length_a 13.862933
_cell_length_b 26.099337
_cell_length_c 11.934901
_cell_angle_alpha 90.000000
_cell_angle_beta 151.655109
_cell_angle_gamma 90.000000
_cell_volume 2050.189137
_symmetry_space_group_name_H-M "C 2/C"
_symmetry_group_IT_number 15
_symmetry_cell_setting 'monoclinic'
loop_
_space_group_symop_operation_xyz
x,y,z
-x,y,1/2-z
-x,-y,-z
x,-y,1/2+z
1/2+x,1/2+y,z
1/2-x,1/2+y,1/2-z
1/2-x,1/2-y,-z
1/2+x,1/2-y,1/2+z
loop_
_atom_site_type_symbol
_atom_site_label
_atom_site_fract_x
_atom_site_fract_y
_atom_site_fract_z
Si Si1 0.745413 0.713963 0.384174
Si Si2 0.000000 0.869876 0.750000
Si Si3 0.575763 0.088334 0.511319
Si Si4 0.594805 0.805052 0.090007
Si Si5 0.184167 0.455541 0.351293
Si Si6 0.000000 0.731774 0.250000
Si Si7 0.212264 0.932207 0.502341
O O1 0.750000 0.750000 0.500000
O O2 0.583290 0.669749 0.241511
O O3 0.947580 0.686339 0.547158
O O4 0.711035 0.754666 0.249506
O O5 0.823955 0.907572 0.528298
O O6 0.692034 0.140050 0.665728
O O7 0.593102 0.052646 0.635415
O O8 0.672725 0.066079 0.498662
O O9 0.343127 0.096382 0.231532
O O10 0.504226 0.794142 0.875520
O O11 0.306752 0.509013 0.477620
O O12 0.000000 0.458868 0.250000
O O13 0.250000 0.750000 0.500000
O O14 0.000000 0.907731 0.250000
#
# Coordination Sequence:
#
# PCOD9306481 Si02
#       7
#     8   4   8   8   8   4   8
#     4  12  24  46  75 110 159 198 253 324 389 473
#     4  12  26  44  76 121 144 205 252 306 402 476
#     4  11  26  47  73 106 148 198 250 310 395 459
#     4  12  25  48  74 108 153 209 259 320 397 470
#     4  12  25  46  76 108 152 193 247 314 394 464
#     4  12  26  48  76 107 150 211 274 330 392 468
#     4  11  25  49  75 106 145 195 256 321 378 460
#
# _framework density 23.412474
#
# number of rings (size 3 to 8) (size 9 to 14) (size 15 to 20)
#    0.000    0.333    5.833    3.500    0.000    3.333 
#    6.000    0.000    0.000    0.000    0.000    0.000 
#    0.000    0.000    0.000    0.000    0.000    0.000 
#
# Total GULP energy -133723.712549 kJ/mol
# GULP energy per Si atom -5571.821356 kJ/mol
# Density = 2.335919 g / cm^3
# Si number density = 23.412474 Si / 1000 Ang^3
#
#
#
# Elastic Constant Matrix: (Units=GPa)
#
#
# Indices 1 2 3 4 5 6 
#
# 1 94.5011 5.4910 16.0603 0.0000 -17.4474 0.0000
# 2 5.4910 115.0173 22.0266 0.0000 -11.0571 0.0000
# 3 16.0603 22.0266 103.2244 -0.0001 -12.4598 -0.0001
# 4 0.0000 0.0000 -0.0001 41.7727 -0.0001 5.6849
# 5 -17.4474 -11.0571 -12.4598 -0.0001 49.6303 0.0000
# 6 0.0000 0.0000 -0.0001 5.6849 0.0000 41.3064
#
#
#
# Elastic Compliance Matrix: (Units=1/GPa)
#
#
# Indices 1 2 3 4 5 6 
#
# 1 0.011494 0.000068 -0.001354 0.000000 0.003716 0.000000
# 2 0.000068 0.009187 -0.001775 0.000000 0.001625 0.000000
# 3 -0.001354 -0.001775 0.010490 0.000000 0.001762 0.000000
# 4 0.000000 0.000000 0.000000 0.024396 0.000000 -0.003358
# 5 0.003716 0.001625 0.001762 0.000000 0.022260 0.000000
# 6 0.000000 0.000000 0.000000 -0.003358 0.000000 0.024671
#
#
# Mechanical properties :
#
#
# Convention : Reuss Voigt Hill
#
# Bulk Modulus (GPa) = 39.92239 44.43316 42.17778
# Shear Modulus (GPa) = 42.74591 44.48621 43.61606
#
# Velocity S-wave (km/s) = 4.27754 4.36375 4.32086
# Velocity P-wave (km/s) = 6.44091 6.66404 6.55342
#
# Compressibility (1/GPa) = 0.02504860
#
# Stress axis : x y z
#
# Youngs Moduli (GPa) = 87.00080 108.84686 95.33120
#
# Poissons Ratio (x) = -0.00738 0.12911
# Poissons Ratio (y) = -0.00590 0.16920
# Poissons Ratio (z) = 0.11782 0.19318
#
# Static dielectric constant tensor:
#      x y z
#    x 1.873110 0.000000 0.119970 
#    y 0.000000 1.949450 0.000000 
#    z 0.119970 0.000000 2.032310 
# 
# From -- ./inp_files/101419.got.cif
#   From: 2010.05.17/outbox.cif.g08.bks.cpg/sg15_51_cif.got.tgz:101419.got - 2010.06.03 18:47:42.
