data_PCOD9306162
_publ_section_title
;
Structure prediction by ZEFSAII (Michael W. Deem and Ramdas Pophale) SiO2 
 PCOD9306162
Probable space group: C 2/C
;
_chemical_formula_sum "Si O2"
_cell_formula_units_Z 56
_cell_length_a 11.540521
_cell_length_b 9.092021
_cell_length_c 26.695603
_cell_angle_alpha 90.000000
_cell_angle_beta 65.655305
_cell_angle_gamma 90.000000
_cell_volume 2552.013934
_symmetry_space_group_name_H-M "C 2/C"
_symmetry_group_IT_number 15
_symmetry_cell_setting 'monoclinic'
loop_
_space_group_symop_operation_xyz
x,y,z
-x,y,1/2-z
-x,-y,-z
x,-y,1/2+z
1/2+x,1/2+y,z
1/2-x,1/2+y,1/2-z
1/2-x,1/2-y,-z
1/2+x,1/2-y,1/2+z
loop_
_atom_site_type_symbol
_atom_site_label
_atom_site_fract_x
_atom_site_fract_y
_atom_site_fract_z
Si Si1 0.371836 0.917786 0.421242
Si Si2 0.728635 0.253093 0.367942
Si Si3 0.407658 0.287676 0.619458
Si Si4 0.632308 0.586113 0.477502
Si Si5 0.190611 0.061214 0.685379
Si Si6 0.069068 0.933081 0.316379
Si Si7 0.001485 0.632827 0.040224
O O1 0.329414 0.865323 0.373963
O O2 0.458800 0.781234 0.423634
O O3 0.246389 0.977224 0.472604
O O4 0.463717 0.056694 0.413152
O O5 0.640086 0.331749 0.343445
O O6 0.637431 0.202203 0.429764
O O7 0.787243 0.107296 0.334054
O O8 0.341730 0.365721 0.584166
O O9 0.314996 0.159103 0.654561
O O10 0.433344 0.405780 0.657978
O O11 0.500000 0.500000 0.500000
O O12 0.602118 0.737584 0.511710
O O13 0.145362 0.066433 0.750747
O O14 0.073880 0.115424 0.671492
O O15 0.000000 0.500000 0.000000
#
# Coordination Sequence:
#
# PCOD9306162 Si02
#       7
#     8   8   8   8   8   8   8
#     4  12  25  43  71  94 138 176 221 274 335 388
#     4  12  24  45  69 100 135 174 226 277 333 402
#     4  12  24  45  69 100 135 174 226 277 333 402
#     4  12  25  45  66 100 137 181 226 274 332 398
#     4  11  25  45  71  99 132 175 222 280 341 401
#     4  11  25  45  71  99 132 175 222 280 341 401
#     4  12  25  45  66 100 137 181 226 274 332 398
#
# _framework density 21.943452000000001
#
# number of rings (size 3 to 8) (size 9 to 14) (size 15 to 20)
#    0.000    0.286    7.143    1.286    2.000    2.286 
#    5.143    0.000    0.000    0.000    0.000    0.000 
#    0.000    0.000    0.000    0.000    0.000    0.000 
#
# Total GULP energy -156465.509351 kJ/mol
# GULP energy per Si atom -5588.053905 kJ/mol
# Density = 2.189351 g / cm^3
# Si number density = 21.943452 Si / 1000 Ang^3
#
#
#
# Elastic Constant Matrix: (Units=GPa)
#
#
# Indices 1 2 3 4 5 6 
#
# 1 91.7812 41.0105 28.9096 0.0000 0.8749 0.0000
# 2 41.0105 97.5821 40.9551 0.0000 5.3405 0.0000
# 3 28.9096 40.9551 67.3415 0.0000 2.8636 0.0000
# 4 0.0000 0.0000 0.0000 31.5163 0.0000 2.3910
# 5 0.8749 5.3405 2.8636 0.0000 34.8899 0.0000
# 6 0.0000 0.0000 0.0000 2.3910 0.0000 35.9581
#
#
#
# Elastic Compliance Matrix: (Units=1/GPa)
#
#
# Indices 1 2 3 4 5 6 
#
# 1 0.013937 -0.004523 -0.003258 0.000000 0.000610 0.000000
# 2 -0.004523 0.015299 -0.007293 0.000000 -0.001630 0.000000
# 3 -0.003258 -0.007293 0.020705 0.000000 -0.000501 0.000000
# 4 0.000000 0.000000 0.000000 0.031890 0.000000 -0.002120
# 5 0.000610 -0.001630 -0.000501 0.000000 0.028937 0.000000
# 6 0.000000 0.000000 0.000000 -0.002120 0.000000 0.027951
#
#
# Mechanical properties :
#
#
# Convention : Reuss Voigt Hill
#
# Bulk Modulus (GPa) = 50.52570 53.16169 51.84369
# Shear Modulus (GPa) = 28.49549 30.19483 29.34516
#
# Velocity S-wave (km/s) = 3.60750 3.71351 3.66089
# Velocity P-wave (km/s) = 6.35826 6.53193 6.44568
#
# Compressibility (1/GPa) = 0.01979191
#
# Stress axis : x y z
#
# Youngs Moduli (GPa) = 71.75116 65.36414 48.29684
#
# Poissons Ratio (x) = 0.29566 0.15736
# Poissons Ratio (y) = 0.32455 0.35224
# Poissons Ratio (z) = 0.23378 0.47672
#
# Static dielectric constant tensor:
#      x y z
#    x 1.823210 0.000000 -0.001940 
#    y 0.000000 1.806840 0.000000 
#    z -0.001940 0.000000 1.793010 
# 
# From -- ./inp_files/291505.got.cif
#   From: 2010.05.17/outbox.cif.g08.bks.cpg/sg15_146_cif.got.tgz:291505.got - 2010.06.03 18:47:42.
