data_PCOD9306133
_publ_section_title
;
Structure prediction by ZEFSAII (Michael W. Deem and Ramdas Pophale) SiO2 
 PCOD9306133
Probable space group: C 2/C
;
_chemical_formula_sum "Si O2"
_cell_formula_units_Z 44
_cell_length_a 9.219682
_cell_length_b 22.391606
_cell_length_c 12.361397
_cell_angle_alpha 90.000000
_cell_angle_beta 48.108457
_cell_angle_gamma 90.000000
_cell_volume 1899.682421
_symmetry_space_group_name_H-M "C 2/C"
_symmetry_group_IT_number 15
_symmetry_cell_setting 'monoclinic'
loop_
_space_group_symop_operation_xyz
x,y,z
-x,y,1/2-z
-x,-y,-z
x,-y,1/2+z
1/2+x,1/2+y,z
1/2-x,1/2+y,1/2-z
1/2-x,1/2-y,-z
1/2+x,1/2-y,1/2+z
loop_
_atom_site_type_symbol
_atom_site_label
_atom_site_fract_x
_atom_site_fract_y
_atom_site_fract_z
Si Si1 0.645928 0.916417 0.924302
Si Si2 0.913605 0.313290 0.393481
Si Si3 0.689467 0.620438 0.389794
Si Si4 0.500000 0.776937 0.750000
Si Si5 0.560656 0.724382 0.953775
Si Si6 0.790342 0.046151 0.909118
O O1 0.731304 0.903526 0.762877
O O2 0.745083 0.976047 0.920141
O O3 0.687735 0.859615 0.976511
O O4 0.409235 0.924013 0.038389
O O5 0.782812 0.269335 0.384173
O O6 0.037569 0.272778 0.416454
O O7 0.000000 0.350948 0.250000
O O8 0.824046 0.676889 0.355786
O O9 0.487528 0.656016 0.493866
O O10 0.697403 0.569110 0.474453
O O11 0.475723 0.739781 0.652188
O O12 0.000000 0.060199 0.750000
#
# Coordination Sequence:
#
# PCOD9306133 Si02
#       6
#     8   8   8   4   8   8
#     4  11  26  50  74 106 153 195 249 321 376 450
#     4  11  25  45  69 109 149 197 244 316 376 457
#     4  12  24  46  74 106 150 196 253 315 372 449
#     4  12  22  48  70 110 148 198 252 314 374 454
#     4  11  26  41  75 106 152 198 250 299 391 452
#     4  11  27  47  76 107 144 196 262 309 382 442
#
# _framework density 23.161764999999999
#
# number of rings (size 3 to 8) (size 9 to 14) (size 15 to 20)
#    0.000    0.727    3.636    1.636    8.909    3.636 
#    0.000    0.000    0.000    0.000    0.000    0.000 
#    0.000    0.000    0.000    0.000    0.000    0.000 
#
# Total GULP energy -122748.453081 kJ/mol
# GULP energy per Si atom -5579.475140 kJ/mol
# Density = 2.310905 g / cm^3
# Si number density = 23.161765 Si / 1000 Ang^3
#
#
#
# Elastic Constant Matrix: (Units=GPa)
#
#
# Indices 1 2 3 4 5 6 
#
# 1 105.8815 65.8681 82.0373 0.0000 29.6110 0.0000
# 2 65.8681 133.7928 72.5185 0.0000 29.4919 0.0000
# 3 82.0373 72.5185 189.5762 0.0000 39.5571 0.0000
# 4 0.0000 0.0000 0.0000 36.5741 0.0000 3.1287
# 5 29.6110 29.4919 39.5571 0.0000 41.1171 0.0000
# 6 0.0000 0.0000 0.0000 3.1287 0.0000 9.5350
#
#
#
# Elastic Compliance Matrix: (Units=1/GPa)
#
#
# Indices 1 2 3 4 5 6 
#
# 1 0.017487 -0.005087 -0.004698 0.000000 -0.004425 0.000000
# 2 -0.005087 0.011502 -0.001553 0.000000 -0.003092 0.000000
# 3 -0.004698 -0.001553 0.008713 0.000000 -0.003885 0.000000
# 4 0.000000 0.000000 0.000000 0.028131 0.000000 -0.009231
# 5 -0.004425 -0.003092 -0.003885 0.000000 0.033463 0.000000
# 6 0.000000 0.000000 0.000000 -0.009231 0.000000 0.107905
#
#
# Mechanical properties :
#
#
# Convention : Reuss Voigt Hill
#
# Bulk Modulus (GPa) = 66.55695 96.67759 81.61727
# Shear Modulus (GPa) = 21.28694 31.36702 26.32698
#
# Velocity S-wave (km/s) = 3.03488 3.68402 3.37509
# Velocity P-wave (km/s) = 6.40927 7.74124 7.10653
#
# Compressibility (1/GPa) = 0.01502473
#
# Stress axis : x y z
#
# Youngs Moduli (GPa) = 57.18672 86.93924 114.77546
#
# Poissons Ratio (x) = 0.44228 0.53920
# Poissons Ratio (y) = 0.29092 0.17828
# Poissons Ratio (z) = 0.26866 0.13504
#
# Static dielectric constant tensor:
#      x y z
#    x 2.166650 0.000000 -0.314670 
#    y 0.000000 1.867240 0.000000 
#    z -0.314670 0.000000 2.282110 
# 
# From -- ./inp_files/79713.got.cif
#   From: 2010.05.17/outbox.cif.g08.bks.cpg/sg15_40_cif.got.tgz:79713.got - 2010.06.03 18:47:42.
