data_PCOD9306659
_publ_section_title
;
Structure prediction by ZEFSAII (Michael W. Deem and Ramdas Pophale) SiO2 
 PCOD9306659
Probable space group: C 2/C
;
_chemical_formula_sum "Si O2"
_cell_formula_units_Z 40
_cell_length_a 13.564062
_cell_length_b 7.974337
_cell_length_c 20.342661
_cell_angle_alpha 90.000000
_cell_angle_beta 139.990766
_cell_angle_gamma 90.000000
_cell_volume 1414.630477
_symmetry_space_group_name_H-M "C 2/C"
_symmetry_group_IT_number 15
_symmetry_cell_setting 'monoclinic'
loop_
_space_group_symop_operation_xyz
x,y,z
-x,y,1/2-z
-x,-y,-z
x,-y,1/2+z
1/2+x,1/2+y,z
1/2-x,1/2+y,1/2-z
1/2-x,1/2-y,-z
1/2+x,1/2-y,1/2+z
loop_
_atom_site_type_symbol
_atom_site_label
_atom_site_fract_x
_atom_site_fract_y
_atom_site_fract_z
Si Si1 0.106689 0.615084 0.125041
Si Si2 0.093606 0.431724 0.364961
Si Si3 0.856612 0.153898 0.740462
Si Si4 0.078152 0.166261 0.066547
Si Si5 0.603361 0.434863 0.904784
O O1 0.154170 0.781064 0.189568
O O2 0.251113 0.507871 0.176379
O O3 0.015052 0.504646 0.132298
O O4 0.004521 0.681672 0.013143
O O5 0.258240 0.494780 0.478130
O O6 0.139383 0.232672 0.382315
O O7 0.000000 0.467567 0.250000
O O8 0.759314 0.299059 0.654291
O O9 0.033105 0.091754 0.829489
O O10 0.028493 0.145803 0.116531
O O11 0.000000 0.000000 0.000000
#
# Coordination Sequence:
#
# PCOD9306659 Si02
#       5
#     8   8   8   8   8
#     4  12  24  45  73 111 143 197 254 315 376 453
#     4  11  28  47  73 106 162 202 246 312 397 455
#     4  12  24  43  77 108 145 189 261 309 372 445
#     4  12  25  45  78 106 147 190 256 320 367 445
#     4  11  26  47  73 110 147 207 253 309 391 459
#
# _framework density 28.275936000000002
#
# number of rings (size 3 to 8) (size 9 to 14) (size 15 to 20)
#    0.000    0.400    6.000    0.600    8.400    2.400 
#    0.000    1.000    0.000    0.000    0.000    0.000 
#    0.000    0.000    0.000    0.000    0.000    0.000 
#
# Total GULP energy -111804.000983 kJ/mol
# GULP energy per Si atom -5590.200049 kJ/mol
# Density = 2.821158 g / cm^3
# Si number density = 28.275936 Si / 1000 Ang^3
#
#
#
# Elastic Constant Matrix: (Units=GPa)
#
#
# Indices 1 2 3 4 5 6 
#
# 1 76.1779 20.6559 48.9754 0.0000 11.7481 0.0000
# 2 20.6559 125.8267 81.2633 0.0000 12.8425 0.0000
# 3 48.9754 81.2633 282.1229 0.0000 15.3301 0.0000
# 4 0.0000 0.0000 0.0000 78.8513 0.0000 4.8755
# 5 11.7481 12.8425 15.3301 0.0000 49.1792 0.0000
# 6 0.0000 0.0000 0.0000 4.8755 0.0000 35.1030
#
#
#
# Elastic Compliance Matrix: (Units=1/GPa)
#
#
# Indices 1 2 3 4 5 6 
#
# 1 0.015215 -0.000748 -0.002277 0.000000 -0.002729 0.000000
# 2 -0.000748 0.009943 -0.002647 0.000000 -0.001592 0.000000
# 3 -0.002277 -0.002647 0.004715 0.000000 -0.000234 0.000000
# 4 0.000000 0.000000 0.000000 0.012792 0.000000 -0.001777
# 5 -0.002729 -0.001592 -0.000234 0.000000 0.021475 0.000000
# 6 0.000000 0.000000 0.000000 -0.001777 0.000000 0.028734
#
#
# Mechanical properties :
#
#
# Convention : Reuss Voigt Hill
#
# Bulk Modulus (GPa) = 53.97650 87.32409 70.65029
# Shear Modulus (GPa) = 45.29148 54.84222 50.06685
#
# Velocity S-wave (km/s) = 4.00655 4.40880 4.21248
# Velocity P-wave (km/s) = 6.36662 7.54099 6.97855
#
# Compressibility (1/GPa) = 0.01852658
#
# Stress axis : x y z
#
# Youngs Moduli (GPa) = 65.72382 100.57692 212.07874
#
# Poissons Ratio (x) = 0.07526 0.48300
# Poissons Ratio (y) = 0.04918 0.56147
# Poissons Ratio (z) = 0.14968 0.26627
#
# Static dielectric constant tensor:
#      x y z
#    x 2.374460 0.000000 -0.014010 
#    y 0.000000 2.303250 0.000000 
#    z -0.014010 0.000000 2.121580 
# 
# From -- ./inp_files/276765.got.cif
#   From: 2010.05.17/outbox.cif.g08.bks.cpg/sg15_139_cif.got.tgz:276765.got - 2010.06.03 18:47:42.
