data_PCOD9306427
_publ_section_title
;
Structure prediction by ZEFSAII (Michael W. Deem and Ramdas Pophale) SiO2 
 PCOD9306427
Probable space group: C 2/C
;
_chemical_formula_sum "Si O2"
_cell_formula_units_Z 28
_cell_length_a 10.313252
_cell_length_b 7.245741
_cell_length_c 15.519564
_cell_angle_alpha 90.000000
_cell_angle_beta 64.376492
_cell_angle_gamma 90.000000
_cell_volume 1045.679102
_symmetry_space_group_name_H-M "C 2/C"
_symmetry_group_IT_number 15
_symmetry_cell_setting 'monoclinic'
loop_
_space_group_symop_operation_xyz
x,y,z
-x,y,1/2-z
-x,-y,-z
x,-y,1/2+z
1/2+x,1/2+y,z
1/2-x,1/2+y,1/2-z
1/2-x,1/2-y,-z
1/2+x,1/2-y,1/2+z
loop_
_atom_site_type_symbol
_atom_site_label
_atom_site_fract_x
_atom_site_fract_y
_atom_site_fract_z
Si Si1 0.403354 0.973651 0.692372
Si Si2 0.396081 0.437909 0.140383
Si Si3 0.000000 0.500000 0.500000
Si Si4 0.197123 0.040334 0.022778
O O1 0.500000 0.956166 0.750000
O O2 0.408208 0.786839 0.632291
O O3 0.474788 0.105715 0.602579
O O4 0.239417 0.018155 0.760751
O O5 0.554589 0.503724 0.120233
O O6 0.350145 0.510095 0.060219
O O7 0.836064 0.561073 0.517949
O O8 0.250000 0.250000 0.000000
#
# Coordination Sequence:
#
# PCOD9306427 Si02
#       4
#     8   8   4   8
#     4  12  28  45  74 111 147 192 246 305 361 436
#     4  11  28  46  73 108 146 193 246 297 367 434
#     4  12  26  48  74 106 150 188 238 312 358 428
#     4  11  25  48  74 107 144 193 243 302 365 431
#
# _framework density 26.776857
#
# number of rings (size 3 to 8) (size 9 to 14) (size 15 to 20)
#    0.000    0.571    5.714    0.000    8.000    1.143 
#    0.000    0.000    0.000    0.000    0.000    0.000 
#    0.000    0.000    0.000    0.000    0.000    0.000 
#
# Total GULP energy -77969.550663 kJ/mol
# GULP energy per Si atom -5569.253619 kJ/mol
# Density = 2.671591 g / cm^3
# Si number density = 26.776857 Si / 1000 Ang^3
#
#
#
# Elastic Constant Matrix: (Units=GPa)
#
#
# Indices 1 2 3 4 5 6 
#
# 1 273.5201 14.0690 83.9734 0.0000 -31.1816 0.0000
# 2 14.0690 76.3328 -44.7316 0.0000 -12.3010 0.0000
# 3 83.9734 -44.7316 123.9054 0.0000 -21.6416 0.0000
# 4 0.0000 0.0000 0.0000 16.3936 0.0000 -7.1822
# 5 -31.1816 -12.3010 -21.6416 0.0000 92.7703 0.0000
# 6 0.0000 0.0000 0.0000 -7.1822 0.0000 40.4201
#
#
#
# Elastic Compliance Matrix: (Units=1/GPa)
#
#
# Indices 1 2 3 4 5 6 
#
# 1 0.005439 -0.003974 -0.005102 0.000000 0.000111 0.000000
# 2 -0.003974 0.020877 0.010926 0.000000 0.003981 0.000000
# 3 -0.005102 0.010926 0.016081 0.000000 0.003485 0.000000
# 4 0.000000 0.000000 0.000000 0.066149 0.000000 0.011754
# 5 0.000111 0.003981 0.003485 0.000000 0.012158 0.000000
# 6 0.000000 0.000000 0.000000 0.011754 0.000000 0.026829
#
#
# Mechanical properties :
#
#
# Convention : Reuss Voigt Hill
#
# Bulk Modulus (GPa) = 21.69316 64.48668 43.08992
# Shear Modulus (GPa) = 31.40704 57.94662 44.67683
#
# Velocity S-wave (km/s) = 3.42850 4.65699 4.08914
# Velocity P-wave (km/s) = 4.87769 7.28368 6.19854
#
# Compressibility (1/GPa) = 0.04609748
#
# Stress axis : x y z
#
# Youngs Moduli (GPa) = 183.84223 47.89906 62.18351
#
# Poissons Ratio (x) = 0.19037 0.31725
# Poissons Ratio (y) = 0.73065 -0.67941
# Poissons Ratio (z) = 0.93793 -0.52334
#
# Static dielectric constant tensor:
#      x y z
#    x 2.018190 0.000000 0.042650 
#    y 0.000000 1.446740 0.000000 
#    z 0.042650 0.000000 1.701920 
# 
# From -- ./inp_files/140661.got.cif
#   From: 2010.05.17/outbox.cif.g08.bks.cpg/sg15_71_cif.got.tgz:140661.got - 2010.06.03 18:47:42.
