data_PCOD9306245
_publ_section_title
;
Structure prediction by ZEFSAII (Michael W. Deem and Ramdas Pophale) SiO2 
 PCOD9306245
Probable space group: C 2/C
;
_chemical_formula_sum "Si O2"
_cell_formula_units_Z 40
_cell_length_a 5.167663
_cell_length_b 22.289928
_cell_length_c 15.493230
_cell_angle_alpha 90.000000
_cell_angle_beta 64.169613
_cell_angle_gamma 90.000000
_cell_volume 1606.311254
_symmetry_space_group_name_H-M "C 2/C"
_symmetry_group_IT_number 15
_symmetry_cell_setting 'monoclinic'
loop_
_space_group_symop_operation_xyz
x,y,z
-x,y,1/2-z
-x,-y,-z
x,-y,1/2+z
1/2+x,1/2+y,z
1/2-x,1/2+y,1/2-z
1/2-x,1/2-y,-z
1/2+x,1/2-y,1/2+z
loop_
_atom_site_type_symbol
_atom_site_label
_atom_site_fract_x
_atom_site_fract_y
_atom_site_fract_z
Si Si1 0.000000 0.794466 0.250000
Si Si2 0.279709 0.011141 0.610142
Si Si3 0.047960 0.794748 0.864467
Si Si4 0.000000 0.096224 0.250000
Si Si5 0.954957 0.202840 0.562667
Si Si6 0.709081 0.907996 0.148796
O O1 0.267410 0.750945 0.217398
O O2 0.959542 0.820350 0.352764
O O3 0.469340 0.047056 0.649795
O O4 0.991905 0.050811 0.629491
O O5 0.500000 0.000000 0.500000
O O6 0.203389 0.949160 0.668492
O O7 0.093435 0.858064 0.812243
O O8 0.736044 0.763073 0.910358
O O9 0.154093 0.792564 0.949048
O O10 0.772684 0.142354 0.567223
O O11 0.500000 0.875440 0.250000
#
# Coordination Sequence:
#
# PCOD9306245 Si02
#       6
#     4   8   8   4   8   8
#     4  12  22  43  72 108 147 196 248 320 388 472
#     4  12  28  49  78 111 153 207 270 325 394 466
#     4  11  25  46  70 112 149 201 245 327 395 478
#     4  12  24  51  72 110 159 206 262 328 400 472
#     4  11  26  45  74 109 153 192 266 311 405 474
#     4  12  25  49  76 109 148 206 254 332 383 468
#
# _framework density 24.901774
#
# number of rings (size 3 to 8) (size 9 to 14) (size 15 to 20)
#    0.000    0.400    4.000    3.600    5.600    3.200 
#    0.000    0.000    0.000    0.000    0.000    0.000 
#    0.000    0.000    0.000    0.000    0.000    0.000 
#
# Total GULP energy -111442.848119 kJ/mol
# GULP energy per Si atom -5572.142406 kJ/mol
# Density = 2.484510 g / cm^3
# Si number density = 24.901774 Si / 1000 Ang^3
#
#
#
# Elastic Constant Matrix: (Units=GPa)
#
#
# Indices 1 2 3 4 5 6 
#
# 1 131.3711 22.8381 19.9621 0.0000 -11.5944 0.0000
# 2 22.8381 122.3814 23.2255 0.0000 -0.3491 0.0000
# 3 19.9621 23.2255 178.4182 0.0000 4.7777 0.0000
# 4 0.0000 0.0000 0.0000 2.9297 0.0000 35.3391
# 5 -11.5944 -0.3491 4.7777 0.0000 45.4800 0.0000
# 6 0.0000 0.0000 0.0000 35.3391 0.0000 -21.5833
#
#
#
# Elastic Compliance Matrix: (Units=1/GPa)
#
#
# Indices 1 2 3 4 5 6 
#
# 1 0.008160 -0.001366 -0.000793 0.000000 0.002153 0.000000
# 2 -0.001366 0.008608 -0.000963 0.000000 -0.000181 0.000000
# 3 -0.000793 -0.000963 0.005841 0.000000 -0.000823 0.000000
# 4 0.000000 0.000000 0.000000 0.016450 0.000000 0.026934
# 5 0.002153 -0.000181 -0.000823 0.000000 0.022622 0.000000
# 6 0.000000 0.000000 0.000000 0.026934 0.000000 -0.002233
#
#
# Mechanical properties :
#
#
# Convention : Reuss Voigt Hill
#
# Bulk Modulus (GPa) = 61.10396 62.69135 61.89766
# Shear Modulus (GPa) = 70.27752 29.77497 50.02625
#
# Velocity S-wave (km/s) = 5.31819 3.46164 4.48699
# Velocity P-wave (km/s) = 7.89317 6.41929 7.19408
#
# Compressibility (1/GPa) = 0.01636555
#
# Stress axis : x y z
#
# Youngs Moduli (GPa) = 122.54876 116.16637 171.20667
#
# Poissons Ratio (x) = 0.15870 0.13573
# Poissons Ratio (y) = 0.16742 0.16485
# Poissons Ratio (z) = 0.09716 0.11185
#
# Static dielectric constant tensor:
#      x y z
#    x 2.343510 0.000000 0.523800 
#    y 0.000000 2.317560 0.000000 
#    z 0.523800 0.000000 3.246540 
# 
# From -- ./inp_files/129290.got.cif
#   From: 2010.05.17/outbox.cif.g08.bks.cpg/sg15_65_cif.got.tgz:129290.got - 2010.06.03 18:47:42.
