data_PCOD9306939
_publ_section_title
;
Structure prediction by ZEFSAII (Michael W. Deem and Ramdas Pophale) SiO2 
 PCOD9306939
Probable space group: C 2/C
;
_chemical_formula_sum "Si O2"
_cell_formula_units_Z 52
_cell_length_a 9.147219
_cell_length_b 32.497795
_cell_length_c 13.701560
_cell_angle_alpha 90.000000
_cell_angle_beta 46.306514
_cell_angle_gamma 90.000000
_cell_volume 2944.955449
_symmetry_space_group_name_H-M "C 2/C"
_symmetry_group_IT_number 15
_symmetry_cell_setting 'monoclinic'
loop_
_space_group_symop_operation_xyz
x,y,z
-x,y,1/2-z
-x,-y,-z
x,-y,1/2+z
1/2+x,1/2+y,z
1/2-x,1/2+y,1/2-z
1/2-x,1/2-y,-z
1/2+x,1/2-y,1/2+z
loop_
_atom_site_type_symbol
_atom_site_label
_atom_site_fract_x
_atom_site_fract_y
_atom_site_fract_z
Si Si1 0.726771 0.270904 0.115432
Si Si2 0.536246 0.270684 0.620380
Si Si3 0.782391 0.946754 0.701526
Si Si4 0.320001 0.054222 0.476687
Si Si5 0.692851 0.650292 0.317391
Si Si6 0.860021 0.349404 0.959266
Si Si7 0.000000 0.004886 0.750000
O O1 0.500000 0.263482 0.250000
O O2 0.874700 0.251493 0.125804
O O3 0.750000 0.250000 0.000000
O O4 0.770699 0.318876 0.079468
O O5 0.500000 0.262965 0.750000
O O6 0.490667 0.319360 0.623788
O O7 0.750000 0.250000 0.500000
O O8 0.772583 0.953398 0.589128
O O9 0.558516 0.954977 0.850246
O O10 0.839127 0.898339 0.685994
O O11 0.928970 0.976094 0.693590
O O12 0.322847 0.102892 0.498125
O O13 0.187273 0.031270 0.619473
O O14 0.754863 0.656849 0.402041
O O15 0.900869 0.660203 0.163378
#
# Coordination Sequence:
#
# PCOD9306939 Si02
#       7
#     8   8   8   8   8   8   4
#     4  12  23  38  61  85 110 151 201 237 281 347
#     4  12  25  38  56  86 122 153 184 243 302 344
#     4   9  20  37  57  84 113 154 189 232 281 348
#     4   9  20  37  57  84 118 145 190 243 283 330
#     4   9  18  37  61  81 112 151 198 234 281 343
#     4   9  18  36  62  84 106 148 202 246 274 329
#     4  12  20  32  60  90 114 150 192 230 294 344
#
# _framework density 17.657312000000001
#
# number of rings (size 3 to 8) (size 9 to 14) (size 15 to 20)
#    0.000    1.846    1.538    5.538    2.154    0.000 
#    0.000    0.000    0.000    0.000    0.000    0.000 
#    0.000    0.000    0.000    0.000    0.000    0.000 
#
# Total GULP energy -144998.880890 kJ/mol
# GULP energy per Si atom -5576.880034 kJ/mol
# Density = 1.761712 g / cm^3
# Si number density = 17.657312 Si / 1000 Ang^3
#
#
#
# Elastic Constant Matrix: (Units=GPa)
#
#
# Indices 1 2 3 4 5 6 
#
# 1 63.2684 43.9044 17.7837 0.0000 -6.6732 0.0000
# 2 43.9044 87.7896 48.0871 0.0000 -6.7475 0.0000
# 3 17.7837 48.0871 84.2462 0.0000 -4.7550 0.0000
# 4 0.0000 0.0000 0.0000 32.5707 0.0000 0.0157
# 5 -6.6732 -6.7475 -4.7550 0.0000 25.5797 0.0000
# 6 0.0000 0.0000 0.0000 0.0157 0.0000 30.0442
#
#
#
# Elastic Compliance Matrix: (Units=1/GPa)
#
#
# Indices 1 2 3 4 5 6 
#
# 1 0.024895 -0.013699 0.002756 0.000000 0.003393 0.000000
# 2 -0.013699 0.024289 -0.010927 0.000000 0.000802 0.000000
# 3 0.002756 -0.010927 0.017588 0.000000 0.001106 0.000000
# 4 0.000000 0.000000 0.000000 0.030702 0.000000 -0.000016
# 5 0.003393 0.000802 0.001106 0.000000 0.040396 0.000000
# 6 0.000000 0.000000 0.000000 -0.000016 0.000000 0.033284
#
#
# Mechanical properties :
#
#
# Convention : Reuss Voigt Hill
#
# Bulk Modulus (GPa) = 43.41917 50.53940 46.97929
# Shear Modulus (GPa) = 22.46469 26.00751 24.23610
#
# Velocity S-wave (km/s) = 3.57074 3.84201 3.70886
# Velocity P-wave (km/s) = 6.45318 6.95456 6.70856
#
# Compressibility (1/GPa) = 0.02303130
#
# Stress axis : x y z
#
# Youngs Moduli (GPa) = 40.16837 41.17155 56.85814
#
# Poissons Ratio (x) = 0.56400 -0.15668
# Poissons Ratio (y) = 0.55026 0.62128
# Poissons Ratio (z) = -0.11069 0.44987
#
# Static dielectric constant tensor:
#      x y z
#    x 1.588280 0.000000 -0.011980 
#    y 0.000000 1.626740 0.000000 
#    z -0.011980 0.000000 1.582960 
# 
# From -- ./inp_files/139743.got.cif
#   From: 2010.05.17/outbox.cif.g08.bks.cpg/sg15_70_cif.got.tgz:139743.got - 2010.06.03 18:47:42.
