data_PCOD9306094
_publ_section_title
;
Structure prediction by ZEFSAII (Michael W. Deem and Ramdas Pophale) SiO2 
 PCOD9306094
Probable space group: C 2/C
;
_chemical_formula_sum "Si O2"
_cell_formula_units_Z 40
_cell_length_a 20.474433
_cell_length_b 5.271514
_cell_length_c 22.488208
_cell_angle_alpha 90.000000
_cell_angle_beta 40.456352
_cell_angle_gamma 90.000000
_cell_volume 1574.921252
_symmetry_space_group_name_H-M "C 2/C"
_symmetry_group_IT_number 15
_symmetry_cell_setting 'monoclinic'
loop_
_space_group_symop_operation_xyz
x,y,z
-x,y,1/2-z
-x,-y,-z
x,-y,1/2+z
1/2+x,1/2+y,z
1/2-x,1/2+y,1/2-z
1/2-x,1/2-y,-z
1/2+x,1/2-y,1/2+z
loop_
_atom_site_type_symbol
_atom_site_label
_atom_site_fract_x
_atom_site_fract_y
_atom_site_fract_z
Si Si1 0.387023 0.731609 0.091267
Si Si2 0.989697 0.568580 0.409057
Si Si3 0.389674 0.350465 0.806370
Si Si4 0.657688 0.121595 0.096672
Si Si5 0.332455 0.584007 0.731670
O O1 0.348905 0.480559 0.151016
O O2 0.283243 0.889790 0.169462
O O3 0.476721 0.843379 0.070255
O O4 0.429222 0.739218 0.995563
O O5 0.917745 0.532128 0.403131
O O6 0.093432 0.681187 0.311987
O O7 0.500000 0.266225 0.750000
O O8 0.378914 0.638536 0.838456
O O9 0.376396 0.372412 0.745298
O O10 0.318283 0.131384 0.882319
O O11 0.750000 0.250000 0.000000
#
# Coordination Sequence:
#
# PCOD9306094 Si02
#       5
#     8   8   8   8   8
#     4  11  25  44  72 104 143 195 248 302 384 436
#     4  11  25  47  70 104 148 191 246 314 368 454
#     4  12  26  46  77 106 147 197 247 311 378 443
#     4  12  27  49  74 110 148 196 252 313 380 447
#     4  12  24  45  73 106 146 194 251 309 372 458
#
# _framework density 25.398095000000001
#
# number of rings (size 3 to 8) (size 9 to 14) (size 15 to 20)
#    0.000    0.400    4.000    4.200    2.800    1.600 
#    3.600    0.000    0.000    0.000    0.000    0.000 
#    0.000    0.000    0.000    0.000    0.000    0.000 
#
# Total GULP energy -111847.292981 kJ/mol
# GULP energy per Si atom -5592.364649 kJ/mol
# Density = 2.534029 g / cm^3
# Si number density = 25.398095 Si / 1000 Ang^3
#
#
#
# Elastic Constant Matrix: (Units=GPa)
#
#
# Indices 1 2 3 4 5 6 
#
# 1 47.8455 -0.1306 17.5425 0.0529 9.1206 0.0360
# 2 -0.1306 66.2997 11.5825 0.0226 13.4384 -0.0249
# 3 17.5425 11.5825 106.1667 0.0060 13.3989 0.0061
# 4 0.0529 0.0226 0.0060 48.0688 0.0118 10.2044
# 5 9.1206 13.4384 13.3989 0.0118 46.7852 -0.0026
# 6 0.0360 -0.0249 0.0061 10.2044 -0.0026 16.9229
#
#
#
# Elastic Compliance Matrix: (Units=1/GPa)
#
#
# Indices 1 2 3 4 5 6 
#
# 1 0.022912 0.001437 -0.003452 -0.000017 -0.003891 -0.000036
# 2 0.001437 0.016257 -0.001438 -0.000014 -0.004538 0.000029
# 3 -0.003452 -0.001438 0.010385 0.000004 -0.001888 -0.000001
# 4 -0.000017 -0.000014 0.000004 0.023857 -0.000001 -0.014386
# 5 -0.003891 -0.004538 -0.001888 -0.000001 0.023977 0.000006
# 6 -0.000036 0.000029 -0.000001 -0.014386 0.000006 0.067766
#
#
# Mechanical properties :
#
#
# Convention : Reuss Voigt Hill
#
# Bulk Modulus (GPa) = 23.44823 30.92230 27.18526
# Shear Modulus (GPa) = 26.84193 35.10989 30.97591
#
# Velocity S-wave (km/s) = 3.25445 3.72207 3.49609
# Velocity P-wave (km/s) = 4.83469 5.53834 5.19844
#
# Compressibility (1/GPa) = 0.04264715
#
# Stress axis : x y z
#
# Youngs Moduli (GPa) = 43.64570 61.51238 96.29584
#
# Poissons Ratio (x) = -0.08838 0.33237
# Poissons Ratio (y) = -0.06271 0.13850
# Poissons Ratio (z) = 0.15064 0.08847
#
# Static dielectric constant tensor:
#      x y z
#    x 2.032790 -0.000210 -0.006450 
#    y -0.000210 2.148850 -0.000020 
#    z -0.006450 -0.000020 2.019000 
# 
# From -- ./inp_files/278786.got.cif
#   From: 2010.05.17/outbox.cif.g08.bks.cpg/sg15_140_cif.got.tgz:278786.got - 2010.06.03 18:47:42.
