data_PCOD9306992
_publ_section_title
;
Structure prediction by ZEFSAII (Michael W. Deem and Ramdas Pophale) SiO2 
 PCOD9306992
Probable space group: C 2/C
;
_chemical_formula_sum "Si O2"
_cell_formula_units_Z 36
_cell_length_a 12.608161
_cell_length_b 18.802551
_cell_length_c 8.915308
_cell_angle_alpha 90.000000
_cell_angle_beta 135.000071
_cell_angle_gamma 90.000000
_cell_volume 1494.477348
_symmetry_space_group_name_H-M "C 2/C"
_symmetry_group_IT_number 15
_symmetry_cell_setting 'monoclinic'
loop_
_space_group_symop_operation_xyz
x,y,z
-x,y,1/2-z
-x,-y,-z
x,-y,1/2+z
1/2+x,1/2+y,z
1/2-x,1/2+y,1/2-z
1/2-x,1/2-y,-z
1/2+x,1/2-y,1/2+z
loop_
_atom_site_type_symbol
_atom_site_label
_atom_site_fract_x
_atom_site_fract_y
_atom_site_fract_z
Si Si1 0.327943 0.698962 0.301174
Si Si2 0.670108 0.576770 0.413168
Si Si3 0.223231 0.448962 0.145288
Si Si4 0.993060 0.673230 0.072953
Si Si5 0.500000 0.625000 0.750000
O O1 0.343644 0.656853 0.161634
O O2 0.156613 0.686677 0.173794
O O3 0.375417 0.781061 0.357387
O O4 0.433961 0.663729 0.535320
O O5 0.500000 0.549055 0.250000
O O6 0.768030 0.531061 0.393447
O O7 0.732819 0.563323 0.639432
O O8 0.351360 0.413729 0.167399
O O9 0.067990 0.406853 0.974344
O O10 0.000000 0.700945 0.250000
#
# Coordination Sequence:
#
# PCOD9306992 Si02
#       5
#     8   8   8   8   4
#     4  12  26  46  75 109 147 195 248 300 365 436
#     4  12  26  47  76 111 148 195 244 303 367 440
#     4  12  26  46  75 109 147 195 248 300 365 436
#     4  12  26  47  76 111 148 195 244 303 367 440
#     4  12  20  44  76 108 144 192 248 302 356 444
#
# _framework density 24.088691000000001
#
# number of rings (size 3 to 8) (size 9 to 14) (size 15 to 20)
#    0.000    0.000    6.667    4.000    0.000    2.667 
#    0.000    0.000    0.000    0.000    0.000    0.000 
#    0.000    0.000    0.000    0.000    0.000    0.000 
#
# Total GULP energy -100718.611347 kJ/mol
# GULP energy per Si atom -5595.478408 kJ/mol
# Density = 2.403386 g / cm^3
# Si number density = 24.088691 Si / 1000 Ang^3
#
#
#
# Elastic Constant Matrix: (Units=GPa)
#
#
# Indices 1 2 3 4 5 6 
#
# 1 79.9513 -4.4716 -6.7068 0.0000 15.9057 0.0000
# 2 -4.4716 57.6314 -4.4704 0.0000 0.0000 0.0000
# 3 -6.7068 -4.4704 79.9547 0.0000 -15.9063 0.0000
# 4 0.0000 0.0000 0.0000 -564.0680 0.0000 0.0966
# 5 15.9057 0.0000 -15.9063 0.0000 66.8348 0.0000
# 6 0.0000 0.0000 0.0000 0.0966 0.0000 -563.9805
#
#
#
# Elastic Compliance Matrix: (Units=1/GPa)
#
#
# Indices 1 2 3 4 5 6 
#
# 1 0.013214 0.001069 0.000570 0.000000 -0.003009 0.000000
# 2 0.001069 0.017518 0.001069 0.000000 0.000000 0.000000
# 3 0.000570 0.001069 0.013213 0.000000 0.003009 0.000000
# 4 0.000000 0.000000 0.000000 -0.001773 0.000000 0.000000
# 5 -0.003009 0.000000 0.003009 0.000000 0.016395 0.000000
# 6 0.000000 0.000000 0.000000 0.000000 0.000000 -0.001773
#
#
# Mechanical properties :
#
#
# Convention : Reuss Voigt Hill
#
# Bulk Modulus (GPa) = 20.25893 20.69331 20.47612
# Shear Modulus (GPa) = 73.71293 -196.69700 -61.49203
#
# Velocity S-wave (km/s) = 5.53779 -9.04614 -5.05794
# Velocity P-wave (km/s) = 7.02267 10.02502 5.05881
#
# Compressibility (1/GPa) = 0.04936095
#
# Stress axis : x y z
#
# Youngs Moduli (GPa) = 75.67817 57.08553 75.68150
#
# Poissons Ratio (x) = -0.06105 -0.04311
# Poissons Ratio (y) = -0.08093 -0.08091
# Poissons Ratio (z) = -0.04310 -0.06103
#
# Static dielectric constant tensor:
#      x y z
#    x 1.983940 0.000000 0.000000 
#    y 0.000000 2.008450 0.000000 
#    z 0.000000 0.000000 1.983960 
# 
# From -- ./inp_files/32334.got.cif
#   From: 2010.05.17/outbox.cif.g08.bks.cpg/sg15_17_cif.got.tgz:32334.got - 2010.06.03 18:47:42.
