data_PCOD9306684
_publ_section_title
;
Structure prediction by ZEFSAII (Michael W. Deem and Ramdas Pophale) SiO2 
 PCOD9306684
Probable space group: C 2/C
;
_chemical_formula_sum "Si O2"
_cell_formula_units_Z 40
_cell_length_a 12.212356
_cell_length_b 18.279956
_cell_length_c 11.448888
_cell_angle_alpha 90.000000
_cell_angle_beta 134.406248
_cell_angle_gamma 90.000000
_cell_volume 1825.900691
_symmetry_space_group_name_H-M "C 2/C"
_symmetry_group_IT_number 15
_symmetry_cell_setting 'monoclinic'
loop_
_space_group_symop_operation_xyz
x,y,z
-x,y,1/2-z
-x,-y,-z
x,-y,1/2+z
1/2+x,1/2+y,z
1/2-x,1/2+y,1/2-z
1/2-x,1/2-y,-z
1/2+x,1/2-y,1/2+z
loop_
_atom_site_type_symbol
_atom_site_label
_atom_site_fract_x
_atom_site_fract_y
_atom_site_fract_z
Si Si1 0.667357 0.591205 0.062002
Si Si2 0.357429 0.417310 0.434891
Si Si3 0.786738 0.836234 0.146720
Si Si4 0.847218 0.677508 0.559378
Si Si5 0.070254 0.685223 0.148204
O O1 0.650965 0.503990 0.051983
O O2 0.834016 0.619597 0.222180
O O3 0.531728 0.613370 0.051390
O O4 0.641360 0.626767 0.915275
O O5 0.286914 0.391983 0.257152
O O6 0.262543 0.384156 0.470106
O O7 0.864478 0.761438 0.251336
O O8 0.612433 0.817231 0.980179
O O9 0.750000 0.750000 0.500000
O O10 0.892309 0.674740 0.459272
O O11 0.000000 0.679344 0.750000
#
# Coordination Sequence:
#
# PCOD9306684 Si02
#       5
#     8   8   8   8   8
#     4  11  28  46  72 105 144 192 230 296 354 426
#     4  11  26  48  70 104 145 187 239 287 358 423
#     4  12  25  49  74 106 144 186 240 294 351 425
#     4  12  25  46  70 103 140 184 237 297 348 422
#     4  12  25  46  76 105 142 187 239 293 357 416
#
# _framework density 21.906997
#
# number of rings (size 3 to 8) (size 9 to 14) (size 15 to 20)
#    0.000    0.400    4.000    3.000    5.600    4.000 
#    0.000    0.000    0.000    0.000    0.000    0.000 
#    0.000    0.000    0.000    0.000    0.000    0.000 
#
# Total GULP energy -111903.566615 kJ/mol
# GULP energy per Si atom -5595.178331 kJ/mol
# Density = 2.185714 g / cm^3
# Si number density = 21.906997 Si / 1000 Ang^3
#
#
#
# Elastic Constant Matrix: (Units=GPa)
#
#
# Indices 1 2 3 4 5 6 
#
# 1 164.1973 57.1255 49.5519 0.0000 -9.6965 0.0000
# 2 57.1255 93.5825 27.7370 0.0000 7.0749 0.0000
# 3 49.5519 27.7370 105.4731 0.0000 17.6154 0.0000
# 4 0.0000 0.0000 0.0000 18.7624 0.0000 -14.5244
# 5 -9.6965 7.0749 17.6154 0.0000 51.2005 0.0000
# 6 0.0000 0.0000 0.0000 -14.5244 0.0000 21.9863
#
#
#
# Elastic Compliance Matrix: (Units=1/GPa)
#
#
# Indices 1 2 3 4 5 6 
#
# 1 0.009032 -0.004717 -0.003604 0.000000 0.003602 0.000000
# 2 -0.004717 0.014070 -0.001071 0.000000 -0.002469 0.000000
# 3 -0.003604 -0.001071 0.012249 0.000000 -0.004749 0.000000
# 4 0.000000 0.000000 0.000000 0.109083 0.000000 0.072061
# 5 0.003602 -0.002469 -0.004749 0.000000 0.022188 0.000000
# 6 0.000000 0.000000 0.000000 0.072061 0.000000 0.093087
#
#
# Mechanical properties :
#
#
# Convention : Reuss Voigt Hill
#
# Bulk Modulus (GPa) = 60.36972 70.23132 65.30052
# Shear Modulus (GPa) = 17.60459 33.64574 25.62517
#
# Velocity S-wave (km/s) = 2.83787 3.92324 3.42384
# Velocity P-wave (km/s) = 6.19315 7.25609 6.74559
#
# Compressibility (1/GPa) = 0.01656460
#
# Stress axis : x y z
#
# Youngs Moduli (GPa) = 110.71856 71.07527 81.63731
#
# Poissons Ratio (x) = 0.33529 0.29425
# Poissons Ratio (y) = 0.52230 0.08746
# Poissons Ratio (z) = 0.39907 0.07615
#
# Static dielectric constant tensor:
#      x y z
#    x 2.218240 0.000000 -0.157980 
#    y 0.000000 1.796400 0.000000 
#    z -0.157980 0.000000 1.880010 
# 
# From -- ./inp_files/30201.got.cif
#   From: 2010.05.17/outbox.cif.g08.bks.cpg/sg15_16_cif.got.tgz:30201.got - 2010.06.03 18:47:42.
