data_PCOD9306893
_publ_section_title
;
Structure prediction by ZEFSAII (Michael W. Deem and Ramdas Pophale) SiO2 
 PCOD9306893
Probable space group: C 2/C
;
_chemical_formula_sum "Si O2"
_cell_formula_units_Z 32
_cell_length_a 17.380906
_cell_length_b 9.739827
_cell_length_c 8.291052
_cell_angle_alpha 90.000000
_cell_angle_beta 123.801935
_cell_angle_gamma 90.000000
_cell_volume 1166.316395
_symmetry_space_group_name_H-M "C 2/C"
_symmetry_group_IT_number 15
_symmetry_cell_setting 'monoclinic'
loop_
_space_group_symop_operation_xyz
x,y,z
-x,y,1/2-z
-x,-y,-z
x,-y,1/2+z
1/2+x,1/2+y,z
1/2-x,1/2+y,1/2-z
1/2-x,1/2-y,-z
1/2+x,1/2-y,1/2+z
loop_
_atom_site_type_symbol
_atom_site_label
_atom_site_fract_x
_atom_site_fract_y
_atom_site_fract_z
Si Si1 0.398214 0.135068 0.079688
Si Si2 0.960849 0.848281 0.937734
Si Si3 0.852999 0.194870 0.979400
Si Si4 0.784302 0.450041 0.741621
O O1 0.500000 0.087864 0.250000
O O2 0.442177 0.267667 0.472908
O O3 0.314710 0.111903 0.106174
O O4 0.368365 0.049552 0.889295
O O5 0.100847 0.827889 0.792757
O O6 0.198304 0.945328 0.132421
O O7 0.909186 0.791427 0.033804
O O8 0.000000 0.000000 0.000000
O O9 0.786176 0.325556 0.873579
#
# Coordination Sequence:
#
# PCOD9306893 Si02
#       4
#     8   8   8   8
#     4  12  27  50  84 120 167 225 281 342 429 509
#     4  11  28  53  83 119 172 223 279 345 432 503
#     4  11  29  52  83 125 169 221 283 353 419 506
#     4  12  29  50  88 125 171 218 292 352 421 497
#
# _framework density 27.436809
#
# number of rings (size 3 to 8) (size 9 to 14) (size 15 to 20)
#    0.000    0.500    2.500    2.250   14.000    3.000 
#    0.000    2.500    0.000    0.000    0.000    0.000 
#    0.000    0.000    0.000    0.000    0.000    0.000 
#
# Total GULP energy -89761.631392 kJ/mol
# GULP energy per Si atom -5610.101962 kJ/mol
# Density = 2.737436 g / cm^3
# Si number density = 27.436809 Si / 1000 Ang^3
#
#
#
# Elastic Constant Matrix: (Units=GPa)
#
#
# Indices 1 2 3 4 5 6 
#
# 1 118.0928 43.1124 52.0747 0.0000 20.1993 0.0000
# 2 43.1124 188.6831 68.1588 0.0000 9.0055 0.0000
# 3 52.0747 68.1588 153.2428 0.0000 20.2712 0.0000
# 4 0.0000 0.0000 0.0000 57.0057 0.0000 1.6466
# 5 20.1993 9.0055 20.2712 0.0000 46.9447 0.0000
# 6 0.0000 0.0000 0.0000 1.6466 0.0000 52.5534
#
#
#
# Elastic Compliance Matrix: (Units=1/GPa)
#
#
# Indices 1 2 3 4 5 6 
#
# 1 0.010652 -0.001342 -0.002599 0.000000 -0.003204 0.000000
# 2 -0.001342 0.006484 -0.002481 0.000000 0.000405 0.000000
# 3 -0.002599 -0.002481 0.008804 0.000000 -0.002208 0.000000
# 4 0.000000 0.000000 0.000000 0.017558 0.000000 -0.000550
# 5 -0.003204 0.000405 -0.002208 0.000000 0.023556 0.000000
# 6 0.000000 0.000000 0.000000 -0.000550 0.000000 0.019045
#
#
# Mechanical properties :
#
#
# Convention : Reuss Voigt Hill
#
# Bulk Modulus (GPa) = 76.36433 87.41228 81.88830
# Shear Modulus (GPa) = 48.39864 51.07895 49.73879
#
# Velocity S-wave (km/s) = 4.20456 4.31942 4.26238
# Velocity P-wave (km/s) = 7.17387 7.53692 7.35763
#
# Compressibility (1/GPa) = 0.01309512
#
# Stress axis : x y z
#
# Youngs Moduli (GPa) = 93.87990 154.23704 113.57965
#
# Poissons Ratio (x) = 0.20700 0.29519
# Poissons Ratio (y) = 0.12600 0.28182
# Poissons Ratio (z) = 0.24399 0.38270
#
# Static dielectric constant tensor:
#      x y z
#    x 2.246820 0.000000 -0.019330 
#    y 0.000000 2.155210 0.000000 
#    z -0.019330 0.000000 2.117730 
# 
# From -- ./inp_files/103425.got.cif
#   From: 2010.05.17/outbox.cif.g08.bks.cpg/sg15_52_cif.got.tgz:103425.got - 2010.06.03 18:47:42.
