data_PCOD9306051
_publ_section_title
;
Structure prediction by ZEFSAII (Michael W. Deem and Ramdas Pophale) SiO2 
 PCOD9306051
Probable space group: C 2/C
;
_chemical_formula_sum "Si O2"
_cell_formula_units_Z 48
_cell_length_a 4.851609
_cell_length_b 19.508023
_cell_length_c 22.320193
_cell_angle_alpha 90.000000
_cell_angle_beta 95.170458
_cell_angle_gamma 90.000000
_cell_volume 2103.905587
_symmetry_space_group_name_H-M "C 2/C"
_symmetry_group_IT_number 15
_symmetry_cell_setting 'monoclinic'
loop_
_space_group_symop_operation_xyz
x,y,z
-x,y,1/2-z
-x,-y,-z
x,-y,1/2+z
1/2+x,1/2+y,z
1/2-x,1/2+y,1/2-z
1/2-x,1/2-y,-z
1/2+x,1/2-y,1/2+z
loop_
_atom_site_type_symbol
_atom_site_label
_atom_site_fract_x
_atom_site_fract_y
_atom_site_fract_z
Si Si1 0.209260 0.552878 0.037897
Si Si2 0.500000 0.188085 0.250000
Si Si3 0.878729 0.372209 0.365765
Si Si4 0.500000 0.789879 0.250000
Si Si5 0.395900 0.838944 0.615187
Si Si6 0.882516 0.940728 0.414327
Si Si7 0.138041 0.757276 0.931097
O O1 0.030964 0.601663 0.076908
O O2 0.450454 0.511758 0.077048
O O3 0.356579 0.585633 0.982358
O O4 0.000000 0.500000 0.000000
O O5 0.252665 0.238178 0.264592
O O6 0.591173 0.148679 0.312745
O O7 0.572460 0.392220 0.377905
O O8 0.914655 0.338701 0.302398
O O9 0.079349 0.437539 0.379752
O O10 0.992407 0.313609 0.411743
O O11 0.597321 0.774888 0.604262
O O12 0.091470 0.815870 0.587714
O O13 0.250000 0.750000 0.000000
#
# Coordination Sequence:
#
# PCOD9306051 Si02
#       7
#     8   4   8   4   8   8   8
#     4  11  26  46  71  98 145 187 238 297 360 410
#     4  12  22  50  69 102 137 194 236 280 358 442
#     4  12  23  44  70 104 139 183 234 282 364 431
#     4  12  24  46  73  98 149 188 222 290 358 436
#     4  12  26  44  72 102 140 190 243 290 359 433
#     4  11  25  43  71 101 138 184 231 291 360 426
#     4  12  26  40  68 108 145 175 228 300 367 432
#
# _framework density 22.814713999999999
#
# number of rings (size 3 to 8) (size 9 to 14) (size 15 to 20)
#    0.000    0.333    5.000    3.500    7.000    0.000 
#    0.000    0.833    3.667    0.000    0.000    0.000 
#    0.000    0.000    0.000    0.000    0.000    0.000 
#
# Total GULP energy -134281.951706 kJ/mol
# GULP energy per Si atom -5595.081321 kJ/mol
# Density = 2.276279 g / cm^3
# Si number density = 22.814714 Si / 1000 Ang^3
#
#
#
# Elastic Constant Matrix: (Units=GPa)
#
#
# Indices 1 2 3 4 5 6 
#
# 1 110.9242 15.9796 40.2273 0.0000 -3.0603 0.0000
# 2 15.9796 57.2182 21.8386 0.0000 -2.6063 0.0000
# 3 40.2273 21.8386 173.0102 0.0000 -9.6603 0.0000
# 4 0.0000 0.0000 0.0000 78.3861 0.0000 -7.7525
# 5 -3.0603 -2.6063 -9.6603 0.0000 33.5336 0.0000
# 6 0.0000 0.0000 0.0000 -7.7525 0.0000 39.9763
#
#
#
# Elastic Compliance Matrix: (Units=1/GPa)
#
#
# Indices 1 2 3 4 5 6 
#
# 1 0.010062 -0.002010 -0.002077 0.000000 0.000164 0.000000
# 2 -0.002010 0.018783 -0.001862 0.000000 0.000740 0.000000
# 3 -0.002077 -0.001862 0.006585 0.000000 0.001563 0.000000
# 4 0.000000 0.000000 0.000000 0.013007 0.000000 0.002522
# 5 0.000164 0.000740 0.001563 0.000000 0.030344 0.000000
# 6 0.000000 0.000000 0.000000 0.002522 0.000000 0.025504
#
#
# Mechanical properties :
#
#
# Convention : Reuss Voigt Hill
#
# Bulk Modulus (GPa) = 42.49483 55.24930 48.87207
# Shear Modulus (GPa) = 40.31381 47.91965 44.11673
#
# Velocity S-wave (km/s) = 4.20814 4.58797 4.40215
# Velocity P-wave (km/s) = 6.50214 7.23429 6.87796
#
# Compressibility (1/GPa) = 0.02353228
#
# Stress axis : x y z
#
# Youngs Moduli (GPa) = 99.37981 53.24027 151.85544
#
# Poissons Ratio (x) = 0.10702 0.31537
# Poissons Ratio (y) = 0.19976 0.28279
# Poissons Ratio (z) = 0.20639 0.09914
#
# Static dielectric constant tensor:
#      x y z
#    x 1.830810 0.000000 0.015470 
#    y 0.000000 1.930100 0.000000 
#    z 0.015470 0.000000 1.846940 
# 
# From -- ./inp_files/185329.got.cif
#   From: 2010.05.17/outbox.cif.g08.bks.cpg/sg15_93_cif.got.tgz:185329.got - 2010.06.03 18:47:42.
