data_PCOD9306017
_publ_section_title
;
Structure prediction by ZEFSAII (Michael W. Deem and Ramdas Pophale) SiO2 
 PCOD9306017
Probable space group: C 2/C
;
_chemical_formula_sum "Si O2"
_cell_formula_units_Z 48
_cell_length_a 10.185888
_cell_length_b 15.288994
_cell_length_c 15.656424
_cell_angle_alpha 90.000000
_cell_angle_beta 126.022729
_cell_angle_gamma 90.000000
_cell_volume 1971.981346
_symmetry_space_group_name_H-M "C 2/C"
_symmetry_group_IT_number 15
_symmetry_cell_setting 'monoclinic'
loop_
_space_group_symop_operation_xyz
x,y,z
-x,y,1/2-z
-x,-y,-z
x,-y,1/2+z
1/2+x,1/2+y,z
1/2-x,1/2+y,1/2-z
1/2-x,1/2-y,-z
1/2+x,1/2-y,1/2+z
loop_
_atom_site_type_symbol
_atom_site_label
_atom_site_fract_x
_atom_site_fract_y
_atom_site_fract_z
Si Si1 0.184637 0.853850 0.339586
Si Si2 0.180686 0.466409 0.592334
Si Si3 0.379523 0.305590 0.630279
Si Si4 0.100487 0.200420 0.047339
Si Si5 0.312732 0.954271 0.700896
Si Si6 0.792089 0.144507 0.845728
O O1 0.200012 0.951962 0.380452
O O2 0.299982 0.787793 0.433564
O O3 0.260751 0.852752 0.272951
O O4 0.000000 0.827502 0.250000
O O5 0.239495 0.378764 0.567708
O O6 0.195864 0.447323 0.699517
O O7 0.000000 0.500000 0.500000
O O8 0.500000 0.340481 0.750000
O O9 0.480346 0.291833 0.583095
O O10 0.309147 0.215211 0.640015
O O11 0.226962 0.126606 0.123136
O O12 0.980055 0.170848 0.926969
O O13 0.500000 0.957309 0.750000
O O14 0.232469 0.044361 0.637950
#
# Coordination Sequence:
#
# PCOD9306017 Si02
#       6
#     8   8   8   8   8   8
#     4  11  25  43  67  96 135 170 214 271 326 383
#     4  11  25  42  66  97 130 172 216 266 327 385
#     4  12  22  44  70  94 132 171 218 267 318 387
#     4  12  25  43  69  97 130 174 216 265 325 385
#     4  11  25  42  64  96 134 166 214 271 322 379
#     4  11  25  42  67 100 128 169 219 266 322 383
#
# _framework density 24.341000999999999
#
# number of rings (size 3 to 8) (size 9 to 14) (size 15 to 20)
#    0.000    0.667    3.333    3.500    7.000    2.000 
#    0.000    0.000    0.000    0.000    0.000    0.000 
#    0.000    0.000    0.000    0.000    0.000    0.000 
#
# Total GULP energy -134538.740286 kJ/mol
# GULP energy per Si atom -5605.780845 kJ/mol
# Density = 2.428560 g / cm^3
# Si number density = 24.341001 Si / 1000 Ang^3
#
#
#
# Elastic Constant Matrix: (Units=GPa)
#
#
# Indices 1 2 3 4 5 6 
#
# 1 48.7772 6.5062 -19.2796 0.0000 -0.0587 0.0000
# 2 6.5062 93.9446 -11.5258 0.0000 -3.0643 0.0000
# 3 -19.2796 -11.5258 80.0990 0.0000 3.3271 0.0000
# 4 0.0000 0.0000 0.0000 46.8045 0.0000 19.2268
# 5 -0.0587 -3.0643 3.3271 0.0000 41.3952 0.0000
# 6 0.0000 0.0000 0.0000 19.2268 0.0000 31.7289
#
#
#
# Elastic Compliance Matrix: (Units=1/GPa)
#
#
# Indices 1 2 3 4 5 6 
#
# 1 0.022744 -0.000933 0.005360 0.000000 -0.000468 0.000000
# 2 -0.000933 0.010893 0.001314 0.000000 0.000699 0.000000
# 3 0.005360 0.001314 0.014006 0.000000 -0.001021 0.000000
# 4 0.000000 0.000000 0.000000 0.028447 0.000000 -0.017238
# 5 -0.000468 0.000699 -0.001021 0.000000 0.024291 0.000000
# 6 0.000000 0.000000 0.000000 -0.017238 0.000000 0.041963
#
#
# Mechanical properties :
#
#
# Convention : Reuss Voigt Hill
#
# Bulk Modulus (GPa) = 16.91362 19.35805 18.13584
# Shear Modulus (GPa) = 33.20728 40.46039 36.83383
#
# Velocity S-wave (km/s) = 3.69759 4.08147 3.89426
# Velocity P-wave (km/s) = 5.01929 5.49375 5.26187
#
# Compressibility (1/GPa) = 0.05912395
#
# Stress axis : x y z
#
# Youngs Moduli (GPa) = 43.96839 91.80050 71.39782
#
# Poissons Ratio (x) = 0.08563 -0.38266
# Poissons Ratio (y) = 0.04102 -0.09381
# Poissons Ratio (z) = -0.23565 -0.12062
#
# Static dielectric constant tensor:
#      x y z
#    x 1.948700 0.000000 -0.017130 
#    y 0.000000 1.905910 0.000000 
#    z -0.017130 0.000000 1.929290 
# 
# From -- ./inp_files/182529.got.cif
#   From: 2010.05.17/outbox.cif.g08.bks.cpg/sg15_92_cif.got.tgz:182529.got - 2010.06.03 18:47:42.
