data_PCOD9306638
_publ_section_title
;
Structure prediction by ZEFSAII (Michael W. Deem and Ramdas Pophale) SiO2 
 PCOD9306638
Probable space group: C 2/C
;
_chemical_formula_sum "Si O2"
_cell_formula_units_Z 44
_cell_length_a 16.588493
_cell_length_b 8.123464
_cell_length_c 28.041931
_cell_angle_alpha 90.000000
_cell_angle_beta 28.910059
_cell_angle_gamma 90.000000
_cell_volume 1826.817509
_symmetry_space_group_name_H-M "C 2/C"
_symmetry_group_IT_number 15
_symmetry_cell_setting 'monoclinic'
loop_
_space_group_symop_operation_xyz
x,y,z
-x,y,1/2-z
-x,-y,-z
x,-y,1/2+z
1/2+x,1/2+y,z
1/2-x,1/2+y,1/2-z
1/2-x,1/2-y,-z
1/2+x,1/2-y,1/2+z
loop_
_atom_site_type_symbol
_atom_site_label
_atom_site_fract_x
_atom_site_fract_y
_atom_site_fract_z
Si Si1 0.014571 0.930613 0.044544
Si Si2 0.722631 0.424620 0.708969
Si Si3 0.699087 0.879692 0.427873
Si Si4 0.835253 0.072222 0.444090
Si Si5 0.000000 0.631856 0.250000
Si Si6 0.672796 0.961916 0.248653
O O1 0.856982 0.034055 0.146511
O O2 0.154142 0.979216 0.010790
O O3 0.041191 0.737008 0.020184
O O4 0.000000 0.000000 0.000000
O O5 0.780287 0.505212 0.629369
O O6 0.522276 0.453698 0.823579
O O7 0.714922 0.227464 0.716571
O O8 0.844381 0.500415 0.686811
O O9 0.846584 0.747124 0.343491
O O10 0.724384 0.987044 0.461648
O O11 0.750000 0.250000 0.500000
O O12 0.052506 0.528078 0.269892
#
# Coordination Sequence:
#
# PCOD9306638 Si02
#       6
#     8   8   8   8   4   8
#     4  11  26  47  69 105 147 186 236 304 363 427
#     4  11  26  47  75 106 145 192 245 295 357 438
#     4  12  25  48  76 103 145 194 248 296 361 431
#     4  11  27  46  71 109 149 188 242 297 362 430
#     4  12  24  44  78 100 142 192 246 298 354 428
#     4  11  27  45  74 106 146 190 241 299 369 424
#
# _framework density 24.085602000000002
#
# number of rings (size 3 to 8) (size 9 to 14) (size 15 to 20)
#    0.000    0.727    3.636    1.636   12.727    2.182 
#    0.000    0.000    0.000    0.000    0.000    0.000 
#    0.000    0.000    0.000    0.000    0.000    0.000 
#
# Total GULP energy -122557.034964 kJ/mol
# GULP energy per Si atom -5570.774317 kJ/mol
# Density = 2.403078 g / cm^3
# Si number density = 24.085602 Si / 1000 Ang^3
#
#
#
# Elastic Constant Matrix: (Units=GPa)
#
#
# Indices 1 2 3 4 5 6 
#
# 1 254.9627 115.7319 50.1335 -0.0002 37.2172 -0.0008
# 2 115.7319 129.7592 14.6682 -0.0001 17.9430 0.0001
# 3 50.1335 14.6682 81.3318 -0.0004 -0.9516 0.0002
# 4 -0.0002 -0.0001 -0.0004 19.6152 0.0001 13.4959
# 5 37.2172 17.9430 -0.9516 0.0001 32.5819 0.0003
# 6 -0.0008 0.0001 0.0002 13.4959 0.0003 55.7935
#
#
#
# Elastic Compliance Matrix: (Units=1/GPa)
#
#
# Indices 1 2 3 4 5 6 
#
# 1 0.008512 -0.006230 -0.004198 0.000000 -0.006415 0.000000
# 2 -0.006230 0.013104 0.001476 0.000000 -0.000057 0.000000
# 3 -0.004198 0.001476 0.014669 0.000000 0.004411 0.000000
# 4 0.000000 0.000000 0.000000 0.061160 0.000000 -0.014794
# 5 -0.006415 -0.000057 0.004411 0.000000 0.038179 0.000000
# 6 0.000000 0.000000 0.000000 -0.014794 0.000000 0.021502
#
#
# Mechanical properties :
#
#
# Convention : Reuss Voigt Hill
#
# Bulk Modulus (GPa) = 54.40564 91.90233 73.15398
# Shear Modulus (GPa) = 27.60042 40.63278 34.11660
#
# Velocity S-wave (km/s) = 3.38883 4.11179 3.76769
# Velocity P-wave (km/s) = 6.16034 7.79626 7.02608
#
# Compressibility (1/GPa) = 0.01838045
#
# Stress axis : x y z
#
# Youngs Moduli (GPa) = 117.48090 76.31067 68.17317
#
# Poissons Ratio (x) = 0.47544 0.28621
# Poissons Ratio (y) = 0.73194 -0.10065
# Poissons Ratio (z) = 0.49322 -0.11266
#
# Static dielectric constant tensor:
#      x y z
#    x 1.936960 0.000000 -0.006770 
#    y 0.000000 1.949490 0.000000 
#    z -0.006770 0.000000 2.362540 
# 
# From -- ./inp_files/315477.got.cif
#   From: 2010.05.17/outbox.cif.g08.bks.cpg/sg15_158_cif.got.tgz:315477.got - 2010.06.03 18:47:42.
