data_PCOD9306596
_publ_section_title
;
Structure prediction by ZEFSAII (Michael W. Deem and Ramdas Pophale) SiO2 
 PCOD9306596
Probable space group: C 2/C
;
_chemical_formula_sum "Si O2"
_cell_formula_units_Z 32
_cell_length_a 8.389380
_cell_length_b 17.953260
_cell_length_c 10.019307
_cell_angle_alpha 90.000000
_cell_angle_beta 114.252438
_cell_angle_gamma 90.000000
_cell_volume 1375.891078
_symmetry_space_group_name_H-M "C 2/C"
_symmetry_group_IT_number 15
_symmetry_cell_setting 'monoclinic'
loop_
_space_group_symop_operation_xyz
x,y,z
-x,y,1/2-z
-x,-y,-z
x,-y,1/2+z
1/2+x,1/2+y,z
1/2-x,1/2+y,1/2-z
1/2-x,1/2-y,-z
1/2+x,1/2-y,1/2+z
loop_
_atom_site_type_symbol
_atom_site_label
_atom_site_fract_x
_atom_site_fract_y
_atom_site_fract_z
Si Si1 0.000000 0.112364 0.250000
Si Si2 0.879157 0.454637 0.824250
Si Si3 0.639857 0.889492 0.134449
Si Si4 0.550761 0.260400 0.971875
Si Si5 0.000000 0.185247 0.750000
O O1 0.814756 0.070427 0.197247
O O2 0.005297 0.164377 0.120588
O O3 0.841807 0.540143 0.760841
O O4 0.000000 0.419470 0.750000
O O5 0.005530 0.429096 0.988249
O O6 0.555137 0.808820 0.125586
O O7 0.834611 0.866877 0.160861
O O8 0.750000 0.250000 0.000000
O O9 0.531679 0.267344 0.125579
#
# Coordination Sequence:
#
# PCOD9306596 Si02
#       5
#     4   8   8   8   4
#     4  12  25  50  78 113 148 204 256 312 381 452
#     4  11  26  46  75 105 157 198 253 310 384 451
#     4  11  26  46  68 111 143 200 248 313 370 458
#     4  12  26  47  77 109 152 192 256 316 378 447
#     4  12  27  44  80 105 148 198 252 312 389 440
#
# _framework density 23.257656000000001
#
# number of rings (size 3 to 8) (size 9 to 14) (size 15 to 20)
#    0.000    0.500    2.500    4.500    7.000    0.000 
#    0.000    6.250    0.000    0.000    0.000    0.000 
#    0.000    0.000    0.000    0.000    0.000    0.000 
#
# Total GULP energy -89094.295764 kJ/mol
# GULP energy per Si atom -5568.393485 kJ/mol
# Density = 2.320472 g / cm^3
# Si number density = 23.257656 Si / 1000 Ang^3
#
#
#
# Elastic Constant Matrix: (Units=GPa)
#
#
# Indices 1 2 3 4 5 6 
#
# 1 195.4243 70.2568 51.1985 0.0000 23.9207 0.0000
# 2 70.2568 115.1522 17.0158 0.0000 0.1366 0.0000
# 3 51.1985 17.0158 65.3796 0.0000 -17.6529 0.0000
# 4 0.0000 0.0000 0.0000 -15.2715 0.0000 3.8950
# 5 23.9207 0.1366 -17.6529 0.0000 58.0079 0.0000
# 6 0.0000 0.0000 0.0000 3.8950 0.0000 76.0332
#
#
#
# Elastic Compliance Matrix: (Units=1/GPa)
#
#
# Indices 1 2 3 4 5 6 
#
# 1 0.009752 -0.004737 -0.008157 0.000000 -0.006492 0.000000
# 2 -0.004737 0.011367 0.001385 0.000000 0.002348 0.000000
# 3 -0.008157 0.001385 0.024220 0.000000 0.010731 0.000000
# 4 0.000000 0.000000 0.000000 -0.064637 0.000000 0.003311
# 5 -0.006492 0.002348 0.010731 0.000000 0.023176 0.000000
# 6 0.000000 0.000000 0.000000 0.003311 0.000000 0.012983
#
#
# Mechanical properties :
#
#
# Convention : Reuss Voigt Hill
#
# Bulk Modulus (GPa) = 44.80056 72.54425 58.67240
# Shear Modulus (GPa) = 105.67090 39.58624 72.62857
#
# Velocity S-wave (km/s) = 6.74785 4.13010 5.59425
# Velocity P-wave (km/s) = 8.94516 7.34866 8.18593
#
# Compressibility (1/GPa) = 0.02232115
#
# Stress axis : x y z
#
# Youngs Moduli (GPa) = 102.54817 87.97662 41.28892
#
# Poissons Ratio (x) = 0.41671 0.33678
# Poissons Ratio (y) = 0.48573 -0.05718
# Poissons Ratio (z) = 0.83644 -0.12184
#
# Static dielectric constant tensor:
#      x y z
#    x 1.926300 0.000000 -0.047360 
#    y 0.000000 2.208260 0.000000 
#    z -0.047360 0.000000 2.191270 
# 
# From -- ./inp_files/75565.got.cif
#   From: 2010.05.17/outbox.cif.g08.bks.cpg/sg15_38_cif.got.tgz:75565.got - 2010.06.03 18:47:42.
