data_PCOD9306536
_publ_section_title
;
Structure prediction by ZEFSAII (Michael W. Deem and Ramdas Pophale) SiO2 
 PCOD9306536
Probable space group: C 2/C
;
_chemical_formula_sum "Si O2"
_cell_formula_units_Z 36
_cell_length_a 11.638479
_cell_length_b 7.051712
_cell_length_c 17.698289
_cell_angle_alpha 90.000000
_cell_angle_beta 68.803174
_cell_angle_gamma 90.000000
_cell_volume 1354.247926
_symmetry_space_group_name_H-M "C 2/C"
_symmetry_group_IT_number 15
_symmetry_cell_setting 'monoclinic'
loop_
_space_group_symop_operation_xyz
x,y,z
-x,y,1/2-z
-x,-y,-z
x,-y,1/2+z
1/2+x,1/2+y,z
1/2-x,1/2+y,1/2-z
1/2-x,1/2-y,-z
1/2+x,1/2-y,1/2+z
loop_
_atom_site_type_symbol
_atom_site_label
_atom_site_fract_x
_atom_site_fract_y
_atom_site_fract_z
Si Si1 0.527172 0.292258 0.898670
Si Si2 0.000000 0.812622 0.250000
Si Si3 0.124326 0.823984 0.422104
Si Si4 0.767984 0.474501 0.196930
Si Si5 0.364896 0.977193 0.345960
O O1 0.540473 0.518052 0.900916
O O2 0.660811 0.197438 0.860284
O O3 0.449804 0.199258 0.849574
O O4 0.455450 0.236768 0.992006
O O5 0.877441 0.937086 0.267776
O O6 0.950460 0.664035 0.326838
O O7 0.315978 0.978116 0.271464
O O8 0.241305 0.948219 0.424583
O O9 0.687561 0.161931 0.356855
#
# Coordination Sequence:
#
# PCOD9306536 Si02
#       5
#     8   4   8   8   8
#     4  11  25  52  80 120 166 214 279 338 416 494
#     4  12  26  48  78 118 164 214 278 336 410 488
#     4  11  27  48  83 119 163 223 271 339 420 491
#     4  12  26  51  79 120 161 217 278 338 406 491
#     4  12  25  49  78 116 164 211 276 334 412 480
#
# _framework density 26.583020999999999
#
# number of rings (size 3 to 8) (size 9 to 14) (size 15 to 20)
#    0.000    0.444    4.444    2.667    0.000    4.444 
#    0.000    3.333    0.000    0.000    0.000    0.000 
#    0.000    0.000    0.000    0.000    0.000    0.000 
#
# Total GULP energy -100823.504848 kJ/mol
# GULP energy per Si atom -5601.305825 kJ/mol
# Density = 2.652252 g / cm^3
# Si number density = 26.583021 Si / 1000 Ang^3
#
#
#
# Elastic Constant Matrix: (Units=GPa)
#
#
# Indices 1 2 3 4 5 6 
#
# 1 197.2577 84.4241 72.0900 0.0000 -31.9980 0.0000
# 2 84.4241 176.8839 65.6303 0.0000 11.0640 0.0000
# 3 72.0900 65.6303 173.6249 0.0000 -35.6763 0.0000
# 4 0.0000 0.0000 0.0000 4.2322 0.0000 -25.0650
# 5 -31.9980 11.0640 -35.6763 0.0000 37.9975 0.0000
# 6 0.0000 0.0000 0.0000 -25.0650 0.0000 51.2809
#
#
#
# Elastic Compliance Matrix: (Units=1/GPa)
#
#
# Indices 1 2 3 4 5 6 
#
# 1 0.008354 -0.004475 -0.000079 0.000000 0.008264 0.000000
# 2 -0.004475 0.009948 -0.004054 0.000000 -0.010472 0.000000
# 3 -0.000079 -0.004054 0.009359 0.000000 0.009902 0.000000
# 4 0.000000 0.000000 0.000000 -0.124704 0.000000 -0.060952
# 5 0.008264 -0.010472 0.009902 0.000000 0.045622 0.000000
# 6 0.000000 0.000000 0.000000 -0.060952 0.000000 -0.010292
#
#
# Mechanical properties :
#
#
# Convention : Reuss Voigt Hill
#
# Bulk Modulus (GPa) = 95.73431 110.22836 102.98134
# Shear Modulus (GPa) = -121.91268 40.41029 -40.75119
#
# Velocity S-wave (km/s) = -6.77943 3.90315 -3.91957
# Velocity P-wave (km/s) = 5.01890 7.86565 4.28247
#
# Compressibility (1/GPa) = 0.01044558
#
# Stress axis : x y z
#
# Youngs Moduli (GPa) = 119.70184 100.51819 106.84336
#
# Poissons Ratio (x) = 0.44980 0.00846
# Poissons Ratio (y) = 0.53564 0.43317
# Poissons Ratio (z) = 0.00948 0.40753
#
# Static dielectric constant tensor:
#      x y z
#    x 2.150850 0.000000 0.033130 
#    y 0.000000 2.133760 0.000000 
#    z 0.033130 0.000000 2.078530 
# 
# From -- ./inp_files/241880.got.cif
#   From: 2010.05.17/outbox.cif.g08.bks.cpg/sg15_121_cif.got.tgz:241880.got - 2010.06.03 18:47:42.
