data_PCOD9306601
_publ_section_title
;
Structure prediction by ZEFSAII (Michael W. Deem and Ramdas Pophale) SiO2 
 PCOD9306601
Probable space group: C 2/C
;
_chemical_formula_sum "Si O2"
_cell_formula_units_Z 40
_cell_length_a 15.698642
_cell_length_b 5.140903
_cell_length_c 25.070213
_cell_angle_alpha 90.000000
_cell_angle_beta 121.986062
_cell_angle_gamma 90.000000
_cell_volume 1716.113473
_symmetry_space_group_name_H-M "C 2/C"
_symmetry_group_IT_number 15
_symmetry_cell_setting 'monoclinic'
loop_
_space_group_symop_operation_xyz
x,y,z
-x,y,1/2-z
-x,-y,-z
x,-y,1/2+z
1/2+x,1/2+y,z
1/2-x,1/2+y,1/2-z
1/2-x,1/2-y,-z
1/2+x,1/2-y,1/2+z
loop_
_atom_site_type_symbol
_atom_site_label
_atom_site_fract_x
_atom_site_fract_y
_atom_site_fract_z
Si Si1 0.615179 0.076073 0.383269
Si Si2 0.302422 0.306927 0.792334
Si Si3 0.834310 0.031784 0.418912
Si Si4 0.017799 0.085451 0.314556
Si Si5 0.487226 0.808744 0.544038
O O1 0.594664 0.380820 0.366025
O O2 0.561695 0.043526 0.422642
O O3 0.729598 0.991630 0.414179
O O4 0.559566 0.876649 0.325936
O O5 0.229080 0.537380 0.746813
O O6 0.304818 0.287265 0.857894
O O7 0.413087 0.393584 0.810458
O O8 0.902782 0.815367 0.411897
O O9 0.906712 0.111315 0.491989
O O10 0.000000 0.981474 0.250000
O O11 0.500000 0.000000 0.500000
#
# Coordination Sequence:
#
# PCOD9306601 Si02
#       5
#     8   8   8   8   8
#     4  12  26  46  73 105 147 187 245 304 367 439
#     4  12  25  44  73 103 142 187 238 297 362 435
#     4  11  26  46  70 108 138 195 240 296 371 428
#     4  12  25  46  70 107 147 189 242 302 365 442
#     4  11  26  46  74 101 148 189 245 304 356 448
#
# _framework density 23.308481
#
# number of rings (size 3 to 8) (size 9 to 14) (size 15 to 20)
#    0.000    0.400    2.000    6.000    8.400    0.800 
#    0.000    0.000    0.000    0.000    0.000    0.000 
#    0.000    0.000    0.000    0.000    0.000    0.000 
#
# Total GULP energy -111665.696059 kJ/mol
# GULP energy per Si atom -5583.284803 kJ/mol
# Density = 2.325543 g / cm^3
# Si number density = 23.308481 Si / 1000 Ang^3
#
#
#
# Elastic Constant Matrix: (Units=GPa)
#
#
# Indices 1 2 3 4 5 6 
#
# 1 167.3004 15.8709 23.9734 0.0002 24.8461 0.0004
# 2 15.8709 72.8449 23.5745 0.0012 11.7286 0.0024
# 3 23.9734 23.5745 50.6981 0.0000 5.7621 -0.0003
# 4 0.0002 0.0012 0.0000 92.0755 0.0001 111.2730
# 5 24.8461 11.7286 5.7621 0.0001 33.9717 0.0003
# 6 0.0004 0.0024 -0.0003 111.2730 0.0003 264.6030
#
#
#
# Elastic Compliance Matrix: (Units=1/GPa)
#
#
# Indices 1 2 3 4 5 6 
#
# 1 0.007080 0.000153 -0.002880 0.000000 -0.004742 0.000000
# 2 0.000153 0.016831 -0.007368 0.000000 -0.004673 0.000000
# 3 -0.002880 -0.007368 0.024455 0.000000 0.000502 0.000000
# 4 0.000000 0.000000 0.000000 0.022084 0.000000 -0.009287
# 5 -0.004742 -0.004673 0.000502 0.000000 0.034433 0.000000
# 6 0.000000 0.000000 0.000000 -0.009287 0.000000 0.007685
#
#
# Mechanical properties :
#
#
# Convention : Reuss Voigt Hill
#
# Bulk Modulus (GPa) = 35.48979 46.40901 40.94940
# Shear Modulus (GPa) = 35.17426 93.29167 64.23296
#
# Velocity S-wave (km/s) = 3.88890 6.33338 5.25524
# Velocity P-wave (km/s) = 5.95180 8.56949 7.37767
#
# Compressibility (1/GPa) = 0.02817712
#
# Stress axis : x y z
#
# Youngs Moduli (GPa) = 141.24842 59.41321 40.89083
#
# Poissons Ratio (x) = -0.00910 0.11776
# Poissons Ratio (y) = -0.02163 0.30127
# Poissons Ratio (z) = 0.40679 0.43774
#
# Static dielectric constant tensor:
#      x y z
#    x 1.854970 0.000000 0.071260 
#    y 0.000000 1.813100 -0.000010 
#    z 0.071260 -0.000010 2.728590 
# 
# From -- ./inp_files/271677.got.cif
#   From: 2010.05.17/outbox.cif.g08.bks.cpg/sg15_136_cif.got.tgz:271677.got - 2010.06.03 18:47:42.
