data_PCOD9306854
_publ_section_title
;
Structure prediction by ZEFSAII (Michael W. Deem and Ramdas Pophale) SiO2 
 PCOD9306854
Probable space group: C 2/C
;
_chemical_formula_sum "Si O2"
_cell_formula_units_Z 28
_cell_length_a 15.969832
_cell_length_b 7.798597
_cell_length_c 17.581031
_cell_angle_alpha 90.000000
_cell_angle_beta 150.491180
_cell_angle_gamma 90.000000
_cell_volume 1078.494992
_symmetry_space_group_name_H-M "C 2/C"
_symmetry_group_IT_number 15
_symmetry_cell_setting 'monoclinic'
loop_
_space_group_symop_operation_xyz
x,y,z
-x,y,1/2-z
-x,-y,-z
x,-y,1/2+z
1/2+x,1/2+y,z
1/2-x,1/2+y,1/2-z
1/2-x,1/2-y,-z
1/2+x,1/2-y,1/2+z
loop_
_atom_site_type_symbol
_atom_site_label
_atom_site_fract_x
_atom_site_fract_y
_atom_site_fract_z
Si Si1 0.946025 0.896996 0.856808
Si Si2 0.325962 0.928118 0.968072
Si Si3 0.189868 0.803259 0.599727
Si Si4 0.500000 0.064986 0.250000
O O1 0.864504 0.889384 0.709532
O O2 0.800902 0.869034 0.806237
O O3 0.068173 0.738375 0.969672
O O4 0.047969 0.071203 0.951609
O O5 0.361208 0.106360 0.951934
O O6 0.376763 0.962660 0.095276
O O7 0.366986 0.829634 0.695799
#
# Coordination Sequence:
#
# PCOD9306854 Si02
#       4
#     8   8   8   4
#     4  11  28  47  82 109 149 206 261 300 380 451
#     4  12  27  49  77 111 156 197 253 316 370 461
#     4  11  27  50  76 115 149 201 254 317 375 455
#     4  12  28  48  80 114 158 198 248 320 398 428
#
# _framework density 25.962105000000001
#
# number of rings (size 3 to 8) (size 9 to 14) (size 15 to 20)
#    0.000    0.571    0.000    5.143   16.000    5.714 
#    0.000    1.429    0.000    0.000    0.000    0.000 
#    0.000    0.000    0.000    0.000    0.000    0.000 
#
# Total GULP energy -78474.953765 kJ/mol
# GULP energy per Si atom -5605.353840 kJ/mol
# Density = 2.590301 g / cm^3
# Si number density = 25.962105 Si / 1000 Ang^3
#
#
#
# Elastic Constant Matrix: (Units=GPa)
#
#
# Indices 1 2 3 4 5 6 
#
# 1 97.2976 54.1128 33.4031 0.0000 9.2888 0.0000
# 2 54.1128 176.1339 58.4149 0.0000 12.7954 0.0000
# 3 33.4031 58.4149 184.5291 0.0000 -30.9663 0.0000
# 4 0.0000 0.0000 0.0000 43.7423 0.0000 -6.9234
# 5 9.2888 12.7954 -30.9663 0.0000 37.3339 0.0000
# 6 0.0000 0.0000 0.0000 -6.9234 0.0000 20.4012
#
#
#
# Elastic Compliance Matrix: (Units=1/GPa)
#
#
# Indices 1 2 3 4 5 6 
#
# 1 0.013049 -0.003044 -0.002054 0.000000 -0.003907 0.000000
# 2 -0.003044 0.007765 -0.002587 0.000000 -0.004049 0.000000
# 3 -0.002054 -0.002587 0.007951 0.000000 0.007993 0.000000
# 4 0.000000 0.000000 0.000000 0.024159 0.000000 0.008199
# 5 -0.003907 -0.004049 0.007993 0.000000 0.035775 0.000000
# 6 0.000000 0.000000 0.000000 0.008199 0.000000 0.051799
#
#
# Mechanical properties :
#
#
# Convention : Reuss Voigt Hill
#
# Bulk Modulus (GPa) = 74.65202 83.31360 78.98281
# Shear Modulus (GPa) = 31.18547 41.09746 36.14147
#
# Velocity S-wave (km/s) = 3.46958 3.98298 3.73511
# Velocity P-wave (km/s) = 6.69831 7.30153 7.00641
#
# Compressibility (1/GPa) = 0.01339548
#
# Stress axis : x y z
#
# Youngs Moduli (GPa) = 76.63527 128.78948 125.76903
#
# Poissons Ratio (x) = 0.39201 0.25835
# Poissons Ratio (y) = 0.23326 0.32530
# Poissons Ratio (z) = 0.15742 0.33311
#
# Static dielectric constant tensor:
#      x y z
#    x 2.086520 0.000000 0.016660 
#    y 0.000000 1.964570 0.000000 
#    z 0.016660 0.000000 2.003330 
# 
# From -- ./inp_files/53331.got.cif
#   From: 2010.05.17/outbox.cif.g08.bks.cpg/sg15_27_cif.got.tgz:53331.got - 2010.06.03 18:47:42.
