data_PCOD9306674
_publ_section_title
;
Structure prediction by ZEFSAII (Michael W. Deem and Ramdas Pophale) SiO2 
 PCOD9306674
Probable space group: C 2/C
;
_chemical_formula_sum "Si O2"
_cell_formula_units_Z 32
_cell_length_a 15.796803
_cell_length_b 9.137188
_cell_length_c 9.643601
_cell_angle_alpha 90.000000
_cell_angle_beta 112.906936
_cell_angle_gamma 90.000000
_cell_volume 1282.170655
_symmetry_space_group_name_H-M "C 2/C"
_symmetry_group_IT_number 15
_symmetry_cell_setting 'monoclinic'
loop_
_space_group_symop_operation_xyz
x,y,z
-x,y,1/2-z
-x,-y,-z
x,-y,1/2+z
1/2+x,1/2+y,z
1/2-x,1/2+y,1/2-z
1/2-x,1/2-y,-z
1/2+x,1/2-y,1/2+z
loop_
_atom_site_type_symbol
_atom_site_label
_atom_site_fract_x
_atom_site_fract_y
_atom_site_fract_z
Si Si1 0.642366 0.578824 0.658064
Si Si2 0.402193 0.057906 0.990950
Si Si3 0.469469 0.686396 0.369536
Si Si4 0.695451 0.885240 0.794160
O O1 0.560618 0.647659 0.513661
O O2 0.586754 0.458031 0.711228
O O3 0.691640 0.709912 0.772827
O O4 0.714584 0.482177 0.616239
O O5 0.402609 0.217286 0.920689
O O6 0.331177 0.949354 0.873017
O O7 0.379781 0.075598 0.137308
O O8 0.500000 0.000000 0.000000
O O9 0.500000 0.767554 0.250000
#
# Coordination Sequence:
#
# PCOD9306674 Si02
#       4
#     8   8   8   8
#     4  11  28  47  77 111 152 197 253 311 377 443
#     4  12  26  48  78 110 151 199 251 307 377 447
#     4  11  26  47  77 109 153 199 251 308 376 450
#     4  12  28  48  78 112 152 196 253 314 373 448
#
# _framework density 24.957675999999999
#
# number of rings (size 3 to 8) (size 9 to 14) (size 15 to 20)
#    0.000    0.500    2.500    3.750   10.500    3.000 
#    0.000    0.000    0.000    0.000    0.000    0.000 
#    0.000    0.000    0.000    0.000    0.000    0.000 
#
# Total GULP energy -89467.956748 kJ/mol
# GULP energy per Si atom -5591.747297 kJ/mol
# Density = 2.490087 g / cm^3
# Si number density = 24.957676 Si / 1000 Ang^3
#
#
#
# Elastic Constant Matrix: (Units=GPa)
#
#
# Indices 1 2 3 4 5 6 
#
# 1 133.1169 57.3350 19.9339 0.0000 -14.6071 0.0000
# 2 57.3350 165.6717 24.1414 0.0000 -4.3652 0.0000
# 3 19.9339 24.1414 36.0645 0.0000 -21.6077 0.0000
# 4 0.0000 0.0000 0.0000 30.0507 0.0000 10.8381
# 5 -14.6071 -4.3652 -21.6077 0.0000 41.0166 0.0000
# 6 0.0000 0.0000 0.0000 10.8381 0.0000 51.8048
#
#
#
# Elastic Compliance Matrix: (Units=1/GPa)
#
#
# Indices 1 2 3 4 5 6 
#
# 1 0.009260 -0.002853 -0.002067 0.000000 0.001905 0.000000
# 2 -0.002853 0.007734 -0.005430 0.000000 -0.003053 0.000000
# 3 -0.002067 -0.005430 0.046346 0.000000 0.023101 0.000000
# 4 0.000000 0.000000 0.000000 0.035993 0.000000 -0.007530
# 5 0.001905 -0.003053 0.023101 0.000000 0.036904 0.000000
# 6 0.000000 0.000000 0.000000 -0.007530 0.000000 0.020879
#
#
# Mechanical properties :
#
#
# Convention : Reuss Voigt Hill
#
# Bulk Modulus (GPa) = 23.45170 59.74154 41.59662
# Shear Modulus (GPa) = 26.03798 40.13728 33.08763
#
# Velocity S-wave (km/s) = 3.23350 4.01460 3.64503
# Velocity P-wave (km/s) = 4.83298 6.74378 5.86669
#
# Compressibility (1/GPa) = 0.04264083
#
# Stress axis : x y z
#
# Youngs Moduli (GPa) = 107.99557 129.29602 21.57692
#
# Poissons Ratio (x) = 0.36891 0.04459
# Poissons Ratio (y) = 0.30813 0.11715
# Poissons Ratio (z) = 0.22319 0.70202
#
# Static dielectric constant tensor:
#      x y z
#    x 1.984680 0.000000 0.082280 
#    y 0.000000 2.055750 0.000000 
#    z 0.082280 0.000000 1.913510 
# 
# From -- ./inp_files/93574.got.cif
#   From: 2010.05.17/outbox.cif.g08.bks.cpg/sg15_47_cif.got.tgz:93574.got - 2010.06.03 18:47:42.
