data_PCOD9306819
_publ_section_title
;
Structure prediction by ZEFSAII (Michael W. Deem and Ramdas Pophale) SiO2 
 PCOD9306819
Probable space group: C 2/C
;
_chemical_formula_sum "Si O2"
_cell_formula_units_Z 32
_cell_length_a 8.383573
_cell_length_b 19.126898
_cell_length_c 8.670044
_cell_angle_alpha 90.000000
_cell_angle_beta 88.094174
_cell_angle_gamma 90.000000
_cell_volume 1389.487655
_symmetry_space_group_name_H-M "C 2/C"
_symmetry_group_IT_number 15
_symmetry_cell_setting 'monoclinic'
loop_
_space_group_symop_operation_xyz
x,y,z
-x,y,1/2-z
-x,-y,-z
x,-y,1/2+z
1/2+x,1/2+y,z
1/2-x,1/2+y,1/2-z
1/2-x,1/2-y,-z
1/2+x,1/2-y,1/2+z
loop_
_atom_site_type_symbol
_atom_site_label
_atom_site_fract_x
_atom_site_fract_y
_atom_site_fract_z
Si Si1 0.323369 0.677726 0.561200
Si Si2 0.202415 0.177290 0.573462
Si Si3 0.896405 0.448264 0.107582
Si Si4 0.114132 0.045004 0.111305
O O1 0.250000 0.750000 0.500000
O O2 0.515527 0.671299 0.544612
O O3 0.281245 0.675768 0.742237
O O4 0.283147 0.607043 0.470180
O O5 0.250000 0.250000 0.500000
O O6 0.319728 0.115809 0.514966
O O7 0.741712 0.490303 0.173540
O O8 0.000000 0.424875 0.250000
O O9 0.000000 0.500000 0.000000
O O10 0.000000 0.072642 0.250000
O O11 0.000000 0.000000 0.000000
#
# Coordination Sequence:
#
# PCOD9306819 Si02
#       4
#     8   8   8   8
#     4  11  27  47  74 105 143 196 250 308 379 449
#     4  11  27  48  71 104 150 192 247 311 375 450
#     4  12  27  46  74 111 148 193 251 311 374 452
#     4  12  25  48  77 106 150 201 251 313 384 450
#
# _framework density 23.030071
#
# number of rings (size 3 to 8) (size 9 to 14) (size 15 to 20)
#    0.000    0.500    2.500    4.500   10.500    0.000 
#    0.000    0.000    0.000    0.000    0.000    0.000 
#    0.000    0.000    0.000    0.000    0.000    0.000 
#
# Total GULP energy -89529.254414 kJ/mol
# GULP energy per Si atom -5595.578401 kJ/mol
# Density = 2.297765 g / cm^3
# Si number density = 23.030071 Si / 1000 Ang^3
#
#
#
# Elastic Constant Matrix: (Units=GPa)
#
#
# Indices 1 2 3 4 5 6 
#
# 1 122.6628 57.1058 23.8320 0.0000 11.1269 0.0000
# 2 57.1058 181.6708 39.8426 0.0000 0.6820 0.0000
# 3 23.8320 39.8426 72.1780 0.0000 -10.5299 0.0000
# 4 0.0000 0.0000 0.0000 41.7783 0.0000 -2.6736
# 5 11.1269 0.6820 -10.5299 0.0000 37.1048 0.0000
# 6 0.0000 0.0000 0.0000 -2.6736 0.0000 63.3892
#
#
#
# Elastic Compliance Matrix: (Units=1/GPa)
#
#
# Indices 1 2 3 4 5 6 
#
# 1 0.010199 -0.002657 -0.002441 0.000000 -0.003703 0.000000
# 2 -0.002657 0.007002 -0.003015 0.000000 -0.000188 0.000000
# 3 -0.002441 -0.003015 0.017150 0.000000 0.005654 0.000000
# 4 0.000000 0.000000 0.000000 0.024001 0.000000 0.001012
# 5 -0.003703 -0.000188 0.005654 0.000000 0.029669 0.000000
# 6 0.000000 0.000000 0.000000 0.001012 0.000000 0.015818
#
#
# Mechanical properties :
#
#
# Convention : Reuss Voigt Hill
#
# Bulk Modulus (GPa) = 55.17320 68.67471 61.92395
# Shear Modulus (GPa) = 39.64891 45.50319 42.57605
#
# Velocity S-wave (km/s) = 4.15374 4.44984 4.30433
# Velocity P-wave (km/s) = 6.85666 7.50238 7.18677
#
# Compressibility (1/GPa) = 0.01812474
#
# Stress axis : x y z
#
# Youngs Moduli (GPa) = 98.04421 142.82620 58.30916
#
# Poissons Ratio (x) = 0.37946 0.14235
# Poissons Ratio (y) = 0.26048 0.17580
# Poissons Ratio (z) = 0.23936 0.43062
#
# Static dielectric constant tensor:
#      x y z
#    x 2.113210 0.000000 0.065890 
#    y 0.000000 1.919030 0.000000 
#    z 0.065890 0.000000 1.879020 
# 
# From -- ./inp_files/22129.got.cif
#   From: 2010.05.17/outbox.cif.g08.bks.cpg/sg15_12_cif.got.tgz:22129.got - 2010.06.03 18:47:42.
