data_PCOD9306543
_publ_section_title
;
Structure prediction by ZEFSAII (Michael W. Deem and Ramdas Pophale) SiO2 
 PCOD9306543
Probable space group: C 2/C
;
_chemical_formula_sum "Si O2"
_cell_formula_units_Z 36
_cell_length_a 22.805053
_cell_length_b 7.643820
_cell_length_c 10.193026
_cell_angle_alpha 90.000000
_cell_angle_beta 133.861194
_cell_angle_gamma 90.000000
_cell_volume 1281.127435
_symmetry_space_group_name_H-M "C 2/C"
_symmetry_group_IT_number 15
_symmetry_cell_setting 'monoclinic'
loop_
_space_group_symop_operation_xyz
x,y,z
-x,y,1/2-z
-x,-y,-z
x,-y,1/2+z
1/2+x,1/2+y,z
1/2-x,1/2+y,1/2-z
1/2-x,1/2-y,-z
1/2+x,1/2-y,1/2+z
loop_
_atom_site_type_symbol
_atom_site_label
_atom_site_fract_x
_atom_site_fract_y
_atom_site_fract_z
Si Si1 0.361152 0.048347 0.850654
Si Si2 0.244026 0.552733 0.549758
Si Si3 0.078282 0.968314 0.716821
Si Si4 0.500000 0.837073 0.250000
Si Si5 0.466737 0.176900 0.360208
O O1 0.306450 0.050798 0.894301
O O2 0.300419 0.052616 0.635146
O O3 0.436206 0.184725 0.968294
O O4 0.416507 0.865320 0.918529
O O5 0.250000 0.750000 0.500000
O O6 0.333354 0.473937 0.710645
O O7 0.063042 0.814804 0.794406
O O8 0.000000 0.000000 0.500000
O O9 0.072844 0.162271 0.774114
O O10 0.455410 0.997438 0.264977
#
# Coordination Sequence:
#
# PCOD9306543 Si02
#       5
#     8   8   8   4   8
#     4  11  26  50  89 117 173 226 277 357 438 496
#     4  12  29  52  84 131 171 221 290 364 424 517
#     4  12  29  52  85 122 169 228 285 352 432 518
#     4  12  28  48  88 120 164 232 288 346 432 520
#     4  11  25  54  84 125 171 227 285 355 434 524
#
# _framework density 28.100249999999999
#
# number of rings (size 3 to 8) (size 9 to 14) (size 15 to 20)
#    0.000    0.444    2.222    4.667    6.222    4.444 
#    0.000    6.667    0.000    0.000    0.000    0.000 
#    0.000    0.000    0.000    0.000    0.000    0.000 
#
# Total GULP energy -100422.775567 kJ/mol
# GULP energy per Si atom -5579.043087 kJ/mol
# Density = 2.803629 g / cm^3
# Si number density = 28.100250 Si / 1000 Ang^3
#
#
#
# Elastic Constant Matrix: (Units=GPa)
#
#
# Indices 1 2 3 4 5 6 
#
# 1 298.6806 59.1637 98.1392 0.0000 6.5229 0.0000
# 2 59.1637 199.5005 30.7402 0.0000 0.0821 0.0000
# 3 98.1392 30.7402 146.7039 0.0000 38.0020 0.0000
# 4 0.0000 0.0000 0.0000 46.6528 0.0000 5.6737
# 5 6.5229 0.0821 38.0020 0.0000 64.7730 0.0000
# 6 0.0000 0.0000 0.0000 5.6737 0.0000 47.8314
#
#
#
# Elastic Compliance Matrix: (Units=1/GPa)
#
#
# Indices 1 2 3 4 5 6 
#
# 1 0.004549 -0.000851 -0.003239 0.000000 0.001443 0.000000
# 2 -0.000851 0.005369 -0.000680 0.000000 0.000478 0.000000
# 3 -0.003239 -0.000680 0.010661 0.000000 -0.005928 0.000000
# 4 0.000000 0.000000 0.000000 0.021749 0.000000 -0.002580
# 5 0.001443 0.000478 -0.005928 0.000000 0.018770 0.000000
# 6 0.000000 0.000000 0.000000 -0.002580 0.000000 0.021213
#
#
# Mechanical properties :
#
#
# Convention : Reuss Voigt Hill
#
# Bulk Modulus (GPa) = 90.57068 113.44125 102.00597
# Shear Modulus (GPa) = 52.33932 62.30758 57.32345
#
# Velocity S-wave (km/s) = 4.32046 4.71396 4.52149
# Velocity P-wave (km/s) = 7.56239 8.37176 7.97735
#
# Compressibility (1/GPa) = 0.01104110
#
# Stress axis : x y z
#
# Youngs Moduli (GPa) = 219.81624 186.24289 93.79902
#
# Poissons Ratio (x) = 0.15843 0.30380
# Poissons Ratio (y) = 0.18699 0.06376
# Poissons Ratio (z) = 0.71196 0.12660
#
# Static dielectric constant tensor:
#      x y z
#    x 2.093030 0.000000 0.405480 
#    y 0.000000 2.672280 0.000000 
#    z 0.405480 0.000000 1.301690 
# 
# From -- ./inp_files/121732.got.cif
#   From: 2010.05.17/outbox.cif.g08.bks.cpg/sg15_61_cif.got.tgz:121732.got - 2010.06.03 18:47:42.
