data_PCOD9306694
_publ_section_title
;
Structure prediction by ZEFSAII (Michael W. Deem and Ramdas Pophale) SiO2 
 PCOD9306694
Probable space group: C 2/C
;
_chemical_formula_sum "Si O2"
_cell_formula_units_Z 40
_cell_length_a 23.148905
_cell_length_b 6.033111
_cell_length_c 18.460657
_cell_angle_alpha 90.000000
_cell_angle_beta 140.469481
_cell_angle_gamma 90.000000
_cell_volume 1641.005061
_symmetry_space_group_name_H-M "C 2/C"
_symmetry_group_IT_number 15
_symmetry_cell_setting 'monoclinic'
loop_
_space_group_symop_operation_xyz
x,y,z
-x,y,1/2-z
-x,-y,-z
x,-y,1/2+z
1/2+x,1/2+y,z
1/2-x,1/2+y,1/2-z
1/2-x,1/2-y,-z
1/2+x,1/2-y,1/2+z
loop_
_atom_site_type_symbol
_atom_site_label
_atom_site_fract_x
_atom_site_fract_y
_atom_site_fract_z
Si Si1 0.352249 0.337853 0.113301
Si Si2 0.560699 0.011316 0.409984
Si Si3 0.584480 0.647828 0.056770
Si Si4 0.886357 0.790471 0.752543
Si Si5 0.307097 0.643953 0.947142
O O1 0.414876 0.152023 0.137570
O O2 0.378091 0.455510 0.214273
O O3 0.250000 0.250000 0.000000
O O4 0.358564 0.547791 0.066212
O O5 0.544451 0.174405 0.461868
O O6 0.480022 0.833438 0.324682
O O7 0.652974 0.887090 0.523375
O O8 0.624020 0.728098 0.170883
O O9 0.660660 0.509467 0.087347
O O10 0.500000 0.500000 0.000000
O O11 0.799005 0.656842 0.639762
#
# Coordination Sequence:
#
# PCOD9306694 Si02
#       5
#     8   8   8   8   8
#     4  11  26  52  73 110 155 197 260 327 374 463
#     4  11  26  52  73 108 164 193 258 327 374 471
#     4  11  26  48  74 113 153 195 261 315 379 469
#     4  12  26  47  83 110 147 216 252 310 412 449
#     4  11  26  49  71 112 152 196 256 318 383 466
#
# _framework density 24.375302999999999
#
# number of rings (size 3 to 8) (size 9 to 14) (size 15 to 20)
#    0.000    0.800    4.000    1.200    2.800    2.400 
#    7.200    0.000    0.000    0.000    0.000    0.000 
#    0.000    0.000    0.000    0.000    0.000    0.000 
#
# Total GULP energy -111898.025996 kJ/mol
# GULP energy per Si atom -5594.901300 kJ/mol
# Density = 2.431982 g / cm^3
# Si number density = 24.375303 Si / 1000 Ang^3
#
#
#
# Elastic Constant Matrix: (Units=GPa)
#
#
# Indices 1 2 3 4 5 6 
#
# 1 120.4379 46.0007 50.4725 0.0000 5.5746 0.0001
# 2 46.0007 91.2449 48.6965 0.0011 5.4598 0.0010
# 3 50.4725 48.6965 110.3760 0.0003 12.4878 0.0002
# 4 0.0000 0.0011 0.0003 44.2218 0.0003 6.6138
# 5 5.5746 5.4598 12.4878 0.0003 25.3410 0.0001
# 6 0.0001 0.0010 0.0002 6.6138 0.0001 63.2232
#
#
#
# Elastic Compliance Matrix: (Units=1/GPa)
#
#
# Indices 1 2 3 4 5 6 
#
# 1 0.011200 -0.003810 -0.003447 0.000000 0.000056 0.000000
# 2 -0.003810 0.015631 -0.005155 0.000000 0.000011 0.000000
# 3 -0.003447 -0.005155 0.013449 0.000000 -0.004759 0.000000
# 4 0.000000 0.000000 0.000000 0.022973 0.000000 -0.002403
# 5 0.000056 0.000011 -0.004759 0.000000 0.041792 0.000000
# 6 0.000000 0.000000 0.000000 -0.002403 0.000000 0.016068
#
#
# Mechanical properties :
#
#
# Convention : Reuss Voigt Hill
#
# Bulk Modulus (GPa) = 64.70135 68.04427 66.37281
# Shear Modulus (GPa) = 33.09290 38.34981 35.72136
#
# Velocity S-wave (km/s) = 3.68861 3.97080 3.83230
# Velocity P-wave (km/s) = 6.68899 6.99991 6.84622
#
# Compressibility (1/GPa) = 0.01545563
#
# Stress axis : x y z
#
# Youngs Moduli (GPa) = 89.28336 63.97526 74.35590
#
# Poissons Ratio (x) = 0.24377 0.25629
# Poissons Ratio (y) = 0.34020 0.38331
# Poissons Ratio (z) = 0.30775 0.32980
#
# Static dielectric constant tensor:
#      x y z
#    x 1.948330 0.000000 -0.090410 
#    y 0.000000 2.030890 0.000000 
#    z -0.090410 0.000000 2.121170 
# 
# From -- ./inp_files/254537.got.cif
#   From: 2010.05.17/outbox.cif.g08.bks.cpg/sg15_128_cif.got.tgz:254537.got - 2010.06.03 18:47:42.
