data_PCOD9306642
_publ_section_title
;
Structure prediction by ZEFSAII (Michael W. Deem and Ramdas Pophale) SiO2 
 PCOD9306642
Probable space group: C 2/C
;
_chemical_formula_sum "Si O2"
_cell_formula_units_Z 48
_cell_length_a 12.007668
_cell_length_b 7.211555
_cell_length_c 23.375506
_cell_angle_alpha 90.000000
_cell_angle_beta 70.367166
_cell_angle_gamma 90.000000
_cell_volume 1906.502154
_symmetry_space_group_name_H-M "C 2/C"
_symmetry_group_IT_number 15
_symmetry_cell_setting 'monoclinic'
loop_
_space_group_symop_operation_xyz
x,y,z
-x,y,1/2-z
-x,-y,-z
x,-y,1/2+z
1/2+x,1/2+y,z
1/2-x,1/2+y,1/2-z
1/2-x,1/2-y,-z
1/2+x,1/2-y,1/2+z
loop_
_atom_site_type_symbol
_atom_site_label
_atom_site_fract_x
_atom_site_fract_y
_atom_site_fract_z
Si Si1 0.081463 0.395483 0.404856
Si Si2 0.687713 0.311212 0.069522
Si Si3 0.993610 0.833515 0.314813
Si Si4 0.122252 0.158939 0.010778
Si Si5 0.056070 0.260525 0.180955
Si Si6 0.668667 0.682294 0.879833
O O1 0.204698 0.314462 0.405089
O O2 0.117855 0.610596 0.399107
O O3 0.976993 0.315890 0.463430
O O4 0.034615 0.324789 0.352208
O O5 0.585900 0.219250 0.125866
O O6 0.750000 0.250000 0.000000
O O7 0.621574 0.497196 0.057929
O O8 0.000000 0.752711 0.250000
O O9 0.115548 0.870610 0.327528
O O10 0.935617 0.036124 0.316668
O O11 0.123364 0.082599 0.945709
O O12 0.250000 0.250000 0.000000
O O13 0.189970 0.324222 0.146178
O O14 0.000000 0.323724 0.250000
#
# Coordination Sequence:
#
# PCOD9306642 Si02
#       6
#     8   8   8   8   8   8
#     4  12  23  45  70 100 146 187 239 298 362 432
#     4  12  27  44  71 110 142 188 248 297 368 436
#     4  11  26  50  70 102 144 188 241 300 361 433
#     4  12  23  44  67 105 146 185 235 297 366 431
#     4  11  26  47  70 102 142 191 242 300 365 429
#     4  12  26  44  73 104 142 188 238 300 364 436
#
# _framework density 25.176998999999999
#
# number of rings (size 3 to 8) (size 9 to 14) (size 15 to 20)
#    0.000    0.333    6.667    1.500    7.000    2.000 
#    0.000    0.000    0.000    0.000    0.000    0.000 
#    0.000    0.000    0.000    0.000    0.000    0.000 
#
# Total GULP energy -134191.279455 kJ/mol
# GULP energy per Si atom -5591.303311 kJ/mol
# Density = 2.511969 g / cm^3
# Si number density = 25.176999 Si / 1000 Ang^3
#
#
#
# Elastic Constant Matrix: (Units=GPa)
#
#
# Indices 1 2 3 4 5 6 
#
# 1 206.0985 9.8911 62.6773 0.0000 13.5099 0.0000
# 2 9.8911 83.9842 12.0483 0.0000 -10.2804 0.0000
# 3 62.6773 12.0483 221.9247 0.0000 18.1927 0.0000
# 4 0.0000 0.0000 0.0000 15.2780 0.0000 7.4284
# 5 13.5099 -10.2804 18.1927 0.0000 44.4154 0.0000
# 6 0.0000 0.0000 0.0000 7.4284 0.0000 32.2412
#
#
#
# Elastic Compliance Matrix: (Units=1/GPa)
#
#
# Indices 1 2 3 4 5 6 
#
# 1 0.005381 -0.000582 -0.001390 0.000000 -0.001202 0.000000
# 2 -0.000582 0.012505 -0.000793 0.000000 0.003396 0.000000
# 3 -0.001390 -0.000793 0.005093 0.000000 -0.001847 0.000000
# 4 0.000000 0.000000 0.000000 0.073711 0.000000 -0.016983
# 5 -0.001202 0.003396 -0.001847 0.000000 0.024423 0.000000
# 6 0.000000 0.000000 0.000000 -0.016983 0.000000 0.034929
#
#
# Mechanical properties :
#
#
# Convention : Reuss Voigt Hill
#
# Bulk Modulus (GPa) = 57.30435 75.69341 66.49888
# Shear Modulus (GPa) = 29.87072 46.87964 38.37518
#
# Velocity S-wave (km/s) = 3.44819 4.31977 3.90836
# Velocity P-wave (km/s) = 6.21799 7.41690 6.84375
#
# Compressibility (1/GPa) = 0.01745068
#
# Stress axis : x y z
#
# Youngs Moduli (GPa) = 185.82526 79.96809 196.34848
#
# Poissons Ratio (x) = 0.04651 0.27287
# Poissons Ratio (y) = 0.10807 0.15571
# Poissons Ratio (z) = 0.25824 0.06342
#
# Static dielectric constant tensor:
#      x y z
#    x 1.610330 0.000000 0.346670 
#    y 0.000000 2.061760 0.000000 
#    z 0.346670 0.000000 1.731960 
# 
# From -- ./inp_files/268007.got.cif
#   From: 2010.05.17/outbox.cif.g08.bks.cpg/sg15_135_cif.got.tgz:268007.got - 2010.06.03 18:47:42.
