data_PCOD9306098
_publ_section_title
;
Structure prediction by ZEFSAII (Michael W. Deem and Ramdas Pophale) SiO2 
 PCOD9306098
Probable space group: C 2/C
;
_chemical_formula_sum "Si O2"
_cell_formula_units_Z 48
_cell_length_a 27.870084
_cell_length_b 16.093528
_cell_length_c 14.702468
_cell_angle_alpha 90.000000
_cell_angle_beta 160.752786
_cell_angle_gamma 90.000000
_cell_volume 2173.831757
_symmetry_space_group_name_H-M "C 2/C"
_symmetry_group_IT_number 15
_symmetry_cell_setting 'monoclinic'
loop_
_space_group_symop_operation_xyz
x,y,z
-x,y,1/2-z
-x,-y,-z
x,-y,1/2+z
1/2+x,1/2+y,z
1/2-x,1/2+y,1/2-z
1/2-x,1/2-y,-z
1/2+x,1/2-y,1/2+z
loop_
_atom_site_type_symbol
_atom_site_label
_atom_site_fract_x
_atom_site_fract_y
_atom_site_fract_z
Si Si1 0.813262 0.179041 0.550163
Si Si2 0.000000 0.016891 0.250000
Si Si3 0.500000 0.999790 0.250000
Si Si4 0.695397 0.625851 0.463451
Si Si5 0.757237 0.113571 0.259150
Si Si6 0.363736 0.976787 0.690679
Si Si7 0.372211 0.724462 0.324599
O O1 0.750000 0.250000 0.500000
O O2 0.773913 0.175009 0.374170
O O3 0.740898 0.094744 0.458136
O O4 0.984198 0.195193 0.866515
O O5 0.093361 0.075796 0.350149
O O6 0.111811 0.954485 0.501243
O O7 0.613794 0.941632 0.506160
O O8 0.584124 0.044850 0.318230
O O9 0.764587 0.558606 0.519586
O O10 0.613859 0.693344 0.254392
O O11 0.824852 0.679570 0.741516
O O12 0.750891 0.171256 0.159584
O O13 0.500000 0.000000 0.000000
#
# Coordination Sequence:
#
# PCOD9306098 Si02
#       7
#     8   4   4   8   8   8   8
#     4  12  26  45  71 101 147 185 238 309 371 432
#     4  12  24  47  75 108 140 198 242 300 369 445
#     4  12  26  41  77 106 142 196 250 296 367 443
#     4  11  25  44  73 101 142 185 241 298 360 444
#     4  12  24  46  72 102 146 190 244 302 367 443
#     4  12  23  47  70 104 146 189 242 299 364 444
#     4  11  25  45  68 105 141 185 240 300 367 438
#
# _framework density 22.080825000000001
#
# number of rings (size 3 to 8) (size 9 to 14) (size 15 to 20)
#    0.000    0.333    6.667    1.000    2.333    3.333 
#    6.000    0.000    0.000    0.000    0.000    0.000 
#    0.000    0.000    0.000    0.000    0.000    0.000 
#
# Total GULP energy -134044.352034 kJ/mol
# GULP energy per Si atom -5585.181335 kJ/mol
# Density = 2.203057 g / cm^3
# Si number density = 22.080825 Si / 1000 Ang^3
#
#
#
# Elastic Constant Matrix: (Units=GPa)
#
#
# Indices 1 2 3 4 5 6 
#
# 1 128.8174 37.4305 -6.4451 0.0000 -8.7246 0.0000
# 2 37.4305 115.1148 9.5189 0.0000 -1.2573 0.0000
# 3 -6.4451 9.5189 65.5733 0.0000 -7.8240 0.0000
# 4 0.0000 0.0000 0.0000 35.1309 0.0000 4.9527
# 5 -8.7246 -1.2573 -7.8240 0.0000 30.3238 0.0000
# 6 0.0000 0.0000 0.0000 4.9527 0.0000 34.4243
#
#
#
# Elastic Compliance Matrix: (Units=1/GPa)
#
#
# Indices 1 2 3 4 5 6 
#
# 1 0.008913 -0.003003 0.001654 0.000000 0.002867 0.000000
# 2 -0.003003 0.009805 -0.001829 0.000000 -0.000930 0.000000
# 3 0.001654 -0.001829 0.016225 0.000000 0.004586 0.000000
# 4 0.000000 0.000000 0.000000 0.029054 0.000000 -0.004180
# 5 0.002867 -0.000930 0.004586 0.000000 0.034947 0.000000
# 6 0.000000 0.000000 0.000000 -0.004180 0.000000 0.029651
#
#
# Mechanical properties :
#
#
# Convention : Reuss Voigt Hill
#
# Bulk Modulus (GPa) = 34.98334 43.39044 39.18689
# Shear Modulus (GPa) = 34.60670 37.90919 36.25795
#
# Velocity S-wave (km/s) = 3.96318 4.14797 4.05662
# Velocity P-wave (km/s) = 6.06795 6.52949 6.30295
#
# Compressibility (1/GPa) = 0.02858503
#
# Stress axis : x y z
#
# Youngs Moduli (GPa) = 112.20148 101.99194 61.63141
#
# Poissons Ratio (x) = 0.30633 -0.10194
# Poissons Ratio (y) = 0.33699 0.11275
# Poissons Ratio (z) = -0.18558 0.18659
#
# Static dielectric constant tensor:
#      x y z
#    x 1.828520 0.000000 0.038340 
#    y 0.000000 1.876200 0.000000 
#    z 0.038340 0.000000 1.886230 
# 
# From -- ./inp_files/182564.got.cif
#   From: 2010.05.17/outbox.cif.g08.bks.cpg/sg15_92_cif.got.tgz:182564.got - 2010.06.03 18:47:42.
