data_PCOD9306331
_publ_section_title
;
Structure prediction by ZEFSAII (Michael W. Deem and Ramdas Pophale) SiO2 
 PCOD9306331
Probable space group: C 2/C
;
_chemical_formula_sum "Si O2"
_cell_formula_units_Z 40
_cell_length_a 24.681435
_cell_length_b 17.168092
_cell_length_c 9.028103
_cell_angle_alpha 90.000000
_cell_angle_beta 151.393775
_cell_angle_gamma 90.000000
_cell_volume 1831.603715
_symmetry_space_group_name_H-M "C 2/C"
_symmetry_group_IT_number 15
_symmetry_cell_setting 'monoclinic'
loop_
_space_group_symop_operation_xyz
x,y,z
-x,y,1/2-z
-x,-y,-z
x,-y,1/2+z
1/2+x,1/2+y,z
1/2-x,1/2+y,1/2-z
1/2-x,1/2-y,-z
1/2+x,1/2-y,1/2+z
loop_
_atom_site_type_symbol
_atom_site_label
_atom_site_fract_x
_atom_site_fract_y
_atom_site_fract_z
Si Si1 0.695609 0.948962 0.696803
Si Si2 0.679349 0.442081 0.206091
Si Si3 0.644189 0.654264 0.347438
Si Si4 0.000000 0.572557 0.250000
Si Si5 0.375294 0.168801 0.712390
Si Si6 0.500000 0.500000 0.000000
O O1 0.649130 0.873603 0.501921
O O2 0.805185 0.985299 0.872921
O O3 0.604303 0.016874 0.462970
O O4 0.724068 0.940053 0.937102
O O5 0.678769 0.368252 0.098068
O O6 0.568823 0.451840 0.038597
O O7 0.594316 0.740721 0.225026
O O8 0.757934 0.658154 0.521924
O O9 0.566545 0.582885 0.109083
O O10 0.032313 0.623617 0.469218
#
# Coordination Sequence:
#
# PCOD9306331 Si02
#       6
#     8   8   8   4   8   4
#     4  12  23  43  72 101 139 185 239 303 353 443
#     4  12  23  43  69 105 136 187 243 293 364 431
#     4  11  25  47  69 102 146 186 242 300 360 445
#     4  12  22  44  76 100 138 190 238 286 380 434
#     4  11  25  47  70 104 145 183 240 303 365 427
#     4  12  22  44  76  94 146 190 244 294 368 432
#
# _framework density 21.838785999999999
#
# number of rings (size 3 to 8) (size 9 to 14) (size 15 to 20)
#    0.000    0.400    8.000    1.200    0.000    0.800 
#   14.400    0.000    0.000    0.000    0.000    0.000 
#    0.000    0.000    0.000    0.000    0.000    0.000 
#
# Total GULP energy -111387.463874 kJ/mol
# GULP energy per Si atom -5569.373194 kJ/mol
# Density = 2.178908 g / cm^3
# Si number density = 21.838786 Si / 1000 Ang^3
#
#
#
# Elastic Constant Matrix: (Units=GPa)
#
#
# Indices 1 2 3 4 5 6 
#
# 1 90.0472 36.3269 28.8897 0.0000 -21.4990 0.0000
# 2 36.3269 148.2873 33.5997 0.0000 -11.8350 0.0000
# 3 28.8897 33.5997 40.6022 0.0000 -22.1625 0.0000
# 4 0.0000 0.0000 0.0000 31.0953 0.0000 -6.9588
# 5 -21.4990 -11.8350 -22.1625 0.0000 42.8624 0.0000
# 6 0.0000 0.0000 0.0000 -6.9588 0.0000 19.8414
#
#
#
# Elastic Compliance Matrix: (Units=1/GPa)
#
#
# Indices 1 2 3 4 5 6 
#
# 1 0.014956 -0.001712 -0.007507 0.000000 0.003147 0.000000
# 2 -0.001712 0.008592 -0.007058 0.000000 -0.002135 0.000000
# 3 -0.007507 -0.007058 0.045547 0.000000 0.017836 0.000000
# 4 0.000000 0.000000 0.000000 0.034898 0.000000 0.012240
# 5 0.003147 -0.002135 0.017836 0.000000 0.033542 0.000000
# 6 0.000000 0.000000 0.000000 0.012240 0.000000 0.054692
#
#
# Mechanical properties :
#
#
# Convention : Reuss Voigt Hill
#
# Bulk Modulus (GPa) = 27.36595 52.95213 40.15904
# Shear Modulus (GPa) = 21.10056 30.76785 25.93421
#
# Velocity S-wave (km/s) = 3.11174 3.75755 3.44979
# Velocity P-wave (km/s) = 5.04665 6.56697 5.85635
#
# Compressibility (1/GPa) = 0.03654176
#
# Stress axis : x y z
#
# Youngs Moduli (GPa) = 66.86422 116.39130 21.95528
#
# Poissons Ratio (x) = 0.19922 0.16482
# Poissons Ratio (y) = 0.11445 0.15495
# Poissons Ratio (z) = 0.50195 0.82146
#
# Static dielectric constant tensor:
#      x y z
#    x 1.769280 0.000000 -0.120170 
#    y 0.000000 1.745970 0.000000 
#    z -0.120170 0.000000 0.558430 
# 
# From -- ./inp_files/62886.got.cif
#   From: 2010.05.17/outbox.cif.g08.bks.cpg/sg15_32_cif.got.tgz:62886.got - 2010.06.03 18:47:42.
