data_PCOD9306765
_publ_section_title
;
Structure prediction by ZEFSAII (Michael W. Deem and Ramdas Pophale) SiO2 
 PCOD9306765
Probable space group: C 2/C
;
_chemical_formula_sum "Si O2"
_cell_formula_units_Z 40
_cell_length_a 8.753044
_cell_length_b 26.544550
_cell_length_c 8.037423
_cell_angle_alpha 90.000000
_cell_angle_beta 57.085035
_cell_angle_gamma 90.000000
_cell_volume 1567.691506
_symmetry_space_group_name_H-M "C 2/C"
_symmetry_group_IT_number 15
_symmetry_cell_setting 'monoclinic'
loop_
_space_group_symop_operation_xyz
x,y,z
-x,y,1/2-z
-x,-y,-z
x,-y,1/2+z
1/2+x,1/2+y,z
1/2-x,1/2+y,1/2-z
1/2-x,1/2-y,-z
1/2+x,1/2-y,1/2+z
loop_
_atom_site_type_symbol
_atom_site_label
_atom_site_fract_x
_atom_site_fract_y
_atom_site_fract_z
Si Si1 0.331661 0.152100 0.138665
Si Si2 0.826876 0.059804 0.142139
Si Si3 0.264705 0.191041 0.528543
Si Si4 0.317212 0.627133 0.612239
Si Si5 0.324060 0.964548 0.127622
O O1 0.321634 0.092089 0.167049
O O2 0.226188 0.169073 0.367848
O O3 0.527527 0.176863 0.044627
O O4 0.244746 0.159673 0.010001
O O5 0.826891 0.003913 0.214483
O O6 0.749132 0.055982 0.003181
O O7 0.012809 0.091307 0.036444
O O8 0.250000 0.250000 0.500000
O O9 0.160412 0.165268 0.745168
O O10 0.172384 0.584290 0.756141
O O11 0.500000 0.000000 0.000000
#
# Coordination Sequence:
#
# PCOD9306765 Si02
#       5
#     8   8   8   8   8
#     4  11  26  50  80 114 159 203 267 322 406 482
#     4  12  26  47  76 121 165 213 267 328 397 487
#     4  11  27  52  83 113 157 208 268 339 411 476
#     4  12  26  51  80 116 163 207 267 338 396 479
#     4  12  26  46  77 116 168 216 265 322 396 484
#
# _framework density 25.515224
#
# number of rings (size 3 to 8) (size 9 to 14) (size 15 to 20)
#    0.000    0.400    2.000    5.400    2.800    7.200 
#    0.000    2.000    0.000    0.000    0.000    0.000 
#    0.000    0.000    0.000    0.000    0.000    0.000 
#
# Total GULP energy -111983.717191 kJ/mol
# GULP energy per Si atom -5599.185860 kJ/mol
# Density = 2.545715 g / cm^3
# Si number density = 25.515224 Si / 1000 Ang^3
#
#
#
# Elastic Constant Matrix: (Units=GPa)
#
#
# Indices 1 2 3 4 5 6 
#
# 1 159.1266 43.2426 86.3352 0.0000 26.1734 0.0000
# 2 43.2426 164.0963 51.4193 0.0000 6.2397 0.0000
# 3 86.3352 51.4193 160.8938 0.0000 22.9891 0.0000
# 4 0.0000 0.0000 0.0000 26.6890 0.0000 -2.0442
# 5 26.1734 6.2397 22.9891 0.0000 59.5706 0.0000
# 6 0.0000 0.0000 0.0000 -2.0442 0.0000 24.6690
#
#
#
# Elastic Compliance Matrix: (Units=1/GPa)
#
#
# Indices 1 2 3 4 5 6 
#
# 1 0.009287 -0.001002 -0.004334 0.000000 -0.002303 0.000000
# 2 -0.001002 0.006881 -0.001716 0.000000 0.000382 0.000000
# 3 -0.004334 -0.001716 0.009305 0.000000 -0.001507 0.000000
# 4 0.000000 0.000000 0.000000 0.037708 0.000000 0.003125
# 5 -0.002303 0.000382 -0.001507 0.000000 0.018340 0.000000
# 6 0.000000 0.000000 0.000000 0.003125 0.000000 0.040796
#
#
# Mechanical properties :
#
#
# Convention : Reuss Voigt Hill
#
# Bulk Modulus (GPa) = 87.95973 94.01232 90.98602
# Shear Modulus (GPa) = 35.66084 42.39368 39.02726
#
# Velocity S-wave (km/s) = 3.74254 4.08058 3.91521
# Velocity P-wave (km/s) = 7.29546 7.68941 7.49503
#
# Compressibility (1/GPa) = 0.01136884
#
# Stress axis : x y z
#
# Youngs Moduli (GPa) = 107.68008 145.32394 107.47223
#
# Poissons Ratio (x) = 0.14555 0.46580
# Poissons Ratio (y) = 0.10785 0.18444
# Poissons Ratio (z) = 0.46670 0.24940
#
# Static dielectric constant tensor:
#      x y z
#    x 1.892990 0.000000 -0.199550 
#    y 0.000000 2.044840 0.000000 
#    z -0.199550 0.000000 2.088360 
# 
# From -- ./inp_files/25354.got.cif
#   From: 2010.05.17/outbox.cif.g08.bks.cpg/sg15_13_cif.got.tgz:25354.got - 2010.06.03 18:47:42.
