data_PCOD9306503
_publ_section_title
;
Structure prediction by ZEFSAII (Michael W. Deem and Ramdas Pophale) SiO2 
 PCOD9306503
Probable space group: C 2/C
;
_chemical_formula_sum "Si O2"
_cell_formula_units_Z 44
_cell_length_a 8.120878
_cell_length_b 32.747631
_cell_length_c 7.658047
_cell_angle_alpha 90.000000
_cell_angle_beta 106.005234
_cell_angle_gamma 90.000000
_cell_volume 1957.632474
_symmetry_space_group_name_H-M "C 2/C"
_symmetry_group_IT_number 15
_symmetry_cell_setting 'monoclinic'
loop_
_space_group_symop_operation_xyz
x,y,z
-x,y,1/2-z
-x,-y,-z
x,-y,1/2+z
1/2+x,1/2+y,z
1/2-x,1/2+y,1/2-z
1/2-x,1/2-y,-z
1/2+x,1/2-y,1/2+z
loop_
_atom_site_type_symbol
_atom_site_label
_atom_site_fract_x
_atom_site_fract_y
_atom_site_fract_z
Si Si1 0.160059 0.047044 0.924201
Si Si2 0.816778 0.372600 0.400416
Si Si3 0.500000 0.333820 0.750000
Si Si4 0.635669 0.710056 0.943690
Si Si5 0.795799 0.391899 0.985170
Si Si6 0.819375 0.475391 0.797041
O O1 0.211633 0.093626 0.975081
O O2 0.000000 0.046640 0.750000
O O3 0.308458 0.020529 0.872930
O O4 0.160727 0.027500 0.115152
O O5 0.750496 0.327774 0.413635
O O6 0.014426 0.376598 0.506636
O O7 0.785318 0.385921 0.190586
O O8 0.550622 0.305490 0.599643
O O9 0.654687 0.363564 0.853525
O O10 0.500000 0.717490 0.750000
O O11 0.750000 0.750000 0.000000
O O12 0.789227 0.439278 0.927006
O O13 0.000000 0.469054 0.750000
#
# Coordination Sequence:
#
# PCOD9306503 Si02
#       6
#     8   8   4   8   8   8
#     4  12  26  41  68  98 147 196 257 314 370 433
#     4  11  25  50  73 106 148 196 249 309 381 447
#     4  12  28  48  84 112 152 192 252 302 380 450
#     4  12  29  53  80 115 153 192 246 312 376 460
#     4  11  26  44  75 107 148 199 246 308 370 447
#     4  12  25  44  64 103 146 200 259 308 372 434
#
# _framework density 22.476129
#
# number of rings (size 3 to 8) (size 9 to 14) (size 15 to 20)
#    0.000    0.364    3.636    3.818    8.909    2.182 
#    0.000    0.000    0.000    0.000    0.000    0.000 
#    0.000    0.000    0.000    0.000    0.000    0.000 
#
# Total GULP energy -123224.678084 kJ/mol
# GULP energy per Si atom -5601.121731 kJ/mol
# Density = 2.242497 g / cm^3
# Si number density = 22.476129 Si / 1000 Ang^3
#
#
#
# Elastic Constant Matrix: (Units=GPa)
#
#
# Indices 1 2 3 4 5 6 
#
# 1 72.1247 51.1323 52.3285 0.0000 14.8783 0.0000
# 2 51.1323 173.2875 43.9888 0.0000 15.3299 0.0000
# 3 52.3285 43.9888 129.0615 0.0000 34.9579 0.0000
# 4 0.0000 0.0000 0.0000 17.0893 0.0000 -2.2123
# 5 14.8783 15.3299 34.9579 0.0000 38.6534 0.0000
# 6 0.0000 0.0000 0.0000 -2.2123 0.0000 39.1575
#
#
#
# Elastic Compliance Matrix: (Units=1/GPa)
#
#
# Indices 1 2 3 4 5 6 
#
# 1 0.022777 -0.004791 -0.007605 0.000000 0.000011 0.000000
# 2 -0.004791 0.007341 -0.000358 0.000000 -0.000743 0.000000
# 3 -0.007605 -0.000358 0.013407 0.000000 -0.009055 0.000000
# 4 0.000000 0.000000 0.000000 0.058947 0.000000 0.003330
# 5 0.000011 -0.000743 -0.009055 0.000000 0.034351 0.000000
# 6 0.000000 0.000000 0.000000 0.003330 0.000000 0.025726
#
#
# Mechanical properties :
#
#
# Convention : Reuss Voigt Hill
#
# Bulk Modulus (GPa) = 55.50614 74.37477 64.94045
# Shear Modulus (GPa) = 25.76478 34.11497 29.93988
#
# Velocity S-wave (km/s) = 3.38940 3.90016 3.65372
# Velocity P-wave (km/s) = 6.32982 7.31055 6.83779
#
# Compressibility (1/GPa) = 0.01801603
#
# Stress axis : x y z
#
# Youngs Moduli (GPa) = 43.90395 136.21720 74.59044
#
# Poissons Ratio (x) = 0.65266 0.56725
# Poissons Ratio (y) = 0.21036 0.02671
# Poissons Ratio (z) = 0.33389 0.04879
#
# Static dielectric constant tensor:
#      x y z
#    x 1.878320 0.000000 -0.028920 
#    y 0.000000 1.763700 0.000000 
#    z -0.028920 0.000000 1.882930 
# 
# From -- ./inp_files/26279.got.cif
#   From: 2010.05.17/outbox.cif.g08.bks.cpg/sg15_14_cif.got.tgz:26279.got - 2010.06.03 18:47:42.
