data_PCOD9306276
_publ_section_title
;
Structure prediction by ZEFSAII (Michael W. Deem and Ramdas Pophale) SiO2 
 PCOD9306276
Probable space group: C 2/C
;
_chemical_formula_sum "Si O2"
_cell_formula_units_Z 56
_cell_length_a 12.356619
_cell_length_b 14.063592
_cell_length_c 29.417279
_cell_angle_alpha 90.000000
_cell_angle_beta 29.438447
_cell_angle_gamma 90.000000
_cell_volume 2512.531726
_symmetry_space_group_name_H-M "C 2/C"
_symmetry_group_IT_number 15
_symmetry_cell_setting 'monoclinic'
loop_
_space_group_symop_operation_xyz
x,y,z
-x,y,1/2-z
-x,-y,-z
x,-y,1/2+z
1/2+x,1/2+y,z
1/2-x,1/2+y,1/2-z
1/2-x,1/2-y,-z
1/2+x,1/2-y,1/2+z
loop_
_atom_site_type_symbol
_atom_site_label
_atom_site_fract_x
_atom_site_fract_y
_atom_site_fract_z
Si Si1 0.975781 0.460325 0.369421
Si Si2 0.604357 0.507178 0.573977
Si Si3 0.239030 0.802078 0.671007
Si Si4 0.728947 0.084725 0.646262
Si Si5 0.765435 0.863883 0.728001
Si Si6 0.095342 0.604527 0.975846
Si Si7 0.244855 0.184060 0.674683
O O1 0.832426 0.490272 0.464884
O O2 0.798359 0.425195 0.397416
O O3 0.104164 0.547687 0.298835
O O4 0.144791 0.381235 0.326406
O O5 0.428628 0.537770 0.600122
O O6 0.502927 0.413894 0.634654
O O7 0.665244 0.586994 0.588773
O O8 0.234278 0.695203 0.655525
O O9 0.261717 0.802351 0.716678
O O10 0.431903 0.850884 0.572502
O O11 0.000000 0.849142 0.750000
O O12 0.500000 0.045440 0.750000
O O13 0.732053 0.792286 0.698099
O O14 0.116402 0.667320 0.922535
O O15 0.000000 0.500000 0.000000
O O16 0.000000 0.152767 0.750000
#
# Coordination Sequence:
#
# PCOD9306276 Si02
#       7
#     8   8   8   8   8   8   8
#     4  12  26  52  75 111 151 202 251 309 389 448
#     4  12  26  47  78 107 152 199 255 316 376 455
#     4  11  25  46  74 107 151 198 254 309 376 458
#     4  11  25  46  73 102 148 201 250 308 382 446
#     4  12  27  47  77 110 150 200 257 308 380 449
#     4  12  25  48  75 114 149 201 251 313 390 449
#     4  12  29  47  78 115 155 196 254 320 379 456
#
# _framework density 22.288276
#
# number of rings (size 3 to 8) (size 9 to 14) (size 15 to 20)
#    0.000    0.286    4.286    3.857    6.000    3.429 
#    0.000    0.000    0.000    0.000    0.000    0.000 
#    0.000    0.000    0.000    0.000    0.000    0.000 
#
# Total GULP energy -156482.352258 kJ/mol
# GULP energy per Si atom -5588.655438 kJ/mol
# Density = 2.223755 g / cm^3
# Si number density = 22.288276 Si / 1000 Ang^3
#
#
#
# Elastic Constant Matrix: (Units=GPa)
#
#
# Indices 1 2 3 4 5 6 
#
# 1 125.2428 46.6022 34.9713 -0.0006 19.1081 0.0126
# 2 46.6022 88.5715 49.0591 0.0012 11.5143 -0.0308
# 3 34.9713 49.0591 122.0961 0.0043 16.6098 0.1446
# 4 -0.0006 0.0012 0.0043 30.7718 -0.0013 -0.9272
# 5 19.1081 11.5143 16.6098 -0.0013 45.6048 0.0323
# 6 0.0126 -0.0308 0.1446 -0.9272 0.0323 -131.3285
#
#
#
# Elastic Compliance Matrix: (Units=1/GPa)
#
#
# Indices 1 2 3 4 5 6 
#
# 1 0.010367 -0.004696 -0.000687 0.000000 -0.002908 0.000001
# 2 -0.004696 0.016765 -0.005348 0.000000 -0.000317 -0.000010
# 3 -0.000687 -0.005348 0.010851 -0.000001 -0.002314 0.000013
# 4 0.000000 0.000000 -0.000001 0.032490 0.000001 -0.000229
# 5 -0.002908 -0.000317 -0.002314 0.000001 0.024069 0.000003
# 6 0.000001 -0.000010 0.000013 -0.000229 0.000003 -0.007613
#
#
# Mechanical properties :
#
#
# Convention : Reuss Voigt Hill
#
# Bulk Modulus (GPa) = 60.53068 66.35286 63.44177
# Shear Modulus (GPa) = 43.89888 2.69479 23.29684
#
# Velocity S-wave (km/s) = 4.44283 1.10077 3.23654
# Velocity P-wave (km/s) = 7.31678 5.60808 6.51866
#
# Compressibility (1/GPa) = 0.01652055
#
# Stress axis : x y z
#
# Youngs Moduli (GPa) = 96.45573 59.64907 92.16105
#
# Poissons Ratio (x) = 0.28014 0.06330
# Poissons Ratio (y) = 0.45299 0.49286
# Poissons Ratio (z) = 0.06625 0.31899
#
# Static dielectric constant tensor:
#      x y z
#    x 1.941550 0.000000 -0.009790 
#    y 0.000000 1.830220 0.000000 
#    z -0.009790 0.000000 1.823100 
# 
# From -- ./inp_files/311296.got.cif
#   From: 2010.05.17/outbox.cif.g08.bks.cpg/sg15_156_cif.got.tgz:311296.got - 2010.06.03 18:47:42.
