data_PCOD9306734
_publ_section_title
;
Structure prediction by ZEFSAII (Michael W. Deem and Ramdas Pophale) SiO2 
 PCOD9306734
Probable space group: C 2/C
;
_chemical_formula_sum "Si O2"
_cell_formula_units_Z 40
_cell_length_a 18.336074
_cell_length_b 6.591279
_cell_length_c 26.236665
_cell_angle_alpha 90.000000
_cell_angle_beta 149.324844
_cell_angle_gamma 90.000000
_cell_volume 1617.706090
_symmetry_space_group_name_H-M "C 2/C"
_symmetry_group_IT_number 15
_symmetry_cell_setting 'monoclinic'
loop_
_space_group_symop_operation_xyz
x,y,z
-x,y,1/2-z
-x,-y,-z
x,-y,1/2+z
1/2+x,1/2+y,z
1/2-x,1/2+y,1/2-z
1/2-x,1/2-y,-z
1/2+x,1/2-y,1/2+z
loop_
_atom_site_type_symbol
_atom_site_label
_atom_site_fract_x
_atom_site_fract_y
_atom_site_fract_z
Si Si1 0.344365 0.424716 0.424008
Si Si2 0.614250 0.902978 0.632619
Si Si3 0.636173 0.104575 0.976390
Si Si4 0.305020 0.736383 0.711575
Si Si5 0.537722 0.384918 0.831358
O O1 0.500000 0.500000 0.500000
O O2 0.318067 0.260482 0.364082
O O3 0.350911 0.303902 0.480282
O O4 0.227860 0.602822 0.352220
O O5 0.674745 0.860932 0.724518
O O6 0.446749 0.929233 0.543032
O O7 0.660958 0.112766 0.635967
O O8 0.546241 0.187720 0.873688
O O9 0.798486 0.038351 0.064760
O O10 0.429202 0.568108 0.780226
O O11 0.500000 0.331386 0.750000
#
# Coordination Sequence:
#
# PCOD9306734 Si02
#       5
#     8   8   8   8   8
#     4  12  25  44  78 113 146 189 250 313 376 443
#     4  12  24  46  76 110 147 185 247 310 370 444
#     4  11  26  49  78 109 154 196 249 315 376 448
#     4  12  25  45  75 110 147 197 247 303 377 447
#     4  11  27  51  71 105 155 201 249 306 374 451
#
# _framework density 24.726368999999998
#
# number of rings (size 3 to 8) (size 9 to 14) (size 15 to 20)
#    0.000    0.400    4.000    4.200    5.600    0.800 
#    7.200    0.000    0.000    0.000    0.000    0.000 
#    0.000    0.000    0.000    0.000    0.000    0.000 
#
# Total GULP energy -111862.047035 kJ/mol
# GULP energy per Si atom -5593.102352 kJ/mol
# Density = 2.467009 g / cm^3
# Si number density = 24.726369 Si / 1000 Ang^3
#
#
#
# Elastic Constant Matrix: (Units=GPa)
#
#
# Indices 1 2 3 4 5 6 
#
# 1 63.1219 10.9642 15.1984 0.0000 -2.1651 0.0001
# 2 10.9642 69.0249 33.9382 -0.0001 -4.3058 0.0005
# 3 15.1984 33.9382 82.2866 -0.0001 -22.6043 0.0000
# 4 0.0000 -0.0001 -0.0001 51.5994 0.0000 -9.4100
# 5 -2.1651 -4.3058 -22.6043 0.0000 63.2592 0.0001
# 6 0.0001 0.0005 0.0000 -9.4100 0.0001 -17.3832
#
#
#
# Elastic Compliance Matrix: (Units=1/GPa)
#
#
# Indices 1 2 3 4 5 6 
#
# 1 0.016703 -0.001383 -0.002643 0.000000 -0.000467 0.000000
# 2 -0.001383 0.018434 -0.007779 0.000000 -0.001572 0.000000
# 3 -0.002643 -0.007779 0.017386 0.000000 0.005592 0.000000
# 4 0.000000 0.000000 0.000000 0.017639 0.000000 -0.009548
# 5 -0.000467 -0.001572 0.005592 0.000000 0.017683 0.000000
# 6 0.000000 0.000000 0.000000 -0.009548 0.000000 -0.052358
#
#
# Mechanical properties :
#
#
# Convention : Reuss Voigt Hill
#
# Bulk Modulus (GPa) = 34.58754 37.18165 35.88459
# Shear Modulus (GPa) = 72.74382 29.78393 51.26387
#
# Velocity S-wave (km/s) = 5.42986 3.47442 4.55823
# Velocity P-wave (km/s) = 7.30272 5.58259 6.49981
#
# Compressibility (1/GPa) = 0.02891215
#
# Stress axis : x y z
#
# Youngs Moduli (GPa) = 59.86988 54.24725 57.51885
#
# Poissons Ratio (x) = 0.07501 0.15202
# Poissons Ratio (y) = 0.08279 0.44747
# Poissons Ratio (z) = 0.15823 0.42202
#
# Static dielectric constant tensor:
#      x y z
#    x 1.962810 0.000000 0.063620 
#    y 0.000000 2.128130 0.000000 
#    z 0.063620 0.000000 2.050290 
# 
# From -- ./inp_files/318316.got.cif
#   From: 2010.05.17/outbox.cif.g08.bks.cpg/sg15_160_cif.got.tgz:318316.got - 2010.06.03 18:47:42.
