data_PCOD9306127
_publ_section_title
;
Structure prediction by ZEFSAII (Michael W. Deem and Ramdas Pophale) SiO2 
 PCOD9306127
Probable space group: C 2/C
;
_chemical_formula_sum "Si O2"
_cell_formula_units_Z 48
_cell_length_a 11.176861
_cell_length_b 9.358234
_cell_length_c 20.228698
_cell_angle_alpha 90.000000
_cell_angle_beta 101.366035
_cell_angle_gamma 90.000000
_cell_volume 2074.339058
_symmetry_space_group_name_H-M "C 2/C"
_symmetry_group_IT_number 15
_symmetry_cell_setting 'monoclinic'
loop_
_space_group_symop_operation_xyz
x,y,z
-x,y,1/2-z
-x,-y,-z
x,-y,1/2+z
1/2+x,1/2+y,z
1/2-x,1/2+y,1/2-z
1/2-x,1/2-y,-z
1/2+x,1/2-y,1/2+z
loop_
_atom_site_type_symbol
_atom_site_label
_atom_site_fract_x
_atom_site_fract_y
_atom_site_fract_z
Si Si1 0.547010 0.417515 0.820168
Si Si2 0.981764 0.332121 0.087755
Si Si3 0.469049 0.711113 0.824818
Si Si4 0.760696 0.578375 0.500075
Si Si5 0.613769 0.690565 0.977699
Si Si6 0.684714 0.970064 0.644777
O O1 0.500000 0.341350 0.750000
O O2 0.567136 0.304223 0.878591
O O3 0.449183 0.540100 0.826210
O O4 0.675851 0.495241 0.820115
O O5 0.087505 0.404307 0.143241
O O6 0.033096 0.269840 0.024135
O O7 0.872242 0.443719 0.063358
O O8 0.500000 0.738300 0.750000
O O9 0.562745 0.721528 0.898291
O O10 0.362712 0.821602 0.830683
O O11 0.750000 0.750000 0.500000
O O12 0.641744 0.478554 0.496174
O O13 0.811292 0.541342 0.433797
O O14 0.750000 0.750000 0.000000
#
# Coordination Sequence:
#
# PCOD9306127 Si02
#       6
#     8   8   8   8   8   8
#     4  11  27  47  67 100 139 182 228 278 344 415
#     4  12  25  43  73 103 135 177 231 286 343 403
#     4  11  25  45  68  97 141 184 223 280 347 407
#     4  12  23  40  69 105 135 171 226 283 340 399
#     4  12  23  41  70 103 136 177 229 284 341 402
#     4  12  24  45  69  99 136 174 226 285 334 406
#
# _framework density 23.139901999999999
#
# number of rings (size 3 to 8) (size 9 to 14) (size 15 to 20)
#    0.000    0.333    6.667    1.500    2.333    6.000 
#    0.000    0.000    0.000    0.000    0.000    0.000 
#    0.000    0.000    0.000    0.000    0.000    0.000 
#
# Total GULP energy -133922.918079 kJ/mol
# GULP energy per Si atom -5580.121587 kJ/mol
# Density = 2.308723 g / cm^3
# Si number density = 23.139902 Si / 1000 Ang^3
#
#
#
# Elastic Constant Matrix: (Units=GPa)
#
#
# Indices 1 2 3 4 5 6 
#
# 1 67.5809 27.0215 22.9417 0.0000 9.4795 0.0000
# 2 27.0215 102.9781 17.1931 0.0000 5.5693 0.0000
# 3 22.9417 17.1931 133.3695 0.0000 6.9821 0.0000
# 4 0.0000 0.0000 0.0000 30.0159 0.0000 -4.2292
# 5 9.4795 5.5693 6.9821 0.0000 21.0536 0.0000
# 6 0.0000 0.0000 0.0000 -4.2292 0.0000 40.2875
#
#
#
# Elastic Compliance Matrix: (Units=1/GPa)
#
#
# Indices 1 2 3 4 5 6 
#
# 1 0.018057 -0.004020 -0.002257 0.000000 -0.006318 0.000000
# 2 -0.004020 0.010924 -0.000672 0.000000 -0.000857 0.000000
# 3 -0.002257 -0.000672 0.008050 0.000000 -0.001476 0.000000
# 4 0.000000 0.000000 0.000000 0.033816 0.000000 0.003550
# 5 -0.006318 -0.000857 -0.001476 0.000000 0.051059 0.000000
# 6 0.000000 0.000000 0.000000 0.003550 0.000000 0.025194
#
#
# Mechanical properties :
#
#
# Convention : Reuss Voigt Hill
#
# Bulk Modulus (GPa) = 43.22703 48.69347 45.96025
# Shear Modulus (GPa) = 29.63699 34.05622 31.84661
#
# Velocity S-wave (km/s) = 3.58267 3.84051 3.71383
# Velocity P-wave (km/s) = 5.98626 6.38394 6.18830
#
# Compressibility (1/GPa) = 0.02313367
#
# Stress axis : x y z
#
# Youngs Moduli (GPa) = 55.38106 91.54097 124.22203
#
# Poissons Ratio (x) = 0.36795 0.28038
# Poissons Ratio (y) = 0.22261 0.08347
# Poissons Ratio (z) = 0.12500 0.06151
#
# Static dielectric constant tensor:
#      x y z
#    x 1.929130 0.000000 0.073020 
#    y 0.000000 1.948670 0.000000 
#    z 0.073020 0.000000 1.915560 
# 
# From -- ./inp_files/268071.got.cif
#   From: 2010.05.17/outbox.cif.g08.bks.cpg/sg15_135_cif.got.tgz:268071.got - 2010.06.03 18:47:42.
