data_PCOD9306914
_publ_section_title
;
Structure prediction by ZEFSAII (Michael W. Deem and Ramdas Pophale) SiO2 
 PCOD9306914
Probable space group: C 2/C
;
_chemical_formula_sum "Si O2"
_cell_formula_units_Z 40
_cell_length_a 12.027777
_cell_length_b 6.985649
_cell_length_c 21.188284
_cell_angle_alpha 90.000000
_cell_angle_beta 128.728055
_cell_angle_gamma 90.000000
_cell_volume 1388.838166
_symmetry_space_group_name_H-M "C 2/C"
_symmetry_group_IT_number 15
_symmetry_cell_setting 'monoclinic'
loop_
_space_group_symop_operation_xyz
x,y,z
-x,y,1/2-z
-x,-y,-z
x,-y,1/2+z
1/2+x,1/2+y,z
1/2-x,1/2+y,1/2-z
1/2-x,1/2-y,-z
1/2+x,1/2-y,1/2+z
loop_
_atom_site_type_symbol
_atom_site_label
_atom_site_fract_x
_atom_site_fract_y
_atom_site_fract_z
Si Si1 0.761467 0.818565 0.862907
Si Si2 0.073158 0.875306 0.958690
Si Si3 0.043214 0.231545 0.878313
Si Si4 0.307104 0.133142 0.389670
Si Si5 0.890810 0.136721 0.285786
O O1 0.011708 0.769041 0.872764
O O2 0.632025 0.861830 0.862657
O O3 0.785442 0.593386 0.883722
O O4 0.756211 0.867531 0.786773
O O5 0.132811 0.074458 0.951986
O O6 0.913715 0.915799 0.931811
O O7 0.163568 0.736051 0.033984
O O8 0.944121 0.331206 0.894303
O O9 0.950925 0.079275 0.803740
O O10 0.169556 0.207969 0.301397
#
# Coordination Sequence:
#
# PCOD9306914 Si02
#       5
#     8   8   8   8   8
#     4   9  21  40  60  82 117 152 191 235 291 338
#     4   8  22  38  54  94 114 144 202 232 280 350
#     4   9  21  40  60  82 117 152 191 235 291 338
#     4  12  18  36  64  80 120 154 184 248 280 330
#     4   8  22  36  54  92 114 146 200 232 282 348
#
# _framework density 28.801054000000001
#
# number of rings (size 3 to 8) (size 9 to 14) (size 15 to 20)
#    2.400    0.000    0.000    2.400    0.000    4.800 
#    0.000    8.000    0.000    9.600    0.000    0.000 
#    0.000    0.000    0.000    0.000    0.000    0.000 
#
# Total GULP energy -111750.498321 kJ/mol
# GULP energy per Si atom -5587.524916 kJ/mol
# Density = 2.873550 g / cm^3
# Si number density = 28.801054 Si / 1000 Ang^3
#
#
#
# Elastic Constant Matrix: (Units=GPa)
#
#
# Indices 1 2 3 4 5 6 
#
# 1 158.3704 27.3089 45.1295 0.0000 -37.5736 0.0000
# 2 27.3089 90.2202 4.7168 0.0000 -4.1522 0.0000
# 3 45.1295 4.7168 185.8584 0.0000 4.5096 0.0000
# 4 0.0000 0.0000 0.0000 32.3442 0.0000 3.0557
# 5 -37.5736 -4.1522 4.5096 0.0000 47.6313 0.0000
# 6 0.0000 0.0000 0.0000 3.0557 0.0000 43.2531
#
#
#
# Elastic Compliance Matrix: (Units=1/GPa)
#
#
# Indices 1 2 3 4 5 6 
#
# 1 0.009074 -0.002295 -0.002319 0.000000 0.007177 0.000000
# 2 -0.002295 0.011727 0.000279 0.000000 -0.000815 0.000000
# 3 -0.002319 0.000279 0.005994 0.000000 -0.002373 0.000000
# 4 0.000000 0.000000 0.000000 0.031125 0.000000 -0.002199
# 5 0.007177 -0.000815 -0.002373 0.000000 0.026810 0.000000
# 6 0.000000 0.000000 0.000000 -0.002199 0.000000 0.023275
#
#
# Mechanical properties :
#
#
# Convention : Reuss Voigt Hill
#
# Bulk Modulus (GPa) = 55.17264 65.41770 60.29517
# Shear Modulus (GPa) = 40.74462 48.46532 44.60497
#
# Velocity S-wave (km/s) = 3.76532 4.10660 3.93966
# Velocity P-wave (km/s) = 6.17265 6.72670 6.45562
#
# Compressibility (1/GPa) = 0.01812493
#
# Stress axis : x y z
#
# Youngs Moduli (GPa) = 110.20819 85.27650 166.83218
#
# Poissons Ratio (x) = 0.19571 0.38691
# Poissons Ratio (y) = 0.25292 -0.04662
# Poissons Ratio (z) = 0.25559 -0.02383
#
# Static dielectric constant tensor:
#      x y z
#    x 2.301880 0.000000 -0.043840 
#    y 0.000000 2.173800 0.000000 
#    z -0.043840 0.000000 2.442390 
# 
# From -- ./inp_files/203326.got.cif
#   From: 2010.05.17/outbox.cif.g08.bks.cpg/sg15_102_cif.got.tgz:203326.got - 2010.06.03 18:47:42.
