data_PCOD9306998
_publ_section_title
;
Structure prediction by ZEFSAII (Michael W. Deem and Ramdas Pophale) SiO2 
 PCOD9306998
Probable space group: C 2/C
;
_chemical_formula_sum "Si O2"
_cell_formula_units_Z 56
_cell_length_a 14.010207
_cell_length_b 10.638066
_cell_length_c 21.854265
_cell_angle_alpha 90.000000
_cell_angle_beta 134.762820
_cell_angle_gamma 90.000000
_cell_volume 2312.697395
_symmetry_space_group_name_H-M "C 2/C"
_symmetry_group_IT_number 15
_symmetry_cell_setting 'monoclinic'
loop_
_space_group_symop_operation_xyz
x,y,z
-x,y,1/2-z
-x,-y,-z
x,-y,1/2+z
1/2+x,1/2+y,z
1/2-x,1/2+y,1/2-z
1/2-x,1/2-y,-z
1/2+x,1/2-y,1/2+z
loop_
_atom_site_type_symbol
_atom_site_label
_atom_site_fract_x
_atom_site_fract_y
_atom_site_fract_z
Si Si1 0.350917 0.421623 0.495871
Si Si2 0.749613 0.533601 0.872457
Si Si3 0.246361 0.063957 0.736222
Si Si4 0.247095 0.757478 0.864201
Si Si5 0.858744 0.878795 0.891826
Si Si6 0.440384 0.178503 0.023137
Si Si7 0.565800 0.634612 0.879353
O O1 0.244222 0.316597 0.427744
O O2 0.496215 0.360404 0.573527
O O3 0.362506 0.496074 0.436050
O O4 0.345467 0.531265 0.542836
O O5 0.806659 0.563430 0.830700
O O6 0.685418 0.394624 0.840507
O O7 0.874930 0.546841 0.975948
O O8 0.628633 0.621638 0.841330
O O9 0.299570 0.168141 0.712641
O O10 0.088563 0.095562 0.678619
O O11 0.248022 0.923743 0.706886
O O12 0.404815 0.792170 0.922094
O O13 0.853571 0.768286 0.938170
O O14 0.417149 0.230674 0.080656
#
# Coordination Sequence:
#
# PCOD9306998 Si02
#       7
#     8   8   8   8   8   8   8
#     4   7  12  28  50  65  87 123 158 197 233 276
#     4  12  21  27  50  77 103 124 165 202 251 293
#     4   9  19  33  49  69 103 128 161 205 251 287
#     4   9  19  34  48  73  99 129 163 208 243 289
#     4   7  12  27  50  65  84 125 164 188 230 284
#     4   9  18  33  51  69 100 129 164 199 247 289
#     4   9  18  34  50  72  96 131 165 203 240 297
#
# _framework density 24.214151000000001
#
# number of rings (size 3 to 8) (size 9 to 14) (size 15 to 20)
#    0.000    3.143    0.000    4.714    2.000    0.571 
#    0.000    0.000    0.000    0.000    0.000    0.000 
#    0.000    0.000    0.000    0.000    0.000    0.000 
#
# Total GULP energy -155897.388714 kJ/mol
# GULP energy per Si atom -5567.763883 kJ/mol
# Density = 2.415904 g / cm^3
# Si number density = 24.214151 Si / 1000 Ang^3
#
#
#
# Elastic Constant Matrix: (Units=GPa)
#
#
# Indices 1 2 3 4 5 6 
#
# 1 31.7708 -12.6975 -2.6447 0.0000 1.3850 0.0000
# 2 -12.6975 43.6228 8.1655 0.0000 -2.4087 0.0000
# 3 -2.6447 8.1655 58.8556 0.0000 -9.7620 0.0000
# 4 0.0000 0.0000 0.0000 28.4887 0.0000 -8.9858
# 5 1.3850 -2.4087 -9.7620 0.0000 19.7883 0.0000
# 6 0.0000 0.0000 0.0000 -8.9858 0.0000 10.7143
#
#
#
# Elastic Compliance Matrix: (Units=1/GPa)
#
#
# Indices 1 2 3 4 5 6 
#
# 1 0.035649 0.010314 -0.000038 0.000000 -0.001258 0.000000
# 2 0.010314 0.026553 -0.003054 0.000000 0.001004 0.000000
# 3 -0.000038 -0.003054 0.018898 0.000000 0.008954 0.000000
# 4 0.000000 0.000000 0.000000 0.047727 0.000000 0.040027
# 5 -0.001258 0.001004 0.008954 0.000000 0.055162 0.000000
# 6 0.000000 0.000000 0.000000 0.040027 0.000000 0.126902
#
#
# Mechanical properties :
#
#
# Convention : Reuss Voigt Hill
#
# Bulk Modulus (GPa) = 10.46629 13.32178 11.89403
# Shear Modulus (GPa) = 15.23021 21.22666 18.22844
#
# Velocity S-wave (km/s) = 2.51067 2.96399 2.74670
# Velocity P-wave (km/s) = 3.56881 4.15057 3.87064
#
# Compressibility (1/GPa) = 0.09554486
#
# Stress axis : x y z
#
# Youngs Moduli (GPa) = 28.05108 37.66049 52.91614
#
# Poissons Ratio (x) = -0.38844 0.00200
# Poissons Ratio (y) = -0.28932 0.16161
# Poissons Ratio (z) = 0.00106 0.11501
#
# Static dielectric constant tensor:
#      x y z
#    x 1.944610 0.000000 -0.038420 
#    y 0.000000 2.074140 0.000000 
#    z -0.038420 0.000000 1.991420 
# 
# From -- ./inp_files/248192.got.cif
#   From: 2010.05.17/outbox.cif.g08.bks.cpg/sg15_125_cif.got.tgz:248192.got - 2010.06.03 18:47:42.
