data_PCOD9306649
_publ_section_title
;
Structure prediction by ZEFSAII (Michael W. Deem and Ramdas Pophale) SiO2 
 PCOD9306649
Probable space group: C 2/C
;
_chemical_formula_sum "Si O2"
_cell_formula_units_Z 40
_cell_length_a 23.596489
_cell_length_b 11.942792
_cell_length_c 10.800707
_cell_angle_alpha 90.000000
_cell_angle_beta 34.868064
_cell_angle_gamma 90.000000
_cell_volume 1740.063129
_symmetry_space_group_name_H-M "C 2/C"
_symmetry_group_IT_number 15
_symmetry_cell_setting 'monoclinic'
loop_
_space_group_symop_operation_xyz
x,y,z
-x,y,1/2-z
-x,-y,-z
x,-y,1/2+z
1/2+x,1/2+y,z
1/2-x,1/2+y,1/2-z
1/2-x,1/2-y,-z
1/2+x,1/2-y,1/2+z
loop_
_atom_site_type_symbol
_atom_site_label
_atom_site_fract_x
_atom_site_fract_y
_atom_site_fract_z
Si Si1 0.893745 0.796876 0.502884
Si Si2 0.437754 0.021009 0.737180
Si Si3 0.739089 0.149070 0.921301
Si Si4 0.385254 0.541539 0.488004
Si Si5 0.637194 0.733219 0.167801
O O1 0.817167 0.703265 0.596099
O O2 0.915060 0.797527 0.610107
O O3 0.844333 0.915861 0.555374
O O4 0.000000 0.779042 0.250000
O O5 0.500000 0.990662 0.750000
O O6 0.409490 0.152073 0.798547
O O7 0.500000 0.000000 0.500000
O O8 0.337143 0.948524 0.903176
O O9 0.843457 0.096058 0.689777
O O10 0.750000 0.250000 0.000000
O O11 0.500000 0.523272 0.250000
O O12 0.360889 0.631380 0.428709
O O13 0.750000 0.750000 0.000000
#
# Coordination Sequence:
#
# PCOD9306649 Si02
#       5
#     8   8   8   8   8
#     4  11  26  47  72 106 147 191 245 311 378 446
#     4  12  29  50  81 114 156 202 257 318 388 457
#     4  12  28  45  75 110 151 191 252 312 378 449
#     4  11  28  47  72 105 146 198 248 300 380 446
#     4  12  25  47  77 106 151 193 254 309 376 454
#
# _framework density 22.987673000000001
#
# number of rings (size 3 to 8) (size 9 to 14) (size 15 to 20)
#    0.000    0.400    2.000    4.800   14.000    1.600 
#    0.000    0.000    0.000    0.000    0.000    0.000 
#    0.000    0.000    0.000    0.000    0.000    0.000 
#
# Total GULP energy -111836.169326 kJ/mol
# GULP energy per Si atom -5591.808466 kJ/mol
# Density = 2.293535 g / cm^3
# Si number density = 22.987673 Si / 1000 Ang^3
#
#
#
# Elastic Constant Matrix: (Units=GPa)
#
#
# Indices 1 2 3 4 5 6 
#
# 1 51.5496 19.6910 20.4743 0.0000 12.4223 0.0000
# 2 19.6910 134.3048 22.7181 0.0000 3.7193 0.0000
# 3 20.4743 22.7181 152.7720 0.0000 23.9999 0.0000
# 4 0.0000 0.0000 0.0000 35.1723 0.0000 1.1927
# 5 12.4223 3.7193 23.9999 0.0000 32.6972 0.0000
# 6 0.0000 0.0000 0.0000 1.1927 0.0000 35.1612
#
#
#
# Elastic Compliance Matrix: (Units=1/GPa)
#
#
# Indices 1 2 3 4 5 6 
#
# 1 0.022846 -0.002896 -0.001491 0.000000 -0.007256 0.000000
# 2 -0.002896 0.008005 -0.000941 0.000000 0.000880 0.000000
# 3 -0.001491 -0.000941 0.007663 0.000000 -0.004951 0.000000
# 4 0.000000 0.000000 0.000000 0.028464 0.000000 -0.000966
# 5 -0.007256 0.000880 -0.004951 0.000000 0.036874 0.000000
# 6 0.000000 0.000000 0.000000 -0.000966 0.000000 0.028473
#
#
# Mechanical properties :
#
#
# Convention : Reuss Voigt Hill
#
# Bulk Modulus (GPa) = 35.89633 51.59923 43.74778
# Shear Modulus (GPa) = 32.83681 38.98902 35.91291
#
# Velocity S-wave (km/s) = 3.78359 4.12282 3.95684
# Velocity P-wave (km/s) = 5.89379 6.72003 6.32042
#
# Compressibility (1/GPa) = 0.02785800
#
# Stress axis : x y z
#
# Youngs Moduli (GPa) = 43.77163 124.92020 130.49300
#
# Poissons Ratio (x) = 0.36181 0.19460
# Poissons Ratio (y) = 0.12678 0.12273
# Poissons Ratio (z) = 0.06527 0.11749
#
# Static dielectric constant tensor:
#      x y z
#    x 2.950710 0.000000 1.127310 
#    y 0.000000 1.548650 0.000000 
#    z 1.127310 0.000000 3.090030 
# 
# From -- ./inp_files/122765.got.cif
#   From: 2010.05.17/outbox.cif.g08.bks.cpg/sg15_62_cif.got.tgz:122765.got - 2010.06.03 18:47:42.
