data_PCOD9306931
_publ_section_title
;
Structure prediction by ZEFSAII (Michael W. Deem and Ramdas Pophale) SiO2 
 PCOD9306931
Probable space group: C 2/C
;
_chemical_formula_sum "Si O2"
_cell_formula_units_Z 48
_cell_length_a 15.135043
_cell_length_b 7.972967
_cell_length_c 17.315185
_cell_angle_alpha 90.000000
_cell_angle_beta 112.029877
_cell_angle_gamma 90.000000
_cell_volume 1936.890443
_symmetry_space_group_name_H-M "C 2/C"
_symmetry_group_IT_number 15
_symmetry_cell_setting 'monoclinic'
loop_
_space_group_symop_operation_xyz
x,y,z
-x,y,1/2-z
-x,-y,-z
x,-y,1/2+z
1/2+x,1/2+y,z
1/2-x,1/2+y,1/2-z
1/2-x,1/2-y,-z
1/2+x,1/2-y,1/2+z
loop_
_atom_site_type_symbol
_atom_site_label
_atom_site_fract_x
_atom_site_fract_y
_atom_site_fract_z
Si Si1 0.973420 0.447841 0.405071
Si Si2 0.087509 0.241342 0.339786
Si Si3 0.696114 0.288588 0.627304
Si Si4 0.584195 0.545301 0.966922
Si Si5 0.958205 0.245869 0.817604
Si Si6 0.200372 0.022918 0.276009
O O1 0.909436 0.280698 0.384497
O O2 0.913017 0.597635 0.347138
O O3 0.000000 0.500000 0.500000
O O4 0.063329 0.409683 0.378977
O O5 0.000000 0.221733 0.250000
O O6 0.096610 0.106024 0.411611
O O7 0.176510 0.192964 0.315156
O O8 0.676824 0.391525 0.543381
O O9 0.752812 0.114103 0.651730
O O10 0.737890 0.411118 0.706028
O O11 0.544070 0.694594 0.901702
O O12 0.500000 0.500000 0.000000
O O13 0.893206 0.083982 0.781849
O O14 0.000000 0.299045 0.750000
#
# Coordination Sequence:
#
# PCOD9306931 Si02
#       6
#     8   8   8   8   8   8
#     4  12  24  41  72 105 133 184 247 292 343 432
#     4  12  21  44  73 101 140 189 241 288 354 428
#     4  12  26  44  70 100 147 187 235 297 373 420
#     4  12  19  41  73 100 131 187 239 293 344 426
#     4  12  22  40  70 102 134 178 243 292 341 421
#     4  12  25  46  69 103 142 195 232 300 368 425
#
# _framework density 24.781991000000001
#
# number of rings (size 3 to 8) (size 9 to 14) (size 15 to 20)
#    0.000    0.000   10.000    1.500    0.000    0.667 
#    0.000    0.833    0.000    0.000    0.000    0.000 
#    0.000    0.000    0.000    0.000    0.000    0.000 
#
# Total GULP energy -134055.075136 kJ/mol
# GULP energy per Si atom -5585.628131 kJ/mol
# Density = 2.472559 g / cm^3
# Si number density = 24.781991 Si / 1000 Ang^3
#
#
#
# Elastic Constant Matrix: (Units=GPa)
#
#
# Indices 1 2 3 4 5 6 
#
# 1 11.4593 6.3915 33.2481 0.0000 1.2462 0.0000
# 2 6.3915 100.0614 49.8181 0.0000 -4.9278 0.0000
# 3 33.2481 49.8181 199.7068 0.0000 -8.8706 0.0000
# 4 0.0000 0.0000 0.0000 55.1650 0.0000 -17.3762
# 5 1.2462 -4.9278 -8.8706 0.0000 32.6938 0.0000
# 6 0.0000 0.0000 0.0000 -17.3762 0.0000 42.0019
#
#
#
# Elastic Compliance Matrix: (Units=1/GPa)
#
#
# Indices 1 2 3 4 5 6 
#
# 1 0.176603 0.003381 -0.030894 0.000000 -0.014604 0.000000
# 2 0.003381 0.011506 -0.003403 0.000000 0.000682 0.000000
# 3 -0.030894 -0.003403 0.011164 0.000000 0.003694 0.000000
# 4 0.000000 0.000000 0.000000 0.020844 0.000000 0.008623
# 5 -0.014604 0.000682 0.003694 0.000000 0.032248 0.000000
# 6 0.000000 0.000000 0.000000 0.008623 0.000000 0.027376
#
#
# Mechanical properties :
#
#
# Convention : Reuss Voigt Hill
#
# Bulk Modulus (GPa) = 7.27580 54.46031 30.86806
# Shear Modulus (GPa) = 12.90706 40.75681 26.83193
#
# Velocity S-wave (km/s) = 2.28463 4.05978 3.29404
# Velocity P-wave (km/s) = 3.14670 6.63319 5.19138
#
# Compressibility (1/GPa) = 0.13744191
#
# Stress axis : x y z
#
# Youngs Moduli (GPa) = 5.66241 86.91395 89.57687
#
# Poissons Ratio (x) = -0.29388 2.76738
# Poissons Ratio (y) = -0.01915 0.30481
# Poissons Ratio (z) = 0.17493 0.29575
#
# Static dielectric constant tensor:
#      x y z
#    x 2.079810 0.000000 -0.006450 
#    y 0.000000 2.070270 0.000000 
#    z -0.006450 0.000000 1.932790 
# 
# From -- ./inp_files/209306.got.cif
#   From: 2010.05.17/outbox.cif.g08.bks.cpg/sg15_105_cif.got.tgz:209306.got - 2010.06.03 18:47:42.
