data_PCOD9306654
_publ_section_title
;
Structure prediction by ZEFSAII (Michael W. Deem and Ramdas Pophale) SiO2 
 PCOD9306654
Probable space group: C 2/C
;
_chemical_formula_sum "Si O2"
_cell_formula_units_Z 48
_cell_length_a 5.215150
_cell_length_b 30.133338
_cell_length_c 13.205351
_cell_angle_alpha 90.000000
_cell_angle_beta 112.247492
_cell_angle_gamma 90.000000
_cell_volume 1920.733905
_symmetry_space_group_name_H-M "C 2/C"
_symmetry_group_IT_number 15
_symmetry_cell_setting 'monoclinic'
loop_
_space_group_symop_operation_xyz
x,y,z
-x,y,1/2-z
-x,-y,-z
x,-y,1/2+z
1/2+x,1/2+y,z
1/2-x,1/2+y,1/2-z
1/2-x,1/2-y,-z
1/2+x,1/2-y,1/2+z
loop_
_atom_site_type_symbol
_atom_site_label
_atom_site_fract_x
_atom_site_fract_y
_atom_site_fract_z
Si Si1 0.959176 0.175438 0.465087
Si Si2 0.000000 0.588997 0.250000
Si Si3 0.691685 0.750788 0.183289
Si Si4 0.722407 0.975950 0.927332
Si Si5 0.207093 0.553983 0.649685
Si Si6 0.410617 0.153240 0.898990
Si Si7 0.500000 0.633440 0.250000
O O1 0.262721 0.162008 0.545978
O O2 0.935099 0.156374 0.347898
O O3 0.922504 0.227821 0.435916
O O4 0.741189 0.157762 0.514418
O O5 0.230646 0.559081 0.339731
O O6 0.195862 0.610790 0.193928
O O7 0.500000 0.739870 0.250000
O O8 0.702103 0.803738 0.176248
O O9 0.000000 0.733490 0.250000
O O10 0.504872 0.013686 0.860676
O O11 0.673922 0.948747 0.022862
O O12 0.000000 0.000000 0.000000
O O13 0.500000 0.544488 0.750000
O O14 0.140973 0.605574 0.660324
#
# Coordination Sequence:
#
# PCOD9306654 Si02
#       7
#     8   4   8   8   8   8   4
#     4  12  25  47  72 108 147 195 247 314 379 445
#     4  12  28  46  76 109 146 193 254 318 388 454
#     4  12  25  47  73 107 150 196 247 307 377 453
#     4  11  26  47  73 105 146 195 248 313 384 457
#     4  11  26  47  74 108 148 197 249 311 381 460
#     4  12  27  46  74 109 148 198 251 308 376 460
#     4  12  26  44  74 105 142 187 248 320 378 452
#
# _framework density 24.990448000000001
#
# number of rings (size 3 to 8) (size 9 to 14) (size 15 to 20)
#    0.000    0.333    0.833    7.500   11.667    0.000 
#    1.500    0.000    0.000    0.000    0.000    0.000 
#    0.000    0.000    0.000    0.000    0.000    0.000 
#
# Total GULP energy -134102.465662 kJ/mol
# GULP energy per Si atom -5587.602736 kJ/mol
# Density = 2.493357 g / cm^3
# Si number density = 24.990448 Si / 1000 Ang^3
#
#
#
# Elastic Constant Matrix: (Units=GPa)
#
#
# Indices 1 2 3 4 5 6 
#
# 1 151.0551 48.7016 50.7975 0.0000 7.7115 0.0000
# 2 48.7016 107.8520 22.0196 0.0000 15.2518 0.0000
# 3 50.7975 22.0196 104.9821 0.0000 18.9463 0.0000
# 4 0.0000 0.0000 0.0000 1229.4836 0.0000 -494.1891
# 5 7.7115 15.2518 18.9463 0.0000 66.8330 0.0000
# 6 0.0000 0.0000 0.0000 -494.1891 0.0000 220.2165
#
#
#
# Elastic Compliance Matrix: (Units=1/GPa)
#
#
# Indices 1 2 3 4 5 6 
#
# 1 0.008933 -0.003380 -0.003759 0.000000 0.000806 0.000000
# 2 -0.003380 0.011158 -0.000333 0.000000 -0.002062 0.000000
# 3 -0.003759 -0.000333 0.011932 0.000000 -0.002873 0.000000
# 4 0.000000 0.000000 0.000000 0.008301 0.000000 0.018628
# 5 0.000806 -0.002062 -0.002873 0.000000 0.016155 0.000000
# 6 0.000000 0.000000 0.000000 0.018628 0.000000 0.046344
#
#
# Mechanical properties :
#
#
# Convention : Reuss Voigt Hill
#
# Bulk Modulus (GPa) = 58.54870 67.43628 62.99249
# Shear Modulus (GPa) = 40.49929 319.46465 179.98197
#
# Velocity S-wave (km/s) = 4.03002 11.31867 8.49568
# Velocity P-wave (km/s) = 6.71819 14.06626 11.02256
#
# Compressibility (1/GPa) = 0.01707980
#
# Stress axis : x y z
#
# Youngs Moduli (GPa) = 111.94695 89.62285 83.80500
#
# Poissons Ratio (x) = 0.30295 0.31501
# Poissons Ratio (y) = 0.37841 0.02787
# Poissons Ratio (z) = 0.42079 0.02981
#
# Static dielectric constant tensor:
#      x y z
#    x 1.909060 0.000000 0.031730 
#    y 0.000000 1.375640 0.000000 
#    z 0.031730 0.000000 1.909760 
# 
# From -- ./inp_files/130975.got.cif
#   From: 2010.05.17/outbox.cif.g08.bks.cpg/sg15_66_cif.got.tgz:130975.got - 2010.06.03 18:47:42.
