data_PCOD9306700
_publ_section_title
;
Structure prediction by ZEFSAII (Michael W. Deem and Ramdas Pophale) SiO2 
 PCOD9306700
Probable space group: C 2/C
;
_chemical_formula_sum "Si O2"
_cell_formula_units_Z 44
_cell_length_a 16.311842
_cell_length_b 8.265982
_cell_length_c 14.177900
_cell_angle_alpha 90.000000
_cell_angle_beta 78.010991
_cell_angle_gamma 90.000000
_cell_volume 1869.956328
_symmetry_space_group_name_H-M "C 2/C"
_symmetry_group_IT_number 15
_symmetry_cell_setting 'monoclinic'
loop_
_space_group_symop_operation_xyz
x,y,z
-x,y,1/2-z
-x,-y,-z
x,-y,1/2+z
1/2+x,1/2+y,z
1/2-x,1/2+y,1/2-z
1/2-x,1/2-y,-z
1/2+x,1/2-y,1/2+z
loop_
_atom_site_type_symbol
_atom_site_label
_atom_site_fract_x
_atom_site_fract_y
_atom_site_fract_z
Si Si1 0.260816 0.130783 0.211630
Si Si2 0.230080 0.031589 0.897792
Si Si3 0.927563 0.564489 0.648282
Si Si4 0.000000 0.163114 0.250000
Si Si5 0.898663 0.600754 0.434226
Si Si6 0.369971 0.470925 0.397550
O O1 0.223701 0.115762 0.325455
O O2 0.268115 0.306617 0.164374
O O3 0.352966 0.052834 0.196391
O O4 0.203610 0.023579 0.155992
O O5 0.318038 0.009429 0.931205
O O6 0.157386 0.031320 0.992486
O O7 0.934802 0.719458 0.713296
O O8 0.912180 0.610128 0.543148
O O9 0.017564 0.475607 0.629226
O O10 0.047141 0.055695 0.161745
O O11 0.881220 0.779218 0.399630
#
# Coordination Sequence:
#
# PCOD9306700 Si02
#       6
#     8   8   8   4   8   8
#     4  12  26  46  80 110 151 201 253 302 380 446
#     4  12  27  48  78 113 155 199 252 311 373 452
#     4  11  26  49  74 108 151 199 246 312 373 448
#     4  12  30  50  76 112 154 198 260 308 384 446
#     4  11  26  48  76 105 153 198 246 309 382 432
#     4  12  28  49  77 111 150 199 254 316 366 452
#
# _framework density 23.529959999999999
#
# number of rings (size 3 to 8) (size 9 to 14) (size 15 to 20)
#    0.000    0.364    1.818    5.455   10.182    4.364 
#    0.000    0.000    0.000    0.000    0.000    0.000 
#    0.000    0.000    0.000    0.000    0.000    0.000 
#
# Total GULP energy -123480.818972 kJ/mol
# GULP energy per Si atom -5612.764499 kJ/mol
# Density = 2.347641 g / cm^3
# Si number density = 23.529960 Si / 1000 Ang^3
#
#
#
# Elastic Constant Matrix: (Units=GPa)
#
#
# Indices 1 2 3 4 5 6 
#
# 1 96.7552 58.6693 41.4735 0.0000 -14.0305 0.0000
# 2 58.6693 123.8977 50.3475 0.0000 -11.9861 0.0000
# 3 41.4735 50.3475 165.9427 0.0000 -16.7739 0.0000
# 4 0.0000 0.0000 0.0000 31.2377 0.0000 0.2585
# 5 -14.0305 -11.9861 -16.7739 0.0000 34.7078 0.0000
# 6 0.0000 0.0000 0.0000 0.2585 0.0000 40.7884
#
#
#
# Elastic Compliance Matrix: (Units=1/GPa)
#
#
# Indices 1 2 3 4 5 6 
#
# 1 0.015298 -0.006284 -0.001588 0.000000 0.003246 0.000000
# 2 -0.006284 0.011912 -0.001981 0.000000 0.000616 0.000000
# 3 -0.001588 -0.001981 0.007244 0.000000 0.002175 0.000000
# 4 0.000000 0.000000 0.000000 0.032014 0.000000 -0.000203
# 5 0.003246 0.000616 0.002175 0.000000 0.031388 0.000000
# 6 0.000000 0.000000 0.000000 -0.000203 0.000000 0.024518
#
#
# Mechanical properties :
#
#
# Convention : Reuss Voigt Hill
#
# Bulk Modulus (GPa) = 67.81790 76.39735 72.10763
# Shear Modulus (GPa) = 34.01441 37.08714 35.55078
#
# Velocity S-wave (km/s) = 3.80620 3.97440 3.89121
# Velocity P-wave (km/s) = 6.94267 7.32119 7.13444
#
# Compressibility (1/GPa) = 0.01474537
#
# Stress axis : x y z
#
# Youngs Moduli (GPa) = 65.36975 83.95144 138.04361
#
# Poissons Ratio (x) = 0.52758 0.21928
# Poissons Ratio (y) = 0.41081 0.27349
# Poissons Ratio (z) = 0.10384 0.16632
#
# Static dielectric constant tensor:
#      x y z
#    x 1.883650 0.000000 -0.003200 
#    y 0.000000 1.850200 0.000000 
#    z -0.003200 0.000000 1.886060 
# 
# From -- ./inp_files/159288.got.cif
#   From: 2010.05.17/outbox.cif.g08.bks.cpg/sg15_80_cif.got.tgz:159288.got - 2010.06.03 18:47:42.
