data_PCOD9306473
_publ_section_title
;
Structure prediction by ZEFSAII (Michael W. Deem and Ramdas Pophale) SiO2 
 PCOD9306473
Probable space group: C 2/C
;
_chemical_formula_sum "Si O2"
_cell_formula_units_Z 32
_cell_length_a 18.109361
_cell_length_b 6.277318
_cell_length_c 11.751819
_cell_angle_alpha 90.000000
_cell_angle_beta 93.780930
_cell_angle_gamma 90.000000
_cell_volume 1333.018159
_symmetry_space_group_name_H-M "C 2/C"
_symmetry_group_IT_number 15
_symmetry_cell_setting 'monoclinic'
loop_
_space_group_symop_operation_xyz
x,y,z
-x,y,1/2-z
-x,-y,-z
x,-y,1/2+z
1/2+x,1/2+y,z
1/2-x,1/2+y,1/2-z
1/2-x,1/2-y,-z
1/2+x,1/2-y,1/2+z
loop_
_atom_site_type_symbol
_atom_site_label
_atom_site_fract_x
_atom_site_fract_y
_atom_site_fract_z
Si Si1 0.886879 0.655578 0.495508
Si Si2 0.711363 0.153047 0.384313
Si Si3 0.030527 0.300963 0.140886
Si Si4 0.348332 0.463064 0.292332
O O1 0.832271 0.558739 0.583763
O O2 0.917858 0.453555 0.428068
O O3 0.848772 0.811489 0.403102
O O4 0.959044 0.759471 0.559783
O O5 0.750000 0.250000 0.500000
O O6 0.656733 0.323288 0.321446
O O7 0.774860 0.104494 0.298781
O O8 0.000000 0.419921 0.250000
O O9 0.079091 0.106044 0.190060
#
# Coordination Sequence:
#
# PCOD9306473 Si02
#       4
#     8   8   8   8
#     4  11  25  49  72 105 146 193 245 305 362 433
#     4  12  26  46  77 106 148 195 243 299 371 437
#     4  11  26  44  74 107 146 189 245 304 364 434
#     4  12  27  46  73 107 144 195 244 303 366 434
#
# _framework density 24.005673999999999
#
# number of rings (size 3 to 8) (size 9 to 14) (size 15 to 20)
#    0.000    0.500    2.500    4.500    7.000    5.000 
#    0.000    0.000    0.000    0.000    0.000    0.000 
#    0.000    0.000    0.000    0.000    0.000    0.000 
#
# Total GULP energy -89729.229758 kJ/mol
# GULP energy per Si atom -5608.076860 kJ/mol
# Density = 2.395104 g / cm^3
# Si number density = 24.005674 Si / 1000 Ang^3
#
#
#
# Elastic Constant Matrix: (Units=GPa)
#
#
# Indices 1 2 3 4 5 6 
#
# 1 115.0687 44.6533 26.9823 0.0000 13.7565 0.0000
# 2 44.6533 71.3764 32.9624 0.0000 22.8591 0.0000
# 3 26.9823 32.9624 94.1961 0.0000 9.5289 0.0000
# 4 0.0000 0.0000 0.0000 61.9180 0.0000 8.2658
# 5 13.7565 22.8591 9.5289 0.0000 44.3416 0.0000
# 6 0.0000 0.0000 0.0000 8.2658 0.0000 41.3048
#
#
#
# Elastic Compliance Matrix: (Units=1/GPa)
#
#
# Indices 1 2 3 4 5 6 
#
# 1 0.011545 -0.006840 -0.000928 0.000000 0.000144 0.000000
# 2 -0.006840 0.023640 -0.005413 0.000000 -0.008902 0.000000
# 3 -0.000928 -0.005413 0.012742 0.000000 0.000340 0.000000
# 4 0.000000 0.000000 0.000000 0.016594 0.000000 -0.003321
# 5 0.000144 -0.008902 0.000340 0.000000 0.027024 0.000000
# 6 0.000000 0.000000 0.000000 -0.003321 0.000000 0.024875
#
#
# Mechanical properties :
#
#
# Convention : Reuss Voigt Hill
#
# Bulk Modulus (GPa) = 46.37114 54.42636 50.39875
# Shear Modulus (GPa) = 33.34021 41.24909 37.29465
#
# Velocity S-wave (km/s) = 3.73077 4.14974 3.94582
# Velocity P-wave (km/s) = 6.15766 6.75885 6.46525
#
# Compressibility (1/GPa) = 0.02156514
#
# Stress axis : x y z
#
# Youngs Moduli (GPa) = 86.61528 42.30116 78.48300
#
# Poissons Ratio (x) = 0.28935 0.07283
# Poissons Ratio (y) = 0.59248 0.42479
# Poissons Ratio (z) = 0.08038 0.22896
#
# Static dielectric constant tensor:
#      x y z
#    x 1.882920 0.000000 0.009900 
#    y 0.000000 1.899280 0.000000 
#    z 0.009900 0.000000 1.895590 
# 
# From -- ./inp_files/109057.got.cif
#   From: 2010.05.17/outbox.cif.g08.bks.cpg/sg15_55_cif.got.tgz:109057.got - 2010.06.03 18:47:42.
