data_PCOD9306905
_publ_section_title
;
Structure prediction by ZEFSAII (Michael W. Deem and Ramdas Pophale) SiO2 
 PCOD9306905
Probable space group: C 2/C
;
_chemical_formula_sum "Si O2"
_cell_formula_units_Z 36
_cell_length_a 10.449959
_cell_length_b 12.144687
_cell_length_c 14.328795
_cell_angle_alpha 90.000000
_cell_angle_beta 136.761101
_cell_angle_gamma 90.000000
_cell_volume 1245.740805
_symmetry_space_group_name_H-M "C 2/C"
_symmetry_group_IT_number 15
_symmetry_cell_setting 'monoclinic'
loop_
_space_group_symop_operation_xyz
x,y,z
-x,y,1/2-z
-x,-y,-z
x,-y,1/2+z
1/2+x,1/2+y,z
1/2-x,1/2+y,1/2-z
1/2-x,1/2-y,-z
1/2+x,1/2-y,1/2+z
loop_
_atom_site_type_symbol
_atom_site_label
_atom_site_fract_x
_atom_site_fract_y
_atom_site_fract_z
Si Si1 0.220584 0.208236 0.767779
Si Si2 0.204928 0.057449 0.592417
Si Si3 0.295874 0.993571 0.850038
Si Si4 0.000000 0.397937 0.750000
Si Si5 0.167276 0.279331 0.534354
O O1 0.165269 0.186981 0.628457
O O2 0.102827 0.311157 0.735903
O O3 0.183948 0.103557 0.814489
O O4 0.444760 0.222958 0.895368
O O5 0.254709 0.162657 0.532133
O O6 0.308726 0.020084 0.747058
O O7 0.334640 0.964595 0.608279
O O8 0.000000 0.000000 0.500000
O O9 0.230238 0.874908 0.849514
O O10 0.500000 0.000000 0.000000
#
# Coordination Sequence:
#
# PCOD9306905 Si02
#       5
#     8   8   8   4   8
#     4   8  20  34  58  91 114 164 208 249 312 377
#     4   8  20  33  57  90 112 162 206 245 307 375
#     4   9  18  36  58  86 124 154 203 256 302 370
#     4  12  16  40  68  78 122 168 206 250 324 362
#     4   9  18  33  56  85 123 151 203 255 300 372
#
# _framework density 28.898468999999999
#
# number of rings (size 3 to 8) (size 9 to 14) (size 15 to 20)
#    2.667    0.000    2.222    0.000    3.111    0.000 
#    0.000    2.222    4.889    2.667    0.000    0.000 
#    0.000    0.000    0.000    0.000    0.000    0.000 
#
# Total GULP energy -100327.347178 kJ/mol
# GULP energy per Si atom -5573.741510 kJ/mol
# Density = 2.883269 g / cm^3
# Si number density = 28.898469 Si / 1000 Ang^3
#
#
#
# Elastic Constant Matrix: (Units=GPa)
#
#
# Indices 1 2 3 4 5 6 
#
# 1 185.7450 78.9248 90.3822 0.0000 16.5902 0.0000
# 2 78.9248 349.3931 64.5345 0.0000 2.5200 0.0000
# 3 90.3822 64.5345 173.3303 0.0000 1.4991 0.0000
# 4 0.0000 0.0000 0.0000 72.6954 0.0000 -7.5486
# 5 16.5902 2.5200 1.4991 0.0000 81.3482 0.0000
# 6 0.0000 0.0000 0.0000 -7.5486 0.0000 36.6418
#
#
#
# Elastic Compliance Matrix: (Units=1/GPa)
#
#
# Indices 1 2 3 4 5 6 
#
# 1 0.007731 -0.001067 -0.003621 0.000000 -0.001477 0.000000
# 2 -0.001067 0.003221 -0.000644 0.000000 0.000130 0.000000
# 3 -0.003621 -0.000644 0.007892 0.000000 0.000613 0.000000
# 4 0.000000 0.000000 0.000000 0.014057 0.000000 0.002896
# 5 -0.001477 0.000130 0.000613 0.000000 0.012579 0.000000
# 6 0.000000 0.000000 0.000000 0.002896 0.000000 0.027888
#
#
# Mechanical properties :
#
#
# Convention : Reuss Voigt Hill
#
# Bulk Modulus (GPa) = 122.25286 130.68350 126.46818
# Shear Modulus (GPa) = 57.63104 69.77890 63.70497
#
# Velocity S-wave (km/s) = 4.47056 4.91921 4.70024
# Velocity P-wave (km/s) = 8.30927 8.80821 8.56238
#
# Compressibility (1/GPa) = 0.00817977
#
# Stress axis : x y z
#
# Youngs Moduli (GPa) = 129.34820 310.44979 126.70777
#
# Poissons Ratio (x) = 0.33120 0.45885
# Poissons Ratio (y) = 0.13799 0.08161
# Poissons Ratio (z) = 0.46841 0.19997
#
# Static dielectric constant tensor:
#      x y z
#    x 3.024520 0.000000 -0.167520 
#    y 0.000000 3.377270 0.000000 
#    z -0.167520 0.000000 2.116000 
# 
# From -- ./inp_files/37650.got.cif
#   From: 2010.05.17/outbox.cif.g08.bks.cpg/sg15_19_cif.got.tgz:37650.got - 2010.06.03 18:47:42.
