data_PCOD9306364
_publ_section_title
;
Structure prediction by ZEFSAII (Michael W. Deem and Ramdas Pophale) SiO2 
 PCOD9306364
Probable space group: C 2/C
;
_chemical_formula_sum "Si O2"
_cell_formula_units_Z 56
_cell_length_a 22.051469
_cell_length_b 9.512741
_cell_length_c 16.182336
_cell_angle_alpha 90.000000
_cell_angle_beta 44.645464
_cell_angle_gamma 90.000000
_cell_volume 2385.422883
_symmetry_space_group_name_H-M "C 2/C"
_symmetry_group_IT_number 15
_symmetry_cell_setting 'monoclinic'
loop_
_space_group_symop_operation_xyz
x,y,z
-x,y,1/2-z
-x,-y,-z
x,-y,1/2+z
1/2+x,1/2+y,z
1/2-x,1/2+y,1/2-z
1/2-x,1/2-y,-z
1/2+x,1/2-y,1/2+z
loop_
_atom_site_type_symbol
_atom_site_label
_atom_site_fract_x
_atom_site_fract_y
_atom_site_fract_z
Si Si1 0.669720 0.883515 0.901149
Si Si2 0.179381 0.632586 0.583033
Si Si3 0.278722 0.164299 0.392315
Si Si4 0.797555 0.684605 0.689369
Si Si5 0.496744 0.249344 0.509550
Si Si6 0.558135 0.642668 0.273453
Si Si7 0.442986 0.340715 0.222211
O O1 0.716741 0.021905 0.819645
O O2 0.733834 0.751945 0.819776
O O3 0.578294 0.853348 0.944854
O O4 0.650762 0.906297 0.017054
O O5 0.250000 0.750000 0.500000
O O6 0.218794 0.499447 0.590971
O O7 0.108238 0.713884 0.705787
O O8 0.250000 0.250000 0.500000
O O9 0.222846 0.217738 0.370077
O O10 0.123881 0.285600 0.716011
O O11 0.899486 0.691374 0.607277
O O12 0.498206 0.346430 0.589525
O O13 0.505681 0.325656 0.413057
O O14 0.500000 0.625322 0.250000
O O15 0.606303 0.492062 0.231099
O O16 0.500000 0.329132 0.250000
#
# Coordination Sequence:
#
# PCOD9306364 Si02
#       7
#     8   8   8   8   8   8   8
#     4  12  28  51  76 112 158 201 259 323 392 469
#     4  12  27  46  75 108 151 201 255 320 389 463
#     4  12  25  48  74 107 150 200 256 321 385 467
#     4  12  29  48  78 114 154 202 261 322 393 468
#     4  12  26  49  79 114 155 206 261 324 393 469
#     4  11  25  47  74 111 152 198 259 322 393 468
#     4  11  26  47  74 111 154 204 260 321 397 472
#
# _framework density 23.475921
#
# number of rings (size 3 to 8) (size 9 to 14) (size 15 to 20)
#    0.000    0.286    4.286    3.429    6.000    4.000 
#    0.000    0.000    0.000    0.000    0.000    0.000 
#    0.000    0.000    0.000    0.000    0.000    0.000 
#
# Total GULP energy -156575.313304 kJ/mol
# GULP energy per Si atom -5591.975475 kJ/mol
# Density = 2.342249 g / cm^3
# Si number density = 23.475921 Si / 1000 Ang^3
#
#
#
# Elastic Constant Matrix: (Units=GPa)
#
#
# Indices 1 2 3 4 5 6 
#
# 1 131.7984 45.3522 42.7105 0.0000 13.8801 0.0000
# 2 45.3522 159.1258 37.2207 0.0002 -2.3893 -0.0003
# 3 42.7105 37.2207 128.8824 0.0000 25.7552 -0.0001
# 4 0.0000 0.0002 0.0000 59.6481 0.0000 51.4458
# 5 13.8801 -2.3893 25.7552 0.0000 53.7408 0.0000
# 6 0.0000 -0.0003 -0.0001 51.4458 0.0000 59.4369
#
#
#
# Elastic Compliance Matrix: (Units=1/GPa)
#
#
# Indices 1 2 3 4 5 6 
#
# 1 0.009165 -0.002135 -0.002133 0.000000 -0.001440 0.000000
# 2 -0.002135 0.007328 -0.001752 0.000000 0.001717 0.000000
# 3 -0.002133 -0.001752 0.009818 0.000000 -0.004232 0.000000
# 4 0.000000 0.000000 0.000000 0.066142 0.000000 -0.057249
# 5 -0.001440 0.001717 -0.004232 0.000000 0.021084 0.000000
# 6 0.000000 0.000000 0.000000 -0.057249 0.000000 0.066377
#
#
# Mechanical properties :
#
#
# Convention : Reuss Voigt Hill
#
# Bulk Modulus (GPa) = 70.07097 74.48593 72.27845
# Shear Modulus (GPa) = 25.41811 54.20003 39.80907
#
# Velocity S-wave (km/s) = 3.29406 4.81016 4.12240
# Velocity P-wave (km/s) = 6.66187 7.91503 7.31534
#
# Compressibility (1/GPa) = 0.01427124
#
# Stress axis : x y z
#
# Youngs Moduli (GPa) = 109.11399 136.45631 101.85862
#
# Poissons Ratio (x) = 0.29130 0.21725
# Poissons Ratio (y) = 0.23293 0.17846
# Poissons Ratio (z) = 0.23273 0.23908
#
# Static dielectric constant tensor:
#      x y z
#    x 1.944200 0.000000 -0.011070 
#    y 0.000000 1.966320 0.000000 
#    z -0.011070 0.000000 2.028660 
# 
# From -- ./inp_files/173462.got.cif
#   From: 2010.05.17/outbox.cif.g08.bks.cpg/sg15_87_cif.got.tgz:173462.got - 2010.06.03 18:47:42.
