data_PCOD9306085
_publ_section_title
;
Structure prediction by ZEFSAII (Michael W. Deem and Ramdas Pophale) SiO2 
 PCOD9306085
Probable space group: C 2/C
;
_chemical_formula_sum "Si O2"
_cell_formula_units_Z 24
_cell_length_a 18.359332
_cell_length_b 6.145385
_cell_length_c 8.823968
_cell_angle_alpha 90.000000
_cell_angle_beta 70.231371
_cell_angle_gamma 90.000000
_cell_volume 936.893063
_symmetry_space_group_name_H-M "C 2/C"
_symmetry_group_IT_number 15
_symmetry_cell_setting 'monoclinic'
loop_
_space_group_symop_operation_xyz
x,y,z
-x,y,1/2-z
-x,-y,-z
x,-y,1/2+z
1/2+x,1/2+y,z
1/2-x,1/2+y,1/2-z
1/2-x,1/2-y,-z
1/2+x,1/2-y,1/2+z
loop_
_atom_site_type_symbol
_atom_site_label
_atom_site_fract_x
_atom_site_fract_y
_atom_site_fract_z
Si Si1 0.155091 0.961786 0.971751
Si Si2 0.676320 0.809131 0.746826
Si Si3 0.549466 0.161645 0.860124
O O1 0.161078 0.214310 0.924731
O O2 0.082348 0.853618 0.940385
O O3 0.234745 0.864850 0.845708
O O4 0.154765 0.882835 0.144255
O O5 0.622317 0.014809 0.756687
O O6 0.500000 0.233639 0.750000
O O7 0.500000 0.000000 0.000000
#
# Coordination Sequence:
#
# PCOD9306085 Si02
#       3
#     8   8   8
#     4  11  25  44  71 101 135 180 229 274 336 409
#     4  11  25  44  71 102 133 181 230 274 336 405
#     4  12  26  46  66 103 143 174 221 285 345 393
#
# _framework density 25.616582999999999
#
# number of rings (size 3 to 8) (size 9 to 14) (size 15 to 20)
#    0.000    0.667    6.667    0.000    4.667    4.000 
#    0.000    0.000    0.000    0.000    0.000    0.000 
#    0.000    0.000    0.000    0.000    0.000    0.000 
#
# Total GULP energy -67334.138478 kJ/mol
# GULP energy per Si atom -5611.178207 kJ/mol
# Density = 2.555828 g / cm^3
# Si number density = 25.616583 Si / 1000 Ang^3
#
#
#
# Elastic Constant Matrix: (Units=GPa)
#
#
# Indices 1 2 3 4 5 6 
#
# 1 137.4210 11.1403 32.7098 0.0000 13.1626 0.0000
# 2 11.1403 30.9980 19.0413 0.0000 0.9442 0.0000
# 3 32.7098 19.0413 89.2199 0.0000 3.8493 0.0000
# 4 0.0000 0.0000 0.0000 57.7159 0.0000 -1.6676
# 5 13.1626 0.9442 3.8493 0.0000 42.4567 0.0000
# 6 0.0000 0.0000 0.0000 -1.6676 0.0000 42.2649
#
#
#
# Elastic Compliance Matrix: (Units=1/GPa)
#
#
# Indices 1 2 3 4 5 6 
#
# 1 0.008228 -0.001260 -0.002649 0.000000 -0.002283 0.000000
# 2 -0.001260 0.037321 -0.007513 0.000000 0.000242 0.000000
# 3 -0.002649 -0.007513 0.013794 0.000000 -0.000262 0.000000
# 4 0.000000 0.000000 0.000000 0.017346 0.000000 0.000684
# 5 -0.002283 0.000242 -0.000262 0.000000 0.024280 0.000000
# 6 0.000000 0.000000 0.000000 0.000684 0.000000 0.023687
#
#
# Mechanical properties :
#
#
# Convention : Reuss Voigt Hill
#
# Bulk Modulus (GPa) = 27.39887 42.60240 35.00063
# Shear Modulus (GPa) = 31.31490 41.47066 36.39278
#
# Velocity S-wave (km/s) = 3.50014 4.02792 3.77327
# Velocity P-wave (km/s) = 5.20131 6.18862 5.71632
#
# Compressibility (1/GPa) = 0.03649785
#
# Stress axis : x y z
#
# Youngs Moduli (GPa) = 121.53166 26.79451 72.49346
#
# Poissons Ratio (x) = 0.03377 0.19205
# Poissons Ratio (y) = 0.15316 0.54468
# Poissons Ratio (z) = 0.32196 0.20132
#
# Static dielectric constant tensor:
#      x y z
#    x 1.965520 0.000000 -0.017260 
#    y 0.000000 1.981720 0.000000 
#    z -0.017260 0.000000 1.973170 
# 
# From -- ./inp_files/59450.got.cif
#   From: 2010.05.17/outbox.cif.g08.bks.cpg/sg15_30_cif.got.tgz:59450.got - 2010.06.03 18:47:42.
