data_PCOD9306947
_publ_section_title
;
Structure prediction by ZEFSAII (Michael W. Deem and Ramdas Pophale) SiO2 
 PCOD9306947
Probable space group: C 2/C
;
_chemical_formula_sum "Si O2"
_cell_formula_units_Z 40
_cell_length_a 6.881812
_cell_length_b 24.771690
_cell_length_c 9.508757
_cell_angle_alpha 90.000000
_cell_angle_beta 105.829699
_cell_angle_gamma 90.000000
_cell_volume 1559.523415
_symmetry_space_group_name_H-M "C 2/C"
_symmetry_group_IT_number 15
_symmetry_cell_setting 'monoclinic'
loop_
_space_group_symop_operation_xyz
x,y,z
-x,y,1/2-z
-x,-y,-z
x,-y,1/2+z
1/2+x,1/2+y,z
1/2-x,1/2+y,1/2-z
1/2-x,1/2-y,-z
1/2+x,1/2-y,1/2+z
loop_
_atom_site_type_symbol
_atom_site_label
_atom_site_fract_x
_atom_site_fract_y
_atom_site_fract_z
Si Si1 0.717590 0.060643 0.616689
Si Si2 0.718428 0.355101 0.925605
Si Si3 0.266017 0.460987 0.446575
Si Si4 0.367609 0.819956 0.423878
Si Si5 0.000000 0.760259 0.750000
Si Si6 0.500000 0.171584 0.250000
O O1 0.473660 0.051388 0.568420
O O2 0.788384 0.043465 0.784845
O O3 0.756123 0.124517 0.602534
O O4 0.803529 0.019444 0.519072
O O5 0.589317 0.301406 0.882248
O O6 0.827248 0.362709 0.794716
O O7 0.625416 0.410651 0.956198
O O8 0.901277 0.338964 0.064711
O O9 0.334414 0.775367 0.299398
O O10 0.400418 0.800972 0.592226
#
# Coordination Sequence:
#
# PCOD9306947 Si02
#       6
#     8   8   8   8   4   4
#     4   9  17  27  50  78 103 132 166 227 262 304
#     4   9  20  34  52  78 108 140 178 218 259 318
#     4   9  17  28  49  78 104 128 174 216 272 299
#     4   9  19  33  50  79 105 135 181 220 263 305
#     4  12  20  34  59  72 109 150 176 210 262 326
#     4   8  20  34  49  74 115 126 178 230 256 308
#
# _framework density 25.648862000000001
#
# number of rings (size 3 to 8) (size 9 to 14) (size 15 to 20)
#    1.200    1.600    0.000    3.000    2.800    0.800 
#    0.000    0.000    0.000    1.200    0.000    0.000 
#    0.000    0.000    0.000    0.000    0.000    0.000 
#
# Total GULP energy -111550.817080 kJ/mol
# GULP energy per Si atom -5577.540854 kJ/mol
# Density = 2.559048 g / cm^3
# Si number density = 25.648862 Si / 1000 Ang^3
#
#
#
# Elastic Constant Matrix: (Units=GPa)
#
#
# Indices 1 2 3 4 5 6 
#
# 1 61.0485 47.1570 19.0193 0.0000 -22.9072 0.0000
# 2 47.1570 162.3949 70.4427 0.0000 -36.6183 0.0000
# 3 19.0193 70.4427 108.2805 0.0000 -34.0023 0.0000
# 4 0.0000 0.0000 0.0000 25.9238 0.0000 0.3838
# 5 -22.9072 -36.6183 -34.0023 0.0000 40.3211 0.0000
# 6 0.0000 0.0000 0.0000 0.3838 0.0000 31.7360
#
#
#
# Elastic Compliance Matrix: (Units=1/GPa)
#
#
# Indices 1 2 3 4 5 6 
#
# 1 0.024028 -0.005817 0.002981 0.000000 0.010882 0.000000
# 2 -0.005817 0.010542 -0.005261 0.000000 0.001833 0.000000
# 3 0.002981 -0.005261 0.015188 0.000000 0.009723 0.000000
# 4 0.000000 0.000000 0.000000 0.038581 0.000000 -0.000467
# 5 0.010882 0.001833 0.009723 0.000000 0.040847 0.000000
# 6 0.000000 0.000000 0.000000 -0.000467 0.000000 0.031516
#
#
# Mechanical properties :
#
#
# Convention : Reuss Voigt Hill
#
# Bulk Modulus (GPa) = 29.79379 67.21796 48.50587
# Shear Modulus (GPa) = 26.58384 32.60317 29.59351
#
# Velocity S-wave (km/s) = 3.22289 3.56917 3.40044
# Velocity P-wave (km/s) = 5.04882 6.57641 5.86258
#
# Compressibility (1/GPa) = 0.03356405
#
# Stress axis : x y z
#
# Youngs Moduli (GPa) = 41.61800 94.85571 65.84335
#
# Poissons Ratio (x) = 0.55173 -0.19626
# Poissons Ratio (y) = 0.24207 0.34641
# Poissons Ratio (z) = -0.12405 0.49905
#
# Static dielectric constant tensor:
#      x y z
#    x 2.176000 0.000000 0.061170 
#    y 0.000000 2.092460 0.000000 
#    z 0.061170 0.000000 2.012240 
# 
# From -- ./inp_files/79554.got.cif
#   From: 2010.05.17/outbox.cif.g08.bks.cpg/sg15_40_cif.got.tgz:79554.got - 2010.06.03 18:47:42.
