data_PCOD9306850
_publ_section_title
;
Structure prediction by ZEFSAII (Michael W. Deem and Ramdas Pophale) SiO2 
 PCOD9306850
Probable space group: C 2/C
;
_chemical_formula_sum "Si O2"
_cell_formula_units_Z 44
_cell_length_a 9.095056
_cell_length_b 16.156781
_cell_length_c 13.092229
_cell_angle_alpha 90.000000
_cell_angle_beta 62.612717
_cell_angle_gamma 90.000000
_cell_volume 1708.230326
_symmetry_space_group_name_H-M "C 2/C"
_symmetry_group_IT_number 15
_symmetry_cell_setting 'monoclinic'
loop_
_space_group_symop_operation_xyz
x,y,z
-x,y,1/2-z
-x,-y,-z
x,-y,1/2+z
1/2+x,1/2+y,z
1/2-x,1/2+y,1/2-z
1/2-x,1/2-y,-z
1/2+x,1/2-y,1/2+z
loop_
_atom_site_type_symbol
_atom_site_label
_atom_site_fract_x
_atom_site_fract_y
_atom_site_fract_z
Si Si1 0.357846 0.974906 0.910831
Si Si2 0.000000 0.818905 0.250000
Si Si3 0.276099 0.296778 0.598889
Si Si4 0.401176 0.451032 0.119519
Si Si5 0.606259 0.286771 0.619013
Si Si6 0.735531 0.954503 0.846702
O O1 0.290696 0.889166 0.888746
O O2 0.281997 0.054079 0.874432
O O3 0.553490 0.961702 0.855231
O O4 0.158729 0.759688 0.206491
O O5 0.016355 0.874039 0.348402
O O6 0.287943 0.987449 0.047265
O O7 0.250000 0.250000 0.500000
O O8 0.459260 0.302356 0.584776
O O9 0.364165 0.511168 0.225157
O O10 0.500000 0.500000 0.000000
O O11 0.500000 0.248728 0.750000
O O12 0.750000 0.250000 0.500000
O O13 0.699061 0.366064 0.638314
#
# Coordination Sequence:
#
# PCOD9306850 Si02
#       6
#     8   4   8   8   8   8
#     4  11  27  49  87 118 161 221 291 362 434 522
#     4  12  32  50  80 128 176 218 306 356 444 538
#     4  12  28  51  83 121 170 231 285 364 447 526
#     4  12  26  47  82 120 163 226 284 360 436 519
#     4  12  31  53  86 125 181 234 294 369 444 529
#     4  11  27  53  83 124 166 221 300 362 433 531
#
# _framework density 25.757653000000001
#
# number of rings (size 3 to 8) (size 9 to 14) (size 15 to 20)
#    0.000    0.364    0.000    6.000   19.091    1.455 
#    0.000    0.000    0.000    0.000    0.000    0.000 
#    0.000    0.000    0.000    0.000    0.000    0.000 
#
# Total GULP energy -123113.134284 kJ/mol
# GULP energy per Si atom -5596.051558 kJ/mol
# Density = 2.569903 g / cm^3
# Si number density = 25.757653 Si / 1000 Ang^3
#
#
#
# Elastic Constant Matrix: (Units=GPa)
#
#
# Indices 1 2 3 4 5 6 
#
# 1 230.3679 54.1187 39.2659 0.0000 -9.5947 0.0000
# 2 54.1187 99.3050 60.5946 0.0000 -17.3077 0.0000
# 3 39.2659 60.5946 206.7137 0.0000 -13.0858 0.0000
# 4 0.0000 0.0000 0.0000 53.8222 0.0000 2.6042
# 5 -9.5947 -17.3077 -13.0858 0.0000 46.3083 0.0000
# 6 0.0000 0.0000 0.0000 2.6042 0.0000 36.0234
#
#
#
# Elastic Compliance Matrix: (Units=1/GPa)
#
#
# Indices 1 2 3 4 5 6 
#
# 1 0.004984 -0.002603 -0.000183 0.000000 0.000008 0.000000
# 2 -0.002603 0.014254 -0.003442 0.000000 0.003815 0.000000
# 3 -0.000183 -0.003442 0.005903 0.000000 0.000344 0.000000
# 4 0.000000 0.000000 0.000000 0.018645 0.000000 -0.001348
# 5 0.000008 0.003815 0.000344 0.000000 0.023119 0.000000
# 6 0.000000 0.000000 0.000000 -0.001348 0.000000 0.027857
#
#
# Mechanical properties :
#
#
# Convention : Reuss Voigt Hill
#
# Bulk Modulus (GPa) = 78.83847 93.81612 86.32730
# Shear Modulus (GPa) = 44.86425 52.72462 48.79443
#
# Velocity S-wave (km/s) = 4.17800 4.52923 4.35715
# Velocity P-wave (km/s) = 7.34496 7.99084 7.67470
#
# Compressibility (1/GPa) = 0.01268416
#
# Stress axis : x y z
#
# Youngs Moduli (GPa) = 200.64484 70.15590 169.39889
#
# Poissons Ratio (x) = 0.18261 0.03103
# Poissons Ratio (y) = 0.52226 0.58313
# Poissons Ratio (z) = 0.03676 0.24150
#
# Static dielectric constant tensor:
#      x y z
#    x 2.174780 0.000000 -0.029520 
#    y 0.000000 2.027190 0.000000 
#    z -0.029520 0.000000 2.114190 
# 
# From -- ./inp_files/136802.got.cif
#   From: 2010.05.17/outbox.cif.g08.bks.cpg/sg15_69_cif.got.tgz:136802.got - 2010.06.03 18:47:42.
