data_PCOD9306810
_publ_section_title
;
Structure prediction by ZEFSAII (Michael W. Deem and Ramdas Pophale) SiO2 
 PCOD9306810
Probable space group: C 2/C
;
_chemical_formula_sum "Si O2"
_cell_formula_units_Z 40
_cell_length_a 5.577870
_cell_length_b 16.864576
_cell_length_c 16.784871
_cell_angle_alpha 90.000000
_cell_angle_beta 98.874049
_cell_angle_gamma 90.000000
_cell_volume 1560.026167
_symmetry_space_group_name_H-M "C 2/C"
_symmetry_group_IT_number 15
_symmetry_cell_setting 'monoclinic'
loop_
_space_group_symop_operation_xyz
x,y,z
-x,y,1/2-z
-x,-y,-z
x,-y,1/2+z
1/2+x,1/2+y,z
1/2-x,1/2+y,1/2-z
1/2-x,1/2-y,-z
1/2+x,1/2-y,1/2+z
loop_
_atom_site_type_symbol
_atom_site_label
_atom_site_fract_x
_atom_site_fract_y
_atom_site_fract_z
Si Si1 0.480529 0.868366 0.472751
Si Si2 0.604807 0.837947 0.863810
Si Si3 0.339919 0.479905 0.569002
Si Si4 0.500000 0.989059 0.750000
Si Si5 0.083827 0.250957 0.335639
Si Si6 0.500000 0.508263 0.750000
O O1 0.327300 0.835778 0.539092
O O2 0.342104 0.945224 0.432079
O O3 0.565579 0.809048 0.409935
O O4 0.707838 0.901326 0.533704
O O5 0.539670 0.925120 0.824301
O O6 0.850936 0.807961 0.834525
O O7 0.358006 0.784858 0.841338
O O8 0.500000 0.500000 0.500000
O O9 0.457852 0.468418 0.661266
O O10 0.263837 0.042447 0.747985
O O11 0.000000 0.292070 0.250000
#
# Coordination Sequence:
#
# PCOD9306810 Si02
#       6
#     8   8   8   4   8   4
#     4  11  27  46  71 105 145 186 236 299 355 418
#     4  12  24  46  72 103 142 184 236 291 350 426
#     4  11  27  48  73 105 142 191 244 294 356 423
#     4  12  22  44  75 104 139 180 244 290 340 424
#     4  12  26  45  71 108 144 187 232 289 358 426
#     4  12  26  46  77 102 141 192 240 298 352 422
#
# _framework density 25.640595000000001
#
# number of rings (size 3 to 8) (size 9 to 14) (size 15 to 20)
#    0.000    0.400    4.000    3.600    8.400    1.600 
#    0.000    0.000    0.000    0.000    0.000    0.000 
#    0.000    0.000    0.000    0.000    0.000    0.000 
#
# Total GULP energy -111640.577492 kJ/mol
# GULP energy per Si atom -5582.028875 kJ/mol
# Density = 2.558224 g / cm^3
# Si number density = 25.640595 Si / 1000 Ang^3
#
#
#
# Elastic Constant Matrix: (Units=GPa)
#
#
# Indices 1 2 3 4 5 6 
#
# 1 189.3313 37.4811 10.6651 0.0000 8.4485 0.0000
# 2 37.4811 68.5203 31.0256 0.0000 13.3736 0.0000
# 3 10.6651 31.0256 201.0393 0.0000 14.4443 0.0000
# 4 0.0000 0.0000 0.0000 -9.2647 0.0000 -8.6134
# 5 8.4485 13.3736 14.4443 0.0000 33.1360 0.0000
# 6 0.0000 0.0000 0.0000 -8.6134 0.0000 27.9148
#
#
#
# Elastic Compliance Matrix: (Units=1/GPa)
#
#
# Indices 1 2 3 4 5 6 
#
# 1 0.005933 -0.003287 0.000213 0.000000 -0.000279 0.000000
# 2 -0.003287 0.018526 -0.002279 0.000000 -0.005646 0.000000
# 3 0.000213 -0.002279 0.005422 0.000000 -0.001498 0.000000
# 4 0.000000 0.000000 0.000000 -0.083876 0.000000 -0.025881
# 5 -0.000279 -0.005646 -0.001498 0.000000 0.033181 0.000000
# 6 0.000000 0.000000 0.000000 -0.025881 0.000000 0.027838
#
#
# Mechanical properties :
#
#
# Convention : Reuss Voigt Hill
#
# Bulk Modulus (GPa) = 52.15414 68.58160 60.36787
# Shear Modulus (GPa) = 207.26881 35.67184 121.47032
#
# Velocity S-wave (km/s) = 9.00065 3.73396 6.89036
# Velocity P-wave (km/s) = 11.33138 6.73760 9.32190
#
# Compressibility (1/GPa) = 0.01917393
#
# Stress axis : x y z
#
# Youngs Moduli (GPa) = 168.54979 53.97761 184.42629
#
# Poissons Ratio (x) = 0.17744 -0.03921
# Poissons Ratio (y) = 0.55406 0.42032
# Poissons Ratio (z) = -0.03583 0.12302
#
# Static dielectric constant tensor:
#      x y z
#    x 2.127530 0.000000 -0.125250 
#    y 0.000000 2.018020 0.000000 
#    z -0.125250 0.000000 1.923510 
# 
# From -- ./inp_files/184295.got.cif
#   From: 2010.05.17/outbox.cif.g08.bks.cpg/sg15_93_cif.got.tgz:184295.got - 2010.06.03 18:47:42.
