data_PCOD9306800
_publ_section_title
;
Structure prediction by ZEFSAII (Michael W. Deem and Ramdas Pophale) SiO2 
 PCOD9306800
Probable space group: C 2/C
;
_chemical_formula_sum "Si O2"
_cell_formula_units_Z 32
_cell_length_a 19.736501
_cell_length_b 5.494520
_cell_length_c 12.873867
_cell_angle_alpha 90.000000
_cell_angle_beta 57.595737
_cell_angle_gamma 90.000000
_cell_volume 1178.689956
_symmetry_space_group_name_H-M "C 2/C"
_symmetry_group_IT_number 15
_symmetry_cell_setting 'monoclinic'
loop_
_space_group_symop_operation_xyz
x,y,z
-x,y,1/2-z
-x,-y,-z
x,-y,1/2+z
1/2+x,1/2+y,z
1/2-x,1/2+y,1/2-z
1/2-x,1/2-y,-z
1/2+x,1/2-y,1/2+z
loop_
_atom_site_type_symbol
_atom_site_label
_atom_site_fract_x
_atom_site_fract_y
_atom_site_fract_z
Si Si1 0.423597 0.522158 0.715155
Si Si2 0.297449 0.302154 0.712531
Si Si3 0.941372 0.303408 0.491030
Si Si4 0.842274 0.312040 0.959017
O O1 0.352747 0.323421 0.767839
O O2 0.409746 0.678213 0.621755
O O3 0.504308 0.373559 0.625213
O O4 0.596186 0.702903 0.675134
O O5 0.239760 0.534319 0.760943
O O6 0.346954 0.322112 0.565334
O O7 0.874991 0.424821 0.470292
O O8 0.000000 0.500000 0.500000
O O9 0.750000 0.250000 0.000000
#
# Coordination Sequence:
#
# PCOD9306800 Si02
#       4
#     8   8   8   8
#     4  11  27  53  83 120 173 239 295 376 463 547
#     4  12  26  52  82 126 179 225 295 383 452 538
#     4  11  26  57  79 118 179 230 299 377 453 553
#     4  12  27  50  88 130 169 239 305 377 463 555
#
# _framework density 27.148783999999999
#
# number of rings (size 3 to 8) (size 9 to 14) (size 15 to 20)
#    0.000    0.500    5.000    1.500    0.000    2.000 
#   13.500    0.000    0.000    0.000    0.000    0.000 
#    0.000    0.000    0.000    0.000    0.000    0.000 
#
# Total GULP energy -89503.660780 kJ/mol
# GULP energy per Si atom -5593.978799 kJ/mol
# Density = 2.708699 g / cm^3
# Si number density = 27.148784 Si / 1000 Ang^3
#
#
#
# Elastic Constant Matrix: (Units=GPa)
#
#
# Indices 1 2 3 4 5 6 
#
# 1 117.6502 76.9659 35.2257 0.0001 -6.2218 -0.0005
# 2 76.9659 143.4144 87.0209 -0.0004 -1.4992 0.0007
# 3 35.2257 87.0209 183.2811 0.0003 28.0507 -0.0001
# 4 0.0001 -0.0004 0.0003 50.2305 0.0000 -8.4474
# 5 -6.2218 -1.4992 28.0507 0.0000 61.3397 0.0001
# 6 -0.0005 0.0007 -0.0001 -8.4474 0.0001 79.8167
#
#
#
# Elastic Compliance Matrix: (Units=1/GPa)
#
#
# Indices 1 2 3 4 5 6 
#
# 1 0.013300 -0.007747 0.001015 0.000000 0.000695 0.000000
# 2 -0.007747 0.014690 -0.005829 0.000000 0.002239 0.000000
# 3 0.001015 -0.005829 0.008639 0.000000 -0.003990 0.000000
# 4 0.000000 0.000000 0.000000 0.020269 0.000000 0.002145
# 5 0.000695 0.002239 -0.003990 0.000000 0.018253 0.000000
# 6 0.000000 0.000000 0.000000 0.002145 0.000000 0.012756
#
#
# Mechanical properties :
#
#
# Convention : Reuss Voigt Hill
#
# Bulk Modulus (GPa) = 86.88244 93.64118 90.26181
# Shear Modulus (GPa) = 42.78490 54.61957 48.70224
#
# Velocity S-wave (km/s) = 3.97412 4.49024 4.24004
# Velocity P-wave (km/s) = 7.28903 7.83899 7.56901
#
# Compressibility (1/GPa) = 0.01150981
#
# Stress axis : x y z
#
# Youngs Moduli (GPa) = 75.18571 68.07191 115.75384
#
# Poissons Ratio (x) = 0.52734 -0.11754
# Poissons Ratio (y) = 0.58245 0.67469
# Poissons Ratio (z) = -0.07635 0.39677
#
# Static dielectric constant tensor:
#      x y z
#    x 2.324480 0.000000 -0.150720 
#    y 0.000000 2.200140 0.000000 
#    z -0.150720 0.000000 2.183920 
# 
# From -- ./inp_files/246153.got.cif
#   From: 2010.05.17/outbox.cif.g08.bks.cpg/sg15_124_cif.got.tgz:246153.got - 2010.06.03 18:47:42.
