data_PCOD9306219
_publ_section_title
;
Structure prediction by ZEFSAII (Michael W. Deem and Ramdas Pophale) SiO2 
 PCOD9306219
Probable space group: C 2/C
;
_chemical_formula_sum "Si O2"
_cell_formula_units_Z 48
_cell_length_a 24.551743
_cell_length_b 14.640564
_cell_length_c 15.584945
_cell_angle_alpha 90.000000
_cell_angle_beta 18.743108
_cell_angle_gamma 90.000000
_cell_volume 1800.075338
_symmetry_space_group_name_H-M "C 2/C"
_symmetry_group_IT_number 15
_symmetry_cell_setting 'monoclinic'
loop_
_space_group_symop_operation_xyz
x,y,z
-x,y,1/2-z
-x,-y,-z
x,-y,1/2+z
1/2+x,1/2+y,z
1/2-x,1/2+y,1/2-z
1/2-x,1/2-y,-z
1/2+x,1/2-y,1/2+z
loop_
_atom_site_type_symbol
_atom_site_label
_atom_site_fract_x
_atom_site_fract_y
_atom_site_fract_z
Si Si1 0.456297 0.584689 0.720835
Si Si2 0.769299 0.424313 0.625097
Si Si3 0.063695 0.321446 0.442053
Si Si4 0.869654 0.732898 0.074429
Si Si5 0.345977 0.376801 0.884670
Si Si6 0.373925 0.109635 0.373253
O O1 0.500000 0.620785 0.750000
O O2 0.612713 0.565715 0.423816
O O3 0.385031 0.482405 0.842203
O O4 0.308382 0.639424 0.892104
O O5 0.902183 0.364458 0.480167
O O6 0.712954 0.367919 0.625831
O O7 0.984678 0.399250 0.620908
O O8 0.177266 0.258001 0.335365
O O9 0.199155 0.351210 0.168906
O O10 0.913970 0.278627 0.607871
O O11 0.990308 0.811837 0.857348
O O12 0.173961 0.520851 0.998082
O O13 0.500000 0.162217 0.250000
#
# Coordination Sequence:
#
# PCOD9306219 Si02
#       6
#     8   8   8   8   8   8
#     4  11  25  50  79 110 156 211 269 320 396 468
#     4  11  27  48  81 112 162 210 266 326 391 470
#     4  12  28  46  79 115 155 205 266 327 397 468
#     4  12  26  49  77 119 156 209 263 325 396 471
#     4  11  25  45  79 112 157 203 262 332 393 465
#     4  11  28  47  77 113 159 199 264 329 396 462
#
# _framework density 26.665551000000001
#
# number of rings (size 3 to 8) (size 9 to 14) (size 15 to 20)
#    0.000    0.667    1.667    5.000   14.000    2.667 
#    0.000    4.167    0.000    0.000    0.000    0.000 
#    0.000    0.000    0.000    0.000    0.000    0.000 
#
# Total GULP energy -134402.146473 kJ/mol
# GULP energy per Si atom -5600.089436 kJ/mol
# Density = 2.660486 g / cm^3
# Si number density = 26.665551 Si / 1000 Ang^3
#
#
#
# Elastic Constant Matrix: (Units=GPa)
#
#
# Indices 1 2 3 4 5 6 
#
# 1 246.4829 56.3498 116.0293 0.0000 -13.7161 -0.0001
# 2 56.3498 96.5993 23.1453 -0.0010 5.7737 0.0008
# 3 116.0293 23.1453 113.6932 -0.0015 -27.5314 0.0014
# 4 0.0000 -0.0010 -0.0015 -2.1460 0.0008 19.6418
# 5 -13.7161 5.7737 -27.5314 0.0008 69.1719 -0.0004
# 6 -0.0001 0.0008 0.0014 19.6418 -0.0004 19.8268
#
#
#
# Elastic Compliance Matrix: (Units=1/GPa)
#
#
# Indices 1 2 3 4 5 6 
#
# 1 0.008721 -0.002924 -0.008662 0.000001 -0.001474 -0.000001
# 2 -0.002924 0.012114 0.000147 -0.000001 -0.001533 0.000001
# 3 -0.008662 0.000147 0.019020 -0.000002 0.005840 0.000001
# 4 0.000001 -0.000001 -0.000002 -0.046287 0.000000 0.045855
# 5 -0.001474 -0.001533 0.005840 0.000000 0.016617 0.000000
# 6 -0.000001 0.000001 0.000001 0.045855 0.000000 0.005010
#
#
# Mechanical properties :
#
#
# Convention : Reuss Voigt Hill
#
# Bulk Modulus (GPa) = 58.90417 94.20268 76.55343
# Shear Modulus (GPa) = 114.33166 34.78728 74.55947
#
# Velocity S-wave (km/s) = 6.55509 3.61581 5.29355
# Velocity P-wave (km/s) = 8.91237 7.26886 8.13224
#
# Compressibility (1/GPa) = 0.01697673
#
# Stress axis : x y z
#
# Youngs Moduli (GPa) = 114.66601 82.54883 52.57621
#
# Poissons Ratio (x) = 0.24135 0.45541
# Poissons Ratio (y) = 0.33525 -0.00770
# Poissons Ratio (z) = 0.99323 -0.01210
#
# Static dielectric constant tensor:
#      x y z
#    x 2.067000 0.000000 -0.076520 
#    y 0.000000 2.102820 0.000000 
#    z -0.076520 0.000000 2.125290 
# 
# From -- ./inp_files/219936.got.cif
#   From: 2010.05.17/outbox.cif.g08.bks.cpg/sg15_110_cif.got.tgz:219936.got - 2010.06.03 18:47:42.
