data_PCOD9306829
_publ_section_title
;
Structure prediction by ZEFSAII (Michael W. Deem and Ramdas Pophale) SiO2 
 PCOD9306829
Probable space group: C 2/C
;
_chemical_formula_sum "Si O2"
_cell_formula_units_Z 48
_cell_length_a 14.412605
_cell_length_b 10.595664
_cell_length_c 14.025681
_cell_angle_alpha 90.000000
_cell_angle_beta 64.630700
_cell_angle_gamma 90.000000
_cell_volume 1935.325487
_symmetry_space_group_name_H-M "C 2/C"
_symmetry_group_IT_number 15
_symmetry_cell_setting 'monoclinic'
loop_
_space_group_symop_operation_xyz
x,y,z
-x,y,1/2-z
-x,-y,-z
x,-y,1/2+z
1/2+x,1/2+y,z
1/2-x,1/2+y,1/2-z
1/2-x,1/2-y,-z
1/2+x,1/2-y,1/2+z
loop_
_atom_site_type_symbol
_atom_site_label
_atom_site_fract_x
_atom_site_fract_y
_atom_site_fract_z
Si Si1 0.606123 0.496003 0.898934
Si Si2 0.270696 0.399871 0.981863
Si Si3 0.709139 0.292037 0.242424
Si Si4 0.372653 0.096063 0.543511
Si Si5 0.545925 0.922490 0.832880
Si Si6 0.608896 0.299790 0.735745
O O1 0.627919 0.602891 0.810182
O O2 0.604889 0.367845 0.839690
O O3 0.500000 0.500000 0.000000
O O4 0.688268 0.522845 0.945925
O O5 0.170212 0.470344 0.988726
O O6 0.356349 0.398950 0.860547
O O7 0.250000 0.250000 0.000000
O O8 0.772012 0.325398 0.118949
O O9 0.648319 0.160681 0.272800
O O10 0.795750 0.291514 0.287206
O O11 0.459548 0.150126 0.435172
O O12 0.425827 0.044406 0.616500
O O13 0.500000 0.949274 0.750000
O O14 0.500000 0.248180 0.750000
#
# Coordination Sequence:
#
# PCOD9306829 Si02
#       6
#     8   8   8   8   8   8
#     4  12  26  43  75 110 149 193 251 315 373 442
#     4  12  24  47  75 106 146 198 252 313 379 451
#     4  12  26  49  71 110 156 194 254 313 379 458
#     4  11  27  48  75 110 156 194 260 318 373 460
#     4  11  27  48  74 110 150 203 249 306 393 453
#     4  12  26  46  73 111 148 199 253 307 378 448
#
# _framework density 24.802028
#
# number of rings (size 3 to 8) (size 9 to 14) (size 15 to 20)
#    0.000    0.333    6.667    0.000    7.000    6.000 
#    0.000    0.000    0.000    0.000    0.000    0.000 
#    0.000    0.000    0.000    0.000    0.000    0.000 
#
# Total GULP energy -134242.139112 kJ/mol
# GULP energy per Si atom -5593.422463 kJ/mol
# Density = 2.474558 g / cm^3
# Si number density = 24.802028 Si / 1000 Ang^3
#
#
#
# Elastic Constant Matrix: (Units=GPa)
#
#
# Indices 1 2 3 4 5 6 
#
# 1 152.0938 41.6534 49.3689 0.0000 2.2728 0.0000
# 2 41.6534 63.6341 39.4915 0.0000 -7.8813 0.0000
# 3 49.3689 39.4915 177.5659 0.0000 -18.3895 0.0000
# 4 0.0000 0.0000 0.0000 31.4895 0.0000 -6.0989
# 5 2.2728 -7.8813 -18.3895 0.0000 56.3537 0.0000
# 6 0.0000 0.0000 0.0000 -6.0989 0.0000 28.2621
#
#
#
# Elastic Compliance Matrix: (Units=1/GPa)
#
#
# Indices 1 2 3 4 5 6 
#
# 1 0.008365 -0.004779 -0.001415 0.000000 -0.001467 0.000000
# 2 -0.004779 0.021050 -0.003134 0.000000 0.002114 0.000000
# 3 -0.001415 -0.003134 0.006916 0.000000 0.001876 0.000000
# 4 0.000000 0.000000 0.000000 0.033142 0.000000 0.007152
# 5 -0.001467 0.002114 0.001876 0.000000 0.018712 0.000000
# 6 0.000000 0.000000 0.000000 0.007152 0.000000 0.036926
#
#
# Mechanical properties :
#
#
# Convention : Reuss Voigt Hill
#
# Bulk Modulus (GPa) = 56.57575 72.70239 64.63907
# Shear Modulus (GPa) = 33.40927 40.73971 37.07449
#
# Velocity S-wave (km/s) = 3.67418 4.05729 3.87048
# Velocity P-wave (km/s) = 6.39218 7.16418 6.78916
#
# Compressibility (1/GPa) = 0.01767542
#
# Stress axis : x y z
#
# Youngs Moduli (GPa) = 119.54701 47.50604 144.58571
#
# Poissons Ratio (x) = 0.22704 0.20455
# Poissons Ratio (y) = 0.57134 0.45312
# Poissons Ratio (z) = 0.16913 0.14888
#
# Static dielectric constant tensor:
#      x y z
#    x 2.092370 0.000000 -0.161970 
#    y 0.000000 2.101940 0.000000 
#    z -0.161970 0.000000 2.169630 
# 
# From -- ./inp_files/151848.got.cif
#   From: 2010.05.17/outbox.cif.g08.bks.cpg/sg15_76_cif.got.tgz:151848.got - 2010.06.03 18:47:42.
