data_PCOD9306946
_publ_section_title
;
Structure prediction by ZEFSAII (Michael W. Deem and Ramdas Pophale) SiO2 
 PCOD9306946
Probable space group: C 2/C
;
_chemical_formula_sum "Si O2"
_cell_formula_units_Z 36
_cell_length_a 20.226760
_cell_length_b 7.098277
_cell_length_c 11.858041
_cell_angle_alpha 90.000000
_cell_angle_beta 125.567887
_cell_angle_gamma 90.000000
_cell_volume 1384.875533
_symmetry_space_group_name_H-M "C 2/C"
_symmetry_group_IT_number 15
_symmetry_cell_setting 'monoclinic'
loop_
_space_group_symop_operation_xyz
x,y,z
-x,y,1/2-z
-x,-y,-z
x,-y,1/2+z
1/2+x,1/2+y,z
1/2-x,1/2+y,1/2-z
1/2-x,1/2-y,-z
1/2+x,1/2-y,1/2+z
loop_
_atom_site_type_symbol
_atom_site_label
_atom_site_fract_x
_atom_site_fract_y
_atom_site_fract_z
Si Si1 0.351835 0.439940 0.438539
Si Si2 0.131543 0.689021 0.457869
Si Si3 0.751285 0.588688 0.353761
Si Si4 0.082461 0.802441 0.650703
Si Si5 0.500000 0.918400 0.250000
O O1 0.271124 0.528519 0.296380
O O2 0.326334 0.230392 0.434790
O O3 0.415582 0.485740 0.400905
O O4 0.372590 0.585102 0.558998
O O5 0.220146 0.595790 0.552442
O O6 0.096204 0.676921 0.552114
O O7 0.075590 0.561360 0.325448
O O8 0.668195 0.694608 0.304548
O O9 0.011826 0.721951 0.656494
#
# Coordination Sequence:
#
# PCOD9306946 Si02
#       5
#     8   8   8   8   4
#     4   8  15  32  57  78  95 132 177 220 253 293
#     4   9  20  33  57  77 104 140 173 214 260 306
#     4   9  14  34  60  78  95 132 185 221 252 292
#     4   8  18  33  56  77 100 142 174 209 264 306
#     4  12  20  34  52  76 116 148 158 204 276 320
#
# _framework density 25.995118000000002
#
# number of rings (size 3 to 8) (size 9 to 14) (size 15 to 20)
#    2.667    0.000    4.444    0.667    0.000    0.889 
#    0.000    3.333    4.889    0.000    0.000    0.000 
#    0.000    0.000    0.000    0.000    0.000    0.000 
#
# Total GULP energy -100221.400783 kJ/mol
# GULP energy per Si atom -5567.855599 kJ/mol
# Density = 2.593595 g / cm^3
# Si number density = 25.995118 Si / 1000 Ang^3
#
#
#
# Elastic Constant Matrix: (Units=GPa)
#
#
# Indices 1 2 3 4 5 6 
#
# 1 64.6115 4.0986 3.6841 0.0000 -11.2981 0.0000
# 2 4.0986 106.5243 11.2416 0.0000 -13.1131 0.0000
# 3 3.6841 11.2416 36.7543 0.0000 1.3512 0.0000
# 4 0.0000 0.0000 0.0000 31.6711 0.0000 -12.7146
# 5 -11.2981 -13.1131 1.3512 0.0000 40.0692 0.0000
# 6 0.0000 0.0000 0.0000 -12.7146 0.0000 19.8573
#
#
#
# Elastic Compliance Matrix: (Units=1/GPa)
#
#
# Indices 1 2 3 4 5 6 
#
# 1 0.016402 0.000149 -0.001864 0.000000 0.004736 0.000000
# 2 0.000149 0.010152 -0.003248 0.000000 0.003474 0.000000
# 3 -0.001864 -0.003248 0.028482 0.000000 -0.002549 0.000000
# 4 0.000000 0.000000 0.000000 0.042499 0.000000 0.027212
# 5 0.004736 0.003474 -0.002549 0.000000 0.027515 0.000000
# 6 0.000000 0.000000 0.000000 0.027212 0.000000 0.067783
#
#
# Mechanical properties :
#
#
# Convention : Reuss Voigt Hill
#
# Bulk Modulus (GPa) = 22.16788 27.32653 24.74721
# Shear Modulus (GPa) = 22.95735 30.91058 26.93397
#
# Velocity S-wave (km/s) = 2.97499 3.45206 3.22237
# Velocity P-wave (km/s) = 4.51076 5.14043 4.83585
#
# Compressibility (1/GPa) = 0.04511031
#
# Stress axis : x y z
#
# Youngs Moduli (GPa) = 60.96762 98.50107 35.11046
#
# Poissons Ratio (x) = -0.01464 0.06543
# Poissons Ratio (y) = -0.00906 0.11403
# Poissons Ratio (z) = 0.11362 0.31990
#
# Static dielectric constant tensor:
#      x y z
#    x 2.068960 0.000000 0.032820 
#    y 0.000000 1.998490 0.000000 
#    z 0.032820 0.000000 2.060500 
# 
# From -- ./inp_files/170980.got.cif
#   From: 2010.05.17/outbox.cif.g08.bks.cpg/sg15_86_cif.got.tgz:170980.got - 2010.06.03 18:47:42.
