data_PCOD9306073
_publ_section_title
;
Structure prediction by ZEFSAII (Michael W. Deem and Ramdas Pophale) SiO2 
 PCOD9306073
Probable space group: C 2/C
;
_chemical_formula_sum "Si O2"
_cell_formula_units_Z 36
_cell_length_a 4.984142
_cell_length_b 20.025043
_cell_length_c 14.060685
_cell_angle_alpha 90.000000
_cell_angle_beta 73.904841
_cell_angle_gamma 90.000000
_cell_volume 1348.355790
_symmetry_space_group_name_H-M "C 2/C"
_symmetry_group_IT_number 15
_symmetry_cell_setting 'monoclinic'
loop_
_space_group_symop_operation_xyz
x,y,z
-x,y,1/2-z
-x,-y,-z
x,-y,1/2+z
1/2+x,1/2+y,z
1/2-x,1/2+y,1/2-z
1/2-x,1/2-y,-z
1/2+x,1/2-y,1/2+z
loop_
_atom_site_type_symbol
_atom_site_label
_atom_site_fract_x
_atom_site_fract_y
_atom_site_fract_z
Si Si1 0.965737 0.073409 0.624985
Si Si2 0.500000 0.852088 0.250000
Si Si3 0.278305 0.566233 0.432531
Si Si4 0.521114 0.714994 0.862515
Si Si5 0.337326 0.141482 0.366553
O O1 0.751637 0.094555 0.729493
O O2 0.783535 0.063523 0.546147
O O3 0.117006 0.145232 0.592779
O O4 0.125915 0.004843 0.617552
O O5 0.644923 0.801513 0.158904
O O6 0.515438 0.621571 0.383708
O O7 0.986724 0.586392 0.416596
O O8 0.500000 0.717195 0.750000
O O9 0.402077 0.785464 0.903808
O O10 0.500000 0.138921 0.250000
#
# Coordination Sequence:
#
# PCOD9306073 Si02
#       5
#     8   4   8   8   8
#     4   9  23  43  68  97 132 177 222 267 333 394
#     4   8  20  42  62  94 126 182 210 272 320 410
#     4  11  25  44  67 102 135 168 222 284 321 393
#     4   9  21  39  66  90 130 175 222 264 319 404
#     4  11  26  42  67  97 136 173 220 274 335 383
#
# _framework density 26.699186000000001
#
# number of rings (size 3 to 8) (size 9 to 14) (size 15 to 20)
#    1.333    0.889    0.000    0.667    7.778   10.667 
#    0.000    0.000    0.000    0.000    0.000    0.000 
#    0.000    0.000    0.000    0.000    0.000    0.000 
#
# Total GULP energy -100440.772810 kJ/mol
# GULP energy per Si atom -5580.042934 kJ/mol
# Density = 2.663842 g / cm^3
# Si number density = 26.699186 Si / 1000 Ang^3
#
#
#
# Elastic Constant Matrix: (Units=GPa)
#
#
# Indices 1 2 3 4 5 6 
#
# 1 84.7181 25.4662 23.0468 0.0000 -15.6440 0.0000
# 2 25.4662 224.1869 36.4523 0.0000 -14.6881 0.0000
# 3 23.0468 36.4523 57.2757 0.0000 -11.2757 0.0000
# 4 0.0000 0.0000 0.0000 44.2947 0.0000 -4.6674
# 5 -15.6440 -14.6881 -11.2757 0.0000 43.0845 0.0000
# 6 0.0000 0.0000 0.0000 -4.6674 0.0000 43.5854
#
#
#
# Elastic Compliance Matrix: (Units=1/GPa)
#
#
# Indices 1 2 3 4 5 6 
#
# 1 0.013881 -0.000609 -0.004477 0.000000 0.003661 0.000000
# 2 -0.000609 0.005037 -0.002811 0.000000 0.000760 0.000000
# 3 -0.004477 -0.002811 0.021657 0.000000 0.003084 0.000000
# 4 0.000000 0.000000 0.000000 0.022834 0.000000 0.002445
# 5 0.003661 0.000760 0.003084 0.000000 0.025606 0.000000
# 6 0.000000 0.000000 0.000000 0.002445 0.000000 0.023205
#
#
# Mechanical properties :
#
#
# Convention : Reuss Voigt Hill
#
# Bulk Modulus (GPa) = 40.35410 59.56794 49.96102
# Shear Modulus (GPa) = 36.69102 44.94062 40.81582
#
# Velocity S-wave (km/s) = 3.71109 4.10716 3.91414
# Velocity P-wave (km/s) = 5.78879 6.69708 6.25943
#
# Compressibility (1/GPa) = 0.02478063
#
# Stress axis : x y z
#
# Youngs Moduli (GPa) = 72.04148 198.54773 46.17461
#
# Poissons Ratio (x) = 0.12091 0.20673
# Poissons Ratio (y) = 0.04387 0.12978
# Poissons Ratio (z) = 0.32254 0.55807
#
# Static dielectric constant tensor:
#      x y z
#    x 2.268450 0.000000 0.010290 
#    y 0.000000 2.041060 0.000000 
#    z 0.010290 0.000000 2.182180 
# 
# From -- ./inp_files/184506.got.cif
#   From: 2010.05.17/outbox.cif.g08.bks.cpg/sg15_93_cif.got.tgz:184506.got - 2010.06.03 18:47:42.
