data_PCOD9306715
_publ_section_title
;
Structure prediction by ZEFSAII (Michael W. Deem and Ramdas Pophale) SiO2 
 PCOD9306715
Probable space group: C 2/C
;
_chemical_formula_sum "Si O2"
_cell_formula_units_Z 48
_cell_length_a 8.326250
_cell_length_b 19.313713
_cell_length_c 17.185863
_cell_angle_alpha 90.000000
_cell_angle_beta 127.466032
_cell_angle_gamma 90.000000
_cell_volume 2193.565793
_symmetry_space_group_name_H-M "C 2/C"
_symmetry_group_IT_number 15
_symmetry_cell_setting 'monoclinic'
loop_
_space_group_symop_operation_xyz
x,y,z
-x,y,1/2-z
-x,-y,-z
x,-y,1/2+z
1/2+x,1/2+y,z
1/2-x,1/2+y,1/2-z
1/2-x,1/2-y,-z
1/2+x,1/2-y,1/2+z
loop_
_atom_site_type_symbol
_atom_site_label
_atom_site_fract_x
_atom_site_fract_y
_atom_site_fract_z
Si Si1 0.805494 0.495435 0.739089
Si Si2 0.878172 0.437108 0.930554
Si Si3 0.335505 0.652046 0.798417
Si Si4 0.687122 0.179156 0.584362
Si Si5 0.627777 0.288495 0.034059
Si Si6 0.017301 0.937111 0.944077
O O1 0.845592 0.457909 0.831940
O O2 0.680105 0.567519 0.705683
O O3 0.703470 0.436656 0.656732
O O4 0.000000 0.519724 0.750000
O O5 0.667369 0.441134 0.914697
O O6 0.000000 0.500000 0.000000
O O7 0.021695 0.372339 0.995654
O O8 0.203590 0.671224 0.683124
O O9 0.578220 0.666125 0.867193
O O10 0.269879 0.702311 0.850852
O O11 0.591598 0.252142 0.532061
O O12 0.591063 0.368568 0.006039
O O13 0.750000 0.250000 0.000000
O O14 0.000000 0.000000 0.000000
#
# Coordination Sequence:
#
# PCOD9306715 Si02
#       6
#     8   8   8   8   8   8
#     4  12  27  44  76 112 150 201 253 318 377 454
#     4  12  24  44  76 110 150 188 258 307 378 450
#     4  11  26  48  78 106 153 197 259 303 389 456
#     4  11  26  49  77 111 146 205 247 321 377 458
#     4  12  27  49  75 107 154 200 250 314 382 457
#     4  12  26  47  75 111 149 198 255 315 383 459
#
# _framework density 21.882180000000002
#
# number of rings (size 3 to 8) (size 9 to 14) (size 15 to 20)
#    0.000    0.333    5.000    3.000    7.000    1.333 
#    6.000    0.000    0.000    0.000    0.000    0.000 
#    0.000    0.000    0.000    0.000    0.000    0.000 
#
# Total GULP energy -133776.850445 kJ/mol
# GULP energy per Si atom -5574.035435 kJ/mol
# Density = 2.183237 g / cm^3
# Si number density = 21.882180 Si / 1000 Ang^3
#
#
#
# Elastic Constant Matrix: (Units=GPa)
#
#
# Indices 1 2 3 4 5 6 
#
# 1 88.7352 33.6442 33.2645 0.0000 -6.1445 0.0000
# 2 33.6442 79.3819 39.9394 0.0000 -17.1299 0.0000
# 3 33.2645 39.9394 159.1465 0.0000 -28.8209 0.0000
# 4 0.0000 0.0000 0.0000 38.4926 0.0000 11.7377
# 5 -6.1445 -17.1299 -28.8209 0.0000 34.3511 0.0000
# 6 0.0000 0.0000 0.0000 11.7377 0.0000 34.3642
#
#
#
# Elastic Compliance Matrix: (Units=1/GPa)
#
#
# Indices 1 2 3 4 5 6 
#
# 1 0.013866 -0.005306 -0.001883 0.000000 -0.001745 0.000000
# 2 -0.005306 0.017183 -0.002150 0.000000 0.005816 0.000000
# 3 -0.001883 -0.002150 0.008209 0.000000 0.005478 0.000000
# 4 0.000000 0.000000 0.000000 0.028999 0.000000 -0.009905
# 5 -0.001745 0.005816 0.005478 0.000000 0.036295 0.000000
# 6 0.000000 0.000000 0.000000 -0.009905 0.000000 0.032483
#
#
# Mechanical properties :
#
#
# Convention : Reuss Voigt Hill
#
# Bulk Modulus (GPa) = 48.59078 60.10663 54.34871
# Shear Modulus (GPa) = 30.75522 36.13595 33.44559
#
# Velocity S-wave (km/s) = 3.75306 4.06813 3.91377
# Velocity P-wave (km/s) = 6.40581 7.04232 6.73159
#
# Compressibility (1/GPa) = 0.02058004
#
# Stress axis : x y z
#
# Youngs Moduli (GPa) = 72.11722 58.19726 121.82220
#
# Poissons Ratio (x) = 0.30881 0.22936
# Poissons Ratio (y) = 0.38268 0.26191
# Poissons Ratio (z) = 0.13578 0.12512
#
# Static dielectric constant tensor:
#      x y z
#    x 1.858910 0.000000 -0.088540 
#    y 0.000000 1.779870 0.000000 
#    z -0.088540 0.000000 1.870190 
# 
# From -- ./inp_files/190617.got.cif
#   From: 2010.05.17/outbox.cif.g08.bks.cpg/sg15_96_cif.got.tgz:190617.got - 2010.06.03 18:47:42.
