data_PCOD9306966
_publ_section_title
;
Structure prediction by ZEFSAII (Michael W. Deem and Ramdas Pophale) SiO2 
 PCOD9306966
Probable space group: C 2/C
;
_chemical_formula_sum "Si O2"
_cell_formula_units_Z 52
_cell_length_a 19.649725
_cell_length_b 30.582007
_cell_length_c 5.479155
_cell_angle_alpha 90.000000
_cell_angle_beta 56.327541
_cell_angle_gamma 90.000000
_cell_volume 2740.151503
_symmetry_space_group_name_H-M "C 2/C"
_symmetry_group_IT_number 15
_symmetry_cell_setting 'monoclinic'
loop_
_space_group_symop_operation_xyz
x,y,z
-x,y,1/2-z
-x,-y,-z
x,-y,1/2+z
1/2+x,1/2+y,z
1/2-x,1/2+y,1/2-z
1/2-x,1/2-y,-z
1/2+x,1/2-y,1/2+z
loop_
_atom_site_type_symbol
_atom_site_label
_atom_site_fract_x
_atom_site_fract_y
_atom_site_fract_z
Si Si1 0.500000 0.951216 0.250000
Si Si2 0.088988 0.250590 0.469014
Si Si3 0.589513 0.343293 0.184121
Si Si4 0.500000 0.894703 0.750000
Si Si5 0.168746 0.340887 0.387571
Si Si6 0.500000 0.300391 0.750000
Si Si7 0.682161 0.977335 0.879360
Si Si8 0.757175 0.621858 0.260932
O O1 0.498195 0.922552 0.502543
O O2 0.416619 0.978410 0.415775
O O3 0.115435 0.205464 0.544575
O O4 0.150936 0.289711 0.379891
O O5 0.060943 0.233179 0.263338
O O6 0.000000 0.264425 0.750000
O O7 0.500000 0.351915 0.250000
O O8 0.565822 0.333990 0.507229
O O9 0.659316 0.376559 0.979217
O O10 0.581562 0.865651 0.573055
O O11 0.211023 0.351637 0.563212
O O12 0.215499 0.358264 0.053846
O O13 0.707817 0.927030 0.798408
O O14 0.710583 0.003685 0.583320
#
# Coordination Sequence:
#
# PCOD9306966 Si02
#       8
#     4   8   8   4   8   4   8   8
#     4  12  22  40  62  90 124 170 214 242 290 368
#     4   9  20  35  60  88 127 176 213 248 297 360
#     4   9  22  43  64  91 119 167 210 258 319 378
#     4  12  20  39  58  90 133 174 207 242 294 351
#     4  12  24  38  61  93 134 175 205 256 297 354
#     4   8  18  39  62  86 119 170 215 250 308 367
#     4  12  24  43  64  91 124 164 202 257 315 372
#     4  12  27  42  64  95 127 156 214 266 314 365
#
# _framework density 18.977053000000002
#
# number of rings (size 3 to 8) (size 9 to 14) (size 15 to 20)
#    0.000    1.538    3.846    2.308    8.615    1.846 
#    0.000    0.000    0.000    0.923    0.000    0.000 
#    0.000    0.000    0.000    0.000    0.000    0.000 
#
# Total GULP energy -144880.400592 kJ/mol
# GULP energy per Si atom -5572.323100 kJ/mol
# Density = 1.893386 g / cm^3
# Si number density = 18.977053 Si / 1000 Ang^3
#
#
#
# Elastic Constant Matrix: (Units=GPa)
#
#
# Indices 1 2 3 4 5 6 
#
# 1 852.2961 144.2369 -718.0158 0.0000 334.5374 0.0000
# 2 144.2369 68.7657 -93.2803 0.0000 50.6095 0.0000
# 3 -718.0158 -93.2803 823.7032 0.0000 -305.3236 0.0000
# 4 0.0000 0.0000 0.0000 48.2168 0.0000 23.1108
# 5 334.5374 50.6095 -305.3236 0.0000 169.9744 0.0000
# 6 0.0000 0.0000 0.0000 23.1108 0.0000 21.3984
#
#
#
# Elastic Compliance Matrix: (Units=1/GPa)
#
#
# Indices 1 2 3 4 5 6 
#
# 1 0.009207 -0.007482 0.003852 0.000000 -0.008973 0.000000
# 2 -0.007482 0.024710 -0.002970 0.000000 0.002034 0.000000
# 3 0.003852 -0.002970 0.005246 0.000000 0.002726 0.000000
# 4 0.000000 0.000000 0.000000 0.042999 0.000000 -0.046440
# 5 -0.008973 0.002034 0.002726 0.000000 0.027836 0.000000
# 6 0.000000 0.000000 0.000000 -0.046440 0.000000 0.096888
#
#
# Mechanical properties :
#
#
# Convention : Reuss Voigt Hill
#
# Bulk Modulus (GPa) = 38.51555 45.62741 42.07148
# Shear Modulus (GPa) = 21.85880 208.70621 115.28251
#
# Velocity S-wave (km/s) = 3.39758 10.49843 7.80258
# Velocity P-wave (km/s) = 5.97757 13.07867 10.16816
#
# Compressibility (1/GPa) = 0.02596354
#
# Stress axis : x y z
#
# Youngs Moduli (GPa) = 108.61503 40.46869 190.61997
#
# Poissons Ratio (x) = 0.30279 -0.73427
# Poissons Ratio (y) = 0.81266 0.56612
# Poissons Ratio (z) = -0.41839 0.12019
#
# Static dielectric constant tensor:
#      x y z
#    x 1.585890 0.000000 -0.038130 
#    y 0.000000 1.612260 0.000000 
#    z -0.038130 0.000000 1.612030 
# 
# From -- ./inp_files/11484.got.cif
#   From: 2010.05.17/outbox.cif.g08.bks.cpg/sg15_6_cif.got.tgz:11484.got - 2010.06.03 18:47:42.
