data_PCOD9306592
_publ_section_title
;
Structure prediction by ZEFSAII (Michael W. Deem and Ramdas Pophale) SiO2 
 PCOD9306592
Probable space group: C 2/C
;
_chemical_formula_sum "Si O2"
_cell_formula_units_Z 56
_cell_length_a 17.470365
_cell_length_b 18.093783
_cell_length_c 8.617246
_cell_angle_alpha 90.000000
_cell_angle_beta 64.537450
_cell_angle_gamma 90.000000
_cell_volume 2459.367214
_symmetry_space_group_name_H-M "C 2/C"
_symmetry_group_IT_number 15
_symmetry_cell_setting 'monoclinic'
loop_
_space_group_symop_operation_xyz
x,y,z
-x,y,1/2-z
-x,-y,-z
x,-y,1/2+z
1/2+x,1/2+y,z
1/2-x,1/2+y,1/2-z
1/2-x,1/2-y,-z
1/2+x,1/2-y,1/2+z
loop_
_atom_site_type_symbol
_atom_site_label
_atom_site_fract_x
_atom_site_fract_y
_atom_site_fract_z
Si Si1 0.108022 0.097692 0.470548
Si Si2 0.721800 0.329039 0.091612
Si Si3 0.419914 0.838977 0.423797
Si Si4 0.118448 0.948097 0.607398
Si Si5 0.937349 0.455988 0.665240
Si Si6 0.554297 0.680474 0.952314
Si Si7 0.300294 0.085773 0.806091
O O1 0.196513 0.124754 0.462811
O O2 0.119854 0.068405 0.286957
O O3 0.037857 0.162457 0.537367
O O4 0.082947 0.028228 0.597654
O O5 0.633903 0.321011 0.265659
O O6 0.783930 0.375880 0.151836
O O7 0.750000 0.250000 0.000000
O O8 0.500000 0.865594 0.250000
O O9 0.406879 0.887051 0.589893
O O10 0.440121 0.756677 0.460138
O O11 0.339950 0.851004 0.381966
O O12 0.067000 0.886331 0.560791
O O13 0.211929 0.941034 0.453343
O O14 0.862852 0.515081 0.761745
O O15 0.000000 0.432572 0.750000
O O16 0.000000 0.500000 0.500000
#
# Coordination Sequence:
#
# PCOD9306592 Si02
#       7
#     8   8   8   8   8   8   8
#     4  12  26  49  75 110 148 196 250 304 375 446
#     4  11  29  47  73 110 148 191 246 309 373 441
#     4  12  26  46  76 108 149 198 247 306 374 450
#     4  11  26  45  78 109 144 197 249 313 372 442
#     4  12  24  45  70 105 143 195 245 300 366 446
#     4  11  27  49  75 107 147 197 244 305 374 452
#     4  11  26  46  72 108 152 191 251 307 376 443
#
# _framework density 22.770084000000001
#
# number of rings (size 3 to 8) (size 9 to 14) (size 15 to 20)
#    0.000    0.571    2.857    3.857   10.000    4.571 
#    0.000    0.000    0.000    0.000    0.000    0.000 
#    0.000    0.000    0.000    0.000    0.000    0.000 
#
# Total GULP energy -156713.781268 kJ/mol
# GULP energy per Si atom -5596.920760 kJ/mol
# Density = 2.271826 g / cm^3
# Si number density = 22.770084 Si / 1000 Ang^3
#
#
#
# Elastic Constant Matrix: (Units=GPa)
#
#
# Indices 1 2 3 4 5 6 
#
# 1 135.3963 52.4761 34.0865 0.0000 26.8389 0.0000
# 2 52.4761 138.8571 8.4141 0.0000 15.1255 0.0000
# 3 34.0865 8.4141 67.6202 0.0000 6.9559 0.0000
# 4 0.0000 0.0000 0.0000 21.9998 0.0000 15.1922
# 5 26.8389 15.1255 6.9559 0.0000 48.6899 0.0000
# 6 0.0000 0.0000 0.0000 15.1922 0.0000 36.0285
#
#
#
# Elastic Compliance Matrix: (Units=1/GPa)
#
#
# Indices 1 2 3 4 5 6 
#
# 1 0.010627 -0.003286 -0.004517 0.000000 -0.004192 0.000000
# 2 -0.003286 0.008503 0.000694 0.000000 -0.000929 0.000000
# 3 -0.004517 0.000694 0.016995 0.000000 -0.000154 0.000000
# 4 0.000000 0.000000 0.000000 0.064129 0.000000 -0.027041
# 5 -0.004192 -0.000929 -0.000154 0.000000 0.023159 0.000000
# 6 0.000000 0.000000 0.000000 -0.027041 0.000000 0.039158
#
#
# Mechanical properties :
#
#
# Convention : Reuss Voigt Hill
#
# Bulk Modulus (GPa) = 45.64761 59.09190 52.36976
# Shear Modulus (GPa) = 27.16037 37.80344 32.48190
#
# Velocity S-wave (km/s) = 3.45745 4.07900 3.78102
# Velocity P-wave (km/s) = 6.00245 6.94206 6.48928
#
# Compressibility (1/GPa) = 0.02190695
#
# Stress axis : x y z
#
# Youngs Moduli (GPa) = 94.09644 117.61094 58.84112
#
# Poissons Ratio (x) = 0.38646 0.26579
# Poissons Ratio (y) = 0.30919 -0.04083
# Poissons Ratio (z) = 0.42504 -0.08162
#
# Static dielectric constant tensor:
#      x y z
#    x 1.798590 0.000000 -0.017690 
#    y 0.000000 1.941130 0.000000 
#    z -0.017690 0.000000 1.855920 
# 
# From -- ./inp_files/49033.got.cif
#   From: 2010.05.17/outbox.cif.g08.bks.cpg/sg15_25_cif.got.tgz:49033.got - 2010.06.03 18:47:42.
