data_PCOD9306762
_publ_section_title
;
Structure prediction by ZEFSAII (Michael W. Deem and Ramdas Pophale) SiO2 
 PCOD9306762
Probable space group: C 2/C
;
_chemical_formula_sum "Si O2"
_cell_formula_units_Z 36
_cell_length_a 17.080228
_cell_length_b 14.630937
_cell_length_c 7.941654
_cell_angle_alpha 90.000000
_cell_angle_beta 138.444499
_cell_angle_gamma 90.000000
_cell_volume 1316.486402
_symmetry_space_group_name_H-M "C 2/C"
_symmetry_group_IT_number 15
_symmetry_cell_setting 'monoclinic'
loop_
_space_group_symop_operation_xyz
x,y,z
-x,y,1/2-z
-x,-y,-z
x,-y,1/2+z
1/2+x,1/2+y,z
1/2-x,1/2+y,1/2-z
1/2-x,1/2-y,-z
1/2+x,1/2-y,1/2+z
loop_
_atom_site_type_symbol
_atom_site_label
_atom_site_fract_x
_atom_site_fract_y
_atom_site_fract_z
Si Si1 0.920709 0.632557 0.380009
Si Si2 0.822693 0.667286 0.550889
Si Si3 0.419771 0.589029 0.841194
Si Si4 0.240775 0.017527 0.628143
Si Si5 0.000000 0.751718 0.250000
O O1 0.850074 0.689675 0.403834
O O2 0.906197 0.675593 0.171571
O O3 0.056200 0.646831 0.653876
O O4 0.130286 0.468314 0.656699
O O5 0.750000 0.750000 0.500000
O O6 0.748992 0.576168 0.468860
O O7 0.326625 0.582883 0.847381
O O8 0.342463 0.567191 0.551982
O O9 0.492995 0.678795 0.900573
O O10 0.500000 0.500000 0.000000
#
# Coordination Sequence:
#
# PCOD9306762 Si02
#       5
#     8   8   8   8   4
#     4  11  28  47  76 118 155 203 266 335 402 477
#     4  11  26  50  78 111 163 209 261 326 413 490
#     4  12  26  48  76 111 155 210 270 327 405 482
#     4  12  25  49  80 110 156 207 271 327 401 468
#     4  12  28  48  76 112 160 200 274 332 404 492
#
# _framework density 27.345516
#
# number of rings (size 3 to 8) (size 9 to 14) (size 15 to 20)
#    0.000    0.444    4.444    2.000    9.333    2.667 
#    0.000    0.000    0.000    0.000    0.000    0.000 
#    0.000    0.000    0.000    0.000    0.000    0.000 
#
# Total GULP energy -100325.214259 kJ/mol
# GULP energy per Si atom -5573.623014 kJ/mol
# Density = 2.728328 g / cm^3
# Si number density = 27.345516 Si / 1000 Ang^3
#
#
#
# Elastic Constant Matrix: (Units=GPa)
#
#
# Indices 1 2 3 4 5 6 
#
# 1 251.7973 95.9497 43.5023 0.0000 -26.6783 0.0000
# 2 95.9497 124.3706 6.2306 0.0000 5.0134 0.0000
# 3 43.5023 6.2306 79.5648 0.0000 13.7893 0.0000
# 4 0.0000 0.0000 0.0000 38.8282 0.0000 -5.1234
# 5 -26.6783 5.0134 13.7893 0.0000 42.7655 0.0000
# 6 0.0000 0.0000 0.0000 -5.1234 0.0000 66.3366
#
#
#
# Elastic Compliance Matrix: (Units=1/GPa)
#
#
# Indices 1 2 3 4 5 6 
#
# 1 0.008027 -0.006232 -0.005185 0.000000 0.007410 0.000000
# 2 -0.006232 0.012935 0.003528 0.000000 -0.006541 0.000000
# 3 -0.005185 0.003528 0.016692 0.000000 -0.009030 0.000000
# 4 0.000000 0.000000 0.000000 0.026020 0.000000 0.002010
# 5 0.007410 -0.006541 -0.009030 0.000000 0.031684 0.000000
# 6 0.000000 0.000000 0.000000 0.002010 0.000000 0.015230
#
#
# Mechanical properties :
#
#
# Convention : Reuss Voigt Hill
#
# Bulk Modulus (GPa) = 45.71083 83.01089 64.36086
# Shear Modulus (GPa) = 37.40916 50.25607 43.83262
#
# Velocity S-wave (km/s) = 3.70269 4.29163 4.00799
# Velocity P-wave (km/s) = 5.91880 7.41483 6.70864
#
# Compressibility (1/GPa) = 0.02187665
#
# Stress axis : x y z
#
# Youngs Moduli (GPa) = 124.58110 77.30988 59.90887
#
# Poissons Ratio (x) = 0.48176 0.31062
# Poissons Ratio (y) = 0.77633 -0.21135
# Poissons Ratio (z) = 0.64594 -0.27274
#
# Static dielectric constant tensor:
#      x y z
#    x 2.180460 0.000000 0.031550 
#    y 0.000000 2.167010 0.000000 
#    z 0.031550 0.000000 2.259540 
# 
# From -- ./inp_files/47324.got.cif
#   From: 2010.05.17/outbox.cif.g08.bks.cpg/sg15_24_cif.got.tgz:47324.got - 2010.06.03 18:47:42.
