data_PCOD9306164
_publ_section_title
;
Structure prediction by ZEFSAII (Michael W. Deem and Ramdas Pophale) SiO2 
 PCOD9306164
Probable space group: C 2/C
;
_chemical_formula_sum "Si O2"
_cell_formula_units_Z 44
_cell_length_a 14.110619
_cell_length_b 6.758900
_cell_length_c 21.332397
_cell_angle_alpha 90.000000
_cell_angle_beta 62.036332
_cell_angle_gamma 90.000000
_cell_volume 1796.978940
_symmetry_space_group_name_H-M "C 2/C"
_symmetry_group_IT_number 15
_symmetry_cell_setting 'monoclinic'
loop_
_space_group_symop_operation_xyz
x,y,z
-x,y,1/2-z
-x,-y,-z
x,-y,1/2+z
1/2+x,1/2+y,z
1/2-x,1/2+y,1/2-z
1/2-x,1/2-y,-z
1/2+x,1/2-y,1/2+z
loop_
_atom_site_type_symbol
_atom_site_label
_atom_site_fract_x
_atom_site_fract_y
_atom_site_fract_z
Si Si1 0.500000 0.969131 0.750000
Si Si2 0.832223 0.153456 0.058191
Si Si3 0.530599 0.486075 0.581227
Si Si4 0.381984 0.681677 0.710624
Si Si5 0.357844 0.163074 0.888958
Si Si6 0.227009 0.462696 0.844387
O O1 0.402936 0.828902 0.761047
O O2 0.464579 0.088082 0.821374
O O3 0.807316 0.360966 0.098945
O O4 0.922335 0.054373 0.075500
O O5 0.728636 0.013396 0.079814
O O6 0.895617 0.154167 0.972650
O O7 0.486387 0.552767 0.662336
O O8 0.602424 0.286835 0.563164
O O9 0.284283 0.548572 0.764078
O O10 0.362111 0.817096 0.656100
O O11 0.305727 0.323339 0.858775
#
# Coordination Sequence:
#
# PCOD9306164 Si02
#       6
#     4   8   8   8   8   8
#     4  12  24  42  70 100 138 174 240 282 352 418
#     4  11  25  49  67 104 139 186 232 291 356 428
#     4  11  25  45  72 100 144 181 235 288 358 426
#     4  12  23  43  69 105 133 189 231 294 354 422
#     4  12  24  47  69 104 137 187 233 297 350 429
#     4  12  24  44  73  97 143 179 236 288 356 415
#
# _framework density 24.485541000000001
#
# number of rings (size 3 to 8) (size 9 to 14) (size 15 to 20)
#    0.000    0.364    3.636    6.000    0.000    1.455 
#    3.273    0.000    0.000    0.000    0.000    0.000 
#    0.000    0.000    0.000    0.000    0.000    0.000 
#
# Total GULP energy -123089.185711 kJ/mol
# GULP energy per Si atom -5594.962987 kJ/mol
# Density = 2.442981 g / cm^3
# Si number density = 24.485541 Si / 1000 Ang^3
#
#
#
# Elastic Constant Matrix: (Units=GPa)
#
#
# Indices 1 2 3 4 5 6 
#
# 1 82.6361 36.3960 -1.9618 0.0000 -0.0791 0.0000
# 2 36.3960 93.0781 3.5154 -0.0001 -7.9648 -0.0001
# 3 -1.9618 3.5154 39.1303 -0.0001 -13.3633 0.0000
# 4 0.0000 -0.0001 -0.0001 36.6695 0.0000 5.5307
# 5 -0.0791 -7.9648 -13.3633 0.0000 27.5936 0.0000
# 6 0.0000 -0.0001 0.0000 5.5307 0.0000 51.6225
#
#
#
# Elastic Compliance Matrix: (Units=1/GPa)
#
#
# Indices 1 2 3 4 5 6 
#
# 1 0.014715 -0.005893 0.000840 0.000000 -0.001252 0.000000
# 2 -0.005893 0.013376 -0.000221 0.000000 0.003737 0.000000
# 3 0.000840 -0.000221 0.030669 0.000000 0.014791 0.000000
# 4 0.000000 0.000000 0.000000 0.027719 0.000000 -0.002970
# 5 -0.001252 0.003737 0.014791 0.000000 0.044479 0.000000
# 6 0.000000 0.000000 0.000000 -0.002970 0.000000 0.019690
#
#
# Mechanical properties :
#
#
# Convention : Reuss Voigt Hill
#
# Bulk Modulus (GPa) = 20.74181 32.30486 26.52334
# Shear Modulus (GPa) = 28.20610 34.97012 31.58811
#
# Velocity S-wave (km/s) = 3.39772 3.78325 3.59565
# Velocity P-wave (km/s) = 4.88693 5.68384 5.30038
#
# Compressibility (1/GPa) = 0.04821180
#
# Stress axis : x y z
#
# Youngs Moduli (GPa) = 67.95562 74.76009 32.60631
#
# Poissons Ratio (x) = 0.44056 -0.02737
# Poissons Ratio (y) = 0.40046 0.00720
# Poissons Ratio (z) = -0.05705 0.01651
#
# Static dielectric constant tensor:
#      x y z
#    x 1.977360 0.000000 0.046910 
#    y 0.000000 1.957540 0.000000 
#    z 0.046910 0.000000 1.926760 
# 
# From -- ./inp_files/275807.got.cif
#   From: 2010.05.17/outbox.cif.g08.bks.cpg/sg15_138_cif.got.tgz:275807.got - 2010.06.03 18:47:42.
