data_PCOD9306482
_publ_section_title
;
Structure prediction by ZEFSAII (Michael W. Deem and Ramdas Pophale) SiO2 
 PCOD9306482
Probable space group: C 2/C
;
_chemical_formula_sum "Si O2"
_cell_formula_units_Z 24
_cell_length_a 7.225227
_cell_length_b 13.141458
_cell_length_c 13.773814
_cell_angle_alpha 90.000000
_cell_angle_beta 133.194491
_cell_angle_gamma 90.000000
_cell_volume 953.448651
_symmetry_space_group_name_H-M "C 2/C"
_symmetry_group_IT_number 15
_symmetry_cell_setting 'monoclinic'
loop_
_space_group_symop_operation_xyz
x,y,z
-x,y,1/2-z
-x,-y,-z
x,-y,1/2+z
1/2+x,1/2+y,z
1/2-x,1/2+y,1/2-z
1/2-x,1/2-y,-z
1/2+x,1/2-y,1/2+z
loop_
_atom_site_type_symbol
_atom_site_label
_atom_site_fract_x
_atom_site_fract_y
_atom_site_fract_z
Si Si1 0.290567 0.671889 0.255857
Si Si2 0.935128 0.152163 0.949745
Si Si3 0.104990 0.491262 0.929083
O O1 0.500000 0.647938 0.250000
O O2 0.132830 0.764009 0.153426
O O3 0.420890 0.697321 0.404479
O O4 0.113895 0.573428 0.201710
O O5 0.132633 0.072200 0.975624
O O6 0.689242 0.094929 0.906208
O O7 0.000000 0.500000 0.000000
#
# Coordination Sequence:
#
# PCOD9306482 Si02
#       3
#     8   8   8
#     4  12  25  50  77 112 154 203 258 315 392 459
#     4  11  27  51  78 112 156 201 259 321 385 461
#     4  11  25  49  75 111 155 205 255 313 384 465
#
# _framework density 25.171780999999999
#
# number of rings (size 3 to 8) (size 9 to 14) (size 15 to 20)
#    0.000    0.667    3.333    3.000    0.000    5.333 
#    6.000    0.000    0.000    0.000    0.000    0.000 
#    0.000    0.000    0.000    0.000    0.000    0.000 
#
# Total GULP energy -67367.072217 kJ/mol
# GULP energy per Si atom -5613.922685 kJ/mol
# Density = 2.511449 g / cm^3
# Si number density = 25.171781 Si / 1000 Ang^3
#
#
#
# Elastic Constant Matrix: (Units=GPa)
#
#
# Indices 1 2 3 4 5 6 
#
# 1 161.5132 13.2113 27.1916 0.0000 -17.2418 -0.0001
# 2 13.2113 73.2906 78.8108 -0.0001 -9.2512 0.0000
# 3 27.1916 78.8108 171.5220 0.0002 -18.4664 0.0001
# 4 0.0000 -0.0001 0.0002 27.4896 0.0001 17.6758
# 5 -17.2418 -9.2512 -18.4664 0.0001 42.1984 0.0000
# 6 -0.0001 0.0000 0.0001 17.6758 0.0000 22.3372
#
#
#
# Elastic Compliance Matrix: (Units=1/GPa)
#
#
# Indices 1 2 3 4 5 6 
#
# 1 0.006575 -0.000079 -0.000754 0.000000 0.002339 0.000000
# 2 -0.000079 0.026981 -0.012332 0.000000 0.000486 0.000000
# 3 -0.000754 -0.012332 0.011850 0.000000 0.002174 0.000000
# 4 0.000000 0.000000 0.000000 0.074060 0.000000 -0.058605
# 5 0.002339 0.000486 0.002174 0.000000 0.025711 0.000000
# 6 0.000000 0.000000 0.000000 -0.058605 0.000000 0.091143
#
#
# Mechanical properties :
#
#
# Convention : Reuss Voigt Hill
#
# Bulk Modulus (GPa) = 52.42472 71.63925 62.03198
# Shear Modulus (GPa) = 18.58665 37.54586 28.06625
#
# Velocity S-wave (km/s) = 2.72029 3.86629 3.34277
# Velocity P-wave (km/s) = 5.54424 6.96081 6.29252
#
# Compressibility (1/GPa) = 0.01907497
#
# Stress axis : x y z
#
# Youngs Moduli (GPa) = 152.10147 37.06284 84.38616
#
# Poissons Ratio (x) = 0.00292 0.06365
# Poissons Ratio (y) = 0.01199 1.04069
# Poissons Ratio (z) = 0.11472 0.45708
#
# Static dielectric constant tensor:
#      x y z
#    x 1.875280 0.000000 -0.026320 
#    y 0.000000 2.007880 0.000000 
#    z -0.026320 0.000000 1.937120 
# 
# From -- ./inp_files/21365.got.cif
#   From: 2010.05.17/outbox.cif.g08.bks.cpg/sg15_11_cif.got.tgz:21365.got - 2010.06.03 18:47:42.
