data_PCOD9306338
_publ_section_title
;
Structure prediction by ZEFSAII (Michael W. Deem and Ramdas Pophale) SiO2 
 PCOD9306338
Probable space group: C 2/C
;
_chemical_formula_sum "Si O2"
_cell_formula_units_Z 48
_cell_length_a 25.512184
_cell_length_b 14.808666
_cell_length_c 9.084996
_cell_angle_alpha 90.000000
_cell_angle_beta 138.560350
_cell_angle_gamma 90.000000
_cell_volume 2271.617951
_symmetry_space_group_name_H-M "C 2/C"
_symmetry_group_IT_number 15
_symmetry_cell_setting 'monoclinic'
loop_
_space_group_symop_operation_xyz
x,y,z
-x,y,1/2-z
-x,-y,-z
x,-y,1/2+z
1/2+x,1/2+y,z
1/2-x,1/2+y,1/2-z
1/2-x,1/2-y,-z
1/2+x,1/2-y,1/2+z
loop_
_atom_site_type_symbol
_atom_site_label
_atom_site_fract_x
_atom_site_fract_y
_atom_site_fract_z
Si Si1 0.293194 0.600583 0.952556
Si Si2 0.782828 0.550336 0.395845
Si Si3 0.977959 0.092264 0.372861
Si Si4 0.759195 0.773529 0.846874
Si Si5 0.438328 0.736965 0.754557
Si Si6 0.054229 0.557362 0.221492
O O1 0.279848 0.516955 0.812984
O O2 0.264297 0.689295 0.805076
O O3 0.243779 0.580570 0.997031
O O4 0.384535 0.610189 0.188113
O O5 0.788912 0.638785 0.306545
O O6 0.864369 0.494892 0.577101
O O7 0.000000 0.083352 0.250000
O O8 0.028365 0.172527 0.550024
O O9 0.000000 0.000000 0.500000
O O10 0.750000 0.750000 0.000000
O O11 0.852103 0.794031 0.019649
O O12 0.500000 0.733453 0.750000
O O13 0.429355 0.839858 0.791703
O O14 0.000000 0.565992 0.250000
O O15 0.000000 0.500000 0.000000
#
# Coordination Sequence:
#
# PCOD9306338 Si02
#       6
#     8   8   8   8   8   8
#     4  12  25  45  70 105 135 186 234 284 357 411
#     4  12  25  45  72 100 143 183 235 288 347 423
#     4  12  25  45  73 105 140 183 234 290 352 414
#     4  12  26  45  70 103 142 185 235 290 347 416
#     4  11  25  47  70 103 144 183 233 291 350 413
#     4  11  26  43  70 101 143 187 232 286 349 420
#
# _framework density 21.130313999999998
#
# number of rings (size 3 to 8) (size 9 to 14) (size 15 to 20)
#    0.000    0.333    1.667    7.000    7.000    0.667 
#    0.000    0.000    0.000    0.000    0.000    0.000 
#    0.000    0.000    0.000    0.000    0.000    0.000 
#
# Total GULP energy -134434.038242 kJ/mol
# GULP energy per Si atom -5601.418260 kJ/mol
# Density = 2.108222 g / cm^3
# Si number density = 21.130314 Si / 1000 Ang^3
#
#
#
# Elastic Constant Matrix: (Units=GPa)
#
#
# Indices 1 2 3 4 5 6 
#
# 1 106.3065 44.9861 47.7905 0.0000 3.5023 0.0000
# 2 44.9861 188.1363 90.8602 0.0000 -18.3898 0.0000
# 3 47.7905 90.8602 140.0947 0.0000 -0.2842 0.0000
# 4 0.0000 0.0000 0.0000 52.2686 0.0000 3.1339
# 5 3.5023 -18.3898 -0.2842 0.0000 42.4127 0.0000
# 6 0.0000 0.0000 0.0000 3.1339 0.0000 21.7249
#
#
#
# Elastic Compliance Matrix: (Units=1/GPa)
#
#
# Indices 1 2 3 4 5 6 
#
# 1 0.011401 -0.001459 -0.002946 0.000000 -0.001594 0.000000
# 2 -0.001459 0.008424 -0.004958 0.000000 0.003740 0.000000
# 3 -0.002946 -0.004958 0.011355 0.000000 -0.001831 0.000000
# 4 0.000000 0.000000 0.000000 0.019299 0.000000 -0.002784
# 5 -0.001594 0.003740 -0.001831 0.000000 0.025319 0.000000
# 6 0.000000 0.000000 0.000000 -0.002784 0.000000 0.046432
#
#
# Mechanical properties :
#
#
# Convention : Reuss Voigt Hill
#
# Bulk Modulus (GPa) = 80.29971 89.09009 84.69490
# Shear Modulus (GPa) = 34.45686 40.00795 37.23241
#
# Velocity S-wave (km/s) = 4.04255 4.35603 4.20222
# Velocity P-wave (km/s) = 7.73785 8.21911 7.98211
#
# Compressibility (1/GPa) = 0.01245335
#
# Stress axis : x y z
#
# Youngs Moduli (GPa) = 87.70996 118.70215 88.06527
#
# Poissons Ratio (x) = 0.17320 0.25946
# Poissons Ratio (y) = 0.12798 0.43667
# Poissons Ratio (z) = 0.25841 0.58858
#
# Static dielectric constant tensor:
#      x y z
#    x 1.744310 0.000000 0.000170 
#    y 0.000000 1.746550 0.000000 
#    z 0.000170 0.000000 1.735760 
# 
# From -- ./inp_files/66508.got.cif
#   From: 2010.05.17/outbox.cif.g08.bks.cpg/sg15_34_cif.got.tgz:66508.got - 2010.06.03 18:47:42.
