data_PCOD9306808
_publ_section_title
;
Structure prediction by ZEFSAII (Michael W. Deem and Ramdas Pophale) SiO2 
 PCOD9306808
Probable space group: C 2/C
;
_chemical_formula_sum "Si O2"
_cell_formula_units_Z 32
_cell_length_a 4.759340
_cell_length_b 19.874867
_cell_length_c 13.867636
_cell_angle_alpha 90.000000
_cell_angle_beta 78.335272
_cell_angle_gamma 90.000000
_cell_volume 1284.665907
_symmetry_space_group_name_H-M "C 2/C"
_symmetry_group_IT_number 15
_symmetry_cell_setting 'monoclinic'
loop_
_space_group_symop_operation_xyz
x,y,z
-x,y,1/2-z
-x,-y,-z
x,-y,1/2+z
1/2+x,1/2+y,z
1/2-x,1/2+y,1/2-z
1/2-x,1/2-y,-z
1/2+x,1/2-y,1/2+z
loop_
_atom_site_type_symbol
_atom_site_label
_atom_site_fract_x
_atom_site_fract_y
_atom_site_fract_z
Si Si1 0.198582 0.796779 0.145144
Si Si2 0.000000 0.402691 0.250000
Si Si3 0.491522 0.337092 0.545176
Si Si4 0.949951 0.398105 0.643401
Si Si5 0.500000 0.494813 0.250000
O O1 0.404025 0.856224 0.168074
O O2 0.363241 0.729663 0.103920
O O3 0.000000 0.782532 0.250000
O O4 0.016159 0.821144 0.066552
O O5 0.721138 0.447952 0.293256
O O6 0.785933 0.350870 0.579396
O O7 0.271703 0.399260 0.580049
O O8 0.730116 0.460096 0.674888
O O9 0.000000 0.373859 0.750000
#
# Coordination Sequence:
#
# PCOD9306808 Si02
#       5
#     8   4   8   8   4
#     4  11  28  47  75 108 155 189 228 309 376 440
#     4  12  26  45  72 101 152 202 232 290 380 424
#     4  11  27  45  76 116 140 185 254 290 373 440
#     4  12  23  45  77 107 143 188 248 310 339 411
#     4  12  24  47  72 103 144 204 250 288 350 420
#
# _framework density 24.909199000000001
#
# number of rings (size 3 to 8) (size 9 to 14) (size 15 to 20)
#    0.000    0.500    5.000    0.750   10.500    2.000 
#    0.000    7.500    0.000    0.000    0.000    0.000 
#    0.000    0.000    0.000    0.000    0.000    0.000 
#
# Total GULP energy -89536.944283 kJ/mol
# GULP energy per Si atom -5596.059018 kJ/mol
# Density = 2.485250 g / cm^3
# Si number density = 24.909199 Si / 1000 Ang^3
#
#
#
# Elastic Constant Matrix: (Units=GPa)
#
#
# Indices 1 2 3 4 5 6 
#
# 1 170.9778 48.2200 43.7872 0.0000 36.7488 0.0000
# 2 48.2200 108.8982 29.4630 0.0000 11.5810 0.0000
# 3 43.7872 29.4630 153.0734 0.0000 34.3945 0.0000
# 4 0.0000 0.0000 0.0000 8.8621 0.0000 6.5586
# 5 36.7488 11.5810 34.3945 0.0000 52.5307 0.0000
# 6 0.0000 0.0000 0.0000 6.5586 0.0000 92.1500
#
#
#
# Elastic Compliance Matrix: (Units=1/GPa)
#
#
# Indices 1 2 3 4 5 6 
#
# 1 0.007746 -0.002777 -0.000705 0.000000 -0.004345 0.000000
# 2 -0.002777 0.010735 -0.001380 0.000000 0.000480 0.000000
# 3 -0.000705 -0.001380 0.007997 0.000000 -0.004439 0.000000
# 4 0.000000 0.000000 0.000000 0.119114 0.000000 -0.008478
# 5 -0.004345 0.000480 -0.004439 0.000000 0.024877 0.000000
# 6 0.000000 0.000000 0.000000 -0.008478 0.000000 0.011455
#
#
# Mechanical properties :
#
#
# Convention : Reuss Voigt Hill
#
# Bulk Modulus (GPa) = 59.68282 75.09888 67.39085
# Shear Modulus (GPa) = 25.35059 51.47383 38.41221
#
# Velocity S-wave (km/s) = 3.19363 4.55076 3.93120
# Velocity P-wave (km/s) = 6.13280 7.60441 6.90791
#
# Compressibility (1/GPa) = 0.01675524
#
# Stress axis : x y z
#
# Youngs Moduli (GPa) = 129.09097 93.15405 125.04052
#
# Poissons Ratio (x) = 0.25872 0.08815
# Poissons Ratio (y) = 0.35852 0.17249
# Poissons Ratio (z) = 0.09101 0.12851
#
# Static dielectric constant tensor:
#      x y z
#    x 1.965680 0.000000 -0.043980 
#    y 0.000000 2.028280 0.000000 
#    z -0.043980 0.000000 1.943820 
# 
# From -- ./inp_files/128495.got.cif
#   From: 2010.05.17/outbox.cif.g08.bks.cpg/sg15_65_cif.got.tgz:128495.got - 2010.06.03 18:47:42.
