data_PCOD9306579
_publ_section_title
;
Structure prediction by ZEFSAII (Michael W. Deem and Ramdas Pophale) SiO2 
 PCOD9306579
Probable space group: C 2/C
;
_chemical_formula_sum "Si O2"
_cell_formula_units_Z 40
_cell_length_a 9.501162
_cell_length_b 18.829808
_cell_length_c 12.051048
_cell_angle_alpha 90.000000
_cell_angle_beta 62.365647
_cell_angle_gamma 90.000000
_cell_volume 1910.049851
_symmetry_space_group_name_H-M "C 2/C"
_symmetry_group_IT_number 15
_symmetry_cell_setting 'monoclinic'
loop_
_space_group_symop_operation_xyz
x,y,z
-x,y,1/2-z
-x,-y,-z
x,-y,1/2+z
1/2+x,1/2+y,z
1/2-x,1/2+y,1/2-z
1/2-x,1/2-y,-z
1/2+x,1/2-y,1/2+z
loop_
_atom_site_type_symbol
_atom_site_label
_atom_site_fract_x
_atom_site_fract_y
_atom_site_fract_z
Si Si1 0.339968 0.358315 0.144860
Si Si2 0.178520 0.418493 0.996035
Si Si3 0.705152 0.324586 0.959477
Si Si4 0.312303 0.928363 0.094264
Si Si5 0.312488 0.703628 0.292846
O O1 0.306651 0.390754 0.277421
O O2 0.247810 0.283644 0.168763
O O3 0.267996 0.410879 0.079436
O O4 0.522994 0.343276 0.053304
O O5 0.227934 0.490111 0.914485
O O6 0.223507 0.349845 0.907509
O O7 0.988995 0.422720 0.079725
O O8 0.721669 0.317859 0.821665
O O9 0.750000 0.250000 0.000000
O O10 0.809067 0.385411 0.979853
O O11 0.500000 0.699892 0.250000
#
# Coordination Sequence:
#
# PCOD9306579 Si02
#       5
#     8   8   8   8   8
#     4  12  25  46  72 100 141 180 228 288 342 411
#     4  11  26  46  70  98 138 186 230 277 346 415
#     4  12  26  45  69 104 136 177 228 285 344 404
#     4  11  26  45  69 101 138 182 228 285 343 403
#     4  12  25  44  73 100 135 179 231 281 343 409
#
# _framework density 20.941862
#
# number of rings (size 3 to 8) (size 9 to 14) (size 15 to 20)
#    0.000    0.400    4.000    4.200    2.800    4.800 
#    0.000    0.000    0.000    0.000    0.000    0.000 
#    0.000    0.000    0.000    0.000    0.000    0.000 
#
# Total GULP energy -112026.173914 kJ/mol
# GULP energy per Si atom -5601.308696 kJ/mol
# Density = 2.089420 g / cm^3
# Si number density = 20.941862 Si / 1000 Ang^3
#
#
#
# Elastic Constant Matrix: (Units=GPa)
#
#
# Indices 1 2 3 4 5 6 
#
# 1 83.0968 14.8338 -0.8200 0.0000 17.9200 0.0000
# 2 14.8338 91.8825 1.5597 0.0000 -5.1293 0.0000
# 3 -0.8200 1.5597 41.0352 0.0000 13.7952 0.0000
# 4 0.0000 0.0000 0.0000 28.7988 0.0000 0.7299
# 5 17.9200 -5.1293 13.7952 0.0000 33.6230 0.0000
# 6 0.0000 0.0000 0.0000 0.7299 0.0000 23.9438
#
#
#
# Elastic Compliance Matrix: (Units=1/GPa)
#
#
# Indices 1 2 3 4 5 6 
#
# 1 0.014723 -0.002988 0.003711 0.000000 -0.009825 0.000000
# 2 -0.002988 0.011629 -0.001895 0.000000 0.004144 0.000000
# 3 0.003711 -0.001895 0.029322 0.000000 -0.014297 0.000000
# 4 0.000000 0.000000 0.000000 0.034751 0.000000 -0.001059
# 5 -0.009825 0.004144 -0.014297 0.000000 0.041476 0.000000
# 6 0.000000 0.000000 0.000000 -0.001059 0.000000 0.041797
#
#
# Mechanical properties :
#
#
# Convention : Reuss Voigt Hill
#
# Bulk Modulus (GPa) = 18.75138 27.46240 23.10689
# Shear Modulus (GPa) = 25.79716 30.63585 28.21650
#
# Velocity S-wave (km/s) = 3.51357 3.82894 3.67464
# Velocity P-wave (km/s) = 5.04319 5.71750 5.39090
#
# Compressibility (1/GPa) = 0.05332942
#
# Stress axis : x y z
#
# Youngs Moduli (GPa) = 67.92036 85.98855 34.10417
#
# Poissons Ratio (x) = 0.25697 -0.12656
# Poissons Ratio (y) = 0.20298 0.06463
# Poissons Ratio (z) = -0.25204 0.16295
#
# Static dielectric constant tensor:
#      x y z
#    x 1.749210 0.000000 0.013450 
#    y 0.000000 1.713720 0.000000 
#    z 0.013450 0.000000 1.715020 
# 
# From -- ./inp_files/76711.got.cif
#   From: 2010.05.17/outbox.cif.g08.bks.cpg/sg15_39_cif.got.tgz:76711.got - 2010.06.03 18:47:42.
