data_PCOD9306198
_publ_section_title
;
Structure prediction by ZEFSAII (Michael W. Deem and Ramdas Pophale) SiO2 
 PCOD9306198
Probable space group: C 2/C
;
_chemical_formula_sum "Si O2"
_cell_formula_units_Z 48
_cell_length_a 21.560365
_cell_length_b 5.685413
_cell_length_c 18.552816
_cell_angle_alpha 90.000000
_cell_angle_beta 56.461020
_cell_angle_gamma 90.000000
_cell_volume 1895.565723
_symmetry_space_group_name_H-M "C 2/C"
_symmetry_group_IT_number 15
_symmetry_cell_setting 'monoclinic'
loop_
_space_group_symop_operation_xyz
x,y,z
-x,y,1/2-z
-x,-y,-z
x,-y,1/2+z
1/2+x,1/2+y,z
1/2-x,1/2+y,1/2-z
1/2-x,1/2-y,-z
1/2+x,1/2-y,1/2+z
loop_
_atom_site_type_symbol
_atom_site_label
_atom_site_fract_x
_atom_site_fract_y
_atom_site_fract_z
Si Si1 0.558781 0.837895 0.870226
Si Si2 0.822869 0.031977 0.791053
Si Si3 0.336377 0.231013 0.424224
Si Si4 0.451105 0.155977 0.847879
Si Si5 0.926484 0.036365 0.989444
Si Si6 0.334870 0.770380 0.154412
O O1 0.617346 0.690234 0.787776
O O2 0.504491 0.673123 0.952123
O O3 0.508686 0.965367 0.842700
O O4 0.602889 0.028326 0.888768
O O5 0.845439 0.061765 0.859324
O O6 0.741671 0.144223 0.830662
O O7 0.822965 0.789524 0.746621
O O8 0.250000 0.250000 0.500000
O O9 0.380733 0.285394 0.467371
O O10 0.375263 0.985186 0.374306
O O11 0.500000 0.264784 0.750000
O O12 0.437974 0.321859 0.926332
O O13 0.868065 0.041662 0.092838
#
# Coordination Sequence:
#
# PCOD9306198 Si02
#       6
#     8   8   8   8   8   8
#     4  11  25  47  71 103 148 191 246 302 372 446
#     4  12  25  44  72 105 148 196 247 304 374 446
#     4  11  25  47  74 106 148 191 249 318 370 442
#     4  11  25  45  75 106 142 194 248 309 376 435
#     4  11  27  45  76 107 146 193 252 308 373 444
#     4  12  26  46  71 109 148 198 242 304 381 446
#
# _framework density 25.322254000000001
#
# number of rings (size 3 to 8) (size 9 to 14) (size 15 to 20)
#    0.000    0.667    5.000    1.500    4.667    7.333 
#    0.000    0.000    0.000    0.000    0.000    0.000 
#    0.000    0.000    0.000    0.000    0.000    0.000 
#
# Total GULP energy -134189.253174 kJ/mol
# GULP energy per Si atom -5591.218882 kJ/mol
# Density = 2.526462 g / cm^3
# Si number density = 25.322254 Si / 1000 Ang^3
#
#
#
# Elastic Constant Matrix: (Units=GPa)
#
#
# Indices 1 2 3 4 5 6 
#
# 1 189.2084 60.0611 44.6165 -0.0115 -15.0595 0.0963
# 2 60.0611 77.0870 40.5501 0.0156 -7.3556 0.1237
# 3 44.6165 40.5501 140.1596 0.0058 -7.4337 0.0387
# 4 -0.0115 0.0156 0.0058 41.3533 0.0034 8.4684
# 5 -15.0595 -7.3556 -7.4337 0.0034 61.4874 -0.0001
# 6 0.0963 0.1237 0.0387 8.4684 -0.0001 30.6444
#
#
#
# Elastic Compliance Matrix: (Units=1/GPa)
#
#
# Indices 1 2 3 4 5 6 
#
# 1 0.007160 -0.005082 -0.000753 0.000004 0.001055 -0.000002
# 2 -0.005082 0.019012 -0.003853 0.000004 0.000564 -0.000057
# 3 -0.000753 -0.003853 0.008509 -0.000002 0.000383 0.000008
# 4 0.000004 0.000004 -0.000002 0.025632 0.000000 -0.007083
# 5 0.001055 0.000564 0.000383 0.000000 0.016636 -0.000006
# 6 -0.000002 -0.000057 0.000008 -0.007083 -0.000006 0.034590
#
#
# Mechanical properties :
#
#
# Convention : Reuss Voigt Hill
#
# Bulk Modulus (GPa) = 65.33270 77.43449 71.38359
# Shear Modulus (GPa) = 36.76006 44.11218 40.43612
#
# Velocity S-wave (km/s) = 3.81424 4.17829 4.00041
# Velocity P-wave (km/s) = 6.72714 7.34326 7.04194
#
# Compressibility (1/GPa) = 0.01530627
#
# Stress axis : x y z
#
# Youngs Moduli (GPa) = 139.66905 52.59735 117.51600
#
# Poissons Ratio (x) = 0.26728 0.08849
# Poissons Ratio (y) = 0.70976 0.45279
# Poissons Ratio (z) = 0.10517 0.20266
#
# Static dielectric constant tensor:
#      x y z
#    x 1.983400 -0.000020 0.025160 
#    y -0.000020 2.060100 0.000010 
#    z 0.025160 0.000010 1.981800 
# 
# From -- ./inp_files/254248.got.cif
#   From: 2010.05.17/outbox.cif.g08.bks.cpg/sg15_128_cif.got.tgz:254248.got - 2010.06.03 18:47:42.
