data_PCOD9306154
_publ_section_title
;
Structure prediction by ZEFSAII (Michael W. Deem and Ramdas Pophale) SiO2 
 PCOD9306154
Probable space group: C 2/C
;
_chemical_formula_sum "Si O2"
_cell_formula_units_Z 24
_cell_length_a 14.859061
_cell_length_b 5.133185
_cell_length_c 27.336883
_cell_angle_alpha 90.000000
_cell_angle_beta 156.239725
_cell_angle_gamma 90.000000
_cell_volume 840.110119
_symmetry_space_group_name_H-M "C 2/C"
_symmetry_group_IT_number 15
_symmetry_cell_setting 'monoclinic'
loop_
_space_group_symop_operation_xyz
x,y,z
-x,y,1/2-z
-x,-y,-z
x,-y,1/2+z
1/2+x,1/2+y,z
1/2-x,1/2+y,1/2-z
1/2-x,1/2-y,-z
1/2+x,1/2-y,1/2+z
loop_
_atom_site_type_symbol
_atom_site_label
_atom_site_fract_x
_atom_site_fract_y
_atom_site_fract_z
Si Si1 0.305543 0.734750 0.618827
Si Si2 0.176128 0.327955 0.633066
Si Si3 0.536465 0.927878 0.382510
O O1 0.500000 0.850868 0.750000
O O2 0.258343 0.461319 0.623748
O O3 0.051174 0.835483 0.488017
O O4 0.402036 0.795897 0.613171
O O5 0.371301 0.199627 0.761113
O O6 0.087571 0.541961 0.627795
O O7 0.750000 0.750000 0.500000
#
# Coordination Sequence:
#
# PCOD9306154 Si02
#       3
#     8   8   8
#     4  11  25  45  71 105 144 189 240 299 364 432
#     4  11  25  45  71 107 146 190 244 300 364 435
#     4  12  25  45  73 106 146 191 242 302 366 435
#
# _framework density 28.567685999999998
#
# number of rings (size 3 to 8) (size 9 to 14) (size 15 to 20)
#    0.000    0.667    0.000    7.000    0.000    9.333 
#    0.000    0.000    0.000    0.000    0.000    0.000 
#    0.000    0.000    0.000    0.000    0.000    0.000 
#
# Total GULP energy -67071.656768 kJ/mol
# GULP energy per Si atom -5589.304731 kJ/mol
# Density = 2.850266 g / cm^3
# Si number density = 28.567686 Si / 1000 Ang^3
#
#
#
# Elastic Constant Matrix: (Units=GPa)
#
#
# Indices 1 2 3 4 5 6 
#
# 1 93.5295 55.3161 69.6981 -0.0040 -2.9244 0.0025
# 2 55.3161 75.4878 46.9432 -0.0273 3.8259 0.0234
# 3 69.6981 46.9432 315.3756 -0.0046 -11.8389 0.0058
# 4 -0.0040 -0.0273 -0.0046 8.3382 0.0047 -15.2653
# 5 -2.9244 3.8259 -11.8389 0.0047 61.2539 -0.0057
# 6 0.0025 0.0234 0.0058 -15.2653 -0.0057 75.2987
#
#
#
# Elastic Compliance Matrix: (Units=1/GPa)
#
#
# Indices 1 2 3 4 5 6 
#
# 1 0.020670 -0.013672 -0.002482 -0.000047 0.001361 -0.000006
# 2 -0.013672 0.023752 -0.000598 0.000094 -0.002252 0.000012
# 3 -0.002482 -0.000598 0.003833 -0.000002 0.000660 0.000000
# 4 -0.000047 0.000094 -0.000002 0.190713 -0.000020 0.038663
# 5 0.001361 -0.002252 0.000660 -0.000020 0.016659 -0.000002
# 6 -0.000006 0.000012 0.000000 0.038663 -0.000002 0.021119
#
#
# Mechanical properties :
#
#
# Convention : Reuss Voigt Hill
#
# Bulk Modulus (GPa) = 67.79524 92.03418 79.91471
# Shear Modulus (GPa) = 15.86460 49.80720 32.83590
#
# Velocity S-wave (km/s) = 2.35911 4.18003 3.39397
# Velocity P-wave (km/s) = 5.58601 7.45540 6.58735
#
# Compressibility (1/GPa) = 0.01475030
#
# Stress axis : x y z
#
# Youngs Moduli (GPa) = 48.37924 42.10127 260.88086
#
# Poissons Ratio (x) = 0.57562 0.64748
# Poissons Ratio (y) = 0.66145 0.15613
# Poissons Ratio (z) = 0.12007 0.02520
#
# Static dielectric constant tensor:
#      x y z
#    x 2.116090 -0.000010 0.049310 
#    y -0.000010 2.299850 0.000000 
#    z 0.049310 0.000000 2.216760 
# 
# From -- ./inp_files/314986.got.cif
#   From: 2010.05.17/outbox.cif.g08.bks.cpg/sg15_158_cif.got.tgz:314986.got - 2010.06.03 18:47:42.
