data_PCOD9306884
_publ_section_title
;
Structure prediction by ZEFSAII (Michael W. Deem and Ramdas Pophale) SiO2 
 PCOD9306884
Probable space group: C 2/C
;
_chemical_formula_sum "Si O2"
_cell_formula_units_Z 36
_cell_length_a 23.604362
_cell_length_b 4.881708
_cell_length_c 24.600647
_cell_angle_alpha 90.000000
_cell_angle_beta 155.466232
_cell_angle_gamma 90.000000
_cell_volume 1177.060433
_symmetry_space_group_name_H-M "C 2/C"
_symmetry_group_IT_number 15
_symmetry_cell_setting 'monoclinic'
loop_
_space_group_symop_operation_xyz
x,y,z
-x,y,1/2-z
-x,-y,-z
x,-y,1/2+z
1/2+x,1/2+y,z
1/2-x,1/2+y,1/2-z
1/2-x,1/2-y,-z
1/2+x,1/2-y,1/2+z
loop_
_atom_site_type_symbol
_atom_site_label
_atom_site_fract_x
_atom_site_fract_y
_atom_site_fract_z
Si Si1 0.194863 0.005749 0.704815
Si Si2 0.575911 0.186891 0.999276
Si Si3 0.790283 0.475938 0.109386
Si Si4 0.000000 0.875638 0.750000
Si Si5 0.043752 0.707582 0.386410
O O1 0.258143 0.257677 0.794836
O O2 0.156729 0.256384 0.626113
O O3 0.063993 0.857339 0.616987
O O4 0.544970 0.881515 0.951699
O O5 0.672156 0.309354 0.036807
O O6 0.869218 0.320071 0.130823
O O7 0.920334 0.504953 0.262295
O O8 0.707521 0.748496 0.021720
O O9 0.995895 0.059769 0.800606
#
# Coordination Sequence:
#
# PCOD9306884 Si02
#       5
#     8   8   8   4   8
#     4  11  28  53  89 131 186 238 306 386 473 557
#     4  11  28  49  86 135 174 244 302 379 468 566
#     4  12  28  50  85 130 181 246 310 383 466 556
#     4  12  28  54  84 134 182 252 316 388 464 550
#     4  12  28  52  87 125 185 235 314 378 465 552
#
# _framework density 30.584667
#
# number of rings (size 3 to 8) (size 9 to 14) (size 15 to 20)
#    0.000    0.444    0.000    5.333    9.333    8.000 
#    0.000    0.000    0.000    0.000    0.000    0.000 
#    0.000    0.000    0.000    0.000    0.000    0.000 
#
# Total GULP energy -100277.942318 kJ/mol
# GULP energy per Si atom -5570.996795 kJ/mol
# Density = 3.051506 g / cm^3
# Si number density = 30.584667 Si / 1000 Ang^3
#
#
#
# Elastic Constant Matrix: (Units=GPa)
#
#
# Indices 1 2 3 4 5 6 
#
# 1 186.6698 112.4727 99.2988 -0.0003 32.2751 -0.0065
# 2 112.4727 241.6211 93.6889 -0.0206 -7.4422 0.0178
# 3 99.2988 93.6889 301.0850 -0.0068 -4.5616 -0.0093
# 4 -0.0003 -0.0206 -0.0068 25.7124 -0.0019 4.5764
# 5 32.2751 -7.4422 -4.5616 -0.0019 80.1056 -0.0086
# 6 -0.0065 0.0178 -0.0093 4.5764 -0.0086 67.1486
#
#
#
# Elastic Compliance Matrix: (Units=1/GPa)
#
#
# Indices 1 2 3 4 5 6 
#
# 1 0.009408 -0.003733 -0.002006 -0.000004 -0.004252 0.000001
# 2 -0.003733 0.006198 -0.000667 0.000005 0.002042 -0.000002
# 3 -0.002006 -0.000667 0.004205 0.000001 0.000986 0.000001
# 4 -0.000004 0.000005 0.000001 0.039369 0.000003 -0.002683
# 5 -0.004252 0.002042 0.000986 0.000003 0.014442 0.000001
# 6 0.000001 -0.000002 0.000001 -0.002683 0.000001 0.015075
#
#
# Mechanical properties :
#
#
# Convention : Reuss Voigt Hill
#
# Bulk Modulus (GPa) = 142.83664 148.92184 145.87924
# Shear Modulus (GPa) = 48.15047 62.85433 55.50240
#
# Velocity S-wave (km/s) = 3.97209 4.53823 4.26457
# Velocity P-wave (km/s) = 8.23651 8.73259 8.48817
#
# Compressibility (1/GPa) = 0.00700100
#
# Stress axis : x y z
#
# Youngs Moduli (GPa) = 106.29150 161.35401 237.80283
#
# Poissons Ratio (x) = 0.60227 0.47697
# Poissons Ratio (y) = 0.39675 0.15850
# Poissons Ratio (z) = 0.21319 0.10755
#
# Static dielectric constant tensor:
#      x y z
#    x 2.455720 -0.000010 -0.165350 
#    y -0.000010 1.986950 0.000020 
#    z -0.165350 0.000020 3.037500 
# 
# From -- ./inp_files/320021.got.cif
#   From: 2010.05.17/outbox.cif.g08.bks.cpg/sg15_161_cif.got.tgz:320021.got - 2010.06.03 18:47:42.
