data_PCOD9306676
_publ_section_title
;
Structure prediction by ZEFSAII (Michael W. Deem and Ramdas Pophale) SiO2 
 PCOD9306676
Probable space group: C 2/C
;
_chemical_formula_sum "Si O2"
_cell_formula_units_Z 36
_cell_length_a 26.100671
_cell_length_b 5.022036
_cell_length_c 20.033933
_cell_angle_alpha 90.000000
_cell_angle_beta 148.498961
_cell_angle_gamma 90.000000
_cell_volume 1372.131278
_symmetry_space_group_name_H-M "C 2/C"
_symmetry_group_IT_number 15
_symmetry_cell_setting 'monoclinic'
loop_
_space_group_symop_operation_xyz
x,y,z
-x,y,1/2-z
-x,-y,-z
x,-y,1/2+z
1/2+x,1/2+y,z
1/2-x,1/2+y,1/2-z
1/2-x,1/2-y,-z
1/2+x,1/2-y,1/2+z
loop_
_atom_site_type_symbol
_atom_site_label
_atom_site_fract_x
_atom_site_fract_y
_atom_site_fract_z
Si Si1 0.311711 0.498351 0.089333
Si Si2 0.500000 0.309085 0.750000
Si Si3 0.907218 0.279009 0.868341
Si Si4 0.050707 0.548974 0.945242
Si Si5 0.284691 0.323754 0.705057
O O1 0.407762 0.502164 0.152593
O O2 0.327966 0.550820 0.184597
O O3 0.250000 0.250000 0.000000
O O4 0.250000 0.750000 0.000000
O O5 0.508284 0.140523 0.827201
O O6 0.837476 0.031838 0.811819
O O7 0.988254 0.285824 0.898045
O O8 0.828972 0.525900 0.765163
O O9 0.968954 0.304130 0.005958
O O10 0.168843 0.599120 0.071722
#
# Coordination Sequence:
#
# PCOD9306676 Si02
#       5
#     8   4   8   8   8
#     4  12  27  48  73 112 157 199 252 308 382 460
#     4  12  26  52  78 118 156 208 250 324 384 464
#     4  11  27  49  75 112 149 199 257 319 376 459
#     4  11  26  47  78 109 154 200 257 312 389 450
#     4  12  25  48  79 105 151 198 256 314 382 454
#
# _framework density 26.236557999999999
#
# number of rings (size 3 to 8) (size 9 to 14) (size 15 to 20)
#    0.000    0.444    4.444    2.667    0.000    8.000 
#    0.000    0.000    0.000    0.000    0.000    0.000 
#    0.000    0.000    0.000    0.000    0.000    0.000 
#
# Total GULP energy -100405.913573 kJ/mol
# GULP energy per Si atom -5578.106310 kJ/mol
# Density = 2.617684 g / cm^3
# Si number density = 26.236558 Si / 1000 Ang^3
#
#
#
# Elastic Constant Matrix: (Units=GPa)
#
#
# Indices 1 2 3 4 5 6 
#
# 1 149.5385 16.4959 37.8601 -0.0002 27.0399 0.0000
# 2 16.4959 126.8657 33.7929 0.0006 29.2076 -0.0003
# 3 37.8601 33.7929 117.8170 0.0001 19.5403 -0.0001
# 4 -0.0002 0.0006 0.0001 44.6917 0.0001 8.7835
# 5 27.0399 29.2076 19.5403 0.0001 73.7072 0.0000
# 6 0.0000 -0.0003 -0.0001 8.7835 0.0000 23.0251
#
#
#
# Elastic Compliance Matrix: (Units=1/GPa)
#
#
# Indices 1 2 3 4 5 6 
#
# 1 0.007620 0.000092 -0.002097 0.000000 -0.002276 0.000000
# 2 0.000092 0.009153 -0.002142 0.000000 -0.003093 0.000000
# 3 -0.002097 -0.002142 0.009945 0.000000 -0.001018 0.000000
# 4 0.000000 0.000000 0.000000 0.024189 0.000000 -0.009228
# 5 -0.002276 -0.003093 -0.001018 0.000000 0.015898 0.000000
# 6 0.000000 0.000000 0.000000 -0.009228 0.000000 0.046951
#
#
# Mechanical properties :
#
#
# Convention : Reuss Voigt Hill
#
# Bulk Modulus (GPa) = 54.28104 63.39102 58.83603
# Shear Modulus (GPa) = 39.00429 48.68961 43.84695
#
# Velocity S-wave (km/s) = 3.85988 4.31256 4.09249
# Velocity P-wave (km/s) = 6.37173 7.00081 6.69366
#
# Compressibility (1/GPa) = 0.01842264
#
# Stress axis : x y z
#
# Youngs Moduli (GPa) = 131.23996 109.25397 100.55330
#
# Poissons Ratio (x) = -0.01004 0.21091
# Poissons Ratio (y) = -0.01205 0.21537
# Poissons Ratio (z) = 0.27527 0.23401
#
# Static dielectric constant tensor:
#      x y z
#    x 2.257190 0.000000 -0.106220 
#    y 0.000000 2.577070 0.000000 
#    z -0.106220 0.000000 2.255960 
# 
# From -- ./inp_files/258494.got.cif
#   From: 2010.05.17/outbox.cif.g08.bks.cpg/sg15_130_cif.got.tgz:258494.got - 2010.06.03 18:47:42.
