data_PCOD9306267
_publ_section_title
;
Structure prediction by ZEFSAII (Michael W. Deem and Ramdas Pophale) SiO2 
 PCOD9306267
Probable space group: C 2/C
;
_chemical_formula_sum "Si O2"
_cell_formula_units_Z 56
_cell_length_a 23.800132
_cell_length_b 11.450527
_cell_length_c 9.463154
_cell_angle_alpha 90.000000
_cell_angle_beta 115.769199
_cell_angle_gamma 90.000000
_cell_volume 2322.468536
_symmetry_space_group_name_H-M "C 2/C"
_symmetry_group_IT_number 15
_symmetry_cell_setting 'monoclinic'
loop_
_space_group_symop_operation_xyz
x,y,z
-x,y,1/2-z
-x,-y,-z
x,-y,1/2+z
1/2+x,1/2+y,z
1/2-x,1/2+y,1/2-z
1/2-x,1/2-y,-z
1/2+x,1/2-y,1/2+z
loop_
_atom_site_type_symbol
_atom_site_label
_atom_site_fract_x
_atom_site_fract_y
_atom_site_fract_z
Si Si1 0.473167 0.370771 0.982545
Si Si2 0.000000 0.712119 0.750000
Si Si3 0.625129 0.114766 0.341603
Si Si4 0.686919 0.359467 0.318031
Si Si5 0.759002 0.725553 0.345907
Si Si6 0.881854 0.411457 0.982356
Si Si7 0.500000 0.783575 0.750000
Si Si8 0.162076 0.057439 0.092875
O O1 0.471676 0.298674 0.836936
O O2 0.404516 0.378554 0.975164
O O3 0.500000 0.500000 0.000000
O O4 0.516242 0.297687 0.136107
O O5 0.945152 0.633782 0.623267
O O6 0.662360 0.234904 0.354582
O O7 0.560356 0.142436 0.349466
O O8 0.652303 0.012809 0.466756
O O9 0.608128 0.059528 0.170826
O O10 0.745770 0.324407 0.282258
O O11 0.649550 0.435563 0.160356
O O12 0.688111 0.439347 0.461015
O O13 0.750000 0.750000 0.500000
O O14 0.831422 0.690937 0.420853
O O15 0.713156 0.624827 0.242097
#
# Coordination Sequence:
#
# PCOD9306267 Si02
#       8
#     8   4   8   8   8   8   4   8
#     4  12  27  43  75 109 154 199 251 307 382 447
#     4  12  26  46  72 110 146 196 254 310 376 460
#     4  11  25  46  72 105 147 189 246 309 372 446
#     4  11  26  47  75 109 154 193 256 310 381 459
#     4  11  26  49  74 108 148 190 252 311 374 458
#     4  11  27  45  73 102 143 192 244 306 373 443
#     4  12  22  46  68 104 146 190 242 308 360 450
#     4  12  26  46  75 109 148 208 247 315 387 452
#
# _framework density 24.112275
#
# number of rings (size 3 to 8) (size 9 to 14) (size 15 to 20)
#    0.000    0.571    2.857    3.857    6.000    8.000 
#    0.000    0.000    0.000    0.000    0.000    0.000 
#    0.000    0.000    0.000    0.000    0.000    0.000 
#
# Total GULP energy -156445.133587 kJ/mol
# GULP energy per Si atom -5587.326200 kJ/mol
# Density = 2.405739 g / cm^3
# Si number density = 24.112275 Si / 1000 Ang^3
#
#
#
# Elastic Constant Matrix: (Units=GPa)
#
#
# Indices 1 2 3 4 5 6 
#
# 1 77.6531 10.5039 34.7006 0.0000 -12.1801 0.0000
# 2 10.5039 92.7152 65.7460 0.0000 -18.6055 0.0000
# 3 34.7006 65.7460 136.5793 0.0000 -27.7180 0.0000
# 4 0.0000 0.0000 0.0000 39.7210 0.0000 -21.5874
# 5 -12.1801 -18.6055 -27.7180 0.0000 51.9882 0.0000
# 6 0.0000 0.0000 0.0000 -21.5874 0.0000 17.4993
#
#
#
# Elastic Compliance Matrix: (Units=1/GPa)
#
#
# Indices 1 2 3 4 5 6 
#
# 1 0.014813 0.001662 -0.004192 0.000000 0.001830 0.000000
# 2 0.001662 0.016724 -0.008050 0.000000 0.002082 0.000000
# 3 -0.004192 -0.008050 0.012871 0.000000 0.002999 0.000000
# 4 0.000000 0.000000 0.000000 0.076391 0.000000 0.094236
# 5 0.001830 0.002082 0.002999 0.000000 0.022008 0.000000
# 6 0.000000 0.000000 0.000000 0.094236 0.000000 0.173396
#
#
# Mechanical properties :
#
#
# Convention : Reuss Voigt Hill
#
# Bulk Modulus (GPa) = 43.01640 58.76095 50.88867
# Shear Modulus (GPa) = 14.48806 34.90819 24.69813
#
# Velocity S-wave (km/s) = 2.45390 3.80904 3.20394
# Velocity P-wave (km/s) = 5.08995 6.61571 5.90234
#
# Compressibility (1/GPa) = 0.02324695
#
# Stress axis : x y z
#
# Youngs Moduli (GPa) = 67.50645 59.79533 77.69691
#
# Poissons Ratio (x) = -0.09936 0.32571
# Poissons Ratio (y) = -0.11218 0.62546
# Poissons Ratio (z) = 0.28299 0.48135
#
# Static dielectric constant tensor:
#      x y z
#    x 1.931330 0.000000 0.065720 
#    y 0.000000 1.982180 0.000000 
#    z 0.065720 0.000000 1.911640 
# 
# From -- ./inp_files/65558.got.cif
#   From: 2010.05.17/outbox.cif.g08.bks.cpg/sg15_33_cif.got.tgz:65558.got - 2010.06.03 18:47:42.
