data_PCOD9306411
_publ_section_title
;
Structure prediction by ZEFSAII (Michael W. Deem and Ramdas Pophale) SiO2 
 PCOD9306411
Probable space group: C 2/C
;
_chemical_formula_sum "Si O2"
_cell_formula_units_Z 40
_cell_length_a 11.929588
_cell_length_b 19.437449
_cell_length_c 7.376109
_cell_angle_alpha 90.000000
_cell_angle_beta 87.512243
_cell_angle_gamma 90.000000
_cell_volume 1708.765751
_symmetry_space_group_name_H-M "C 2/C"
_symmetry_group_IT_number 15
_symmetry_cell_setting 'monoclinic'
loop_
_space_group_symop_operation_xyz
x,y,z
-x,y,1/2-z
-x,-y,-z
x,-y,1/2+z
1/2+x,1/2+y,z
1/2-x,1/2+y,1/2-z
1/2-x,1/2-y,-z
1/2+x,1/2-y,1/2+z
loop_
_atom_site_type_symbol
_atom_site_label
_atom_site_fract_x
_atom_site_fract_y
_atom_site_fract_z
Si Si1 0.295499 0.415252 0.301598
Si Si2 0.883426 0.946971 0.664854
Si Si3 0.455750 0.076595 0.553767
Si Si4 0.182208 0.827794 0.560856
Si Si5 0.932073 0.284708 0.588624
O O1 0.385726 0.418476 0.459470
O O2 0.306254 0.485644 0.185998
O O3 0.178081 0.416144 0.419831
O O4 0.303046 0.356684 0.147040
O O5 0.000000 0.967397 0.750000
O O6 0.840627 0.889331 0.802904
O O7 0.500000 0.087425 0.750000
O O8 0.509793 0.141519 0.447553
O O9 0.500000 0.000000 0.500000
O O10 0.081099 0.772660 0.566363
O O11 0.299804 0.797840 0.624620
O O12 0.000000 0.253268 0.750000
#
# Coordination Sequence:
#
# PCOD9306411 Si02
#       5
#     8   8   8   8   8
#     4  12  24  45  73 107 147 190 244 309 362 440
#     4  12  26  43  73 106 148 193 248 300 374 432
#     4  12  23  43  74 105 140 187 240 303 371 429
#     4  11  26  48  70 110 147 197 248 302 363 454
#     4  11  25  48  72 101 153 190 242 308 368 432
#
# _framework density 23.408709000000002
#
# number of rings (size 3 to 8) (size 9 to 14) (size 15 to 20)
#    0.000    0.400    4.000    4.800    2.800    0.800 
#    0.000    3.000    0.000    0.000    0.000    0.000 
#    0.000    0.000    0.000    0.000    0.000    0.000 
#
# Total GULP energy -111707.086259 kJ/mol
# GULP energy per Si atom -5585.354313 kJ/mol
# Density = 2.335543 g / cm^3
# Si number density = 23.408709 Si / 1000 Ang^3
#
#
#
# Elastic Constant Matrix: (Units=GPa)
#
#
# Indices 1 2 3 4 5 6 
#
# 1 71.3926 24.2613 35.9891 0.0000 21.8868 0.0000
# 2 24.2613 119.0192 30.2484 0.0000 -0.3456 0.0000
# 3 35.9891 30.2484 129.5108 0.0000 17.5700 0.0000
# 4 0.0000 0.0000 0.0000 34.2336 0.0000 22.0915
# 5 21.8868 -0.3456 17.5700 0.0000 32.1083 0.0000
# 6 0.0000 0.0000 0.0000 22.0915 0.0000 -0.6613
#
#
#
# Elastic Compliance Matrix: (Units=1/GPa)
#
#
# Indices 1 2 3 4 5 6 
#
# 1 0.020567 -0.003401 -0.003256 0.000000 -0.012275 0.000000
# 2 -0.003401 0.009548 -0.001743 0.000000 0.003375 0.000000
# 3 -0.003256 -0.001743 0.009435 0.000000 -0.002962 0.000000
# 4 0.000000 0.000000 0.000000 0.001295 0.000000 0.043260
# 5 -0.012275 0.003375 -0.002962 0.000000 0.041169 0.000000
# 6 0.000000 0.000000 0.000000 0.043260 0.000000 -0.067036
#
#
# Mechanical properties :
#
#
# Convention : Reuss Voigt Hill
#
# Bulk Modulus (GPa) = 43.95328 55.65781 49.80555
# Shear Modulus (GPa) = 127.03279 28.43102 77.73191
#
# Velocity S-wave (km/s) = 7.37463 3.48882 5.76875
# Velocity P-wave (km/s) = 9.55671 6.32908 8.10518
#
# Compressibility (1/GPa) = 0.02275143
#
# Stress axis : x y z
#
# Youngs Moduli (GPa) = 48.62175 104.73462 105.98791
#
# Poissons Ratio (x) = 0.35616 0.34507
# Poissons Ratio (y) = 0.16535 0.18472
# Poissons Ratio (z) = 0.15830 0.18253
#
# Static dielectric constant tensor:
#      x y z
#    x 1.861910 0.000000 0.048510 
#    y 0.000000 2.300410 0.000000 
#    z 0.048510 0.000000 1.856820 
# 
# From -- ./inp_files/29311.got.cif
#   From: 2010.05.17/outbox.cif.g08.bks.cpg/sg15_15_cif.got.tgz:29311.got - 2010.06.03 18:47:42.
