data_PCOD9306629
_publ_section_title
;
Structure prediction by ZEFSAII (Michael W. Deem and Ramdas Pophale) SiO2 
 PCOD9306629
Probable space group: C 2/C
;
_chemical_formula_sum "Si O2"
_cell_formula_units_Z 36
_cell_length_a 5.288491
_cell_length_b 21.023043
_cell_length_c 13.399264
_cell_angle_alpha 90.000000
_cell_angle_beta 114.215765
_cell_angle_gamma 90.000000
_cell_volume 1358.646900
_symmetry_space_group_name_H-M "C 2/C"
_symmetry_group_IT_number 15
_symmetry_cell_setting 'monoclinic'
loop_
_space_group_symop_operation_xyz
x,y,z
-x,y,1/2-z
-x,-y,-z
x,-y,1/2+z
1/2+x,1/2+y,z
1/2-x,1/2+y,1/2-z
1/2-x,1/2-y,-z
1/2+x,1/2-y,1/2+z
loop_
_atom_site_type_symbol
_atom_site_label
_atom_site_fract_x
_atom_site_fract_y
_atom_site_fract_z
Si Si1 0.500000 0.726457 0.750000
Si Si2 0.267735 0.912481 0.128462
Si Si3 0.500000 0.506713 0.750000
Si Si4 0.179613 0.177675 0.963984
Si Si5 0.331668 0.911160 0.915816
Si Si6 0.500000 0.688213 0.250000
O O1 0.694140 0.680436 0.846704
O O2 0.727431 0.771242 0.733350
O O3 0.500000 0.906633 0.250000
O O4 0.135849 0.844472 0.077609
O O5 0.325835 0.938882 0.027185
O O6 0.049690 0.954097 0.156918
O O7 0.763219 0.462406 0.819643
O O8 0.250000 0.250000 0.000000
O O9 0.381993 0.127281 0.046170
O O10 0.093441 0.857831 0.855600
#
# Coordination Sequence:
#
# PCOD9306629 Si02
#       6
#     4   8   4   8   8   4
#     4  12  25  44  73 112 167 211 268 318 410 484
#     4  12  27  48  76 111 152 209 264 335 402 481
#     4  11  27  52  76 114 152 205 277 332 398 487
#     4  12  26  45  75 111 156 205 262 326 402 490
#     4  11  26  48  77 113 153 207 265 333 404 471
#     4  11  26  46  75 118 161 214 261 336 394 493
#
# _framework density 26.496952
#
# number of rings (size 3 to 8) (size 9 to 14) (size 15 to 20)
#    0.000    0.444    2.222    5.333    4.667    7.111 
#    4.000    0.000    0.000    0.000    0.000    0.000 
#    0.000    0.000    0.000    0.000    0.000    0.000 
#
# Total GULP energy -100615.109329 kJ/mol
# GULP energy per Si atom -5589.728296 kJ/mol
# Density = 2.643664 g / cm^3
# Si number density = 26.496952 Si / 1000 Ang^3
#
#
#
# Elastic Constant Matrix: (Units=GPa)
#
#
# Indices 1 2 3 4 5 6 
#
# 1 93.9042 30.2892 36.7185 0.0000 12.0471 0.0000
# 2 30.2892 92.6786 47.2949 0.0000 17.2175 0.0000
# 3 36.7185 47.2949 179.2794 0.0000 17.7663 0.0000
# 4 0.0000 0.0000 0.0000 19.2865 0.0000 17.3393
# 5 12.0471 17.2175 17.7663 0.0000 55.6302 0.0000
# 6 0.0000 0.0000 0.0000 17.3393 0.0000 39.6330
#
#
#
# Elastic Compliance Matrix: (Units=1/GPa)
#
#
# Indices 1 2 3 4 5 6 
#
# 1 0.012411 -0.002994 -0.001629 0.000000 -0.001241 0.000000
# 2 -0.002994 0.013661 -0.002722 0.000000 -0.002710 0.000000
# 3 -0.001629 -0.002722 0.006724 0.000000 -0.000952 0.000000
# 4 0.000000 0.000000 0.000000 0.085465 0.000000 -0.037391
# 5 -0.001241 -0.002710 -0.000952 0.000000 0.019387 0.000000
# 6 0.000000 0.000000 0.000000 -0.037391 0.000000 0.041590
#
#
# Mechanical properties :
#
#
# Convention : Reuss Voigt Hill
#
# Bulk Modulus (GPa) = 55.23215 66.05192 60.64204
# Shear Modulus (GPa) = 25.00435 39.68059 32.34247
#
# Velocity S-wave (km/s) = 3.07525 3.87402 3.49751
# Velocity P-wave (km/s) = 5.78788 6.70768 6.26468
#
# Compressibility (1/GPa) = 0.01810540
#
# Stress axis : x y z
#
# Youngs Moduli (GPa) = 80.57255 73.19996 148.72144
#
# Poissons Ratio (x) = 0.21919 0.24228
# Poissons Ratio (y) = 0.24127 0.40482
# Poissons Ratio (z) = 0.13126 0.19925
#
# Static dielectric constant tensor:
#      x y z
#    x 1.839400 0.000000 -0.122460 
#    y 0.000000 2.133390 0.000000 
#    z -0.122460 0.000000 2.121700 
# 
# From -- ./inp_files/129248.got.cif
#   From: 2010.05.17/outbox.cif.g08.bks.cpg/sg15_65_cif.got.tgz:129248.got - 2010.06.03 18:47:42.
