data_PCOD9306118
_publ_section_title
;
Structure prediction by ZEFSAII (Michael W. Deem and Ramdas Pophale) SiO2 
 PCOD9306118
Probable space group: C 2/C
;
_chemical_formula_sum "Si O2"
_cell_formula_units_Z 44
_cell_length_a 13.592461
_cell_length_b 21.541983
_cell_length_c 13.525284
_cell_angle_alpha 90.000000
_cell_angle_beta 148.803019
_cell_angle_gamma 90.000000
_cell_volume 2051.373703
_symmetry_space_group_name_H-M "C 2/C"
_symmetry_group_IT_number 15
_symmetry_cell_setting 'monoclinic'
loop_
_space_group_symop_operation_xyz
x,y,z
-x,y,1/2-z
-x,-y,-z
x,-y,1/2+z
1/2+x,1/2+y,z
1/2-x,1/2+y,1/2-z
1/2-x,1/2-y,-z
1/2+x,1/2-y,1/2+z
loop_
_atom_site_type_symbol
_atom_site_label
_atom_site_fract_x
_atom_site_fract_y
_atom_site_fract_z
Si Si1 0.778378 0.323830 0.543304
Si Si2 0.322578 0.939905 0.895964
Si Si3 0.500000 0.895877 0.250000
Si Si4 0.040486 0.853652 0.534468
Si Si5 0.774048 0.419734 0.358604
Si Si6 0.351357 0.691610 0.039720
O O1 0.750000 0.250000 0.500000
O O2 0.661378 0.337810 0.541967
O O3 0.735617 0.373669 0.418756
O O4 0.000000 0.332675 0.750000
O O5 0.165120 0.893399 0.718367
O O6 0.225248 0.007354 0.821043
O O7 0.418265 0.931173 0.085307
O O8 0.502107 0.926780 0.976690
O O9 0.679178 0.854760 0.371908
O O10 0.858109 0.891096 0.339603
O O11 0.962795 0.796472 0.533482
O O12 0.500000 0.668607 0.250000
O O13 0.250000 0.750000 0.000000
#
# Coordination Sequence:
#
# PCOD9306118 Si02
#       6
#     8   8   4   8   8   8
#     4  12  27  49  75 109 151 198 261 318 375 451
#     4  11  25  44  78 108 151 193 246 308 370 455
#     4  12  24  46  68 106 146 186 248 306 370 438
#     4  12  25  48  74 108 151 198 247 304 384 449
#     4  11  25  47  73 112 146 196 248 306 372 445
#     4  12  26  44  71 105 143 194 244 306 372 443
#
# _framework density 21.449041999999999
#
# number of rings (size 3 to 8) (size 9 to 14) (size 15 to 20)
#    0.000    0.364    6.364    2.182    1.273    4.364 
#    6.545    0.000    0.000    0.000    0.000    0.000 
#    0.000    0.000    0.000    0.000    0.000    0.000 
#
# Total GULP energy -122700.214833 kJ/mol
# GULP energy per Si atom -5577.282492 kJ/mol
# Density = 2.140022 g / cm^3
# Si number density = 21.449042 Si / 1000 Ang^3
#
#
#
# Elastic Constant Matrix: (Units=GPa)
#
#
# Indices 1 2 3 4 5 6 
#
# 1 176.4330 76.7304 41.5131 0.0000 -19.3262 0.0000
# 2 76.7304 112.8579 31.4527 0.0000 -17.3843 0.0000
# 3 41.5131 31.4527 120.0572 0.0000 -6.0088 0.0000
# 4 0.0000 0.0000 0.0000 25.4356 0.0000 9.1224
# 5 -19.3262 -17.3843 -6.0088 0.0000 34.4377 0.0000
# 6 0.0000 0.0000 0.0000 9.1224 0.0000 -7.2319
#
#
#
# Elastic Compliance Matrix: (Units=1/GPa)
#
#
# Indices 1 2 3 4 5 6 
#
# 1 0.008407 -0.005000 -0.001500 0.000000 0.001932 0.000000
# 2 -0.005000 0.013252 -0.001562 0.000000 0.003611 0.000000
# 3 -0.001500 -0.001562 0.009257 0.000000 -0.000015 0.000000
# 4 0.000000 0.000000 0.000000 0.027069 0.000000 0.034145
# 5 0.001932 0.003611 -0.000015 0.000000 0.031942 0.000000
# 6 0.000000 0.000000 0.000000 0.034145 0.000000 -0.095205
#
#
# Mechanical properties :
#
#
# Convention : Reuss Voigt Hill
#
# Bulk Modulus (GPa) = 67.61122 78.74893 73.18007
# Shear Modulus (GPa) = 316.92048 27.83840 172.37944
#
# Velocity S-wave (km/s) = 12.16864 3.60653 8.97449
# Velocity P-wave (km/s) = 15.13356 7.35777 11.89877
#
# Compressibility (1/GPa) = 0.01479044
#
# Stress axis : x y z
#
# Youngs Moduli (GPa) = 118.94772 75.46178 108.03094
#
# Poissons Ratio (x) = 0.37731 0.16208
# Poissons Ratio (y) = 0.59475 0.16875
# Poissons Ratio (z) = 0.17846 0.11788
#
# Static dielectric constant tensor:
#      x y z
#    x 1.814420 0.000000 0.038530 
#    y 0.000000 1.733790 0.000000 
#    z 0.038530 0.000000 1.671020 
# 
# From -- ./inp_files/91369.got.cif
#   From: 2010.05.17/outbox.cif.g08.bks.cpg/sg15_46_cif.got.tgz:91369.got - 2010.06.03 18:47:42.
