data_PCOD9306297
_publ_section_title
;
Structure prediction by ZEFSAII (Michael W. Deem and Ramdas Pophale) SiO2 
 PCOD9306297
Probable space group: C 2/C
;
_chemical_formula_sum "Si O2"
_cell_formula_units_Z 48
_cell_length_a 8.349632
_cell_length_b 25.386586
_cell_length_c 12.788695
_cell_angle_alpha 90.000000
_cell_angle_beta 46.540040
_cell_angle_gamma 90.000000
_cell_volume 1967.650136
_symmetry_space_group_name_H-M "C 2/C"
_symmetry_group_IT_number 15
_symmetry_cell_setting 'monoclinic'
loop_
_space_group_symop_operation_xyz
x,y,z
-x,y,1/2-z
-x,-y,-z
x,-y,1/2+z
1/2+x,1/2+y,z
1/2-x,1/2+y,1/2-z
1/2-x,1/2-y,-z
1/2+x,1/2-y,1/2+z
loop_
_atom_site_type_symbol
_atom_site_label
_atom_site_fract_x
_atom_site_fract_y
_atom_site_fract_z
Si Si1 0.284681 0.967524 0.786622
Si Si2 0.764263 0.609196 0.122078
Si Si3 0.749241 0.731450 0.164753
Si Si4 0.676297 0.715691 0.433330
Si Si5 0.916667 0.100756 0.955359
Si Si6 0.689034 0.926648 0.337585
O O1 0.500000 0.986821 0.750000
O O2 0.348775 0.916384 0.691176
O O3 0.240482 0.014083 0.725035
O O4 0.109496 0.945798 0.948441
O O5 0.500000 0.598068 0.250000
O O6 0.790243 0.671704 0.107943
O O7 0.926307 0.583544 0.962721
O O8 0.500000 0.745403 0.250000
O O9 0.784424 0.730238 0.274537
O O10 0.919200 0.770328 0.035493
O O11 0.750000 0.750000 0.500000
O O12 0.686227 0.654199 0.454005
O O13 0.789649 0.086215 0.905915
O O14 0.172283 0.107994 0.807370
#
# Coordination Sequence:
#
# PCOD9306297 Si02
#       6
#     8   8   8   8   8   8
#     4  12  25  47  73 104 146 199 249 304 376 437
#     4  11  25  46  75 103 152 195 240 304 379 444
#     4  11  26  48  73 110 155 194 242 310 383 446
#     4  12  26  45  79 113 145 201 250 311 374 452
#     4  11  26  47  74 111 151 188 255 313 365 446
#     4  11  26  44  72 108 146 194 248 314 363 441
#
# _framework density 24.394582
#
# number of rings (size 3 to 8) (size 9 to 14) (size 15 to 20)
#    0.000    0.667    3.333    3.000    9.333    1.333 
#    0.000    0.000    0.000    0.000    0.000    0.000 
#    0.000    0.000    0.000    0.000    0.000    0.000 
#
# Total GULP energy -134278.801665 kJ/mol
# GULP energy per Si atom -5594.950069 kJ/mol
# Density = 2.433906 g / cm^3
# Si number density = 24.394582 Si / 1000 Ang^3
#
#
#
# Elastic Constant Matrix: (Units=GPa)
#
#
# Indices 1 2 3 4 5 6 
#
# 1 48.9487 13.2542 22.4795 0.0000 -0.0543 0.0000
# 2 13.2542 68.9429 19.6381 0.0000 -3.4288 0.0000
# 3 22.4795 19.6381 172.3696 0.0000 0.7132 0.0000
# 4 0.0000 0.0000 0.0000 27.6083 0.0000 -1.8319
# 5 -0.0543 -3.4288 0.7132 0.0000 30.8856 0.0000
# 6 0.0000 0.0000 0.0000 -1.8319 0.0000 27.3404
#
#
#
# Elastic Compliance Matrix: (Units=1/GPa)
#
#
# Indices 1 2 3 4 5 6 
#
# 1 0.022575 -0.003635 -0.002529 0.000000 -0.000305 0.000000
# 2 -0.003635 0.015667 -0.001318 0.000000 0.001763 0.000000
# 3 -0.002529 -0.001318 0.006283 0.000000 -0.000296 0.000000
# 4 0.000000 0.000000 0.000000 0.036383 0.000000 0.002438
# 5 -0.000305 0.001763 -0.000296 0.000000 0.032580 0.000000
# 6 0.000000 0.000000 0.000000 0.002438 0.000000 0.036739
#
#
# Mechanical properties :
#
#
# Convention : Reuss Voigt Hill
#
# Bulk Modulus (GPa) = 33.82875 44.55611 39.19243
# Shear Modulus (GPa) = 28.56445 32.82616 30.69531
#
# Velocity S-wave (km/s) = 3.42560 3.67227 3.55108
# Velocity P-wave (km/s) = 5.43542 6.02371 5.73711
#
# Compressibility (1/GPa) = 0.02956065
#
# Stress axis : x y z
#
# Youngs Moduli (GPa) = 44.29731 63.82955 159.16804
#
# Poissons Ratio (x) = 0.23201 0.40249
# Poissons Ratio (y) = 0.16102 0.20981
# Poissons Ratio (z) = 0.11201 0.08414
#
# Static dielectric constant tensor:
#      x y z
#    x 1.984560 0.000000 -0.071650 
#    y 0.000000 1.891840 0.000000 
#    z -0.071650 0.000000 1.986910 
# 
# From -- ./inp_files/138902.got.cif
#   From: 2010.05.17/outbox.cif.g08.bks.cpg/sg15_70_cif.got.tgz:138902.got - 2010.06.03 18:47:42.
