data_PCOD9306474
_publ_section_title
;
Structure prediction by ZEFSAII (Michael W. Deem and Ramdas Pophale) SiO2 
 PCOD9306474
Probable space group: C 2/C
;
_chemical_formula_sum "Si O2"
_cell_formula_units_Z 40
_cell_length_a 7.537230
_cell_length_b 11.922279
_cell_length_c 18.260410
_cell_angle_alpha 90.000000
_cell_angle_beta 79.219416
_cell_angle_gamma 90.000000
_cell_volume 1611.937241
_symmetry_space_group_name_H-M "C 2/C"
_symmetry_group_IT_number 15
_symmetry_cell_setting 'monoclinic'
loop_
_space_group_symop_operation_xyz
x,y,z
-x,y,1/2-z
-x,-y,-z
x,-y,1/2+z
1/2+x,1/2+y,z
1/2-x,1/2+y,1/2-z
1/2-x,1/2-y,-z
1/2+x,1/2-y,1/2+z
loop_
_atom_site_type_symbol
_atom_site_label
_atom_site_fract_x
_atom_site_fract_y
_atom_site_fract_z
Si Si1 0.285391 0.443627 0.777562
Si Si2 0.213007 0.086778 0.950388
Si Si3 0.276679 0.372488 0.617871
Si Si4 0.949381 0.343192 0.171271
Si Si5 0.601088 0.168722 0.423959
O O1 0.500000 0.450998 0.750000
O O2 0.212035 0.409300 0.703711
O O3 0.204926 0.562765 0.808568
O O4 0.219943 0.353580 0.842282
O O5 0.379214 0.101877 0.880601
O O6 0.107179 0.202938 0.949921
O O7 0.116183 0.974492 0.928781
O O8 0.308978 0.089998 0.021652
O O9 0.385835 0.259791 0.625844
O O10 0.104538 0.355847 0.579853
O O11 0.000000 0.307454 0.250000
#
# Coordination Sequence:
#
# PCOD9306474 Si02
#       5
#     8   8   8   8   8
#     4  12  26  45  73 103 140 190 236 291 349 418
#     4  11  25  49  72 106 145 182 234 291 350 417
#     4  12  25  44  76 102 140 186 234 284 357 412
#     4  12  25  47  71 103 145 182 237 295 347 416
#     4  11  25  49  74 103 147 183 231 293 351 418
#
# _framework density 24.814861000000001
#
# number of rings (size 3 to 8) (size 9 to 14) (size 15 to 20)
#    0.000    0.400    4.000    4.200    2.800    0.800 
#    0.000    3.000    0.000    0.000    0.000    0.000 
#    0.000    0.000    0.000    0.000    0.000    0.000 
#
# Total GULP energy -112186.898865 kJ/mol
# GULP energy per Si atom -5609.344943 kJ/mol
# Density = 2.475838 g / cm^3
# Si number density = 24.814861 Si / 1000 Ang^3
#
#
#
# Elastic Constant Matrix: (Units=GPa)
#
#
# Indices 1 2 3 4 5 6 
#
# 1 62.4869 23.2076 5.7821 0.0000 18.1181 0.0000
# 2 23.2076 125.1704 7.6106 0.0000 22.2154 0.0000
# 3 5.7821 7.6106 114.7999 0.0000 24.4149 0.0000
# 4 0.0000 0.0000 0.0000 43.6723 0.0000 5.5821
# 5 18.1181 22.2154 24.4149 0.0000 46.0931 0.0000
# 6 0.0000 0.0000 0.0000 5.5821 0.0000 35.9963
#
#
#
# Elastic Compliance Matrix: (Units=1/GPa)
#
#
# Indices 1 2 3 4 5 6 
#
# 1 0.018717 -0.002345 0.000605 0.000000 -0.006547 0.000000
# 2 -0.002345 0.009043 0.000281 0.000000 -0.003586 0.000000
# 3 0.000605 0.000281 0.009851 0.000000 -0.005591 0.000000
# 4 0.000000 0.000000 0.000000 0.023361 0.000000 -0.003623
# 5 -0.006547 -0.003586 -0.005591 0.000000 0.028959 0.000000
# 6 0.000000 0.000000 0.000000 -0.003623 0.000000 0.028342
#
#
# Mechanical properties :
#
#
# Convention : Reuss Voigt Hill
#
# Bulk Modulus (GPa) = 28.82377 41.73976 35.28176
# Shear Modulus (GPa) = 37.66356 42.87614 40.26985
#
# Velocity S-wave (km/s) = 3.90010 4.16124 4.03278
# Velocity P-wave (km/s) = 5.64994 6.32020 5.99444
#
# Compressibility (1/GPa) = 0.03469358
#
# Stress axis : x y z
#
# Youngs Moduli (GPa) = 53.42818 110.58048 101.51467
#
# Poissons Ratio (x) = 0.25931 -0.06144
# Poissons Ratio (y) = 0.12529 -0.02854
# Poissons Ratio (z) = -0.03234 -0.03109
#
# Static dielectric constant tensor:
#      x y z
#    x 1.969160 0.000000 -0.001410 
#    y 0.000000 2.007690 0.000000 
#    z -0.001410 0.000000 1.917390 
# 
# From -- ./inp_files/187794.got.cif
#   From: 2010.05.17/outbox.cif.g08.bks.cpg/sg15_94_cif.got.tgz:187794.got - 2010.06.03 18:47:42.
