data_PCOD9306445
_publ_section_title
;
Structure prediction by ZEFSAII (Michael W. Deem and Ramdas Pophale) SiO2 
 PCOD9306445
Probable space group: C 2/C
;
_chemical_formula_sum "Si O2"
_cell_formula_units_Z 40
_cell_length_a 10.339160
_cell_length_b 9.709440
_cell_length_c 17.116468
_cell_angle_alpha 90.000000
_cell_angle_beta 89.264628
_cell_angle_gamma 90.000000
_cell_volume 1718.137116
_symmetry_space_group_name_H-M "C 2/C"
_symmetry_group_IT_number 15
_symmetry_cell_setting 'monoclinic'
loop_
_space_group_symop_operation_xyz
x,y,z
-x,y,1/2-z
-x,-y,-z
x,-y,1/2+z
1/2+x,1/2+y,z
1/2-x,1/2+y,1/2-z
1/2-x,1/2-y,-z
1/2+x,1/2-y,1/2+z
loop_
_atom_site_type_symbol
_atom_site_label
_atom_site_fract_x
_atom_site_fract_y
_atom_site_fract_z
Si Si1 0.874979 0.955034 0.301452
Si Si2 0.734850 0.609489 0.546246
Si Si3 0.846405 0.310999 0.703595
Si Si4 0.261197 0.860448 0.432194
Si Si5 0.979080 0.574065 0.660911
O O1 0.767150 0.073839 0.285553
O O2 0.000000 0.994989 0.250000
O O3 0.881704 0.936656 0.395007
O O4 0.845838 0.797995 0.273859
O O5 0.750000 0.750000 0.500000
O O6 0.734645 0.500778 0.476377
O O7 0.855094 0.606129 0.607439
O O8 0.826872 0.202824 0.634060
O O9 0.964726 0.409326 0.675438
O O10 0.250000 0.750000 0.500000
O O11 0.399237 0.878660 0.389635
O O12 0.000000 0.629711 0.750000
#
# Coordination Sequence:
#
# PCOD9306445 Si02
#       5
#     8   8   8   8   8
#     4  11  26  46  72 105 146 193 249 297 372 450
#     4  11  27  47  74 113 149 192 253 316 376 441
#     4  11  26  47  72 109 145 198 249 307 370 454
#     4  12  24  48  73 106 149 191 248 306 379 442
#     4  11  25  48  77 101 148 204 244 302 383 452
#
# _framework density 23.281027999999999
#
# number of rings (size 3 to 8) (size 9 to 14) (size 15 to 20)
#    0.000    0.800    4.000    3.600    8.400    4.000 
#    0.000    2.000    0.000    0.000    0.000    0.000 
#    0.000    0.000    0.000    0.000    0.000    0.000 
#
# Total GULP energy -111509.086647 kJ/mol
# GULP energy per Si atom -5575.454332 kJ/mol
# Density = 2.322804 g / cm^3
# Si number density = 23.281028 Si / 1000 Ang^3
#
#
#
# Elastic Constant Matrix: (Units=GPa)
#
#
# Indices 1 2 3 4 5 6 
#
# 1 53.5968 24.7112 42.6032 0.0000 -17.5606 0.0000
# 2 24.7112 160.5866 47.9293 0.0000 -2.1243 0.0000
# 3 42.6032 47.9293 145.8953 0.0000 -26.0500 0.0000
# 4 0.0000 0.0000 0.0000 91.1650 0.0000 -7.9994
# 5 -17.5606 -2.1243 -26.0500 0.0000 50.1343 0.0000
# 6 0.0000 0.0000 0.0000 -7.9994 0.0000 39.2695
#
#
#
# Elastic Compliance Matrix: (Units=1/GPa)
#
#
# Indices 1 2 3 4 5 6 
#
# 1 0.026346 -0.002219 -0.005879 0.000000 0.006080 0.000000
# 2 -0.002219 0.007135 -0.001963 0.000000 -0.001495 0.000000
# 3 -0.005879 -0.001963 0.009737 0.000000 0.002917 0.000000
# 4 0.000000 0.000000 0.000000 0.011169 0.000000 0.002275
# 5 0.006080 -0.001495 0.002917 0.000000 0.023528 0.000000
# 6 0.000000 0.000000 0.000000 0.002275 0.000000 0.025928
#
#
# Mechanical properties :
#
#
# Convention : Reuss Voigt Hill
#
# Bulk Modulus (GPa) = 43.29804 65.61845 54.45824
# Shear Modulus (GPa) = 37.97594 52.43611 45.20602
#
# Velocity S-wave (km/s) = 4.04319 4.75100 4.41131
# Velocity P-wave (km/s) = 6.35884 7.63823 7.02771
#
# Compressibility (1/GPa) = 0.02309573
#
# Stress axis : x y z
#
# Youngs Moduli (GPa) = 37.95666 140.16026 102.70616
#
# Poissons Ratio (x) = 0.31103 0.60379
# Poissons Ratio (y) = 0.08423 0.20159
# Poissons Ratio (z) = 0.22314 0.27510
#
# Static dielectric constant tensor:
#      x y z
#    x 1.940820 0.000000 0.049880 
#    y 0.000000 1.845520 0.000000 
#    z 0.049880 0.000000 2.031490 
# 
# From -- ./inp_files/195089.got.cif
#   From: 2010.05.17/outbox.cif.g08.bks.cpg/sg15_98_cif.got.tgz:195089.got - 2010.06.03 18:47:42.
