data_PCOD9306378
_publ_section_title
;
Structure prediction by ZEFSAII (Michael W. Deem and Ramdas Pophale) SiO2 
 PCOD9306378
Probable space group: C 2/C
;
_chemical_formula_sum "Si O2"
_cell_formula_units_Z 48
_cell_length_a 5.126148
_cell_length_b 21.247169
_cell_length_c 20.255445
_cell_angle_alpha 90.000000
_cell_angle_beta 124.029222
_cell_angle_gamma 90.000000
_cell_volume 1828.347450
_symmetry_space_group_name_H-M "C 2/C"
_symmetry_group_IT_number 15
_symmetry_cell_setting 'monoclinic'
loop_
_space_group_symop_operation_xyz
x,y,z
-x,y,1/2-z
-x,-y,-z
x,-y,1/2+z
1/2+x,1/2+y,z
1/2-x,1/2+y,1/2-z
1/2-x,1/2-y,-z
1/2+x,1/2-y,1/2+z
loop_
_atom_site_type_symbol
_atom_site_label
_atom_site_fract_x
_atom_site_fract_y
_atom_site_fract_z
Si Si1 0.262101 0.258137 0.915382
Si Si2 0.000000 0.717720 0.250000
Si Si3 0.280592 0.975244 0.156215
Si Si4 0.500000 0.633068 0.250000
Si Si5 0.693718 0.849264 0.496743
Si Si6 0.683768 0.168795 0.843287
Si Si7 0.165733 0.545474 0.096876
O O1 0.238667 0.246921 0.832138
O O2 0.492837 0.211923 0.987716
O O3 0.928251 0.226212 0.885438
O O4 0.436580 0.326839 0.944538
O O5 0.786800 0.674466 0.265207
O O6 0.500000 0.997004 0.250000
O O7 0.211348 0.902052 0.162710
O O8 0.443456 0.002738 0.112227
O O9 0.935311 0.003245 0.104300
O O10 0.354068 0.591177 0.172659
O O11 0.606287 0.853577 0.407561
O O12 0.576393 0.906719 0.524871
O O13 0.500000 0.187326 0.750000
#
# Coordination Sequence:
#
# PCOD9306378 Si02
#       7
#     8   4   8   4   8   8   8
#     4  11  26  47  71 110 155 201 256 316 388 473
#     4  12  26  44  81 110 151 204 256 318 392 470
#     4  11  25  47  77 112 151 205 257 325 389 465
#     4  12  24  44  73 114 145 196 252 324 392 454
#     4  11  27  47  74 112 151 209 252 332 386 465
#     4  11  27  48  77 108 157 206 259 317 398 475
#     4  12  25  47  77 110 153 194 263 326 389 461
#
# _framework density 26.253216999999999
#
# number of rings (size 3 to 8) (size 9 to 14) (size 15 to 20)
#    0.000    0.667    3.333    2.500    8.167    1.333 
#    0.000    0.000    0.000    0.000    0.000    0.000 
#    0.000    0.000    0.000    0.000    0.000    0.000 
#
# Total GULP energy -133797.657771 kJ/mol
# GULP energy per Si atom -5574.902407 kJ/mol
# Density = 2.619346 g / cm^3
# Si number density = 26.253217 Si / 1000 Ang^3
#
#
#
# Elastic Constant Matrix: (Units=GPa)
#
#
# Indices 1 2 3 4 5 6 
#
# 1 124.5190 28.7257 43.4545 0.0000 7.8144 0.0000
# 2 28.7257 77.7005 52.1940 0.0000 1.0363 0.0000
# 3 43.4545 52.1940 151.3920 0.0000 -20.5159 0.0000
# 4 0.0000 0.0000 0.0000 43.9859 0.0000 -16.1726
# 5 7.8144 1.0363 -20.5159 0.0000 35.4585 0.0000
# 6 0.0000 0.0000 0.0000 -16.1726 0.0000 26.6460
#
#
#
# Elastic Compliance Matrix: (Units=1/GPa)
#
#
# Indices 1 2 3 4 5 6 
#
# 1 0.009574 -0.001717 -0.002643 0.000000 -0.003589 0.000000
# 2 -0.001717 0.017641 -0.006085 0.000000 -0.003658 0.000000
# 3 -0.002643 -0.006085 0.010378 0.000000 0.006765 0.000000
# 4 0.000000 0.000000 0.000000 0.029265 0.000000 0.017762
# 5 -0.003589 -0.003658 0.006765 0.000000 0.033014 0.000000
# 6 0.000000 0.000000 0.000000 0.017762 0.000000 0.048310
#
#
# Mechanical properties :
#
#
# Convention : Reuss Voigt Hill
#
# Bulk Modulus (GPa) = 59.86083 66.92888 63.39486
# Shear Modulus (GPa) = 28.63041 36.50057 32.56549
#
# Velocity S-wave (km/s) = 3.30593 3.73275 3.52581
# Velocity P-wave (km/s) = 6.11744 6.64281 6.38553
#
# Compressibility (1/GPa) = 0.01670541
#
# Stress axis : x y z
#
# Youngs Moduli (GPa) = 104.44549 56.68709 96.35311
#
# Poissons Ratio (x) = 0.09731 0.25463
# Poissons Ratio (y) = 0.17929 0.58629
# Poissons Ratio (z) = 0.27602 0.34493
#
# Static dielectric constant tensor:
#      x y z
#    x 2.326730 0.000000 0.048700 
#    y 0.000000 2.121060 0.000000 
#    z 0.048700 0.000000 2.171340 
# 
# From -- ./inp_files/185508.got.cif
#   From: 2010.05.17/outbox.cif.g08.bks.cpg/sg15_93_cif.got.tgz:185508.got - 2010.06.03 18:47:42.
