data_PCOD9306867
_publ_section_title
;
Structure prediction by ZEFSAII (Michael W. Deem and Ramdas Pophale) SiO2 
 PCOD9306867
Probable space group: C 2/C
;
_chemical_formula_sum "Si O2"
_cell_formula_units_Z 32
_cell_length_a 5.034607
_cell_length_b 21.141511
_cell_length_c 11.052319
_cell_angle_alpha 90.000000
_cell_angle_beta 91.810229
_cell_angle_gamma 90.000000
_cell_volume 1175.812886
_symmetry_space_group_name_H-M "C 2/C"
_symmetry_group_IT_number 15
_symmetry_cell_setting 'monoclinic'
loop_
_space_group_symop_operation_xyz
x,y,z
-x,y,1/2-z
-x,-y,-z
x,-y,1/2+z
1/2+x,1/2+y,z
1/2-x,1/2+y,1/2-z
1/2-x,1/2-y,-z
1/2+x,1/2-y,1/2+z
loop_
_atom_site_type_symbol
_atom_site_label
_atom_site_fract_x
_atom_site_fract_y
_atom_site_fract_z
Si Si1 0.755453 0.516063 0.084758
Si Si2 0.000000 0.625828 0.250000
Si Si3 0.915178 0.204128 0.089117
Si Si4 0.299528 0.320150 0.134463
Si Si5 0.000000 0.422373 0.250000
O O1 0.828424 0.581126 0.157136
O O2 0.771312 0.465990 0.194874
O O3 0.500000 0.500000 0.000000
O O4 0.000000 0.500000 0.000000
O O5 0.216286 0.666567 0.174796
O O6 0.147220 0.252645 0.136816
O O7 0.056336 0.163474 0.987910
O O8 0.750000 0.250000 0.000000
O O9 0.500000 0.320929 0.250000
O O10 0.087963 0.374852 0.147764
#
# Coordination Sequence:
#
# PCOD9306867 Si02
#       5
#     8   4   8   8   4
#     4  11  30  60  88 131 174 242 312 377 454 533
#     4  11  30  60  92 130 190 237 310 380 460 557
#     4  11  28  55  82 132 182 235 292 368 458 550
#     4  11  27  52  86 127 179 233 296 363 457 550
#     4  11  28  50  90 122 172 229 302 370 444 541
#
# _framework density 27.215214
#
# number of rings (size 3 to 8) (size 9 to 14) (size 15 to 20)
#    0.000    1.000    0.000    1.500   15.750    3.000 
#   22.500    3.750    0.000    0.000    0.000    0.000 
#    0.000    0.000    0.000    0.000    0.000    0.000 
#
# Total GULP energy -89681.653148 kJ/mol
# GULP energy per Si atom -5605.103322 kJ/mol
# Density = 2.715327 g / cm^3
# Si number density = 27.215214 Si / 1000 Ang^3
#
#
#
# Elastic Constant Matrix: (Units=GPa)
#
#
# Indices 1 2 3 4 5 6 
#
# 1 213.0548 91.8642 106.2319 0.0000 -20.0062 0.0000
# 2 91.8642 157.8278 117.8026 0.0000 -14.3268 0.0000
# 3 106.2319 117.8026 188.8737 0.0000 3.3537 0.0000
# 4 0.0000 0.0000 0.0000 43.9065 0.0000 39.6449
# 5 -20.0062 -14.3268 3.3537 0.0000 94.6175 0.0000
# 6 0.0000 0.0000 0.0000 39.6449 0.0000 -13.7017
#
#
#
# Elastic Compliance Matrix: (Units=1/GPa)
#
#
# Indices 1 2 3 4 5 6 
#
# 1 0.007022 -0.001879 -0.002801 0.000000 0.001300 0.000000
# 2 -0.001879 0.012772 -0.006941 0.000000 0.001783 0.000000
# 3 -0.002801 -0.006941 0.011235 0.000000 -0.002042 0.000000
# 4 0.000000 0.000000 0.000000 0.006305 0.000000 0.018242
# 5 0.001300 0.001783 -0.002042 0.000000 0.011186 0.000000
# 6 0.000000 0.000000 0.000000 0.018242 0.000000 -0.020203
#
#
# Mechanical properties :
#
#
# Convention : Reuss Voigt Hill
#
# Bulk Modulus (GPa) = 128.39775 132.39486 130.39631
# Shear Modulus (GPa) = 92.32613 41.22164 66.77389
#
# Velocity S-wave (km/s) = 5.83079 3.89608 4.95871
# Velocity P-wave (km/s) = 9.62351 8.30616 8.98900
#
# Compressibility (1/GPa) = 0.00778830
#
# Stress axis : x y z
#
# Youngs Moduli (GPa) = 142.40243 78.29476 89.00377
#
# Poissons Ratio (x) = 0.14710 0.24930
# Poissons Ratio (y) = 0.26754 0.61779
# Poissons Ratio (z) = 0.39887 0.54346
#
# Static dielectric constant tensor:
#      x y z
#    x 2.284650 0.000000 0.229140 
#    y 0.000000 2.276940 0.000000 
#    z 0.229140 0.000000 2.114670 
# 
# From -- ./inp_files/72762.got.cif
#   From: 2010.05.17/outbox.cif.g08.bks.cpg/sg15_37_cif.got.tgz:72762.got - 2010.06.03 18:47:42.
