data_PCOD9306254
_publ_section_title
;
Structure prediction by ZEFSAII (Michael W. Deem and Ramdas Pophale) SiO2 
 PCOD9306254
Probable space group: C 2/C
;
_chemical_formula_sum "Si O2"
_cell_formula_units_Z 56
_cell_length_a 18.229941
_cell_length_b 7.703256
_cell_length_c 21.629050
_cell_angle_alpha 90.000000
_cell_angle_beta 51.689015
_cell_angle_gamma 90.000000
_cell_volume 2383.291615
_symmetry_space_group_name_H-M "C 2/C"
_symmetry_group_IT_number 15
_symmetry_cell_setting 'monoclinic'
loop_
_space_group_symop_operation_xyz
x,y,z
-x,y,1/2-z
-x,-y,-z
x,-y,1/2+z
1/2+x,1/2+y,z
1/2-x,1/2+y,1/2-z
1/2-x,1/2-y,-z
1/2+x,1/2-y,1/2+z
loop_
_atom_site_type_symbol
_atom_site_label
_atom_site_fract_x
_atom_site_fract_y
_atom_site_fract_z
Si Si1 0.604498 0.239648 0.708829
Si Si2 0.712150 0.796101 0.952507
Si Si3 0.925461 0.864994 0.067905
Si Si4 0.421314 0.125265 0.473478
Si Si5 0.909293 0.342235 0.834107
Si Si6 0.183586 0.932911 0.775384
Si Si7 0.260819 0.792600 0.146738
O O1 0.500000 0.304742 0.750000
O O2 0.688475 0.337109 0.630768
O O3 0.628960 0.279251 0.767663
O O4 0.605924 0.042194 0.681691
O O5 0.660557 0.657536 0.934942
O O6 0.630873 0.939558 0.000978
O O7 0.750000 0.750000 0.000000
O O8 0.888357 0.939081 0.152532
O O9 0.976559 0.680156 0.055127
O O10 0.000000 0.000000 0.000000
O O11 0.420171 0.174898 0.401804
O O12 0.354009 0.220261 0.557929
O O13 0.822092 0.232766 0.857439
O O14 0.000000 0.280047 0.750000
O O15 0.249257 0.035746 0.693921
O O16 0.243176 0.855396 0.799672
#
# Coordination Sequence:
#
# PCOD9306254 Si02
#       7
#     8   8   8   8   8   8   8
#     4  11  26  47  75 108 144 199 253 312 388 458
#     4  12  26  50  78 110 152 200 256 316 384 463
#     4  12  28  47  74 114 155 203 255 314 391 460
#     4  12  26  47  76 113 153 202 254 318 382 466
#     4  11  25  46  71 107 147 195 252 321 383 458
#     4  12  26  46  73 103 151 198 255 322 378 469
#     4  12  25  45  72 106 146 199 256 310 390 445
#
# _framework density 23.496914
#
# number of rings (size 3 to 8) (size 9 to 14) (size 15 to 20)
#    0.000    0.286    4.286    4.286    2.000    2.857 
#    7.714    0.000    0.000    0.000    0.000    0.000 
#    0.000    0.000    0.000    0.000    0.000    0.000 
#
# Total GULP energy -156384.047493 kJ/mol
# GULP energy per Si atom -5585.144553 kJ/mol
# Density = 2.344343 g / cm^3
# Si number density = 23.496914 Si / 1000 Ang^3
#
#
#
# Elastic Constant Matrix: (Units=GPa)
#
#
# Indices 1 2 3 4 5 6 
#
# 1 160.2107 33.3558 54.5768 0.0002 22.0694 0.0007
# 2 33.3558 67.7741 15.2745 0.0002 7.2255 0.0016
# 3 54.5768 15.2745 146.0847 0.0000 10.8175 0.0000
# 4 0.0002 0.0002 0.0000 3.7476 -0.0001 0.1794
# 5 22.0694 7.2255 10.8175 -0.0001 36.4796 0.0001
# 6 0.0007 0.0016 0.0000 0.1794 0.0001 -6.2488
#
#
#
# Elastic Compliance Matrix: (Units=1/GPa)
#
#
# Indices 1 2 3 4 5 6 
#
# 1 0.008234 -0.003106 -0.002483 0.000000 -0.003630 0.000000
# 2 -0.003106 0.016524 -0.000475 -0.000001 -0.001253 0.000004
# 3 -0.002483 -0.000475 0.007877 0.000000 -0.000740 0.000000
# 4 0.000000 -0.000001 0.000000 0.266468 0.000001 0.007650
# 5 -0.003630 -0.001253 -0.000740 0.000001 0.030076 0.000000
# 6 0.000000 0.000004 0.000000 0.007650 0.000000 -0.159811
#
#
# Mechanical properties :
#
#
# Convention : Reuss Voigt Hill
#
# Bulk Modulus (GPa) = 48.75893 64.49818 56.62855
# Shear Modulus (GPa) = 26.54878 24.85318 25.70098
#
# Velocity S-wave (km/s) = 3.36502 3.25579 3.31086
# Velocity P-wave (km/s) = 5.99117 6.45312 6.22643
#
# Compressibility (1/GPa) = 0.02050906
#
# Stress axis : x y z
#
# Youngs Moduli (GPa) = 121.44361 60.51760 126.94720
#
# Poissons Ratio (x) = 0.18797 0.31518
# Poissons Ratio (y) = 0.37721 0.06024
# Poissons Ratio (z) = 0.30151 0.02872
#
# Static dielectric constant tensor:
#      x y z
#    x 1.859160 0.000000 -0.004120 
#    y 0.000000 2.152640 0.000000 
#    z -0.004120 0.000000 1.897380 
# 
# From -- ./inp_files/247349.got.cif
#   From: 2010.05.17/outbox.cif.g08.bks.cpg/sg15_124_cif.got.tgz:247349.got - 2010.06.03 18:47:42.
