data_PCOD9306865
_publ_section_title
;
Structure prediction by ZEFSAII (Michael W. Deem and Ramdas Pophale) SiO2 
 PCOD9306865
Probable space group: C 2/C
;
_chemical_formula_sum "Si O2"
_cell_formula_units_Z 40
_cell_length_a 24.241272
_cell_length_b 7.406104
_cell_length_c 9.983446
_cell_angle_alpha 90.000000
_cell_angle_beta 52.908702
_cell_angle_gamma 90.000000
_cell_volume 1429.723172
_symmetry_space_group_name_H-M "C 2/C"
_symmetry_group_IT_number 15
_symmetry_cell_setting 'monoclinic'
loop_
_space_group_symop_operation_xyz
x,y,z
-x,y,1/2-z
-x,-y,-z
x,-y,1/2+z
1/2+x,1/2+y,z
1/2-x,1/2+y,1/2-z
1/2-x,1/2-y,-z
1/2+x,1/2-y,1/2+z
loop_
_atom_site_type_symbol
_atom_site_label
_atom_site_fract_x
_atom_site_fract_y
_atom_site_fract_z
Si Si1 0.306122 0.763995 0.032001
Si Si2 0.285447 0.816557 0.583684
Si Si3 0.079680 0.402987 0.119176
Si Si4 0.053859 0.706485 0.933587
Si Si5 0.940576 0.079023 0.720441
O O1 0.430705 0.919548 0.959192
O O2 0.312158 0.978606 0.036670
O O3 0.250000 0.750000 0.000000
O O4 0.371764 0.651564 0.890590
O O5 0.250000 0.750000 0.500000
O O6 0.363146 0.749418 0.506567
O O7 0.228708 0.802143 0.780637
O O8 0.087795 0.416855 0.268968
O O9 0.000000 0.328954 0.250000
O O10 0.077545 0.093184 0.347176
O O11 0.974509 0.765198 0.076987
O O12 0.000000 0.053717 0.750000
#
# Coordination Sequence:
#
# PCOD9306865 Si02
#       5
#     8   8   8   8   8
#     4  12  30  52  87 126 178 234 302 366 451 539
#     4  12  31  54  84 127 178 237 296 372 452 532
#     4  12  28  50  89 128 178 227 303 370 449 534
#     4  11  27  51  89 132 177 233 303 376 455 538
#     4  11  27  53  89 132 181 236 304 372 458 541
#
# _framework density 27.977444999999999
#
# number of rings (size 3 to 8) (size 9 to 14) (size 15 to 20)
#    0.000    0.400    0.000    5.400   16.800    1.600 
#    3.600    1.000    0.000    3.600    0.000    0.000 
#    0.000    0.000    0.000    0.000    0.000    0.000 
#
# Total GULP energy -111649.194141 kJ/mol
# GULP energy per Si atom -5582.459707 kJ/mol
# Density = 2.791377 g / cm^3
# Si number density = 27.977445 Si / 1000 Ang^3
#
#
#
# Elastic Constant Matrix: (Units=GPa)
#
#
# Indices 1 2 3 4 5 6 
#
# 1 156.9145 52.7193 119.9503 0.0000 -16.0742 0.0000
# 2 52.7193 195.5488 120.5552 0.0000 3.2608 0.0000
# 3 119.9503 120.5552 323.1309 0.0000 19.7885 0.0000
# 4 0.0000 0.0000 0.0000 19.7710 0.0000 146.9366
# 5 -16.0742 3.2608 19.7885 0.0000 54.8487 0.0000
# 6 0.0000 0.0000 0.0000 146.9366 0.0000 -788.7757
#
#
#
# Elastic Compliance Matrix: (Units=1/GPa)
#
#
# Indices 1 2 3 4 5 6 
#
# 1 0.009813 -0.000403 -0.003753 0.000000 0.004254 0.000000
# 2 -0.000403 0.006672 -0.002360 0.000000 0.000337 0.000000
# 3 -0.003753 -0.002360 0.005550 0.000000 -0.002962 0.000000
# 4 0.000000 0.000000 0.000000 0.021212 0.000000 0.003951
# 5 0.004254 0.000337 -0.002962 0.000000 0.020527 0.000000
# 6 0.000000 0.000000 0.000000 0.003951 0.000000 -0.000532
#
#
# Mechanical properties :
#
#
# Convention : Reuss Voigt Hill
#
# Bulk Modulus (GPa) = 111.07919 140.22708 125.65313
# Shear Modulus (GPa) = 63.07191 -117.33989 -27.13399
#
# Velocity S-wave (km/s) = 4.75319 -6.48320 -3.11762
# Velocity P-wave (km/s) = 8.36140 2.41087 5.66130
#
# Compressibility (1/GPa) = 0.00900259
#
# Stress axis : x y z
#
# Youngs Moduli (GPa) = 101.90816 149.88240 180.18725
#
# Poissons Ratio (x) = 0.06037 0.67621
# Poissons Ratio (y) = 0.04105 0.42529
# Poissons Ratio (z) = 0.38244 0.35376
#
# Static dielectric constant tensor:
#      x y z
#    x 2.534740 0.000000 0.360060 
#    y 0.000000 2.964560 0.000000 
#    z 0.360060 0.000000 1.526180 
# 
# From -- ./inp_files/176053.got.cif
#   From: 2010.05.17/outbox.cif.g08.bks.cpg/sg15_89_cif.got.tgz:176053.got - 2010.06.03 18:47:42.
