data_PCOD9306713
_publ_section_title
;
Structure prediction by ZEFSAII (Michael W. Deem and Ramdas Pophale) SiO2 
 PCOD9306713
Probable space group: C 2/C
;
_chemical_formula_sum "Si O2"
_cell_formula_units_Z 48
_cell_length_a 8.040893
_cell_length_b 20.102698
_cell_length_c 13.515179
_cell_angle_alpha 90.000000
_cell_angle_beta 123.921605
_cell_angle_gamma 90.000000
_cell_volume 1812.820755
_symmetry_space_group_name_H-M "C 2/C"
_symmetry_group_IT_number 15
_symmetry_cell_setting 'monoclinic'
loop_
_space_group_symop_operation_xyz
x,y,z
-x,y,1/2-z
-x,-y,-z
x,-y,1/2+z
1/2+x,1/2+y,z
1/2-x,1/2+y,1/2-z
1/2-x,1/2-y,-z
1/2+x,1/2-y,1/2+z
loop_
_atom_site_type_symbol
_atom_site_label
_atom_site_fract_x
_atom_site_fract_y
_atom_site_fract_z
Si Si1 0.584443 0.236227 0.668023
Si Si2 0.623738 0.425744 0.498803
Si Si3 0.725635 0.894817 0.280028
Si Si4 0.241174 0.374511 0.759538
Si Si5 0.896015 0.311338 0.525703
Si Si6 0.228094 0.493293 0.612749
O O1 0.500000 0.236987 0.750000
O O2 0.752339 0.178546 0.739826
O O3 0.618592 0.313848 0.660664
O O4 0.485207 0.206494 0.535564
O O5 0.604767 0.597283 0.580911
O O6 0.743799 0.423598 0.641500
O O7 0.750563 0.374405 0.473223
O O8 0.640723 0.492827 0.440953
O O9 0.500000 0.900394 0.250000
O O10 0.755506 0.952071 0.208224
O O11 0.271524 0.421726 0.675126
O O12 0.048416 0.331289 0.662257
O O13 0.750000 0.250000 0.500000
O O14 0.000000 0.500000 0.500000
#
# Coordination Sequence:
#
# PCOD9306713 Si02
#       6
#     8   8   8   8   8   8
#     4  11  26  48  77 120 169 216 275 345 425 496
#     4  12  26  50  83 117 160 225 284 339 427 502
#     4  11  27  52  78 114 166 220 280 350 424 501
#     4  12  28  50  82 123 168 214 286 350 420 509
#     4  12  24  46  84 121 164 220 280 346 416 516
#     4  12  27  49  80 117 168 216 280 345 421 504
#
# _framework density 26.478072000000001
#
# number of rings (size 3 to 8) (size 9 to 14) (size 15 to 20)
#    0.000    0.333    5.000    2.000    2.333    4.000 
#    9.000    0.000    0.000    0.000    0.000    0.000 
#    0.000    0.000    0.000    0.000    0.000    0.000 
#
# Total GULP energy -134150.455454 kJ/mol
# GULP energy per Si atom -5589.602311 kJ/mol
# Density = 2.641781 g / cm^3
# Si number density = 26.478072 Si / 1000 Ang^3
#
#
#
# Elastic Constant Matrix: (Units=GPa)
#
#
# Indices 1 2 3 4 5 6 
#
# 1 64.1727 -2.7463 60.1396 0.0000 14.2449 0.0000
# 2 -2.7463 157.5526 60.7197 0.0000 -9.3140 0.0000
# 3 60.1396 60.7197 211.1392 0.0000 -1.8463 0.0000
# 4 0.0000 0.0000 0.0000 53.1570 0.0000 -9.4545
# 5 14.2449 -9.3140 -1.8463 0.0000 41.3821 0.0000
# 6 0.0000 0.0000 0.0000 -9.4545 0.0000 19.6113
#
#
#
# Elastic Compliance Matrix: (Units=1/GPa)
#
#
# Indices 1 2 3 4 5 6 
#
# 1 0.025188 0.003081 -0.008133 0.000000 -0.008340 0.000000
# 2 0.003081 0.007611 -0.003062 0.000000 0.000516 0.000000
# 3 -0.008133 -0.003062 0.007955 0.000000 0.002465 0.000000
# 4 0.000000 0.000000 0.000000 0.020577 0.000000 0.009920
# 5 -0.008340 0.000516 0.002465 0.000000 0.027262 0.000000
# 6 0.000000 0.000000 0.000000 0.009920 0.000000 0.055773
#
#
# Mechanical properties :
#
#
# Convention : Reuss Voigt Hill
#
# Bulk Modulus (GPa) = 40.77419 74.34340 57.55880
# Shear Modulus (GPa) = 29.62605 43.81351 36.71978
#
# Velocity S-wave (km/s) = 3.34861 4.07222 3.72802
# Velocity P-wave (km/s) = 5.51213 7.08865 6.34951
#
# Compressibility (1/GPa) = 0.02452532
#
# Stress axis : x y z
#
# Youngs Moduli (GPa) = 39.70114 131.38387 125.70846
#
# Poissons Ratio (x) = -0.40473 1.02242
# Poissons Ratio (y) = -0.12230 0.38489
# Poissons Ratio (z) = 0.32290 0.40227
#
# Static dielectric constant tensor:
#      x y z
#    x 2.229330 0.000000 -0.054360 
#    y 0.000000 2.163790 0.000000 
#    z -0.054360 0.000000 1.970510 
# 
# From -- ./inp_files/87881.got.cif
#   From: 2010.05.17/outbox.cif.g08.bks.cpg/sg15_44_cif.got.tgz:87881.got - 2010.06.03 18:47:42.
