data_PCOD9306732
_publ_section_title
;
Structure prediction by ZEFSAII (Michael W. Deem and Ramdas Pophale) SiO2 
 PCOD9306732
Probable space group: C 2/C
;
_chemical_formula_sum "Si O2"
_cell_formula_units_Z 36
_cell_length_a 5.671457
_cell_length_b 21.873121
_cell_length_c 12.820074
_cell_angle_alpha 90.000000
_cell_angle_beta 90.563849
_cell_angle_gamma 90.000000
_cell_volume 1590.284775
_symmetry_space_group_name_H-M "C 2/C"
_symmetry_group_IT_number 15
_symmetry_cell_setting 'monoclinic'
loop_
_space_group_symop_operation_xyz
x,y,z
-x,y,1/2-z
-x,-y,-z
x,-y,1/2+z
1/2+x,1/2+y,z
1/2-x,1/2+y,1/2-z
1/2-x,1/2-y,-z
1/2+x,1/2-y,1/2+z
loop_
_atom_site_type_symbol
_atom_site_label
_atom_site_fract_x
_atom_site_fract_y
_atom_site_fract_z
Si Si1 0.000000 0.181985 0.750000
Si Si2 0.442358 0.409082 0.426799
Si Si3 0.786185 0.191068 0.074675
Si Si4 0.000000 0.753012 0.750000
Si Si5 0.000000 0.621574 0.250000
Si Si6 0.692434 0.973689 0.918764
O O1 0.948584 0.138161 0.652695
O O2 0.252742 0.216188 0.734929
O O3 0.281682 0.366572 0.498481
O O4 0.625566 0.439268 0.505745
O O5 0.306657 0.464675 0.371983
O O6 0.019743 0.207361 0.143660
O O7 0.623217 0.167311 0.168528
O O8 0.750000 0.250000 0.000000
O O9 0.131636 0.573591 0.327234
O O10 0.500000 0.000000 0.000000
#
# Coordination Sequence:
#
# PCOD9306732 Si02
#       6
#     4   8   8   4   4   8
#     4  12  29  46  81 114 159 211 264 332 398 480
#     4  11  27  47  75 114 154 205 267 339 398 485
#     4  12  26  49  77 117 160 209 267 327 410 481
#     4  12  28  49  75 116 156 216 260 326 406 482
#     4  12  27  49  84 112 159 217 264 346 398 488
#     4  11  26  49  77 110 151 206 272 330 406 473
#
# _framework density 22.637457000000001
#
# number of rings (size 3 to 8) (size 9 to 14) (size 15 to 20)
#    0.000    0.444    4.444    2.000    9.333    0.889 
#    0.000    0.000    0.000    0.000    0.000    0.000 
#    0.000    0.000    0.000    0.000    0.000    0.000 
#
# Total GULP energy -100312.607131 kJ/mol
# GULP energy per Si atom -5572.922618 kJ/mol
# Density = 2.258593 g / cm^3
# Si number density = 22.637457 Si / 1000 Ang^3
#
#
#
# Elastic Constant Matrix: (Units=GPa)
#
#
# Indices 1 2 3 4 5 6 
#
# 1 62.2837 63.9626 22.0605 0.0000 -1.8903 0.0000
# 2 63.9626 185.4747 66.9482 0.0000 -0.5377 0.0000
# 3 22.0605 66.9482 124.3426 0.0000 -5.1971 0.0000
# 4 0.0000 0.0000 0.0000 29.6338 0.0000 14.1632
# 5 -1.8903 -0.5377 -5.1971 0.0000 41.0797 0.0000
# 6 0.0000 0.0000 0.0000 14.1632 0.0000 13.2091
#
#
#
# Elastic Compliance Matrix: (Units=1/GPa)
#
#
# Indices 1 2 3 4 5 6 
#
# 1 0.024913 -0.008700 0.000309 0.000000 0.001072 0.000000
# 2 -0.008700 0.009736 -0.003730 0.000000 -0.000745 0.000000
# 3 0.000309 -0.003730 0.010047 0.000000 0.001237 0.000000
# 4 0.000000 0.000000 0.000000 0.069216 0.000000 -0.074215
# 5 0.001072 -0.000745 0.001237 0.000000 0.024539 0.000000
# 6 0.000000 0.000000 0.000000 -0.074215 0.000000 0.155282
#
#
# Mechanical properties :
#
#
# Convention : Reuss Voigt Hill
#
# Bulk Modulus (GPa) = 48.88747 75.33815 62.11281
# Shear Modulus (GPa) = 15.39447 31.39317 23.39382
#
# Velocity S-wave (km/s) = 2.61059 3.72799 3.21816
# Velocity P-wave (km/s) = 5.54343 7.20299 6.42700
#
# Compressibility (1/GPa) = 0.02045514
#
# Stress axis : x y z
#
# Youngs Moduli (GPa) = 40.13958 102.71305 99.52992
#
# Poissons Ratio (x) = 0.89359 -0.03075
# Poissons Ratio (y) = 0.34921 0.37120
# Poissons Ratio (z) = -0.01240 0.38308
#
# Static dielectric constant tensor:
#      x y z
#    x 1.954350 0.000000 -0.117550 
#    y 0.000000 1.884890 0.000000 
#    z -0.117550 0.000000 2.003630 
# 
# From -- ./inp_files/72658.got.cif
#   From: 2010.05.17/outbox.cif.g08.bks.cpg/sg15_37_cif.got.tgz:72658.got - 2010.06.03 18:47:42.
