data_PCOD9306152
_publ_section_title
;
Structure prediction by ZEFSAII (Michael W. Deem and Ramdas Pophale) SiO2 
 PCOD9306152
Probable space group: C 2/C
;
_chemical_formula_sum "Si O2"
_cell_formula_units_Z 48
_cell_length_a 32.990860
_cell_length_b 5.018617
_cell_length_c 10.519987
_cell_angle_alpha 90.000000
_cell_angle_beta 84.297943
_cell_angle_gamma 90.000000
_cell_volume 1733.160058
_symmetry_space_group_name_H-M "C 2/C"
_symmetry_group_IT_number 15
_symmetry_cell_setting 'monoclinic'
loop_
_space_group_symop_operation_xyz
x,y,z
-x,y,1/2-z
-x,-y,-z
x,-y,1/2+z
1/2+x,1/2+y,z
1/2-x,1/2+y,1/2-z
1/2-x,1/2-y,-z
1/2+x,1/2-y,1/2+z
loop_
_atom_site_type_symbol
_atom_site_label
_atom_site_fract_x
_atom_site_fract_y
_atom_site_fract_z
Si Si1 0.575401 0.793464 0.530144
Si Si2 0.589253 0.567363 0.788215
Si Si3 0.819140 0.725021 0.212451
Si Si4 0.274323 0.498588 0.046505
Si Si5 0.508346 0.279572 0.390033
Si Si6 0.835447 0.611077 0.464644
O O1 0.579826 0.561862 0.640083
O O2 0.580934 0.676194 0.386891
O O3 0.530505 0.914556 0.573306
O O4 0.616533 0.948197 0.550262
O O5 0.636248 0.644445 0.787489
O O6 0.556378 0.778333 0.858585
O O7 0.819372 0.536720 0.091516
O O8 0.816025 0.540513 0.336343
O O9 0.783839 0.937081 0.192005
O O10 0.320531 0.579585 0.984266
O O11 0.250000 0.250000 0.000000
O O12 0.500000 0.390305 0.250000
O O13 0.500000 0.500000 0.500000
O O14 0.750000 0.750000 0.500000
#
# Coordination Sequence:
#
# PCOD9306152 Si02
#       6
#     8   8   8   8   8   8
#     4   9  17  32  57  89 128 175 227 285 348 417
#     4   9  17  32  57  89 128 175 227 285 348 417
#     4  11  25  45  71 104 143 188 238 297 362 432
#     4  12  26  50  74 107 140 185 232 296 362 434
#     4   8  14  26  49  84 124 169 223 280 340 409
#     4  11  25  45  71 104 143 188 238 297 362 432
#
# _framework density 27.695076
#
# number of rings (size 3 to 8) (size 9 to 14) (size 15 to 20)
#    0.000    2.000    3.333    0.000    0.000    4.000 
#    0.000    0.833    0.000    0.000    0.000    0.000 
#    0.000    0.000    0.000    0.000    0.000    1.667 
#
# Total GULP energy -133876.434037 kJ/mol
# GULP energy per Si atom -5578.184752 kJ/mol
# Density = 2.763204 g / cm^3
# Si number density = 27.695076 Si / 1000 Ang^3
#
#
#
# Elastic Constant Matrix: (Units=GPa)
#
#
# Indices 1 2 3 4 5 6 
#
# 1 173.4589 34.7133 16.5123 0.0000 6.8816 0.0000
# 2 34.7133 98.2675 27.1241 0.0000 4.0812 0.0000
# 3 16.5123 27.1241 131.5648 0.0000 6.3326 0.0000
# 4 0.0000 0.0000 0.0000 33.4713 0.0000 -11.4227
# 5 6.8816 4.0812 6.3326 0.0000 48.5956 0.0000
# 6 0.0000 0.0000 0.0000 -11.4227 0.0000 32.4986
#
#
#
# Elastic Compliance Matrix: (Units=1/GPa)
#
#
# Indices 1 2 3 4 5 6 
#
# 1 0.006240 -0.002088 -0.000321 0.000000 -0.000666 0.000000
# 2 -0.002088 0.011508 -0.002091 0.000000 -0.000398 0.000000
# 3 -0.000321 -0.002091 0.008112 0.000000 -0.000836 0.000000
# 4 0.000000 0.000000 0.000000 0.033948 0.000000 0.011932
# 5 -0.000666 -0.000398 -0.000836 0.000000 0.020815 0.000000
# 6 0.000000 0.000000 0.000000 0.011932 0.000000 0.034965
#
#
# Mechanical properties :
#
#
# Convention : Reuss Voigt Hill
#
# Bulk Modulus (GPa) = 59.31133 62.22119 60.76626
# Shear Modulus (GPa) = 38.40019 44.57587 41.48803
#
# Velocity S-wave (km/s) = 3.72766 4.01624 3.87464
# Velocity P-wave (km/s) = 6.32373 6.63492 6.48120
#
# Compressibility (1/GPa) = 0.01686018
#
# Stress axis : x y z
#
# Youngs Moduli (GPa) = 160.25921 86.89832 123.26745
#
# Poissons Ratio (x) = 0.18145 0.03952
# Poissons Ratio (y) = 0.33464 0.25778
# Poissons Ratio (z) = 0.05138 0.18173
#
# Static dielectric constant tensor:
#      x y z
#    x 2.304910 0.000000 -0.029360 
#    y 0.000000 2.327350 0.000000 
#    z -0.029360 0.000000 2.319220 
# 
# From -- ./inp_files/116968.got.cif
#   From: 2010.05.17/outbox.cif.g08.bks.cpg/sg15_59_cif.got.tgz:116968.got - 2010.06.03 18:47:42.
