data_PCOD9306798
_publ_section_title
;
Structure prediction by ZEFSAII (Michael W. Deem and Ramdas Pophale) SiO2 
 PCOD9306798
Probable space group: C 2/C
;
_chemical_formula_sum "Si O2"
_cell_formula_units_Z 36
_cell_length_a 18.829436
_cell_length_b 4.896396
_cell_length_c 14.517105
_cell_angle_alpha 90.000000
_cell_angle_beta 97.761283
_cell_angle_gamma 90.000000
_cell_volume 1326.163583
_symmetry_space_group_name_H-M "C 2/C"
_symmetry_group_IT_number 15
_symmetry_cell_setting 'monoclinic'
loop_
_space_group_symop_operation_xyz
x,y,z
-x,y,1/2-z
-x,-y,-z
x,-y,1/2+z
1/2+x,1/2+y,z
1/2-x,1/2+y,1/2-z
1/2-x,1/2-y,-z
1/2+x,1/2-y,1/2+z
loop_
_atom_site_type_symbol
_atom_site_label
_atom_site_fract_x
_atom_site_fract_y
_atom_site_fract_z
Si Si1 0.131621 0.738238 0.745495
Si Si2 0.805714 0.735175 0.150008
Si Si3 0.059559 0.931599 0.086203
Si Si4 0.500000 0.894944 0.750000
Si Si5 0.313317 0.054918 0.469643
O O1 0.304873 0.025430 0.717521
O O2 0.150624 0.025234 0.794374
O O3 0.097859 0.806738 0.639957
O O4 0.933900 0.410160 0.215102
O O5 0.729663 0.860422 0.107901
O O6 0.837757 0.633266 0.058696
O O7 0.021708 0.781478 0.165547
O O8 0.123587 0.742365 0.058159
O O9 0.000000 0.000000 0.000000
O O10 0.250000 0.250000 0.500000
#
# Coordination Sequence:
#
# PCOD9306798 Si02
#       5
#     8   8   8   4   8
#     4  12  27  55  88 128 180 243 301 387 461 565
#     4  11  26  55  91 126 182 228 311 378 467 549
#     4  12  32  57  96 138 188 253 313 391 483 567
#     4  12  30  58  80 132 186 238 310 378 476 560
#     4  11  27  55  92 138 180 235 310 394 459 570
#
# _framework density 27.145973999999999
#
# number of rings (size 3 to 8) (size 9 to 14) (size 15 to 20)
#    0.000    0.444    4.444    0.667    9.333    4.444 
#    8.000    1.111    0.000    0.000    0.000    0.000 
#    0.000    0.000    0.000    0.000    0.000    0.000 
#
# Total GULP energy -101083.597848 kJ/mol
# GULP energy per Si atom -5615.755436 kJ/mol
# Density = 2.708419 g / cm^3
# Si number density = 27.145974 Si / 1000 Ang^3
#
#
#
# Elastic Constant Matrix: (Units=GPa)
#
#
# Indices 1 2 3 4 5 6 
#
# 1 180.5555 67.8570 97.4001 0.0000 -4.8737 0.0000
# 2 67.8570 200.1633 110.5844 0.0000 13.6996 0.0000
# 3 97.4001 110.5844 253.9105 0.0000 34.4450 0.0000
# 4 0.0000 0.0000 0.0000 37.2887 0.0000 4.3869
# 5 -4.8737 13.6996 34.4450 0.0000 56.5636 0.0000
# 6 0.0000 0.0000 0.0000 4.3869 0.0000 59.0860
#
#
#
# Elastic Compliance Matrix: (Units=1/GPa)
#
#
# Indices 1 2 3 4 5 6 
#
# 1 0.007531 -0.001238 -0.002702 0.000000 0.002594 0.000000
# 2 -0.001238 0.006784 -0.002444 0.000000 -0.000261 0.000000
# 3 -0.002702 -0.002444 0.006530 0.000000 -0.003617 0.000000
# 4 0.000000 0.000000 0.000000 0.027054 0.000000 -0.002009
# 5 0.002594 -0.000261 -0.003617 0.000000 0.020169 0.000000
# 6 0.000000 0.000000 0.000000 -0.002009 0.000000 0.017074
#
#
# Mechanical properties :
#
#
# Convention : Reuss Voigt Hill
#
# Bulk Modulus (GPa) = 123.80503 131.81249 127.80876
# Shear Modulus (GPa) = 49.70096 54.50683 52.10390
#
# Velocity S-wave (km/s) = 4.28352 4.48584 4.38585
# Velocity P-wave (km/s) = 8.37680 8.68865 8.53415
#
# Compressibility (1/GPa) = 0.00807722
#
# Stress axis : x y z
#
# Youngs Moduli (GPa) = 132.78142 147.40885 153.14060
#
# Poissons Ratio (x) = 0.18251 0.41373
# Poissons Ratio (y) = 0.16440 0.37430
# Poissons Ratio (z) = 0.35873 0.36029
#
# Static dielectric constant tensor:
#      x y z
#    x 2.252790 0.000000 -0.082340 
#    y 0.000000 2.089820 0.000000 
#    z -0.082340 0.000000 2.176940 
# 
# From -- ./inp_files/208156.got.cif
#   From: 2010.05.17/outbox.cif.g08.bks.cpg/sg15_105_cif.got.tgz:208156.got - 2010.06.03 18:47:42.
