data_PCOD9306274
_publ_section_title
;
Structure prediction by ZEFSAII (Michael W. Deem and Ramdas Pophale) SiO2 
 PCOD9306274
Probable space group: C 2/C
;
_chemical_formula_sum "Si O2"
_cell_formula_units_Z 48
_cell_length_a 17.458717
_cell_length_b 9.184306
_cell_length_c 18.521485
_cell_angle_alpha 90.000000
_cell_angle_beta 43.581630
_cell_angle_gamma 90.000000
_cell_volume 2047.376762
_symmetry_space_group_name_H-M "C 2/C"
_symmetry_group_IT_number 15
_symmetry_cell_setting 'monoclinic'
loop_
_space_group_symop_operation_xyz
x,y,z
-x,y,1/2-z
-x,-y,-z
x,-y,1/2+z
1/2+x,1/2+y,z
1/2-x,1/2+y,1/2-z
1/2-x,1/2-y,-z
1/2+x,1/2-y,1/2+z
loop_
_atom_site_type_symbol
_atom_site_label
_atom_site_fract_x
_atom_site_fract_y
_atom_site_fract_z
Si Si1 0.834877 0.552352 0.147673
Si Si2 0.342680 0.626738 0.456471
Si Si3 0.466113 0.870002 0.424965
Si Si4 0.500000 0.982531 0.750000
Si Si5 0.000000 0.963538 0.250000
Si Si6 0.157965 0.165372 0.758246
Si Si7 0.734410 0.160961 0.084360
O O1 0.856916 0.707923 0.172063
O O2 0.714666 0.484433 0.245976
O O3 0.923515 0.435163 0.116358
O O4 0.864545 0.571841 0.043173
O O5 0.250000 0.750000 0.500000
O O6 0.441452 0.700626 0.434543
O O7 0.397954 0.560840 0.347157
O O8 0.295964 0.491377 0.533316
O O9 0.472092 0.924080 0.338986
O O10 0.391940 0.885822 0.814804
O O11 0.951629 0.875936 0.213742
O O12 0.251659 0.231933 0.639405
O O13 0.750000 0.250000 0.000000
#
# Coordination Sequence:
#
# PCOD9306274 Si02
#       7
#     8   8   8   4   4   8   8
#     4  11  28  48  75 108 165 203 259 327 411 478
#     4  12  26  43  77 114 152 196 269 334 383 466
#     4  11  25  46  72 109 154 208 259 318 399 472
#     4  12  22  46  78 104 154 210 260 326 386 460
#     4  12  28  48  82 116 154 204 282 326 388 482
#     4  12  27  49  76 111 155 210 257 328 399 473
#     4  12  25  44  73 113 152 199 267 328 386 455
#
# _framework density 23.444635999999999
#
# number of rings (size 3 to 8) (size 9 to 14) (size 15 to 20)
#    0.000    0.333    5.000    3.000    4.667    2.667 
#    0.000    1.667    0.000    0.000    0.000    0.000 
#    0.000    0.000    0.000    0.000    0.000    0.000 
#
# Total GULP energy -134114.059541 kJ/mol
# GULP energy per Si atom -5588.085814 kJ/mol
# Density = 2.339127 g / cm^3
# Si number density = 23.444636 Si / 1000 Ang^3
#
#
#
# Elastic Constant Matrix: (Units=GPa)
#
#
# Indices 1 2 3 4 5 6 
#
# 1 84.5953 53.7326 31.4423 0.0000 -3.5153 0.0000
# 2 53.7326 121.9332 45.6750 0.0000 -3.4278 0.0000
# 3 31.4423 45.6750 115.1954 0.0000 12.3157 0.0000
# 4 0.0000 0.0000 0.0000 50.5878 0.0000 -7.2596
# 5 -3.5153 -3.4278 12.3157 0.0000 35.4633 0.0000
# 6 0.0000 0.0000 0.0000 -7.2596 0.0000 31.9878
#
#
#
# Elastic Compliance Matrix: (Units=1/GPa)
#
#
# Indices 1 2 3 4 5 6 
#
# 1 0.016883 -0.006566 -0.002197 0.000000 0.001802 0.000000
# 2 -0.006566 0.012377 -0.003296 0.000000 0.001690 0.000000
# 3 -0.002197 -0.003296 0.011055 0.000000 -0.004376 0.000000
# 4 0.000000 0.000000 0.000000 0.020433 0.000000 0.004637
# 5 0.001802 0.001690 -0.004376 0.000000 0.030060 0.000000
# 6 0.000000 0.000000 0.000000 0.004637 0.000000 0.032314
#
#
# Mechanical properties :
#
#
# Convention : Reuss Voigt Hill
#
# Bulk Modulus (GPa) = 61.74185 64.82484 63.28335
# Shear Modulus (GPa) = 32.75671 36.33271 34.54471
#
# Velocity S-wave (km/s) = 3.74196 3.94092 3.84273
# Velocity P-wave (km/s) = 6.71283 6.95831 6.83667
#
# Compressibility (1/GPa) = 0.01619647
#
# Stress axis : x y z
#
# Youngs Moduli (GPa) = 59.23017 80.79578 90.45429
#
# Poissons Ratio (x) = 0.53052 0.19876
# Poissons Ratio (y) = 0.38892 0.29813
# Poissons Ratio (z) = 0.13015 0.26629
#
# Static dielectric constant tensor:
#      x y z
#    x 1.931850 0.000000 0.012640 
#    y 0.000000 1.947550 0.000000 
#    z 0.012640 0.000000 1.884470 
# 
# From -- ./inp_files/251808.got.cif
#   From: 2010.05.17/outbox.cif.g08.bks.cpg/sg15_126_cif.got.tgz:251808.got - 2010.06.03 18:47:42.
