data_PCOD9306252
_publ_section_title
;
Structure prediction by ZEFSAII (Michael W. Deem and Ramdas Pophale) SiO2 
 PCOD9306252
Probable space group: C 2/C
;
_chemical_formula_sum "Si O2"
_cell_formula_units_Z 40
_cell_length_a 22.400182
_cell_length_b 6.388740
_cell_length_c 27.538972
_cell_angle_alpha 90.000000
_cell_angle_beta 26.482603
_cell_angle_gamma 90.000000
_cell_volume 1757.427177
_symmetry_space_group_name_H-M "C 2/C"
_symmetry_group_IT_number 15
_symmetry_cell_setting 'monoclinic'
loop_
_space_group_symop_operation_xyz
x,y,z
-x,y,1/2-z
-x,-y,-z
x,-y,1/2+z
1/2+x,1/2+y,z
1/2-x,1/2+y,1/2-z
1/2-x,1/2-y,-z
1/2+x,1/2-y,1/2+z
loop_
_atom_site_type_symbol
_atom_site_label
_atom_site_fract_x
_atom_site_fract_y
_atom_site_fract_z
Si Si1 0.873852 0.104759 0.969132
Si Si2 0.152759 0.483011 0.373157
Si Si3 0.859070 0.054562 0.868169
Si Si4 0.141909 0.366004 0.772880
Si Si5 0.716597 0.805333 0.149054
O O1 0.019594 0.205781 0.868124
O O2 0.862002 0.012961 0.923412
O O3 0.764271 0.290704 0.052420
O O4 0.836206 0.930490 0.035660
O O5 0.160899 0.515101 0.309676
O O6 0.224067 0.266078 0.334641
O O7 0.229763 0.662522 0.346470
O O8 0.000000 0.500000 0.500000
O O9 0.845523 0.847084 0.845777
O O10 0.000000 0.156531 0.750000
O O11 0.119653 0.526086 0.744945
#
# Coordination Sequence:
#
# PCOD9306252 Si02
#       5
#     8   8   8   8   8
#     4  11  26  46  73 105 145 188 245 302 361 439
#     4  12  27  44  71 106 141 194 244 297 365 432
#     4  11  25  46  71 106 141 187 242 298 370 436
#     4  12  26  47  70 106 147 189 244 303 362 436
#     4  12  25  45  72 101 144 189 240 298 367 432
#
# _framework density 22.760543999999999
#
# number of rings (size 3 to 8) (size 9 to 14) (size 15 to 20)
#    0.000    0.400    2.000    6.600    2.800   10.400 
#    0.000    0.000    0.000    0.000    0.000    0.000 
#    0.000    0.000    0.000    0.000    0.000    0.000 
#
# Total GULP energy -112087.689137 kJ/mol
# GULP energy per Si atom -5604.384457 kJ/mol
# Density = 2.270874 g / cm^3
# Si number density = 22.760544 Si / 1000 Ang^3
#
#
#
# Elastic Constant Matrix: (Units=GPa)
#
#
# Indices 1 2 3 4 5 6 
#
# 1 97.1700 44.9350 22.0941 0.0894 28.5828 -0.0765
# 2 44.9350 81.7039 32.0754 0.0834 18.9710 -0.1228
# 3 22.0941 32.0754 101.8267 -0.0010 6.6644 -0.0483
# 4 0.0894 0.0834 -0.0010 48.0310 -0.0251 18.7038
# 5 28.5828 18.9710 6.6644 -0.0251 53.4867 0.0427
# 6 -0.0765 -0.1228 -0.0483 18.7038 0.0427 44.4220
#
#
#
# Elastic Compliance Matrix: (Units=1/GPa)
#
#
# Indices 1 2 3 4 5 6 
#
# 1 0.015269 -0.006765 -0.000812 -0.000029 -0.005659 0.000024
# 2 -0.006765 0.018095 -0.004082 -0.000041 -0.002295 0.000053
# 3 -0.000812 -0.004082 0.011251 0.000011 0.000480 -0.000006
# 4 -0.000029 -0.000041 0.000011 0.024903 0.000049 -0.010486
# 5 -0.005659 -0.002295 0.000480 0.000049 0.022475 -0.000058
# 6 0.000024 0.000053 -0.000006 -0.010486 -0.000058 0.026927
#
#
# Mechanical properties :
#
#
# Convention : Reuss Voigt Hill
#
# Bulk Modulus (GPa) = 46.95221 53.21217 50.08219
# Shear Modulus (GPa) = 33.48166 41.29434 37.38800
#
# Velocity S-wave (km/s) = 3.83957 4.26408 4.05738
# Velocity P-wave (km/s) = 6.35059 6.90456 6.63336
#
# Compressibility (1/GPa) = 0.02129825
#
# Stress axis : x y z
#
# Youngs Moduli (GPa) = 65.49345 55.26345 88.87979
#
# Poissons Ratio (x) = 0.37384 0.07214
# Poissons Ratio (y) = 0.44304 0.36281
# Poissons Ratio (z) = 0.05316 0.22558
#
# Static dielectric constant tensor:
#      x y z
#    x 1.835500 0.000000 0.006920 
#    y 0.000000 1.845450 -0.000010 
#    z 0.006920 -0.000010 1.820380 
# 
# From -- ./inp_files/301754.got.cif
#   From: 2010.05.17/outbox.cif.g08.bks.cpg/sg15_151_cif.got.tgz:301754.got - 2010.06.03 18:47:42.
