data_PCOD9306110
_publ_section_title
;
Structure prediction by ZEFSAII (Michael W. Deem and Ramdas Pophale) SiO2 
 PCOD9306110
Probable space group: C 2/C
;
_chemical_formula_sum "Si O2"
_cell_formula_units_Z 52
_cell_length_a 23.114409
_cell_length_b 11.789412
_cell_length_c 14.603646
_cell_angle_alpha 90.000000
_cell_angle_beta 144.028653
_cell_angle_gamma 90.000000
_cell_volume 2337.522677
_symmetry_space_group_name_H-M "C 2/C"
_symmetry_group_IT_number 15
_symmetry_cell_setting 'monoclinic'
loop_
_space_group_symop_operation_xyz
x,y,z
-x,y,1/2-z
-x,-y,-z
x,-y,1/2+z
1/2+x,1/2+y,z
1/2-x,1/2+y,1/2-z
1/2-x,1/2-y,-z
1/2+x,1/2-y,1/2+z
loop_
_atom_site_type_symbol
_atom_site_label
_atom_site_fract_x
_atom_site_fract_y
_atom_site_fract_z
Si Si1 0.500000 0.846088 0.750000
Si Si2 0.657902 0.276788 0.138804
Si Si3 0.856893 0.015866 0.148092
Si Si4 0.575189 0.508045 0.973230
Si Si5 0.840970 0.806981 0.777914
Si Si6 0.214598 0.335364 0.030300
Si Si7 0.505177 0.876440 0.546257
O O1 0.396013 0.791712 0.598555
O O2 0.517138 0.896756 0.670803
O O3 0.726657 0.226673 0.147105
O O4 0.735873 0.328911 0.308603
O O5 0.599134 0.184696 0.121941
O O6 0.585134 0.378253 0.019280
O O7 0.875022 0.000854 0.063233
O O8 0.855268 0.138846 0.195146
O O9 0.959030 0.959788 0.318561
O O10 0.754227 0.956079 0.044100
O O11 0.629940 0.593307 0.112122
O O12 0.912852 0.702095 0.896091
O O13 0.250000 0.250000 0.000000
O O14 0.500000 0.000000 0.500000
#
# Coordination Sequence:
#
# PCOD9306110 Si02
#       7
#     4   8   8   8   8   8   8
#     4  12  28  46  70 106 146 190 246 304 366 438
#     4  12  25  45  75 102 148 190 246 304 371 437
#     4  11  25  44  75 109 142 189 249 301 373 440
#     4  11  25  46  75 111 140 189 249 309 367 446
#     4  12  25  46  77 105 150 193 242 317 371 438
#     4  12  24  43  73 107 140 188 248 305 362 429
#     4  12  29  49  71 111 151 194 243 309 377 451
#
# _framework density 22.245773
#
# number of rings (size 3 to 8) (size 9 to 14) (size 15 to 20)
#    0.000    0.308    6.154    2.308    4.308    0.615 
#    2.769    0.000    0.000    0.000    0.000    0.000 
#    0.000    0.000    0.000    0.000    0.000    0.000 
#
# Total GULP energy -145032.042199 kJ/mol
# GULP energy per Si atom -5578.155469 kJ/mol
# Density = 2.219514 g / cm^3
# Si number density = 22.245773 Si / 1000 Ang^3
#
#
#
# Elastic Constant Matrix: (Units=GPa)
#
#
# Indices 1 2 3 4 5 6 
#
# 1 104.9417 28.9068 16.0096 0.0000 10.7151 0.0000
# 2 28.9068 105.3415 13.2114 0.0000 -13.6843 0.0000
# 3 16.0096 13.2114 41.6994 0.0000 6.0673 0.0000
# 4 0.0000 0.0000 0.0000 10.4617 0.0000 -14.4168
# 5 10.7151 -13.6843 6.0673 0.0000 38.5695 0.0000
# 6 0.0000 0.0000 0.0000 -14.4168 0.0000 -6.3946
#
#
#
# Elastic Compliance Matrix: (Units=1/GPa)
#
#
# Indices 1 2 3 4 5 6 
#
# 1 0.011229 -0.003238 -0.002727 0.000000 -0.003840 0.000000
# 2 -0.003238 0.011494 -0.003196 0.000000 0.005480 0.000000
# 3 -0.002727 -0.003196 0.026706 0.000000 -0.004578 0.000000
# 4 0.000000 0.000000 0.000000 0.023275 0.000000 -0.052474
# 5 -0.003840 0.005480 -0.004578 0.000000 0.029658 0.000000
# 6 0.000000 0.000000 0.000000 -0.052474 0.000000 -0.038078
#
#
# Mechanical properties :
#
#
# Convention : Reuss Voigt Hill
#
# Bulk Modulus (GPa) = 32.14538 40.91534 36.53036
# Shear Modulus (GPa) = 53.77743 21.45098 37.61420
#
# Velocity S-wave (km/s) = 4.92206 3.10864 4.11645
# Velocity P-wave (km/s) = 6.83986 5.59618 6.24904
#
# Compressibility (1/GPa) = 0.03110867
#
# Stress axis : x y z
#
# Youngs Moduli (GPa) = 89.05456 86.99988 37.44407
#
# Poissons Ratio (x) = 0.28172 0.10209
# Poissons Ratio (y) = 0.28838 0.11967
# Poissons Ratio (z) = 0.24281 0.27804
#
# Static dielectric constant tensor:
#      x y z
#    x 1.930790 0.000000 -0.014410 
#    y 0.000000 1.726830 0.000000 
#    z -0.014410 0.000000 1.706260 
# 
# From -- ./inp_files/173200.got.cif
#   From: 2010.05.17/outbox.cif.g08.bks.cpg/sg15_87_cif.got.tgz:173200.got - 2010.06.03 18:47:42.
