data_PCOD9306315
_publ_section_title
;
Structure prediction by ZEFSAII (Michael W. Deem and Ramdas Pophale) SiO2 
 PCOD9306315
Probable space group: C 2/C
;
_chemical_formula_sum "Si O2"
_cell_formula_units_Z 52
_cell_length_a 4.766780
_cell_length_b 24.502287
_cell_length_c 17.615942
_cell_angle_alpha 90.000000
_cell_angle_beta 116.702669
_cell_angle_gamma 90.000000
_cell_volume 1838.059080
_symmetry_space_group_name_H-M "C 2/C"
_symmetry_group_IT_number 15
_symmetry_cell_setting 'monoclinic'
loop_
_space_group_symop_operation_xyz
x,y,z
-x,y,1/2-z
-x,-y,-z
x,-y,1/2+z
1/2+x,1/2+y,z
1/2-x,1/2+y,1/2-z
1/2-x,1/2-y,-z
1/2+x,1/2-y,1/2+z
loop_
_atom_site_type_symbol
_atom_site_label
_atom_site_fract_x
_atom_site_fract_y
_atom_site_fract_z
Si Si1 0.863606 0.970812 0.303980
Si Si2 0.205924 0.632525 0.850724
Si Si3 0.157001 0.749108 0.120120
Si Si4 0.443863 0.814581 0.036134
Si Si5 0.183823 0.122321 0.078222
Si Si6 0.000000 0.317007 0.750000
Si Si7 0.815480 0.453644 0.933063
O O1 0.500000 0.988270 0.250000
O O2 0.861638 0.926536 0.370828
O O3 0.000000 0.937309 0.250000
O O4 0.872497 0.016887 0.157361
O O5 0.429432 0.687172 0.874386
O O6 0.980256 0.636332 0.897110
O O7 0.000000 0.636437 0.750000
O O8 0.453417 0.765128 0.100803
O O9 0.158026 0.719029 0.201237
O O10 0.980412 0.710150 0.037367
O O11 0.077415 0.834513 0.980843
O O12 0.278207 0.143747 0.173180
O O13 0.484580 0.099554 0.068348
O O14 0.980119 0.067729 0.056656
O O15 0.000000 0.500000 0.000000
#
# Coordination Sequence:
#
# PCOD9306315 Si02
#       7
#     8   8   8   8   8   4   8
#     4  11  25  46  77 117 162 208 268 347 420 491
#     4   9  20  39  71 113 152 206 269 333 401 497
#     4   9  22  43  73 112 165 218 268 339 410 502
#     4   9  21  43  73 111 161 211 269 334 408 489
#     4  12  28  48  81 116 164 209 286 342 412 508
#     4  12  28  44  76 120 160 220 272 332 430 484
#     4  12  28  51  81 114 156 218 268 347 418 503
#
# _framework density 28.290714000000001
#
# number of rings (size 3 to 8) (size 9 to 14) (size 15 to 20)
#    0.923    0.615    0.000    3.231    6.462    4.308 
#    0.000    4.615    0.000    0.000    0.000    0.000 
#    0.000    0.000    0.000    0.000    0.000    0.000 
#
# Total GULP energy -144764.819511 kJ/mol
# GULP energy per Si atom -5567.877674 kJ/mol
# Density = 2.822632 g / cm^3
# Si number density = 28.290714 Si / 1000 Ang^3
#
#
#
# Elastic Constant Matrix: (Units=GPa)
#
#
# Indices 1 2 3 4 5 6 
#
# 1 115.9356 20.0909 40.4484 0.0000 -15.6427 0.0000
# 2 20.0909 97.5021 17.2773 0.0000 0.5078 0.0000
# 3 40.4484 17.2773 212.0088 0.0000 -22.4846 0.0000
# 4 0.0000 0.0000 0.0000 44.9436 0.0000 11.5929
# 5 -15.6427 0.5078 -22.4846 0.0000 37.3557 0.0000
# 6 0.0000 0.0000 0.0000 11.5929 0.0000 52.3707
#
#
#
# Elastic Compliance Matrix: (Units=1/GPa)
#
#
# Indices 1 2 3 4 5 6 
#
# 1 0.009870 -0.001806 -0.001383 0.000000 0.003325 0.000000
# 2 -0.001806 0.010754 -0.000670 0.000000 -0.001306 0.000000
# 3 -0.001383 -0.000670 0.005314 0.000000 0.002628 0.000000
# 4 0.000000 0.000000 0.000000 0.023598 0.000000 -0.005224
# 5 0.003325 -0.001306 0.002628 0.000000 0.029762 0.000000
# 6 0.000000 0.000000 0.000000 -0.005224 0.000000 0.020251
#
#
# Mechanical properties :
#
#
# Convention : Reuss Voigt Hill
#
# Bulk Modulus (GPa) = 54.88857 64.56442 59.72649
# Shear Modulus (GPa) = 44.11519 50.10933 47.11226
#
# Velocity S-wave (km/s) = 3.95315 4.21316 4.08522
# Velocity P-wave (km/s) = 6.34667 6.82195 6.58860
#
# Compressibility (1/GPa) = 0.01821873
#
# Stress axis : x y z
#
# Youngs Moduli (GPa) = 101.32095 92.98963 188.17970
#
# Poissons Ratio (x) = 0.16793 0.26029
# Poissons Ratio (y) = 0.18298 0.12614
# Poissons Ratio (z) = 0.14015 0.06233
#
# Static dielectric constant tensor:
#      x y z
#    x 3.197530 0.000000 -0.421840 
#    y 0.000000 2.358870 0.000000 
#    z -0.421840 0.000000 2.707610 
# 
# From -- ./inp_files/185938.got.cif
#   From: 2010.05.17/outbox.cif.g08.bks.cpg/sg15_93_cif.got.tgz:185938.got - 2010.06.03 18:47:42.
