data_PCOD9306298
_publ_section_title
;
Structure prediction by ZEFSAII (Michael W. Deem and Ramdas Pophale) SiO2 
 PCOD9306298
Probable space group: C 2/C
;
_chemical_formula_sum "Si O2"
_cell_formula_units_Z 48
_cell_length_a 8.544305
_cell_length_b 29.627785
_cell_length_c 16.899976
_cell_angle_alpha 90.000000
_cell_angle_beta 32.248019
_cell_angle_gamma 90.000000
_cell_volume 2282.789418
_symmetry_space_group_name_H-M "C 2/C"
_symmetry_group_IT_number 15
_symmetry_cell_setting 'monoclinic'
loop_
_space_group_symop_operation_xyz
x,y,z
-x,y,1/2-z
-x,-y,-z
x,-y,1/2+z
1/2+x,1/2+y,z
1/2-x,1/2+y,1/2-z
1/2-x,1/2-y,-z
1/2+x,1/2-y,1/2+z
loop_
_atom_site_type_symbol
_atom_site_label
_atom_site_fract_x
_atom_site_fract_y
_atom_site_fract_z
Si Si1 0.523334 0.715195 0.142389
Si Si2 0.985862 0.776775 0.347572
Si Si3 0.667504 0.623988 0.361824
Si Si4 0.048722 0.962815 0.635101
Si Si5 0.288276 0.634785 0.669368
Si Si6 0.262671 0.049144 0.702651
O O1 0.500000 0.712604 0.250000
O O2 0.232181 0.739662 0.243447
O O3 0.494954 0.665745 0.114339
O O4 0.750000 0.750000 0.000000
O O5 0.045515 0.823032 0.366428
O O6 0.000000 0.790596 0.250000
O O7 0.750000 0.750000 0.500000
O O8 0.620147 0.579860 0.329059
O O9 0.489852 0.613316 0.516882
O O10 0.000000 0.633787 0.250000
O O11 0.402530 0.963180 0.467692
O O12 0.000000 0.959987 0.750000
O O13 0.877892 0.008870 0.684564
O O14 0.205495 0.596518 0.766670
O O15 0.000000 0.653262 0.750000
O O16 0.000000 0.055653 0.750000
#
# Coordination Sequence:
#
# PCOD9306298 Si02
#       6
#     8   8   8   8   8   8
#     4  12  25  45  72 100 140 186 238 297 357 424
#     4  12  25  45  70 102 138 186 240 292 356 427
#     4  12  27  44  69 104 146 188 237 295 354 431
#     4  11  25  47  73 106 143 187 239 294 359 428
#     4  12  25  46  69 102 145 186 238 294 362 424
#     4  11  25  46  75 105 141 188 237 294 360 429
#
# _framework density 21.026906
#
# number of rings (size 3 to 8) (size 9 to 14) (size 15 to 20)
#    0.000    0.333    1.667    9.000    4.667    1.333 
#    6.000    0.000    0.000    0.000    0.000    0.000 
#    0.000    0.000    0.000    0.000    0.000    0.000 
#
# Total GULP energy -133662.568242 kJ/mol
# GULP energy per Si atom -5569.273677 kJ/mol
# Density = 2.097905 g / cm^3
# Si number density = 21.026906 Si / 1000 Ang^3
#
#
#
# Elastic Constant Matrix: (Units=GPa)
#
#
# Indices 1 2 3 4 5 6 
#
# 1 76.5316 38.9975 17.0577 0.0000 4.9804 0.0000
# 2 38.9975 151.8285 28.9206 0.0000 5.4897 0.0000
# 3 17.0577 28.9206 147.6471 0.0000 -10.8666 0.0000
# 4 0.0000 0.0000 0.0000 40.8159 0.0000 2.8754
# 5 4.9804 5.4897 -10.8666 0.0000 27.2447 0.0000
# 6 0.0000 0.0000 0.0000 2.8754 0.0000 30.0584
#
#
#
# Elastic Compliance Matrix: (Units=1/GPa)
#
#
# Indices 1 2 3 4 5 6 
#
# 1 0.015355 -0.003611 -0.001256 0.000000 -0.002580 0.000000
# 2 -0.003611 0.007795 -0.001212 0.000000 -0.001394 0.000000
# 3 -0.001256 -0.001212 0.007408 0.000000 0.003429 0.000000
# 4 0.000000 0.000000 0.000000 0.024666 0.000000 -0.002360
# 5 -0.002580 -0.001394 0.003429 0.000000 0.038825 0.000000
# 6 0.000000 0.000000 0.000000 -0.002360 0.000000 0.033494
#
#
# Mechanical properties :
#
#
# Convention : Reuss Voigt Hill
#
# Bulk Modulus (GPa) = 54.35456 60.66207 57.50831
# Shear Modulus (GPa) = 34.28518 39.02590 36.65554
#
# Velocity S-wave (km/s) = 4.04237 4.31280 4.17978
# Velocity P-wave (km/s) = 6.90607 7.32890 7.12062
#
# Compressibility (1/GPa) = 0.01839772
#
# Stress axis : x y z
#
# Youngs Moduli (GPa) = 65.12703 128.28308 134.99158
#
# Poissons Ratio (x) = 0.46326 0.16961
# Poissons Ratio (y) = 0.23519 0.16365
# Poissons Ratio (z) = 0.08183 0.15552
#
# Static dielectric constant tensor:
#      x y z
#    x 1.796880 0.000000 -0.044840 
#    y 0.000000 1.867760 0.000000 
#    z -0.044840 0.000000 1.735750 
# 
# From -- ./inp_files/138918.got.cif
#   From: 2010.05.17/outbox.cif.g08.bks.cpg/sg15_70_cif.got.tgz:138918.got - 2010.06.03 18:47:42.
