data_PCOD9306754
_publ_section_title
;
Structure prediction by ZEFSAII (Michael W. Deem and Ramdas Pophale) SiO2 
 PCOD9306754
Probable space group: C 2/C
;
_chemical_formula_sum "Si O2"
_cell_formula_units_Z 60
_cell_length_a 22.118144
_cell_length_b 8.535387
_cell_length_c 25.310923
_cell_angle_alpha 90.000000
_cell_angle_beta 30.919314
_cell_angle_gamma 90.000000
_cell_volume 2455.272703
_symmetry_space_group_name_H-M "C 2/C"
_symmetry_group_IT_number 15
_symmetry_cell_setting 'monoclinic'
loop_
_space_group_symop_operation_xyz
x,y,z
-x,y,1/2-z
-x,-y,-z
x,-y,1/2+z
1/2+x,1/2+y,z
1/2-x,1/2+y,1/2-z
1/2-x,1/2-y,-z
1/2+x,1/2-y,1/2+z
loop_
_atom_site_type_symbol
_atom_site_label
_atom_site_fract_x
_atom_site_fract_y
_atom_site_fract_z
Si Si1 0.781867 0.771420 0.297637
Si Si2 0.009179 0.600592 0.311204
Si Si3 0.352347 0.642054 0.446292
Si Si4 0.657391 0.481151 0.833179
Si Si5 0.416555 0.293551 0.016220
Si Si6 0.000000 0.682274 0.750000
Si Si7 0.360922 0.952686 0.025962
Si Si8 0.371373 0.631531 0.866374
O O1 0.764432 0.626935 0.271435
O O2 0.818683 0.925482 0.238283
O O3 0.658901 0.806422 0.419908
O O4 0.885464 0.722030 0.259259
O O5 0.060681 0.449451 0.242602
O O6 0.955765 0.559130 0.408377
O O7 0.901610 0.689348 0.361376
O O8 0.250000 0.750000 0.500000
O O9 0.358319 0.667446 0.503598
O O10 0.452840 0.709904 0.332474
O O11 0.346065 0.458875 0.440025
O O12 0.633927 0.609965 0.896482
O O13 0.548112 0.361874 0.910360
O O14 0.393398 0.106872 0.035298
O O15 0.233494 0.940339 0.091419
O O16 0.500000 0.581877 0.750000
#
# Coordination Sequence:
#
# PCOD9306754 Si02
#       8
#     8   8   8   8   8   4   8   8
#     4  12  28  49  77 106 145 208 254 325 382 460
#     4  12  26  45  73 109 156 199 253 315 381 472
#     4  12  25  42  74 106 145 192 244 308 381 464
#     4  11  29  50  75 108 149 199 267 325 381 454
#     4  11  26  50  74 110 148 198 259 326 381 460
#     4  12  24  44  66 116 146 192 248 304 394 458
#     4  12  26  46  77 110 150 205 248 314 391 460
#     4  12  23  44  68 109 152 193 240 302 381 460
#
# _framework density 24.437204000000001
#
# number of rings (size 3 to 8) (size 9 to 14) (size 15 to 20)
#    0.000    0.267    5.333    2.000    9.333    0.533 
#    0.000    0.000    0.000    0.000    0.000    0.000 
#    0.000    0.000    0.000    0.000    0.000    0.000 
#
# Total GULP energy -167378.529587 kJ/mol
# GULP energy per Si atom -5579.284320 kJ/mol
# Density = 2.438158 g / cm^3
# Si number density = 24.437204 Si / 1000 Ang^3
#
#
#
# Elastic Constant Matrix: (Units=GPa)
#
#
# Indices 1 2 3 4 5 6 
#
# 1 83.4839 12.7232 1.9421 0.0002 -1.8330 -0.0002
# 2 12.7232 88.6564 13.4205 0.0003 -11.6448 -0.0008
# 3 1.9421 13.4205 53.7006 -0.0004 0.7200 -0.0001
# 4 0.0002 0.0003 -0.0004 36.5807 -0.0003 16.6879
# 5 -1.8330 -11.6448 0.7200 -0.0003 30.7177 0.0004
# 6 -0.0002 -0.0008 -0.0001 16.6879 0.0004 26.6774
#
#
#
# Elastic Compliance Matrix: (Units=1/GPa)
#
#
# Indices 1 2 3 4 5 6 
#
# 1 0.012246 -0.001747 -0.000007 0.000000 0.000069 0.000000
# 2 -0.001747 0.012633 -0.003158 0.000000 0.004759 0.000000
# 3 -0.000007 -0.003158 0.019433 0.000000 -0.001653 0.000000
# 4 0.000000 0.000000 0.000000 0.038253 0.000001 -0.023929
# 5 0.000069 0.004759 -0.001653 0.000001 0.034401 -0.000001
# 6 0.000000 0.000000 0.000000 -0.023929 -0.000001 0.052454
#
#
# Mechanical properties :
#
#
# Convention : Reuss Voigt Hill
#
# Bulk Modulus (GPa) = 28.99531 31.33472 30.16501
# Shear Modulus (GPa) = 26.21339 31.97883 29.09611
#
# Velocity S-wave (km/s) = 3.27874 3.62140 3.45432
# Velocity P-wave (km/s) = 5.12099 5.50785 5.31794
#
# Compressibility (1/GPa) = 0.03448834
#
# Stress axis : x y z
#
# Youngs Moduli (GPa) = 81.65710 79.15534 51.45786
#
# Poissons Ratio (x) = 0.13832 0.00037
# Poissons Ratio (y) = 0.14269 0.16250
# Poissons Ratio (z) = 0.00058 0.24996
#
# Static dielectric constant tensor:
#      x y z
#    x 2.033960 0.000000 0.014840 
#    y 0.000000 1.951060 0.000000 
#    z 0.014840 0.000000 1.926930 
# 
# From -- ./inp_files/302059.got.cif
#   From: 2010.05.17/outbox.cif.g08.bks.cpg/sg15_152_cif.got.tgz:302059.got - 2010.06.03 18:47:42.
