data_PCOD9306699
_publ_section_title
;
Structure prediction by ZEFSAII (Michael W. Deem and Ramdas Pophale) SiO2 
 PCOD9306699
Probable space group: C 2/C
;
_chemical_formula_sum "Si O2"
_cell_formula_units_Z 36
_cell_length_a 14.013099
_cell_length_b 4.843815
_cell_length_c 28.305731
_cell_angle_alpha 90.000000
_cell_angle_beta 132.913661
_cell_angle_gamma 90.000000
_cell_volume 1407.125811
_symmetry_space_group_name_H-M "C 2/C"
_symmetry_group_IT_number 15
_symmetry_cell_setting 'monoclinic'
loop_
_space_group_symop_operation_xyz
x,y,z
-x,y,1/2-z
-x,-y,-z
x,-y,1/2+z
1/2+x,1/2+y,z
1/2-x,1/2+y,1/2-z
1/2-x,1/2-y,-z
1/2+x,1/2-y,1/2+z
loop_
_atom_site_type_symbol
_atom_site_label
_atom_site_fract_x
_atom_site_fract_y
_atom_site_fract_z
Si Si1 0.654665 0.216662 0.391323
Si Si2 0.500000 0.150740 0.250000
Si Si3 0.755479 0.590535 0.220321
Si Si4 0.988765 0.073871 0.920314
Si Si5 0.835527 0.713345 0.455945
O O1 0.583028 0.302748 0.318689
O O2 0.363486 0.572698 0.355470
O O3 0.557940 0.254901 0.402391
O O4 0.709379 0.908545 0.405268
O O5 0.389340 0.990433 0.241681
O O6 0.726668 0.399238 0.255388
O O7 0.279674 0.090719 0.942687
O O8 0.088470 0.848982 0.974722
O O9 0.931185 0.255874 0.943557
#
# Coordination Sequence:
#
# PCOD9306699 Si02
#       5
#     8   4   8   8   8
#     4  12  27  46  74 105 147 185 237 292 356 420
#     4  12  28  48  74 106 144 188 238 296 356 418
#     4  12  29  47  74 104 143 188 238 294 354 423
#     4  11  26  48  76 104 145 189 238 291 356 420
#     4  11  28  47  72 109 144 187 236 294 352 422
#
# _framework density 25.584064000000001
#
# number of rings (size 3 to 8) (size 9 to 14) (size 15 to 20)
#    0.000    0.444    4.444    1.333    6.222    8.889 
#    0.000    0.000    0.000    0.000    0.000    0.000 
#    0.000    0.000    0.000    0.000    0.000    0.000 
#
# Total GULP energy -101053.713084 kJ/mol
# GULP energy per Si atom -5614.095171 kJ/mol
# Density = 2.552583 g / cm^3
# Si number density = 25.584064 Si / 1000 Ang^3
#
#
#
# Elastic Constant Matrix: (Units=GPa)
#
#
# Indices 1 2 3 4 5 6 
#
# 1 143.2463 12.8177 45.7997 -0.0009 -5.1325 0.0010
# 2 12.8177 71.9071 3.6023 -0.0025 -1.1099 0.0018
# 3 45.7997 3.6023 128.8216 0.0004 14.7281 -0.0003
# 4 -0.0009 -0.0025 0.0004 17.1891 0.0001 3.8149
# 5 -5.1325 -1.1099 14.7281 0.0001 44.4952 -0.0002
# 6 0.0010 0.0018 -0.0003 3.8149 -0.0002 20.7058
#
#
#
# Elastic Compliance Matrix: (Units=1/GPa)
#
#
# Indices 1 2 3 4 5 6 
#
# 1 0.008149 -0.001268 -0.003082 0.000000 0.001929 0.000000
# 2 -0.001268 0.014134 0.000033 0.000002 0.000195 -0.000002
# 3 -0.003082 0.000033 0.009248 0.000000 -0.003416 0.000000
# 4 0.000000 0.000002 0.000000 0.060657 0.000000 -0.011176
# 5 0.001929 0.000195 -0.003416 0.000000 0.023832 0.000000
# 6 0.000000 -0.000002 0.000000 -0.011176 0.000000 0.050355
#
#
# Mechanical properties :
#
#
# Convention : Reuss Voigt Hill
#
# Bulk Modulus (GPa) = 43.67403 52.04603 47.86003
# Shear Modulus (GPa) = 27.37596 35.26171 31.31884
#
# Velocity S-wave (km/s) = 3.27469 3.71653 3.50259
# Velocity P-wave (km/s) = 5.60411 6.22930 5.92495
#
# Compressibility (1/GPa) = 0.02289690
#
# Stress axis : x y z
#
# Youngs Moduli (GPa) = 122.71347 70.75002 108.13024
#
# Poissons Ratio (x) = 0.08974 0.33328
# Poissons Ratio (y) = 0.15565 -0.00361
# Poissons Ratio (z) = 0.37823 -0.00236
#
# Static dielectric constant tensor:
#      x y z
#    x 1.968870 0.000000 0.012770 
#    y 0.000000 1.910220 0.000000 
#    z 0.012770 0.000000 1.982450 
# 
# From -- ./inp_files/309352.got.cif
#   From: 2010.05.17/outbox.cif.g08.bks.cpg/sg15_155_cif.got.tgz:309352.got - 2010.06.03 18:47:42.
