data_PCOD9306441
_publ_section_title
;
Structure prediction by ZEFSAII (Michael W. Deem and Ramdas Pophale) SiO2 
 PCOD9306441
Probable space group: C 2/C
;
_chemical_formula_sum "Si O2"
_cell_formula_units_Z 28
_cell_length_a 13.658588
_cell_length_b 4.840047
_cell_length_c 20.994950
_cell_angle_alpha 90.000000
_cell_angle_beta 136.598539
_cell_angle_gamma 90.000000
_cell_volume 953.660936
_symmetry_space_group_name_H-M "C 2/C"
_symmetry_group_IT_number 15
_symmetry_cell_setting 'monoclinic'
loop_
_space_group_symop_operation_xyz
x,y,z
-x,y,1/2-z
-x,-y,-z
x,-y,1/2+z
1/2+x,1/2+y,z
1/2-x,1/2+y,1/2-z
1/2-x,1/2-y,-z
1/2+x,1/2-y,1/2+z
loop_
_atom_site_type_symbol
_atom_site_label
_atom_site_fract_x
_atom_site_fract_y
_atom_site_fract_z
Si Si1 0.000000 0.000000 0.000000
Si Si2 0.133571 0.286734 0.844532
Si Si3 0.627971 0.052072 0.973121
Si Si4 0.230069 0.825681 0.196653
O O1 0.082211 0.799940 0.089911
O O2 0.023530 0.767340 0.955363
O O3 0.079487 0.396110 0.886709
O O4 0.176213 0.528522 0.815050
O O5 0.000000 0.129471 0.750000
O O6 0.284033 0.144319 0.935580
O O7 0.750000 0.250000 0.000000
O O8 0.223560 0.035138 0.252960
#
# Coordination Sequence:
#
# PCOD9306441 Si02
#       4
#     4   8   8   8
#     4  12  26  52  80 110 176 202 286 356 418 520
#     4  11  26  48  76 113 164 212 287 346 426 522
#     4  11  25  48  76 117 153 228 268 353 435 506
#     4  12  28  47  78 119 156 223 279 346 435 509
#
# _framework density 29.36054
#
# number of rings (size 3 to 8) (size 9 to 14) (size 15 to 20)
#    0.000    0.571    2.857    3.429    4.000    5.714 
#    0.000    0.000    0.000    0.000    0.000    0.000 
#    0.000    0.000    0.000    0.000    0.000    0.000 
#
# Total GULP energy -78187.780160 kJ/mol
# GULP energy per Si atom -5584.841440 kJ/mol
# Density = 2.929371 g / cm^3
# Si number density = 29.360540 Si / 1000 Ang^3
#
#
#
# Elastic Constant Matrix: (Units=GPa)
#
#
# Indices 1 2 3 4 5 6 
#
# 1 157.2248 33.3481 21.6415 -0.0004 -34.5245 0.0003
# 2 33.3481 120.7049 23.9151 -0.0015 -7.2874 0.0032
# 3 21.6415 23.9151 226.2204 0.0000 4.0817 0.0004
# 4 -0.0004 -0.0015 0.0000 35.9505 -0.0001 -19.4377
# 5 -34.5245 -7.2874 4.0817 -0.0001 29.0431 -0.0002
# 6 0.0003 0.0032 0.0004 -19.4377 -0.0002 71.3520
#
#
#
# Elastic Compliance Matrix: (Units=1/GPa)
#
#
# Indices 1 2 3 4 5 6 
#
# 1 0.009175 -0.001719 -0.000887 0.000000 0.010599 0.000000
# 2 -0.001719 0.008934 -0.000786 0.000000 0.000309 0.000000
# 3 -0.000887 -0.000786 0.004623 0.000000 -0.001901 0.000000
# 4 0.000000 0.000000 0.000000 0.032621 0.000000 0.008887
# 5 0.010599 0.000309 -0.001901 0.000000 0.047376 0.000000
# 6 0.000000 0.000000 0.000000 0.008887 0.000000 0.016436
#
#
# Mechanical properties :
#
#
# Convention : Reuss Voigt Hill
#
# Bulk Modulus (GPa) = 62.70561 73.55105 68.12833
# Shear Modulus (GPa) = 38.09133 55.61880 46.85506
#
# Velocity S-wave (km/s) = 3.60580 4.35712 3.99914
# Velocity P-wave (km/s) = 6.22408 7.10057 6.67672
#
# Compressibility (1/GPa) = 0.01594754
#
# Stress axis : x y z
#
# Youngs Moduli (GPa) = 108.99714 111.93357 216.32386
#
# Poissons Ratio (x) = 0.19242 0.19192
# Poissons Ratio (y) = 0.18737 0.16994
# Poissons Ratio (z) = 0.09670 0.08793
#
# Static dielectric constant tensor:
#      x y z
#    x 2.187090 0.000000 0.085520 
#    y 0.000000 2.029990 0.000000 
#    z 0.085520 0.000000 2.178270 
# 
# From -- ./inp_files/149490.got.cif
#   From: 2010.05.17/outbox.cif.g08.bks.cpg/sg15_75_cif.got.tgz:149490.got - 2010.06.03 18:47:42.
