data_PCOD9306738
_publ_section_title
;
Structure prediction by ZEFSAII (Michael W. Deem and Ramdas Pophale) SiO2 
 PCOD9306738
Probable space group: C 2/C
;
_chemical_formula_sum "Si O2"
_cell_formula_units_Z 60
_cell_length_a 14.874741
_cell_length_b 8.944838
_cell_length_c 23.513212
_cell_angle_alpha 90.000000
_cell_angle_beta 51.909390
_cell_angle_gamma 90.000000
_cell_volume 2462.229465
_symmetry_space_group_name_H-M "C 2/C"
_symmetry_group_IT_number 15
_symmetry_cell_setting 'monoclinic'
loop_
_space_group_symop_operation_xyz
x,y,z
-x,y,1/2-z
-x,-y,-z
x,-y,1/2+z
1/2+x,1/2+y,z
1/2-x,1/2+y,1/2-z
1/2-x,1/2-y,-z
1/2+x,1/2-y,1/2+z
loop_
_atom_site_type_symbol
_atom_site_label
_atom_site_fract_x
_atom_site_fract_y
_atom_site_fract_z
Si Si1 0.614506 0.104595 0.555366
Si Si2 0.118136 0.376579 0.411125
Si Si3 0.000000 0.926818 0.250000
Si Si4 0.370080 0.440026 0.910197
Si Si5 0.534976 0.637863 0.526907
Si Si6 0.301816 0.787210 0.776033
Si Si7 0.197219 0.689295 0.358112
Si Si8 0.873963 0.435944 0.322644
O O1 0.507464 0.068386 0.557668
O O2 0.613798 0.759975 0.464513
O O3 0.618226 0.020095 0.614201
O O4 0.590629 0.277135 0.582306
O O5 0.234447 0.578783 0.477693
O O6 0.180261 0.286333 0.336813
O O7 0.192325 0.525048 0.385659
O O8 0.066625 0.018945 0.174255
O O9 0.095056 0.822807 0.244579
O O10 0.411489 0.569109 0.937489
O O11 0.500000 0.500000 0.500000
O O12 0.417857 0.723027 0.583659
O O13 0.300550 0.824788 0.710486
O O14 0.316770 0.934872 0.807834
O O15 0.298147 0.788590 0.344348
O O16 0.000000 0.410587 0.250000
#
# Coordination Sequence:
#
# PCOD9306738 Si02
#       8
#     8   8   4   8   8   8   8   8
#     4  11  26  49  78 120 161 211 266 327 408 478
#     4  12  28  47  83 117 158 207 270 326 395 482
#     4  12  28  48  78 118 154 206 276 340 398 474
#     4  11  26  49  81 116 161 210 268 336 403 477
#     4  12  24  51  79 112 154 211 265 323 406 470
#     4  12  26  51  75 116 160 207 269 329 407 468
#     4  12  27  48  76 115 159 205 266 330 390 479
#     4  12  27  50  82 113 162 216 265 329 406 485
#
# _framework density 24.368158999999999
#
# number of rings (size 3 to 8) (size 9 to 14) (size 15 to 20)
#    0.000    0.267    3.333    5.200    4.667    2.133 
#    0.000    2.000    0.000    0.000    0.000    0.000 
#    0.000    0.000    0.000    0.000    0.000    0.000 
#
# Total GULP energy -168160.538517 kJ/mol
# GULP energy per Si atom -5605.351284 kJ/mol
# Density = 2.431270 g / cm^3
# Si number density = 24.368159 Si / 1000 Ang^3
#
#
#
# Elastic Constant Matrix: (Units=GPa)
#
#
# Indices 1 2 3 4 5 6 
#
# 1 93.9464 33.4024 41.5045 0.0000 -10.6128 0.0000
# 2 33.4024 141.3965 66.5832 0.0000 -8.1677 0.0000
# 3 41.5045 66.5832 192.6191 0.0000 9.2146 0.0000
# 4 0.0000 0.0000 0.0000 45.7959 0.0000 -5.5124
# 5 -10.6128 -8.1677 9.2146 0.0000 46.3571 0.0000
# 6 0.0000 0.0000 0.0000 -5.5124 0.0000 30.5161
#
#
#
# Elastic Compliance Matrix: (Units=1/GPa)
#
#
# Indices 1 2 3 4 5 6 
#
# 1 0.012603 -0.001738 -0.002260 0.000000 0.003028 0.000000
# 2 -0.001738 0.008892 -0.002782 0.000000 0.001722 0.000000
# 3 -0.002260 -0.002782 0.006752 0.000000 -0.002350 0.000000
# 4 0.000000 0.000000 0.000000 0.022321 0.000000 0.004032
# 5 0.003028 0.001722 -0.002350 0.000000 0.023035 0.000000
# 6 0.000000 0.000000 0.000000 0.004032 0.000000 0.033498
#
#
# Mechanical properties :
#
#
# Convention : Reuss Voigt Hill
#
# Bulk Modulus (GPa) = 68.08033 78.99356 73.53694
# Shear Modulus (GPa) = 39.82256 43.63194 41.72725
#
# Velocity S-wave (km/s) = 4.04692 4.23606 4.14257
# Velocity P-wave (km/s) = 7.05943 7.51084 7.28863
#
# Compressibility (1/GPa) = 0.01468853
#
# Stress axis : x y z
#
# Youngs Moduli (GPa) = 79.34798 112.45750 148.09531
#
# Poissons Ratio (x) = 0.19548 0.33463
# Poissons Ratio (y) = 0.13792 0.41195
# Poissons Ratio (z) = 0.17929 0.31282
#
# Static dielectric constant tensor:
#      x y z
#    x 1.976180 0.000000 -0.026590 
#    y 0.000000 1.955260 0.000000 
#    z -0.026590 0.000000 1.978410 
# 
# From -- ./inp_files/272737.got.cif
#   From: 2010.05.17/outbox.cif.g08.bks.cpg/sg15_137_cif.got.tgz:272737.got - 2010.06.03 18:47:42.
