data_PCOD9306080
_publ_section_title
;
Structure prediction by ZEFSAII (Michael W. Deem and Ramdas Pophale) SiO2 
 PCOD9306080
Probable space group: C 2/C
;
_chemical_formula_sum "Si O2"
_cell_formula_units_Z 40
_cell_length_a 8.447465
_cell_length_b 23.953310
_cell_length_c 9.171757
_cell_angle_alpha 90.000000
_cell_angle_beta 97.257599
_cell_angle_gamma 90.000000
_cell_volume 1840.988110
_symmetry_space_group_name_H-M "C 2/C"
_symmetry_group_IT_number 15
_symmetry_cell_setting 'monoclinic'
loop_
_space_group_symop_operation_xyz
x,y,z
-x,y,1/2-z
-x,-y,-z
x,-y,1/2+z
1/2+x,1/2+y,z
1/2-x,1/2+y,1/2-z
1/2-x,1/2-y,-z
1/2+x,1/2-y,1/2+z
loop_
_atom_site_type_symbol
_atom_site_label
_atom_site_fract_x
_atom_site_fract_y
_atom_site_fract_z
Si Si1 0.353170 0.197254 0.344404
Si Si2 0.333014 0.399436 0.799192
Si Si3 0.380924 0.001627 0.349404
Si Si4 0.166483 0.100677 0.852801
Si Si5 0.164803 0.308395 0.325782
O O1 0.500000 0.189755 0.250000
O O2 0.208409 0.161088 0.266989
O O3 0.303865 0.262085 0.345389
O O4 0.373731 0.175161 0.511784
O O5 0.500000 0.419365 0.750000
O O6 0.190399 0.440805 0.726222
O O7 0.343905 0.391395 0.974440
O O8 0.500000 0.973967 0.250000
O O9 0.231343 0.961989 0.350948
O O10 0.500000 0.000000 0.500000
O O11 0.282563 0.142803 0.778540
O O12 0.000000 0.105880 0.750000
O O13 0.000000 0.282782 0.250000
#
# Coordination Sequence:
#
# PCOD9306080 Si02
#       5
#     8   8   8   8   8
#     4  11  25  44  71 102 142 182 233 288 348 415
#     4  12  27  45  70 102 142 186 234 291 349 415
#     4  12  27  46  72 104 140 184 235 289 353 415
#     4  12  27  45  71 102 141 186 235 289 350 416
#     4  11  25  44  70 104 139 185 232 287 350 415
#
# _framework density 21.727461000000002
#
# number of rings (size 3 to 8) (size 9 to 14) (size 15 to 20)
#    0.000    0.400    2.000    5.400    8.400    8.000 
#    0.000    0.000    0.000    0.000    0.000    0.000 
#    0.000    0.000    0.000    0.000    0.000    0.000 
#
# Total GULP energy -111652.800279 kJ/mol
# GULP energy per Si atom -5582.640014 kJ/mol
# Density = 2.167801 g / cm^3
# Si number density = 21.727461 Si / 1000 Ang^3
#
#
#
# Elastic Constant Matrix: (Units=GPa)
#
#
# Indices 1 2 3 4 5 6 
#
# 1 105.3252 12.5007 51.4318 0.0000 2.3912 0.0000
# 2 12.5007 69.8752 40.8387 0.0000 0.8029 0.0000
# 3 51.4318 40.8387 217.9225 0.0000 -7.8920 0.0000
# 4 0.0000 0.0000 0.0000 9.3150 0.0000 -3.6605
# 5 2.3912 0.8029 -7.8920 0.0000 37.5046 0.0000
# 6 0.0000 0.0000 0.0000 -3.6605 0.0000 25.9975
#
#
#
# Elastic Compliance Matrix: (Units=1/GPa)
#
#
# Indices 1 2 3 4 5 6 
#
# 1 0.010800 -0.000453 -0.002508 0.000000 -0.001207 0.000000
# 2 -0.000453 0.016127 -0.002949 0.000000 -0.000937 0.000000
# 3 -0.002508 -0.002949 0.005786 0.000000 0.001440 0.000000
# 4 0.000000 0.000000 0.000000 0.113641 0.000000 0.016001
# 5 -0.001207 -0.000937 0.001440 0.000000 0.027063 0.000000
# 6 0.000000 0.000000 0.000000 0.016001 0.000000 0.040718
#
#
# Mechanical properties :
#
#
# Convention : Reuss Voigt Hill
#
# Bulk Modulus (GPa) = 47.86297 66.96282 57.41289
# Shear Modulus (GPa) = 21.46672 33.78687 27.62680
#
# Velocity S-wave (km/s) = 3.14666 3.94767 3.56970
# Velocity P-wave (km/s) = 5.93957 7.18784 6.59332
#
# Compressibility (1/GPa) = 0.02089298
#
# Stress axis : x y z
#
# Youngs Moduli (GPa) = 92.59160 62.00910 172.84549
#
# Poissons Ratio (x) = 0.02806 0.43346
# Poissons Ratio (y) = 0.04191 0.50977
# Poissons Ratio (z) = 0.23220 0.18288
#
# Static dielectric constant tensor:
#      x y z
#    x 1.809760 0.000000 0.072480 
#    y 0.000000 1.728500 0.000000 
#    z 0.072480 0.000000 1.969910 
# 
# From -- ./inp_files/23758.got.cif
#   From: 2010.05.17/outbox.cif.g08.bks.cpg/sg15_12_cif.got.tgz:23758.got - 2010.06.03 18:47:42.
