data_PCOD9306965
_publ_section_title
;
Structure prediction by ZEFSAII (Michael W. Deem and Ramdas Pophale) SiO2 
 PCOD9306965
Probable space group: C 2/C
;
_chemical_formula_sum "Si O2"
_cell_formula_units_Z 60
_cell_length_a 26.944705
_cell_length_b 21.301591
_cell_length_c 9.633101
_cell_angle_alpha 90.000000
_cell_angle_beta 151.121102
_cell_angle_gamma 90.000000
_cell_volume 2670.316119
_symmetry_space_group_name_H-M "C 2/C"
_symmetry_group_IT_number 15
_symmetry_cell_setting 'monoclinic'
loop_
_space_group_symop_operation_xyz
x,y,z
-x,y,1/2-z
-x,-y,-z
x,-y,1/2+z
1/2+x,1/2+y,z
1/2-x,1/2+y,1/2-z
1/2-x,1/2-y,-z
1/2+x,1/2-y,1/2+z
loop_
_atom_site_type_symbol
_atom_site_label
_atom_site_fract_x
_atom_site_fract_y
_atom_site_fract_z
Si Si1 0.284790 0.962991 0.048921
Si Si2 0.563252 0.257789 0.755206
Si Si3 0.500000 0.413797 0.750000
Si Si4 0.354124 0.493487 0.050071
Si Si5 0.905460 0.587525 0.411484
Si Si6 0.762132 0.704018 0.158737
Si Si7 0.437539 0.637807 0.841714
Si Si8 0.536561 0.862289 0.996588
O O1 0.354793 0.900332 0.227269
O O2 0.188867 0.972646 0.917816
O O3 0.354870 0.019947 0.275072
O O4 0.238534 0.976089 0.782612
O O5 0.500000 0.253460 0.750000
O O6 0.540559 0.321749 0.615156
O O7 0.536136 0.201468 0.585092
O O8 0.678516 0.243569 0.081258
O O9 0.431546 0.457113 0.676420
O O10 0.418981 0.375004 0.460557
O O11 0.419249 0.429627 0.230975
O O12 0.827041 0.642103 0.270776
O O13 0.950910 0.598777 0.370205
O O14 0.000000 0.588159 0.750000
O O15 0.750000 0.750000 0.000000
O O16 0.650532 0.681927 0.932746
O O17 0.500000 0.853398 0.750000
#
# Coordination Sequence:
#
# PCOD9306965 Si02
#       8
#     8   8   4   8   8   8   8   8
#     4  12  25  43  68 107 145 190 236 301 371 441
#     4  12  23  46  71 101 136 192 255 298 346 428
#     4  12  24  48  72 108 138 184 238 302 366 434
#     4  12  25  45  72 105 145 184 241 293 366 438
#     4  12  21  41  68 102 142 194 248 295 359 436
#     4  12  20  38  72 104 132 179 255 310 337 410
#     4  12  24  44  75 103 140 190 242 303 359 429
#     4  12  24  41  64 101 151 186 230 301 375 435
#
# _framework density 22.469249000000001
#
# number of rings (size 3 to 8) (size 9 to 14) (size 15 to 20)
#    0.000    0.000    7.333    3.600    0.000    0.000 
#    1.200    0.000    0.000    4.800    0.000    0.000 
#    0.000    0.000    0.000    0.000    0.000    0.000 
#
# Total GULP energy -167574.652816 kJ/mol
# GULP energy per Si atom -5585.821761 kJ/mol
# Density = 2.241811 g / cm^3
# Si number density = 22.469249 Si / 1000 Ang^3
#
#
#
# Elastic Constant Matrix: (Units=GPa)
#
#
# Indices 1 2 3 4 5 6 
#
# 1 69.5643 16.0190 4.3328 0.0000 -18.1479 0.0000
# 2 16.0190 122.8323 28.2654 0.0000 -0.3881 0.0000
# 3 4.3328 28.2654 124.2583 0.0000 -19.6440 0.0000
# 4 0.0000 0.0000 0.0000 46.6933 0.0000 -11.1580
# 5 -18.1479 -0.3881 -19.6440 0.0000 24.5282 0.0000
# 6 0.0000 0.0000 0.0000 -11.1580 0.0000 17.3438
#
#
#
# Elastic Compliance Matrix: (Units=1/GPa)
#
#
# Indices 1 2 3 4 5 6 
#
# 1 0.019134 -0.003038 0.002581 0.000000 0.016176 0.000000
# 2 -0.003038 0.009131 -0.002638 0.000000 -0.004216 0.000000
# 3 0.002581 -0.002638 0.010136 0.000000 0.009986 0.000000
# 4 0.000000 0.000000 0.000000 0.025307 0.000000 0.016281
# 5 0.016176 -0.004216 0.009986 0.000000 0.060669 0.000000
# 6 0.000000 0.000000 0.000000 0.016281 0.000000 0.068132
#
#
# Mechanical properties :
#
#
# Convention : Reuss Voigt Hill
#
# Bulk Modulus (GPa) = 31.04406 45.98773 38.51589
# Shear Modulus (GPa) = 23.87368 35.58223 29.72795
#
# Velocity S-wave (km/s) = 3.26314 3.98376 3.64132
# Velocity P-wave (km/s) = 5.29563 6.45537 5.90405
#
# Compressibility (1/GPa) = 0.03221228
#
# Stress axis : x y z
#
# Youngs Moduli (GPa) = 52.26284 109.51667 98.65411
#
# Poissons Ratio (x) = 0.33273 -0.25464
# Poissons Ratio (y) = 0.15878 0.26021
# Poissons Ratio (z) = -0.13490 0.28886
#
# Static dielectric constant tensor:
#      x y z
#    x 1.847210 0.000000 0.007590 
#    y 0.000000 1.876400 0.000000 
#    z 0.007590 0.000000 1.890400 
# 
# From -- ./inp_files/67733.got.cif
#   From: 2010.05.17/outbox.cif.g08.bks.cpg/sg15_34_cif.got.tgz:67733.got - 2010.06.03 18:47:42.
