data_PCOD9306669
_publ_section_title
;
Structure prediction by ZEFSAII (Michael W. Deem and Ramdas Pophale) SiO2 
 PCOD9306669
Probable space group: C 2/C
;
_chemical_formula_sum "Si O2"
_cell_formula_units_Z 36
_cell_length_a 26.037295
_cell_length_b 6.291307
_cell_length_c 21.022337
_cell_angle_alpha 90.000000
_cell_angle_beta 26.260754
_cell_angle_gamma 90.000000
_cell_volume 1523.662660
_symmetry_space_group_name_H-M "C 2/C"
_symmetry_group_IT_number 15
_symmetry_cell_setting 'monoclinic'
loop_
_space_group_symop_operation_xyz
x,y,z
-x,y,1/2-z
-x,-y,-z
x,-y,1/2+z
1/2+x,1/2+y,z
1/2-x,1/2+y,1/2-z
1/2-x,1/2-y,-z
1/2+x,1/2-y,1/2+z
loop_
_atom_site_type_symbol
_atom_site_label
_atom_site_fract_x
_atom_site_fract_y
_atom_site_fract_z
Si Si1 0.500000 0.185204 0.250000
Si Si2 0.568783 0.204505 0.953394
Si Si3 0.804943 0.789450 0.558471
Si Si4 0.615346 0.471474 0.782987
Si Si5 0.163834 0.369134 0.144137
O O1 0.419569 0.308087 0.388637
O O2 0.587383 0.040245 0.192846
O O3 0.469915 0.351603 0.094904
O O4 0.660177 0.207016 0.909931
O O5 0.634067 0.326301 0.824238
O O6 0.500000 0.000000 0.000000
O O7 0.720606 0.595893 0.633091
O O8 0.734827 0.004840 0.620685
O O9 0.577629 0.300983 0.772389
O O10 0.250000 0.250000 0.000000
#
# Coordination Sequence:
#
# PCOD9306669 Si02
#       5
#     4   8   8   8   8
#     4  12  26  48  76 106 158 202 258 316 376 460
#     4  11  27  48  78 110 151 198 257 316 395 459
#     4  12  27  46  76 108 153 200 253 318 383 456
#     4  11  26  47  75 108 150 198 254 317 382 459
#     4  12  28  48  73 114 153 203 260 311 385 453
#
# _framework density 23.627279000000001
#
# number of rings (size 3 to 8) (size 9 to 14) (size 15 to 20)
#    0.000    0.444    2.222    4.667   12.444    1.778 
#    0.000    0.000    0.000    0.000    0.000    0.000 
#    0.000    0.000    0.000    0.000    0.000    0.000 
#
# Total GULP energy -100463.872320 kJ/mol
# GULP energy per Si atom -5581.326240 kJ/mol
# Density = 2.357350 g / cm^3
# Si number density = 23.627279 Si / 1000 Ang^3
#
#
#
# Elastic Constant Matrix: (Units=GPa)
#
#
# Indices 1 2 3 4 5 6 
#
# 1 96.2881 59.2067 6.7623 -0.0128 -1.8571 0.0034
# 2 59.2067 125.9625 41.5059 -0.0224 2.4921 0.0151
# 3 6.7623 41.5059 105.1208 -0.0120 13.1029 0.0110
# 4 -0.0128 -0.0224 -0.0120 48.8988 0.0074 16.0641
# 5 -1.8571 2.4921 13.1029 0.0074 31.6874 -0.0025
# 6 0.0034 0.0151 0.0110 16.0641 -0.0025 33.2902
#
#
#
# Elastic Compliance Matrix: (Units=1/GPa)
#
#
# Indices 1 2 3 4 5 6 
#
# 1 0.015010 -0.007728 0.002004 0.000000 0.000659 0.000001
# 2 -0.007728 0.013125 -0.004745 0.000005 0.000477 -0.000006
# 3 0.002004 -0.004745 0.011805 0.000003 -0.004391 -0.000004
# 4 0.000000 0.000005 0.000003 0.024303 -0.000008 -0.011727
# 5 0.000659 0.000477 -0.004391 -0.000008 0.033375 0.000008
# 6 0.000001 -0.000006 -0.000004 -0.011727 0.000008 0.035698
#
#
# Mechanical properties :
#
#
# Convention : Reuss Voigt Hill
#
# Bulk Modulus (GPa) = 52.62845 60.25791 56.44318
# Shear Modulus (GPa) = 31.13562 37.43505 34.28533
#
# Velocity S-wave (km/s) = 3.63407 3.98477 3.81345
# Velocity P-wave (km/s) = 6.31913 6.83594 6.58261
#
# Compressibility (1/GPa) = 0.01900113
#
# Stress axis : x y z
#
# Youngs Moduli (GPa) = 66.62434 76.18794 84.71230
#
# Poissons Ratio (x) = 0.58880 -0.16974
# Poissons Ratio (y) = 0.51489 0.40194
# Poissons Ratio (z) = -0.13350 0.36149
#
# Static dielectric constant tensor:
#      x y z
#    x 2.044870 0.000000 -0.026190 
#    y 0.000000 1.879500 0.000010 
#    z -0.026190 0.000010 1.875280 
# 
# From -- ./inp_files/256696.got.cif
#   From: 2010.05.17/outbox.cif.g08.bks.cpg/sg15_129_cif.got.tgz:256696.got - 2010.06.03 18:47:42.
