data_PCOD9306617
_publ_section_title
;
Structure prediction by ZEFSAII (Michael W. Deem and Ramdas Pophale) SiO2 
 PCOD9306617
Probable space group: C 2/C
;
_chemical_formula_sum "Si O2"
_cell_formula_units_Z 60
_cell_length_a 18.461412
_cell_length_b 17.635035
_cell_length_c 11.118658
_cell_angle_alpha 90.000000
_cell_angle_beta 135.565490
_cell_angle_gamma 90.000000
_cell_volume 2534.251363
_symmetry_space_group_name_H-M "C 2/C"
_symmetry_group_IT_number 15
_symmetry_cell_setting 'monoclinic'
loop_
_space_group_symop_operation_xyz
x,y,z
-x,y,1/2-z
-x,-y,-z
x,-y,1/2+z
1/2+x,1/2+y,z
1/2-x,1/2+y,1/2-z
1/2-x,1/2-y,-z
1/2+x,1/2-y,1/2+z
loop_
_atom_site_type_symbol
_atom_site_label
_atom_site_fract_x
_atom_site_fract_y
_atom_site_fract_z
Si Si1 0.248676 0.925829 0.290182
Si Si2 0.562854 0.493805 0.450237
Si Si3 0.500000 0.784401 0.750000
Si Si4 0.898621 0.548877 0.412755
Si Si5 0.393557 0.199726 0.563292
Si Si6 0.376834 0.319324 0.951614
Si Si7 0.209325 0.365111 0.920178
Si Si8 0.287133 0.206818 0.681509
O O1 0.219278 0.894420 0.386129
O O2 0.314633 0.860229 0.303983
O O3 0.323550 0.996668 0.402786
O O4 0.159095 0.950383 0.091849
O O5 0.500000 0.506566 0.250000
O O6 0.500000 0.500000 0.500000
O O7 0.601994 0.407150 0.503893
O O8 0.473471 0.729138 0.609112
O O9 0.602392 0.831363 0.843505
O O10 0.914134 0.628980 0.499619
O O11 0.832720 0.568540 0.216017
O O12 0.000000 0.500000 0.500000
O O13 0.500000 0.222210 0.750000
O O14 0.317342 0.180090 0.584854
O O15 0.332244 0.270872 0.436775
O O16 0.276342 0.307601 0.918582
O O17 0.346280 0.284333 0.787701
#
# Coordination Sequence:
#
# PCOD9306617 Si02
#       8
#     8   8   4   8   8   8   8   8
#     4  12  27  45  76 107 151 194 249 316 385 461
#     4  12  28  49  77 112 151 209 261 321 390 469
#     4  12  26  42  82 108 144 188 264 310 388 466
#     4  12  27  47  75 108 155 200 253 314 392 470
#     4  11  26  46  73 102 152 196 250 315 380 459
#     4  12  25  49  74 107 153 194 253 327 380 463
#     4  12  26  49  74 114 146 198 251 319 392 455
#     4  11  26  47  71 108 143 201 245 313 390 448
#
# _framework density 23.675633000000001
#
# number of rings (size 3 to 8) (size 9 to 14) (size 15 to 20)
#    0.000    0.267    4.667    2.800    5.600    3.733 
#    0.000    0.000    0.000    0.000    0.000    0.000 
#    0.000    0.000    0.000    0.000    0.000    0.000 
#
# Total GULP energy -167644.030996 kJ/mol
# GULP energy per Si atom -5588.134367 kJ/mol
# Density = 2.362175 g / cm^3
# Si number density = 23.675633 Si / 1000 Ang^3
#
#
#
# Elastic Constant Matrix: (Units=GPa)
#
#
# Indices 1 2 3 4 5 6 
#
# 1 81.0654 26.8425 25.0491 0.0000 -5.3307 0.0000
# 2 26.8425 80.0612 34.1662 0.0000 -0.7351 0.0000
# 3 25.0491 34.1662 149.6923 0.0000 -8.5460 0.0000
# 4 0.0000 0.0000 0.0000 34.9072 0.0000 0.3915
# 5 -5.3307 -0.7351 -8.5460 0.0000 40.9348 0.0000
# 6 0.0000 0.0000 0.0000 0.3915 0.0000 34.5061
#
#
#
# Elastic Compliance Matrix: (Units=1/GPa)
#
#
# Indices 1 2 3 4 5 6 
#
# 1 0.014235 -0.004187 -0.001341 0.000000 0.001499 0.000000
# 2 -0.004187 0.015077 -0.002789 0.000000 -0.000857 0.000000
# 3 -0.001341 -0.002789 0.007619 0.000000 0.001366 0.000000
# 4 0.000000 0.000000 0.000000 0.028651 0.000000 -0.000325
# 5 0.001499 -0.000857 0.001366 0.000000 0.024894 0.000000
# 6 0.000000 0.000000 0.000000 -0.000325 0.000000 0.028984
#
#
# Mechanical properties :
#
#
# Convention : Reuss Voigt Hill
#
# Bulk Modulus (GPa) = 49.26845 53.65940 51.46393
# Shear Modulus (GPa) = 34.99937 37.05370 36.02654
#
# Velocity S-wave (km/s) = 3.84902 3.96037 3.90509
# Velocity P-wave (km/s) = 6.37246 6.60502 6.48978
#
# Compressibility (1/GPa) = 0.02029696
#
# Stress axis : x y z
#
# Youngs Moduli (GPa) = 70.25000 66.32769 131.24366
#
# Poissons Ratio (x) = 0.27769 0.17598
# Poissons Ratio (y) = 0.29411 0.36610
# Poissons Ratio (z) = 0.09420 0.18502
#
# Static dielectric constant tensor:
#      x y z
#    x 2.020050 0.000000 0.012670 
#    y 0.000000 1.919950 0.000000 
#    z 0.012670 0.000000 1.968570 
# 
# From -- ./inp_files/113819.got.cif
#   From: 2010.05.17/outbox.cif.g08.bks.cpg/sg15_57_cif.got.tgz:113819.got - 2010.06.03 18:47:42.
