data_PCOD9306373
_publ_section_title
;
Structure prediction by ZEFSAII (Michael W. Deem and Ramdas Pophale) SiO2 
 PCOD9306373
Probable space group: C 2/C
;
_chemical_formula_sum "Si O2"
_cell_formula_units_Z 60
_cell_length_a 27.434033
_cell_length_b 21.662373
_cell_length_c 15.053672
_cell_angle_alpha 90.000000
_cell_angle_beta 18.421846
_cell_angle_gamma 90.000000
_cell_volume 2827.092827
_symmetry_space_group_name_H-M "C 2/C"
_symmetry_group_IT_number 15
_symmetry_cell_setting 'monoclinic'
loop_
_space_group_symop_operation_xyz
x,y,z
-x,y,1/2-z
-x,-y,-z
x,-y,1/2+z
1/2+x,1/2+y,z
1/2-x,1/2+y,1/2-z
1/2-x,1/2-y,-z
1/2+x,1/2-y,1/2+z
loop_
_atom_site_type_symbol
_atom_site_label
_atom_site_fract_x
_atom_site_fract_y
_atom_site_fract_z
Si Si1 0.679520 0.986055 0.693668
Si Si2 0.853563 0.361228 0.834251
Si Si3 0.035981 0.307854 0.043096
Si Si4 0.000000 0.415999 0.750000
Si Si5 0.758091 0.347043 0.649801
Si Si6 0.463438 0.319218 0.051835
Si Si7 0.964312 0.953650 0.642744
Si Si8 0.237382 0.014903 0.250154
O O1 0.715954 0.928372 0.568442
O O2 0.718812 0.968854 0.725760
O O3 0.786678 0.041783 0.477408
O O4 0.500000 0.000000 0.000000
O O5 0.933495 0.339444 0.605168
O O6 0.967071 0.373995 0.720660
O O7 0.709626 0.318835 0.110082
O O8 0.884580 0.332360 0.355489
O O9 0.174439 0.320725 0.873905
O O10 0.017310 0.236214 0.050516
O O11 0.143082 0.462728 0.489264
O O12 0.743950 0.421200 0.684646
O O13 0.594886 0.318776 0.900990
O O14 0.487172 0.384767 0.962986
O O15 0.000000 0.000000 0.500000
O O16 0.071367 0.983656 0.532466
#
# Coordination Sequence:
#
# PCOD9306373 Si02
#       8
#     8   8   8   4   8   8   8   8
#     4  12  25  41  70 107 144 187 237 294 367 434
#     4  12  25  45  70 106 146 193 239 297 362 432
#     4  11  27  48  71 107 140 195 250 293 359 431
#     4  12  24  40  70 110 148 186 234 300 368 428
#     4  11  25  47  77 102 139 192 248 296 355 437
#     4  12  26  47  72 100 151 189 242 304 355 433
#     4  12  24  44  70 105 145 185 235 298 368 424
#     4  12  23  43  71 105 147 185 236 298 363 431
#
# _framework density 21.223215
#
# number of rings (size 3 to 8) (size 9 to 14) (size 15 to 20)
#    0.000    0.267    6.667    2.000    1.867    1.600 
#    4.800    0.000    0.000    0.000    0.000    0.000 
#    0.000    0.000    0.000    0.000    0.000    0.000 
#
# Total GULP energy -167827.117481 kJ/mol
# GULP energy per Si atom -5594.237249 kJ/mol
# Density = 2.117491 g / cm^3
# Si number density = 21.223215 Si / 1000 Ang^3
#
#
#
# Elastic Constant Matrix: (Units=GPa)
#
#
# Indices 1 2 3 4 5 6 
#
# 1 155.0516 63.4175 46.8779 0.0042 -1.9341 -0.0022
# 2 63.4175 122.8788 39.5945 -0.0073 1.5461 0.0019
# 3 46.8779 39.5945 91.4280 0.0089 5.1484 -0.0029
# 4 0.0042 -0.0073 0.0089 20.7771 -0.0014 6.6058
# 5 -1.9341 1.5461 5.1484 -0.0014 38.1822 0.0021
# 6 -0.0022 0.0019 -0.0029 6.6058 0.0021 36.5696
#
#
#
# Elastic Compliance Matrix: (Units=1/GPa)
#
#
# Indices 1 2 3 4 5 6 
#
# 1 0.008854 -0.003604 -0.003035 -0.000002 0.001004 0.000001
# 2 -0.003604 0.010926 -0.002870 0.000006 -0.000238 -0.000002
# 3 -0.003035 -0.002870 0.013844 -0.000007 -0.001904 0.000002
# 4 -0.000002 0.000006 -0.000007 0.051063 0.000003 -0.009224
# 5 0.001004 -0.000238 -0.001904 0.000003 0.026507 -0.000002
# 6 0.000001 -0.000002 0.000002 -0.009224 -0.000002 0.029011
#
#
# Mechanical properties :
#
#
# Convention : Reuss Voigt Hill
#
# Bulk Modulus (GPa) = 68.47220 74.34869 71.41044
# Shear Modulus (GPa) = 30.47054 33.73702 32.10378
#
# Velocity S-wave (km/s) = 3.79320 3.99134 3.89353
# Velocity P-wave (km/s) = 7.17756 7.50659 7.34392
#
# Compressibility (1/GPa) = 0.01460447
#
# Stress axis : x y z
#
# Youngs Moduli (GPa) = 112.94667 91.52466 72.23241
#
# Poissons Ratio (x) = 0.32985 0.21925
# Poissons Ratio (y) = 0.40706 0.20734
# Poissons Ratio (z) = 0.34283 0.26272
#
# Static dielectric constant tensor:
#      x y z
#    x 1.788000 0.000000 -0.024690 
#    y 0.000000 1.750390 0.000000 
#    z -0.024690 0.000000 1.783750 
# 
# From -- ./inp_files/179102.got.cif
#   From: 2010.05.17/outbox.cif.g08.bks.cpg/sg15_90_cif.got.tgz:179102.got - 2010.06.03 18:47:42.
