data_PCOD9306944
_publ_section_title
;
Structure prediction by ZEFSAII (Michael W. Deem and Ramdas Pophale) SiO2 
 PCOD9306944
Probable space group: C 2/C
;
_chemical_formula_sum "Si O2"
_cell_formula_units_Z 56
_cell_length_a 27.567229
_cell_length_b 14.177788
_cell_length_c 9.473772
_cell_angle_alpha 90.000000
_cell_angle_beta 121.230281
_cell_angle_gamma 90.000000
_cell_volume 3166.186785
_symmetry_space_group_name_H-M "C 2/C"
_symmetry_group_IT_number 15
_symmetry_cell_setting 'monoclinic'
loop_
_space_group_symop_operation_xyz
x,y,z
-x,y,1/2-z
-x,-y,-z
x,-y,1/2+z
1/2+x,1/2+y,z
1/2-x,1/2+y,1/2-z
1/2-x,1/2-y,-z
1/2+x,1/2-y,1/2+z
loop_
_atom_site_type_symbol
_atom_site_label
_atom_site_fract_x
_atom_site_fract_y
_atom_site_fract_z
Si Si1 0.755588 0.478143 0.089213
Si Si2 0.715775 0.220930 0.811181
Si Si3 0.179035 0.013871 0.728422
Si Si4 0.788884 0.695501 0.170675
Si Si5 0.389628 0.682149 0.753352
Si Si6 0.502561 0.602826 0.425472
Si Si7 0.103692 0.163858 0.068516
O O1 0.794529 0.391290 0.193294
O O2 0.701386 0.460427 0.108358
O O3 0.779244 0.583207 0.148311
O O4 0.732225 0.471694 0.894850
O O5 0.760801 0.258370 0.765015
O O6 0.655480 0.269397 0.693053
O O7 0.750000 0.250000 0.000000
O O8 0.129606 0.939997 0.629202
O O9 0.156069 0.099077 0.787442
O O10 0.853894 0.724894 0.240180
O O11 0.750000 0.750000 0.000000
O O12 0.407599 0.680504 0.615635
O O13 0.440799 0.655321 0.934589
O O14 0.500000 0.592969 0.250000
O O15 0.500000 0.500000 0.500000
O O16 0.450630 0.663667 0.412092
#
# Coordination Sequence:
#
# PCOD9306944 Si02
#       7
#     8   8   8   8   8   8   8
#     4  12  22  36  56  94 128 168 200 246 307 380
#     4  12  23  35  60  93 130 164 204 259 314 373
#     4  12  20  33  60  86 126 159 199 243 299 367
#     4  12  21  39  60  89 126 168 205 251 313 373
#     4  12  24  40  62  86 126 167 208 256 305 376
#     4  12  28  42  64  90 121 165 213 259 317 375
#     4  12  24  41  58  91 125 166 209 254 309 372
#
# _framework density 17.686892
#
# number of rings (size 3 to 8) (size 9 to 14) (size 15 to 20)
#    0.000    0.000   10.000    1.286    4.000    0.000 
#    0.000    0.000    0.000    0.857    0.000    0.000 
#    0.000    0.000    0.000    0.000    0.000    0.000 
#
# Total GULP energy -156188.720765 kJ/mol
# GULP energy per Si atom -5578.168599 kJ/mol
# Density = 1.764664 g / cm^3
# Si number density = 17.686892 Si / 1000 Ang^3
#
#
#
# Elastic Constant Matrix: (Units=GPa)
#
#
# Indices 1 2 3 4 5 6 
#
# 1 94.0435 32.6202 48.9039 0.0000 -6.2754 0.0000
# 2 32.6202 92.9402 28.7946 0.0000 -1.9607 0.0000
# 3 48.9039 28.7946 128.5900 0.0000 -18.7095 0.0000
# 4 0.0000 0.0000 0.0000 20.1197 0.0000 4.7440
# 5 -6.2754 -1.9607 -18.7095 0.0000 35.7896 0.0000
# 6 0.0000 0.0000 0.0000 4.7440 0.0000 23.0104
#
#
#
# Elastic Compliance Matrix: (Units=1/GPa)
#
#
# Indices 1 2 3 4 5 6 
#
# 1 0.014283 -0.003575 -0.004649 0.000000 -0.000122 0.000000
# 2 -0.003575 0.012477 -0.001543 0.000000 -0.000750 0.000000
# 3 -0.004649 -0.001543 0.010563 0.000000 0.004622 0.000000
# 4 0.000000 0.000000 0.000000 0.052242 0.000000 -0.010771
# 5 -0.000122 -0.000750 0.004622 0.000000 0.030295 0.000000
# 6 0.000000 0.000000 0.000000 -0.010771 0.000000 0.045679
#
#
# Mechanical properties :
#
#
# Convention : Reuss Voigt Hill
#
# Bulk Modulus (GPa) = 56.21990 59.57902 57.89946
# Shear Modulus (GPa) = 26.17759 29.46760 27.82259
#
# Velocity S-wave (km/s) = 3.85132 4.08618 3.97049
# Velocity P-wave (km/s) = 7.18555 7.48472 7.33666
#
# Compressibility (1/GPa) = 0.01778729
#
# Stress axis : x y z
#
# Youngs Moduli (GPa) = 70.01357 80.14891 94.67162
#
# Poissons Ratio (x) = 0.28655 0.44013
# Poissons Ratio (y) = 0.25032 0.14611
# Poissons Ratio (z) = 0.32550 0.12370
#
# Static dielectric constant tensor:
#      x y z
#    x 1.609390 0.000000 0.016840 
#    y 0.000000 1.652900 0.000000 
#    z 0.016840 0.000000 1.591510 
# 
# From -- ./inp_files/55600.got.cif
#   From: 2010.05.17/outbox.cif.g08.bks.cpg/sg15_28_cif.got.tgz:55600.got - 2010.06.03 18:47:42.
