data_PCOD9306644
_publ_section_title
;
Structure prediction by ZEFSAII (Michael W. Deem and Ramdas Pophale) SiO2 
 PCOD9306644
Probable space group: C 2/C
;
_chemical_formula_sum "Si O2"
_cell_formula_units_Z 52
_cell_length_a 13.898911
_cell_length_b 12.323179
_cell_length_c 23.248485
_cell_angle_alpha 90.000000
_cell_angle_beta 37.923429
_cell_angle_gamma 90.000000
_cell_volume 2447.351034
_symmetry_space_group_name_H-M "C 2/C"
_symmetry_group_IT_number 15
_symmetry_cell_setting 'monoclinic'
loop_
_space_group_symop_operation_xyz
x,y,z
-x,y,1/2-z
-x,-y,-z
x,-y,1/2+z
1/2+x,1/2+y,z
1/2-x,1/2+y,1/2-z
1/2-x,1/2-y,-z
1/2+x,1/2-y,1/2+z
loop_
_atom_site_type_symbol
_atom_site_label
_atom_site_fract_x
_atom_site_fract_y
_atom_site_fract_z
Si Si1 0.911879 0.731983 0.997768
Si Si2 0.760034 0.697983 0.308858
Si Si3 0.843079 0.379131 0.650873
Si Si4 0.833247 0.079398 0.814201
Si Si5 0.680850 0.917732 0.063481
Si Si6 0.000000 0.473193 0.750000
Si Si7 0.294571 0.131442 0.500426
O O1 0.894444 0.636411 0.958245
O O2 0.089675 0.775373 0.915007
O O3 0.855208 0.687505 0.085983
O O4 0.799978 0.829354 0.031501
O O5 0.741502 0.669119 0.250558
O O6 0.857539 0.809908 0.267648
O O7 0.857838 0.604789 0.295601
O O8 0.777570 0.496660 0.666098
O O9 0.018984 0.381751 0.591737
O O10 0.000000 0.026800 0.750000
O O11 0.756153 0.113681 0.910459
O O12 0.557753 0.952057 0.170357
O O13 0.769799 0.029188 0.004728
O O14 0.250000 0.250000 0.500000
#
# Coordination Sequence:
#
# PCOD9306644 Si02
#       7
#     8   8   8   8   8   4   8
#     4  11  27  49  71 105 143 187 240 288 356 425
#     4  12  26  45  71 108 139 183 240 294 351 421
#     4  12  26  45  73 103 140 190 235 295 354 420
#     4  12  25  44  71 102 142 181 242 291 352 428
#     4  11  26  47  71 103 146 186 229 294 358 421
#     4  12  26  48  68 104 144 184 230 296 358 418
#     4  12  23  46  72 100 141 187 233 293 358 416
#
# _framework density 21.247461999999999
#
# number of rings (size 3 to 8) (size 9 to 14) (size 15 to 20)
#    0.000    0.308    5.385    3.231    4.308    0.615 
#    0.000    0.000    0.000    0.000    0.000    0.000 
#    0.000    0.000    0.000    0.000    0.000    0.000 
#
# Total GULP energy -145490.037652 kJ/mol
# GULP energy per Si atom -5595.770679 kJ/mol
# Density = 2.119910 g / cm^3
# Si number density = 21.247462 Si / 1000 Ang^3
#
#
#
# Elastic Constant Matrix: (Units=GPa)
#
#
# Indices 1 2 3 4 5 6 
#
# 1 58.1493 39.0244 6.7571 0.0000 4.1632 0.0000
# 2 39.0244 141.4057 32.3212 0.0000 11.4632 0.0000
# 3 6.7571 32.3212 57.4267 -0.0001 20.3242 0.0000
# 4 0.0000 0.0000 -0.0001 33.0917 0.0000 -0.3888
# 5 4.1632 11.4632 20.3242 0.0000 52.3476 0.0000
# 6 0.0000 0.0000 0.0000 -0.3888 0.0000 45.0843
#
#
#
# Elastic Compliance Matrix: (Units=1/GPa)
#
#
# Indices 1 2 3 4 5 6 
#
# 1 0.021179 -0.006054 0.001208 0.000000 -0.000828 0.000000
# 2 -0.006054 0.009846 -0.004912 0.000000 0.000232 0.000000
# 3 0.001208 -0.004912 0.022826 0.000000 -0.007883 0.000000
# 4 0.000000 0.000000 0.000000 0.030222 0.000000 0.000261
# 5 -0.000828 0.000232 -0.007883 0.000000 0.022179 0.000000
# 6 0.000000 0.000000 0.000000 0.000261 0.000000 0.022183
#
#
# Mechanical properties :
#
#
# Convention : Reuss Voigt Hill
#
# Bulk Modulus (GPa) = 29.12390 45.90969 37.51680
# Shear Modulus (GPa) = 31.36876 38.02998 34.69937
#
# Velocity S-wave (km/s) = 3.84650 4.23526 4.04556
# Velocity P-wave (km/s) = 5.78483 6.75060 6.28629
#
# Compressibility (1/GPa) = 0.03433606
#
# Stress axis : x y z
#
# Youngs Moduli (GPa) = 47.21712 101.55992 43.81057
#
# Poissons Ratio (x) = 0.61483 -0.05293
# Poissons Ratio (y) = 0.28585 0.21518
# Poissons Ratio (z) = -0.05705 0.49883
#
# Static dielectric constant tensor:
#      x y z
#    x 1.807010 0.000000 0.000920 
#    y 0.000000 1.756990 0.000000 
#    z 0.000920 0.000000 1.788220 
# 
# From -- ./inp_files/273795.got.cif
#   From: 2010.05.17/outbox.cif.g08.bks.cpg/sg15_137_cif.got.tgz:273795.got - 2010.06.03 18:47:42.
