data_PCOD9306782
_publ_section_title
;
Structure prediction by ZEFSAII (Michael W. Deem and Ramdas Pophale) SiO2 
 PCOD9306782
Probable space group: C 2/C
;
_chemical_formula_sum "Si O2"
_cell_formula_units_Z 60
_cell_length_a 6.864771
_cell_length_b 24.876383
_cell_length_c 15.455331
_cell_angle_alpha 90.000000
_cell_angle_beta 62.531324
_cell_angle_gamma 90.000000
_cell_volume 2341.768933
_symmetry_space_group_name_H-M "C 2/C"
_symmetry_group_IT_number 15
_symmetry_cell_setting 'monoclinic'
loop_
_space_group_symop_operation_xyz
x,y,z
-x,y,1/2-z
-x,-y,-z
x,-y,1/2+z
1/2+x,1/2+y,z
1/2-x,1/2+y,1/2-z
1/2-x,1/2-y,-z
1/2+x,1/2-y,1/2+z
loop_
_atom_site_type_symbol
_atom_site_label
_atom_site_fract_x
_atom_site_fract_y
_atom_site_fract_z
Si Si1 0.204599 0.376283 0.173815
Si Si2 0.299787 0.983526 0.070135
Si Si3 0.214397 0.094048 0.161210
Si Si4 0.500000 0.925887 0.750000
Si Si5 0.618908 0.237299 0.941848
Si Si6 0.702422 0.630755 0.675138
Si Si7 0.179504 0.824837 0.524562
Si Si8 0.204722 0.006126 0.919733
O O1 0.426246 0.373773 0.200242
O O2 0.233364 0.437010 0.135132
O O3 0.926107 0.369887 0.201445
O O4 0.299485 0.335390 0.081729
O O5 0.279739 0.921485 0.103276
O O6 0.208866 0.029918 0.152129
O O7 0.576455 0.995607 0.048511
O O8 0.078211 0.987208 0.042543
O O9 0.412329 0.106639 0.185352
O O10 0.212328 0.119062 0.066774
O O11 0.000000 0.115682 0.250000
O O12 0.299535 0.960727 0.833192
O O13 0.750829 0.191696 0.864857
O O14 0.543362 0.292384 0.910696
O O15 0.750000 0.250000 0.000000
O O16 0.385446 0.210265 0.012802
#
# Coordination Sequence:
#
# PCOD9306782 Si02
#       8
#     8   8   8   4   8   8   8   8
#     4  12  22  44  74 105 146 193 258 316 382 460
#     4  12  22  43  72 104 160 199 242 316 393 466
#     4  12  26  48  71 111 156 202 252 309 399 488
#     4  12  26  40  70 108 154 204 262 306 380 500
#     4  11  26  51  78 106 145 192 260 326 390 454
#     4  12  25  44  75 113 144 196 267 326 379 470
#     4  11  26  51  78 106 151 201 249 330 394 462
#     4  12  24  40  68 109 155 207 251 313 392 468
#
# _framework density 25.621658
#
# number of rings (size 3 to 8) (size 9 to 14) (size 15 to 20)
#    0.000    0.267    4.667    5.200    0.000    1.067 
#    7.200    0.000    0.000    0.000    0.000    0.000 
#    0.000    0.000    0.000    0.000    0.000    0.000 
#
# Total GULP energy -167598.991428 kJ/mol
# GULP energy per Si atom -5586.633048 kJ/mol
# Density = 2.556334 g / cm^3
# Si number density = 25.621658 Si / 1000 Ang^3
#
#
#
# Elastic Constant Matrix: (Units=GPa)
#
#
# Indices 1 2 3 4 5 6 
#
# 1 231.3651 59.0848 84.3687 0.0000 19.9893 0.0000
# 2 59.0848 103.9330 56.5632 0.0000 6.6877 0.0000
# 3 84.3687 56.5632 124.3192 0.0000 8.2818 0.0000
# 4 0.0000 0.0000 0.0000 21.4662 0.0000 -0.5033
# 5 19.9893 6.6877 8.2818 0.0000 84.8139 0.0000
# 6 0.0000 0.0000 0.0000 -0.5033 0.0000 56.6237
#
#
#
# Elastic Compliance Matrix: (Units=1/GPa)
#
#
# Indices 1 2 3 4 5 6 
#
# 1 0.006008 -0.001554 -0.003306 0.000000 -0.000971 0.000000
# 2 -0.001554 0.013207 -0.004941 0.000000 -0.000193 0.000000
# 3 -0.003306 -0.004941 0.012539 0.000000 -0.000056 0.000000
# 4 0.000000 0.000000 0.000000 0.046595 0.000000 0.000414
# 5 -0.000971 -0.000193 -0.000056 0.000000 0.012040 0.000000
# 6 0.000000 0.000000 0.000000 0.000414 0.000000 0.017664
#
#
# Mechanical properties :
#
#
# Convention : Reuss Voigt Hill
#
# Bulk Modulus (GPa) = 82.29221 95.51673 88.90447
# Shear Modulus (GPa) = 37.96333 49.88746 43.92540
#
# Velocity S-wave (km/s) = 3.85345 4.41736 4.14501
# Velocity P-wave (km/s) = 7.21018 7.96103 7.59489
#
# Compressibility (1/GPa) = 0.01215182
#
# Stress axis : x y z
#
# Youngs Moduli (GPa) = 166.43330 75.71928 79.75003
#
# Poissons Ratio (x) = 0.11768 0.26364
# Poissons Ratio (y) = 0.25866 0.39407
# Poissons Ratio (z) = 0.55020 0.37415
#
# Static dielectric constant tensor:
#      x y z
#    x -3.124160 0.000000 15.185820 
#    y 0.000000 1.926860 0.000000 
#    z 15.185820 0.000000 -40.106970 
# 
# From -- ./inp_files/228449.got.cif
#   From: 2010.05.17/outbox.cif.g08.bks.cpg/sg15_115_cif.got.tgz:228449.got - 2010.06.03 18:47:42.
