data_PCOD9306655
_publ_section_title
;
Structure prediction by ZEFSAII (Michael W. Deem and Ramdas Pophale) SiO2 
 PCOD9306655
Probable space group: C 2/C
;
_chemical_formula_sum "Si O2"
_cell_formula_units_Z 36
_cell_length_a 30.440562
_cell_length_b 5.136095
_cell_length_c 15.319098
_cell_angle_alpha 90.000000
_cell_angle_beta 140.919997
_cell_angle_gamma 90.000000
_cell_volume 1509.866334
_symmetry_space_group_name_H-M "C 2/C"
_symmetry_group_IT_number 15
_symmetry_cell_setting 'monoclinic'
loop_
_space_group_symop_operation_xyz
x,y,z
-x,y,1/2-z
-x,-y,-z
x,-y,1/2+z
1/2+x,1/2+y,z
1/2-x,1/2+y,1/2-z
1/2-x,1/2-y,-z
1/2+x,1/2-y,1/2+z
loop_
_atom_site_type_symbol
_atom_site_label
_atom_site_fract_x
_atom_site_fract_y
_atom_site_fract_z
Si Si1 0.069831 0.814845 0.012910
Si Si2 0.060587 0.197294 0.686145
Si Si3 0.000000 0.490712 0.250000
Si Si4 0.794456 0.001261 0.041741
Si Si5 0.209598 0.939116 0.668190
O O1 0.050652 0.658977 0.895653
O O2 0.068745 0.663261 0.104205
O O3 0.142595 0.962649 0.116600
O O4 0.008714 0.026310 0.923479
O O5 0.050375 0.360137 0.759176
O O6 0.128797 0.018524 0.799664
O O7 0.750000 0.250000 0.000000
O O8 0.803735 0.992426 0.953033
O O9 0.750000 0.750000 0.000000
O O10 0.271854 0.137251 0.789942
#
# Coordination Sequence:
#
# PCOD9306655 Si02
#       5
#     8   8   4   8   8
#     4  11  26  47  73 105 147 195 248 308 371 450
#     4  11  26  47  73 108 145 195 251 306 374 451
#     4  12  24  44  76 106 144 192 246 314 370 440
#     4  12  27  48  74 109 150 196 249 310 372 445
#     4  12  27  48  74 109 149 198 248 308 377 445
#
# _framework density 23.843170000000001
#
# number of rings (size 3 to 8) (size 9 to 14) (size 15 to 20)
#    0.000    0.444    0.000    8.000   12.444    0.000 
#    0.000    0.000    0.000    0.000    0.000    0.000 
#    0.000    0.000    0.000    0.000    0.000    0.000 
#
# Total GULP energy -100784.137816 kJ/mol
# GULP energy per Si atom -5599.118768 kJ/mol
# Density = 2.378890 g / cm^3
# Si number density = 23.843170 Si / 1000 Ang^3
#
#
#
# Elastic Constant Matrix: (Units=GPa)
#
#
# Indices 1 2 3 4 5 6 
#
# 1 157.6978 23.8579 57.0710 -0.0004 -20.7778 0.0000
# 2 23.8579 69.0538 2.8293 -0.0010 0.7478 -0.0003
# 3 57.0710 2.8293 82.1189 -0.0004 -15.3744 -0.0001
# 4 -0.0004 -0.0010 -0.0004 36.3224 0.0002 -4.8743
# 5 -20.7778 0.7478 -15.3744 0.0002 77.3191 -0.0001
# 6 0.0000 -0.0003 -0.0001 -4.8743 -0.0001 46.2271
#
#
#
# Elastic Compliance Matrix: (Units=1/GPa)
#
#
# Indices 1 2 3 4 5 6 
#
# 1 0.009124 -0.002920 -0.005999 0.000000 0.001287 0.000000
# 2 -0.002920 0.015441 0.001374 0.000000 -0.000661 0.000000
# 3 -0.005999 0.001374 0.016614 0.000000 0.001678 0.000000
# 4 0.000000 0.000000 0.000000 0.027926 0.000000 0.002945
# 5 0.001287 -0.000661 0.001678 0.000000 0.013619 0.000000
# 6 0.000000 0.000000 0.000000 0.002945 0.000000 0.021943
#
#
# Mechanical properties :
#
#
# Convention : Reuss Voigt Hill
#
# Bulk Modulus (GPa) = 38.33296 52.93186 45.63241
# Shear Modulus (GPa) = 38.92426 46.98122 42.95274
#
# Velocity S-wave (km/s) = 4.04482 4.44376 4.24898
# Velocity P-wave (km/s) = 6.15842 6.96976 6.57661
#
# Compressibility (1/GPa) = 0.02608721
#
# Stress axis : x y z
#
# Youngs Moduli (GPa) = 109.60361 64.76138 60.19141
#
# Poissons Ratio (x) = 0.18913 0.36110
# Poissons Ratio (y) = 0.32008 -0.08269
# Poissons Ratio (z) = 0.65754 -0.08897
#
# Static dielectric constant tensor:
#      x y z
#    x 1.906190 -0.000050 -0.035340 
#    y -0.000050 3.507360 0.000050 
#    z -0.035340 0.000050 1.914430 
# 
# From -- ./inp_files/180259.got.cif
#   From: 2010.05.17/outbox.cif.g08.bks.cpg/sg15_91_cif.got.tgz:180259.got - 2010.06.03 18:47:42.
