data_PCOD9306964
_publ_section_title
;
Structure prediction by ZEFSAII (Michael W. Deem and Ramdas Pophale) SiO2 
 PCOD9306964
Probable space group: C 2/C
;
_chemical_formula_sum "Si O2"
_cell_formula_units_Z 20
_cell_length_a 5.461340
_cell_length_b 14.697716
_cell_length_c 8.779144
_cell_angle_alpha 90.000000
_cell_angle_beta 88.889791
_cell_angle_gamma 90.000000
_cell_volume 704.562790
_symmetry_space_group_name_H-M "C 2/C"
_symmetry_group_IT_number 15
_symmetry_cell_setting 'monoclinic'
loop_
_space_group_symop_operation_xyz
x,y,z
-x,y,1/2-z
-x,-y,-z
x,-y,1/2+z
1/2+x,1/2+y,z
1/2-x,1/2+y,1/2-z
1/2-x,1/2-y,-z
1/2+x,1/2-y,1/2+z
loop_
_atom_site_type_symbol
_atom_site_label
_atom_site_fract_x
_atom_site_fract_y
_atom_site_fract_z
Si Si1 0.000000 0.964751 0.250000
Si Si2 0.138963 0.578306 0.409040
Si Si3 0.753048 0.215091 0.652402
O O1 0.209916 0.897381 0.309158
O O2 0.100286 0.035472 0.127317
O O3 0.180295 0.683155 0.467699
O O4 0.000000 0.583979 0.250000
O O5 0.000000 0.500000 0.500000
O O6 0.500000 0.240865 0.750000
O O7 0.000000 0.236317 0.750000
#
# Coordination Sequence:
#
# PCOD9306964 Si02
#       3
#     4   8   8
#     4  12  20  38  70  80 124 170 180 250 316 322
#     4   9  22  40  58  87 123 151 203 245 289 356
#     4   8  23  40  55  95 118 151 210 241 280 373
#
# _framework density 28.386398
#
# number of rings (size 3 to 8) (size 9 to 14) (size 15 to 20)
#    2.400    0.000    0.000    1.200    0.000   12.800 
#    0.000    0.000    0.000    0.000    0.000    0.000 
#    0.000    0.000    0.000    0.000    0.000    0.000 
#
# Total GULP energy -55767.612070 kJ/mol
# GULP energy per Si atom -5576.761207 kJ/mol
# Density = 2.832179 g / cm^3
# Si number density = 28.386398 Si / 1000 Ang^3
#
#
#
# Elastic Constant Matrix: (Units=GPa)
#
#
# Indices 1 2 3 4 5 6 
#
# 1 192.8695 72.5008 121.3152 0.0000 9.2821 0.0000
# 2 72.5008 311.3986 139.3384 0.0000 26.1094 0.0000
# 3 121.3152 139.3384 242.1037 0.0000 16.4452 0.0000
# 4 0.0000 0.0000 0.0000 84.2187 0.0000 7.7374
# 5 9.2821 26.1094 16.4452 0.0000 87.7421 0.0000
# 6 0.0000 0.0000 0.0000 7.7374 0.0000 43.2613
#
#
#
# Elastic Compliance Matrix: (Units=1/GPa)
#
#
# Indices 1 2 3 4 5 6 
#
# 1 0.007573 -0.000082 -0.003742 0.000000 -0.000075 0.000000
# 2 -0.000082 0.004387 -0.002426 0.000000 -0.000842 0.000000
# 3 -0.003742 -0.002426 0.007421 0.000000 -0.000273 0.000000
# 4 0.000000 0.000000 0.000000 0.012072 0.000000 -0.002159
# 5 -0.000075 -0.000842 -0.000273 0.000000 0.011707 0.000000
# 6 0.000000 0.000000 0.000000 -0.002159 0.000000 0.023502
#
#
# Mechanical properties :
#
#
# Convention : Reuss Voigt Hill
#
# Bulk Modulus (GPa) = 145.37552 156.96451 151.17001
# Shear Modulus (GPa) = 61.38260 70.59223 65.98742
#
# Velocity S-wave (km/s) = 4.65520 4.99223 4.82666
# Velocity P-wave (km/s) = 8.95649 9.41517 9.18870
#
# Compressibility (1/GPa) = 0.00687874
#
# Stress axis : x y z
#
# Youngs Moduli (GPa) = 132.04044 227.96007 134.75866
#
# Poissons Ratio (x) = 0.01878 0.50433
# Poissons Ratio (y) = 0.01088 0.32696
# Poissons Ratio (z) = 0.49415 0.55309
#
# Static dielectric constant tensor:
#      x y z
#    x 2.458370 0.000000 0.496280 
#    y 0.000000 2.280140 0.000000 
#    z 0.496280 0.000000 3.078170 
# 
# From -- ./inp_files/19018.got.cif
#   From: 2010.05.17/outbox.cif.g08.bks.cpg/sg15_10_cif.got.tgz:19018.got - 2010.06.03 18:47:42.
