data_PCOD9306848
_publ_section_title
;
Structure prediction by ZEFSAII (Michael W. Deem and Ramdas Pophale) SiO2 
 PCOD9306848
Probable space group: C 2/C
;
_chemical_formula_sum "Si O2"
_cell_formula_units_Z 48
_cell_length_a 26.972136
_cell_length_b 5.083336
_cell_length_c 14.005016
_cell_angle_alpha 90.000000
_cell_angle_beta 111.668080
_cell_angle_gamma 90.000000
_cell_volume 1784.520976
_symmetry_space_group_name_H-M "C 2/C"
_symmetry_group_IT_number 15
_symmetry_cell_setting 'monoclinic'
loop_
_space_group_symop_operation_xyz
x,y,z
-x,y,1/2-z
-x,-y,-z
x,-y,1/2+z
1/2+x,1/2+y,z
1/2-x,1/2+y,1/2-z
1/2-x,1/2-y,-z
1/2+x,1/2-y,1/2+z
loop_
_atom_site_type_symbol
_atom_site_label
_atom_site_fract_x
_atom_site_fract_y
_atom_site_fract_z
Si Si1 0.448694 0.553680 0.328646
Si Si2 0.350121 0.792477 0.745977
Si Si3 0.459809 0.804918 0.529576
Si Si4 0.262436 0.857910 0.404519
Si Si5 0.169710 0.139026 0.565655
Si Si6 0.600687 0.153924 0.860577
O O1 0.402701 0.367400 0.255620
O O2 0.431568 0.660562 0.420720
O O3 0.503540 0.403735 0.387143
O O4 0.446160 0.775848 0.246894
O O5 0.292787 0.661380 0.691251
O O6 0.356451 0.794591 0.864114
O O7 0.354284 0.041819 0.679821
O O8 0.500000 0.000000 0.500000
O O9 0.423022 0.955997 0.577531
O O10 0.250000 0.750000 0.500000
O O11 0.305494 0.646447 0.395128
O O12 0.283641 0.152975 0.425687
O O13 0.129406 0.129980 0.447845
#
# Coordination Sequence:
#
# PCOD9306848 Si02
#       6
#     8   8   8   8   8   8
#     4  11  27  49  81 107 157 203 264 328 407 475
#     4  12  28  46  76 114 155 208 268 324 404 471
#     4  11  27  53  76 115 154 203 263 332 404 477
#     4  12  26  50  79 114 159 213 263 331 393 478
#     4  12  28  49  78 116 166 207 266 330 400 476
#     4  12  27  47  80 115 154 206 266 330 401 489
#
# _framework density 26.897973
#
# number of rings (size 3 to 8) (size 9 to 14) (size 15 to 20)
#    0.000    0.333    1.667    5.500    7.000    6.667 
#    0.000    0.000    0.000    0.000    0.000    0.000 
#    0.000    0.000    0.000    0.000    0.000    0.000 
#
# Total GULP energy -134533.809594 kJ/mol
# GULP energy per Si atom -5605.575400 kJ/mol
# Density = 2.683675 g / cm^3
# Si number density = 26.897973 Si / 1000 Ang^3
#
#
#
# Elastic Constant Matrix: (Units=GPa)
#
#
# Indices 1 2 3 4 5 6 
#
# 1 85.0239 18.8293 34.8706 0.0000 1.3809 0.0000
# 2 18.8293 86.7891 33.2613 0.0000 16.0216 0.0000
# 3 34.8706 33.2613 208.3513 0.0000 10.5734 0.0000
# 4 0.0000 0.0000 0.0000 50.7134 0.0000 -0.0177
# 5 1.3809 16.0216 10.5734 0.0000 50.0193 0.0000
# 6 0.0000 0.0000 0.0000 -0.0177 0.0000 42.5084
#
#
#
# Elastic Compliance Matrix: (Units=1/GPa)
#
#
# Indices 1 2 3 4 5 6 
#
# 1 0.013009 -0.002250 -0.001856 0.000000 0.000754 0.000000
# 2 -0.002250 0.013321 -0.001553 0.000000 -0.003876 0.000000
# 3 -0.001856 -0.001553 0.005388 0.000000 -0.000590 0.000000
# 4 0.000000 0.000000 0.000000 0.019719 0.000000 0.000008
# 5 0.000754 -0.003876 -0.000590 0.000000 0.021338 0.000000
# 6 0.000000 0.000000 0.000000 0.000008 0.000000 0.023525
#
#
# Mechanical properties :
#
#
# Convention : Reuss Voigt Hill
#
# Bulk Modulus (GPa) = 49.02233 61.56521 55.29377
# Shear Modulus (GPa) = 43.69923 48.19508 45.94716
#
# Velocity S-wave (km/s) = 4.03504 4.23753 4.13752
# Velocity P-wave (km/s) = 6.32247 6.84692 6.58991
#
# Compressibility (1/GPa) = 0.02039887
#
# Stress axis : x y z
#
# Youngs Moduli (GPa) = 76.87125 75.06800 185.59144
#
# Poissons Ratio (x) = 0.16891 0.34451
# Poissons Ratio (y) = 0.17297 0.28828
# Poissons Ratio (z) = 0.14269 0.11660
#
# Static dielectric constant tensor:
#      x y z
#    x 2.189250 0.000000 0.035690 
#    y 0.000000 2.236960 0.000000 
#    z 0.035690 0.000000 2.061770 
# 
# From -- ./inp_files/180218.got.cif
#   From: 2010.05.17/outbox.cif.g08.bks.cpg/sg15_91_cif.got.tgz:180218.got - 2010.06.03 18:47:42.
