data_PCOD9306796
_publ_section_title
;
Structure prediction by ZEFSAII (Michael W. Deem and Ramdas Pophale) SiO2 
 PCOD9306796
Probable space group: C 2/C
;
_chemical_formula_sum "Si O2"
_cell_formula_units_Z 32
_cell_length_a 14.737827
_cell_length_b 11.833523
_cell_length_c 16.662953
_cell_angle_alpha 90.000000
_cell_angle_beta 24.142614
_cell_angle_gamma 90.000000
_cell_volume 1188.591544
_symmetry_space_group_name_H-M "C 2/C"
_symmetry_group_IT_number 15
_symmetry_cell_setting 'monoclinic'
loop_
_space_group_symop_operation_xyz
x,y,z
-x,y,1/2-z
-x,-y,-z
x,-y,1/2+z
1/2+x,1/2+y,z
1/2-x,1/2+y,1/2-z
1/2-x,1/2-y,-z
1/2+x,1/2-y,1/2+z
loop_
_atom_site_type_symbol
_atom_site_label
_atom_site_fract_x
_atom_site_fract_y
_atom_site_fract_z
Si Si1 0.422163 0.851008 0.066638
Si Si2 0.189595 0.093074 0.366092
Si Si3 0.040656 0.751129 0.636736
Si Si4 0.496003 0.517718 0.846897
O O1 0.608125 0.905859 0.858977
O O2 0.406255 0.718901 0.058182
O O3 0.801979 0.090471 0.781040
O O4 0.471050 0.840335 0.123413
O O5 0.227168 0.059376 0.428436
O O6 0.000000 0.000000 0.500000
O O7 0.322349 0.763616 0.381931
O O8 0.982465 0.882149 0.662394
O O9 0.500000 0.539125 0.750000
#
# Coordination Sequence:
#
# PCOD9306796 Si02
#       4
#     8   8   8   8
#     4  12  26  53  89 116 172 228 278 362 426 512
#     4  12  26  50  84 122 167 221 286 344 439 507
#     4  11  26  54  85 125 167 218 289 354 427 513
#     4  11  28  54  84 125 169 221 290 349 431 519
#
# _framework density 26.922622
#
# number of rings (size 3 to 8) (size 9 to 14) (size 15 to 20)
#    0.000    0.500    5.000    1.500    3.500    3.000 
#   13.500    0.000    0.000    0.000    0.000    0.000 
#    0.000    0.000    0.000    0.000    0.000    0.000 
#
# Total GULP energy -89473.005474 kJ/mol
# GULP energy per Si atom -5592.062842 kJ/mol
# Density = 2.686134 g / cm^3
# Si number density = 26.922622 Si / 1000 Ang^3
#
#
#
# Elastic Constant Matrix: (Units=GPa)
#
#
# Indices 1 2 3 4 5 6 
#
# 1 185.8869 85.4482 121.0820 0.0006 24.3293 -0.0008
# 2 85.4482 174.4091 85.9690 -0.0082 9.1041 0.0042
# 3 121.0820 85.9690 272.0131 -0.0152 48.6160 0.0065
# 4 0.0006 -0.0082 -0.0152 -88.3301 0.0038 74.7290
# 5 24.3293 9.1041 48.6160 0.0038 78.5927 -0.0008
# 6 -0.0008 0.0042 0.0065 74.7290 -0.0008 14.5433
#
#
#
# Elastic Compliance Matrix: (Units=1/GPa)
#
#
# Indices 1 2 3 4 5 6 
#
# 1 0.008580 -0.002774 -0.002839 0.000001 -0.000578 0.000000
# 2 -0.002774 0.007714 -0.001346 0.000000 0.000798 0.000000
# 3 -0.002839 -0.001346 0.005824 -0.000001 -0.002568 0.000001
# 4 0.000001 0.000000 -0.000001 -0.002117 0.000000 0.010879
# 5 -0.000578 0.000798 -0.002568 0.000000 0.014399 -0.000001
# 6 0.000000 0.000000 0.000001 0.010879 -0.000001 0.012859
#
#
# Mechanical properties :
#
#
# Convention : Reuss Voigt Hill
#
# Bulk Modulus (GPa) = 121.93857 135.25640 128.59749
# Shear Modulus (GPa) = 78.23395 23.61518 50.92456
#
# Velocity S-wave (km/s) = 5.39647 2.96488 4.35387
# Velocity P-wave (km/s) = 9.17713 7.87837 8.55244
#
# Compressibility (1/GPa) = 0.00820085
#
# Stress axis : x y z
#
# Youngs Moduli (GPa) = 116.55446 129.62709 171.69066
#
# Poissons Ratio (x) = 0.35956 0.48744
# Poissons Ratio (y) = 0.32330 0.23109
# Poissons Ratio (z) = 0.33090 0.17447
#
# Static dielectric constant tensor:
#      x y z
#    x 2.361580 0.000000 0.161710 
#    y 0.000000 1.981780 0.000000 
#    z 0.161710 0.000000 2.413640 
# 
# From -- ./inp_files/252479.got.cif
#   From: 2010.05.17/outbox.cif.g08.bks.cpg/sg15_127_cif.got.tgz:252479.got - 2010.06.03 18:47:42.
