data_PCOD9306619
_publ_section_title
;
Structure prediction by ZEFSAII (Michael W. Deem and Ramdas Pophale) SiO2 
 PCOD9306619
Probable space group: C 2/C
;
_chemical_formula_sum "Si O2"
_cell_formula_units_Z 44
_cell_length_a 13.497673
_cell_length_b 11.329232
_cell_length_c 15.415456
_cell_angle_alpha 90.000000
_cell_angle_beta 114.711450
_cell_angle_gamma 90.000000
_cell_volume 2141.433836
_symmetry_space_group_name_H-M "C 2/C"
_symmetry_group_IT_number 15
_symmetry_cell_setting 'monoclinic'
loop_
_space_group_symop_operation_xyz
x,y,z
-x,y,1/2-z
-x,-y,-z
x,-y,1/2+z
1/2+x,1/2+y,z
1/2-x,1/2+y,1/2-z
1/2-x,1/2-y,-z
1/2+x,1/2-y,1/2+z
loop_
_atom_site_type_symbol
_atom_site_label
_atom_site_fract_x
_atom_site_fract_y
_atom_site_fract_z
Si Si1 0.500000 0.980843 0.250000
Si Si2 0.709271 0.144746 0.298167
Si Si3 0.887932 0.123248 0.656671
Si Si4 0.568801 0.620559 0.025098
Si Si5 0.424382 0.804281 0.079162
Si Si6 0.764847 0.875209 0.617381
O O1 0.485969 0.898408 0.160863
O O2 0.606056 0.061959 0.278618
O O3 0.680193 0.274580 0.321913
O O4 0.814734 0.098682 0.388038
O O5 0.734848 0.147437 0.205819
O O6 0.915188 0.159613 0.568225
O O7 0.000000 0.104843 0.750000
O O8 0.820978 0.002221 0.629404
O O9 0.505719 0.719291 0.056851
O O10 0.500000 0.500000 0.000000
O O11 0.349993 0.722357 0.114115
O O12 0.341976 0.865497 0.981552
#
# Coordination Sequence:
#
# PCOD9306619 Si02
#       6
#     4   8   8   8   8   8
#     4  12  28  48  68 106 146 186 236 288 358 420
#     4  12  28  47  72 104 145 188 236 295 350 421
#     4  12  25  48  72 104 144 186 241 289 351 418
#     4  12  25  48  74 105 142 185 239 292 353 423
#     4  11  26  47  73 105 142 186 232 292 357 419
#     4  11  26  46  74 104 142 187 236 290 353 424
#
# _framework density 20.546980999999999
#
# number of rings (size 3 to 8) (size 9 to 14) (size 15 to 20)
#    0.000    0.364    2.727    4.909    8.909    0.727 
#    0.000    0.000    0.000    0.000    0.000    0.000 
#    0.000    0.000    0.000    0.000    0.000    0.000 
#
# Total GULP energy -123311.731490 kJ/mol
# GULP energy per Si atom -5605.078704 kJ/mol
# Density = 2.050022 g / cm^3
# Si number density = 20.546981 Si / 1000 Ang^3
#
#
#
# Elastic Constant Matrix: (Units=GPa)
#
#
# Indices 1 2 3 4 5 6 
#
# 1 134.5035 47.3251 89.5530 0.0000 9.5679 0.0000
# 2 47.3251 97.6661 62.4173 0.0000 21.5176 0.0000
# 3 89.5530 62.4173 167.2383 0.0000 6.7018 0.0000
# 4 0.0000 0.0000 0.0000 35.8450 0.0000 21.2536
# 5 9.5679 21.5176 6.7018 0.0000 57.9249 0.0000
# 6 0.0000 0.0000 0.0000 21.2536 0.0000 -27.2400
#
#
#
# Elastic Compliance Matrix: (Units=1/GPa)
#
#
# Indices 1 2 3 4 5 6 
#
# 1 0.011928 -0.002090 -0.005585 0.000000 -0.000548 0.000000
# 2 -0.002090 0.015051 -0.004308 0.000000 -0.004747 0.000000
# 3 -0.005585 -0.004308 0.010526 0.000000 0.001305 0.000000
# 4 0.000000 0.000000 0.000000 0.019074 0.000000 0.014882
# 5 -0.000548 -0.004747 0.001305 0.000000 0.018967 0.000000
# 6 0.000000 0.000000 0.000000 0.014882 0.000000 -0.025099
#
#
# Mechanical properties :
#
#
# Convention : Reuss Voigt Hill
#
# Bulk Modulus (GPa) = 73.86382 88.66651 81.26517
# Shear Modulus (GPa) = 63.35227 26.64684 44.99955
#
# Velocity S-wave (km/s) = 5.55876 3.60512 4.68491
# Velocity P-wave (km/s) = 8.78786 7.78305 8.30068
#
# Compressibility (1/GPa) = 0.01353843
#
# Stress axis : x y z
#
# Youngs Moduli (GPa) = 83.83958 66.44232 95.00429
#
# Poissons Ratio (x) = 0.13883 0.53062
# Poissons Ratio (y) = 0.17518 0.40929
# Poissons Ratio (z) = 0.46826 0.28624
#
# Static dielectric constant tensor:
#      x y z
#    x 1.706060 0.000000 0.002330 
#    y 0.000000 1.694930 0.000000 
#    z 0.002330 0.000000 1.701550 
# 
# From -- ./inp_files/152269.got.cif
#   From: 2010.05.17/outbox.cif.g08.bks.cpg/sg15_77_cif.got.tgz:152269.got - 2010.06.03 18:47:42.
