data_PCOD9306488
_publ_section_title
;
Structure prediction by ZEFSAII (Michael W. Deem and Ramdas Pophale) SiO2 
 PCOD9306488
Probable space group: C 2/C
;
_chemical_formula_sum "Si O2"
_cell_formula_units_Z 32
_cell_length_a 6.526291
_cell_length_b 15.390526
_cell_length_c 13.613451
_cell_angle_alpha 90.000000
_cell_angle_beta 71.114207
_cell_angle_gamma 90.000000
_cell_volume 1293.764726
_symmetry_space_group_name_H-M "C 2/C"
_symmetry_group_IT_number 15
_symmetry_cell_setting 'monoclinic'
loop_
_space_group_symop_operation_xyz
x,y,z
-x,y,1/2-z
-x,-y,-z
x,-y,1/2+z
1/2+x,1/2+y,z
1/2-x,1/2+y,1/2-z
1/2-x,1/2-y,-z
1/2+x,1/2-y,1/2+z
loop_
_atom_site_type_symbol
_atom_site_label
_atom_site_fract_x
_atom_site_fract_y
_atom_site_fract_z
Si Si1 0.155413 0.044123 0.803124
Si Si2 0.826525 0.830788 0.858284
Si Si3 0.518347 0.990986 0.881729
Si Si4 0.470774 0.690255 0.966789
O O1 0.000000 0.995594 0.750000
O O2 0.004582 0.114241 0.880625
O O3 0.285835 0.992830 0.866283
O O4 0.349200 0.066860 0.695773
O O5 0.653749 0.902991 0.848352
O O6 0.669148 0.752300 0.908743
O O7 0.000000 0.806149 0.750000
O O8 0.963039 0.848906 0.936976
O O9 0.500000 0.000000 0.000000
O O10 0.250000 0.750000 0.000000
#
# Coordination Sequence:
#
# PCOD9306488 Si02
#       4
#     8   8   8   8
#     4  11  27  46  77 115 157 210 265 342 405 480
#     4  11  27  50  76 115 158 215 270 338 401 494
#     4  11  25  49  77 110 157 210 274 324 402 491
#     4  11  28  47  80 115 163 212 269 333 418 491
#
# _framework density 24.734020999999998
#
# number of rings (size 3 to 8) (size 9 to 14) (size 15 to 20)
#    0.000    1.000    2.500    0.750   10.500    7.000 
#    0.000    0.000    0.000    0.000    0.000    0.000 
#    0.000    0.000    0.000    0.000    0.000    0.000 
#
# Total GULP energy -89227.671980 kJ/mol
# GULP energy per Si atom -5576.729499 kJ/mol
# Density = 2.467772 g / cm^3
# Si number density = 24.734021 Si / 1000 Ang^3
#
#
#
# Elastic Constant Matrix: (Units=GPa)
#
#
# Indices 1 2 3 4 5 6 
#
# 1 226.6250 73.2597 87.6397 0.0000 26.2823 0.0000
# 2 73.2597 59.3005 41.6857 0.0000 1.5432 0.0000
# 3 87.6397 41.6857 199.3277 0.0000 5.4491 0.0000
# 4 0.0000 0.0000 0.0000 40.3658 0.0000 -15.8339
# 5 26.2823 1.5432 5.4491 0.0000 60.1040 0.0000
# 6 0.0000 0.0000 0.0000 -15.8339 0.0000 46.8879
#
#
#
# Elastic Compliance Matrix: (Units=1/GPa)
#
#
# Indices 1 2 3 4 5 6 
#
# 1 0.008385 -0.009079 -0.001698 0.000000 -0.003279 0.000000
# 2 -0.009079 0.029602 -0.002292 0.000000 0.003418 0.000000
# 3 -0.001698 -0.002292 0.006236 0.000000 0.000236 0.000000
# 4 0.000000 0.000000 0.000000 0.028556 0.000000 0.009643
# 5 -0.003279 0.003418 0.000236 0.000000 0.017963 0.000000
# 6 0.000000 0.000000 0.000000 0.009643 0.000000 0.024584
#
#
# Mechanical properties :
#
#
# Convention : Reuss Voigt Hill
#
# Bulk Modulus (GPa) = 55.29762 98.93594 77.11678
# Shear Modulus (GPa) = 33.89987 48.31607 41.10797
#
# Velocity S-wave (km/s) = 3.70615 4.42455 4.08119
# Velocity P-wave (km/s) = 6.38118 8.13566 7.31124
#
# Compressibility (1/GPa) = 0.01808396
#
# Stress axis : x y z
#
# Youngs Moduli (GPa) = 119.26664 33.78128 160.34887
#
# Poissons Ratio (x) = 0.30671 0.27229
# Poissons Ratio (y) = 1.08285 0.36756
# Poissons Ratio (z) = 0.20253 0.07743
#
# Static dielectric constant tensor:
#      x y z
#    x 2.023850 0.000000 -0.037340 
#    y 0.000000 2.063750 0.000000 
#    z -0.037340 0.000000 2.039780 
# 
# From -- ./inp_files/128284.got.cif
#   From: 2010.05.17/outbox.cif.g08.bks.cpg/sg15_65_cif.got.tgz:128284.got - 2010.06.03 18:47:42.
