data_PCOD9306595
_publ_section_title
;
Structure prediction by ZEFSAII (Michael W. Deem and Ramdas Pophale) SiO2 
 PCOD9306595
Probable space group: C 2/C
;
_chemical_formula_sum "Si O2"
_cell_formula_units_Z 44
_cell_length_a 16.739978
_cell_length_b 11.669535
_cell_length_c 26.103812
_cell_angle_alpha 90.000000
_cell_angle_beta 156.992513
_cell_angle_gamma 90.000000
_cell_volume 1993.076874
_symmetry_space_group_name_H-M "C 2/C"
_symmetry_group_IT_number 15
_symmetry_cell_setting 'monoclinic'
loop_
_space_group_symop_operation_xyz
x,y,z
-x,y,1/2-z
-x,-y,-z
x,-y,1/2+z
1/2+x,1/2+y,z
1/2-x,1/2+y,1/2-z
1/2-x,1/2-y,-z
1/2+x,1/2-y,1/2+z
loop_
_atom_site_type_symbol
_atom_site_label
_atom_site_fract_x
_atom_site_fract_y
_atom_site_fract_z
Si Si1 0.130972 0.396756 0.053393
Si Si2 0.745612 0.536669 0.200801
Si Si3 0.622188 0.322178 0.065812
Si Si4 0.185539 0.618689 0.466733
Si Si5 0.000000 0.190616 0.250000
Si Si6 0.935666 0.993993 0.801128
O O1 0.335935 0.403543 0.208739
O O2 0.184261 0.414850 0.025990
O O3 0.000000 0.500000 0.000000
O O4 0.000468 0.282089 0.981090
O O5 0.727555 0.407748 0.168549
O O6 0.723831 0.539854 0.249165
O O7 0.962424 0.591109 0.313403
O O8 0.553340 0.606930 0.066330
O O9 0.796950 0.268155 0.132805
O O10 0.250000 0.750000 0.500000
O O11 0.365684 0.539316 0.551584
O O12 0.985823 0.108826 0.291650
#
# Coordination Sequence:
#
# PCOD9306595 Si02
#       6
#     8   8   8   8   4   8
#     4  12  21  46  68  99 144 178 233 291 353 417
#     4  11  27  47  67 104 146 185 236 293 362 422
#     4  11  26  46  68 100 145 190 227 302 354 419
#     4  12  24  43  72 107 135 186 237 290 352 425
#     4  12  24  44  72 104 142 186 242 286 358 426
#     4  12  24  44  72 105 137 183 238 291 350 426
#
# _framework density 22.076419000000001
#
# number of rings (size 3 to 8) (size 9 to 14) (size 15 to 20)
#    0.000    0.364    5.455    2.182    2.545    2.182 
#    0.000    0.000    0.000    0.000    0.000    0.000 
#    0.000    0.000    0.000    0.000    0.000    0.000 
#
# Total GULP energy -123075.119101 kJ/mol
# GULP energy per Si atom -5594.323596 kJ/mol
# Density = 2.202617 g / cm^3
# Si number density = 22.076419 Si / 1000 Ang^3
#
#
#
# Elastic Constant Matrix: (Units=GPa)
#
#
# Indices 1 2 3 4 5 6 
#
# 1 43.9083 23.1144 11.1842 0.0011 1.4299 -0.0004
# 2 23.1144 134.4841 50.4204 0.0024 9.8411 0.0005
# 3 11.1842 50.4204 142.2949 0.0092 22.5872 -0.0008
# 4 0.0011 0.0024 0.0092 44.4202 -0.0011 14.1597
# 5 1.4299 9.8411 22.5872 -0.0011 34.8061 -0.0018
# 6 -0.0004 0.0005 -0.0008 14.1597 -0.0018 28.1337
#
#
#
# Elastic Compliance Matrix: (Units=1/GPa)
#
#
# Indices 1 2 3 4 5 6 
#
# 1 0.025081 -0.004127 -0.000592 0.000000 0.000520 0.000001
# 2 -0.004127 0.009262 -0.002864 0.000000 -0.000591 -0.000001
# 3 -0.000592 -0.002864 0.008870 -0.000002 -0.004922 0.000001
# 4 0.000000 0.000000 -0.000002 0.026814 0.000001 -0.013496
# 5 0.000520 -0.000591 -0.004922 0.000001 0.032071 0.000001
# 6 0.000001 -0.000001 0.000001 -0.013496 0.000001 0.042337
#
#
# Mechanical properties :
#
#
# Convention : Reuss Voigt Hill
#
# Bulk Modulus (GPa) = 35.65241 54.45836 45.05538
# Shear Modulus (GPa) = 29.59469 37.20324 33.39896
#
# Velocity S-wave (km/s) = 3.66533 4.10958 3.89379
# Velocity P-wave (km/s) = 5.83931 6.87312 6.37720
#
# Compressibility (1/GPa) = 0.02804859
#
# Stress axis : x y z
#
# Youngs Moduli (GPa) = 39.87071 107.96745 112.73679
#
# Poissons Ratio (x) = 0.44559 0.06669
# Poissons Ratio (y) = 0.16455 0.32285
# Poissons Ratio (z) = 0.02359 0.30919
#
# Static dielectric constant tensor:
#      x y z
#    x 2.100110 0.000000 -0.276100 
#    y 0.000000 1.790920 0.000000 
#    z -0.276100 0.000000 2.144290 
# 
# From -- ./inp_files/316281.got.cif
#   From: 2010.05.17/outbox.cif.g08.bks.cpg/sg15_159_cif.got.tgz:316281.got - 2010.06.03 18:47:42.
