data_PCOD9306304
_publ_section_title
;
Structure prediction by ZEFSAII (Michael W. Deem and Ramdas Pophale) SiO2 
 PCOD9306304
Probable space group: C 2/C
;
_chemical_formula_sum "Si O2"
_cell_formula_units_Z 44
_cell_length_a 13.080835
_cell_length_b 13.762711
_cell_length_c 11.235320
_cell_angle_alpha 90.000000
_cell_angle_beta 97.689651
_cell_angle_gamma 90.000000
_cell_volume 2004.480312
_symmetry_space_group_name_H-M "C 2/C"
_symmetry_group_IT_number 15
_symmetry_cell_setting 'monoclinic'
loop_
_space_group_symop_operation_xyz
x,y,z
-x,y,1/2-z
-x,-y,-z
x,-y,1/2+z
1/2+x,1/2+y,z
1/2-x,1/2+y,1/2-z
1/2-x,1/2-y,-z
1/2+x,1/2-y,1/2+z
loop_
_atom_site_type_symbol
_atom_site_label
_atom_site_fract_x
_atom_site_fract_y
_atom_site_fract_z
Si Si1 0.837202 0.260435 0.908019
Si Si2 0.511586 0.923575 0.893540
Si Si3 0.907186 0.070709 0.020073
Si Si4 0.806250 0.257481 0.333029
Si Si5 0.500000 0.690984 0.250000
Si Si6 0.754462 0.595676 0.002158
O O1 0.770462 0.276298 0.780615
O O2 0.927492 0.340998 0.916993
O O3 0.750000 0.250000 0.000000
O O4 0.892891 0.156316 0.922852
O O5 0.500000 0.949874 0.750000
O O6 0.632317 0.897603 0.923797
O O7 0.500000 0.000000 0.000000
O O8 0.937725 0.123148 0.148353
O O9 0.802900 0.006748 0.008403
O O10 0.000000 0.000000 0.000000
O O11 0.920669 0.260658 0.302764
O O12 0.767781 0.360513 0.373507
O O13 0.810562 0.175733 0.435805
#
# Coordination Sequence:
#
# PCOD9306304 Si02
#       6
#     8   8   8   8   4   8
#     4  12  26  49  76 110 151 209 255 321 393 470
#     4  12  28  50  79 114 158 207 263 319 396 472
#     4  12  27  44  76 110 149 195 256 312 384 457
#     4  11  25  46  76 103 154 193 257 312 387 462
#     4  12  24  48  72 110 146 202 254 314 380 466
#     4  11  26  48  71 111 147 198 252 323 379 462
#
# _framework density 21.950824999999998
#
# number of rings (size 3 to 8) (size 9 to 14) (size 15 to 20)
#    0.000    0.364    5.455    2.182    5.091    2.909 
#    1.636    0.000    0.000    0.000    0.000    0.000 
#    0.000    0.000    0.000    0.000    0.000    0.000 
#
# Total GULP energy -122867.937550 kJ/mol
# GULP energy per Si atom -5584.906252 kJ/mol
# Density = 2.190086 g / cm^3
# Si number density = 21.950825 Si / 1000 Ang^3
#
#
#
# Elastic Constant Matrix: (Units=GPa)
#
#
# Indices 1 2 3 4 5 6 
#
# 1 150.6124 55.7897 46.5584 0.0000 -5.2667 0.0000
# 2 55.7897 123.3464 44.2329 0.0000 -9.6214 0.0000
# 3 46.5584 44.2329 78.9980 0.0000 -5.8929 0.0000
# 4 0.0000 0.0000 0.0000 24.3049 0.0000 -1.1820
# 5 -5.2667 -9.6214 -5.8929 0.0000 38.2877 0.0000
# 6 0.0000 0.0000 0.0000 -1.1820 0.0000 39.5194
#
#
#
# Elastic Compliance Matrix: (Units=1/GPa)
#
#
# Indices 1 2 3 4 5 6 
#
# 1 0.008756 -0.002641 -0.003683 0.000000 -0.000026 0.000000
# 2 -0.002641 0.011051 -0.004503 0.000000 0.001721 0.000000
# 3 -0.003683 -0.004503 0.017428 0.000000 0.001044 0.000000
# 4 0.000000 0.000000 0.000000 0.041204 0.000000 0.001232
# 5 -0.000026 0.001721 0.001044 0.000000 0.026708 0.000000
# 6 0.000000 0.000000 0.000000 0.001232 0.000000 0.025341
#
#
# Mechanical properties :
#
#
# Convention : Reuss Voigt Hill
#
# Bulk Modulus (GPa) = 64.18305 71.79099 67.98702
# Shear Modulus (GPa) = 31.77937 34.18079 32.98008
#
# Velocity S-wave (km/s) = 3.80906 3.95036 3.88035
# Velocity P-wave (km/s) = 6.97483 7.32007 7.14954
#
# Compressibility (1/GPa) = 0.01558044
#
# Stress axis : x y z
#
# Youngs Moduli (GPa) = 114.21191 90.49110 57.37808
#
# Poissons Ratio (x) = 0.23902 0.21134
# Poissons Ratio (y) = 0.30168 0.25835
# Poissons Ratio (z) = 0.42067 0.40744
#
# Static dielectric constant tensor:
#      x y z
#    x 1.863410 0.000000 -0.031450 
#    y 0.000000 1.846140 0.000000 
#    z -0.031450 0.000000 1.823190 
# 
# From -- ./inp_files/86178.got.cif
#   From: 2010.05.17/outbox.cif.g08.bks.cpg/sg15_44_cif.got.tgz:86178.got - 2010.06.03 18:47:42.
