data_PCOD9306182
_publ_section_title
;
Structure prediction by ZEFSAII (Michael W. Deem and Ramdas Pophale) SiO2 
 PCOD9306182
Probable space group: C 2/C
;
_chemical_formula_sum "Si O2"
_cell_formula_units_Z 40
_cell_length_a 18.279609
_cell_length_b 12.210226
_cell_length_c 11.696733
_cell_angle_alpha 90.000000
_cell_angle_beta 41.211175
_cell_angle_gamma 90.000000
_cell_volume 1720.016582
_symmetry_space_group_name_H-M "C 2/C"
_symmetry_group_IT_number 15
_symmetry_cell_setting 'monoclinic'
loop_
_space_group_symop_operation_xyz
x,y,z
-x,y,1/2-z
-x,-y,-z
x,-y,1/2+z
1/2+x,1/2+y,z
1/2-x,1/2+y,1/2-z
1/2-x,1/2-y,-z
1/2+x,1/2-y,1/2+z
loop_
_atom_site_type_symbol
_atom_site_label
_atom_site_fract_x
_atom_site_fract_y
_atom_site_fract_z
Si Si1 0.314757 0.424378 0.491973
Si Si2 0.213278 0.335976 0.138027
Si Si3 0.971494 0.106833 0.606174
Si Si4 0.167664 0.707259 0.321340
Si Si5 0.484896 0.051560 0.891347
O O1 0.281996 0.550382 0.552117
O O2 0.419956 0.384005 0.442733
O O3 0.360096 0.414382 0.311035
O O4 0.212224 0.350673 0.654602
O O5 0.238995 0.281263 0.229605
O O6 0.086239 0.364163 0.266362
O O7 0.250000 0.250000 0.000000
O O8 0.938174 0.215433 0.577152
O O9 0.000000 0.000000 0.500000
O O10 0.131676 0.613344 0.453944
O O11 0.500000 0.990704 0.750000
O O12 0.500000 0.000000 0.000000
#
# Coordination Sequence:
#
# PCOD9306182 Si02
#       5
#     8   8   8   8   8
#     4  11  26  46  70 111 147 195 252 322 380 461
#     4  12  26  44  79 106 148 202 258 309 390 468
#     4  11  25  45  73 105 146 195 255 312 386 459
#     4  12  25  47  74 105 150 202 253 316 388 461
#     4  12  27  49  75 110 153 203 257 318 388 466
#
# _framework density 23.255589000000001
#
# number of rings (size 3 to 8) (size 9 to 14) (size 15 to 20)
#    0.000    0.400    6.000    1.800    5.600    1.600 
#    7.200    0.000    0.000    0.000    0.000    0.000 
#    0.000    0.000    0.000    0.000    0.000    0.000 
#
# Total GULP energy -111717.239176 kJ/mol
# GULP energy per Si atom -5585.861959 kJ/mol
# Density = 2.320266 g / cm^3
# Si number density = 23.255589 Si / 1000 Ang^3
#
#
#
# Elastic Constant Matrix: (Units=GPa)
#
#
# Indices 1 2 3 4 5 6 
#
# 1 59.0261 10.6836 9.9998 0.0000 8.6786 0.0000
# 2 10.6836 93.9080 42.3179 0.0000 15.1496 0.0000
# 3 9.9998 42.3179 137.3891 0.0000 22.8107 0.0000
# 4 0.0000 0.0000 0.0000 54.0796 0.0000 8.6142
# 5 8.6786 15.1496 22.8107 0.0000 41.8423 0.0000
# 6 0.0000 0.0000 0.0000 8.6142 0.0000 30.0369
#
#
#
# Elastic Compliance Matrix: (Units=1/GPa)
#
#
# Indices 1 2 3 4 5 6 
#
# 1 0.017689 -0.001365 -0.000374 0.000000 -0.002971 0.000000
# 2 -0.001365 0.012741 -0.003415 0.000000 -0.002468 0.000000
# 3 -0.000374 -0.003415 0.008950 0.000000 -0.003565 0.000000
# 4 0.000000 0.000000 0.000000 0.019376 0.000000 -0.005557
# 5 -0.002971 -0.002468 -0.003565 0.000000 0.027353 0.000000
# 6 0.000000 0.000000 0.000000 -0.005557 0.000000 0.034886
#
#
# Mechanical properties :
#
#
# Convention : Reuss Voigt Hill
#
# Bulk Modulus (GPa) = 34.39741 46.25842 40.32791
# Shear Modulus (GPa) = 35.46274 40.34655 37.90464
#
# Velocity S-wave (km/s) = 3.90925 4.16975 4.04160
# Velocity P-wave (km/s) = 5.93291 6.56635 6.25765
#
# Compressibility (1/GPa) = 0.02907196
#
# Stress axis : x y z
#
# Youngs Moduli (GPa) = 56.53293 78.48542 111.73592
#
# Poissons Ratio (x) = 0.10710 0.04178
# Poissons Ratio (y) = 0.07715 0.38162
# Poissons Ratio (z) = 0.02114 0.26806
#
# Static dielectric constant tensor:
#      x y z
#    x 1.946490 0.000000 0.064220 
#    y 0.000000 1.848030 0.000000 
#    z 0.064220 0.000000 1.908640 
# 
# From -- ./inp_files/111355.got.cif
#   From: 2010.05.17/outbox.cif.g08.bks.cpg/sg15_56_cif.got.tgz:111355.got - 2010.06.03 18:47:42.
