data_PCOD9306783
_publ_section_title
;
Structure prediction by ZEFSAII (Michael W. Deem and Ramdas Pophale) SiO2 
 PCOD9306783
Probable space group: C 2/C
;
_chemical_formula_sum "Si O2"
_cell_formula_units_Z 48
_cell_length_a 26.825662
_cell_length_b 4.920895
_cell_length_c 29.653980
_cell_angle_alpha 90.000000
_cell_angle_beta 151.456538
_cell_angle_gamma 90.000000
_cell_volume 1870.452295
_symmetry_space_group_name_H-M "C 2/C"
_symmetry_group_IT_number 15
_symmetry_cell_setting 'monoclinic'
loop_
_space_group_symop_operation_xyz
x,y,z
-x,y,1/2-z
-x,-y,-z
x,-y,1/2+z
1/2+x,1/2+y,z
1/2-x,1/2+y,1/2-z
1/2-x,1/2-y,-z
1/2+x,1/2-y,1/2+z
loop_
_atom_site_type_symbol
_atom_site_label
_atom_site_fract_x
_atom_site_fract_y
_atom_site_fract_z
Si Si1 0.706437 0.356551 0.512791
Si Si2 0.026384 0.970598 0.679031
Si Si3 0.407937 0.823683 0.853181
Si Si4 0.084932 0.516506 0.279918
Si Si5 0.863278 0.486552 0.458334
Si Si6 0.693579 0.530140 0.645597
O O1 0.750000 0.250000 0.500000
O O2 0.598827 0.516276 0.420595
O O3 0.801761 0.520862 0.609645
O O4 0.677548 0.123046 0.526207
O O5 0.063699 0.671439 0.720222
O O6 0.068565 0.102609 0.666924
O O7 0.067908 0.173197 0.751041
O O8 0.384391 0.657318 0.879848
O O9 0.304719 0.990382 0.758032
O O10 0.511466 0.005130 0.939920
O O11 0.000000 0.446491 0.250000
O O12 0.810325 0.758085 0.398616
O O13 0.838052 0.256314 0.401012
#
# Coordination Sequence:
#
# PCOD9306783 Si02
#       6
#     8   8   8   8   8   8
#     4  11  26  51  78 110 150 203 251 308 378 447
#     4  11  28  50  73 114 151 195 250 312 373 448
#     4  11  27  49  80 112 155 200 253 310 382 452
#     4  12  26  47  76 109 151 196 250 310 372 445
#     4  11  28  50  76 113 154 198 255 315 374 450
#     4  12  26  49  77 113 149 202 251 313 380 449
#
# _framework density 25.662241999999999
#
# number of rings (size 3 to 8) (size 9 to 14) (size 15 to 20)
#    0.000    0.667    1.667    3.500    0.000   19.333 
#    0.000    0.000    0.000    0.000    0.000    0.000 
#    0.000    0.000    0.000    0.000    0.000    0.000 
#
# Total GULP energy -134919.461125 kJ/mol
# GULP energy per Si atom -5621.644214 kJ/mol
# Density = 2.560383 g / cm^3
# Si number density = 25.662242 Si / 1000 Ang^3
#
#
#
# Elastic Constant Matrix: (Units=GPa)
#
#
# Indices 1 2 3 4 5 6 
#
# 1 163.5076 -6.9419 31.5842 0.0304 9.6824 -0.0983
# 2 -6.9419 77.5611 29.0076 0.0533 5.8317 0.1728
# 3 31.5842 29.0076 169.7539 -0.0116 15.3917 0.0354
# 4 0.0304 0.0533 -0.0116 45.2183 -0.0204 -12.6778
# 5 9.6824 5.8317 15.3917 -0.0204 38.6881 0.0586
# 6 -0.0983 0.1728 0.0354 -12.6778 0.0586 21.1156
#
#
#
# Elastic Compliance Matrix: (Units=1/GPa)
#
#
# Indices 1 2 3 4 5 6 
#
# 1 0.006490 0.001160 -0.001289 0.000001 -0.001286 0.000027
# 2 0.001160 0.014033 -0.002485 -0.000057 -0.001417 -0.000135
# 3 -0.001289 -0.002485 0.006735 0.000008 -0.001982 0.000014
# 4 0.000001 -0.000057 0.000008 0.026591 -0.000005 0.015966
# 5 -0.001286 -0.001417 -0.001982 -0.000005 0.027172 -0.000070
# 6 0.000027 -0.000135 0.000014 0.015966 -0.000070 0.056946
#
#
# Mechanical properties :
#
#
# Convention : Reuss Voigt Hill
#
# Bulk Modulus (GPa) = 45.39422 57.56915 51.48169
# Shear Modulus (GPa) = 33.21374 44.81593 39.01483
#
# Velocity S-wave (km/s) = 3.60149 4.18350 3.90336
# Velocity P-wave (km/s) = 5.91793 6.76888 6.35765
#
# Compressibility (1/GPa) = 0.02202923
#
# Stress axis : x y z
#
# Youngs Moduli (GPa) = 154.07457 71.25962 148.47467
#
# Poissons Ratio (x) = -0.08264 0.19140
# Poissons Ratio (y) = -0.17868 0.36900
# Poissons Ratio (z) = 0.19862 0.17710
#
# Static dielectric constant tensor:
#      x y z
#    x 2.010380 -0.000120 -0.024510 
#    y -0.000120 1.959990 0.000060 
#    z -0.024510 0.000060 1.977790 
# 
# From -- ./inp_files/319356.got.cif
#   From: 2010.05.17/outbox.cif.g08.bks.cpg/sg15_160_cif.got.tgz:319356.got - 2010.06.03 18:47:42.
