data_PCOD9306940
_publ_section_title
;
Structure prediction by ZEFSAII (Michael W. Deem and Ramdas Pophale) SiO2 
 PCOD9306940
Probable space group: C 2/C
;
_chemical_formula_sum "Si O2"
_cell_formula_units_Z 36
_cell_length_a 21.354484
_cell_length_b 16.530334
_cell_length_c 15.174052
_cell_angle_alpha 90.000000
_cell_angle_beta 163.879709
_cell_angle_gamma 90.000000
_cell_volume 1487.228182
_symmetry_space_group_name_H-M "C 2/C"
_symmetry_group_IT_number 15
_symmetry_cell_setting 'monoclinic'
loop_
_space_group_symop_operation_xyz
x,y,z
-x,y,1/2-z
-x,-y,-z
x,-y,1/2+z
1/2+x,1/2+y,z
1/2-x,1/2+y,1/2-z
1/2-x,1/2-y,-z
1/2+x,1/2-y,1/2+z
loop_
_atom_site_type_symbol
_atom_site_label
_atom_site_fract_x
_atom_site_fract_y
_atom_site_fract_z
Si Si1 0.421141 0.623974 0.056992
Si Si2 0.069196 0.821809 0.129179
Si Si3 0.500000 0.068551 0.250000
Si Si4 0.217668 0.158195 0.098553
Si Si5 0.313847 0.015108 0.649699
O O1 0.429706 0.660872 0.973393
O O2 0.500000 0.675888 0.250000
O O3 0.608181 0.551530 0.312681
O O4 0.188639 0.582530 0.776609
O O5 0.279463 0.874207 0.451775
O O6 0.851235 0.843463 0.892042
O O7 0.099452 0.725454 0.177716
O O8 0.491703 0.009357 0.154388
O O9 0.752848 0.431239 0.611942
O O10 0.000000 0.810393 0.250000
#
# Coordination Sequence:
#
# PCOD9306940 Si02
#       5
#     8   8   4   8   8
#     4   8  20  44  59  84 119 170 192 248 285 375
#     4  12  23  35  65  88 131 150 202 242 320 331
#     4  12  20  32  60  98 114 158 190 264 290 362
#     4  12  20  39  57  95 117 159 189 259 284 372
#     4   9  20  39  62  83 125 149 213 230 306 344
#
# _framework density 24.206105000000001
#
# number of rings (size 3 to 8) (size 9 to 14) (size 15 to 20)
#    1.333    0.000    5.556    2.000    0.000    4.444 
#    0.000    3.333    0.000    0.000    2.889    0.000 
#    0.000    0.000    0.000    0.000    0.000    0.000 
#
# Total GULP energy -100415.133965 kJ/mol
# GULP energy per Si atom -5578.618554 kJ/mol
# Density = 2.415101 g / cm^3
# Si number density = 24.206105 Si / 1000 Ang^3
#
#
#
# Elastic Constant Matrix: (Units=GPa)
#
#
# Indices 1 2 3 4 5 6 
#
# 1 133.9319 -10.2248 -14.5466 0.0000 -12.9552 0.0000
# 2 -10.2248 45.8771 -3.6035 -0.0001 -14.5889 0.0000
# 3 -14.5466 -3.6035 32.5741 0.0001 -11.2402 -0.0001
# 4 0.0000 -0.0001 0.0001 5.4771 0.0001 1.9844
# 5 -12.9552 -14.5889 -11.2402 0.0001 39.3890 -0.0001
# 6 0.0000 0.0000 -0.0001 1.9844 -0.0001 16.1479
#
#
#
# Elastic Compliance Matrix: (Units=1/GPa)
#
#
# Indices 1 2 3 4 5 6 
#
# 1 0.009252 0.004780 0.007012 0.000000 0.006814 0.000000
# 2 0.004780 0.028498 0.010506 0.000000 0.015125 0.000000
# 3 0.007012 0.010506 0.041187 -0.000001 0.017951 0.000000
# 4 0.000000 0.000000 -0.000001 0.191086 -0.000001 -0.023482
# 5 0.006814 0.015125 0.017951 -0.000001 0.038354 0.000000
# 6 0.000000 0.000000 0.000000 -0.023482 0.000000 0.064813
#
#
# Mechanical properties :
#
#
# Convention : Reuss Voigt Hill
#
# Bulk Modulus (GPa) = 8.09507 17.29261 12.69384
# Shear Modulus (GPa) = 13.52187 28.25332 20.88760
#
# Velocity S-wave (km/s) = 2.36607 3.42013 2.94071
# Velocity P-wave (km/s) = 3.28875 4.77031 4.09705
#
# Compressibility (1/GPa) = 0.12353191
#
# Stress axis : x y z
#
# Youngs Moduli (GPa) = 108.08374 35.09064 24.27958
#
# Poissons Ratio (x) = -0.16772 -0.17024
# Poissons Ratio (y) = -0.51661 -0.25508
# Poissons Ratio (z) = -0.75786 -0.36867
#
# Static dielectric constant tensor:
#      x y z
#    x 1.970080 0.000000 0.001210 
#    y 0.000000 1.870610 0.000000 
#    z 0.001210 0.000000 2.086000 
# 
# From -- ./inp_files/100547.got.cif
#   From: 2010.05.17/outbox.cif.g08.bks.cpg/sg15_51_cif.got.tgz:100547.got - 2010.06.03 18:47:42.
