data_PCOD9306212
_publ_section_title
;
Structure prediction by ZEFSAII (Michael W. Deem and Ramdas Pophale) SiO2 
 PCOD9306212
Probable space group: C 2/C
;
_chemical_formula_sum "Si O2"
_cell_formula_units_Z 24
_cell_length_a 4.749134
_cell_length_b 13.549274
_cell_length_c 16.047258
_cell_angle_alpha 90.000000
_cell_angle_beta 68.951397
_cell_angle_gamma 90.000000
_cell_volume 963.699038
_symmetry_space_group_name_H-M "C 2/C"
_symmetry_group_IT_number 15
_symmetry_cell_setting 'monoclinic'
loop_
_space_group_symop_operation_xyz
x,y,z
-x,y,1/2-z
-x,-y,-z
x,-y,1/2+z
1/2+x,1/2+y,z
1/2-x,1/2+y,1/2-z
1/2-x,1/2-y,-z
1/2+x,1/2-y,1/2+z
loop_
_atom_site_type_symbol
_atom_site_label
_atom_site_fract_x
_atom_site_fract_y
_atom_site_fract_z
Si Si1 0.536534 0.320503 0.947221
Si Si2 0.233134 0.867031 0.113293
Si Si3 0.213677 0.504527 0.656317
O O1 0.711752 0.245694 0.867652
O O2 0.540556 0.425757 0.901604
O O3 0.699150 0.351814 0.016342
O O4 0.250000 0.250000 0.000000
O O5 0.500426 0.941268 0.111051
O O6 0.911790 0.908326 0.173960
O O7 0.000000 0.461337 0.750000
#
# Coordination Sequence:
#
# PCOD9306212 Si02
#       3
#     8   8   8
#     4  11  25  45  77 103 136 189 248 289 343 428
#     4  11  25  46  71 102 138 187 239 293 347 427
#     4  12  27  44  69 104 149 185 232 297 365 416
#
# _framework density 24.904039000000001
#
# number of rings (size 3 to 8) (size 9 to 14) (size 15 to 20)
#    0.000    0.667    3.333    3.000    9.333    2.667 
#    0.000    0.000    0.000    0.000    0.000    0.000 
#    0.000    0.000    0.000    0.000    0.000    0.000 
#
# Total GULP energy -66893.765931 kJ/mol
# GULP energy per Si atom -5574.480494 kJ/mol
# Density = 2.484736 g / cm^3
# Si number density = 24.904039 Si / 1000 Ang^3
#
#
#
# Elastic Constant Matrix: (Units=GPa)
#
#
# Indices 1 2 3 4 5 6 
#
# 1 157.5956 62.3653 37.1809 0.0000 -2.0423 0.0000
# 2 62.3653 125.8711 42.5602 0.0000 4.0312 0.0000
# 3 37.1809 42.5602 67.1054 0.0000 -4.6498 0.0000
# 4 0.0000 0.0000 0.0000 34.1699 0.0000 -14.8178
# 5 -2.0423 4.0312 -4.6498 0.0000 33.7544 0.0000
# 6 0.0000 0.0000 0.0000 -14.8178 0.0000 31.4802
#
#
#
# Elastic Compliance Matrix: (Units=1/GPa)
#
#
# Indices 1 2 3 4 5 6 
#
# 1 0.008221 -0.003264 -0.002447 0.000000 0.000550 0.000000
# 2 -0.003264 0.011560 -0.005687 0.000000 -0.002362 0.000000
# 3 -0.002447 -0.005687 0.020093 0.000000 0.003299 0.000000
# 4 0.000000 0.000000 0.000000 0.036771 0.000000 0.017308
# 5 0.000550 -0.002362 0.003299 0.000000 0.030396 0.000000
# 6 0.000000 0.000000 0.000000 0.017308 0.000000 0.039913
#
#
# Mechanical properties :
#
#
# Convention : Reuss Voigt Hill
#
# Bulk Modulus (GPa) = 58.55137 70.53165 64.54151
# Shear Modulus (GPa) = 28.49907 33.77860 31.13883
#
# Velocity S-wave (km/s) = 3.38650 3.68686 3.53987
# Velocity P-wave (km/s) = 6.23322 6.81959 6.53299
#
# Compressibility (1/GPa) = 0.01707902
#
# Stress axis : x y z
#
# Youngs Moduli (GPa) = 121.63469 86.50318 49.76743
#
# Poissons Ratio (x) = 0.28231 0.12179
# Poissons Ratio (y) = 0.39696 0.28304
# Poissons Ratio (z) = 0.29766 0.49196
#
# Static dielectric constant tensor:
#      x y z
#    x 2.058190 0.000000 -0.039710 
#    y 0.000000 1.999300 0.000000 
#    z -0.039710 0.000000 2.074580 
# 
# From -- ./inp_files/127759.got.cif
#   From: 2010.05.17/outbox.cif.g08.bks.cpg/sg15_64_cif.got.tgz:127759.got - 2010.06.03 18:47:42.
