data_PCOD9306818
_publ_section_title
;
Structure prediction by ZEFSAII (Michael W. Deem and Ramdas Pophale) SiO2 
 PCOD9306818
Probable space group: C 2/C
;
_chemical_formula_sum "Si O2"
_cell_formula_units_Z 44
_cell_length_a 12.449015
_cell_length_b 22.681976
_cell_length_c 7.425481
_cell_angle_alpha 90.000000
_cell_angle_beta 55.687714
_cell_angle_gamma 90.000000
_cell_volume 1731.843534
_symmetry_space_group_name_H-M "C 2/C"
_symmetry_group_IT_number 15
_symmetry_cell_setting 'monoclinic'
loop_
_space_group_symop_operation_xyz
x,y,z
-x,y,1/2-z
-x,-y,-z
x,-y,1/2+z
1/2+x,1/2+y,z
1/2-x,1/2+y,1/2-z
1/2-x,1/2-y,-z
1/2+x,1/2-y,1/2+z
loop_
_atom_site_type_symbol
_atom_site_label
_atom_site_fract_x
_atom_site_fract_y
_atom_site_fract_z
Si Si1 0.853794 0.418099 0.395701
Si Si2 0.000000 0.947233 0.250000
Si Si3 0.909511 0.866676 0.006518
Si Si4 0.652078 0.836867 0.595847
Si Si5 0.217016 0.756120 0.320631
Si Si6 0.227768 0.539809 0.134594
O O1 0.801106 0.433563 0.643564
O O2 0.860859 0.482618 0.297734
O O3 0.000000 0.391860 0.250000
O O4 0.873989 0.981252 0.444997
O O5 0.041015 0.906273 0.377531
O O6 0.761775 0.881660 0.087291
O O7 0.000000 0.875623 0.750000
O O8 0.910714 0.797946 0.063299
O O9 0.500000 0.842861 0.750000
O O10 0.687671 0.793233 0.399707
O O11 0.700861 0.805569 0.733459
O O12 0.704181 0.903468 0.530971
O O13 0.250000 0.750000 0.500000
#
# Coordination Sequence:
#
# PCOD9306818 Si02
#       6
#     8   4   8   8   8   8
#     4  12  28  48  80 115 159 209 265 325 398 471
#     4  12  26  48  78 110 162 196 262 316 394 456
#     4  12  27  48  80 115 158 206 263 320 389 473
#     4  11  27  47  73 108 154 197 256 320 393 459
#     4  11  27  47  75 111 149 203 257 324 389 465
#     4  12  26  48  76 112 158 206 260 327 389 473
#
# _framework density 25.406452999999999
#
# number of rings (size 3 to 8) (size 9 to 14) (size 15 to 20)
#    0.000    0.364    3.636    3.273    7.636    1.455 
#    0.000    0.000    0.000    0.000    0.000    0.000 
#    0.000    0.000    0.000    0.000    0.000    0.000 
#
# Total GULP energy -123262.071234 kJ/mol
# GULP energy per Si atom -5602.821420 kJ/mol
# Density = 2.534863 g / cm^3
# Si number density = 25.406453 Si / 1000 Ang^3
#
#
#
# Elastic Constant Matrix: (Units=GPa)
#
#
# Indices 1 2 3 4 5 6 
#
# 1 113.2334 20.5785 41.6380 0.0000 -21.8674 0.0000
# 2 20.5785 110.1485 5.3338 0.0000 10.7318 0.0000
# 3 41.6380 5.3338 158.9948 0.0000 -3.6531 0.0000
# 4 0.0000 0.0000 0.0000 59.9250 0.0000 -14.6343
# 5 -21.8674 10.7318 -3.6531 0.0000 27.9417 0.0000
# 6 0.0000 0.0000 0.0000 -14.6343 0.0000 -97.4285
#
#
#
# Elastic Compliance Matrix: (Units=1/GPa)
#
#
# Indices 1 2 3 4 5 6 
#
# 1 0.012568 -0.003248 -0.002936 0.000000 0.010699 0.000000
# 2 -0.003248 0.010297 0.000357 0.000000 -0.006450 0.000000
# 3 -0.002936 0.000357 0.007012 0.000000 -0.001519 0.000000
# 4 0.000000 0.000000 0.000000 0.016097 0.000000 -0.002418
# 5 0.010699 -0.006450 -0.001519 0.000000 0.046441 0.000000
# 6 0.000000 0.000000 0.000000 -0.002418 0.000000 -0.009901
#
#
# Mechanical properties :
#
#
# Convention : Reuss Voigt Hill
#
# Bulk Modulus (GPa) = 54.88263 57.49748 56.19006
# Shear Modulus (GPa) = 49.87934 19.07604 34.47769
#
# Velocity S-wave (km/s) = 4.43567 2.74311 3.68781
# Velocity P-wave (km/s) = 6.91970 5.71953 6.34804
#
# Compressibility (1/GPa) = 0.01822070
#
# Stress axis : x y z
#
# Youngs Moduli (GPa) = 79.56957 97.11917 142.61967
#
# Poissons Ratio (x) = 0.31546 0.41880
# Poissons Ratio (y) = 0.25846 -0.05092
# Poissons Ratio (z) = 0.23365 -0.03467
#
# Static dielectric constant tensor:
#      x y z
#    x 2.110220 0.000000 -0.006760 
#    y 0.000000 2.145010 0.000000 
#    z -0.006760 0.000000 2.030370 
# 
# From -- ./inp_files/5790.got.cif
#   From: 2010.05.17/outbox.cif.g08.bks.cpg/sg15_3_cif.got.tgz:5790.got - 2010.06.03 18:47:42.
