data_PCOD9306337
_publ_section_title
;
Structure prediction by ZEFSAII (Michael W. Deem and Ramdas Pophale) SiO2 
 PCOD9306337
Probable space group: C 2/C
;
_chemical_formula_sum "Si O2"
_cell_formula_units_Z 56
_cell_length_a 13.959142
_cell_length_b 20.418735
_cell_length_c 10.159727
_cell_angle_alpha 90.000000
_cell_angle_beta 121.119381
_cell_angle_gamma 90.000000
_cell_volume 2479.078010
_symmetry_space_group_name_H-M "C 2/C"
_symmetry_group_IT_number 15
_symmetry_cell_setting 'monoclinic'
loop_
_space_group_symop_operation_xyz
x,y,z
-x,y,1/2-z
-x,-y,-z
x,-y,1/2+z
1/2+x,1/2+y,z
1/2-x,1/2+y,1/2-z
1/2-x,1/2-y,-z
1/2+x,1/2-y,1/2+z
loop_
_atom_site_type_symbol
_atom_site_label
_atom_site_fract_x
_atom_site_fract_y
_atom_site_fract_z
Si Si1 0.730839 0.380940 0.400964
Si Si2 0.823318 0.828969 0.409968
Si Si3 0.002419 0.057198 0.424850
Si Si4 0.134959 0.306682 0.489243
Si Si5 0.000000 0.957316 0.250000
Si Si6 0.500000 0.096095 0.750000
Si Si7 0.239797 0.882069 0.701849
Si Si8 0.621755 0.014492 0.647154
O O1 0.707950 0.330843 0.266151
O O2 0.614226 0.417085 0.343571
O O3 0.764192 0.358814 0.570321
O O4 0.814356 0.435445 0.402268
O O5 0.899815 0.767407 0.506566
O O6 0.710932 0.815689 0.413166
O O7 0.886113 0.896591 0.490280
O O8 0.013562 0.026908 0.595481
O O9 0.889269 0.099929 0.361799
O O10 0.000000 0.042791 0.250000
O O11 0.213098 0.329872 0.663013
O O12 0.034821 0.357112 0.394491
O O13 0.599631 0.050121 0.770887
O O14 0.306518 0.949742 0.777390
O O15 0.500000 0.000000 0.500000
#
# Coordination Sequence:
#
# PCOD9306337 Si02
#       8
#     8   8   8   8   4   4   8   8
#     4  12  24  41  71 106 145 179 234 303 364 425
#     4  11  25  47  70 102 140 191 242 296 350 443
#     4  12  22  39  72 105 145 181 233 302 374 429
#     4  11  27  47  71  98 142 198 245 285 359 437
#     4  12  22  39  68 113 144 180 222 304 382 432
#     4  12  24  47  72  99 140 192 244 298 346 430
#     4  12  25  42  70 109 141 187 233 298 373 429
#     4  12  24  42  69 103 143 181 238 298 361 431
#
# _framework density 22.589043
#
# number of rings (size 3 to 8) (size 9 to 14) (size 15 to 20)
#    0.000    0.286    7.143    1.714    0.000    3.429 
#    0.000    0.000    6.286    0.000    0.000    0.000 
#    0.000    0.000    0.000    0.000    0.000    0.000 
#
# Total GULP energy -156477.493705 kJ/mol
# GULP energy per Si atom -5588.481918 kJ/mol
# Density = 2.253763 g / cm^3
# Si number density = 22.589043 Si / 1000 Ang^3
#
#
#
# Elastic Constant Matrix: (Units=GPa)
#
#
# Indices 1 2 3 4 5 6 
#
# 1 83.9065 24.2550 14.2912 0.0000 -11.7376 0.0000
# 2 24.2550 83.0055 17.5560 0.0000 -13.9408 0.0000
# 3 14.2912 17.5560 118.5503 0.0000 -30.2544 0.0000
# 4 0.0000 0.0000 0.0000 121.2759 0.0000 79.2675
# 5 -11.7376 -13.9408 -30.2544 0.0000 50.7572 0.0000
# 6 0.0000 0.0000 0.0000 79.2675 0.0000 76.1061
#
#
#
# Elastic Compliance Matrix: (Units=1/GPa)
#
#
# Indices 1 2 3 4 5 6 
#
# 1 0.013268 -0.003449 -0.000646 0.000000 0.001736 0.000000
# 2 -0.003449 0.013664 -0.001007 0.000000 0.002355 0.000000
# 3 -0.000646 -0.001007 0.010088 0.000000 0.005587 0.000000
# 4 0.000000 0.000000 0.000000 0.025829 0.000000 -0.026902
# 5 0.001736 0.002355 0.005587 0.000000 0.024080 0.000000
# 6 0.000000 0.000000 0.000000 -0.026902 0.000000 0.041159
#
#
# Mechanical properties :
#
#
# Convention : Reuss Voigt Hill
#
# Bulk Modulus (GPa) = 37.28936 44.18519 40.73728
# Shear Modulus (GPa) = 33.96048 64.91851 49.43949
#
# Velocity S-wave (km/s) = 3.88158 5.36669 4.68338
# Velocity P-wave (km/s) = 6.05248 7.61608 6.87885
#
# Compressibility (1/GPa) = 0.02681730
#
# Stress axis : x y z
#
# Youngs Moduli (GPa) = 75.37029 73.18692 99.12731
#
# Poissons Ratio (x) = 0.25241 0.06400
# Poissons Ratio (y) = 0.25994 0.09978
# Poissons Ratio (z) = 0.04866 0.07367
#
# Static dielectric constant tensor:
#      x y z
#    x 1.780940 0.000000 -0.067130 
#    y 0.000000 1.847780 0.000000 
#    z -0.067130 0.000000 1.935590 
# 
# From -- ./inp_files/42765.got.cif
#   From: 2010.05.17/outbox.cif.g08.bks.cpg/sg15_22_cif.got.tgz:42765.got - 2010.06.03 18:47:42.
