data_PCOD9306283
_publ_section_title
;
Structure prediction by ZEFSAII (Michael W. Deem and Ramdas Pophale) SiO2 
 PCOD9306283
Probable space group: C 2/C
;
_chemical_formula_sum "Si O2"
_cell_formula_units_Z 40
_cell_length_a 10.250183
_cell_length_b 21.043131
_cell_length_c 12.884207
_cell_angle_alpha 90.000000
_cell_angle_beta 143.475875
_cell_angle_gamma 90.000000
_cell_volume 1653.995361
_symmetry_space_group_name_H-M "C 2/C"
_symmetry_group_IT_number 15
_symmetry_cell_setting 'monoclinic'
loop_
_space_group_symop_operation_xyz
x,y,z
-x,y,1/2-z
-x,-y,-z
x,-y,1/2+z
1/2+x,1/2+y,z
1/2-x,1/2+y,1/2-z
1/2-x,1/2-y,-z
1/2+x,1/2-y,1/2+z
loop_
_atom_site_type_symbol
_atom_site_label
_atom_site_fract_x
_atom_site_fract_y
_atom_site_fract_z
Si Si1 0.500000 0.411294 0.250000
Si Si2 0.787037 0.137085 0.337051
Si Si3 0.161437 0.179065 0.449492
Si Si4 0.500000 0.083276 0.750000
Si Si5 0.825950 0.680441 0.015037
Si Si6 0.281295 0.003111 0.787035
O O1 0.689421 0.357846 0.344365
O O2 0.421628 0.462027 0.287363
O O3 0.583287 0.177657 0.161644
O O4 0.735782 0.135223 0.426228
O O5 0.011800 0.171371 0.455893
O O6 0.781114 0.068312 0.283208
O O7 0.250000 0.250000 0.500000
O O8 0.354343 0.128408 0.583466
O O9 0.000000 0.166052 0.250000
O O10 0.349791 0.039928 0.726792
O O11 0.750000 0.750000 0.000000
O O12 0.500000 0.000000 0.000000
#
# Coordination Sequence:
#
# PCOD9306283 Si02
#       6
#     4   8   8   4   8   8
#     4  12  26  44  76 112 146 204 252 312 386 458
#     4  11  26  47  72 105 147 193 245 313 381 444
#     4  12  28  49  76 111 157 202 257 316 385 470
#     4  12  28  50  82 116 152 212 254 322 394 460
#     4  11  25  46  73 106 145 192 249 313 376 451
#     4  12  27  49  78 112 159 198 263 318 386 466
#
# _framework density 24.183864
#
# number of rings (size 3 to 8) (size 9 to 14) (size 15 to 20)
#    0.000    0.400    3.000    4.800    7.000    3.200 
#    0.000    0.000    0.000    0.000    0.000    0.000 
#    0.000    0.000    0.000    0.000    0.000    0.000 
#
# Total GULP energy -111866.885875 kJ/mol
# GULP energy per Si atom -5593.344294 kJ/mol
# Density = 2.412882 g / cm^3
# Si number density = 24.183864 Si / 1000 Ang^3
#
#
#
# Elastic Constant Matrix: (Units=GPa)
#
#
# Indices 1 2 3 4 5 6 
#
# 1 113.6792 52.0386 -12.0879 0.0003 15.7874 0.0002
# 2 52.0386 206.3356 34.5906 0.0000 15.1023 0.0000
# 3 -12.0879 34.5906 69.9271 0.0003 8.2195 0.0003
# 4 0.0003 0.0000 0.0003 26.3914 0.0002 6.5389
# 5 15.7874 15.1023 8.2195 0.0002 36.5873 0.0002
# 6 0.0002 0.0000 0.0003 6.5389 0.0002 58.6855
#
#
#
# Elastic Compliance Matrix: (Units=1/GPa)
#
#
# Indices 1 2 3 4 5 6 
#
# 1 0.011320 -0.003210 0.004071 0.000000 -0.004474 0.000000
# 2 -0.003210 0.006292 -0.003621 0.000000 -0.000399 0.000000
# 3 0.004071 -0.003621 0.017282 0.000000 -0.004145 0.000000
# 4 0.000000 0.000000 0.000000 0.038967 0.000000 -0.004342
# 5 -0.004474 -0.000399 -0.004145 0.000000 0.030358 0.000000
# 6 0.000000 0.000000 0.000000 -0.004342 0.000000 0.017524
#
#
# Mechanical properties :
#
#
# Convention : Reuss Voigt Hill
#
# Bulk Modulus (GPa) = 34.04230 59.89161 46.96695
# Shear Modulus (GPa) = 36.48164 45.35954 40.92059
#
# Velocity S-wave (km/s) = 3.88817 4.33553 4.11793
# Velocity P-wave (km/s) = 5.85356 7.06267 6.48635
#
# Compressibility (1/GPa) = 0.02937522
#
# Stress axis : x y z
#
# Youngs Moduli (GPa) = 88.33678 158.92739 57.86228
#
# Poissons Ratio (x) = 0.51015 -0.23554
# Poissons Ratio (y) = 0.28356 0.20949
# Poissons Ratio (z) = -0.35959 0.57540
#
# Static dielectric constant tensor:
#      x y z
#    x 1.943280 0.000000 0.069310 
#    y 0.000000 1.854350 0.000000 
#    z 0.069310 0.000000 2.018220 
# 
# From -- ./inp_files/145885.got.cif
#   From: 2010.05.17/outbox.cif.g08.bks.cpg/sg15_73_cif.got.tgz:145885.got - 2010.06.03 18:47:42.
