data_PCOD9306150
_publ_section_title
;
Structure prediction by ZEFSAII (Michael W. Deem and Ramdas Pophale) SiO2 
 PCOD9306150
Probable space group: C 2/C
;
_chemical_formula_sum "Si O2"
_cell_formula_units_Z 52
_cell_length_a 17.852555
_cell_length_b 13.629892
_cell_length_c 28.947270
_cell_angle_alpha 90.000000
_cell_angle_beta 20.434267
_cell_angle_gamma 90.000000
_cell_volume 2459.182406
_symmetry_space_group_name_H-M "C 2/C"
_symmetry_group_IT_number 15
_symmetry_cell_setting 'monoclinic'
loop_
_space_group_symop_operation_xyz
x,y,z
-x,y,1/2-z
-x,-y,-z
x,-y,1/2+z
1/2+x,1/2+y,z
1/2-x,1/2+y,1/2-z
1/2-x,1/2-y,-z
1/2+x,1/2-y,1/2+z
loop_
_atom_site_type_symbol
_atom_site_label
_atom_site_fract_x
_atom_site_fract_y
_atom_site_fract_z
Si Si1 0.083138 0.478202 0.634844
Si Si2 0.624712 0.075072 0.462714
Si Si3 0.756382 0.841290 0.462107
Si Si4 0.167831 0.918261 0.916771
Si Si5 0.500000 0.574664 0.750000
Si Si6 0.392096 0.769788 0.604634
Si Si7 0.543552 0.178968 0.608523
O O1 0.219838 0.435261 0.514391
O O2 0.215228 0.455162 0.604435
O O3 0.044154 0.591698 0.646343
O O4 0.859192 0.418927 0.768773
O O5 0.682568 0.164024 0.395073
O O6 0.545180 0.126290 0.556627
O O7 0.500000 0.000000 0.500000
O O8 0.812510 0.001483 0.367190
O O9 0.750000 0.750000 0.500000
O O10 0.559783 0.827438 0.540270
O O11 0.979372 0.853130 0.305561
O O12 0.036917 0.819695 0.001785
O O13 0.000000 0.000000 0.000000
O O14 0.181940 0.735045 0.753794
O O15 0.750000 0.250000 0.500000
#
# Coordination Sequence:
#
# PCOD9306150 Si02
#       7
#     8   8   8   8   4   8   8
#     4  11  25  46  71 105 144 187 239 298 363 430
#     4  12  27  49  73 109 146 194 243 306 369 441
#     4  12  27  45  73 106 143 191 240 302 361 432
#     4  11  25  45  71 103 144 185 236 298 362 434
#     4  12  26  50  74 104 154 186 246 308 366 428
#     4  12  27  46  75 108 143 191 244 301 369 441
#     4  12  28  49  75 110 145 195 245 302 370 445
#
# _framework density 21.145237999999999
#
# number of rings (size 3 to 8) (size 9 to 14) (size 15 to 20)
#    0.000    0.308    6.154    0.923    8.615    0.000 
#    0.000    0.000    0.000    0.000    0.000    0.000 
#    0.000    0.000    0.000    0.000    0.000    0.000 
#
# Total GULP energy -145038.152957 kJ/mol
# GULP energy per Si atom -5578.390498 kJ/mol
# Density = 2.109711 g / cm^3
# Si number density = 21.145238 Si / 1000 Ang^3
#
#
#
# Elastic Constant Matrix: (Units=GPa)
#
#
# Indices 1 2 3 4 5 6 
#
# 1 66.2778 39.3799 37.3752 0.0191 28.5122 -0.0121
# 2 39.3799 87.2936 36.7817 0.0075 8.1100 -0.0066
# 3 37.3752 36.7817 111.6563 0.0317 25.6441 -0.0201
# 4 0.0191 0.0075 0.0317 39.8247 -0.0113 5.0201
# 5 28.5122 8.1100 25.6441 -0.0113 33.2380 0.0047
# 6 -0.0121 -0.0066 -0.0201 5.0201 0.0047 49.8986
#
#
#
# Elastic Compliance Matrix: (Units=1/GPa)
#
#
# Indices 1 2 3 4 5 6 
#
# 1 0.034105 -0.012392 -0.001591 -0.000021 -0.025005 0.000010
# 2 -0.012392 0.017805 -0.003842 0.000009 0.009250 -0.000004
# 3 -0.001591 -0.003842 0.012428 -0.000011 -0.007286 0.000006
# 4 -0.000021 0.000009 -0.000011 0.025433 0.000034 -0.002559
# 5 -0.025005 0.009250 -0.007286 0.000034 0.054900 -0.000016
# 6 0.000010 -0.000004 0.000006 -0.002559 -0.000016 0.020298
#
#
# Mechanical properties :
#
#
# Convention : Reuss Voigt Hill
#
# Bulk Modulus (GPa) = 34.85768 54.70014 44.77891
# Shear Modulus (GPa) = 23.78909 34.70500 29.24704
#
# Velocity S-wave (km/s) = 3.35779 4.05565 3.72311
# Velocity P-wave (km/s) = 5.61727 6.91780 6.30118
#
# Compressibility (1/GPa) = 0.02868809
#
# Stress axis : x y z
#
# Youngs Moduli (GPa) = 29.32136 56.16319 80.46623
#
# Poissons Ratio (x) = 0.69597 0.12803
# Poissons Ratio (y) = 0.36335 0.30913
# Poissons Ratio (z) = 0.04665 0.21576
#
# Static dielectric constant tensor:
#      x y z
#    x 1.902720 0.000170 0.112670 
#    y 0.000170 1.765170 0.000010 
#    z 0.112670 0.000010 1.834180 
# 
# From -- ./inp_files/316426.got.cif
#   From: 2010.05.17/outbox.cif.g08.bks.cpg/sg15_159_cif.got.tgz:316426.got - 2010.06.03 18:47:42.
