data_PCOD9306177
_publ_section_title
;
Structure prediction by ZEFSAII (Michael W. Deem and Ramdas Pophale) SiO2 
 PCOD9306177
Probable space group: C 2/C
;
_chemical_formula_sum "Si O2"
_cell_formula_units_Z 36
_cell_length_a 7.940387
_cell_length_b 15.827676
_cell_length_c 12.469593
_cell_angle_alpha 90.000000
_cell_angle_beta 69.915642
_cell_angle_gamma 90.000000
_cell_volume 1471.850339
_symmetry_space_group_name_H-M "C 2/C"
_symmetry_group_IT_number 15
_symmetry_cell_setting 'monoclinic'
loop_
_space_group_symop_operation_xyz
x,y,z
-x,y,1/2-z
-x,-y,-z
x,-y,1/2+z
1/2+x,1/2+y,z
1/2-x,1/2+y,1/2-z
1/2-x,1/2-y,-z
1/2+x,1/2-y,1/2+z
loop_
_atom_site_type_symbol
_atom_site_label
_atom_site_fract_x
_atom_site_fract_y
_atom_site_fract_z
Si Si1 0.292553 0.663063 0.771187
Si Si2 0.795218 0.985517 0.842118
Si Si3 0.000000 0.579554 0.250000
Si Si4 0.306594 0.652631 0.520003
Si Si5 0.708111 0.688921 0.412678
O O1 0.500000 0.686583 0.750000
O O2 0.265744 0.586097 0.860513
O O3 0.258794 0.638078 0.655219
O O4 0.183137 0.747645 0.817630
O O5 0.651752 0.966815 0.782221
O O6 0.000000 0.974585 0.750000
O O7 0.751453 0.921567 0.949147
O O8 0.881989 0.633903 0.356888
O O9 0.250000 0.750000 0.500000
O O10 0.521791 0.643793 0.469933
O O11 0.750000 0.750000 0.500000
#
# Coordination Sequence:
#
# PCOD9306177 Si02
#       5
#     8   8   4   8   8
#     4  11  25  45  72 107 148 192 246 304 381 437
#     4  11  26  46  72 103 148 190 242 305 372 440
#     4  12  24  46  70 104 140 192 246 294 374 436
#     4  12  26  46  76 111 149 196 255 308 368 450
#     4  12  22  43  73 103 142 192 243 305 361 439
#
# _framework density 24.459005999999999
#
# number of rings (size 3 to 8) (size 9 to 14) (size 15 to 20)
#    0.000    0.444    5.556    2.667    0.000    7.111 
#    0.000    3.333    0.000    0.000    0.000    0.000 
#    0.000    0.000    0.000    0.000    0.000    0.000 
#
# Total GULP energy -100640.756903 kJ/mol
# GULP energy per Si atom -5591.153161 kJ/mol
# Density = 2.440334 g / cm^3
# Si number density = 24.459006 Si / 1000 Ang^3
#
#
#
# Elastic Constant Matrix: (Units=GPa)
#
#
# Indices 1 2 3 4 5 6 
#
# 1 112.7439 11.0973 14.0298 0.0000 6.3800 0.0000
# 2 11.0973 77.1106 17.2798 0.0000 3.9066 0.0000
# 3 14.0298 17.2798 88.0530 0.0000 13.4515 0.0000
# 4 0.0000 0.0000 0.0000 73.4262 0.0000 -91.5116
# 5 6.3800 3.9066 13.4515 0.0000 40.6451 0.0000
# 6 0.0000 0.0000 0.0000 -91.5116 0.0000 340.9636
#
#
#
# Elastic Compliance Matrix: (Units=1/GPa)
#
#
# Indices 1 2 3 4 5 6 
#
# 1 0.009163 -0.001020 -0.001111 0.000000 -0.000973 0.000000
# 2 -0.001020 0.013686 -0.002472 0.000000 -0.000337 0.000000
# 3 -0.001111 -0.002472 0.012593 0.000000 -0.003756 0.000000
# 4 0.000000 0.000000 0.000000 0.020464 0.000000 0.005492
# 5 -0.000973 -0.000337 -0.003756 0.000000 0.026031 0.000000
# 6 0.000000 0.000000 0.000000 0.005492 0.000000 0.004407
#
#
# Mechanical properties :
#
#
# Convention : Reuss Voigt Hill
#
# Bulk Modulus (GPa) = 38.11631 40.30238 39.20935
# Shear Modulus (GPa) = 47.94013 106.70703 77.32358
#
# Velocity S-wave (km/s) = 4.43201 6.61223 5.62869
# Velocity P-wave (km/s) = 6.46590 8.64921 7.63599
#
# Compressibility (1/GPa) = 0.02623549
#
# Stress axis : x y z
#
# Youngs Moduli (GPa) = 109.12964 73.06623 79.41159
#
# Poissons Ratio (x) = 0.07456 0.08824
# Poissons Ratio (y) = 0.11136 0.19628
# Poissons Ratio (z) = 0.12127 0.18060
#
# Static dielectric constant tensor:
#      x y z
#    x 1.873600 0.000000 -0.020880 
#    y 0.000000 1.273180 0.000000 
#    z -0.020880 0.000000 2.036910 
# 
# From -- ./inp_files/76572.got.cif
#   From: 2010.05.17/outbox.cif.g08.bks.cpg/sg15_39_cif.got.tgz:76572.got - 2010.06.03 18:47:42.
