data_PCOD9306549
_publ_section_title
;
Structure prediction by ZEFSAII (Michael W. Deem and Ramdas Pophale) SiO2 
 PCOD9306549
Probable space group: C 2/C
;
_chemical_formula_sum "Si O2"
_cell_formula_units_Z 40
_cell_length_a 11.761940
_cell_length_b 8.960043
_cell_length_c 17.867388
_cell_angle_alpha 90.000000
_cell_angle_beta 105.847786
_cell_angle_gamma 90.000000
_cell_volume 1811.427419
_symmetry_space_group_name_H-M "C 2/C"
_symmetry_group_IT_number 15
_symmetry_cell_setting 'monoclinic'
loop_
_space_group_symop_operation_xyz
x,y,z
-x,y,1/2-z
-x,-y,-z
x,-y,1/2+z
1/2+x,1/2+y,z
1/2-x,1/2+y,1/2-z
1/2-x,1/2-y,-z
1/2+x,1/2-y,1/2+z
loop_
_atom_site_type_symbol
_atom_site_label
_atom_site_fract_x
_atom_site_fract_y
_atom_site_fract_z
Si Si1 0.740112 0.013230 0.200174
Si Si2 0.349547 0.900255 0.040276
Si Si3 0.027666 0.321490 0.589303
Si Si4 0.684479 0.618568 0.942080
Si Si5 0.868122 0.705126 0.706254
O O1 0.629643 0.124790 0.164116
O O2 0.847402 0.126617 0.229404
O O3 0.760525 0.910979 0.130266
O O4 0.715576 0.909543 0.265669
O O5 0.345445 0.804737 0.114168
O O6 0.434616 0.041417 0.072886
O O7 0.411095 0.820912 0.981041
O O8 0.223630 0.970363 0.993966
O O9 0.950820 0.172810 0.589191
O O10 0.750000 0.750000 0.000000
O O11 0.000000 0.658492 0.750000
#
# Coordination Sequence:
#
# PCOD9306549 Si02
#       5
#     8   8   8   8   8
#     4  11  26  42  64 100 128 180 220 263 333 396
#     4   9  19  38  64  95 125 173 211 268 322 387
#     4   9  18  39  68  93 126 167 219 263 330 377
#     4   9  20  38  72  98 127 164 225 272 324 385
#     4  12  27  43  65  94 142 174 219 268 328 393
#
# _framework density 22.082034
#
# number of rings (size 3 to 8) (size 9 to 14) (size 15 to 20)
#    0.000    2.000    2.000    1.200    5.600    4.800 
#    0.000    2.000    0.000    0.000    0.000    0.000 
#    0.000    0.000    0.000    0.000    0.000    0.000 
#
# Total GULP energy -111717.568233 kJ/mol
# GULP energy per Si atom -5585.878412 kJ/mol
# Density = 2.203177 g / cm^3
# Si number density = 22.082034 Si / 1000 Ang^3
#
#
#
# Elastic Constant Matrix: (Units=GPa)
#
#
# Indices 1 2 3 4 5 6 
#
# 1 74.0097 49.1103 13.3293 0.0000 -2.8129 0.0000
# 2 49.1103 74.3482 30.6768 0.0000 -18.8480 0.0000
# 3 13.3293 30.6768 57.8385 0.0000 -9.6531 0.0000
# 4 0.0000 0.0000 0.0000 31.6103 0.0000 0.4708
# 5 -2.8129 -18.8480 -9.6531 0.0000 19.4115 0.0000
# 6 0.0000 0.0000 0.0000 0.4708 0.0000 51.9107
#
#
#
# Elastic Compliance Matrix: (Units=1/GPa)
#
#
# Indices 1 2 3 4 5 6 
#
# 1 0.028985 -0.025382 0.003675 0.000000 -0.018617 0.000000
# 2 -0.025382 0.043284 -0.011676 0.000000 0.032542 0.000000
# 3 0.003675 -0.011676 0.022718 0.000000 0.000492 0.000000
# 4 0.000000 0.000000 0.000000 0.031639 0.000000 -0.000287
# 5 -0.018617 0.032542 0.000492 0.000000 0.080660 0.000000
# 6 0.000000 0.000000 0.000000 -0.000287 0.000000 0.019266
#
#
# Mechanical properties :
#
#
# Convention : Reuss Voigt Hill
#
# Bulk Modulus (GPa) = 35.43554 43.60324 39.51939
# Shear Modulus (GPa) = 16.51665 28.12517 22.32091
#
# Velocity S-wave (km/s) = 2.73787 3.57272 3.18278
# Velocity P-wave (km/s) = 5.10653 6.06696 5.60734
#
# Compressibility (1/GPa) = 0.02822025
#
# Stress axis : x y z
#
# Youngs Moduli (GPa) = 34.50099 23.10344 44.01845
#
# Poissons Ratio (x) = 0.58640 -0.16178
# Poissons Ratio (y) = 0.87569 0.51398
# Poissons Ratio (z) = -0.12680 0.26977
#
# Static dielectric constant tensor:
#      x y z
#    x 1.844030 0.000000 0.027910 
#    y 0.000000 1.824400 0.000000 
#    z 0.027910 0.000000 1.784290 
# 
# From -- ./inp_files/195148.got.cif
#   From: 2010.05.17/outbox.cif.g08.bks.cpg/sg15_98_cif.got.tgz:195148.got - 2010.06.03 18:47:42.
