data_PCOD9306790
_publ_section_title
;
Structure prediction by ZEFSAII (Michael W. Deem and Ramdas Pophale) SiO2 
 PCOD9306790
Probable space group: C 2/C
;
_chemical_formula_sum "Si O2"
_cell_formula_units_Z 40
_cell_length_a 19.029026
_cell_length_b 5.046578
_cell_length_c 15.997529
_cell_angle_alpha 90.000000
_cell_angle_beta 116.105374
_cell_angle_gamma 90.000000
_cell_volume 1379.545950
_symmetry_space_group_name_H-M "C 2/C"
_symmetry_group_IT_number 15
_symmetry_cell_setting 'monoclinic'
loop_
_space_group_symop_operation_xyz
x,y,z
-x,y,1/2-z
-x,-y,-z
x,-y,1/2+z
1/2+x,1/2+y,z
1/2-x,1/2+y,1/2-z
1/2-x,1/2-y,-z
1/2+x,1/2-y,1/2+z
loop_
_atom_site_type_symbol
_atom_site_label
_atom_site_fract_x
_atom_site_fract_y
_atom_site_fract_z
Si Si1 0.864837 0.134310 0.133488
Si Si2 0.452050 0.316912 0.038154
Si Si3 0.808178 0.520884 0.457081
Si Si4 0.058446 0.534449 0.206971
Si Si5 0.300803 0.339012 0.293417
O O1 0.784414 0.962841 0.096639
O O2 0.902825 0.267577 0.235631
O O3 0.927171 0.990302 0.106599
O O4 0.832385 0.383088 0.061614
O O5 0.504496 0.066818 0.096969
O O6 0.500000 0.500000 0.000000
O O7 0.370512 0.197908 0.963062
O O8 0.819328 0.762149 0.398382
O O9 0.126363 0.743662 0.223543
O O10 0.000000 0.610558 0.250000
O O11 0.267773 0.630541 0.266064
#
# Coordination Sequence:
#
# PCOD9306790 Si02
#       5
#     8   8   8   8   8
#     4  11  26  53  82 115 167 224 289 359 435 546
#     4  12  29  50  85 122 176 221 286 366 453 527
#     4  11  26  52  79 118 164 226 290 344 448 530
#     4  12  28  51  78 127 165 218 292 365 439 512
#     4  12  30  51  82 120 169 230 289 357 437 533
#
# _framework density 28.995045000000001
#
# number of rings (size 3 to 8) (size 9 to 14) (size 15 to 20)
#    0.000    0.400    4.000    1.800   11.200    2.400 
#    0.000    0.000    0.000    0.000    0.000    0.000 
#    0.000    0.000    0.000    0.000    0.000    0.000 
#
# Total GULP energy -112270.194400 kJ/mol
# GULP energy per Si atom -5613.509720 kJ/mol
# Density = 2.892905 g / cm^3
# Si number density = 28.995045 Si / 1000 Ang^3
#
#
#
# Elastic Constant Matrix: (Units=GPa)
#
#
# Indices 1 2 3 4 5 6 
#
# 1 264.1037 63.8916 59.2564 0.0000 8.1448 0.0001
# 2 63.8916 134.0152 99.5579 0.0001 14.3555 -0.0003
# 3 59.2564 99.5579 153.3809 0.0000 28.2678 0.0000
# 4 0.0000 0.0001 0.0000 51.4825 0.0000 8.1247
# 5 8.1448 14.3555 28.2678 0.0000 45.5585 0.0000
# 6 0.0001 -0.0003 0.0000 8.1247 0.0000 48.1299
#
#
#
# Elastic Compliance Matrix: (Units=1/GPa)
#
#
# Indices 1 2 3 4 5 6 
#
# 1 0.004313 -0.001572 -0.000672 0.000000 0.000141 0.000000
# 2 -0.001572 0.015066 -0.009427 0.000000 0.001383 0.000000
# 3 -0.000672 -0.009427 0.013920 0.000000 -0.005547 0.000000
# 4 0.000000 0.000000 0.000000 0.019956 0.000000 -0.003369
# 5 0.000141 0.001383 -0.005547 0.000000 0.024930 0.000000
# 6 0.000000 0.000000 0.000000 -0.003369 0.000000 0.021346
#
#
# Mechanical properties :
#
#
# Convention : Reuss Voigt Hill
#
# Bulk Modulus (GPa) = 100.42157 110.76796 105.59476
# Shear Modulus (GPa) = 39.62188 50.95377 45.28782
#
# Velocity S-wave (km/s) = 3.70064 4.19660 3.95640
# Velocity P-wave (km/s) = 7.27797 7.85921 7.57417
#
# Compressibility (1/GPa) = 0.00995802
#
# Stress axis : x y z
#
# Youngs Moduli (GPa) = 231.84958 66.37284 71.83756
#
# Poissons Ratio (x) = 0.10437 0.04825
# Poissons Ratio (y) = 0.36456 0.67720
# Poissons Ratio (z) = 0.15573 0.62568
#
# Static dielectric constant tensor:
#      x y z
#    x 2.269400 0.000000 -0.044640 
#    y 0.000000 2.203050 0.000000 
#    z -0.044640 0.000000 2.301130 
# 
# From -- ./inp_files/246307.got.cif
#   From: 2010.05.17/outbox.cif.g08.bks.cpg/sg15_124_cif.got.tgz:246307.got - 2010.06.03 18:47:42.
