data_PCOD9306980
_publ_section_title
;
Structure prediction by ZEFSAII (Michael W. Deem and Ramdas Pophale) SiO2 
 PCOD9306980
Probable space group: C 2/C
;
_chemical_formula_sum "Si O2"
_cell_formula_units_Z 40
_cell_length_a 17.054702
_cell_length_b 7.056531
_cell_length_c 12.366857
_cell_angle_alpha 90.000000
_cell_angle_beta 77.980487
_cell_angle_gamma 90.000000
_cell_volume 1455.685840
_symmetry_space_group_name_H-M "C 2/C"
_symmetry_group_IT_number 15
_symmetry_cell_setting 'monoclinic'
loop_
_space_group_symop_operation_xyz
x,y,z
-x,y,1/2-z
-x,-y,-z
x,-y,1/2+z
1/2+x,1/2+y,z
1/2-x,1/2+y,1/2-z
1/2-x,1/2-y,-z
1/2+x,1/2-y,1/2+z
loop_
_atom_site_type_symbol
_atom_site_label
_atom_site_fract_x
_atom_site_fract_y
_atom_site_fract_z
Si Si1 0.915273 0.700487 0.313719
Si Si2 0.240852 0.134497 0.388785
Si Si3 0.510188 0.274965 0.982378
Si Si4 0.616762 0.368501 0.759594
Si Si5 0.343851 0.709460 0.494454
O O1 0.832013 0.588881 0.331031
O O2 0.000000 0.622715 0.250000
O O3 0.931733 0.720791 0.436946
O O4 0.900219 0.902715 0.255321
O O5 0.250000 0.250000 0.500000
O O6 0.200563 0.204851 0.289408
O O7 0.173352 0.978847 0.432839
O O8 0.551193 0.266403 0.853395
O O9 0.420730 0.185410 0.025060
O O10 0.500000 0.500000 0.000000
O O11 0.620814 0.315780 0.633904
O O12 0.250000 0.750000 0.500000
#
# Coordination Sequence:
#
# PCOD9306980 Si02
#       5
#     8   8   8   8   8
#     4  12  23  41  70  98 134 186 225 278 345 402
#     4  12  24  44  66 104 138 174 226 287 341 402
#     4  12  20  41  66  99 131 174 235 277 324 409
#     4  12  22  39  72  97 132 173 234 275 337 402
#     4  12  27  42  67 105 136 175 226 286 341 405
#
# _framework density 27.478456999999999
#
# number of rings (size 3 to 8) (size 9 to 14) (size 15 to 20)
#    0.000    0.000   10.000    0.600    5.600    0.000 
#    0.000    3.000    0.000    0.000    0.000    0.000 
#    0.000    0.000    0.000    0.000    0.000    0.000 
#
# Total GULP energy -111547.290160 kJ/mol
# GULP energy per Si atom -5577.364508 kJ/mol
# Density = 2.741592 g / cm^3
# Si number density = 27.478457 Si / 1000 Ang^3
#
#
#
# Elastic Constant Matrix: (Units=GPa)
#
#
# Indices 1 2 3 4 5 6 
#
# 1 302.3764 23.3583 61.9520 0.0000 -17.9848 0.0000
# 2 23.3583 75.2267 20.1027 0.0000 4.6150 0.0000
# 3 61.9520 20.1027 148.1666 0.0000 -3.9647 0.0000
# 4 0.0000 0.0000 0.0000 15.5673 0.0000 6.0166
# 5 -17.9848 4.6150 -3.9647 0.0000 67.8021 0.0000
# 6 0.0000 0.0000 0.0000 6.0166 0.0000 31.8004
#
#
#
# Elastic Compliance Matrix: (Units=1/GPa)
#
#
# Indices 1 2 3 4 5 6 
#
# 1 0.003719 -0.000835 -0.001416 0.000000 0.000961 0.000000
# 2 -0.000835 0.014056 -0.001592 0.000000 -0.001271 0.000000
# 3 -0.001416 -0.001592 0.007562 0.000000 0.000175 0.000000
# 4 0.000000 0.000000 0.000000 0.069305 0.000000 -0.013112
# 5 0.000961 -0.001271 0.000175 0.000000 0.015100 0.000000
# 6 0.000000 0.000000 0.000000 -0.013112 0.000000 0.033927
#
#
# Mechanical properties :
#
#
# Convention : Reuss Voigt Hill
#
# Bulk Modulus (GPa) = 56.65541 81.84398 69.24970
# Shear Modulus (GPa) = 31.79880 51.05774 41.42827
#
# Velocity S-wave (km/s) = 3.40549 4.31525 3.88708
# Velocity P-wave (km/s) = 6.01050 7.39445 6.73810
#
# Compressibility (1/GPa) = 0.01765056
#
# Stress axis : x y z
#
# Youngs Moduli (GPa) = 268.89740 71.14455 132.24286
#
# Poissons Ratio (x) = 0.05943 0.18725
# Poissons Ratio (y) = 0.22461 0.21051
# Poissons Ratio (z) = 0.38074 0.11325
#
# Static dielectric constant tensor:
#      x y z
#    x 2.717110 0.000000 0.574540 
#    y 0.000000 3.269220 0.000000 
#    z 0.574540 0.000000 2.632170 
# 
# From -- ./inp_files/102712.got.cif
#   From: 2010.05.17/outbox.cif.g08.bks.cpg/sg15_52_cif.got.tgz:102712.got - 2010.06.03 18:47:42.
