data_PCOD9306603
_publ_section_title
;
Structure prediction by ZEFSAII (Michael W. Deem and Ramdas Pophale) SiO2 
 PCOD9306603
Probable space group: C 2/C
;
_chemical_formula_sum "Si O2"
_cell_formula_units_Z 48
_cell_length_a 9.728027
_cell_length_b 11.912770
_cell_length_c 25.400148
_cell_angle_alpha 90.000000
_cell_angle_beta 123.553268
_cell_angle_gamma 90.000000
_cell_volume 2453.086404
_symmetry_space_group_name_H-M "C 2/C"
_symmetry_group_IT_number 15
_symmetry_cell_setting 'monoclinic'
loop_
_space_group_symop_operation_xyz
x,y,z
-x,y,1/2-z
-x,-y,-z
x,-y,1/2+z
1/2+x,1/2+y,z
1/2-x,1/2+y,1/2-z
1/2-x,1/2-y,-z
1/2+x,1/2-y,1/2+z
loop_
_atom_site_type_symbol
_atom_site_label
_atom_site_fract_x
_atom_site_fract_y
_atom_site_fract_z
Si Si1 0.747748 0.160474 0.665657
Si Si2 0.147085 0.921712 0.011359
Si Si3 0.800868 0.256829 0.885537
Si Si4 0.092243 0.889041 0.189378
Si Si5 0.498608 0.982085 0.562299
Si Si6 0.007916 0.863008 0.632768
O O1 0.804258 0.119385 0.735172
O O2 0.657995 0.279688 0.652345
O O3 0.911438 0.161048 0.664543
O O4 0.619592 0.073009 0.613891
O O5 0.168478 0.819734 0.056519
O O6 0.315400 0.992462 0.043854
O O7 0.097809 0.879758 0.942936
O O8 0.000000 0.000000 0.000000
O O9 0.824153 0.180669 0.839390
O O10 0.618230 0.308085 0.852428
O O11 0.930400 0.359007 0.911319
O O12 0.067574 0.016879 0.165886
O O13 0.500000 0.000000 0.500000
#
# Coordination Sequence:
#
# PCOD9306603 Si02
#       6
#     8   8   8   8   8   8
#     4  11  26  46  70  99 141 178 235 288 339 416
#     4  12  25  44  67 109 141 177 229 288 344 415
#     4  12  25  43  73  99 139 184 230 280 353 407
#     4  11  27  46  67 106 131 188 233 278 351 410
#     4  12  24  45  72 102 137 184 230 284 352 406
#     4  12  24  48  71  98 145 179 228 289 340 413
#
# _framework density 19.567188000000002
#
# number of rings (size 3 to 8) (size 9 to 14) (size 15 to 20)
#    0.000    0.333    6.667    1.500    4.667    1.333 
#    0.000    0.000    0.000    0.000    0.000    0.000 
#    0.000    0.000    0.000    0.000    0.000    0.000 
#
# Total GULP energy -134347.066388 kJ/mol
# GULP energy per Si atom -5597.794433 kJ/mol
# Density = 1.952265 g / cm^3
# Si number density = 19.567188 Si / 1000 Ang^3
#
#
#
# Elastic Constant Matrix: (Units=GPa)
#
#
# Indices 1 2 3 4 5 6 
#
# 1 144.6022 76.8170 38.0674 0.0000 2.9388 0.0000
# 2 76.8170 141.6377 35.2206 0.0000 -9.2588 0.0000
# 3 38.0674 35.2206 43.8742 0.0000 1.6918 0.0000
# 4 0.0000 0.0000 0.0000 -17.5869 0.0000 -14.4505
# 5 2.9388 -9.2588 1.6918 0.0000 27.8261 0.0000
# 6 0.0000 0.0000 0.0000 -14.4505 0.0000 34.0446
#
#
#
# Elastic Compliance Matrix: (Units=1/GPa)
#
#
# Indices 1 2 3 4 5 6 
#
# 1 0.010936 -0.004685 -0.005637 0.000000 -0.002371 0.000000
# 2 -0.004685 0.011155 -0.005065 0.000000 0.004515 0.000000
# 3 -0.005637 -0.005065 0.031866 0.000000 -0.003027 0.000000
# 4 0.000000 0.000000 0.000000 -0.042158 0.000000 -0.017894
# 5 -0.002371 0.004515 -0.003027 0.000000 0.037874 0.000000
# 6 0.000000 0.000000 0.000000 -0.017894 0.000000 0.021778
#
#
# Mechanical properties :
#
#
# Convention : Reuss Voigt Hill
#
# Bulk Modulus (GPa) = 43.13091 70.03603 56.58347
# Shear Modulus (GPa) = 45.47423 20.85737 33.16580
#
# Velocity S-wave (km/s) = 4.82602 3.26841 4.12147
# Velocity P-wave (km/s) = 7.29001 7.07910 7.18533
#
# Compressibility (1/GPa) = 0.02318523
#
# Stress axis : x y z
#
# Youngs Moduli (GPa) = 91.43951 89.64210 31.38171
#
# Poissons Ratio (x) = 0.41993 0.17689
# Poissons Ratio (y) = 0.42835 0.15894
# Poissons Ratio (z) = 0.51542 0.45402
#
# Static dielectric constant tensor:
#      x y z
#    x 1.682050 0.000000 -0.009090 
#    y 0.000000 1.657270 0.000000 
#    z -0.009090 0.000000 1.666930 
# 
# From -- ./inp_files/263264.got.cif
#   From: 2010.05.17/outbox.cif.g08.bks.cpg/sg15_132_cif.got.tgz:263264.got - 2010.06.03 18:47:42.
