data_PCOD9306501
_publ_section_title
;
Structure prediction by ZEFSAII (Michael W. Deem and Ramdas Pophale) SiO2 
 PCOD9306501
Probable space group: C 2/C
;
_chemical_formula_sum "Si O2"
_cell_formula_units_Z 52
_cell_length_a 20.093357
_cell_length_b 5.059749
_cell_length_c 21.073805
_cell_angle_alpha 90.000000
_cell_angle_beta 112.656548
_cell_angle_gamma 90.000000
_cell_volume 1977.180710
_symmetry_space_group_name_H-M "C 2/C"
_symmetry_group_IT_number 15
_symmetry_cell_setting 'monoclinic'
loop_
_space_group_symop_operation_xyz
x,y,z
-x,y,1/2-z
-x,-y,-z
x,-y,1/2+z
1/2+x,1/2+y,z
1/2-x,1/2+y,1/2-z
1/2-x,1/2-y,-z
1/2+x,1/2-y,1/2+z
loop_
_atom_site_type_symbol
_atom_site_label
_atom_site_fract_x
_atom_site_fract_y
_atom_site_fract_z
Si Si1 0.000000 0.307909 0.750000
Si Si2 0.244933 0.695625 0.285468
Si Si3 0.689853 0.012812 0.518998
Si Si4 0.386787 0.168483 0.730142
Si Si5 0.636024 0.510613 0.072328
Si Si6 0.521110 0.547788 0.136758
Si Si7 0.146891 0.891508 0.905955
O O1 0.939521 0.505019 0.704139
O O2 0.974664 0.150949 0.801951
O O3 0.233493 0.002505 0.265901
O O4 0.175129 0.537013 0.279205
O O5 0.306250 0.637348 0.358239
O O6 0.665015 0.768772 0.556330
O O7 0.776783 0.049930 0.556302
O O8 0.672121 0.891123 0.443762
O O9 0.641742 0.265589 0.519846
O O10 0.429600 0.226046 0.811101
O O11 0.365607 0.399438 0.674160
O O12 0.562789 0.480260 0.086681
O O13 0.434955 0.578535 0.096085
#
# Coordination Sequence:
#
# PCOD9306501 Si02
#       7
#     4   8   8   8   8   8   8
#     4  12  24  40  72 110 144 184 230 296 388 432
#     4  12  25  42  71 106 148 185 231 299 372 431
#     4  11  29  50  74 104 146 205 246 289 360 426
#     4  12  24  42  69 107 138 189 235 303 365 433
#     4  12  27  48  73 110 146 188 247 301 358 438
#     4  12  26  45  74 110 144 183 244 307 378 418
#     4  11  25  50  72 103 148 194 249 298 351 449
#
# _framework density 26.300075
#
# number of rings (size 3 to 8) (size 9 to 14) (size 15 to 20)
#    0.000    0.308    6.154    1.846    4.308    4.923 
#    0.000    0.000    0.000    0.000    0.000    0.000 
#    0.000    0.000    0.000    0.000    0.000    0.000 
#
# Total GULP energy -145220.575597 kJ/mol
# GULP energy per Si atom -5585.406754 kJ/mol
# Density = 2.624021 g / cm^3
# Si number density = 26.300075 Si / 1000 Ang^3
#
#
#
# Elastic Constant Matrix: (Units=GPa)
#
#
# Indices 1 2 3 4 5 6 
#
# 1 207.2659 21.0746 68.3371 0.0000 -14.5292 -0.0001
# 2 21.0746 91.5592 41.0055 -0.0005 -2.0438 -0.0002
# 3 68.3371 41.0055 89.9735 -0.0001 18.8299 -0.0001
# 4 0.0000 -0.0005 -0.0001 35.5371 0.0000 -1.0421
# 5 -14.5292 -2.0438 18.8299 0.0000 56.9087 0.0000
# 6 -0.0001 -0.0002 -0.0001 -1.0421 0.0000 37.3128
#
#
#
# Elastic Compliance Matrix: (Units=1/GPa)
#
#
# Indices 1 2 3 4 5 6 
#
# 1 0.007347 0.001646 -0.007236 0.000000 0.004329 0.000000
# 2 0.001646 0.014505 -0.008658 0.000000 0.003806 0.000000
# 3 -0.007236 -0.008658 0.022571 0.000000 -0.009627 0.000000
# 4 0.000000 0.000000 0.000000 0.028163 0.000000 0.000787
# 5 0.004329 0.003806 -0.009627 0.000000 0.021999 0.000000
# 6 0.000000 0.000000 0.000000 0.000787 0.000000 0.026822
#
#
# Mechanical properties :
#
#
# Convention : Reuss Voigt Hill
#
# Bulk Modulus (GPa) = 62.78415 72.18144 67.48279
# Shear Modulus (GPa) = 32.21393 43.17716 37.69554
#
# Velocity S-wave (km/s) = 3.50360 4.05620 3.78998
# Velocity P-wave (km/s) = 6.34752 7.03150 6.69824
#
# Compressibility (1/GPa) = 0.01592759
#
# Stress axis : x y z
#
# Youngs Moduli (GPa) = 136.11610 68.93989 44.30434
#
# Poissons Ratio (x) = -0.11351 0.32060
# Poissons Ratio (y) = -0.22411 0.38358
# Poissons Ratio (z) = 0.98499 0.59688
#
# Static dielectric constant tensor:
#      x y z
#    x 2.088710 0.000000 -0.011610 
#    y 0.000000 2.080910 0.000000 
#    z -0.011610 0.000000 2.093790 
# 
# From -- ./inp_files/278701.got.cif
#   From: 2010.05.17/outbox.cif.g08.bks.cpg/sg15_140_cif.got.tgz:278701.got - 2010.06.03 18:47:42.
