data_PCOD9306206
_publ_section_title
;
Structure prediction by ZEFSAII (Michael W. Deem and Ramdas Pophale) SiO2 
 PCOD9306206
Probable space group: C 2/C
;
_chemical_formula_sum "Si O2"
_cell_formula_units_Z 60
_cell_length_a 21.262274
_cell_length_b 12.222997
_cell_length_c 13.922802
_cell_angle_alpha 90.000000
_cell_angle_beta 42.533358
_cell_angle_gamma 90.000000
_cell_volume 2446.094234
_symmetry_space_group_name_H-M "C 2/C"
_symmetry_group_IT_number 15
_symmetry_cell_setting 'monoclinic'
loop_
_space_group_symop_operation_xyz
x,y,z
-x,y,1/2-z
-x,-y,-z
x,-y,1/2+z
1/2+x,1/2+y,z
1/2-x,1/2+y,1/2-z
1/2-x,1/2-y,-z
1/2+x,1/2-y,1/2+z
loop_
_atom_site_type_symbol
_atom_site_label
_atom_site_fract_x
_atom_site_fract_y
_atom_site_fract_z
Si Si1 0.094146 0.715240 0.928412
Si Si2 0.000000 0.413553 0.250000
Si Si3 0.202914 0.859025 0.943493
Si Si4 0.091074 0.991561 0.206187
Si Si5 0.130695 0.511579 0.450396
Si Si6 0.852663 0.765790 0.842049
Si Si7 0.166994 0.031297 0.813385
Si Si8 0.879037 0.272269 0.656715
O O1 0.146652 0.756785 0.963858
O O2 0.105543 0.584751 0.905022
O O3 0.140574 0.768456 0.781793
O O4 0.986325 0.744825 0.061306
O O5 0.943361 0.492658 0.383001
O O6 0.922725 0.331853 0.292058
O O7 0.310183 0.822903 0.814405
O O8 0.177231 0.956774 0.896007
O O9 0.168209 0.905690 0.082734
O O10 0.113252 0.117284 0.157343
O O11 0.000000 0.959765 0.250000
O O12 0.085386 0.988281 0.327978
O O13 0.238570 0.495253 0.351401
O O14 0.120671 0.633407 0.422657
O O15 0.750000 0.750000 0.000000
O O16 0.161661 0.160044 0.840016
#
# Coordination Sequence:
#
# PCOD9306206 Si02
#       8
#     8   4   8   8   8   8   8   8
#     4  12  25  50  73 110 150 197 251 297 378 452
#     4  12  26  46  70 108 148 194 248 310 362 444
#     4  11  27  46  76 109 148 196 247 310 374 442
#     4  12  27  47  72 112 146 192 250 308 374 438
#     4  11  26  47  74 110 147 196 245 304 374 448
#     4  12  28  43  74 106 150 191 249 306 367 439
#     4  11  25  48  75 106 150 190 248 306 374 438
#     4  11  25  45  76 104 145 201 244 301 371 439
#
# _framework density 24.528901000000001
#
# number of rings (size 3 to 8) (size 9 to 14) (size 15 to 20)
#    0.000    0.533    4.667    2.000    9.333    2.667 
#    3.600    0.000    0.000    0.000    0.000    0.000 
#    0.000    0.000    0.000    0.000    0.000    0.000 
#
# Total GULP energy -167980.058641 kJ/mol
# GULP energy per Si atom -5599.335288 kJ/mol
# Density = 2.447307 g / cm^3
# Si number density = 24.528901 Si / 1000 Ang^3
#
#
#
# Elastic Constant Matrix: (Units=GPa)
#
#
# Indices 1 2 3 4 5 6 
#
# 1 63.2965 6.3298 26.8546 0.0000 -8.4952 0.0000
# 2 6.3298 106.2151 13.8742 0.0000 5.2136 0.0000
# 3 26.8546 13.8742 106.6586 0.0000 -11.8413 0.0000
# 4 0.0000 0.0000 0.0000 37.0519 0.0000 0.1945
# 5 -8.4952 5.2136 -11.8413 0.0000 31.1534 0.0000
# 6 0.0000 0.0000 0.0000 0.1945 0.0000 36.2285
#
#
#
# Elastic Compliance Matrix: (Units=1/GPa)
#
#
# Indices 1 2 3 4 5 6 
#
# 1 0.018066 -0.000717 -0.004067 0.000000 0.003501 0.000000
# 2 -0.000717 0.009748 -0.001347 0.000000 -0.002339 0.000000
# 3 -0.004067 -0.001347 0.010938 0.000000 0.003274 0.000000
# 4 0.000000 0.000000 0.000000 0.026990 0.000000 -0.000145
# 5 0.003501 -0.002339 0.003274 0.000000 0.034690 0.000000
# 6 0.000000 0.000000 0.000000 -0.000145 0.000000 0.027603
#
#
# Mechanical properties :
#
#
# Convention : Reuss Voigt Hill
#
# Bulk Modulus (GPa) = 37.74976 41.14303 39.44640
# Shear Modulus (GPa) = 33.52839 36.16088 34.84463
#
# Velocity S-wave (km/s) = 3.70116 3.84372 3.77311
# Velocity P-wave (km/s) = 5.80415 6.04223 5.92439
#
# Compressibility (1/GPa) = 0.02649023
#
# Stress axis : x y z
#
# Youngs Moduli (GPa) = 55.35404 102.58108 91.42149
#
# Poissons Ratio (x) = 0.07357 0.37178
# Poissons Ratio (y) = 0.03970 0.12316
# Poissons Ratio (z) = 0.22510 0.13819
#
# Static dielectric constant tensor:
#      x y z
#    x 1.994920 0.000000 -0.020040 
#    y 0.000000 1.944940 0.000000 
#    z -0.020040 0.000000 1.967550 
# 
# From -- ./inp_files/222556.got.cif
#   From: 2010.05.17/outbox.cif.g08.bks.cpg/sg15_112_cif.got.tgz:222556.got - 2010.06.03 18:47:42.
