data_PCOD9306049
_publ_section_title
;
Structure prediction by ZEFSAII (Michael W. Deem and Ramdas Pophale) SiO2 
 PCOD9306049
Probable space group: C 2/C
;
_chemical_formula_sum "Si O2"
_cell_formula_units_Z 48
_cell_length_a 5.845155
_cell_length_b 14.381889
_cell_length_c 25.953481
_cell_angle_alpha 90.000000
_cell_angle_beta 103.015610
_cell_angle_gamma 90.000000
_cell_volume 2125.710802
_symmetry_space_group_name_H-M "C 2/C"
_symmetry_group_IT_number 15
_symmetry_cell_setting 'monoclinic'
loop_
_space_group_symop_operation_xyz
x,y,z
-x,y,1/2-z
-x,-y,-z
x,-y,1/2+z
1/2+x,1/2+y,z
1/2-x,1/2+y,1/2-z
1/2-x,1/2-y,-z
1/2+x,1/2-y,1/2+z
loop_
_atom_site_type_symbol
_atom_site_label
_atom_site_fract_x
_atom_site_fract_y
_atom_site_fract_z
Si Si1 0.369195 0.897785 0.188583
Si Si2 0.635762 0.750000 0.135762
Si Si3 0.274681 0.396738 0.603714
Si Si4 0.067253 0.103262 0.896286
Si Si5 0.471434 0.250000 0.471434
Si Si6 0.007971 0.602215 0.188583
O O1 0.500000 0.901809 0.250000
O O2 0.483304 0.807187 0.168892
O O3 0.090356 0.891361 0.164157
O O4 0.416357 0.000000 0.166357
O O5 0.488940 0.669986 0.101819
O O6 0.714698 0.830014 0.101819
O O7 0.854481 0.692813 0.168892
O O8 0.340501 0.500000 0.590501
O O9 0.061546 0.343617 0.565218
O O10 0.237958 0.391361 0.664157
O O11 0.931111 0.156383 0.934782
O O12 0.250000 0.250000 0.500000
O O13 0.750000 0.250000 0.500000
O O14 0.000000 0.598191 0.250000
#
# Coordination Sequence:
#
# PCOD9306049 Si02
#       6
#     8   8   8   8   8   8
#     4  11  25  43  70 109 150 198 252 304 367 457
#     4  12  23  43  72 100 146 200 247 293 380 438
#     4  12  26  48  75 105 152 197 245 317 385 457
#     4  12  26  48  75 105 152 197 245 317 385 457
#     4  12  29  51  82 116 146 194 265 329 394 466
#     4  11  25  43  70 109 150 198 252 304 367 457
#
# _framework density 22.580680000000001
#
# number of rings (size 3 to 8) (size 9 to 14) (size 15 to 20)
#    0.000    0.333    6.667    1.000    4.667    1.333 
#    0.000    0.000    0.000    0.000    0.000    0.000 
#    0.000    0.000    0.000    0.000    0.000    0.000 
#
# Total GULP energy -133734.392958 kJ/mol
# GULP energy per Si atom -5572.266373 kJ/mol
# Density = 2.252929 g / cm^3
# Si number density = 22.580680 Si / 1000 Ang^3
#
#
#
# Elastic Constant Matrix: (Units=GPa)
#
#
# Indices 1 2 3 4 5 6 
#
# 1 91.0469 56.2682 37.9658 0.0000 -1.8506 0.0000
# 2 56.2682 242.2974 40.2530 0.0000 -1.8382 0.0000
# 3 37.9658 40.2530 83.9157 0.0000 1.0320 0.0000
# 4 0.0000 0.0000 0.0000 15.2780 0.0000 -3.9730
# 5 -1.8506 -1.8382 1.0320 0.0000 18.8099 0.0000
# 6 0.0000 0.0000 0.0000 -3.9730 0.0000 49.8943
#
#
#
# Elastic Compliance Matrix: (Units=1/GPa)
#
#
# Indices 1 2 3 4 5 6 
#
# 1 0.014886 -0.002525 -0.005542 0.000000 0.001522 0.000000
# 2 -0.002525 0.004919 -0.001221 0.000000 0.000299 0.000000
# 3 -0.005542 -0.001221 0.015028 0.000000 -0.001489 0.000000
# 4 0.000000 0.000000 0.000000 0.066838 0.000000 0.005322
# 5 0.001522 0.000299 -0.001489 0.000000 0.053424 0.000000
# 6 0.000000 0.000000 0.000000 0.005322 0.000000 0.020466
#
#
# Mechanical properties :
#
#
# Convention : Reuss Voigt Hill
#
# Bulk Modulus (GPa) = 61.51287 76.24820 68.88053
# Shear Modulus (GPa) = 25.05580 35.64800 30.35190
#
# Velocity S-wave (km/s) = 3.33470 3.97759 3.67025
# Velocity P-wave (km/s) = 6.49057 7.41183 6.96645
#
# Compressibility (1/GPa) = 0.01625676
#
# Stress axis : x y z
#
# Youngs Moduli (GPa) = 67.17892 203.31329 66.54166
#
# Poissons Ratio (x) = 0.51327 0.36880
# Poissons Ratio (y) = 0.16960 0.08124
# Poissons Ratio (z) = 0.37233 0.24821
#
# Static dielectric constant tensor:
#      x y z
#    x 1.768530 0.000000 0.021770 
#    y 0.000000 1.926920 0.000000 
#    z 0.021770 0.000000 1.958190 
# 
# From -- ./inp_files/285560.got.cif
#   From: 2010.05.17/outbox.cif.g08.bks.cpg/sg15_143_cif.got.tgz:285560.got - 2010.06.03 18:47:42.
