data_PCOD9306043
_publ_section_title
;
Structure prediction by ZEFSAII (Michael W. Deem and Ramdas Pophale) SiO2 
 PCOD9306043
Probable space group: C 2/C
;
_chemical_formula_sum "Si O2"
_cell_formula_units_Z 56
_cell_length_a 14.699308
_cell_length_b 20.291991
_cell_length_c 18.371772
_cell_angle_alpha 90.000000
_cell_angle_beta 151.394103
_cell_angle_gamma 90.000000
_cell_volume 2623.678470
_symmetry_space_group_name_H-M "C 2/C"
_symmetry_group_IT_number 15
_symmetry_cell_setting 'monoclinic'
loop_
_space_group_symop_operation_xyz
x,y,z
-x,y,1/2-z
-x,-y,-z
x,-y,1/2+z
1/2+x,1/2+y,z
1/2-x,1/2+y,1/2-z
1/2-x,1/2-y,-z
1/2+x,1/2-y,1/2+z
loop_
_atom_site_type_symbol
_atom_site_label
_atom_site_fract_x
_atom_site_fract_y
_atom_site_fract_z
Si Si1 0.000000 0.485054 0.250000
Si Si2 0.659718 0.091447 0.466973
Si Si3 0.500000 0.513355 0.750000
Si Si4 0.911192 0.195348 0.608080
Si Si5 0.217376 0.711945 0.727176
Si Si6 0.892424 0.658782 0.391146
Si Si7 0.864056 0.962339 0.800596
Si Si8 0.310432 0.418972 0.371966
O O1 0.053329 0.533636 0.352763
O O2 0.169727 0.443165 0.336251
O O3 0.794397 0.130107 0.504847
O O4 0.521616 0.141455 0.411196
O O5 0.811400 0.057332 0.626316
O O6 0.498593 0.474847 0.825077
O O7 0.750000 0.250000 0.500000
O O8 0.000000 0.187079 0.750000
O O9 0.087171 0.209337 0.681239
O O10 0.226763 0.787043 0.762174
O O11 0.249043 0.654193 0.807458
O O12 0.037491 0.690478 0.551804
O O13 0.800781 0.587108 0.342694
O O14 0.801451 0.030957 0.795844
O O15 0.979949 0.925609 0.946393
#
# Coordination Sequence:
#
# PCOD9306043 Si02
#       8
#     4   8   4   8   8   8   8   8
#     4  12  26  42  70 102 132 188 230 298 334 418
#     4  12  23  40  64  99 134 176 229 285 351 413
#     4  12  24  44  68  98 140 172 236 298 358 414
#     4  12  23  38  60  94 136 180 221 276 347 420
#     4  12  25  43  66 100 145 185 235 284 352 428
#     4  12  25  43  69 100 140 189 234 288 352 418
#     4  11  25  43  69 100 137 183 231 297 352 416
#     4  11  25  45  68 101 142 183 237 289 354 415
#
# _framework density 21.344080000000002
#
# number of rings (size 3 to 8) (size 9 to 14) (size 15 to 20)
#    0.000    0.286    6.429    2.571    5.000    2.286 
#    0.000    0.714    0.000    3.429    0.000    0.000 
#    0.000    0.000    0.000    0.000    0.000    0.000 
#
# Total GULP energy -156348.594420 kJ/mol
# GULP energy per Si atom -5583.878372 kJ/mol
# Density = 2.129550 g / cm^3
# Si number density = 21.344080 Si / 1000 Ang^3
#
#
#
# Elastic Constant Matrix: (Units=GPa)
#
#
# Indices 1 2 3 4 5 6 
#
# 1 57.7307 18.2368 12.9957 -0.0093 -6.7718 -0.0023
# 2 18.2368 101.1023 36.0919 -0.0178 -4.7069 -0.0044
# 3 12.9957 36.0919 80.0657 -0.0286 4.3666 -0.0038
# 4 -0.0093 -0.0178 -0.0286 39.7596 -0.0055 10.5679
# 5 -6.7718 -4.7069 4.3666 -0.0055 23.1285 0.0008
# 6 -0.0023 -0.0044 -0.0038 10.5679 0.0008 31.8208
#
#
#
# Elastic Compliance Matrix: (Units=1/GPa)
#
#
# Indices 1 2 3 4 5 6 
#
# 1 0.019260 -0.002369 -0.002364 0.000003 0.005603 0.000000
# 2 -0.002369 0.012356 -0.005340 0.000001 0.002829 0.000000
# 3 -0.002364 -0.005340 0.015537 0.000008 -0.004712 -0.000002
# 4 0.000003 0.000001 0.000008 0.027586 0.000006 -0.009162
# 5 0.005603 0.002829 -0.004712 0.000006 0.046343 -0.000003
# 6 0.000000 0.000000 -0.000002 -0.009162 -0.000003 0.034469
#
#
# Mechanical properties :
#
#
# Convention : Reuss Voigt Hill
#
# Bulk Modulus (GPa) = 37.02616 41.50529 39.26572
# Shear Modulus (GPa) = 27.07111 30.38005 28.72558
#
# Velocity S-wave (km/s) = 3.56521 3.77682 3.67254
# Velocity P-wave (km/s) = 5.85940 6.20542 6.03489
#
# Compressibility (1/GPa) = 0.02700793
#
# Stress axis : x y z
#
# Youngs Moduli (GPa) = 51.92221 80.93076 64.36100
#
# Poissons Ratio (x) = 0.19176 0.15212
# Poissons Ratio (y) = 0.12303 0.34366
# Poissons Ratio (z) = 0.12272 0.43214
#
# Static dielectric constant tensor:
#      x y z
#    x 1.729560 0.000010 -0.061970 
#    y 0.000010 1.842060 0.000000 
#    z -0.061970 0.000000 1.748660 
# 
# From -- ./inp_files/207029.got.cif
#   From: 2010.05.17/outbox.cif.g08.bks.cpg/sg15_104_cif.got.tgz:207029.got - 2010.06.03 18:47:42.
