data_PCOD9306706
_publ_section_title
;
Structure prediction by ZEFSAII (Michael W. Deem and Ramdas Pophale) SiO2 
 PCOD9306706
Probable space group: C 2/C
;
_chemical_formula_sum "Si O2"
_cell_formula_units_Z 44
_cell_length_a 29.279066
_cell_length_b 8.660116
_cell_length_c 23.734366
_cell_angle_alpha 90.000000
_cell_angle_beta 161.600106
_cell_angle_gamma 90.000000
_cell_volume 1899.593245
_symmetry_space_group_name_H-M "C 2/C"
_symmetry_group_IT_number 15
_symmetry_cell_setting 'monoclinic'
loop_
_space_group_symop_operation_xyz
x,y,z
-x,y,1/2-z
-x,-y,-z
x,-y,1/2+z
1/2+x,1/2+y,z
1/2-x,1/2+y,1/2-z
1/2-x,1/2-y,-z
1/2+x,1/2-y,1/2+z
loop_
_atom_site_type_symbol
_atom_site_label
_atom_site_fract_x
_atom_site_fract_y
_atom_site_fract_z
Si Si1 0.500000 0.332956 0.250000
Si Si2 0.357214 0.588786 0.151316
Si Si3 0.359766 0.900192 0.196384
Si Si4 0.159844 0.454483 0.704509
Si Si5 0.155830 0.085942 0.679702
Si Si6 0.365535 0.060628 0.030163
O O1 0.447734 0.437811 0.241286
O O2 0.379975 0.223519 0.079985
O O3 0.430383 0.729237 0.270813
O O4 0.291357 0.626181 0.012825
O O5 0.216341 0.546174 0.021944
O O6 0.325383 0.975867 0.215758
O O7 0.472960 0.013236 0.298255
O O8 0.157206 0.270332 0.691285
O O9 0.274244 0.534802 0.797245
O O10 0.000000 0.500000 0.500000
O O11 0.266837 0.040479 0.859381
O O12 0.000000 0.000000 0.500000
#
# Coordination Sequence:
#
# PCOD9306706 Si02
#       6
#     4   8   8   8   8   8
#     4  12  26  46  76 116 152 202 252 320 406 456
#     4  11  27  45  78 111 151 198 252 322 398 464
#     4  11  26  48  76 110 155 199 258 320 389 466
#     4  12  27  52  77 111 156 208 266 323 386 465
#     4  12  30  49  78 115 155 211 260 322 391 460
#     4  12  26  48  75 109 156 195 260 322 387 468
#
# _framework density 23.162852999999998
#
# number of rings (size 3 to 8) (size 9 to 14) (size 15 to 20)
#    0.000    0.364    3.636    2.727   12.727    1.455 
#    0.000    0.000    0.000    0.000    0.000    0.000 
#    0.000    0.000    0.000    0.000    0.000    0.000 
#
# Total GULP energy -122845.953588 kJ/mol
# GULP energy per Si atom -5583.906981 kJ/mol
# Density = 2.311013 g / cm^3
# Si number density = 23.162853 Si / 1000 Ang^3
#
#
#
# Elastic Constant Matrix: (Units=GPa)
#
#
# Indices 1 2 3 4 5 6 
#
# 1 176.0364 87.8102 28.6473 0.0000 12.0997 0.0000
# 2 87.8102 166.2019 34.1977 0.0000 -6.1700 0.0000
# 3 28.6473 34.1977 53.7065 0.0001 5.3666 0.0000
# 4 0.0000 0.0000 0.0001 28.8076 0.0000 15.2698
# 5 12.0997 -6.1700 5.3666 0.0000 30.2921 0.0000
# 6 0.0000 0.0000 0.0000 15.2698 0.0000 34.4499
#
#
#
# Elastic Compliance Matrix: (Units=1/GPa)
#
#
# Indices 1 2 3 4 5 6 
#
# 1 0.008288 -0.004254 -0.001318 0.000000 -0.003944 0.000000
# 2 -0.004254 0.009259 -0.004056 0.000000 0.004304 0.000000
# 3 -0.001318 -0.004056 0.022331 0.000000 -0.004256 0.000000
# 4 0.000000 0.000000 0.000000 0.045373 0.000000 -0.020112
# 5 -0.003944 0.004304 -0.004256 0.000000 0.036218 0.000000
# 6 0.000000 0.000000 0.000000 -0.020112 0.000000 0.037942
#
#
# Mechanical properties :
#
#
# Convention : Reuss Voigt Hill
#
# Bulk Modulus (GPa) = 48.49490 77.47279 62.98385
# Shear Modulus (GPa) = 26.94806 35.06257 31.00532
#
# Velocity S-wave (km/s) = 3.41459 3.89490 3.66263
# Velocity P-wave (km/s) = 6.04383 7.33121 6.71843
#
# Compressibility (1/GPa) = 0.02062073
#
# Stress axis : x y z
#
# Youngs Moduli (GPa) = 120.65261 108.00505 44.78078
#
# Poissons Ratio (x) = 0.45947 0.05903
# Poissons Ratio (y) = 0.51328 0.18165
# Poissons Ratio (z) = 0.15903 0.43811
#
# Static dielectric constant tensor:
#      x y z
#    x 1.915630 0.000000 -0.128490 
#    y 0.000000 2.024970 0.000000 
#    z -0.128490 0.000000 1.982440 
# 
# From -- ./inp_files/284491.got.cif
#   From: 2010.05.17/outbox.cif.g08.bks.cpg/sg15_143_cif.got.tgz:284491.got - 2010.06.03 18:47:42.
