data_PCOD9306303
_publ_section_title
;
Structure prediction by ZEFSAII (Michael W. Deem and Ramdas Pophale) SiO2 
 PCOD9306303
Probable space group: C 2/C
;
_chemical_formula_sum "Si O2"
_cell_formula_units_Z 48
_cell_length_a 8.466955
_cell_length_b 18.203650
_cell_length_c 27.830177
_cell_angle_alpha 90.000000
_cell_angle_beta 29.297144
_cell_angle_gamma 90.000000
_cell_volume 2098.995514
_symmetry_space_group_name_H-M "C 2/C"
_symmetry_group_IT_number 15
_symmetry_cell_setting 'monoclinic'
loop_
_space_group_symop_operation_xyz
x,y,z
-x,y,1/2-z
-x,-y,-z
x,-y,1/2+z
1/2+x,1/2+y,z
1/2-x,1/2+y,1/2-z
1/2-x,1/2-y,-z
1/2+x,1/2-y,1/2+z
loop_
_atom_site_type_symbol
_atom_site_label
_atom_site_fract_x
_atom_site_fract_y
_atom_site_fract_z
Si Si1 0.591807 0.127005 0.781195
Si Si2 0.251095 0.538385 0.967729
Si Si3 0.724865 0.681400 0.961765
Si Si4 0.747286 0.414444 0.853689
Si Si5 0.241951 0.684046 0.903844
Si Si6 0.148067 0.518827 0.328679
O O1 0.500000 0.115794 0.750000
O O2 0.276171 0.147864 0.895751
O O3 0.705350 0.055738 0.782048
O O4 0.873225 0.188868 0.707561
O O5 0.581304 0.490327 0.879730
O O6 0.253629 0.618593 0.941342
O O7 0.000000 0.500000 0.000000
O O8 0.093037 0.521960 0.061844
O O9 0.077662 0.677786 0.894017
O O10 0.532489 0.636835 0.053368
O O11 0.501631 0.752854 0.012972
O O12 0.000000 0.380919 0.750000
O O13 0.967941 0.429295 0.840297
O O14 0.500000 0.544752 0.250000
#
# Coordination Sequence:
#
# PCOD9306303 Si02
#       6
#     8   8   8   8   8   8
#     4  12  25  47  73 105 147 197 244 298 372 443
#     4  12  22  44  72 105 140 184 241 304 362 434
#     4  11  26  47  72 106 145 193 244 301 368 450
#     4  12  25  44  70 107 144 188 247 306 365 428
#     4  11  25  46  76 101 147 194 243 296 378 443
#     4  12  25  43  71 104 145 187 243 307 363 433
#
# _framework density 22.868079999999999
#
# number of rings (size 3 to 8) (size 9 to 14) (size 15 to 20)
#    0.000    0.333    3.333    6.500    2.333    3.333 
#    0.000    0.000    0.000    0.000    0.000    0.000 
#    0.000    0.000    0.000    0.000    0.000    0.000 
#
# Total GULP energy -133660.954232 kJ/mol
# GULP energy per Si atom -5569.206426 kJ/mol
# Density = 2.281603 g / cm^3
# Si number density = 22.868080 Si / 1000 Ang^3
#
#
#
# Elastic Constant Matrix: (Units=GPa)
#
#
# Indices 1 2 3 4 5 6 
#
# 1 106.2281 22.0585 35.6002 0.3771 6.7358 -0.1896
# 2 22.0585 60.4560 25.3328 -0.2552 1.0289 0.0347
# 3 35.6002 25.3328 127.2772 -0.4599 13.0597 0.0599
# 4 0.3771 -0.2552 -0.4599 10.7311 -0.1144 -4.9117
# 5 6.7358 1.0289 13.0597 -0.1144 57.9243 0.0873
# 6 -0.1896 0.0347 0.0599 -4.9117 0.0873 34.6254
#
#
#
# Elastic Compliance Matrix: (Units=1/GPa)
#
#
# Indices 1 2 3 4 5 6 
#
# 1 0.010872 -0.002958 -0.002385 -0.000567 -0.000675 -0.000012
# 2 -0.002958 0.018866 -0.002996 0.000446 0.000685 0.000032
# 3 -0.002385 -0.002996 0.009303 0.000409 -0.001766 0.000036
# 4 -0.000567 0.000446 0.000409 0.099708 0.000141 0.014139
# 5 -0.000675 0.000685 -0.001766 0.000141 0.017729 -0.000026
# 6 -0.000012 0.000032 0.000036 0.014139 -0.000026 0.030886
#
#
# Mechanical properties :
#
#
# Convention : Reuss Voigt Hill
#
# Bulk Modulus (GPa) = 44.71885 51.10495 47.91190
# Shear Modulus (GPa) = 23.64096 34.72081 29.18088
#
# Velocity S-wave (km/s) = 3.21876 3.90078 3.57606
# Velocity P-wave (km/s) = 5.78027 6.53332 6.16830
#
# Compressibility (1/GPa) = 0.02236193
#
# Stress axis : x y z
#
# Youngs Moduli (GPa) = 91.97863 53.00510 107.49222
#
# Poissons Ratio (x) = 0.15681 0.25636
# Poissons Ratio (y) = 0.27211 0.32208
# Poissons Ratio (z) = 0.21936 0.15882
#
# Static dielectric constant tensor:
#      x y z
#    x 1.769030 0.001130 -0.181020 
#    y 0.001130 1.953030 0.002400 
#    z -0.181020 0.002400 1.465740 
# 
# From -- ./inp_files/290062.got.cif
#   From: 2010.05.17/outbox.cif.g08.bks.cpg/sg15_146_cif.got.tgz:290062.got - 2010.06.03 18:47:42.
