data_PCOD9306415
_publ_section_title
;
Structure prediction by ZEFSAII (Michael W. Deem and Ramdas Pophale) SiO2 
 PCOD9306415
Probable space group: C 2/C
;
_chemical_formula_sum "Si O2"
_cell_formula_units_Z 36
_cell_length_a 12.682282
_cell_length_b 9.862792
_cell_length_c 12.451081
_cell_angle_alpha 90.000000
_cell_angle_beta 115.204464
_cell_angle_gamma 90.000000
_cell_volume 1409.139507
_symmetry_space_group_name_H-M "C 2/C"
_symmetry_group_IT_number 15
_symmetry_cell_setting 'monoclinic'
loop_
_space_group_symop_operation_xyz
x,y,z
-x,y,1/2-z
-x,-y,-z
x,-y,1/2+z
1/2+x,1/2+y,z
1/2-x,1/2+y,1/2-z
1/2-x,1/2-y,-z
1/2+x,1/2-y,1/2+z
loop_
_atom_site_type_symbol
_atom_site_label
_atom_site_fract_x
_atom_site_fract_y
_atom_site_fract_z
Si Si1 0.850899 0.937138 0.522816
Si Si2 0.000000 0.227530 0.250000
Si Si3 0.865120 0.489567 0.467865
Si Si4 0.736029 0.142734 0.764033
Si Si5 0.379330 0.263635 0.134882
O O1 0.951385 0.858278 0.628729
O O2 0.834923 0.898986 0.391768
O O3 0.719152 0.904598 0.509342
O O4 0.872450 0.093831 0.566816
O O5 0.113631 0.307866 0.259199
O O6 0.800987 0.482880 0.325881
O O7 0.863488 0.358875 0.545759
O O8 0.000000 0.500000 0.500000
O O9 0.786492 0.239002 0.692284
O O10 0.500000 0.254645 0.250000
#
# Coordination Sequence:
#
# PCOD9306415 Si02
#       5
#     8   4   8   8   8
#     4  11  25  48  72 112 150 208 259 318 392 452
#     4  12  26  46  72 116 152 204 264 322 394 450
#     4  11  27  48  74 110 151 201 258 322 388 462
#     4  11  26  46  73 106 155 202 255 322 382 463
#     4  11  27  48  74 111 149 205 257 319 384 464
#
# _framework density 25.547505999999998
#
# number of rings (size 3 to 8) (size 9 to 14) (size 15 to 20)
#    0.000    0.889    1.111    4.667    9.333    6.222 
#    0.000    0.000    0.000    0.000    0.000    0.000 
#    0.000    0.000    0.000    0.000    0.000    0.000 
#
# Total GULP energy -100654.669012 kJ/mol
# GULP energy per Si atom -5591.926056 kJ/mol
# Density = 2.548936 g / cm^3
# Si number density = 25.547506 Si / 1000 Ang^3
#
#
#
# Elastic Constant Matrix: (Units=GPa)
#
#
# Indices 1 2 3 4 5 6 
#
# 1 117.8534 19.8452 44.4422 0.0000 2.1811 0.0000
# 2 19.8452 81.2635 70.3413 0.0000 -12.3969 0.0000
# 3 44.4422 70.3413 268.6833 0.0000 16.9693 0.0000
# 4 0.0000 0.0000 0.0000 46.2753 0.0000 -1.2466
# 5 2.1811 -12.3969 16.9693 0.0000 42.6531 0.0000
# 6 0.0000 0.0000 0.0000 -1.2466 0.0000 35.8822
#
#
#
# Elastic Compliance Matrix: (Units=1/GPa)
#
#
# Indices 1 2 3 4 5 6 
#
# 1 0.009144 -0.001299 -0.001148 0.000000 -0.000388 0.000000
# 2 -0.001299 0.018032 -0.004966 0.000000 0.007283 0.000000
# 3 -0.001148 -0.004966 0.005436 0.000000 -0.003547 0.000000
# 4 0.000000 0.000000 0.000000 0.021630 0.000000 0.000751
# 5 -0.000388 0.007283 -0.003547 0.000000 0.026993 0.000000
# 6 0.000000 0.000000 0.000000 0.000751 0.000000 0.027895
#
#
# Mechanical properties :
#
#
# Convention : Reuss Voigt Hill
#
# Bulk Modulus (GPa) = 56.22092 81.89528 69.05810
# Shear Modulus (GPa) = 38.49576 47.17356 42.83466
#
# Velocity S-wave (km/s) = 3.88600 4.30176 4.09915
# Velocity P-wave (km/s) = 6.49530 7.53652 7.03520
#
# Compressibility (1/GPa) = 0.01778697
#
# Stress axis : x y z
#
# Youngs Moduli (GPa) = 109.36291 55.45560 183.96219
#
# Poissons Ratio (x) = 0.07201 0.21118
# Poissons Ratio (y) = 0.14201 0.91357
# Poissons Ratio (z) = 0.12555 0.27540
#
# Static dielectric constant tensor:
#      x y z
#    x 2.079090 0.000000 -0.029630 
#    y 0.000000 2.098040 0.000000 
#    z -0.029630 0.000000 2.002290 
# 
# From -- ./inp_files/94762.got.cif
#   From: 2010.05.17/outbox.cif.g08.bks.cpg/sg15_48_cif.got.tgz:94762.got - 2010.06.03 18:47:42.
