data_PCOD9306396
_publ_section_title
;
Structure prediction by ZEFSAII (Michael W. Deem and Ramdas Pophale) SiO2 
 PCOD9306396
Probable space group: C 2/C
;
_chemical_formula_sum "Si O2"
_cell_formula_units_Z 44
_cell_length_a 16.084951
_cell_length_b 8.790848
_cell_length_c 14.745303
_cell_angle_alpha 90.000000
_cell_angle_beta 114.454653
_cell_angle_gamma 90.000000
_cell_volume 1897.944912
_symmetry_space_group_name_H-M "C 2/C"
_symmetry_group_IT_number 15
_symmetry_cell_setting 'monoclinic'
loop_
_space_group_symop_operation_xyz
x,y,z
-x,y,1/2-z
-x,-y,-z
x,-y,1/2+z
1/2+x,1/2+y,z
1/2-x,1/2+y,1/2-z
1/2-x,1/2-y,-z
1/2+x,1/2-y,1/2+z
loop_
_atom_site_type_symbol
_atom_site_label
_atom_site_fract_x
_atom_site_fract_y
_atom_site_fract_z
Si Si1 0.666471 0.961684 0.109957
Si Si2 0.834986 0.490501 0.104139
Si Si3 0.866149 0.075611 0.916751
Si Si4 0.822631 0.735004 0.240706
Si Si5 0.531541 0.717199 0.077413
Si Si6 0.500000 0.215269 0.750000
O O1 0.731449 0.824045 0.171939
O O2 0.566735 0.886854 0.076554
O O3 0.685130 0.101914 0.186254
O O4 0.679344 0.995547 0.009806
O O5 0.739709 0.429147 0.103663
O O6 0.854828 0.650843 0.164204
O O7 0.919717 0.385791 0.170495
O O8 0.878885 0.137486 0.820259
O O9 0.908773 0.908377 0.947738
O O10 0.927325 0.187922 0.003972
O O11 0.542286 0.688749 0.188564
#
# Coordination Sequence:
#
# PCOD9306396 Si02
#       6
#     8   8   8   8   8   4
#     4  12  25  46  76 107 147 185 252 297 363 430
#     4  12  27  45  75 109 140 195 243 299 358 437
#     4  11  26  47  73 103 145 192 240 300 369 428
#     4  12  23  46  72 104 148 191 236 303 361 428
#     4  11  25  48  70 105 144 188 243 303 358 441
#     4  12  26  48  72 110 146 194 242 298 372 428
#
# _framework density 23.182970999999998
#
# number of rings (size 3 to 8) (size 9 to 14) (size 15 to 20)
#    0.000    0.364    5.455    1.636    2.545    7.273 
#    3.273    0.000    0.000    0.000    0.000    0.000 
#    0.000    0.000    0.000    0.000    0.000    0.000 
#
# Total GULP energy -122994.816326 kJ/mol
# GULP energy per Si atom -5590.673469 kJ/mol
# Density = 2.313021 g / cm^3
# Si number density = 23.182971 Si / 1000 Ang^3
#
#
#
# Elastic Constant Matrix: (Units=GPa)
#
#
# Indices 1 2 3 4 5 6 
#
# 1 73.0685 40.0640 39.7304 0.0000 4.4275 0.0000
# 2 40.0640 92.2755 51.2741 0.0000 15.6372 0.0000
# 3 39.7304 51.2741 160.4701 0.0000 -4.3373 0.0000
# 4 0.0000 0.0000 0.0000 46.0114 0.0000 0.2658
# 5 4.4275 15.6372 -4.3373 0.0000 35.2840 0.0000
# 6 0.0000 0.0000 0.0000 0.2658 0.0000 25.6689
#
#
#
# Elastic Compliance Matrix: (Units=1/GPa)
#
#
# Indices 1 2 3 4 5 6 
#
# 1 0.018745 -0.006845 -0.002443 0.000000 0.000381 0.000000
# 2 -0.006845 0.017282 -0.004024 0.000000 -0.007295 0.000000
# 3 -0.002443 -0.004024 0.008206 0.000000 0.003099 0.000000
# 4 0.000000 0.000000 0.000000 0.021735 0.000000 -0.000225
# 5 0.000381 -0.007295 0.003099 0.000000 0.031907 0.000000
# 6 0.000000 0.000000 0.000000 -0.000225 0.000000 0.038960
#
#
# Mechanical properties :
#
#
# Convention : Reuss Voigt Hill
#
# Bulk Modulus (GPa) = 56.79753 65.32792 61.06272
# Shear Modulus (GPa) = 29.52822 34.37589 31.95206
#
# Velocity S-wave (km/s) = 3.57277 3.85490 3.71651
# Velocity P-wave (km/s) = 6.44767 6.93211 6.69427
#
# Compressibility (1/GPa) = 0.01760640
#
# Stress axis : x y z
#
# Youngs Moduli (GPa) = 53.34849 57.86528 121.85894
#
# Poissons Ratio (x) = 0.39612 0.29774
# Poissons Ratio (y) = 0.36520 0.49038
# Poissons Ratio (z) = 0.13035 0.23286
#
# Static dielectric constant tensor:
#      x y z
#    x 1.888250 0.000000 0.017940 
#    y 0.000000 1.878170 0.000000 
#    z 0.017940 0.000000 1.867050 
# 
# From -- ./inp_files/159643.got.cif
#   From: 2010.05.17/outbox.cif.g08.bks.cpg/sg15_80_cif.got.tgz:159643.got - 2010.06.03 18:47:42.
