data_PCOD9306367
_publ_section_title
;
Structure prediction by ZEFSAII (Michael W. Deem and Ramdas Pophale) SiO2 
 PCOD9306367
Probable space group: C 2/C
;
_chemical_formula_sum "Si O2"
_cell_formula_units_Z 28
_cell_length_a 22.043417
_cell_length_b 7.706851
_cell_length_c 9.687708
_cell_angle_alpha 90.000000
_cell_angle_beta 44.561641
_cell_angle_gamma 90.000000
_cell_volume 1154.818322
_symmetry_space_group_name_H-M "C 2/C"
_symmetry_group_IT_number 15
_symmetry_cell_setting 'monoclinic'
loop_
_space_group_symop_operation_xyz
x,y,z
-x,y,1/2-z
-x,-y,-z
x,-y,1/2+z
1/2+x,1/2+y,z
1/2-x,1/2+y,1/2-z
1/2-x,1/2-y,-z
1/2+x,1/2-y,1/2+z
loop_
_atom_site_type_symbol
_atom_site_label
_atom_site_fract_x
_atom_site_fract_y
_atom_site_fract_z
Si Si1 0.000000 0.000000 0.500000
Si Si2 0.323970 0.519584 0.945253
Si Si3 0.549175 0.876477 0.525399
Si Si4 0.766602 0.616996 0.673027
O O1 0.921804 0.038559 0.738524
O O2 0.047944 0.183517 0.465659
O O3 0.266031 0.501721 0.901997
O O4 0.308667 0.379522 0.089986
O O5 0.291723 0.697391 0.069388
O O6 0.500000 0.883463 0.750000
O O7 0.646568 0.942573 0.391942
O O8 0.500000 0.000000 0.500000
#
# Coordination Sequence:
#
# PCOD9306367 Si02
#       4
#     4   8   8   8
#     4  12  28  52  76 118 160 212 254 334 392 482
#     4  11  26  48  81 107 164 199 267 324 404 471
#     4  12  27  50  79 116 160 207 270 327 401 472
#     4  11  25  47  75 117 147 211 259 328 397 477
#
# _framework density 24.246236
#
# number of rings (size 3 to 8) (size 9 to 14) (size 15 to 20)
#    0.000    0.571    2.857    3.429    4.000    8.000 
#    0.000    0.000    0.000    0.000    0.000    0.000 
#    0.000    0.000    0.000    0.000    0.000    0.000 
#
# Total GULP energy -77947.975022 kJ/mol
# GULP energy per Si atom -5567.712502 kJ/mol
# Density = 2.419105 g / cm^3
# Si number density = 24.246236 Si / 1000 Ang^3
#
#
#
# Elastic Constant Matrix: (Units=GPa)
#
#
# Indices 1 2 3 4 5 6 
#
# 1 124.8945 24.8730 43.6958 0.0000 24.5855 0.0000
# 2 24.8730 61.8670 53.9213 0.0000 21.4847 0.0000
# 3 43.6958 53.9213 179.8344 0.0000 -6.0284 0.0000
# 4 0.0000 0.0000 0.0000 41.0831 0.0000 12.1769
# 5 24.5855 21.4847 -6.0284 0.0000 41.7845 0.0000
# 6 0.0000 0.0000 0.0000 12.1769 0.0000 29.6022
#
#
#
# Elastic Compliance Matrix: (Units=1/GPa)
#
#
# Indices 1 2 3 4 5 6 
#
# 1 0.010234 0.000884 -0.002983 0.000000 -0.006906 0.000000
# 2 0.000884 0.030702 -0.010016 0.000000 -0.017751 0.000000
# 3 -0.002983 -0.010016 0.009566 0.000000 0.008285 0.000000
# 4 0.000000 0.000000 0.000000 0.027721 0.000000 -0.011403
# 5 -0.006906 -0.017751 0.008285 0.000000 0.038319 0.000000
# 6 0.000000 0.000000 0.000000 -0.011403 0.000000 0.038472
#
#
# Mechanical properties :
#
#
# Convention : Reuss Voigt Hill
#
# Bulk Modulus (GPa) = 38.06199 67.95290 53.00745
# Shear Modulus (GPa) = 26.59566 38.76770 32.68168
#
# Velocity S-wave (km/s) = 3.31554 4.00298 3.67537
# Velocity P-wave (km/s) = 5.51264 7.03222 6.31828
#
# Compressibility (1/GPa) = 0.02627293
#
# Stress axis : x y z
#
# Youngs Moduli (GPa) = 97.71397 32.57110 104.53362
#
# Poissons Ratio (x) = -0.02879 0.31185
# Poissons Ratio (y) = -0.08638 1.04696
# Poissons Ratio (z) = 0.29150 0.32622
#
# Static dielectric constant tensor:
#      x y z
#    x 1.977130 0.000000 0.010290 
#    y 0.000000 1.970220 0.000000 
#    z 0.010290 0.000000 1.911230 
# 
# From -- ./inp_files/64694.got.cif
#   From: 2010.05.17/outbox.cif.g08.bks.cpg/sg15_33_cif.got.tgz:64694.got - 2010.06.03 18:47:42.
