data_PCOD9306187
_publ_section_title
;
Structure prediction by ZEFSAII (Michael W. Deem and Ramdas Pophale) SiO2 
 PCOD9306187
Probable space group: C 2/C
;
_chemical_formula_sum "Si O2"
_cell_formula_units_Z 40
_cell_length_a 14.262384
_cell_length_b 4.654707
_cell_length_c 23.812572
_cell_angle_alpha 90.000000
_cell_angle_beta 79.670337
_cell_angle_gamma 90.000000
_cell_volume 1555.228533
_symmetry_space_group_name_H-M "C 2/C"
_symmetry_group_IT_number 15
_symmetry_cell_setting 'monoclinic'
loop_
_space_group_symop_operation_xyz
x,y,z
-x,y,1/2-z
-x,-y,-z
x,-y,1/2+z
1/2+x,1/2+y,z
1/2-x,1/2+y,1/2-z
1/2-x,1/2-y,-z
1/2+x,1/2-y,1/2+z
loop_
_atom_site_type_symbol
_atom_site_label
_atom_site_fract_x
_atom_site_fract_y
_atom_site_fract_z
Si Si1 0.130110 0.340143 0.708684
Si Si2 0.245570 0.177911 0.158799
Si Si3 0.947089 0.049558 0.946680
Si Si4 0.947875 0.658675 0.166582
Si Si5 0.311624 0.930892 0.449184
O O1 0.207672 0.591144 0.708818
O O2 0.093225 0.205638 0.770921
O O3 0.042070 0.482480 0.683775
O O4 0.171320 0.082181 0.667282
O O5 0.348649 0.031019 0.154940
O O6 0.242276 0.375025 0.103436
O O7 0.014769 0.160252 0.889879
O O8 0.910255 0.740314 0.933381
O O9 0.146609 0.741945 0.038871
O O10 0.000000 0.000000 0.000000
O O11 0.250000 0.750000 0.500000
#
# Coordination Sequence:
#
# PCOD9306187 Si02
#       5
#     8   8   8   8   8
#     4  11  26  45  69 107 145 180 240 286 354 431
#     4  12  24  46  70 105 143 184 235 289 358 421
#     4  12  26  47  70 104 141 187 243 293 361 430
#     4  11  25  45  74 103 142 190 229 298 353 419
#     4  12  25  46  69 103 144 185 239 301 353 430
#
# _framework density 25.719691999999998
#
# number of rings (size 3 to 8) (size 9 to 14) (size 15 to 20)
#    0.000    0.400    4.000    3.600    0.000    9.600 
#    0.000    0.000    0.000    0.000    0.000    0.000 
#    0.000    0.000    0.000    0.000    0.000    0.000 
#
# Total GULP energy -111607.202303 kJ/mol
# GULP energy per Si atom -5580.360115 kJ/mol
# Density = 2.566115 g / cm^3
# Si number density = 25.719692 Si / 1000 Ang^3
#
#
#
# Elastic Constant Matrix: (Units=GPa)
#
#
# Indices 1 2 3 4 5 6 
#
# 1 142.4671 22.2550 32.1647 0.0000 9.2406 0.0000
# 2 22.2550 106.3413 14.6260 0.0000 -12.4915 0.0000
# 3 32.1647 14.6260 157.2836 0.0000 -11.8407 0.0000
# 4 0.0000 0.0000 0.0000 28.4927 0.0000 7.9273
# 5 9.2406 -12.4915 -11.8407 0.0000 45.4118 0.0000
# 6 0.0000 0.0000 0.0000 7.9273 0.0000 18.9272
#
#
#
# Elastic Compliance Matrix: (Units=1/GPa)
#
#
# Indices 1 2 3 4 5 6 
#
# 1 0.007813 -0.001703 -0.001626 0.000000 -0.002482 0.000000
# 2 -0.001703 0.010169 -0.000368 0.000000 0.003048 0.000000
# 3 -0.001626 -0.000368 0.006877 0.000000 0.002023 0.000000
# 4 0.000000 0.000000 0.000000 0.039726 0.000000 -0.016639
# 5 -0.002482 0.003048 0.002023 0.000000 0.023892 0.000000
# 6 0.000000 0.000000 0.000000 -0.016639 0.000000 0.059803
#
#
# Mechanical properties :
#
#
# Convention : Reuss Voigt Hill
#
# Bulk Modulus (GPa) = 57.25907 60.46483 58.86195
# Shear Modulus (GPa) = 30.96058 41.03609 35.99834
#
# Velocity S-wave (km/s) = 3.47330 3.99872 3.74524
# Velocity P-wave (km/s) = 6.19646 6.69924 6.45275
#
# Compressibility (1/GPa) = 0.01746448
#
# Stress axis : x y z
#
# Youngs Moduli (GPa) = 127.98528 98.34089 145.41163
#
# Poissons Ratio (x) = 0.16748 0.23649
# Poissons Ratio (y) = 0.21797 0.05349
# Poissons Ratio (z) = 0.20815 0.03618
#
# Static dielectric constant tensor:
#      x y z
#    x 2.110560 0.000000 0.015910 
#    y 0.000000 2.020750 0.000000 
#    z 0.015910 0.000000 2.160890 
# 
# From -- ./inp_files/271679.got.cif
#   From: 2010.05.17/outbox.cif.g08.bks.cpg/sg15_136_cif.got.tgz:271679.got - 2010.06.03 18:47:42.
