data_PCOD9306449
_publ_section_title
;
Structure prediction by ZEFSAII (Michael W. Deem and Ramdas Pophale) SiO2 
 PCOD9306449
Probable space group: C 2/C
;
_chemical_formula_sum "Si O2"
_cell_formula_units_Z 28
_cell_length_a 15.148568
_cell_length_b 15.703124
_cell_length_c 5.073490
_cell_angle_alpha 90.000000
_cell_angle_beta 120.462112
_cell_angle_gamma 90.000000
_cell_volume 1040.288687
_symmetry_space_group_name_H-M "C 2/C"
_symmetry_group_IT_number 15
_symmetry_cell_setting 'monoclinic'
loop_
_space_group_symop_operation_xyz
x,y,z
-x,y,1/2-z
-x,-y,-z
x,-y,1/2+z
1/2+x,1/2+y,z
1/2-x,1/2+y,1/2-z
1/2-x,1/2-y,-z
1/2+x,1/2-y,1/2+z
loop_
_atom_site_type_symbol
_atom_site_label
_atom_site_fract_x
_atom_site_fract_y
_atom_site_fract_z
Si Si1 0.500000 0.938088 0.250000
Si Si2 0.823975 0.303250 0.914840
Si Si3 0.000000 0.909485 0.250000
Si Si4 0.500000 0.314954 0.750000
Si Si5 0.222209 0.948388 0.448705
O O1 0.402433 0.875545 0.141798
O O2 0.500000 0.000000 0.500000
O O3 0.910333 0.235412 0.963664
O O4 0.750000 0.250000 0.000000
O O5 0.764179 0.356045 0.599165
O O6 0.049755 0.863003 0.579454
O O7 0.098707 0.950606 0.264311
O O8 0.255321 0.983212 0.218308
#
# Coordination Sequence:
#
# PCOD9306449 Si02
#       5
#     4   8   4   4   8
#     4  11  26  53  77 110 159 206 252 317 394 465
#     4  11  25  48  77 111 147 196 258 312 373 452
#     4  12  24  46  69 101 148 182 244 292 372 432
#     4  11  26  45  72 107 139 190 234 315 362 433
#     4  12  26  45  71 103 143 191 238 297 370 445
#
# _framework density 26.915604999999999
#
# number of rings (size 3 to 8) (size 9 to 14) (size 15 to 20)
#    0.000    0.571    2.857    4.286    0.000    8.000 
#    0.000    0.000    0.000    0.000    0.000    0.000 
#    0.000    0.000    0.000    0.000    0.000    0.000 
#
# Total GULP energy -78309.916458 kJ/mol
# GULP energy per Si atom -5593.565461 kJ/mol
# Density = 2.685434 g / cm^3
# Si number density = 26.915605 Si / 1000 Ang^3
#
#
#
# Elastic Constant Matrix: (Units=GPa)
#
#
# Indices 1 2 3 4 5 6 
#
# 1 121.2299 41.9931 25.7956 0.0000 13.1422 0.0000
# 2 41.9931 124.5256 53.1828 0.0000 7.1951 0.0000
# 3 25.7956 53.1828 131.5469 0.0000 -1.4563 0.0000
# 4 0.0000 0.0000 0.0000 44.3913 0.0000 24.9780
# 5 13.1422 7.1951 -1.4563 0.0000 57.1622 0.0000
# 6 0.0000 0.0000 0.0000 24.9780 0.0000 51.6585
#
#
#
# Elastic Compliance Matrix: (Units=1/GPa)
#
#
# Indices 1 2 3 4 5 6 
#
# 1 0.009584 -0.002795 -0.000770 0.000000 -0.001871 0.000000
# 2 -0.002795 0.010622 -0.003755 0.000000 -0.000790 0.000000
# 3 -0.000770 -0.003755 0.009281 0.000000 0.000886 0.000000
# 4 0.000000 0.000000 0.000000 0.030946 0.000000 -0.014963
# 5 -0.001871 -0.000790 0.000886 0.000000 0.018046 0.000000
# 6 0.000000 0.000000 0.000000 -0.014963 0.000000 0.026593
#
#
# Mechanical properties :
#
#
# Convention : Reuss Voigt Hill
#
# Bulk Modulus (GPa) = 67.35536 68.80505 68.08020
# Shear Modulus (GPa) = 40.10855 47.73112 43.91983
#
# Velocity S-wave (km/s) = 3.86445 4.21570 4.04389
# Velocity P-wave (km/s) = 6.70753 7.02246 6.86680
#
# Compressibility (1/GPa) = 0.01484663
#
# Stress axis : x y z
#
# Youngs Moduli (GPa) = 104.34483 94.14066 107.74864
#
# Poissons Ratio (x) = 0.26311 0.08298
# Poissons Ratio (y) = 0.29162 0.40462
# Poissons Ratio (z) = 0.08036 0.35352
#
# Static dielectric constant tensor:
#      x y z
#    x 2.066100 0.000000 0.131420 
#    y 0.000000 2.233150 0.000000 
#    z 0.131420 0.000000 2.087220 
# 
# From -- ./inp_files/6178.got.cif
#   From: 2010.05.17/outbox.cif.g08.bks.cpg/sg15_4_cif.got.tgz:6178.got - 2010.06.03 18:47:42.
