data_PCOD9306597
_publ_section_title
;
Structure prediction by ZEFSAII (Michael W. Deem and Ramdas Pophale) SiO2 
 PCOD9306597
Probable space group: C 2/C
;
_chemical_formula_sum "Si O2"
_cell_formula_units_Z 32
_cell_length_a 14.369513
_cell_length_b 13.195762
_cell_length_c 10.641198
_cell_angle_alpha 90.000000
_cell_angle_beta 138.131988
_cell_angle_gamma 90.000000
_cell_volume 1346.679505
_symmetry_space_group_name_H-M "C 2/C"
_symmetry_group_IT_number 15
_symmetry_cell_setting 'monoclinic'
loop_
_space_group_symop_operation_xyz
x,y,z
-x,y,1/2-z
-x,-y,-z
x,-y,1/2+z
1/2+x,1/2+y,z
1/2-x,1/2+y,1/2-z
1/2-x,1/2-y,-z
1/2+x,1/2-y,1/2+z
loop_
_atom_site_type_symbol
_atom_site_label
_atom_site_fract_x
_atom_site_fract_y
_atom_site_fract_z
Si Si1 0.369782 0.063794 0.321080
Si Si2 0.079256 0.972328 0.451392
Si Si3 0.467603 0.250801 0.021913
Si Si4 0.786163 0.740114 0.392801
O O1 0.440197 0.161829 0.323951
O O2 0.296452 0.120969 0.365158
O O3 0.500000 0.000000 0.500000
O O4 0.245545 0.007321 0.124796
O O5 0.070213 0.849059 0.438237
O O6 0.000000 0.013177 0.250000
O O7 0.064746 0.217521 0.500328
O O8 0.326893 0.212044 0.815334
O O9 0.500000 0.500000 0.000000
O O10 0.750000 0.750000 0.500000
#
# Coordination Sequence:
#
# PCOD9306597 Si02
#       4
#     8   8   8   8
#     4   9  22  42  65 100 135 177 224 279 343 407
#     4  11  26  46  68  98 135 181 229 285 345 410
#     4   9  21  40  65  92 135 172 226 273 343 396
#     4   9  18  35  64  96 131 174 220 276 329 395
#
# _framework density 23.762149999999998
#
# number of rings (size 3 to 8) (size 9 to 14) (size 15 to 20)
#    1.500    1.000    0.000    0.750    3.500    5.000 
#    4.500    0.000    0.000    0.000    0.000    0.000 
#    0.000    0.000    0.000    0.000    0.000    0.000 
#
# Total GULP energy -89195.234026 kJ/mol
# GULP energy per Si atom -5574.702127 kJ/mol
# Density = 2.370807 g / cm^3
# Si number density = 23.762150 Si / 1000 Ang^3
#
#
#
# Elastic Constant Matrix: (Units=GPa)
#
#
# Indices 1 2 3 4 5 6 
#
# 1 55.5987 9.9290 44.4120 0.0000 2.5134 0.0000
# 2 9.9290 48.1879 42.7428 0.0000 15.0807 0.0000
# 3 44.4120 42.7428 162.6388 0.0000 19.0615 0.0000
# 4 0.0000 0.0000 0.0000 27.5437 0.0000 17.1067
# 5 2.5134 15.0807 19.0615 0.0000 47.5933 0.0000
# 6 0.0000 0.0000 0.0000 17.1067 0.0000 36.1761
#
#
#
# Elastic Compliance Matrix: (Units=1/GPa)
#
#
# Indices 1 2 3 4 5 6 
#
# 1 0.023109 0.000762 -0.006652 0.000000 0.001202 0.000000
# 2 0.000762 0.028828 -0.007040 0.000000 -0.006356 0.000000
# 3 -0.006652 -0.007040 0.009981 0.000000 -0.001416 0.000000
# 4 0.000000 0.000000 0.000000 0.051402 0.000000 -0.024307
# 5 0.001202 -0.006356 -0.001416 0.000000 0.023529 0.000000
# 6 0.000000 0.000000 0.000000 -0.024307 0.000000 0.039137
#
#
# Mechanical properties :
#
#
# Convention : Reuss Voigt Hill
#
# Bulk Modulus (GPa) = 27.73144 51.17700 39.45422
# Shear Modulus (GPa) = 23.37945 33.55207 28.46576
#
# Velocity S-wave (km/s) = 3.14011 3.76173 3.46489
# Velocity P-wave (km/s) = 4.98426 6.36014 5.71377
#
# Compressibility (1/GPa) = 0.03606015
#
# Stress axis : x y z
#
# Youngs Moduli (GPa) = 43.27351 34.68834 100.19123
#
# Poissons Ratio (x) = -0.02644 0.66643
# Poissons Ratio (y) = -0.03299 0.70530
# Poissons Ratio (z) = 0.28784 0.24419
#
# Static dielectric constant tensor:
#      x y z
#    x 1.883970 0.000000 0.005240 
#    y 0.000000 2.097240 0.000000 
#    z 0.005240 0.000000 1.924420 
# 
# From -- ./inp_files/172179.got.cif
#   From: 2010.05.17/outbox.cif.g08.bks.cpg/sg15_87_cif.got.tgz:172179.got - 2010.06.03 18:47:42.
