data_PCOD9306139
_publ_section_title
;
Structure prediction by ZEFSAII (Michael W. Deem and Ramdas Pophale) SiO2 
 PCOD9306139
Probable space group: C 2/C
;
_chemical_formula_sum "Si O2"
_cell_formula_units_Z 48
_cell_length_a 20.666931
_cell_length_b 17.560360
_cell_length_c 17.107100
_cell_angle_alpha 90.000000
_cell_angle_beta 160.992226
_cell_angle_gamma 90.000000
_cell_volume 2022.082226
_symmetry_space_group_name_H-M "C 2/C"
_symmetry_group_IT_number 15
_symmetry_cell_setting 'monoclinic'
loop_
_space_group_symop_operation_xyz
x,y,z
-x,y,1/2-z
-x,-y,-z
x,-y,1/2+z
1/2+x,1/2+y,z
1/2-x,1/2+y,1/2-z
1/2-x,1/2-y,-z
1/2+x,1/2-y,1/2+z
loop_
_atom_site_type_symbol
_atom_site_label
_atom_site_fract_x
_atom_site_fract_y
_atom_site_fract_z
Si Si1 0.983379 0.333363 0.144927
Si Si2 0.101437 0.074128 0.006913
Si Si3 0.307429 0.315185 0.396975
Si Si4 0.709944 0.703030 0.874886
Si Si5 0.862996 0.073519 0.263652
Si Si6 0.987289 0.347985 0.901003
O O1 0.000000 0.300477 0.250000
O O2 0.195400 0.336866 0.347870
O O3 0.851917 0.274493 0.943606
O O4 0.867467 0.412920 0.016800
O O5 0.966431 0.142448 0.819415
O O6 0.118580 0.075527 0.121044
O O7 0.322816 0.086312 0.224807
O O8 0.973930 0.997509 0.851044
O O9 0.518329 0.354435 0.632653
O O10 0.162610 0.348556 0.164754
O O11 0.632685 0.768557 0.727649
O O12 0.750000 0.750000 0.000000
O O13 0.896026 0.660168 0.047871
#
# Coordination Sequence:
#
# PCOD9306139 Si02
#       6
#     8   8   8   8   8   8
#     4  12  25  42  70 105 141 177 233 298 361 431
#     4  11  25  45  70 102 143 187 242 306 358 431
#     4  12  23  41  72 104 133 185 239 289 354 439
#     4  12  25  42  69 105 143 184 242 305 364 436
#     4  11  25  45  70 104 144 187 242 302 363 432
#     4  12  23  41  72 102 134 189 244 291 358 437
#
# _framework density 23.737908000000001
#
# number of rings (size 3 to 8) (size 9 to 14) (size 15 to 20)
#    0.000    0.333    6.667    3.000    0.000    2.000 
#    0.000    5.000    0.000    0.000    0.000    0.000 
#    0.000    0.000    0.000    0.000    0.000    0.000 
#
# Total GULP energy -134217.452077 kJ/mol
# GULP energy per Si atom -5592.393837 kJ/mol
# Density = 2.368388 g / cm^3
# Si number density = 23.737908 Si / 1000 Ang^3
#
#
#
# Elastic Constant Matrix: (Units=GPa)
#
#
# Indices 1 2 3 4 5 6 
#
# 1 117.4396 -5.6441 23.9588 -0.0223 16.9411 -0.0143
# 2 -5.6441 55.9210 0.4146 -0.0350 0.3836 -0.0211
# 3 23.9588 0.4146 48.4922 -0.0655 10.7571 -0.0368
# 4 -0.0223 -0.0350 -0.0655 120.4042 -0.0252 63.0865
# 5 16.9411 0.3836 10.7571 -0.0252 47.6751 -0.0158
# 6 -0.0143 -0.0211 -0.0368 63.0865 -0.0158 58.3502
#
#
#
# Elastic Compliance Matrix: (Units=1/GPa)
#
#
# Indices 1 2 3 4 5 6 
#
# 1 0.009805 0.001039 -0.004293 -0.000001 -0.002524 0.000000
# 2 0.001039 0.017994 -0.000582 0.000004 -0.000383 0.000002
# 3 -0.004293 -0.000582 0.023589 0.000010 -0.003792 0.000001
# 4 -0.000001 0.000004 0.000010 0.019158 0.000001 -0.020713
# 5 -0.002524 -0.000383 -0.003792 0.000001 0.022731 0.000002
# 6 0.000000 0.000002 0.000001 -0.020713 0.000002 0.039532
#
#
# Mechanical properties :
#
#
# Convention : Reuss Voigt Hill
#
# Bulk Modulus (GPa) = 22.87562 28.81240 25.84401
# Shear Modulus (GPa) = 32.24660 58.82746 45.53703
#
# Velocity S-wave (km/s) = 3.68971 4.98356 4.38462
# Velocity P-wave (km/s) = 5.27348 6.72893 6.04517
#
# Compressibility (1/GPa) = 0.04371467
#
# Stress axis : x y z
#
# Youngs Moduli (GPa) = 101.98998 55.57365 42.39199
#
# Poissons Ratio (x) = -0.05773 0.18201
# Poissons Ratio (y) = -0.10594 0.02468
# Poissons Ratio (z) = 0.43788 0.03236
#
# Static dielectric constant tensor:
#      x y z
#    x 1.909750 0.000000 -0.023660 
#    y 0.000000 1.939550 -0.000010 
#    z -0.023660 -0.000010 1.922110 
# 
# From -- ./inp_files/216263.got.cif
#   From: 2010.05.17/outbox.cif.g08.bks.cpg/sg15_109_cif.got.tgz:216263.got - 2010.06.03 18:47:42.
