data_PCOD9306640
_publ_section_title
;
Structure prediction by ZEFSAII (Michael W. Deem and Ramdas Pophale) SiO2 
 PCOD9306640
Probable space group: C 2/C
;
_chemical_formula_sum "Si O2"
_cell_formula_units_Z 52
_cell_length_a 11.293959
_cell_length_b 9.292353
_cell_length_c 28.509380
_cell_angle_alpha 90.000000
_cell_angle_beta 52.639014
_cell_angle_gamma 90.000000
_cell_volume 2378.114953
_symmetry_space_group_name_H-M "C 2/C"
_symmetry_group_IT_number 15
_symmetry_cell_setting 'monoclinic'
loop_
_space_group_symop_operation_xyz
x,y,z
-x,y,1/2-z
-x,-y,-z
x,-y,1/2+z
1/2+x,1/2+y,z
1/2-x,1/2+y,1/2-z
1/2-x,1/2-y,-z
1/2+x,1/2-y,1/2+z
loop_
_atom_site_type_symbol
_atom_site_label
_atom_site_fract_x
_atom_site_fract_y
_atom_site_fract_z
Si Si1 0.422997 0.299437 0.201961
Si Si2 0.884588 0.368519 0.525021
Si Si3 0.953175 0.509895 0.315525
Si Si4 0.559543 0.386569 0.561199
Si Si5 0.500000 0.568225 0.250000
Si Si6 0.642046 0.354761 0.390541
Si Si7 0.605420 0.751706 0.311416
O O1 0.469108 0.441664 0.217871
O O2 0.373342 0.331872 0.161199
O O3 0.280658 0.230404 0.262498
O O4 0.548208 0.177436 0.171386
O O5 0.724711 0.412908 0.542113
O O6 0.935684 0.236305 0.479470
O O7 0.862209 0.295612 0.581171
O O8 0.000000 0.500000 0.500000
O O9 0.796870 0.434555 0.362947
O O10 0.000000 0.498638 0.250000
O O11 0.073107 0.422894 0.318109
O O12 0.488284 0.536697 0.562691
O O13 0.458542 0.323036 0.627412
O O14 0.523138 0.690344 0.285428
#
# Coordination Sequence:
#
# PCOD9306640 Si02
#       7
#     8   8   8   8   4   8   8
#     4  12  26  39  68 105 139 180 222 264 339 413
#     4  11  28  49  72  98 129 178 239 294 344 397
#     4  12  23  42  66 100 144 179 214 271 337 406
#     4  11  26  47  70 100 133 181 229 285 345 400
#     4  12  24  40  62 102 138 176 220 264 326 406
#     4  12  25  46  70 101 137 181 224 284 341 404
#     4  12  23  44  68  98 145 179 218 273 334 408
#
# _framework density 21.866059
#
# number of rings (size 3 to 8) (size 9 to 14) (size 15 to 20)
#    0.000    0.308    6.154    2.308    2.154    3.077 
#    0.000    0.000    0.000    0.000    0.000    0.000 
#    0.000    0.000    0.000    0.000    0.000    0.000 
#
# Total GULP energy -145082.385274 kJ/mol
# GULP energy per Si atom -5580.091741 kJ/mol
# Density = 2.181629 g / cm^3
# Si number density = 21.866059 Si / 1000 Ang^3
#
#
#
# Elastic Constant Matrix: (Units=GPa)
#
#
# Indices 1 2 3 4 5 6 
#
# 1 75.8994 30.1211 31.4195 0.0000 -7.9914 0.0000
# 2 30.1211 93.0815 -11.7504 0.0000 -19.3861 0.0000
# 3 31.4195 -11.7504 56.0407 0.0000 -4.1932 0.0000
# 4 0.0000 0.0000 0.0000 26.0368 0.0000 -11.8567
# 5 -7.9914 -19.3861 -4.1932 0.0000 33.7760 0.0000
# 6 0.0000 0.0000 0.0000 -11.8567 0.0000 19.1044
#
#
#
# Elastic Compliance Matrix: (Units=1/GPa)
#
#
# Indices 1 2 3 4 5 6 
#
# 1 0.023156 -0.009840 -0.015200 0.000000 -0.002056 0.000000
# 2 -0.009840 0.016946 0.009714 0.000000 0.008604 0.000000
# 3 -0.015200 0.009714 0.028819 0.000000 0.005557 0.000000
# 4 0.000000 0.000000 0.000000 0.053538 0.000000 0.033227
# 5 -0.002056 0.008604 0.005557 0.000000 0.034748 0.000000
# 6 0.000000 0.000000 0.000000 0.033227 0.000000 0.072966
#
#
# Mechanical properties :
#
#
# Convention : Reuss Voigt Hill
#
# Bulk Modulus (GPa) = 26.13132 36.06688 31.09910
# Shear Modulus (GPa) = 18.27610 27.46555 22.87082
#
# Velocity S-wave (km/s) = 2.89419 3.54797 3.23762
# Velocity P-wave (km/s) = 4.81093 5.77186 5.31316
#
# Compressibility (1/GPa) = 0.03826825
#
# Stress axis : x y z
#
# Youngs Moduli (GPa) = 43.18503 59.01157 34.69986
#
# Poissons Ratio (x) = 0.58070 0.52743
# Poissons Ratio (y) = 0.42496 -0.33707
# Poissons Ratio (z) = 0.65640 -0.57324
#
# Static dielectric constant tensor:
#      x y z
#    x 1.812150 0.000000 -0.024870 
#    y 0.000000 1.781840 0.000000 
#    z -0.024870 0.000000 1.793630 
# 
# From -- ./inp_files/291474.got.cif
#   From: 2010.05.17/outbox.cif.g08.bks.cpg/sg15_146_cif.got.tgz:291474.got - 2010.06.03 18:47:42.
