data_PCOD9306065
_publ_section_title
;
Structure prediction by ZEFSAII (Michael W. Deem and Ramdas Pophale) SiO2 
 PCOD9306065
Probable space group: C 2/C
;
_chemical_formula_sum "Si O2"
_cell_formula_units_Z 44
_cell_length_a 11.827055
_cell_length_b 14.134230
_cell_length_c 11.231772
_cell_angle_alpha 90.000000
_cell_angle_beta 84.113026
_cell_angle_gamma 90.000000
_cell_volume 1867.671920
_symmetry_space_group_name_H-M "C 2/C"
_symmetry_group_IT_number 15
_symmetry_cell_setting 'monoclinic'
loop_
_space_group_symop_operation_xyz
x,y,z
-x,y,1/2-z
-x,-y,-z
x,-y,1/2+z
1/2+x,1/2+y,z
1/2-x,1/2+y,1/2-z
1/2-x,1/2-y,-z
1/2+x,1/2-y,1/2+z
loop_
_atom_site_type_symbol
_atom_site_label
_atom_site_fract_x
_atom_site_fract_y
_atom_site_fract_z
Si Si1 0.901205 0.433262 0.850076
Si Si2 0.164845 0.081047 0.240978
Si Si3 0.000000 0.748205 0.750000
Si Si4 0.072822 0.896749 0.357229
Si Si5 0.223113 0.407047 0.008239
Si Si6 0.477023 0.781185 0.510550
O O1 0.785839 0.413971 0.791468
O O2 0.867528 0.512953 0.948427
O O3 0.000000 0.465159 0.750000
O O4 0.945181 0.338978 0.908640
O O5 0.107230 0.182071 0.235991
O O6 0.086974 0.008911 0.327056
O O7 0.191818 0.050951 0.101381
O O8 0.993161 0.694235 0.627887
O O9 0.205273 0.879802 0.381304
O O10 0.015710 0.831331 0.465715
O O11 0.000000 0.863355 0.250000
O O12 0.151557 0.320326 0.962686
#
# Coordination Sequence:
#
# PCOD9306065 Si02
#       6
#     8   8   4   8   8   8
#     4  11  25  46  77 108 143 189 242 302 361 436
#     4  11  25  48  71 107 148 192 243 294 369 436
#     4  12  28  44  72 104 150 196 240 296 368 436
#     4  11  25  43  75 102 141 193 240 298 356 429
#     4  11  25  46  73 106 150 192 237 302 372 432
#     4  12  26  45  72 109 147 186 247 302 363 428
#
# _framework density 23.558741000000001
#
# number of rings (size 3 to 8) (size 9 to 14) (size 15 to 20)
#    0.000    0.727    4.545    1.636    1.273    6.545 
#    0.000    0.000    0.000    0.000    0.000    0.000 
#    0.000    0.000    0.000    0.000    0.000    0.000 
#
# Total GULP energy -122699.577070 kJ/mol
# GULP energy per Si atom -5577.253503 kJ/mol
# Density = 2.350512 g / cm^3
# Si number density = 23.558741 Si / 1000 Ang^3
#
#
#
# Elastic Constant Matrix: (Units=GPa)
#
#
# Indices 1 2 3 4 5 6 
#
# 1 115.2020 33.0481 15.6808 0.0000 29.3994 0.0000
# 2 33.0481 78.5927 49.6827 0.0000 -4.8707 0.0000
# 3 15.6808 49.6827 88.7033 0.0000 0.9072 0.0000
# 4 0.0000 0.0000 0.0000 33.3139 0.0000 -17.6510
# 5 29.3994 -4.8707 0.9072 0.0000 50.9281 0.0000
# 6 0.0000 0.0000 0.0000 -17.6510 0.0000 -15.2022
#
#
#
# Elastic Compliance Matrix: (Units=1/GPa)
#
#
# Indices 1 2 3 4 5 6 
#
# 1 0.012386 -0.006750 0.001671 0.000000 -0.007826 0.000000
# 2 -0.006750 0.023600 -0.012090 0.000000 0.006369 0.000000
# 3 0.001671 -0.012090 0.017775 0.000000 -0.002437 0.000000
# 4 0.000000 0.000000 0.000000 0.018585 0.000000 -0.021578
# 5 -0.007826 0.006369 -0.002437 0.000000 0.024806 0.000000
# 6 0.000000 0.000000 0.000000 -0.021578 0.000000 -0.040726
#
#
# Mechanical properties :
#
#
# Convention : Reuss Voigt Hill
#
# Bulk Modulus (GPa) = 51.48550 53.25792 52.37171
# Shear Modulus (GPa) = 51.42091 26.08038 38.75064
#
# Velocity S-wave (km/s) = 4.67697 3.33082 4.06008
# Velocity P-wave (km/s) = 7.14611 6.11948 6.65263
#
# Compressibility (1/GPa) = 0.01942294
#
# Stress axis : x y z
#
# Youngs Moduli (GPa) = 80.73417 42.37378 56.25971
#
# Poissons Ratio (x) = 0.28601 -0.09400
# Poissons Ratio (y) = 0.54493 0.68018
# Poissons Ratio (z) = -0.13490 0.51230
#
# Static dielectric constant tensor:
#      x y z
#    x 1.910110 0.000000 -0.043060 
#    y 0.000000 1.908240 0.000000 
#    z -0.043060 0.000000 1.920090 
# 
# From -- ./inp_files/86062.got.cif
#   From: 2010.05.17/outbox.cif.g08.bks.cpg/sg15_44_cif.got.tgz:86062.got - 2010.06.03 18:47:42.
