data_PCOD9306551
_publ_section_title
;
Structure prediction by ZEFSAII (Michael W. Deem and Ramdas Pophale) SiO2 
 PCOD9306551
Probable space group: C 2/C
;
_chemical_formula_sum "Si O2"
_cell_formula_units_Z 48
_cell_length_a 5.177163
_cell_length_b 16.146986
_cell_length_c 22.018754
_cell_angle_alpha 90.000000
_cell_angle_beta 101.250943
_cell_angle_gamma 90.000000
_cell_volume 1805.296601
_symmetry_space_group_name_H-M "C 2/C"
_symmetry_group_IT_number 15
_symmetry_cell_setting 'monoclinic'
loop_
_space_group_symop_operation_xyz
x,y,z
-x,y,1/2-z
-x,-y,-z
x,-y,1/2+z
1/2+x,1/2+y,z
1/2-x,1/2+y,1/2-z
1/2-x,1/2-y,-z
1/2+x,1/2-y,1/2+z
loop_
_atom_site_type_symbol
_atom_site_label
_atom_site_fract_x
_atom_site_fract_y
_atom_site_fract_z
Si Si1 0.722238 0.975001 0.330721
Si Si2 0.000000 0.924753 0.750000
Si Si3 0.000000 0.331625 0.250000
Si Si4 0.435797 0.768175 0.915551
Si Si5 0.046978 0.551075 0.435367
Si Si6 0.618621 0.715157 0.163233
Si Si7 0.135205 0.914500 0.450745
O O1 0.789811 0.012139 0.268121
O O2 0.556341 0.038415 0.363346
O O3 0.597179 0.888726 0.307975
O O4 0.958214 0.950531 0.387792
O O5 0.005427 0.865705 0.809445
O O6 0.802739 0.271173 0.275485
O O7 0.425515 0.859145 0.947154
O O8 0.132332 0.750994 0.885571
O O9 0.567254 0.683961 0.948240
O O10 0.630894 0.787398 0.868215
O O11 0.342059 0.562296 0.476459
O O12 0.912250 0.462985 0.447642
#
# Coordination Sequence:
#
# PCOD9306551 Si02
#       7
#     8   4   4   8   8   8   8
#     4  12  25  46  70 108 149 196 252 314 388 462
#     4  11  26  42  72 105 148 204 246 317 384 470
#     4  11  26  42  72 105 148 204 246 317 384 470
#     4  12  25  51  76 112 152 201 259 318 390 468
#     4  11  26  49  77 109 150 202 261 326 391 467
#     4  11  26  48  71 108 153 198 254 315 382 471
#     4  11  26  49  77 109 150 202 261 326 391 467
#
# _framework density 26.588431
#
# number of rings (size 3 to 8) (size 9 to 14) (size 15 to 20)
#    0.000    0.667    3.333    3.000    7.000    2.667 
#    0.000    1.667    0.000    0.000    0.000    0.000 
#    0.000    0.000    0.000    0.000    0.000    0.000 
#
# Total GULP energy -133605.428523 kJ/mol
# GULP energy per Si atom -5566.892855 kJ/mol
# Density = 2.652791 g / cm^3
# Si number density = 26.588431 Si / 1000 Ang^3
#
#
#
# Elastic Constant Matrix: (Units=GPa)
#
#
# Indices 1 2 3 4 5 6 
#
# 1 70.7331 22.2736 15.7960 0.0000 1.6650 0.0000
# 2 22.2736 138.6483 24.2832 0.0000 13.3968 0.0000
# 3 15.7960 24.2832 73.2554 0.0000 6.8855 0.0000
# 4 0.0000 0.0000 0.0000 -13.0057 0.0000 136.7273
# 5 1.6650 13.3968 6.8855 0.0000 42.0208 0.0000
# 6 0.0000 0.0000 0.0000 136.7273 0.0000 -312.7467
#
#
#
# Elastic Compliance Matrix: (Units=1/GPa)
#
#
# Indices 1 2 3 4 5 6 
#
# 1 0.015369 -0.002046 -0.002681 0.000000 0.000483 0.000000
# 2 -0.002046 0.008109 -0.002043 0.000000 -0.002169 0.000000
# 3 -0.002681 -0.002043 0.015067 0.000000 -0.001711 0.000000
# 4 0.000000 0.000000 0.000000 0.021382 0.000000 0.009348
# 5 0.000483 -0.002169 -0.001711 0.000000 0.024751 0.000000
# 6 0.000000 0.000000 0.000000 0.009348 0.000000 0.000889
#
#
# Mechanical properties :
#
#
# Convention : Reuss Voigt Hill
#
# Bulk Modulus (GPa) = 39.99235 45.26029 42.62632
# Shear Modulus (GPa) = 46.53692 -42.06072 2.23810
#
# Velocity S-wave (km/s) = 4.18816 -3.98165 0.91847
# Velocity P-wave (km/s) = 6.20173 2.01954 4.14626
#
# Compressibility (1/GPa) = 0.02500478
#
# Stress axis : x y z
#
# Youngs Moduli (GPa) = 65.06454 123.32608 66.37008
#
# Poissons Ratio (x) = 0.25234 0.17795
# Poissons Ratio (y) = 0.13313 0.13558
# Poissons Ratio (z) = 0.17445 0.25193
#
# Static dielectric constant tensor:
#      x y z
#    x 2.144460 0.000000 0.000310 
#    y 0.000000 2.224180 0.000000 
#    z 0.000310 0.000000 2.267500 
# 
# From -- ./inp_files/260903.got.cif
#   From: 2010.05.17/outbox.cif.g08.bks.cpg/sg15_131_cif.got.tgz:260903.got - 2010.06.03 18:47:42.
