data_PCOD9306771
_publ_section_title
;
Structure prediction by ZEFSAII (Michael W. Deem and Ramdas Pophale) SiO2 
 PCOD9306771
Probable space group: C 2/C
;
_chemical_formula_sum "Si O2"
_cell_formula_units_Z 40
_cell_length_a 11.970972
_cell_length_b 16.293084
_cell_length_c 12.886161
_cell_angle_alpha 90.000000
_cell_angle_beta 143.988667
_cell_angle_gamma 90.000000
_cell_volume 1477.723433
_symmetry_space_group_name_H-M "C 2/C"
_symmetry_group_IT_number 15
_symmetry_cell_setting 'monoclinic'
loop_
_space_group_symop_operation_xyz
x,y,z
-x,y,1/2-z
-x,-y,-z
x,-y,1/2+z
1/2+x,1/2+y,z
1/2-x,1/2+y,1/2-z
1/2-x,1/2-y,-z
1/2+x,1/2-y,1/2+z
loop_
_atom_site_type_symbol
_atom_site_label
_atom_site_fract_x
_atom_site_fract_y
_atom_site_fract_z
Si Si1 0.304729 0.313117 0.635167
Si Si2 0.677409 0.352729 0.306269
Si Si3 0.638473 0.019947 0.993927
Si Si4 0.893450 0.799152 0.938420
Si Si5 0.716939 0.478466 0.622337
O O1 0.500000 0.356811 0.750000
O O2 0.250000 0.250000 0.500000
O O3 0.155776 0.385480 0.540362
O O4 0.367544 0.283457 0.796881
O O5 0.500000 0.342052 0.250000
O O6 0.745647 0.445295 0.367641
O O7 0.834900 0.284835 0.449662
O O8 0.597567 0.329017 0.132504
O O9 0.583753 0.001371 0.171605
O O10 0.735726 0.018819 0.952528
O O11 0.774079 0.879434 0.878920
O O12 0.500000 0.500000 0.500000
#
# Coordination Sequence:
#
# PCOD9306771 Si02
#       5
#     8   8   8   8   8
#     4  12  29  54  79 120 175 229 286 351 427 511
#     4  12  25  49  82 125 171 214 286 359 429 515
#     4  11  27  52  86 118 172 227 278 364 427 507
#     4  12  27  47  82 120 170 226 280 352 433 505
#     4  11  26  50  83 122 164 222 291 350 432 519
#
# _framework density 27.068666
#
# number of rings (size 3 to 8) (size 9 to 14) (size 15 to 20)
#    0.000    0.400    2.000    4.800    8.400    0.800 
#    3.600    0.000    0.000    0.000    0.000    0.000 
#    0.000    0.000    0.000    0.000    0.000    0.000 
#
# Total GULP energy -111782.494064 kJ/mol
# GULP energy per Si atom -5589.124703 kJ/mol
# Density = 2.700706 g / cm^3
# Si number density = 27.068666 Si / 1000 Ang^3
#
#
#
# Elastic Constant Matrix: (Units=GPa)
#
#
# Indices 1 2 3 4 5 6 
#
# 1 113.8532 44.7555 17.1022 -0.0001 9.6252 0.0000
# 2 44.7555 161.2338 69.6401 0.0000 23.4416 0.0000
# 3 17.1022 69.6401 178.2118 0.0000 8.6608 0.0001
# 4 -0.0001 0.0000 0.0000 53.8855 0.0002 -2.6930
# 5 9.6252 23.4416 8.6608 0.0002 53.3592 0.0004
# 6 0.0000 0.0000 0.0001 -2.6930 0.0004 -36.9460
#
#
#
# Elastic Compliance Matrix: (Units=1/GPa)
#
#
# Indices 1 2 3 4 5 6 
#
# 1 0.009881 -0.002715 0.000143 0.000000 -0.000613 0.000000
# 2 -0.002715 0.008656 -0.002985 0.000000 -0.002829 0.000000
# 3 0.000143 -0.002985 0.006755 0.000000 0.000189 0.000000
# 4 0.000000 0.000000 0.000000 0.018491 0.000000 -0.001348
# 5 -0.000613 -0.002829 0.000189 0.000000 0.020063 0.000000
# 6 0.000000 0.000000 0.000000 -0.001348 0.000000 -0.026968
#
#
# Mechanical properties :
#
#
# Convention : Reuss Voigt Hill
#
# Bulk Modulus (GPa) = 70.53477 79.58826 75.06152
# Shear Modulus (GPa) = 94.84450 35.51315 65.17882
#
# Velocity S-wave (km/s) = 5.92575 3.62604 4.91237
# Velocity P-wave (km/s) = 8.54012 6.85544 7.74373
#
# Compressibility (1/GPa) = 0.01417740
#
# Stress axis : x y z
#
# Youngs Moduli (GPa) = 101.20442 115.52372 148.04482
#
# Poissons Ratio (x) = 0.31368 -0.02111
# Poissons Ratio (y) = 0.27480 0.44185
# Poissons Ratio (z) = -0.01443 0.34479
#
# Static dielectric constant tensor:
#      x y z
#    x 2.174920 0.000000 -0.074270 
#    y 0.000000 2.050030 0.000000 
#    z -0.074270 0.000000 2.313330 
# 
# From -- ./inp_files/96660.got.cif
#   From: 2010.05.17/outbox.cif.g08.bks.cpg/sg15_49_cif.got.tgz:96660.got - 2010.06.03 18:47:42.
