data_PCOD9306451
_publ_section_title
;
Structure prediction by ZEFSAII (Michael W. Deem and Ramdas Pophale) SiO2 
 PCOD9306451
Probable space group: C 2/C
;
_chemical_formula_sum "Si O2"
_cell_formula_units_Z 28
_cell_length_a 7.253609
_cell_length_b 19.659984
_cell_length_c 7.477518
_cell_angle_alpha 90.000000
_cell_angle_beta 88.687337
_cell_angle_gamma 90.000000
_cell_volume 1066.057874
_symmetry_space_group_name_H-M "C 2/C"
_symmetry_group_IT_number 15
_symmetry_cell_setting 'monoclinic'
loop_
_space_group_symop_operation_xyz
x,y,z
-x,y,1/2-z
-x,-y,-z
x,-y,1/2+z
1/2+x,1/2+y,z
1/2-x,1/2+y,1/2-z
1/2-x,1/2-y,-z
1/2+x,1/2-y,1/2+z
loop_
_atom_site_type_symbol
_atom_site_label
_atom_site_fract_x
_atom_site_fract_y
_atom_site_fract_z
Si Si1 0.700517 0.743962 0.710617
Si Si2 0.500000 0.659281 0.250000
Si Si3 0.718844 0.056767 0.285305
Si Si4 0.284719 0.906404 0.304516
O O1 0.500000 0.774286 0.750000
O O2 0.750000 0.750000 0.500000
O O3 0.698710 0.664519 0.752344
O O4 0.851503 0.785090 0.823094
O O5 0.353098 0.605704 0.166542
O O6 0.500000 0.059509 0.250000
O O7 0.741243 0.083224 0.484767
O O8 0.776880 0.978125 0.277365
O O9 0.500000 0.900315 0.250000
#
# Coordination Sequence:
#
# PCOD9306451 Si02
#       4
#     8   4   8   8
#     4  12  29  49  79 112 162 204 257 323 393 458
#     4  12  28  44  78 108 152 198 264 306 392 452
#     4  11  26  47  78 111 153 199 257 322 381 456
#     4  11  25  48  77 113 150 200 262 311 389 459
#
# _framework density 26.264990999999998
#
# number of rings (size 3 to 8) (size 9 to 14) (size 15 to 20)
#    0.000    0.571    1.429    6.000   14.000    3.429 
#    0.000    0.000    0.000    0.000    0.000    0.000 
#    0.000    0.000    0.000    0.000    0.000    0.000 
#
# Total GULP energy -78333.766728 kJ/mol
# GULP energy per Si atom -5595.269052 kJ/mol
# Density = 2.620521 g / cm^3
# Si number density = 26.264991 Si / 1000 Ang^3
#
#
#
# Elastic Constant Matrix: (Units=GPa)
#
#
# Indices 1 2 3 4 5 6 
#
# 1 200.8716 73.2250 9.1541 0.0000 -30.5542 0.0000
# 2 73.2250 254.1752 44.3920 0.0000 12.9122 0.0000
# 3 9.1541 44.3920 132.0067 0.0000 -1.5593 0.0000
# 4 0.0000 0.0000 0.0000 50.6289 0.0000 13.2142
# 5 -30.5542 12.9122 -1.5593 0.0000 24.0099 0.0000
# 6 0.0000 0.0000 0.0000 13.2142 0.0000 63.0090
#
#
#
# Elastic Compliance Matrix: (Units=1/GPa)
#
#
# Indices 1 2 3 4 5 6 
#
# 1 0.007765 -0.002922 0.000580 0.000000 0.011490 0.000000
# 2 -0.002922 0.005415 -0.001698 0.000000 -0.006741 0.000000
# 3 0.000580 -0.001698 0.008132 0.000000 0.002179 0.000000
# 4 0.000000 0.000000 0.000000 0.020895 0.000000 -0.004382
# 5 0.011490 -0.006741 0.002179 0.000000 0.060038 0.000000
# 6 0.000000 0.000000 0.000000 -0.004382 0.000000 0.016790
#
#
# Mechanical properties :
#
#
# Convention : Reuss Voigt Hill
#
# Bulk Modulus (GPa) = 75.57640 93.39952 84.48796
# Shear Modulus (GPa) = 38.01529 58.21504 48.11517
#
# Velocity S-wave (km/s) = 3.80857 4.71303 4.28473
# Velocity P-wave (km/s) = 6.94098 8.07802 7.53099
#
# Compressibility (1/GPa) = 0.01323164
#
# Stress axis : x y z
#
# Youngs Moduli (GPa) = 128.78623 184.66991 122.97224
#
# Poissons Ratio (x) = 0.53959 -0.07131
# Poissons Ratio (y) = 0.37631 0.20881
# Poissons Ratio (z) = -0.07468 0.31357
#
# Static dielectric constant tensor:
#      x y z
#    x 2.264650 0.000000 -0.287840 
#    y 0.000000 2.012430 0.000000 
#    z -0.287840 0.000000 2.512010 
# 
# From -- ./inp_files/21511.got.cif
#   From: 2010.05.17/outbox.cif.g08.bks.cpg/sg15_11_cif.got.tgz:21511.got - 2010.06.03 18:47:42.
