data_PCOD9306468
_publ_section_title
;
Structure prediction by ZEFSAII (Michael W. Deem and Ramdas Pophale) SiO2 
 PCOD9306468
Probable space group: C 2/C
;
_chemical_formula_sum "Si O2"
_cell_formula_units_Z 52
_cell_length_a 14.446556
_cell_length_b 13.322785
_cell_length_c 15.092677
_cell_angle_alpha 90.000000
_cell_angle_beta 63.957907
_cell_angle_gamma 90.000000
_cell_volume 2609.937147
_symmetry_space_group_name_H-M "C 2/C"
_symmetry_group_IT_number 15
_symmetry_cell_setting 'monoclinic'
loop_
_space_group_symop_operation_xyz
x,y,z
-x,y,1/2-z
-x,-y,-z
x,-y,1/2+z
1/2+x,1/2+y,z
1/2-x,1/2+y,1/2-z
1/2-x,1/2-y,-z
1/2+x,1/2-y,1/2+z
loop_
_atom_site_type_symbol
_atom_site_label
_atom_site_fract_x
_atom_site_fract_y
_atom_site_fract_z
Si Si1 0.997550 0.823754 0.144844
Si Si2 0.668240 0.970749 0.418512
Si Si3 0.481375 0.838168 0.516948
Si Si4 0.152711 0.004275 0.801771
Si Si5 0.500000 0.372311 0.750000
Si Si6 0.142012 0.192524 0.051246
Si Si7 0.180563 0.960440 0.989174
O O1 0.000000 0.824998 0.250000
O O2 0.996862 0.711910 0.106266
O O3 0.895657 0.886057 0.160528
O O4 0.093520 0.885068 0.062594
O O5 0.602766 0.073360 0.448857
O O6 0.757168 0.984231 0.308281
O O7 0.718831 0.945801 0.492495
O O8 0.586463 0.883373 0.434356
O O9 0.438858 0.748044 0.476509
O O10 0.059107 0.941610 0.796676
O O11 0.187952 0.955243 0.879650
O O12 0.409557 0.307295 0.830731
O O13 0.250000 0.250000 0.000000
O O14 0.152686 0.076089 0.022174
#
# Coordination Sequence:
#
# PCOD9306468 Si02
#       7
#     8   8   8   8   4   8   8
#     4  12  22  42  69 103 136 173 229 291 340 410
#     4  11  25  49  63  96 142 179 221 291 343 413
#     4  11  26  44  67  94 141 179 224 282 352 406
#     4  12  21  41  71  98 133 182 224 280 348 404
#     4  12  22  40  68 102 136 170 232 290 336 406
#     4  12  22  41  68  98 129 177 225 281 333 406
#     4  12  23  41  72  99 136 173 225 284 341 404
#
# _framework density 19.923850999999999
#
# number of rings (size 3 to 8) (size 9 to 14) (size 15 to 20)
#    0.000    0.308    8.462    1.385    0.000    3.077 
#    5.538    1.538    0.000    0.000    0.000    0.000 
#    0.000    0.000    0.000    0.000    0.000    0.000 
#
# Total GULP energy -145256.255357 kJ/mol
# GULP energy per Si atom -5586.779052 kJ/mol
# Density = 1.987850 g / cm^3
# Si number density = 19.923851 Si / 1000 Ang^3
#
#
#
# Elastic Constant Matrix: (Units=GPa)
#
#
# Indices 1 2 3 4 5 6 
#
# 1 107.2014 22.2430 46.3890 0.0000 -5.2521 0.0000
# 2 22.2430 25.9981 0.1325 0.0000 -8.9797 0.0000
# 3 46.3890 0.1325 105.8542 0.0000 1.9732 0.0000
# 4 0.0000 0.0000 0.0000 23.6281 0.0000 -1.0683
# 5 -5.2521 -8.9797 1.9732 0.0000 39.1431 0.0000
# 6 0.0000 0.0000 0.0000 -1.0683 0.0000 30.8163
#
#
#
# Elastic Compliance Matrix: (Units=1/GPa)
#
#
# Indices 1 2 3 4 5 6 
#
# 1 0.014733 -0.012791 -0.006429 0.000000 -0.000633 0.000000
# 2 -0.012791 0.052885 0.005350 0.000000 0.010146 0.000000
# 3 -0.006429 0.005350 0.012262 0.000000 -0.000253 0.000000
# 4 0.000000 0.000000 0.000000 0.042389 0.000000 0.001469
# 5 -0.000633 0.010146 -0.000253 0.000000 0.027803 0.000000
# 6 0.000000 0.000000 0.000000 0.001469 0.000000 0.032501
#
#
# Mechanical properties :
#
#
# Convention : Reuss Voigt Hill
#
# Bulk Modulus (GPa) = 19.17874 41.84253 30.51064
# Shear Modulus (GPa) = 21.95940 30.07013 26.01477
#
# Velocity S-wave (km/s) = 3.32349 3.88912 3.61738
# Velocity P-wave (km/s) = 4.93704 6.41980 5.72662
#
# Compressibility (1/GPa) = 0.05214106
#
# Stress axis : x y z
#
# Youngs Moduli (GPa) = 67.87450 18.90895 81.55096
#
# Poissons Ratio (x) = 0.24187 0.52427
# Poissons Ratio (y) = 0.86819 -0.43631
# Poissons Ratio (z) = 0.43635 -0.10117
#
# Static dielectric constant tensor:
#      x y z
#    x 1.713340 0.000000 0.029030 
#    y 0.000000 1.690120 0.000000 
#    z 0.029030 0.000000 1.736480 
# 
# From -- ./inp_files/153865.got.cif
#   From: 2010.05.17/outbox.cif.g08.bks.cpg/sg15_77_cif.got.tgz:153865.got - 2010.06.03 18:47:42.
