data_PCOD9306828
_publ_section_title
;
Structure prediction by ZEFSAII (Michael W. Deem and Ramdas Pophale) SiO2 
 PCOD9306828
Probable space group: C 2/C
;
_chemical_formula_sum "Si O2"
_cell_formula_units_Z 44
_cell_length_a 19.093716
_cell_length_b 9.714332
_cell_length_c 24.374013
_cell_angle_alpha 90.000000
_cell_angle_beta 23.133090
_cell_angle_gamma 90.000000
_cell_volume 1776.140835
_symmetry_space_group_name_H-M "C 2/C"
_symmetry_group_IT_number 15
_symmetry_cell_setting 'monoclinic'
loop_
_space_group_symop_operation_xyz
x,y,z
-x,y,1/2-z
-x,-y,-z
x,-y,1/2+z
1/2+x,1/2+y,z
1/2-x,1/2+y,1/2-z
1/2-x,1/2-y,-z
1/2+x,1/2-y,1/2+z
loop_
_atom_site_type_symbol
_atom_site_label
_atom_site_fract_x
_atom_site_fract_y
_atom_site_fract_z
Si Si1 0.724653 0.506373 0.013430
Si Si2 0.225385 0.436315 0.728112
Si Si3 0.614603 0.619841 0.982897
Si Si4 0.500000 0.840471 0.750000
Si Si5 0.862084 0.161734 0.764225
Si Si6 0.867772 0.569582 0.027674
O O1 0.687645 0.616146 0.992146
O O2 0.558237 0.403366 0.126189
O O3 0.904252 0.429040 0.865510
O O4 0.749615 0.560898 0.056697
O O5 0.281381 0.514357 0.631324
O O6 0.409313 0.427705 0.629257
O O7 0.165584 0.278356 0.761119
O O8 0.064119 0.521248 0.869552
O O9 0.631499 0.776080 0.950086
O O10 0.350330 0.746640 0.829738
O O11 0.718900 0.041633 0.869808
#
# Coordination Sequence:
#
# PCOD9306828 Si02
#       6
#     8   8   8   4   8   8
#     4  12  23  44  73 101 138 178 235 291 341 411
#     4  11  27  48  69 101 144 184 235 279 345 420
#     4  11  28  46  68 102 142 184 227 290 351 406
#     4  12  20  42  70 104 134 184 228 286 344 402
#     4  12  24  43  72 104 136 183 237 284 342 413
#     4  12  26  45  73 103 138 182 230 289 351 402
#
# _framework density 24.772811000000001
#
# number of rings (size 3 to 8) (size 9 to 14) (size 15 to 20)
#    0.000    0.364    5.455    2.182    5.091    2.182 
#    6.545    0.000    0.000    0.000    0.000    0.000 
#    0.000    0.000    0.000    0.000    0.000    0.000 
#
# Total GULP energy -123332.403046 kJ/mol
# GULP energy per Si atom -5606.018320 kJ/mol
# Density = 2.471643 g / cm^3
# Si number density = 24.772811 Si / 1000 Ang^3
#
#
#
# Elastic Constant Matrix: (Units=GPa)
#
#
# Indices 1 2 3 4 5 6 
#
# 1 104.7306 17.1926 13.9375 0.0003 -12.2810 -0.0002
# 2 17.1926 150.0463 48.8242 -0.0004 -9.2194 0.0008
# 3 13.9375 48.8242 127.8535 0.0001 -23.5159 0.0020
# 4 0.0003 -0.0004 0.0001 31.9326 0.0010 -10.8174
# 5 -12.2810 -9.2194 -23.5159 0.0010 32.2118 -0.0005
# 6 -0.0002 0.0008 0.0020 -10.8174 -0.0005 26.7212
#
#
#
# Elastic Compliance Matrix: (Units=1/GPa)
#
#
# Indices 1 2 3 4 5 6 
#
# 1 0.010125 -0.000908 -0.000109 0.000000 0.003520 0.000000
# 2 -0.000908 0.007692 -0.002884 0.000000 -0.000250 0.000000
# 3 -0.000109 -0.002884 0.010136 -0.000001 0.006533 -0.000001
# 4 0.000000 0.000000 -0.000001 0.036293 -0.000001 0.014692
# 5 0.003520 -0.000250 0.006533 -0.000001 0.037084 0.000000
# 6 0.000000 0.000000 -0.000001 0.014692 0.000000 0.043371
#
#
# Mechanical properties :
#
#
# Convention : Reuss Voigt Hill
#
# Bulk Modulus (GPa) = 49.63025 60.28211 54.95618
# Shear Modulus (GPa) = 31.40271 38.35152 34.87711
#
# Velocity S-wave (km/s) = 3.56424 3.93890 3.75624
# Velocity P-wave (km/s) = 6.08408 6.71367 6.40661
#
# Compressibility (1/GPa) = 0.02014900
#
# Stress axis : x y z
#
# Youngs Moduli (GPa) = 98.76773 130.00771 98.65417
#
# Poissons Ratio (x) = 0.11808 0.01079
# Poissons Ratio (y) = 0.08970 0.28456
# Poissons Ratio (z) = 0.01081 0.37499
#
# Static dielectric constant tensor:
#      x y z
#    x 2.020720 0.000000 -0.003210 
#    y 0.000000 1.941650 0.000000 
#    z -0.003210 0.000000 1.889480 
# 
# From -- ./inp_files/318567.got.cif
#   From: 2010.05.17/outbox.cif.g08.bks.cpg/sg15_160_cif.got.tgz:318567.got - 2010.06.03 18:47:42.
