data_PCOD9306547
_publ_section_title
;
Structure prediction by ZEFSAII (Michael W. Deem and Ramdas Pophale) SiO2 
 PCOD9306547
Probable space group: C 2/C
;
_chemical_formula_sum "Si O2"
_cell_formula_units_Z 32
_cell_length_a 13.926215
_cell_length_b 5.147259
_cell_length_c 18.356610
_cell_angle_alpha 90.000000
_cell_angle_beta 86.019827
_cell_angle_gamma 90.000000
_cell_volume 1312.661873
_symmetry_space_group_name_H-M "C 2/C"
_symmetry_group_IT_number 15
_symmetry_cell_setting 'monoclinic'
loop_
_space_group_symop_operation_xyz
x,y,z
-x,y,1/2-z
-x,-y,-z
x,-y,1/2+z
1/2+x,1/2+y,z
1/2-x,1/2+y,1/2-z
1/2-x,1/2-y,-z
1/2+x,1/2-y,1/2+z
loop_
_atom_site_type_symbol
_atom_site_label
_atom_site_fract_x
_atom_site_fract_y
_atom_site_fract_z
Si Si1 0.064909 0.199140 0.949819
Si Si2 0.307849 0.942902 0.268502
Si Si3 0.042116 0.918791 0.817062
Si Si4 0.399448 0.093053 0.910244
O O1 0.990462 0.409449 0.922216
O O2 0.104057 0.054416 0.876766
O O3 0.134234 0.326517 0.006925
O O4 0.000000 0.000000 0.000000
O O5 0.235745 0.697879 0.266134
O O6 0.400048 0.824364 0.220038
O O7 0.331035 0.014844 0.351290
O O8 0.000000 0.075571 0.750000
O O9 0.946514 0.835058 0.865264
#
# Coordination Sequence:
#
# PCOD9306547 Si02
#       4
#     8   8   8   8
#     4   9  18  35  66  90 117 150 218 259 303 352
#     4  11  26  41  60  92 132 167 203 253 315 372
#     4   9  20  36  62  89 116 164 210 258 301 368
#     4   9  20  38  63  90 118 163 209 259 302 367
#
# _framework density 24.377946999999999
#
# number of rings (size 3 to 8) (size 9 to 14) (size 15 to 20)
#    0.000    2.500    0.000    0.000   14.000    1.000 
#    0.000    2.500    0.000    0.000    0.000    0.000 
#    0.000    0.000    0.000    0.000    0.000    0.000 
#
# Total GULP energy -89205.854910 kJ/mol
# GULP energy per Si atom -5575.365932 kJ/mol
# Density = 2.432246 g / cm^3
# Si number density = 24.377947 Si / 1000 Ang^3
#
#
#
# Elastic Constant Matrix: (Units=GPa)
#
#
# Indices 1 2 3 4 5 6 
#
# 1 62.2873 0.7579 39.5190 0.0000 10.4165 0.0000
# 2 0.7579 64.8338 61.5886 0.0000 8.1209 0.0000
# 3 39.5190 61.5886 207.5509 0.0000 44.6498 0.0000
# 4 0.0000 0.0000 0.0000 37.3792 0.0000 -0.6421
# 5 10.4165 8.1209 44.6498 0.0000 28.6060 0.0000
# 6 0.0000 0.0000 0.0000 -0.6421 0.0000 28.2613
#
#
#
# Elastic Compliance Matrix: (Units=1/GPa)
#
#
# Indices 1 2 3 4 5 6 
#
# 1 0.019175 0.004437 -0.004809 0.000000 -0.000735 0.000000
# 2 0.004437 0.023163 -0.008967 0.000000 0.005805 0.000000
# 3 -0.004809 -0.008967 0.011247 0.000000 -0.013258 0.000000
# 4 0.000000 0.000000 0.000000 0.026763 0.000000 0.000608
# 5 -0.000735 0.005805 -0.013258 0.000000 0.054271 0.000000
# 6 0.000000 0.000000 0.000000 0.000608 0.000000 0.035398
#
#
# Mechanical properties :
#
#
# Convention : Reuss Voigt Hill
#
# Bulk Modulus (GPa) = 28.64888 59.82254 44.23571
# Shear Modulus (GPa) = 24.95856 34.36972 29.66414
#
# Velocity S-wave (km/s) = 3.20319 3.75890 3.49211
# Velocity P-wave (km/s) = 5.04559 6.59029 5.86898
#
# Compressibility (1/GPa) = 0.03490537
#
# Stress axis : x y z
#
# Youngs Moduli (GPa) = 52.15127 43.17179 88.91400
#
# Poissons Ratio (x) = -0.19154 0.42763
# Poissons Ratio (y) = -0.23138 0.79729
# Poissons Ratio (z) = 0.25082 0.38712
#
# Static dielectric constant tensor:
#      x y z
#    x 2.018910 0.000000 0.066190 
#    y 0.000000 2.022470 0.000000 
#    z 0.066190 0.000000 2.064470 
# 
# From -- ./inp_files/201701.got.cif
#   From: 2010.05.17/outbox.cif.g08.bks.cpg/sg15_101_cif.got.tgz:201701.got - 2010.06.03 18:47:42.
