data_PCOD9306910
_publ_section_title
;
Structure prediction by ZEFSAII (Michael W. Deem and Ramdas Pophale) SiO2 
 PCOD9306910
Probable space group: C 2/C
;
_chemical_formula_sum "Si O2"
_cell_formula_units_Z 40
_cell_length_a 7.123480
_cell_length_b 19.223706
_cell_length_c 11.468567
_cell_angle_alpha 90.000000
_cell_angle_beta 78.478744
_cell_angle_gamma 90.000000
_cell_volume 1538.857399
_symmetry_space_group_name_H-M "C 2/C"
_symmetry_group_IT_number 15
_symmetry_cell_setting 'monoclinic'
loop_
_space_group_symop_operation_xyz
x,y,z
-x,y,1/2-z
-x,-y,-z
x,-y,1/2+z
1/2+x,1/2+y,z
1/2-x,1/2+y,1/2-z
1/2-x,1/2-y,-z
1/2+x,1/2-y,1/2+z
loop_
_atom_site_type_symbol
_atom_site_label
_atom_site_fract_x
_atom_site_fract_y
_atom_site_fract_z
Si Si1 0.286748 0.159731 0.371489
Si Si2 0.102322 0.367516 0.985746
Si Si3 0.845359 0.544273 0.675692
Si Si4 0.202348 0.691077 0.860284
Si Si5 0.037699 0.946223 0.598956
O O1 0.262393 0.233744 0.312599
O O2 0.219214 0.174786 0.517622
O O3 0.509293 0.143784 0.371031
O O4 0.153969 0.096829 0.346442
O O5 0.978737 0.432737 0.050704
O O6 0.026594 0.308234 0.082472
O O7 0.319711 0.385217 0.958337
O O8 0.762484 0.621513 0.719463
O O9 0.673913 0.493563 0.665396
O O10 0.000000 0.519250 0.750000
O O11 0.000000 0.000000 0.500000
#
# Coordination Sequence:
#
# PCOD9306910 Si02
#       5
#     8   8   8   8   8
#     4   8  16  30  49  78  95 121 170 210 245 293
#     4   8  18  30  53  73 100 124 167 218 240 291
#     4   9  19  34  51  69 107 135 159 209 263 297
#     4   7  15  32  50  69 101 123 166 205 255 293
#     4  12  18  29  56  76  97 131 179 206 247 302
#
# _framework density 25.993313000000001
#
# number of rings (size 3 to 8) (size 9 to 14) (size 15 to 20)
#    2.400    0.400    4.000    0.600    0.000    0.800 
#    0.000    1.000    4.400    0.000    0.000    0.000 
#    0.000    0.000    0.000    0.000    0.000    0.000 
#
# Total GULP energy -111395.207112 kJ/mol
# GULP energy per Si atom -5569.760356 kJ/mol
# Density = 2.593415 g / cm^3
# Si number density = 25.993313 Si / 1000 Ang^3
#
#
#
# Elastic Constant Matrix: (Units=GPa)
#
#
# Indices 1 2 3 4 5 6 
#
# 1 147.2799 64.1147 25.7408 0.0000 23.4104 0.0000
# 2 64.1147 121.0649 36.8008 0.0000 27.9494 0.0000
# 3 25.7408 36.8008 51.9517 0.0000 20.6960 0.0000
# 4 0.0000 0.0000 0.0000 24.4626 0.0000 -4.2702
# 5 23.4104 27.9494 20.6960 0.0000 38.3752 0.0000
# 6 0.0000 0.0000 0.0000 -4.2702 0.0000 44.9962
#
#
#
# Elastic Compliance Matrix: (Units=1/GPa)
#
#
# Indices 1 2 3 4 5 6 
#
# 1 0.009028 -0.004060 -0.000741 0.000000 -0.002152 0.000000
# 2 -0.004060 0.013044 -0.005643 0.000000 -0.003981 0.000000
# 3 -0.000741 -0.005643 0.027760 0.000000 -0.010409 0.000000
# 4 0.000000 0.000000 0.000000 0.041567 0.000000 0.003945
# 5 -0.002152 -0.003981 -0.010409 0.000000 0.035884 0.000000
# 6 0.000000 0.000000 0.000000 0.003945 0.000000 0.022598
#
#
# Mechanical properties :
#
#
# Convention : Reuss Voigt Hill
#
# Bulk Modulus (GPa) = 34.54682 63.73435 49.14059
# Shear Modulus (GPa) = 27.71359 34.47615 31.09487
#
# Velocity S-wave (km/s) = 3.26879 3.64586 3.46246
# Velocity P-wave (km/s) = 5.25035 6.50352 5.91024
#
# Compressibility (1/GPa) = 0.02894622
#
# Stress axis : x y z
#
# Youngs Moduli (GPa) = 110.76100 76.66246 36.02359
#
# Poissons Ratio (x) = 0.31121 0.02668
# Poissons Ratio (y) = 0.44963 0.20328
# Poissons Ratio (z) = 0.08203 0.43260
#
# Static dielectric constant tensor:
#      x y z
#    x 2.150360 0.000000 -0.409260 
#    y 0.000000 2.052860 0.000000 
#    z -0.409260 0.000000 3.603150 
# 
# From -- ./inp_files/135157.got.cif
#   From: 2010.05.17/outbox.cif.g08.bks.cpg/sg15_68_cif.got.tgz:135157.got - 2010.06.03 18:47:42.
