data_PCOD9306087
_publ_section_title
;
Structure prediction by ZEFSAII (Michael W. Deem and Ramdas Pophale) SiO2 
 PCOD9306087
Probable space group: C 2/C
;
_chemical_formula_sum "Si O2"
_cell_formula_units_Z 56
_cell_length_a 19.011236
_cell_length_b 19.543480
_cell_length_c 22.354279
_cell_angle_alpha 90.000000
_cell_angle_beta 18.545774
_cell_angle_gamma 90.000000
_cell_volume 2641.708823
_symmetry_space_group_name_H-M "C 2/C"
_symmetry_group_IT_number 15
_symmetry_cell_setting 'monoclinic'
loop_
_space_group_symop_operation_xyz
x,y,z
-x,y,1/2-z
-x,-y,-z
x,-y,1/2+z
1/2+x,1/2+y,z
1/2-x,1/2+y,1/2-z
1/2-x,1/2-y,-z
1/2+x,1/2-y,1/2+z
loop_
_atom_site_type_symbol
_atom_site_label
_atom_site_fract_x
_atom_site_fract_y
_atom_site_fract_z
Si Si1 0.153726 0.145762 0.291351
Si Si2 0.304121 0.415105 0.247130
Si Si3 0.929486 0.061688 0.365585
Si Si4 0.189417 0.451307 0.636886
Si Si5 0.053540 0.465814 0.878477
Si Si6 0.624646 0.819950 0.088110
Si Si7 0.241320 0.799613 0.306796
O O1 0.298130 0.095417 0.214931
O O2 0.278635 0.217511 0.179824
O O3 0.086851 0.102650 0.285903
O O4 0.940385 0.167229 0.502463
O O5 0.176010 0.465812 0.303971
O O6 0.262953 0.339780 0.252780
O O7 0.187335 0.445268 0.401301
O O8 0.569382 0.420150 0.040435
O O9 0.791582 0.119812 0.443226
O O10 0.000000 0.018545 0.250000
O O11 0.767754 0.017400 0.537080
O O12 0.069608 0.468930 0.795096
O O13 0.000000 0.414000 0.750000
O O14 0.500000 0.836026 0.250000
O O15 0.469979 0.811495 0.156445
O O16 0.750000 0.750000 0.000000
#
# Coordination Sequence:
#
# PCOD9306087 Si02
#       7
#     8   8   8   8   8   8   8
#     4  12  24  43  66  98 141 191 232 290 345 418
#     4  11  25  44  71 103 136 182 238 294 349 424
#     4  12  27  38  61  99 144 186 236 272 344 417
#     4  12  27  45  70  99 137 181 234 299 357 412
#     4  11  25  45  70  99 139 180 236 294 356 419
#     4  12  23  37  55  91 140 191 226 270 328 413
#     4  12  24  40  67  99 140 186 240 281 348 414
#
# _framework density 21.198399999999999
#
# number of rings (size 3 to 8) (size 9 to 14) (size 15 to 20)
#    0.000    0.286    5.714    3.000    8.000    0.000 
#    0.000    0.000    0.000    0.857    0.000    0.000 
#    0.000    0.000    0.000    0.000    0.000    0.000 
#
# Total GULP energy -156401.072696 kJ/mol
# GULP energy per Si atom -5585.752596 kJ/mol
# Density = 2.115015 g / cm^3
# Si number density = 21.198400 Si / 1000 Ang^3
#
#
#
# Elastic Constant Matrix: (Units=GPa)
#
#
# Indices 1 2 3 4 5 6 
#
# 1 107.6041 24.1605 45.5249 -0.0994 22.6718 0.0153
# 2 24.1605 68.5826 5.6717 -0.1480 -1.3216 0.0737
# 3 45.5249 5.6717 98.6362 -0.2983 11.4667 0.2360
# 4 -0.0994 -0.1480 -0.2983 16.0987 0.2053 2.9072
# 5 22.6718 -1.3216 11.4667 0.2053 44.5135 -0.0867
# 6 0.0153 0.0737 0.2360 2.9072 -0.0867 28.3621
#
#
#
# Elastic Compliance Matrix: (Units=1/GPa)
#
#
# Indices 1 2 3 4 5 6 
#
# 1 0.013836 -0.004534 -0.005454 0.000011 -0.005777 0.000031
# 2 -0.004534 0.016156 0.000866 0.000113 0.002566 -0.000051
# 3 -0.005454 0.000866 0.012660 0.000238 -0.000459 -0.000130
# 4 0.000011 0.000113 0.000238 0.063300 -0.000368 -0.006492
# 5 -0.005777 0.002566 -0.000459 -0.000368 0.025604 0.000116
# 6 0.000031 -0.000051 -0.000130 -0.006492 0.000116 0.035925
#
#
# Mechanical properties :
#
#
# Convention : Reuss Voigt Hill
#
# Bulk Modulus (GPa) = 40.96971 47.28191 44.12581
# Shear Modulus (GPa) = 25.79168 31.09259 28.44213
#
# Velocity S-wave (km/s) = 3.49188 3.83396 3.66691
# Velocity P-wave (km/s) = 5.96878 6.47703 6.22809
#
# Compressibility (1/GPa) = 0.02440827
#
# Stress axis : x y z
#
# Youngs Moduli (GPa) = 72.27577 61.89464 78.98920
#
# Poissons Ratio (x) = 0.28066 0.43078
# Poissons Ratio (y) = 0.32773 -0.06841
# Poissons Ratio (z) = 0.39416 -0.05360
#
# Static dielectric constant tensor:
#      x y z
#    x 1.859580 0.001280 0.110670 
#    y 0.001280 1.805170 -0.012280 
#    z 0.110670 -0.012280 -0.841500 
# 
# From -- ./inp_files/250008.got.cif
#   From: 2010.05.17/outbox.cif.g08.bks.cpg/sg15_126_cif.got.tgz:250008.got - 2010.06.03 18:47:42.
