data_PCOD9306908
_publ_section_title
;
Structure prediction by ZEFSAII (Michael W. Deem and Ramdas Pophale) SiO2 
 PCOD9306908
Probable space group: C 2/C
;
_chemical_formula_sum "Si O2"
_cell_formula_units_Z 52
_cell_length_a 18.632927
_cell_length_b 14.513389
_cell_length_c 6.869488
_cell_angle_alpha 90.000000
_cell_angle_beta 81.537747
_cell_angle_gamma 90.000000
_cell_volume 1837.469797
_symmetry_space_group_name_H-M "C 2/C"
_symmetry_group_IT_number 15
_symmetry_cell_setting 'monoclinic'
loop_
_space_group_symop_operation_xyz
x,y,z
-x,y,1/2-z
-x,-y,-z
x,-y,1/2+z
1/2+x,1/2+y,z
1/2-x,1/2+y,1/2-z
1/2-x,1/2-y,-z
1/2+x,1/2-y,1/2+z
loop_
_atom_site_type_symbol
_atom_site_label
_atom_site_fract_x
_atom_site_fract_y
_atom_site_fract_z
Si Si1 0.921359 0.627049 0.285142
Si Si2 0.257358 0.167467 0.775283
Si Si3 0.731737 0.116105 0.172431
Si Si4 0.600293 0.333963 0.314012
Si Si5 0.385788 0.389897 0.656624
Si Si6 0.583850 0.816294 0.265635
Si Si7 0.500000 0.464715 0.250000
O O1 0.847871 0.577670 0.247601
O O2 0.920633 0.725685 0.172538
O O3 0.911193 0.655258 0.511427
O O4 0.000000 0.580499 0.250000
O O5 0.264578 0.121792 0.561687
O O6 0.244328 0.277417 0.738792
O O7 0.176920 0.143332 0.883596
O O8 0.335500 0.151675 0.846510
O O9 0.804410 0.070993 0.216363
O O10 0.529033 0.390439 0.399863
O O11 0.610640 0.364692 0.079282
O O12 0.407277 0.293591 0.747059
O O13 0.434771 0.466497 0.733767
O O14 0.500000 0.842750 0.250000
#
# Coordination Sequence:
#
# PCOD9306908 Si02
#       7
#     8   8   8   8   8   8   4
#     4   9  15  26  44  64  84 108 140 178 211 245
#     4   7  12  24  41  56  75 107 143 172 199 244
#     4   7  12  24  41  56  75 107 143 172 199 244
#     4   9  17  27  38  57  84 115 146 167 199 253
#     4   9  17  27  38  57  84 115 146 167 199 253
#     4   9  15  26  44  64  84 108 140 178 211 245
#     4  12  18  24  40  62  86 112 134 178 210 240
#
# _framework density 28.299785
#
# number of rings (size 3 to 8) (size 9 to 14) (size 15 to 20)
#    0.000    3.385    1.538    4.154    0.000    0.000 
#    0.000    0.000    0.000   12.000    0.000    1.077 
#    0.000    7.385    0.000    0.000    0.000    0.000 
#
# Total GULP energy -144939.136991 kJ/mol
# GULP energy per Si atom -5574.582192 kJ/mol
# Density = 2.823537 g / cm^3
# Si number density = 28.299785 Si / 1000 Ang^3
#
#
#
# Elastic Constant Matrix: (Units=GPa)
#
#
# Indices 1 2 3 4 5 6 
#
# 1 354.4674 22.0470 26.4580 0.0000 47.1156 0.0000
# 2 22.0470 64.0194 2.2659 0.0000 12.9469 0.0000
# 3 26.4580 2.2659 102.6542 0.0000 12.5826 0.0000
# 4 0.0000 0.0000 0.0000 5.7562 0.0000 12.0861
# 5 47.1156 12.9469 12.5826 0.0000 36.6137 0.0000
# 6 0.0000 0.0000 0.0000 12.0861 0.0000 13.4620
#
#
#
# Elastic Compliance Matrix: (Units=1/GPa)
#
#
# Indices 1 2 3 4 5 6 
#
# 1 0.003422 -0.000323 -0.000364 0.000000 -0.004164 0.000000
# 2 -0.000323 0.016868 0.000408 0.000000 -0.005689 0.000000
# 3 -0.000364 0.000408 0.010217 0.000000 -0.003187 0.000000
# 4 0.000000 0.000000 0.000000 -0.196285 0.000000 0.176224
# 5 -0.004164 -0.005689 -0.003187 0.000000 0.035777 0.000000
# 6 0.000000 0.000000 0.000000 0.176224 0.000000 -0.083930
#
#
# Mechanical properties :
#
#
# Convention : Reuss Voigt Hill
#
# Bulk Modulus (GPa) = 33.39207 69.18699 51.28953
# Shear Modulus (GPa) = -24.58328 42.52439 8.97056
#
# Velocity S-wave (km/s) = -2.95052 3.88060 1.78233
# Velocity P-wave (km/s) = 0.46644 6.67680 4.73272
#
# Compressibility (1/GPa) = 0.02994723
#
# Stress axis : x y z
#
# Youngs Moduli (GPa) = 292.23493 59.28514 97.87663
#
# Poissons Ratio (x) = 0.01918 0.03567
# Poissons Ratio (y) = 0.09453 -0.03996
# Poissons Ratio (z) = 0.10651 -0.02421
#
# Static dielectric constant tensor:
#      x y z
#    x 2.564430 0.000000 -0.229200 
#    y 0.000000 2.131180 0.000000 
#    z -0.229200 0.000000 2.303860 
# 
# From -- ./inp_files/97777.got.cif
#   From: 2010.05.17/outbox.cif.g08.bks.cpg/sg15_49_cif.got.tgz:97777.got - 2010.06.03 18:47:42.
