data_PCOD9306786
_publ_section_title
;
Structure prediction by ZEFSAII (Michael W. Deem and Ramdas Pophale) SiO2 
 PCOD9306786
Probable space group: C 2/C
;
_chemical_formula_sum "Si O2"
_cell_formula_units_Z 56
_cell_length_a 13.436311
_cell_length_b 13.814805
_cell_length_c 13.182547
_cell_angle_alpha 90.000000
_cell_angle_beta 114.536822
_cell_angle_gamma 90.000000
_cell_volume 2225.972217
_symmetry_space_group_name_H-M "C 2/C"
_symmetry_group_IT_number 15
_symmetry_cell_setting 'monoclinic'
loop_
_space_group_symop_operation_xyz
x,y,z
-x,y,1/2-z
-x,-y,-z
x,-y,1/2+z
1/2+x,1/2+y,z
1/2-x,1/2+y,1/2-z
1/2-x,1/2-y,-z
1/2+x,1/2-y,1/2+z
loop_
_atom_site_type_symbol
_atom_site_label
_atom_site_fract_x
_atom_site_fract_y
_atom_site_fract_z
Si Si1 0.217919 0.752884 0.158966
Si Si2 0.821721 0.927914 0.216932
Si Si3 0.046147 0.078498 0.100386
Si Si4 0.415977 0.760596 0.101408
Si Si5 0.116842 0.387612 0.780404
Si Si6 0.299480 0.354609 0.999352
Si Si7 0.433713 0.941712 0.385859
O O1 0.341045 0.767975 0.170266
O O2 0.188835 0.673465 0.231198
O O3 0.171306 0.849946 0.190238
O O4 0.156353 0.726396 0.030134
O O5 0.879119 0.022602 0.285786
O O6 0.692210 0.926894 0.135785
O O7 0.863645 0.895620 0.124152
O O8 0.960258 0.150756 0.114708
O O9 0.117204 0.148031 0.058145
O O10 0.000000 0.000000 0.000000
O O11 0.504122 0.845392 0.122370
O O12 0.193246 0.409999 0.909038
O O13 0.082590 0.485945 0.713655
O O14 0.000000 0.335036 0.750000
O O15 0.250000 0.250000 0.000000
O O16 0.500000 0.000000 0.500000
#
# Coordination Sequence:
#
# PCOD9306786 Si02
#       7
#     8   8   8   8   8   8   8
#     4  11  26  51  83 123 164 220 290 342 423 518
#     4  12  27  50  82 122 171 218 282 347 412 513
#     4  12  28  54  82 124 168 222 278 339 429 496
#     4  11  27  51  85 120 172 223 275 356 429 499
#     4  12  27  49  84 119 160 211 280 349 417 498
#     4  12  27  51  82 120 168 216 281 346 416 502
#     4  12  26  48  82 120 164 216 279 342 425 490
#
# _framework density 25.157548999999999
#
# number of rings (size 3 to 8) (size 9 to 14) (size 15 to 20)
#    0.000    0.286    5.714    1.714    4.000    2.857 
#    2.571    0.000    0.000    0.857    0.000    0.000 
#    0.000    0.000    0.000    0.000    0.000    0.000 
#
# Total GULP energy -156795.847853 kJ/mol
# GULP energy per Si atom -5599.851709 kJ/mol
# Density = 2.510029 g / cm^3
# Si number density = 25.157549 Si / 1000 Ang^3
#
#
#
# Elastic Constant Matrix: (Units=GPa)
#
#
# Indices 1 2 3 4 5 6 
#
# 1 96.3569 32.3555 34.6070 0.0000 -19.8654 0.0000
# 2 32.3555 124.4558 35.2402 0.0000 -4.2670 0.0000
# 3 34.6070 35.2402 142.1447 0.0000 -11.0667 0.0000
# 4 0.0000 0.0000 0.0000 38.0101 0.0000 5.5849
# 5 -19.8654 -4.2670 -11.0667 0.0000 45.8055 0.0000
# 6 0.0000 0.0000 0.0000 5.5849 0.0000 37.1308
#
#
#
# Elastic Compliance Matrix: (Units=1/GPa)
#
#
# Indices 1 2 3 4 5 6 
#
# 1 0.013034 -0.002614 -0.002145 0.000000 0.004891 0.000000
# 2 -0.002614 0.009170 -0.001691 0.000000 -0.000688 0.000000
# 3 -0.002145 -0.001691 0.008043 0.000000 0.000856 0.000000
# 4 0.000000 0.000000 0.000000 0.026903 0.000000 -0.004047
# 5 0.004891 -0.000688 0.000856 0.000000 0.024095 0.000000
# 6 0.000000 0.000000 0.000000 -0.004047 0.000000 0.027540
#
#
# Mechanical properties :
#
#
# Convention : Reuss Voigt Hill
#
# Bulk Modulus (GPa) = 57.63920 63.04032 60.33976
# Shear Modulus (GPa) = 39.22590 41.57291 40.39940
#
# Velocity S-wave (km/s) = 3.95297 4.06951 4.01166
# Velocity P-wave (km/s) = 6.61783 6.86978 6.74498
#
# Compressibility (1/GPa) = 0.01734931
#
# Stress axis : x y z
#
# Youngs Moduli (GPa) = 76.72018 109.05633 124.33258
#
# Poissons Ratio (x) = 0.28504 0.26664
# Poissons Ratio (y) = 0.20052 0.21019
# Poissons Ratio (z) = 0.16453 0.18436
#
# Static dielectric constant tensor:
#      x y z
#    x 2.234860 0.000000 -0.096550 
#    y 0.000000 1.945500 0.000000 
#    z -0.096550 0.000000 1.921830 
# 
# From -- ./inp_files/161409.got.cif
#   From: 2010.05.17/outbox.cif.g08.bks.cpg/sg15_81_cif.got.tgz:161409.got - 2010.06.03 18:47:42.
