data_PCOD9306189
_publ_section_title
;
Structure prediction by ZEFSAII (Michael W. Deem and Ramdas Pophale) SiO2 
 PCOD9306189
Probable space group: C 2/C
;
_chemical_formula_sum "Si O2"
_cell_formula_units_Z 44
_cell_length_a 7.054959
_cell_length_b 11.421605
_cell_length_c 24.244619
_cell_angle_alpha 90.000000
_cell_angle_beta 72.032096
_cell_angle_gamma 90.000000
_cell_volume 1858.327665
_symmetry_space_group_name_H-M "C 2/C"
_symmetry_group_IT_number 15
_symmetry_cell_setting 'monoclinic'
loop_
_space_group_symop_operation_xyz
x,y,z
-x,y,1/2-z
-x,-y,-z
x,-y,1/2+z
1/2+x,1/2+y,z
1/2-x,1/2+y,1/2-z
1/2-x,1/2-y,-z
1/2+x,1/2-y,1/2+z
loop_
_atom_site_type_symbol
_atom_site_label
_atom_site_fract_x
_atom_site_fract_y
_atom_site_fract_z
Si Si1 0.823106 0.058530 0.478644
Si Si2 0.500000 0.127322 0.250000
Si Si3 0.089860 0.637256 0.929981
Si Si4 0.085307 0.009954 0.298702
Si Si5 0.512179 0.724143 0.634984
Si Si6 0.099464 0.220946 0.124891
O O1 0.636525 0.118949 0.526947
O O2 0.926687 0.154777 0.430888
O O3 0.706777 0.970345 0.447766
O O4 0.000000 0.000000 0.500000
O O5 0.311499 0.043307 0.270436
O O6 0.494395 0.204528 0.306785
O O7 0.277223 0.729452 0.915287
O O8 0.028780 0.660245 0.870794
O O9 0.000000 0.961758 0.250000
O O10 0.980614 0.132902 0.322336
O O11 0.039727 0.910967 0.347137
O O12 0.332192 0.765295 0.613310
#
# Coordination Sequence:
#
# PCOD9306189 Si02
#       6
#     8   4   8   8   8   8
#     4  11  26  48  72 109 147 189 241 299 359 434
#     4  12  26  46  72 102 142 192 232 298 368 416
#     4  11  25  45  74 104 142 189 236 292 359 426
#     4  12  26  46  70 105 142 182 242 295 355 435
#     4  12  26  45  73 106 142 189 245 292 361 438
#     4  12  26  45  75 105 143 189 238 299 359 428
#
# _framework density 23.677202999999999
#
# number of rings (size 3 to 8) (size 9 to 14) (size 15 to 20)
#    0.000    0.364    6.364    1.636    0.000    8.727 
#    0.000    0.000    0.000    0.000    0.000    0.000 
#    0.000    0.000    0.000    0.000    0.000    0.000 
#
# Total GULP energy -122607.725382 kJ/mol
# GULP energy per Si atom -5573.078426 kJ/mol
# Density = 2.362331 g / cm^3
# Si number density = 23.677203 Si / 1000 Ang^3
#
#
#
# Elastic Constant Matrix: (Units=GPa)
#
#
# Indices 1 2 3 4 5 6 
#
# 1 202.4091 52.0722 42.3535 0.0000 -25.2238 0.0000
# 2 52.0722 47.0542 33.8966 0.0000 11.1052 0.0000
# 3 42.3535 33.8966 64.6102 0.0000 -13.4304 0.0000
# 4 0.0000 0.0000 0.0000 17.6537 0.0000 -42.5543
# 5 -25.2238 11.1052 -13.4304 0.0000 44.8390 0.0000
# 6 0.0000 0.0000 0.0000 -42.5543 0.0000 -37.9419
#
#
#
# Elastic Compliance Matrix: (Units=1/GPa)
#
#
# Indices 1 2 3 4 5 6 
#
# 1 0.009563 -0.016480 0.004632 0.000000 0.010849 0.000000
# 2 -0.016480 0.075053 -0.036645 0.000000 -0.038835 0.000000
# 3 0.004632 -0.036645 0.036358 0.000000 0.022572 0.000000
# 4 0.000000 0.000000 0.000000 0.015295 0.000000 -0.017154
# 5 0.010849 -0.038835 0.022572 0.000000 0.044784 0.000000
# 6 0.000000 0.000000 0.000000 -0.017154 0.000000 -0.007116
#
#
# Mechanical properties :
#
#
# Convention : Reuss Voigt Hill
#
# Bulk Modulus (GPa) = 41.68616 63.41311 52.54964
# Shear Modulus (GPa) = 17.92648 17.29357 17.61002
#
# Velocity S-wave (km/s) = 2.75457 2.70550 2.73014
# Velocity P-wave (km/s) = 5.26888 6.04981 5.67280
#
# Compressibility (1/GPa) = 0.02398878
#
# Stress axis : x y z
#
# Youngs Moduli (GPa) = 104.57197 13.32391 27.50442
#
# Poissons Ratio (x) = 0.21958 -0.12741
# Poissons Ratio (y) = 1.72335 1.00789
# Poissons Ratio (z) = -0.48442 0.48825
#
# Static dielectric constant tensor:
#      x y z
#    x 1.953490 0.000000 -0.011900 
#    y 0.000000 1.959330 0.000000 
#    z -0.011900 0.000000 1.942630 
# 
# From -- ./inp_files/285393.got.cif
#   From: 2010.05.17/outbox.cif.g08.bks.cpg/sg15_143_cif.got.tgz:285393.got - 2010.06.03 18:47:42.
