data_PCOD9306188
_publ_section_title
;
Structure prediction by ZEFSAII (Michael W. Deem and Ramdas Pophale) SiO2 
 PCOD9306188
Probable space group: C 2/C
;
_chemical_formula_sum "Si O2"
_cell_formula_units_Z 52
_cell_length_a 9.401869
_cell_length_b 20.819659
_cell_length_c 14.107058
_cell_angle_alpha 90.000000
_cell_angle_beta 120.512220
_cell_angle_gamma 90.000000
_cell_volume 2378.976073
_symmetry_space_group_name_H-M "C 2/C"
_symmetry_group_IT_number 15
_symmetry_cell_setting 'monoclinic'
loop_
_space_group_symop_operation_xyz
x,y,z
-x,y,1/2-z
-x,-y,-z
x,-y,1/2+z
1/2+x,1/2+y,z
1/2-x,1/2+y,1/2-z
1/2-x,1/2-y,-z
1/2+x,1/2-y,1/2+z
loop_
_atom_site_type_symbol
_atom_site_label
_atom_site_fract_x
_atom_site_fract_y
_atom_site_fract_z
Si Si1 0.046848 0.157247 0.533296
Si Si2 0.005513 0.694596 0.994167
Si Si3 0.000000 0.542178 0.250000
Si Si4 0.658574 0.872089 0.242295
Si Si5 0.789218 0.399735 0.529408
Si Si6 0.353705 0.376480 0.635307
Si Si7 0.289722 0.011317 0.848126
O O1 0.995041 0.229261 0.489393
O O2 0.215494 0.164896 0.648679
O O3 0.083832 0.117507 0.450813
O O4 0.900156 0.121371 0.537569
O O5 0.191084 0.667898 0.071790
O O6 0.923686 0.667075 0.870709
O O7 0.899745 0.661744 0.041081
O O8 0.934980 0.509581 0.324791
O O9 0.156879 0.579426 0.346881
O O10 0.500000 0.894219 0.250000
O O11 0.771750 0.928972 0.236195
O O12 0.824609 0.453536 0.460222
O O13 0.500000 0.348895 0.750000
O O14 0.306033 0.446257 0.661035
#
# Coordination Sequence:
#
# PCOD9306188 Si02
#       7
#     8   8   4   8   8   8   8
#     4  12  28  46  75 107 146 195 243 295 364 428
#     4  11  26  48  73 104 146 194 241 298 355 435
#     4  12  22  44  76 100 146 194 232 298 372 436
#     4  11  25  45  74 104 140 193 241 297 365 425
#     4  11  27  46  71 110 144 192 242 302 365 425
#     4  12  27  45  72 111 145 188 242 304 354 432
#     4  11  26  45  73 108 145 187 246 297 366 432
#
# _framework density 21.858142999999998
#
# number of rings (size 3 to 8) (size 9 to 14) (size 15 to 20)
#    0.000    0.615    3.846    2.308    8.615    2.462 
#    0.000    0.000    0.000    0.000    0.000    0.000 
#    0.000    0.000    0.000    0.000    0.000    0.000 
#
# Total GULP energy -145051.261377 kJ/mol
# GULP energy per Si atom -5578.894668 kJ/mol
# Density = 2.180839 g / cm^3
# Si number density = 21.858143 Si / 1000 Ang^3
#
#
#
# Elastic Constant Matrix: (Units=GPa)
#
#
# Indices 1 2 3 4 5 6 
#
# 1 126.9247 45.9408 49.2522 0.0000 -3.1186 0.0000
# 2 45.9408 82.4856 35.7796 0.0000 -10.1841 0.0000
# 3 49.2522 35.7796 116.3397 0.0000 15.9319 0.0000
# 4 0.0000 0.0000 0.0000 -36.1084 0.0000 14.7715
# 5 -3.1186 -10.1841 15.9319 0.0000 34.5455 0.0000
# 6 0.0000 0.0000 0.0000 14.7715 0.0000 9.8009
#
#
#
# Elastic Compliance Matrix: (Units=1/GPa)
#
#
# Indices 1 2 3 4 5 6 
#
# 1 0.010820 -0.004398 -0.003399 0.000000 0.001248 0.000000
# 2 -0.004398 0.017303 -0.004380 0.000000 0.006724 0.000000
# 3 -0.003399 -0.004380 0.012383 0.000000 -0.007309 0.000000
# 4 0.000000 0.000000 0.000000 -0.017132 0.000000 0.025820
# 5 0.001248 0.006724 -0.007309 0.000000 0.034413 0.000000
# 6 0.000000 0.000000 0.000000 0.025820 0.000000 0.063117
#
#
# Mechanical properties :
#
#
# Convention : Reuss Voigt Hill
#
# Bulk Modulus (GPa) = 61.91550 65.29947 63.60749
# Shear Modulus (GPa) = 33.19123 14.63276 23.91199
#
# Velocity S-wave (km/s) = 3.90100 2.59016 3.31110
# Velocity P-wave (km/s) = 6.97696 6.23573 6.61673
#
# Compressibility (1/GPa) = 0.01615105
#
# Stress axis : x y z
#
# Youngs Moduli (GPa) = 92.42018 57.79330 80.75862
#
# Poissons Ratio (x) = 0.25417 0.27450
# Poissons Ratio (y) = 0.40645 0.35376
# Poissons Ratio (z) = 0.31414 0.25316
#
# Static dielectric constant tensor:
#      x y z
#    x 1.800920 0.000000 -0.001060 
#    y 0.000000 1.820580 0.000000 
#    z -0.001060 0.000000 1.818140 
# 
# From -- ./inp_files/137521.got.cif
#   From: 2010.05.17/outbox.cif.g08.bks.cpg/sg15_69_cif.got.tgz:137521.got - 2010.06.03 18:47:42.
