data_PCOD9306842
_publ_section_title
;
Structure prediction by ZEFSAII (Michael W. Deem and Ramdas Pophale) SiO2 
 PCOD9306842
Probable space group: C 2/C
;
_chemical_formula_sum "Si O2"
_cell_formula_units_Z 44
_cell_length_a 23.548314
_cell_length_b 5.280910
_cell_length_c 13.754520
_cell_angle_alpha 90.000000
_cell_angle_beta 77.295602
_cell_angle_gamma 90.000000
_cell_volume 1668.588177
_symmetry_space_group_name_H-M "C 2/C"
_symmetry_group_IT_number 15
_symmetry_cell_setting 'monoclinic'
loop_
_space_group_symop_operation_xyz
x,y,z
-x,y,1/2-z
-x,-y,-z
x,-y,1/2+z
1/2+x,1/2+y,z
1/2-x,1/2+y,1/2-z
1/2-x,1/2-y,-z
1/2+x,1/2-y,1/2+z
loop_
_atom_site_type_symbol
_atom_site_label
_atom_site_fract_x
_atom_site_fract_y
_atom_site_fract_z
Si Si1 0.600086 0.557597 0.840195
Si Si2 0.000000 0.949271 0.750000
Si Si3 0.824847 0.548709 0.721515
Si Si4 0.956523 0.689411 0.961358
Si Si5 0.739453 0.433606 0.093222
Si Si6 0.667238 0.158852 0.565820
O O1 0.555548 0.599910 0.767574
O O2 0.631574 0.285444 0.818297
O O3 0.644269 0.790304 0.820569
O O4 0.564199 0.593405 0.954581
O O5 0.015767 0.787676 0.648936
O O6 0.764663 0.619223 0.689836
O O7 0.816184 0.518534 0.840650
O O8 0.895134 0.574580 0.948045
O O9 0.000000 0.500000 0.000000
O O10 0.676063 0.554010 0.102240
O O11 0.750000 0.250000 0.000000
O O12 0.788617 0.639468 0.040131
#
# Coordination Sequence:
#
# PCOD9306842 Si02
#       6
#     8   4   8   8   8   8
#     4  12  28  50  79 116 162 208 274 330 409 481
#     4  12  28  48  80 114 160 220 268 334 416 480
#     4  12  28  49  84 115 160 212 266 339 405 485
#     4  12  27  52  82 119 166 213 274 339 407 492
#     4  11  27  49  80 111 160 209 269 334 408 476
#     4  11  27  49  76 116 157 207 269 328 402 482
#
# _framework density 26.369599000000001
#
# number of rings (size 3 to 8) (size 9 to 14) (size 15 to 20)
#    0.000    0.364    3.636    2.727   10.182    2.182 
#    0.000    0.000    0.000    0.000    0.000    0.000 
#    0.000    0.000    0.000    0.000    0.000    0.000 
#
# Total GULP energy -123075.558116 kJ/mol
# GULP energy per Si atom -5594.343551 kJ/mol
# Density = 2.630958 g / cm^3
# Si number density = 26.369599 Si / 1000 Ang^3
#
#
#
# Elastic Constant Matrix: (Units=GPa)
#
#
# Indices 1 2 3 4 5 6 
#
# 1 169.4672 30.2119 49.6947 0.0000 48.9666 0.0000
# 2 30.2119 66.1042 13.9925 0.0000 6.4309 0.0000
# 3 49.6947 13.9925 184.7632 0.0000 14.1790 0.0000
# 4 0.0000 0.0000 0.0000 43.5442 0.0000 -0.7865
# 5 48.9666 6.4309 14.1790 0.0000 72.5646 0.0000
# 6 0.0000 0.0000 0.0000 -0.7865 0.0000 44.8888
#
#
#
# Elastic Compliance Matrix: (Units=1/GPa)
#
#
# Indices 1 2 3 4 5 6 
#
# 1 0.008379 -0.002990 -0.001638 0.000000 -0.005069 0.000000
# 2 -0.002990 0.016536 -0.000498 0.000000 0.000649 0.000000
# 3 -0.001638 -0.000498 0.005891 0.000000 -0.000001 0.000000
# 4 0.000000 0.000000 0.000000 0.022972 0.000000 0.000402
# 5 -0.005069 0.000649 -0.000001 0.000000 0.017144 0.000000
# 6 0.000000 0.000000 0.000000 0.000402 0.000000 0.022284
#
#
# Mechanical properties :
#
#
# Convention : Reuss Voigt Hill
#
# Bulk Modulus (GPa) = 48.65170 67.57030 58.11100
# Shear Modulus (GPa) = 45.32689 53.96189 49.64439
#
# Velocity S-wave (km/s) = 4.15047 4.52859 4.34364
# Velocity P-wave (km/s) = 6.43883 7.28176 6.87323
#
# Compressibility (1/GPa) = 0.02055427
#
# Stress axis : x y z
#
# Youngs Moduli (GPa) = 119.34802 60.47333 169.75674
#
# Poissons Ratio (x) = 0.18079 0.27810
# Poissons Ratio (y) = 0.35679 0.08455
# Poissons Ratio (z) = 0.19552 0.03012
#
# Static dielectric constant tensor:
#      x y z
#    x 2.169370 0.000000 0.001520 
#    y 0.000000 2.281540 0.000000 
#    z 0.001520 0.000000 2.171240 
# 
# From -- ./inp_files/170792.got.cif
#   From: 2010.05.17/outbox.cif.g08.bks.cpg/sg15_86_cif.got.tgz:170792.got - 2010.06.03 18:47:42.
