data_PCOD9306132
_publ_section_title
;
Structure prediction by ZEFSAII (Michael W. Deem and Ramdas Pophale) SiO2 
 PCOD9306132
Probable space group: C 2/C
;
_chemical_formula_sum "Si O2"
_cell_formula_units_Z 44
_cell_length_a 16.367419
_cell_length_b 4.795816
_cell_length_c 23.449202
_cell_angle_alpha 90.000000
_cell_angle_beta 68.315719
_cell_angle_gamma 90.000000
_cell_volume 1710.392806
_symmetry_space_group_name_H-M "C 2/C"
_symmetry_group_IT_number 15
_symmetry_cell_setting 'monoclinic'
loop_
_space_group_symop_operation_xyz
x,y,z
-x,y,1/2-z
-x,-y,-z
x,-y,1/2+z
1/2+x,1/2+y,z
1/2-x,1/2+y,1/2-z
1/2-x,1/2-y,-z
1/2+x,1/2-y,1/2+z
loop_
_atom_site_type_symbol
_atom_site_label
_atom_site_fract_x
_atom_site_fract_y
_atom_site_fract_z
Si Si1 0.168830 0.051103 0.009237
Si Si2 0.469606 0.829622 0.322670
Si Si3 0.451343 0.331115 0.138125
Si Si4 0.270826 0.345181 0.708681
Si Si5 0.701342 0.171652 0.107893
Si Si6 0.000000 0.000000 0.500000
O O1 0.164325 0.848962 0.064519
O O2 0.250000 0.250000 0.000000
O O3 0.201882 0.896699 0.943247
O O4 0.076869 0.180002 0.015974
O O5 0.500000 0.873125 0.250000
O O6 0.532439 0.018187 0.345941
O O7 0.369543 0.926331 0.362141
O O8 0.486529 0.512350 0.335730
O O9 0.356875 0.476234 0.170759
O O10 0.474725 0.349895 0.066100
O O11 0.213071 0.587039 0.753466
O O12 0.222827 0.218077 0.665342
#
# Coordination Sequence:
#
# PCOD9306132 Si02
#       6
#     8   8   8   8   8   4
#     4  11  25  47  75 107 150 202 255 326 379 463
#     4  12  26  47  74 107 152 196 253 319 382 462
#     4  12  26  47  73 110 145 199 254 312 392 462
#     4  12  27  47  74 107 150 199 248 315 380 462
#     4  11  25  45  69 109 146 193 260 306 385 455
#     4  12  24  50  74 112 156 196 264 322 394 458
#
# _framework density 25.725086000000001
#
# number of rings (size 3 to 8) (size 9 to 14) (size 15 to 20)
#    0.000    0.364    3.636    4.909    2.545    2.182 
#    0.000    0.000    0.000    0.000    0.000    0.000 
#    0.000    0.000    0.000    0.000    0.000    0.000 
#
# Total GULP energy -122586.561326 kJ/mol
# GULP energy per Si atom -5572.116424 kJ/mol
# Density = 2.566653 g / cm^3
# Si number density = 25.725086 Si / 1000 Ang^3
#
#
#
# Elastic Constant Matrix: (Units=GPa)
#
#
# Indices 1 2 3 4 5 6 
#
# 1 83.3561 -3.6251 5.6142 -0.0016 15.2756 -0.0010
# 2 -3.6251 56.4182 19.7758 0.0066 -3.7495 -0.0061
# 3 5.6142 19.7758 145.2139 -0.0063 21.1943 -0.0002
# 4 -0.0016 0.0066 -0.0063 18.7043 0.0002 -12.1172
# 5 15.2756 -3.7495 21.1943 0.0002 42.5847 0.0016
# 6 -0.0010 -0.0061 -0.0002 -12.1172 0.0016 33.2853
#
#
#
# Elastic Compliance Matrix: (Units=1/GPa)
#
#
# Indices 1 2 3 4 5 6 
#
# 1 0.012858 0.000479 0.000113 0.000002 -0.004626 0.000001
# 2 0.000479 0.019026 -0.003051 -0.000007 0.003022 0.000001
# 3 0.000113 -0.003051 0.007918 0.000005 -0.004250 0.000001
# 4 0.000002 -0.000007 0.000005 0.069963 -0.000005 0.025469
# 5 -0.004626 0.003022 -0.004250 -0.000005 0.027523 -0.000003
# 6 0.000001 0.000001 0.000001 0.025469 -0.000003 0.039315
#
#
# Mechanical properties :
#
#
# Convention : Reuss Voigt Hill
#
# Bulk Modulus (GPa) = 28.66638 36.50202 32.58420
# Shear Modulus (GPa) = 25.88690 36.46308 31.17499
#
# Velocity S-wave (km/s) = 3.17565 3.76894 3.48494
# Velocity P-wave (km/s) = 4.96124 5.75847 5.37465
#
# Compressibility (1/GPa) = 0.03488406
#
# Stress axis : x y z
#
# Youngs Moduli (GPa) = 77.77413 52.56068 126.29912
#
# Poissons Ratio (x) = -0.02518 -0.01425
# Poissons Ratio (y) = -0.03727 0.38528
# Poissons Ratio (z) = -0.00878 0.16034
#
# Static dielectric constant tensor:
#      x y z
#    x 1.992630 0.000000 -0.146560 
#    y 0.000000 2.023440 0.000000 
#    z -0.146560 0.000000 2.000200 
# 
# From -- ./inp_files/246401.got.cif
#   From: 2010.05.17/outbox.cif.g08.bks.cpg/sg15_124_cif.got.tgz:246401.got - 2010.06.03 18:47:42.
