data_PCOD9306446
_publ_section_title
;
Structure prediction by ZEFSAII (Michael W. Deem and Ramdas Pophale) SiO2 
 PCOD9306446
Probable space group: C 2/C
;
_chemical_formula_sum "Si O2"
_cell_formula_units_Z 64
_cell_length_a 11.672447
_cell_length_b 29.510299
_cell_length_c 7.719271
_cell_angle_alpha 90.000000
_cell_angle_beta 92.539594
_cell_angle_gamma 90.000000
_cell_volume 2656.348502
_symmetry_space_group_name_H-M "C 2/C"
_symmetry_group_IT_number 15
_symmetry_cell_setting 'monoclinic'
loop_
_space_group_symop_operation_xyz
x,y,z
-x,y,1/2-z
-x,-y,-z
x,-y,1/2+z
1/2+x,1/2+y,z
1/2-x,1/2+y,1/2-z
1/2-x,1/2-y,-z
1/2+x,1/2-y,1/2+z
loop_
_atom_site_type_symbol
_atom_site_label
_atom_site_fract_x
_atom_site_fract_y
_atom_site_fract_z
Si Si1 0.685086 0.199154 0.426058
Si Si2 0.380259 0.046897 0.841660
Si Si3 0.297005 0.043457 0.192526
Si Si4 0.886780 0.628545 0.356000
Si Si5 0.440588 0.267157 0.914143
Si Si6 0.554259 0.645971 0.572826
Si Si7 0.041731 0.050216 0.058926
Si Si8 0.188784 0.644325 0.789261
O O1 0.678029 0.163379 0.271756
O O2 0.572754 0.231372 0.429850
O O3 0.805298 0.222965 0.387712
O O4 0.689161 0.176242 0.619131
O O5 0.500000 0.043141 0.750000
O O6 0.325289 0.094391 0.788313
O O7 0.300592 0.005522 0.777750
O O8 0.393455 0.045064 0.049368
O O9 0.319190 0.080939 0.340342
O O10 0.179186 0.052124 0.081947
O O11 0.900578 0.645717 0.554258
O O12 0.000000 0.621920 0.250000
O O13 0.500000 0.245929 0.750000
O O14 0.505871 0.314623 0.946487
O O15 0.500000 0.659876 0.750000
O O16 0.510563 0.594589 0.537190
O O17 0.690184 0.648584 0.603641
O O18 0.000000 0.055612 0.250000
O O19 0.000000 0.000000 0.000000
#
# Coordination Sequence:
#
# PCOD9306446 Si02
#       8
#     8   8   8   8   8   8   8   8
#     4  11  26  50  71 111 145 188 245 308 361 448
#     4  12  24  41  68  98 146 194 245 303 364 427
#     4  12  23  43  64 103 148 189 248 301 355 446
#     4  12  26  44  71 103 145 190 247 298 371 432
#     4  11  25  48  77 103 147 189 239 301 375 429
#     4  12  23  44  71 104 140 187 238 293 365 436
#     4  12  24  41  68 102 143 186 235 295 358 425
#     4  12  25  46  73 105 143 192 244 304 368 441
#
# _framework density 24.093225
#
# number of rings (size 3 to 8) (size 9 to 14) (size 15 to 20)
#    0.000    0.250    2.500    7.500    1.750    0.500 
#    0.000    1.875    0.000    0.000    0.000    0.000 
#    0.000    0.000    0.000    0.000    0.000    0.000 
#
# Total GULP energy -178975.797661 kJ/mol
# GULP energy per Si atom -5592.993677 kJ/mol
# Density = 2.403839 g / cm^3
# Si number density = 24.093225 Si / 1000 Ang^3
#
#
#
# Elastic Constant Matrix: (Units=GPa)
#
#
# Indices 1 2 3 4 5 6 
#
# 1 49.5700 20.5216 9.1743 0.0000 -9.9715 0.0000
# 2 20.5216 126.7849 32.6143 0.0000 6.1727 0.0000
# 3 9.1743 32.6143 136.7153 0.0000 -26.0825 0.0000
# 4 0.0000 0.0000 0.0000 5.2587 0.0000 -11.6465
# 5 -9.9715 6.1727 -26.0825 0.0000 37.9753 0.0000
# 6 0.0000 0.0000 0.0000 -11.6465 0.0000 30.2553
#
#
#
# Elastic Compliance Matrix: (Units=1/GPa)
#
#
# Indices 1 2 3 4 5 6 
#
# 1 0.023314 -0.004367 0.000898 0.000000 0.007449 0.000000
# 2 -0.004367 0.009563 -0.002881 0.000000 -0.004680 0.000000
# 3 0.000898 -0.002881 0.009294 0.000000 0.007087 0.000000
# 4 0.000000 0.000000 0.000000 1.289519 0.000000 0.496388
# 5 0.007449 -0.004680 0.007087 0.000000 0.033917 0.000000
# 6 0.000000 0.000000 0.000000 0.496388 0.000000 0.224132
#
#
# Mechanical properties :
#
#
# Convention : Reuss Voigt Hill
#
# Bulk Modulus (GPa) = 33.93236 48.63228 41.28232
# Shear Modulus (GPa) = 3.10123 31.41517 17.25820
#
# Velocity S-wave (km/s) = 1.13577 3.61487 2.67930
# Velocity P-wave (km/s) = 3.97924 6.13612 5.17138
#
# Compressibility (1/GPa) = 0.02947039
#
# Stress axis : x y z
#
# Youngs Moduli (GPa) = 42.89333 104.56637 107.60053
#
# Poissons Ratio (x) = 0.45668 -0.09667
# Poissons Ratio (y) = 0.18733 0.31002
# Poissons Ratio (z) = -0.03854 0.30128
#
# Static dielectric constant tensor:
#      x y z
#    x 1.936360 0.000000 -0.025810 
#    y 0.000000 1.807490 0.000000 
#    z -0.025810 0.000000 1.926650 
# 
# From -- ./inp_files/35671.got.cif
#   From: 2010.05.17/outbox.cif.g08.bks.cpg/sg15_18_cif.got.tgz:35671.got - 2010.06.03 18:47:42.
