data_PCOD9306081
_publ_section_title
;
Structure prediction by ZEFSAII (Michael W. Deem and Ramdas Pophale) SiO2 
 PCOD9306081
Probable space group: C 2/C
;
_chemical_formula_sum "Si O2"
_cell_formula_units_Z 64
_cell_length_a 17.254013
_cell_length_b 11.555263
_cell_length_c 25.891629
_cell_angle_alpha 90.000000
_cell_angle_beta 33.240620
_cell_angle_gamma 90.000000
_cell_volume 2829.656708
_symmetry_space_group_name_H-M "C 2/C"
_symmetry_group_IT_number 15
_symmetry_cell_setting 'monoclinic'
loop_
_space_group_symop_operation_xyz
x,y,z
-x,y,1/2-z
-x,-y,-z
x,-y,1/2+z
1/2+x,1/2+y,z
1/2-x,1/2+y,1/2-z
1/2-x,1/2-y,-z
1/2+x,1/2-y,1/2+z
loop_
_atom_site_type_symbol
_atom_site_label
_atom_site_fract_x
_atom_site_fract_y
_atom_site_fract_z
Si Si1 0.015722 0.414902 0.592521
Si Si2 0.957219 0.988530 0.214558
Si Si3 0.375215 0.290237 0.531763
Si Si4 0.412074 0.257897 0.746362
Si Si5 0.793310 0.975507 0.501497
Si Si6 0.012502 0.328795 0.399554
Si Si7 0.646383 0.661580 0.943457
Si Si8 0.690251 0.751334 0.727602
O O1 0.072638 0.337437 0.513337
O O2 0.143009 0.454085 0.559333
O O3 0.958382 0.537781 0.605638
O O4 0.905898 0.339768 0.687104
O O5 0.098266 0.012527 0.103179
O O6 0.000000 0.968039 0.250000
O O7 0.881405 0.874523 0.235636
O O8 0.872313 0.108649 0.257515
O O9 0.344187 0.353621 0.495934
O O10 0.501412 0.354789 0.492136
O O11 0.234497 0.289309 0.645028
O O12 0.500000 0.258729 0.750000
O O13 0.508061 0.200593 0.648865
O O14 0.728638 0.184234 0.666240
O O15 0.808921 0.063106 0.540938
O O16 0.156603 0.260663 0.331711
O O17 0.887765 0.276035 0.503458
#
# Coordination Sequence:
#
# PCOD9306081 Si02
#       8
#     8   8   8   8   8   8   8   8
#     4  12  27  45  74 104 143 193 240 305 359 444
#     4  11  25  44  73 101 140 190 237 299 356 433
#     4  11  26  46  70 106 143 192 239 301 368 435
#     4  11  25  44  70 104 140 187 239 299 360 429
#     4  12  25  47  73 104 148 189 241 299 373 432
#     4  11  27  46  72 104 143 188 244 298 367 431
#     4  11  26  46  73 102 147 190 243 300 364 436
#     4  11  27  44  71 101 145 185 241 298 361 434
#
# _framework density 22.617584999999998
#
# number of rings (size 3 to 8) (size 9 to 14) (size 15 to 20)
#    0.000    0.750    2.500    3.000   12.250    2.000 
#    0.000    0.000    0.000    0.000    0.000    0.000 
#    0.000    0.000    0.000    0.000    0.000    0.000 
#
# Total GULP energy -179063.565961 kJ/mol
# GULP energy per Si atom -5595.736436 kJ/mol
# Density = 2.256611 g / cm^3
# Si number density = 22.617585 Si / 1000 Ang^3
#
#
#
# Elastic Constant Matrix: (Units=GPa)
#
#
# Indices 1 2 3 4 5 6 
#
# 1 52.7545 -5.9956 -2.8066 -0.0001 -0.2552 0.0000
# 2 -5.9956 58.0700 -13.3611 0.0000 -1.3334 0.0000
# 3 -2.8066 -13.3611 50.4803 -0.0003 2.6007 0.0001
# 4 -0.0001 0.0000 -0.0003 26.1293 0.0000 5.8558
# 5 -0.2552 -1.3334 2.6007 0.0000 38.4165 0.0000
# 6 0.0000 0.0000 0.0001 5.8558 0.0000 34.3374
#
#
#
# Elastic Compliance Matrix: (Units=1/GPa)
#
#
# Indices 1 2 3 4 5 6 
#
# 1 0.019318 0.002388 0.001701 0.000000 0.000096 0.000000
# 2 0.002388 0.018636 0.005049 0.000000 0.000321 0.000000
# 3 0.001701 0.005049 0.021305 0.000000 -0.001256 0.000000
# 4 0.000000 0.000000 0.000000 0.039792 0.000000 -0.006786
# 5 0.000096 0.000321 -0.001256 0.000000 0.026127 0.000000
# 6 0.000000 0.000000 0.000000 -0.006786 0.000000 0.030280
#
#
# Mechanical properties :
#
#
# Convention : Reuss Voigt Hill
#
# Bulk Modulus (GPa) = 12.89721 12.99758 12.94739
# Shear Modulus (GPa) = 30.66961 32.00785 31.33873
#
# Velocity S-wave (km/s) = 3.68640 3.76596 3.72639
# Velocity P-wave (km/s) = 4.88201 4.96680 4.92459
#
# Compressibility (1/GPa) = 0.07753615
#
# Stress axis : x y z
#
# Youngs Moduli (GPa) = 51.76485 53.65892 46.93663
#
# Poissons Ratio (x) = -0.12815 -0.07985
# Poissons Ratio (y) = -0.12362 -0.23698
# Poissons Ratio (z) = -0.08806 -0.27092
#
# Static dielectric constant tensor:
#      x y z
#    x 1.868390 0.000000 0.019630 
#    y 0.000000 1.833640 0.000000 
#    z 0.019630 0.000000 1.821240 
# 
# From -- ./inp_files/316169.got.cif
#   From: 2010.05.17/outbox.cif.g08.bks.cpg/sg15_159_cif.got.tgz:316169.got - 2010.06.03 18:47:42.
