data_PCOD9306839
_publ_section_title
;
Structure prediction by ZEFSAII (Michael W. Deem and Ramdas Pophale) SiO2 
 PCOD9306839
Probable space group: C 2/C
;
_chemical_formula_sum "Si O2"
_cell_formula_units_Z 44
_cell_length_a 28.109556
_cell_length_b 9.224433
_cell_length_c 8.291705
_cell_angle_alpha 90.000000
_cell_angle_beta 55.404350
_cell_angle_gamma 90.000000
_cell_volume 1769.832003
_symmetry_space_group_name_H-M "C 2/C"
_symmetry_group_IT_number 15
_symmetry_cell_setting 'monoclinic'
loop_
_space_group_symop_operation_xyz
x,y,z
-x,y,1/2-z
-x,-y,-z
x,-y,1/2+z
1/2+x,1/2+y,z
1/2-x,1/2+y,1/2-z
1/2-x,1/2-y,-z
1/2+x,1/2-y,1/2+z
loop_
_atom_site_type_symbol
_atom_site_label
_atom_site_fract_x
_atom_site_fract_y
_atom_site_fract_z
Si Si1 0.777530 0.947773 0.543088
Si Si2 0.590076 0.779569 0.226651
Si Si3 0.203483 0.206316 0.831191
Si Si4 0.600659 0.341360 0.056823
Si Si5 0.044748 0.585277 0.299681
Si Si6 0.000000 0.076870 0.250000
O O1 0.784012 0.891851 0.349806
O O2 0.729201 0.859001 0.730997
O O3 0.839064 0.910060 0.506916
O O4 0.766212 0.117395 0.583548
O O5 0.607144 0.751173 0.379443
O O6 0.530029 0.690597 0.315972
O O7 0.585504 0.948448 0.187726
O O8 0.637864 0.719647 0.013548
O O9 0.581607 0.232110 0.239518
O O10 0.552768 0.465675 0.113735
O O11 0.000000 0.632914 0.250000
O O12 0.000000 0.500000 0.500000
#
# Coordination Sequence:
#
# PCOD9306839 Si02
#       6
#     8   8   8   8   8   4
#     4  11  27  49  73 104 139 183 238 296 357 420
#     4  12  26  43  72 103 143 188 233 293 353 425
#     4  11  27  49  73 105 139 184 237 295 356 421
#     4  12  26  45  71 104 143 187 236 292 353 424
#     4  12  25  45  65  99 142 186 231 280 344 416
#     4  12  24  42  72 108 144 184 230 292 352 428
#
# _framework density 24.861117
#
# number of rings (size 3 to 8) (size 9 to 14) (size 15 to 20)
#    0.000    0.364    5.455    1.636    5.091    4.364 
#    0.000    0.000    0.000    0.000    0.000    0.000 
#    0.000    0.000    0.000    0.000    0.000    0.000 
#
# Total GULP energy -122899.009212 kJ/mol
# GULP energy per Si atom -5586.318601 kJ/mol
# Density = 2.480453 g / cm^3
# Si number density = 24.861117 Si / 1000 Ang^3
#
#
#
# Elastic Constant Matrix: (Units=GPa)
#
#
# Indices 1 2 3 4 5 6 
#
# 1 37.1914 11.0148 16.1731 0.0000 1.4517 0.0000
# 2 11.0148 129.8698 34.2460 0.0000 -11.5723 0.0000
# 3 16.1731 34.2460 99.3083 0.0000 -18.7643 0.0000
# 4 0.0000 0.0000 0.0000 15.8984 0.0000 -4.9923
# 5 1.4517 -11.5723 -18.7643 0.0000 15.3508 0.0000
# 6 0.0000 0.0000 0.0000 -4.9923 0.0000 34.0306
#
#
#
# Elastic Compliance Matrix: (Units=1/GPa)
#
#
# Indices 1 2 3 4 5 6 
#
# 1 0.030897 -0.001970 -0.006743 0.000000 -0.012649 0.000000
# 2 -0.001970 0.008757 -0.001842 0.000000 0.004536 0.000000
# 3 -0.006743 -0.001842 0.015163 0.000000 0.017784 0.000000
# 4 0.000000 0.000000 0.000000 0.065937 0.000000 0.009673
# 5 -0.012649 0.004536 0.017784 0.000000 0.091498 0.000000
# 6 0.000000 0.000000 0.000000 0.009673 0.000000 0.030804
#
#
# Mechanical properties :
#
#
# Convention : Reuss Voigt Hill
#
# Bulk Modulus (GPa) = 29.66562 43.24862 36.45712
# Shear Modulus (GPa) = 18.15537 26.71834 22.43686
#
# Velocity S-wave (km/s) = 2.70529 3.28182 3.00740
# Velocity P-wave (km/s) = 4.66010 5.63865 5.17257
#
# Compressibility (1/GPa) = 0.03370905
#
# Stress axis : x y z
#
# Youngs Moduli (GPa) = 32.36554 114.19453 65.94916
#
# Poissons Ratio (x) = 0.22492 0.44467
# Poissons Ratio (y) = 0.06375 0.12147
# Poissons Ratio (z) = 0.21823 0.21034
#
# Static dielectric constant tensor:
#      x y z
#    x 1.959180 0.000000 0.020590 
#    y 0.000000 2.080420 0.000000 
#    z 0.020590 0.000000 2.045700 
# 
# From -- ./inp_files/68502.got.cif
#   From: 2010.05.17/outbox.cif.g08.bks.cpg/sg15_35_cif.got.tgz:68502.got - 2010.06.03 18:47:42.
