data_PCOD9306499
_publ_section_title
;
Structure prediction by ZEFSAII (Michael W. Deem and Ramdas Pophale) SiO2 
 PCOD9306499
Probable space group: C 2/C
;
_chemical_formula_sum "Si O2"
_cell_formula_units_Z 24
_cell_length_a 13.642952
_cell_length_b 15.986217
_cell_length_c 8.791763
_cell_angle_alpha 90.000000
_cell_angle_beta 28.339160
_cell_angle_gamma 90.000000
_cell_volume 910.206640
_symmetry_space_group_name_H-M "C 2/C"
_symmetry_group_IT_number 15
_symmetry_cell_setting 'monoclinic'
loop_
_space_group_symop_operation_xyz
x,y,z
-x,y,1/2-z
-x,-y,-z
x,-y,1/2+z
1/2+x,1/2+y,z
1/2-x,1/2+y,1/2-z
1/2-x,1/2-y,-z
1/2+x,1/2-y,1/2+z
loop_
_atom_site_type_symbol
_atom_site_label
_atom_site_fract_x
_atom_site_fract_y
_atom_site_fract_z
Si Si1 0.559286 0.625604 0.871980
Si Si2 0.152487 0.290476 0.281152
Si Si3 0.831560 0.572469 0.213812
O O1 0.687925 0.650572 0.845633
O O2 0.718786 0.593079 0.527710
O O3 0.451553 0.715486 0.980910
O O4 0.358798 0.564746 0.144066
O O5 0.966026 0.348433 0.484294
O O6 0.250000 0.250000 0.000000
O O7 0.000000 0.500000 0.000000
#
# Coordination Sequence:
#
# PCOD9306499 Si02
#       3
#     8   8   8
#     4  11  25  49  84 113 159 216 277 338 414 493
#     4  12  25  48  82 118 157 211 284 342 411 501
#     4  11  27  50  76 119 166 215 271 342 423 493
#
# _framework density 26.367639
#
# number of rings (size 3 to 8) (size 9 to 14) (size 15 to 20)
#    0.000    0.667    3.333    3.000    4.667    1.333 
#   24.000    0.000    0.000    0.000    0.000    0.000 
#    0.000    0.000    0.000    0.000    0.000    0.000 
#
# Total GULP energy -67236.434795 kJ/mol
# GULP energy per Si atom -5603.036233 kJ/mol
# Density = 2.630763 g / cm^3
# Si number density = 26.367639 Si / 1000 Ang^3
#
#
#
# Elastic Constant Matrix: (Units=GPa)
#
#
# Indices 1 2 3 4 5 6 
#
# 1 215.2112 51.5405 101.1746 -0.0036 -41.8477 0.0039
# 2 51.5405 123.0388 102.8515 0.0000 -16.2352 0.0004
# 3 101.1746 102.8515 228.7326 -0.0127 -21.3669 0.0072
# 4 -0.0036 0.0000 -0.0127 68.9262 0.0063 -23.7852
# 5 -41.8477 -16.2352 -21.3669 0.0063 58.7814 -0.0045
# 6 0.0039 0.0004 0.0072 -23.7852 -0.0045 55.5432
#
#
#
# Elastic Compliance Matrix: (Units=1/GPa)
#
#
# Indices 1 2 3 4 5 6 
#
# 1 0.006583 -0.000196 -0.002475 0.000000 0.003733 0.000000
# 2 -0.000196 0.013161 -0.005698 -0.000001 0.001424 0.000000
# 3 -0.002475 -0.005698 0.007988 0.000001 -0.000432 0.000000
# 4 0.000000 -0.000001 0.000001 0.017024 -0.000001 0.007290
# 5 0.003733 0.001424 -0.000432 -0.000001 0.019906 0.000001
# 6 0.000000 0.000000 0.000000 0.007290 0.000001 0.021126
#
#
# Mechanical properties :
#
#
# Convention : Reuss Voigt Hill
#
# Bulk Modulus (GPa) = 90.95973 119.79064 105.37518
# Shear Modulus (GPa) = 47.08514 57.41124 52.24819
#
# Velocity S-wave (km/s) = 4.23036 4.67126 4.45626
# Velocity P-wave (km/s) = 7.64414 8.63850 8.15649
#
# Compressibility (1/GPa) = 0.01099388
#
# Stress axis : x y z
#
# Youngs Moduli (GPa) = 151.90885 75.98353 125.18080
#
# Poissons Ratio (x) = 0.01491 0.30981
# Poissons Ratio (y) = 0.02980 0.71328
# Poissons Ratio (z) = 0.37596 0.43296
#
# Static dielectric constant tensor:
#      x y z
#    x 2.113540 0.000000 -0.015900 
#    y 0.000000 2.182170 0.000000 
#    z -0.015900 0.000000 2.010580 
# 
# From -- ./inp_files/38849.got.cif
#   From: 2010.05.17/outbox.cif.g08.bks.cpg/sg15_20_cif.got.tgz:38849.got - 2010.06.03 18:47:42.
