data_PCOD9306064
_publ_section_title
;
Structure prediction by ZEFSAII (Michael W. Deem and Ramdas Pophale) SiO2 
 PCOD9306064
Probable space group: C 2/C
;
_chemical_formula_sum "Si O2"
_cell_formula_units_Z 20
_cell_length_a 5.338012
_cell_length_b 29.424402
_cell_length_c 5.314159
_cell_angle_alpha 90.000000
_cell_angle_beta 85.297118
_cell_angle_gamma 90.000000
_cell_volume 831.873163
_symmetry_space_group_name_H-M "C 2/C"
_symmetry_group_IT_number 15
_symmetry_cell_setting 'monoclinic'
loop_
_space_group_symop_operation_xyz
x,y,z
-x,y,1/2-z
-x,-y,-z
x,-y,1/2+z
1/2+x,1/2+y,z
1/2-x,1/2+y,1/2-z
1/2-x,1/2-y,-z
1/2+x,1/2-y,1/2+z
loop_
_atom_site_type_symbol
_atom_site_label
_atom_site_fract_x
_atom_site_fract_y
_atom_site_fract_z
Si Si1 0.268616 0.398966 0.083559
Si Si2 0.500000 0.531312 0.250000
Si Si3 0.340419 0.198234 0.012022
O O1 0.500000 0.410512 0.250000
O O2 0.324757 0.347116 0.990551
O O3 0.000000 0.402572 0.250000
O O4 0.280078 0.433045 0.845234
O O5 0.500000 0.500000 0.500000
O O6 0.500000 0.193420 0.750000
O O7 0.500000 0.194524 0.250000
O O8 0.250000 0.250000 0.000000
#
# Coordination Sequence:
#
# PCOD9306064 Si02
#       3
#     8   4   8
#     4  11  28  51  80 115 159 204 262 323 389 464
#     4  12  28  52  82 114 154 208 262 328 392 456
#     4  11  25  43  74 113 156 204 253 312 383 461
#
# _framework density 24.042126
#
# number of rings (size 3 to 8) (size 9 to 14) (size 15 to 20)
#    0.000    0.800    2.000    2.400   14.000    1.600 
#    0.000    0.000    0.000    0.000    0.000    0.000 
#    0.000    0.000    0.000    0.000    0.000    0.000 
#
# Total GULP energy -55780.046980 kJ/mol
# GULP energy per Si atom -5578.004698 kJ/mol
# Density = 2.398740 g / cm^3
# Si number density = 24.042126 Si / 1000 Ang^3
#
#
#
# Elastic Constant Matrix: (Units=GPa)
#
#
# Indices 1 2 3 4 5 6 
#
# 1 114.7809 29.9734 61.4605 0.0000 -12.9742 0.0000
# 2 29.9734 233.9577 70.0398 0.0000 -14.4350 0.0000
# 3 61.4605 70.0398 203.6184 0.0000 -13.5848 0.0000
# 4 0.0000 0.0000 0.0000 30.2383 0.0000 -34.6210
# 5 -12.9742 -14.4350 -13.5848 0.0000 60.1157 0.0000
# 6 0.0000 0.0000 0.0000 -34.6210 0.0000 9.3591
#
#
#
# Elastic Compliance Matrix: (Units=1/GPa)
#
#
# Indices 1 2 3 4 5 6 
#
# 1 0.010566 -0.000374 -0.002959 0.000000 0.001522 0.000000
# 2 -0.000374 0.004815 -0.001494 0.000000 0.000738 0.000000
# 3 -0.002959 -0.001494 0.006347 0.000000 0.000437 0.000000
# 4 0.000000 0.000000 0.000000 -0.010222 0.000000 -0.037812
# 5 0.001522 0.000738 0.000437 0.000000 0.017239 0.000000
# 6 0.000000 0.000000 0.000000 -0.037812 0.000000 -0.033025
#
#
# Mechanical properties :
#
#
# Convention : Reuss Voigt Hill
#
# Bulk Modulus (GPa) = 82.82025 97.25603 90.03814
# Shear Modulus (GPa) = 531.90252 46.00152 288.95202
#
# Velocity S-wave (km/s) = 14.89020 4.37896 10.97482
# Velocity P-wave (km/s) = 18.16994 8.13063 14.07576
#
# Compressibility (1/GPa) = 0.01207434
#
# Stress axis : x y z
#
# Youngs Moduli (GPa) = 94.63886 207.68390 157.54287
#
# Poissons Ratio (x) = 0.07765 0.46621
# Poissons Ratio (y) = 0.03539 0.23539
# Poissons Ratio (z) = 0.28006 0.31031
#
# Static dielectric constant tensor:
#      x y z
#    x 1.953550 0.000000 0.000550 
#    y 0.000000 2.130680 0.000000 
#    z 0.000550 0.000000 1.898650 
# 
# From -- ./inp_files/538.got.cif
#   From: 2010.05.17/outbox.cif.g08.bks.cpg/sg15_1_cif.got.tgz:538.got - 2010.06.03 18:47:42.
