data_PCOD9306761
_publ_section_title
;
Structure prediction by ZEFSAII (Michael W. Deem and Ramdas Pophale) SiO2 
 PCOD9306761
Probable space group: C 2/C
;
_chemical_formula_sum "Si O2"
_cell_formula_units_Z 56
_cell_length_a 14.525162
_cell_length_b 26.995875
_cell_length_c 12.052576
_cell_angle_alpha 90.000000
_cell_angle_beta 30.162416
_cell_angle_gamma 90.000000
_cell_volume 2374.617332
_symmetry_space_group_name_H-M "C 2/C"
_symmetry_group_IT_number 15
_symmetry_cell_setting 'monoclinic'
loop_
_space_group_symop_operation_xyz
x,y,z
-x,y,1/2-z
-x,-y,-z
x,-y,1/2+z
1/2+x,1/2+y,z
1/2-x,1/2+y,1/2-z
1/2-x,1/2-y,-z
1/2+x,1/2-y,1/2+z
loop_
_atom_site_type_symbol
_atom_site_label
_atom_site_fract_x
_atom_site_fract_y
_atom_site_fract_z
Si Si1 0.000000 0.062159 0.750000
Si Si2 0.296494 0.060452 0.261215
Si Si3 0.309349 0.351931 0.778090
Si Si4 0.734323 0.645834 0.769995
Si Si5 0.206141 0.539407 0.868452
Si Si6 0.140985 0.210687 0.686126
Si Si7 0.975335 0.272861 0.481467
Si Si8 0.500000 0.698362 0.250000
O O1 0.846661 0.038667 0.825314
O O2 0.144700 0.081064 0.505285
O O3 0.295730 0.100669 0.161220
O O4 0.249409 0.008704 0.250860
O O5 0.488948 0.046489 0.120373
O O6 0.520916 0.353413 0.522404
O O7 0.334245 0.337879 0.882576
O O8 0.207205 0.305390 0.832051
O O9 0.774356 0.588310 0.728150
O O10 0.754246 0.666916 0.623839
O O11 0.862982 0.686517 0.694577
O O12 0.250000 0.250000 0.500000
O O13 0.000000 0.185976 0.750000
O O14 0.041174 0.241814 0.887686
O O15 0.974382 0.236414 0.378080
#
# Coordination Sequence:
#
# PCOD9306761 Si02
#       8
#     4   8   8   8   8   8   8   4
#     4  12  24  45  82 114 144 200 254 313 392 456
#     4  11  26  52  76 113 157 201 253 328 388 475
#     4  12  26  46  74 110 145 197 258 313 387 457
#     4  12  25  45  73 108 145 200 253 308 385 457
#     4  11  26  50  78 109 157 199 255 318 391 467
#     4  12  24  43  67 101 147 192 240 307 370 454
#     4  12  26  49  69 107 153 197 260 316 383 462
#     4  12  28  49  80 106 154 210 264 335 386 462
#
# _framework density 23.582747999999999
#
# number of rings (size 3 to 8) (size 9 to 14) (size 15 to 20)
#    0.000    0.286    5.714    3.000    3.000    1.714 
#    2.571    0.000    0.000    0.000    0.000    0.000 
#    0.000    0.000    0.000    0.000    0.000    0.000 
#
# Total GULP energy -156094.260113 kJ/mol
# GULP energy per Si atom -5574.795004 kJ/mol
# Density = 2.352907 g / cm^3
# Si number density = 23.582748 Si / 1000 Ang^3
#
#
#
# Elastic Constant Matrix: (Units=GPa)
#
#
# Indices 1 2 3 4 5 6 
#
# 1 153.7769 43.5811 40.4387 0.0001 -9.9540 0.0002
# 2 43.5811 144.6838 20.9688 0.0001 13.7895 0.0001
# 3 40.4387 20.9688 99.5368 0.0001 -0.6936 0.0005
# 4 0.0001 0.0001 0.0001 15.7850 0.0000 -5.7418
# 5 -9.9540 13.7895 -0.6936 0.0000 40.2594 -0.0002
# 6 0.0002 0.0001 0.0005 -5.7418 -0.0002 16.6922
#
#
#
# Elastic Compliance Matrix: (Units=1/GPa)
#
#
# Indices 1 2 3 4 5 6 
#
# 1 0.008056 -0.002285 -0.002773 0.000000 0.002727 0.000000
# 2 -0.002285 0.008031 -0.000787 0.000000 -0.003329 0.000000
# 3 -0.002773 -0.000787 0.011337 0.000000 -0.000221 0.000000
# 4 0.000000 0.000000 0.000000 0.072412 0.000000 0.024908
# 5 0.002727 -0.003329 -0.000221 0.000000 0.026650 0.000000
# 6 0.000000 0.000000 0.000000 0.024908 0.000000 0.068476
#
#
# Mechanical properties :
#
#
# Convention : Reuss Voigt Hill
#
# Bulk Modulus (GPa) = 63.54832 67.55273 65.55053
# Shear Modulus (GPa) = 23.59651 34.08124 28.83888
#
# Velocity S-wave (km/s) = 3.16663 3.80567 3.50076
# Velocity P-wave (km/s) = 6.35417 6.92950 6.64807
#
# Compressibility (1/GPa) = 0.01573606
#
# Stress axis : x y z
#
# Youngs Moduli (GPa) = 124.13093 124.51538 88.20527
#
# Poissons Ratio (x) = 0.28447 0.24456
# Poissons Ratio (y) = 0.28359 0.06941
# Poissons Ratio (z) = 0.34417 0.09798
#
# Static dielectric constant tensor:
#      x y z
#    x 2.005030 0.000000 -0.012030 
#    y 0.000000 1.999300 0.000000 
#    z -0.012030 0.000000 2.012460 
# 
# From -- ./inp_files/101791.got.cif
#   From: 2010.05.17/outbox.cif.g08.bks.cpg/sg15_51_cif.got.tgz:101791.got - 2010.06.03 18:47:42.
