data_PCOD9306095
_publ_section_title
;
Structure prediction by ZEFSAII (Michael W. Deem and Ramdas Pophale) SiO2 
 PCOD9306095
Probable space group: C 2/C
;
_chemical_formula_sum "Si O2"
_cell_formula_units_Z 40
_cell_length_a 19.805562
_cell_length_b 11.998218
_cell_length_c 11.332288
_cell_angle_alpha 90.000000
_cell_angle_beta 139.184892
_cell_angle_gamma 90.000000
_cell_volume 1760.139059
_symmetry_space_group_name_H-M "C 2/C"
_symmetry_group_IT_number 15
_symmetry_cell_setting 'monoclinic'
loop_
_space_group_symop_operation_xyz
x,y,z
-x,y,1/2-z
-x,-y,-z
x,-y,1/2+z
1/2+x,1/2+y,z
1/2-x,1/2+y,1/2-z
1/2-x,1/2-y,-z
1/2+x,1/2-y,1/2+z
loop_
_atom_site_type_symbol
_atom_site_label
_atom_site_fract_x
_atom_site_fract_y
_atom_site_fract_z
Si Si1 0.973820 0.334779 0.463531
Si Si2 0.849860 0.297852 0.066898
Si Si3 0.127791 0.914480 0.068549
Si Si4 0.519325 0.615846 0.642815
Si Si5 0.663665 0.969720 0.649250
O O1 0.932454 0.335632 0.274433
O O2 0.961004 0.209001 0.488817
O O3 0.903867 0.418363 0.446307
O O4 0.089977 0.384389 0.624478
O O5 0.750000 0.250000 0.000000
O O6 0.880492 0.197376 0.018507
O O7 0.820759 0.405041 0.951635
O O8 0.125877 0.890861 0.208049
O O9 0.226115 0.987695 0.159843
O O10 0.029404 0.993274 0.920778
O O11 0.500000 0.656158 0.750000
#
# Coordination Sequence:
#
# PCOD9306095 Si02
#       5
#     8   8   8   8   8
#     4  11  25  47  74 108 145 187 247 298 366 439
#     4  12  24  46  78 105 145 195 240 298 365 443
#     4  11  26  46  72 105 143 190 248 297 369 436
#     4  11  27  45  71 102 144 189 246 308 363 430
#     4  11  25  44  72 107 141 190 239 299 357 436
#
# _framework density 22.725477999999999
#
# number of rings (size 3 to 8) (size 9 to 14) (size 15 to 20)
#    0.000    0.800    4.000    1.800    8.400    3.200 
#    0.000    2.000    0.000    0.000    0.000    0.000 
#    0.000    0.000    0.000    0.000    0.000    0.000 
#
# Total GULP energy -111611.401213 kJ/mol
# GULP energy per Si atom -5580.570061 kJ/mol
# Density = 2.267375 g / cm^3
# Si number density = 22.725478 Si / 1000 Ang^3
#
#
#
# Elastic Constant Matrix: (Units=GPa)
#
#
# Indices 1 2 3 4 5 6 
#
# 1 122.2166 34.3692 16.1816 0.0000 1.6635 0.0000
# 2 34.3692 152.5282 22.8516 0.0000 -6.1489 0.0000
# 3 16.1816 22.8516 36.5695 0.0000 -4.9516 0.0000
# 4 0.0000 0.0000 0.0000 30.1882 0.0000 0.6931
# 5 1.6635 -6.1489 -4.9516 0.0000 32.1647 0.0000
# 6 0.0000 0.0000 0.0000 0.6931 0.0000 58.1339
#
#
#
# Elastic Compliance Matrix: (Units=1/GPa)
#
#
# Indices 1 2 3 4 5 6 
#
# 1 0.009076 -0.001620 -0.003175 0.000000 -0.001268 0.000000
# 2 -0.001620 0.007538 -0.003868 0.000000 0.000929 0.000000
# 3 -0.003175 -0.003868 0.031751 0.000000 0.004313 0.000000
# 4 0.000000 0.000000 0.000000 0.033135 0.000000 -0.000395
# 5 -0.001268 0.000929 0.004313 0.000000 0.031997 0.000000
# 6 0.000000 0.000000 0.000000 -0.000395 0.000000 0.017206
#
#
# Mechanical properties :
#
#
# Convention : Reuss Voigt Hill
#
# Bulk Modulus (GPa) = 32.21791 50.90213 41.56002
# Shear Modulus (GPa) = 31.57069 39.95818 35.76444
#
# Velocity S-wave (km/s) = 3.73127 4.19776 3.97137
# Velocity P-wave (km/s) = 5.72459 6.77807 6.27348
#
# Compressibility (1/GPa) = 0.03103864
#
# Stress axis : x y z
#
# Youngs Moduli (GPa) = 110.18674 132.65751 31.49524
#
# Poissons Ratio (x) = 0.21496 0.09999
# Poissons Ratio (y) = 0.17855 0.12181
# Poissons Ratio (z) = 0.34983 0.51307
#
# Static dielectric constant tensor:
#      x y z
#    x 1.973080 0.000000 -0.011050 
#    y 0.000000 1.802990 0.000000 
#    z -0.011050 0.000000 1.855780 
# 
# From -- ./inp_files/111852.got.cif
#   From: 2010.05.17/outbox.cif.g08.bks.cpg/sg15_56_cif.got.tgz:111852.got - 2010.06.03 18:47:42.
