data_PCOD9306556
_publ_section_title
;
Structure prediction by ZEFSAII (Michael W. Deem and Ramdas Pophale) SiO2 
 PCOD9306556
Probable space group: C 2/C
;
_chemical_formula_sum "Si O2"
_cell_formula_units_Z 48
_cell_length_a 18.220667
_cell_length_b 5.140204
_cell_length_c 22.490481
_cell_angle_alpha 90.000000
_cell_angle_beta 77.413491
_cell_angle_gamma 90.000000
_cell_volume 2055.791152
_symmetry_space_group_name_H-M "C 2/C"
_symmetry_group_IT_number 15
_symmetry_cell_setting 'monoclinic'
loop_
_space_group_symop_operation_xyz
x,y,z
-x,y,1/2-z
-x,-y,-z
x,-y,1/2+z
1/2+x,1/2+y,z
1/2-x,1/2+y,1/2-z
1/2-x,1/2-y,-z
1/2+x,1/2-y,1/2+z
loop_
_atom_site_type_symbol
_atom_site_label
_atom_site_fract_x
_atom_site_fract_y
_atom_site_fract_z
Si Si1 0.794536 0.180845 0.583443
Si Si2 0.342632 0.999286 0.458947
Si Si3 0.287368 0.790498 0.717629
Si Si4 0.499864 0.913057 0.384758
Si Si5 0.043324 0.090826 0.804596
Si Si6 0.925447 0.158369 0.027914
O O1 0.724624 0.000454 0.575913
O O2 0.811391 0.366294 0.524504
O O3 0.780139 0.322676 0.647769
O O4 0.868310 0.006236 0.577492
O O5 0.413767 0.854772 0.417405
O O6 0.379332 0.262969 0.477473
O O7 0.230334 0.564089 0.748415
O O8 0.370291 0.680456 0.717631
O O9 0.532572 0.690975 0.336263
O O10 0.547518 0.901623 0.437379
O O11 0.506297 0.190991 0.353284
O O12 0.000000 0.091547 0.750000
O O13 0.000000 0.000000 0.000000
#
# Coordination Sequence:
#
# PCOD9306556 Si02
#       6
#     8   8   8   8   8   8
#     4  11  26  47  71 108 151 190 246 300 377 442
#     4  11  26  43  75 111 151 188 236 311 380 445
#     4  12  29  51  74 105 146 201 249 302 363 434
#     4  12  25  46  77 109 146 188 246 307 370 442
#     4  12  28  49  76 105 145 196 254 306 358 434
#     4  12  23  45  72 109 145 193 238 298 381 450
#
# _framework density 23.348673000000002
#
# number of rings (size 3 to 8) (size 9 to 14) (size 15 to 20)
#    0.000    0.333    3.333    4.500    7.000    0.000 
#    0.000    0.000    0.000    0.000    0.000    0.000 
#    0.000    0.000    0.000    0.000    0.000    0.000 
#
# Total GULP energy -134484.209462 kJ/mol
# GULP energy per Si atom -5603.508728 kJ/mol
# Density = 2.329553 g / cm^3
# Si number density = 23.348673 Si / 1000 Ang^3
#
#
#
# Elastic Constant Matrix: (Units=GPa)
#
#
# Indices 1 2 3 4 5 6 
#
# 1 109.4134 -1.9946 24.8443 -0.0002 -1.2163 -0.0002
# 2 -1.9946 53.9158 -4.4292 -0.0001 -8.6494 -0.0001
# 3 24.8443 -4.4292 73.3023 0.0001 -5.5717 0.0001
# 4 -0.0002 -0.0001 0.0001 -39.7298 0.0001 -59.8432
# 5 -1.2163 -8.6494 -5.5717 0.0001 33.5843 0.0001
# 6 -0.0002 -0.0001 0.0001 -59.8432 0.0001 -7.2434
#
#
#
# Elastic Compliance Matrix: (Units=1/GPa)
#
#
# Indices 1 2 3 4 5 6 
#
# 1 0.009903 0.000060 -0.003367 0.000000 -0.000184 0.000000
# 2 0.000060 0.019527 0.001562 0.000000 0.005290 0.000000
# 3 -0.003367 0.001562 0.015089 0.000000 0.002784 0.000000
# 4 0.000000 0.000000 0.000000 0.002199 0.000000 -0.018170
# 5 -0.000184 0.005290 0.002784 0.000000 0.031593 0.000000
# 6 0.000000 0.000000 0.000000 -0.018170 0.000000 0.012063
#
#
# Mechanical properties :
#
#
# Convention : Reuss Voigt Hill
#
# Bulk Modulus (GPa) = 24.37310 30.38584 27.37947
# Shear Modulus (GPa) = 46.49363 11.86962 29.18163
#
# Velocity S-wave (km/s) = 4.46721 2.25714 3.53911
# Velocity P-wave (km/s) = 6.08846 4.45366 5.33406
#
# Compressibility (1/GPa) = 0.04102883
#
# Stress axis : x y z
#
# Youngs Moduli (GPa) = 100.97740 51.21215 66.27253
#
# Poissons Ratio (x) = -0.00308 0.22313
# Poissons Ratio (y) = -0.00608 -0.10349
# Poissons Ratio (z) = 0.33998 -0.07997
#
# Static dielectric constant tensor:
#      x y z
#    x 1.875710 0.000000 -0.014950 
#    y 0.000000 1.900900 0.000000 
#    z -0.014950 0.000000 1.881750 
# 
# From -- ./inp_files/275830.got.cif
#   From: 2010.05.17/outbox.cif.g08.bks.cpg/sg15_138_cif.got.tgz:275830.got - 2010.06.03 18:47:42.
