data_PCOD9306722
_publ_section_title
;
Structure prediction by ZEFSAII (Michael W. Deem and Ramdas Pophale) SiO2 
 PCOD9306722
Probable space group: C 2/C
;
_chemical_formula_sum "Si O2"
_cell_formula_units_Z 48
_cell_length_a 10.765673
_cell_length_b 8.810649
_cell_length_c 23.756171
_cell_angle_alpha 90.000000
_cell_angle_beta 84.186309
_cell_angle_gamma 90.000000
_cell_volume 2241.743830
_symmetry_space_group_name_H-M "C 2/C"
_symmetry_group_IT_number 15
_symmetry_cell_setting 'monoclinic'
loop_
_space_group_symop_operation_xyz
x,y,z
-x,y,1/2-z
-x,-y,-z
x,-y,1/2+z
1/2+x,1/2+y,z
1/2-x,1/2+y,1/2-z
1/2-x,1/2-y,-z
1/2+x,1/2-y,1/2+z
loop_
_atom_site_type_symbol
_atom_site_label
_atom_site_fract_x
_atom_site_fract_y
_atom_site_fract_z
Si Si1 0.785803 0.118816 0.454383
Si Si2 0.111176 0.813048 0.008018
Si Si3 0.375700 0.275325 0.217563
Si Si4 0.124060 0.862831 0.782675
Si Si5 0.543213 0.888530 0.899815
Si Si6 0.505076 0.223341 0.606204
O O1 0.750000 0.250000 0.500000
O O2 0.657149 0.059165 0.434630
O O3 0.864557 0.187419 0.399023
O O4 0.866738 0.990267 0.481039
O O5 0.046172 0.767120 0.952974
O O6 0.250000 0.750000 0.000000
O O7 0.037744 0.732017 0.061925
O O8 0.500000 0.253200 0.250000
O O9 0.359987 0.456360 0.210265
O O10 0.404076 0.190587 0.157989
O O11 0.250059 0.207451 0.250945
O O12 0.000000 0.839276 0.750000
O O13 0.090434 0.781354 0.842787
O O14 0.471928 0.044163 0.889513
#
# Coordination Sequence:
#
# PCOD9306722 Si02
#       6
#     8   8   8   8   8   8
#     4  12  25  43  67 100 140 177 226 272 338 411
#     4  12  25  44  68 102 142 180 222 278 344 406
#     4  11  27  47  73 100 137 182 233 290 347 407
#     4  11  26  49  70 102 137 179 236 288 344 411
#     4  12  26  46  68 102 139 179 227 282 340 412
#     4  12  25  44  72 100 139 181 226 283 340 409
#
# _framework density 21.411901
#
# number of rings (size 3 to 8) (size 9 to 14) (size 15 to 20)
#    0.000    0.333    3.333    5.000    4.667    6.667 
#    0.000    0.000    0.000    0.000    0.000    0.000 
#    0.000    0.000    0.000    0.000    0.000    0.000 
#
# Total GULP energy -134335.532446 kJ/mol
# GULP energy per Si atom -5597.313852 kJ/mol
# Density = 2.136317 g / cm^3
# Si number density = 21.411901 Si / 1000 Ang^3
#
#
#
# Elastic Constant Matrix: (Units=GPa)
#
#
# Indices 1 2 3 4 5 6 
#
# 1 91.4493 40.6800 26.9138 0.0000 -25.9016 0.0000
# 2 40.6800 165.3467 68.0867 0.0000 -18.1725 0.0000
# 3 26.9138 68.0867 135.0128 0.0000 -39.8136 0.0000
# 4 0.0000 0.0000 0.0000 32.3604 0.0000 -9.8324
# 5 -25.9016 -18.1725 -39.8136 0.0000 40.5238 0.0000
# 6 0.0000 0.0000 0.0000 -9.8324 0.0000 41.7773
#
#
#
# Elastic Compliance Matrix: (Units=1/GPa)
#
#
# Indices 1 2 3 4 5 6 
#
# 1 0.014545 -0.003144 0.001425 0.000000 0.009286 0.000000
# 2 -0.003144 0.008320 -0.004310 0.000000 -0.002513 0.000000
# 3 0.001425 -0.004310 0.012664 0.000000 0.011420 0.000000
# 4 0.000000 0.000000 0.000000 0.033282 0.000000 0.007833
# 5 0.009286 -0.002513 0.011420 0.000000 0.040705 0.000000
# 6 0.000000 0.000000 0.000000 0.007833 0.000000 0.025780
#
#
# Mechanical properties :
#
#
# Convention : Reuss Voigt Hill
#
# Bulk Modulus (GPa) = 42.60964 73.68553 58.14758
# Shear Modulus (GPa) = 32.22103 40.00751 36.11427
#
# Velocity S-wave (km/s) = 3.88341 4.32727 4.11133
# Velocity P-wave (km/s) = 6.32858 7.71071 7.05358
#
# Compressibility (1/GPa) = 0.02346887
#
# Stress axis : x y z
#
# Youngs Moduli (GPa) = 68.75370 120.19012 78.96494
#
# Poissons Ratio (x) = 0.37794 -0.11251
# Poissons Ratio (y) = 0.21620 0.34035
# Poissons Ratio (z) = -0.09796 0.51804
#
# Static dielectric constant tensor:
#      x y z
#    x 1.832000 0.000000 0.026570 
#    y 0.000000 1.875480 0.000000 
#    z 0.026570 0.000000 1.739110 
# 
# From -- ./inp_files/267663.got.cif
#   From: 2010.05.17/outbox.cif.g08.bks.cpg/sg15_134_cif.got.tgz:267663.got - 2010.06.03 18:47:42.
