data_PCOD9306781
_publ_section_title
;
Structure prediction by ZEFSAII (Michael W. Deem and Ramdas Pophale) SiO2 
 PCOD9306781
Probable space group: C 2/C
;
_chemical_formula_sum "Si O2"
_cell_formula_units_Z 24
_cell_length_a 10.896626
_cell_length_b 9.880683
_cell_length_c 22.107416
_cell_angle_alpha 90.000000
_cell_angle_beta 158.765543
_cell_angle_gamma 90.000000
_cell_volume 862.080231
_symmetry_space_group_name_H-M "C 2/C"
_symmetry_group_IT_number 15
_symmetry_cell_setting 'monoclinic'
loop_
_space_group_symop_operation_xyz
x,y,z
-x,y,1/2-z
-x,-y,-z
x,-y,1/2+z
1/2+x,1/2+y,z
1/2-x,1/2+y,1/2-z
1/2-x,1/2-y,-z
1/2+x,1/2-y,1/2+z
loop_
_atom_site_type_symbol
_atom_site_label
_atom_site_fract_x
_atom_site_fract_y
_atom_site_fract_z
Si Si1 0.851378 0.202517 0.948782
Si Si2 0.744535 0.058971 0.687562
Si Si3 0.720101 0.578975 0.013249
O O1 0.500000 0.207930 0.750000
O O2 0.829690 0.073487 0.983459
O O3 0.960280 0.338090 0.032769
O O4 0.158980 0.168317 0.043940
O O5 0.000000 0.033073 0.750000
O O6 0.563467 0.927602 0.632615
O O7 0.940698 0.115932 0.835456
#
# Coordination Sequence:
#
# PCOD9306781 Si02
#       3
#     8   8   8
#     4  11  26  52  84 111 154 215 254 319 393 454
#     4  12  28  48  81 116 156 206 259 320 389 460
#     4  11  26  51  77 116 162 198 261 321 385 467
#
# _framework density 27.839635999999999
#
# number of rings (size 3 to 8) (size 9 to 14) (size 15 to 20)
#    0.000    0.667    3.333    2.000    4.667    5.333 
#    0.000    0.000    0.000    0.000    0.000    0.000 
#    0.000    0.000    0.000    0.000    0.000    0.000 
#
# Total GULP energy -67393.391390 kJ/mol
# GULP energy per Si atom -5616.115949 kJ/mol
# Density = 2.777627 g / cm^3
# Si number density = 27.839636 Si / 1000 Ang^3
#
#
#
# Elastic Constant Matrix: (Units=GPa)
#
#
# Indices 1 2 3 4 5 6 
#
# 1 232.7301 64.8716 52.9513 -0.0084 8.0179 -0.0052
# 2 64.8716 125.1547 40.8804 0.0139 3.3220 -0.0004
# 3 52.9513 40.8804 115.9633 0.0514 -25.1239 0.0007
# 4 -0.0084 0.0139 0.0514 24.3012 -0.0339 -2.8339
# 5 8.0179 3.3220 -25.1239 -0.0339 51.5569 0.0015
# 6 -0.0052 -0.0004 0.0007 -2.8339 0.0015 59.7372
#
#
#
# Elastic Compliance Matrix: (Units=1/GPa)
#
#
# Indices 1 2 3 4 5 6 
#
# 1 0.005416 -0.002068 -0.002122 0.000005 -0.001743 0.000001
# 2 -0.002068 0.010090 -0.003001 -0.000003 -0.001791 0.000000
# 3 -0.002122 -0.003001 0.012034 -0.000016 0.006387 -0.000001
# 4 0.000005 -0.000003 -0.000016 0.041379 0.000019 0.001963
# 5 -0.001743 -0.001791 0.006387 0.000019 0.022895 0.000000
# 6 0.000001 0.000000 -0.000001 0.001963 0.000000 0.016833
#
#
# Mechanical properties :
#
#
# Convention : Reuss Voigt Hill
#
# Bulk Modulus (GPa) = 75.99301 87.91719 81.95510
# Shear Modulus (GPa) = 39.24221 48.12872 43.68546
#
# Velocity S-wave (km/s) = 3.75851 4.16238 3.96559
# Velocity P-wave (km/s) = 6.79641 7.39925 7.10423
#
# Compressibility (1/GPa) = 0.01315911
#
# Stress axis : x y z
#
# Youngs Moduli (GPa) = 184.63687 99.11137 83.09895
#
# Poissons Ratio (x) = 0.20497 0.17631
# Poissons Ratio (y) = 0.38183 0.24934
# Poissons Ratio (z) = 0.39173 0.29739
#
# Static dielectric constant tensor:
#      x y z
#    x 2.088650 0.000000 0.067190 
#    y 0.000000 2.135350 -0.000010 
#    z 0.067190 -0.000010 2.152350 
# 
# From -- ./inp_files/26996.got.cif
#   From: 2010.05.17/outbox.cif.g08.bks.cpg/sg15_14_cif.got.tgz:26996.got - 2010.06.03 18:47:42.
