data_PCOD9306191
_publ_section_title
;
Structure prediction by ZEFSAII (Michael W. Deem and Ramdas Pophale) SiO2 
 PCOD9306191
Probable space group: C 2/C
;
_chemical_formula_sum "Si O2"
_cell_formula_units_Z 48
_cell_length_a 15.128179
_cell_length_b 29.165531
_cell_length_c 7.860677
_cell_angle_alpha 90.000000
_cell_angle_beta 35.265219
_cell_angle_gamma 90.000000
_cell_volume 2002.464179
_symmetry_space_group_name_H-M "C 2/C"
_symmetry_group_IT_number 15
_symmetry_cell_setting 'monoclinic'
loop_
_space_group_symop_operation_xyz
x,y,z
-x,y,1/2-z
-x,-y,-z
x,-y,1/2+z
1/2+x,1/2+y,z
1/2-x,1/2+y,1/2-z
1/2-x,1/2-y,-z
1/2+x,1/2-y,1/2+z
loop_
_atom_site_type_symbol
_atom_site_label
_atom_site_fract_x
_atom_site_fract_y
_atom_site_fract_z
Si Si1 0.281711 0.174383 0.185314
Si Si2 0.500000 0.380605 0.250000
Si Si3 0.325292 0.011823 0.719189
Si Si4 0.323231 0.234951 0.563259
Si Si5 0.500000 0.926074 0.750000
Si Si6 0.096942 0.651926 0.850728
Si Si7 0.112559 0.956627 0.844153
O O1 0.151095 0.150802 0.504072
O O2 0.233113 0.226062 0.218534
O O3 0.442966 0.177034 0.028655
O O4 0.307223 0.145853 0.972087
O O5 0.483064 0.412974 0.443240
O O6 0.353491 0.040875 0.500763
O O7 0.500000 0.000000 0.500000
O O8 0.229968 0.967665 0.813614
O O9 0.221069 0.042115 0.008103
O O10 0.500000 0.241265 0.250000
O O11 0.250000 0.250000 0.500000
O O12 0.688022 0.183906 0.841196
O O13 0.528224 0.893114 0.546348
O O14 0.000000 0.000000 0.000000
#
# Coordination Sequence:
#
# PCOD9306191 Si02
#       7
#     8   4   8   8   4   8   8
#     4  11  25  45  74 109 149 192 241 295 370 439
#     4  12  26  43  74 100 152 192 246 303 378 422
#     4  12  25  45  72 100 135 192 245 299 364 444
#     4  12  22  46  77 106 151 198 233 290 367 436
#     4  12  24  43  72  98 142 178 258 295 356 414
#     4  11  25  46  74 110 147 191 243 303 353 445
#     4  12  25  47  68 100 141 185 241 309 372 422
#
# _framework density 23.970466999999999
#
# number of rings (size 3 to 8) (size 9 to 14) (size 15 to 20)
#    0.000    0.333    6.667    1.500    4.667    0.000 
#    0.000    0.000    0.000    0.000    0.000    0.000 
#    0.000    0.000    0.000    0.000    0.000    0.000 
#
# Total GULP energy -134047.760845 kJ/mol
# GULP energy per Si atom -5585.323369 kJ/mol
# Density = 2.391591 g / cm^3
# Si number density = 23.970467 Si / 1000 Ang^3
#
#
#
# Elastic Constant Matrix: (Units=GPa)
#
#
# Indices 1 2 3 4 5 6 
#
# 1 87.1346 4.5138 33.8144 0.0000 2.0975 0.0000
# 2 4.5138 79.4876 36.5753 0.0000 4.4797 0.0000
# 3 33.8144 36.5753 180.1936 0.0000 22.0191 0.0000
# 4 0.0000 0.0000 0.0000 48.5620 0.0000 8.0729
# 5 2.0975 4.4797 22.0191 0.0000 38.2193 0.0000
# 6 0.0000 0.0000 0.0000 8.0729 0.0000 25.8440
#
#
#
# Elastic Compliance Matrix: (Units=1/GPa)
#
#
# Indices 1 2 3 4 5 6 
#
# 1 0.012408 0.000404 -0.002497 0.000000 0.000710 0.000000
# 2 0.000404 0.013890 -0.002898 0.000000 0.000019 0.000000
# 3 -0.002497 -0.002898 0.007044 0.000000 -0.003582 0.000000
# 4 0.000000 0.000000 0.000000 0.021720 0.000000 -0.006785
# 5 0.000710 0.000019 -0.003582 0.000000 0.028187 0.000000
# 6 0.000000 0.000000 0.000000 -0.006785 0.000000 0.040813
#
#
# Mechanical properties :
#
#
# Convention : Reuss Voigt Hill
#
# Bulk Modulus (GPa) = 42.80701 55.18034 48.99367
# Shear Modulus (GPa) = 35.25367 40.65254 37.95310
#
# Velocity S-wave (km/s) = 3.83915 4.12265 3.98342
# Velocity P-wave (km/s) = 6.12773 6.76253 6.45294
#
# Compressibility (1/GPa) = 0.02336066
#
# Stress axis : x y z
#
# Youngs Moduli (GPa) = 80.59606 71.99524 141.96463
#
# Poissons Ratio (x) = -0.02912 0.35452
# Poissons Ratio (y) = -0.03260 0.41135
# Poissons Ratio (z) = 0.20127 0.20861
#
# Static dielectric constant tensor:
#      x y z
#    x 2.032030 0.000000 0.096550 
#    y 0.000000 2.021250 0.000000 
#    z 0.096550 0.000000 1.917700 
# 
# From -- ./inp_files/52760.got.cif
#   From: 2010.05.17/outbox.cif.g08.bks.cpg/sg15_27_cif.got.tgz:52760.got - 2010.06.03 18:47:42.
