data_PCOD9306752
_publ_section_title
;
Structure prediction by ZEFSAII (Michael W. Deem and Ramdas Pophale) SiO2 
 PCOD9306752
Probable space group: C 2/C
;
_chemical_formula_sum "Si O2"
_cell_formula_units_Z 44
_cell_length_a 27.382727
_cell_length_b 8.885093
_cell_length_c 21.948615
_cell_angle_alpha 90.000000
_cell_angle_beta 19.555336
_cell_angle_gamma 90.000000
_cell_volume 1787.408003
_symmetry_space_group_name_H-M "C 2/C"
_symmetry_group_IT_number 15
_symmetry_cell_setting 'monoclinic'
loop_
_space_group_symop_operation_xyz
x,y,z
-x,y,1/2-z
-x,-y,-z
x,-y,1/2+z
1/2+x,1/2+y,z
1/2-x,1/2+y,1/2-z
1/2-x,1/2-y,-z
1/2+x,1/2-y,1/2+z
loop_
_atom_site_type_symbol
_atom_site_label
_atom_site_fract_x
_atom_site_fract_y
_atom_site_fract_z
Si Si1 0.500000 0.108331 0.250000
Si Si2 0.722237 0.423018 0.773169
Si Si3 0.877491 0.174796 0.809717
Si Si4 0.408887 0.285912 0.129759
Si Si5 0.389420 0.331223 0.804873
Si Si6 0.832218 0.630768 0.017649
O O1 0.499022 0.213005 0.310683
O O2 0.628349 0.993408 0.080043
O O3 0.646216 0.587250 0.854649
O O4 0.824540 0.366264 0.708274
O O5 0.830238 0.422954 0.588518
O O6 0.584762 0.307124 0.927875
O O7 0.863310 0.180696 0.753673
O O8 0.908767 0.006619 0.794695
O O9 0.750000 0.250000 0.000000
O O10 0.541941 0.252794 0.635922
O O11 0.250000 0.250000 0.000000
O O12 0.332053 0.317785 0.803124
#
# Coordination Sequence:
#
# PCOD9306752 Si02
#       6
#     4   8   8   8   8   8
#     4  12  26  46  76 108 156 192 254 318 382 446
#     4  11  26  50  74 106 151 200 248 317 359 470
#     4  12  26  49  76 111 151 198 247 325 382 451
#     4  11  27  51  74 111 150 198 260 304 386 443
#     4  12  24  46  74 108 150 191 248 309 380 448
#     4  12  24  49  71 110 150 196 251 309 374 457
#
# _framework density 24.616651000000001
#
# number of rings (size 3 to 8) (size 9 to 14) (size 15 to 20)
#    0.000    0.364    5.455    1.091   10.182    0.727 
#    6.545    0.000    0.000    0.000    0.000    0.000 
#    0.000    0.000    0.000    0.000    0.000    0.000 
#
# Total GULP energy -122691.166376 kJ/mol
# GULP energy per Si atom -5576.871199 kJ/mol
# Density = 2.456062 g / cm^3
# Si number density = 24.616651 Si / 1000 Ang^3
#
#
#
# Elastic Constant Matrix: (Units=GPa)
#
#
# Indices 1 2 3 4 5 6 
#
# 1 106.9932 44.3821 26.0074 0.0000 -1.5309 0.0000
# 2 44.3821 128.3571 36.6696 -0.0003 -17.4088 0.0000
# 3 26.0074 36.6696 95.0300 -0.0006 -2.8506 0.0000
# 4 0.0000 -0.0003 -0.0006 31.6430 0.0000 -13.1208
# 5 -1.5309 -17.4088 -2.8506 0.0000 52.2701 0.0001
# 6 0.0000 0.0000 0.0000 -13.1208 0.0001 39.0407
#
#
#
# Elastic Compliance Matrix: (Units=1/GPa)
#
#
# Indices 1 2 3 4 5 6 
#
# 1 0.011211 -0.003505 -0.001744 0.000000 -0.000934 0.000000
# 2 -0.003505 0.010261 -0.002905 0.000000 0.003156 0.000000
# 3 -0.001744 -0.002905 0.012111 0.000000 -0.000358 0.000000
# 4 0.000000 0.000000 0.000000 0.036720 0.000000 0.012341
# 5 -0.000934 0.003156 -0.000358 0.000000 0.020136 0.000000
# 6 0.000000 0.000000 0.000000 0.012341 0.000000 0.029762
#
#
# Mechanical properties :
#
#
# Convention : Reuss Voigt Hill
#
# Bulk Modulus (GPa) = 57.89040 60.49981 59.19510
# Shear Modulus (GPa) = 35.14558 39.47883 37.31221
#
# Velocity S-wave (km/s) = 3.78261 4.00902 3.89746
# Velocity P-wave (km/s) = 6.53034 6.78674 6.65977
#
# Compressibility (1/GPa) = 0.01727402
#
# Stress axis : x y z
#
# Youngs Moduli (GPa) = 89.20014 97.45838 82.57228
#
# Poissons Ratio (x) = 0.34158 0.14398
# Poissons Ratio (y) = 0.31264 0.23991
# Poissons Ratio (z) = 0.15554 0.28316
#
# Static dielectric constant tensor:
#      x y z
#    x 2.179430 0.000000 -0.143080 
#    y 0.000000 2.021430 0.000000 
#    z -0.143080 0.000000 2.184700 
# 
# From -- ./inp_files/284383.got.cif
#   From: 2010.05.17/outbox.cif.g08.bks.cpg/sg15_143_cif.got.tgz:284383.got - 2010.06.03 18:47:42.
