data_PCOD9306683
_publ_section_title
;
Structure prediction by ZEFSAII (Michael W. Deem and Ramdas Pophale) SiO2 
 PCOD9306683
Probable space group: C 2/C
;
_chemical_formula_sum "Si O2"
_cell_formula_units_Z 52
_cell_length_a 8.260425
_cell_length_b 20.237243
_cell_length_c 14.628856
_cell_angle_alpha 90.000000
_cell_angle_beta 93.629828
_cell_angle_gamma 90.000000
_cell_volume 2440.574069
_symmetry_space_group_name_H-M "C 2/C"
_symmetry_group_IT_number 15
_symmetry_cell_setting 'monoclinic'
loop_
_space_group_symop_operation_xyz
x,y,z
-x,y,1/2-z
-x,-y,-z
x,-y,1/2+z
1/2+x,1/2+y,z
1/2-x,1/2+y,1/2-z
1/2-x,1/2-y,-z
1/2+x,1/2-y,1/2+z
loop_
_atom_site_type_symbol
_atom_site_label
_atom_site_fract_x
_atom_site_fract_y
_atom_site_fract_z
Si Si1 0.000000 0.382390 0.250000
Si Si2 0.321824 0.372757 0.776858
Si Si3 0.194048 0.506224 0.824612
Si Si4 0.594255 0.909814 0.617213
Si Si5 0.064586 0.673075 0.553317
Si Si6 0.893177 0.824361 0.972883
Si Si7 0.366379 0.555582 0.005446
O O1 0.852459 0.435239 0.245150
O O2 0.990391 0.342720 0.344921
O O3 0.500000 0.352259 0.750000
O O4 0.320837 0.451494 0.796492
O O5 0.176421 0.364141 0.698743
O O6 0.299559 0.337619 0.873427
O O7 0.041836 0.459360 0.849146
O O8 0.255089 0.545133 0.914267
O O9 0.525655 0.870645 0.527117
O O10 0.748170 0.951224 0.586962
O O11 0.042806 0.749990 0.527584
O O12 0.258398 0.662813 0.545610
O O13 0.040473 0.875271 0.984837
O O14 0.500000 0.500000 0.000000
#
# Coordination Sequence:
#
# PCOD9306683 Si02
#       7
#     4   8   8   8   8   8   8
#     4  12  26  42  72 102 132 180 228 292 338 416
#     4  12  23  42  70 106 135 178 233 295 346 413
#     4  12  24  40  69 108 136 179 231 292 356 409
#     4  12  23  42  73  99 141 185 234 283 353 426
#     4  11  27  48  70  98 142 190 237 280 347 427
#     4  11  26  48  69 100 143 188 228 292 349 408
#     4  12  23  40  69 102 138 178 226 295 348 405
#
# _framework density 21.306463000000001
#
# number of rings (size 3 to 8) (size 9 to 14) (size 15 to 20)
#    0.000    0.308    7.692    0.462    3.231    1.846 
#    2.769    0.000    0.000    0.000    0.000    0.000 
#    0.000    0.000    0.000    0.000    0.000    0.000 
#
# Total GULP energy -145184.513111 kJ/mol
# GULP energy per Si atom -5584.019735 kJ/mol
# Density = 2.125797 g / cm^3
# Si number density = 21.306463 Si / 1000 Ang^3
#
#
#
# Elastic Constant Matrix: (Units=GPa)
#
#
# Indices 1 2 3 4 5 6 
#
# 1 90.8539 32.0793 29.3317 0.0000 -5.9867 0.0000
# 2 32.0793 76.8945 40.4666 0.0000 3.9820 0.0000
# 3 29.3317 40.4666 125.4108 0.0000 5.7130 0.0000
# 4 0.0000 0.0000 0.0000 22.4950 0.0000 -0.3546
# 5 -5.9867 3.9820 5.7130 0.0000 34.8106 0.0000
# 6 0.0000 0.0000 0.0000 -0.3546 0.0000 27.1352
#
#
#
# Elastic Compliance Matrix: (Units=1/GPa)
#
#
# Indices 1 2 3 4 5 6 
#
# 1 0.013497 -0.004888 -0.001724 0.000000 0.003163 0.000000
# 2 -0.004888 0.017467 -0.004397 0.000000 -0.002117 0.000000
# 3 -0.001724 -0.004397 0.009860 0.000000 -0.001412 0.000000
# 4 0.000000 0.000000 0.000000 0.044463 0.000000 0.000581
# 5 0.003163 -0.002117 -0.001412 0.000000 0.029745 0.000000
# 6 0.000000 0.000000 0.000000 0.000581 0.000000 0.036860
#
#
# Mechanical properties :
#
#
# Convention : Reuss Voigt Hill
#
# Bulk Modulus (GPa) = 53.16733 55.21271 54.19002
# Shear Modulus (GPa) = 27.75027 29.64028 28.69527
#
# Velocity S-wave (km/s) = 3.61284 3.73385 3.67384
# Velocity P-wave (km/s) = 6.51239 6.67523 6.59431
#
# Compressibility (1/GPa) = 0.01880854
#
# Stress axis : x y z
#
# Youngs Moduli (GPa) = 74.08844 57.25004 101.42024
#
# Poissons Ratio (x) = 0.27981 0.17484
# Poissons Ratio (y) = 0.36211 0.44591
# Poissons Ratio (z) = 0.12772 0.25171
#
# Static dielectric constant tensor:
#      x y z
#    x 1.882060 0.000000 0.073630 
#    y 0.000000 1.736650 0.000000 
#    z 0.073630 0.000000 1.855450 
# 
# From -- ./inp_files/136147.got.cif
#   From: 2010.05.17/outbox.cif.g08.bks.cpg/sg15_69_cif.got.tgz:136147.got - 2010.06.03 18:47:42.
