data_PCOD9306602
_publ_section_title
;
Structure prediction by ZEFSAII (Michael W. Deem and Ramdas Pophale) SiO2 
 PCOD9306602
Probable space group: C 2/C
;
_chemical_formula_sum "Si O2"
_cell_formula_units_Z 32
_cell_length_a 14.320565
_cell_length_b 5.048911
_cell_length_c 18.538072
_cell_angle_alpha 90.000000
_cell_angle_beta 73.129888
_cell_angle_gamma 90.000000
_cell_volume 1282.680613
_symmetry_space_group_name_H-M "C 2/C"
_symmetry_group_IT_number 15
_symmetry_cell_setting 'monoclinic'
loop_
_space_group_symop_operation_xyz
x,y,z
-x,y,1/2-z
-x,-y,-z
x,-y,1/2+z
1/2+x,1/2+y,z
1/2-x,1/2+y,1/2-z
1/2-x,1/2-y,-z
1/2+x,1/2-y,1/2+z
loop_
_atom_site_type_symbol
_atom_site_label
_atom_site_fract_x
_atom_site_fract_y
_atom_site_fract_z
Si Si1 0.389565 0.104356 0.276029
Si Si2 0.815963 0.890941 0.871568
Si Si3 0.077146 0.822912 0.023523
Si Si4 0.885279 0.454968 0.612387
O O1 0.500000 0.208205 0.250000
O O2 0.381032 0.852455 0.330155
O O3 0.367766 0.999645 0.200626
O O4 0.326301 0.354585 0.316232
O O5 0.854947 0.011058 0.938128
O O6 0.706328 0.772529 0.890710
O O7 0.998542 0.632703 0.081471
O O8 0.129397 0.671807 0.946945
O O9 0.000000 0.000000 0.000000
#
# Coordination Sequence:
#
# PCOD9306602 Si02
#       4
#     8   8   8   8
#     4  12  25  47  74 105 145 187 242 301 361 426
#     4  12  27  46  75 105 143 192 241 300 360 436
#     4  11  26  46  72 101 147 189 235 303 360 435
#     4  11  26  46  70 109 141 190 244 295 366 434
#
# _framework density 24.947754
#
# number of rings (size 3 to 8) (size 9 to 14) (size 15 to 20)
#    0.000    0.500    2.500    4.500   10.500    1.000 
#    0.000    0.000    0.000    0.000    0.000    0.000 
#    0.000    0.000    0.000    0.000    0.000    0.000 
#
# Total GULP energy -89357.251926 kJ/mol
# GULP energy per Si atom -5584.828245 kJ/mol
# Density = 2.489097 g / cm^3
# Si number density = 24.947754 Si / 1000 Ang^3
#
#
#
# Elastic Constant Matrix: (Units=GPa)
#
#
# Indices 1 2 3 4 5 6 
#
# 1 131.6175 -1.6270 33.7114 0.0003 21.9249 0.0001
# 2 -1.6270 92.1551 44.1758 0.0005 1.6396 0.0002
# 3 33.7114 44.1758 126.4250 0.0001 26.1470 0.0002
# 4 0.0003 0.0005 0.0001 15.4050 0.0001 -8.1009
# 5 21.9249 1.6396 26.1470 0.0001 37.6576 0.0001
# 6 0.0001 0.0002 0.0002 -8.1009 0.0001 30.3097
#
#
#
# Elastic Compliance Matrix: (Units=1/GPa)
#
#
# Indices 1 2 3 4 5 6 
#
# 1 0.008743 0.001158 -0.001953 0.000000 -0.003784 0.000000
# 2 0.001158 0.013491 -0.005560 -0.000001 0.002599 0.000000
# 3 -0.001953 -0.005560 0.011780 0.000000 -0.006800 0.000000
# 4 0.000000 -0.000001 0.000000 0.075530 0.000000 0.020187
# 5 -0.003784 0.002599 -0.006800 0.000000 0.033367 0.000000
# 6 0.000000 0.000000 0.000000 0.020187 0.000000 0.038388
#
#
# Mechanical properties :
#
#
# Convention : Reuss Voigt Hill
#
# Bulk Modulus (GPa) = 46.94301 55.85755 51.40028
# Shear Modulus (GPa) = 24.86201 34.93695 29.89948
#
# Velocity S-wave (km/s) = 3.16026 3.74626 3.46567
# Velocity P-wave (km/s) = 5.67219 6.41491 6.05495
#
# Compressibility (1/GPa) = 0.02130243
#
# Stress axis : x y z
#
# Youngs Moduli (GPa) = 114.38002 74.12393 84.89019
#
# Poissons Ratio (x) = -0.08583 0.16581
# Poissons Ratio (y) = -0.13245 0.47202
# Poissons Ratio (z) = 0.22341 0.41216
#
# Static dielectric constant tensor:
#      x y z
#    x 0.900440 0.000000 0.896020 
#    y 0.000000 1.837790 0.000000 
#    z 0.896020 0.000000 1.235390 
# 
# From -- ./inp_files/201798.got.cif
#   From: 2010.05.17/outbox.cif.g08.bks.cpg/sg15_101_cif.got.tgz:201798.got - 2010.06.03 18:47:42.
