data_PCOD9306861
_publ_section_title
;
Structure prediction by ZEFSAII (Michael W. Deem and Ramdas Pophale) SiO2 
 PCOD9306861
Probable space group: C 2/C
;
_chemical_formula_sum "Si O2"
_cell_formula_units_Z 28
_cell_length_a 16.071002
_cell_length_b 8.556658
_cell_length_c 7.482001
_cell_angle_alpha 90.000000
_cell_angle_beta 90.570589
_cell_angle_gamma 90.000000
_cell_volume 1028.829374
_symmetry_space_group_name_H-M "C 2/C"
_symmetry_group_IT_number 15
_symmetry_cell_setting 'monoclinic'
loop_
_space_group_symop_operation_xyz
x,y,z
-x,y,1/2-z
-x,-y,-z
x,-y,1/2+z
1/2+x,1/2+y,z
1/2-x,1/2+y,1/2-z
1/2-x,1/2-y,-z
1/2+x,1/2-y,1/2+z
loop_
_atom_site_type_symbol
_atom_site_label
_atom_site_fract_x
_atom_site_fract_y
_atom_site_fract_z
Si Si1 0.097521 0.783636 0.478490
Si Si2 0.656831 0.398070 0.104526
Si Si3 0.500000 0.000000 0.000000
Si Si4 0.161835 0.374557 0.317545
O O1 0.130842 0.807239 0.281391
O O2 0.153682 0.680084 0.614011
O O3 0.011696 0.689598 0.485045
O O4 0.097835 0.956541 0.562377
O O5 0.750881 0.458333 0.145029
O O6 0.662294 0.278946 0.940609
O O7 0.579562 0.024595 0.858813
#
# Coordination Sequence:
#
# PCOD9306861 Si02
#       4
#     8   8   4   8
#     4  12  27  52  78 122 160 219 265 345 399 500
#     4  11  27  50  84 111 161 214 284 317 413 492
#     4  12  32  48  80 118 168 202 278 336 424 462
#     4  11  28  50  77 121 156 220 261 347 401 487
#
# _framework density 27.215398
#
# number of rings (size 3 to 8) (size 9 to 14) (size 15 to 20)
#    0.000    0.571    2.857    1.714   16.000    1.143 
#    5.143    0.000    0.000    0.000    0.000    0.000 
#    0.000    0.000    0.000    0.000    0.000    0.000 
#
# Total GULP energy -78146.427780 kJ/mol
# GULP energy per Si atom -5581.887699 kJ/mol
# Density = 2.715345 g / cm^3
# Si number density = 27.215398 Si / 1000 Ang^3
#
#
#
# Elastic Constant Matrix: (Units=GPa)
#
#
# Indices 1 2 3 4 5 6 
#
# 1 136.6050 59.8907 35.7857 0.0000 -10.7407 0.0000
# 2 59.8907 155.7231 59.8728 0.0000 -19.3072 0.0000
# 3 35.7857 59.8728 185.4289 0.0000 -0.1998 0.0000
# 4 0.0000 0.0000 0.0000 48.3722 0.0000 -12.5885
# 5 -10.7407 -19.3072 -0.1998 0.0000 40.6527 0.0000
# 6 0.0000 0.0000 0.0000 -12.5885 0.0000 44.5270
#
#
#
# Elastic Compliance Matrix: (Units=1/GPa)
#
#
# Indices 1 2 3 4 5 6 
#
# 1 0.008915 -0.003031 -0.000741 0.000000 0.000912 0.000000
# 2 -0.003031 0.008887 -0.002281 0.000000 0.003409 0.000000
# 3 -0.000741 -0.002281 0.006271 0.000000 -0.001248 0.000000
# 4 0.000000 0.000000 0.000000 0.022315 0.000000 0.006309
# 5 0.000912 0.003409 -0.001248 0.000000 0.026452 0.000000
# 6 0.000000 0.000000 0.000000 0.006309 0.000000 0.024242
#
#
# Mechanical properties :
#
#
# Convention : Reuss Voigt Hill
#
# Bulk Modulus (GPa) = 83.55756 87.65059 85.60408
# Shear Modulus (GPa) = 44.17893 48.19091 46.18492
#
# Velocity S-wave (km/s) = 4.03340 4.21256 4.12395
# Velocity P-wave (km/s) = 7.24293 7.47911 7.36197
#
# Compressibility (1/GPa) = 0.01196780
#
# Stress axis : x y z
#
# Youngs Moduli (GPa) = 112.17151 112.52606 159.46356
#
# Poissons Ratio (x) = 0.34103 0.11815
# Poissons Ratio (y) = 0.33995 0.36372
# Poissons Ratio (z) = 0.08311 0.25666
#
# Static dielectric constant tensor:
#      x y z
#    x 2.298730 0.000000 0.151330 
#    y 0.000000 2.082660 0.000000 
#    z 0.151330 0.000000 2.183890 
# 
# From -- ./inp_files/45406.got.cif
#   From: 2010.05.17/outbox.cif.g08.bks.cpg/sg15_23_cif.got.tgz:45406.got - 2010.06.03 18:47:42.
