data_PCOD9306024
_publ_section_title
;
Structure prediction by ZEFSAII (Michael W. Deem and Ramdas Pophale) SiO2 
 PCOD9306024
Probable space group: C 2/C
;
_chemical_formula_sum "Si O2"
_cell_formula_units_Z 48
_cell_length_a 15.741867
_cell_length_b 7.675487
_cell_length_c 28.551553
_cell_angle_alpha 90.000000
_cell_angle_beta 39.370901
_cell_angle_gamma 90.000000
_cell_volume 2188.329073
_symmetry_space_group_name_H-M "C 2/C"
_symmetry_group_IT_number 15
_symmetry_cell_setting 'monoclinic'
loop_
_space_group_symop_operation_xyz
x,y,z
-x,y,1/2-z
-x,-y,-z
x,-y,1/2+z
1/2+x,1/2+y,z
1/2-x,1/2+y,1/2-z
1/2-x,1/2-y,-z
1/2+x,1/2-y,1/2+z
loop_
_atom_site_type_symbol
_atom_site_label
_atom_site_fract_x
_atom_site_fract_y
_atom_site_fract_z
Si Si1 0.102790 0.311142 0.051577
Si Si2 0.865301 0.687786 0.415902
Si Si3 0.101824 0.163916 0.951641
Si Si4 0.176689 0.732186 0.811926
Si Si5 0.659977 0.919923 0.674317
Si Si6 0.127310 0.323259 0.844036
O O1 0.101368 0.493688 0.079367
O O2 0.975822 0.199630 0.122982
O O3 0.250000 0.250000 0.000000
O O4 0.091398 0.290654 0.000464
O O5 0.750000 0.750000 0.500000
O O6 0.825593 0.697753 0.378751
O O7 0.014227 0.760620 0.358276
O O8 0.073376 0.269207 0.917169
O O9 0.250958 0.086256 0.879282
O O10 0.000000 0.000000 0.000000
O O11 0.267770 0.833775 0.811208
O O12 0.159791 0.529026 0.831741
O O13 0.237866 0.742306 0.734290
O O14 0.500000 0.950085 0.750000
#
# Coordination Sequence:
#
# PCOD9306024 Si02
#       6
#     8   8   8   8   8   8
#     4  11  25  43  67 103 133 182 233 285 338 419
#     4  11  25  42  69  99 142 178 233 282 345 414
#     4  12  25  44  73 100 142 184 235 292 354 412
#     4  11  25  45  69  98 143 175 238 282 349 420
#     4  12  24  46  69 102 139 186 225 287 352 419
#     4  11  26  44  70 101 134 191 223 290 346 416
#
# _framework density 21.934543999999999
#
# number of rings (size 3 to 8) (size 9 to 14) (size 15 to 20)
#    0.000    0.667    5.000    2.000    4.667    1.333 
#    0.000    0.833    0.000    0.000    0.000    0.000 
#    0.000    0.000    0.000    0.000    0.000    0.000 
#
# Total GULP energy -133797.746979 kJ/mol
# GULP energy per Si atom -5574.906124 kJ/mol
# Density = 2.188462 g / cm^3
# Si number density = 21.934544 Si / 1000 Ang^3
#
#
#
# Elastic Constant Matrix: (Units=GPa)
#
#
# Indices 1 2 3 4 5 6 
#
# 1 74.7621 -2.9387 21.5990 -0.0001 -3.9634 0.0004
# 2 -2.9387 48.8331 4.6144 0.0002 -2.2699 0.0019
# 3 21.5990 4.6144 136.9054 -0.0001 -14.5115 -0.0002
# 4 -0.0001 0.0002 -0.0001 34.7536 -0.0001 7.6763
# 5 -3.9634 -2.2699 -14.5115 -0.0001 56.2839 0.0002
# 6 0.0004 0.0019 -0.0002 7.6763 0.0002 20.3579
#
#
#
# Elastic Compliance Matrix: (Units=1/GPa)
#
#
# Indices 1 2 3 4 5 6 
#
# 1 0.014081 0.001078 -0.002208 0.000000 0.000466 0.000000
# 2 0.001078 0.020650 -0.000791 0.000000 0.000705 -0.000002
# 3 -0.002208 -0.000791 0.007875 0.000000 0.001843 0.000000
# 4 0.000000 0.000000 0.000000 0.031388 0.000000 -0.011835
# 5 0.000466 0.000705 0.001843 0.000000 0.018303 0.000000
# 6 0.000000 -0.000002 0.000000 -0.011835 0.000000 0.053584
#
#
# Mechanical properties :
#
#
# Convention : Reuss Voigt Hill
#
# Bulk Modulus (GPa) = 25.79868 34.11667 29.95768
# Shear Modulus (GPa) = 30.74163 38.09414 34.41788
#
# Velocity S-wave (km/s) = 3.74774 4.17192 3.96551
# Velocity P-wave (km/s) = 5.52401 6.22849 5.88680
#
# Compressibility (1/GPa) = 0.03876168
#
# Stress axis : x y z
#
# Youngs Moduli (GPa) = 71.01848 48.42547 126.98825
#
# Poissons Ratio (x) = -0.05219 0.28045
# Poissons Ratio (y) = -0.07654 0.10049
# Poissons Ratio (z) = 0.15684 0.03832
#
# Static dielectric constant tensor:
#      x y z
#    x 1.997530 -0.000010 0.022390 
#    y -0.000010 1.821600 0.000000 
#    z 0.022390 0.000000 1.656880 
# 
# From -- ./inp_files/295409.got.cif
#   From: 2010.05.17/outbox.cif.g08.bks.cpg/sg15_148_cif.got.tgz:295409.got - 2010.06.03 18:47:42.
