data_PCOD9306890
_publ_section_title
;
Structure prediction by ZEFSAII (Michael W. Deem and Ramdas Pophale) SiO2 
 PCOD9306890
Probable space group: C 2/C
;
_chemical_formula_sum "Si O2"
_cell_formula_units_Z 32
_cell_length_a 4.661930
_cell_length_b 17.341668
_cell_length_c 15.132502
_cell_angle_alpha 90.000000
_cell_angle_beta 99.627675
_cell_angle_gamma 90.000000
_cell_volume 1206.165751
_symmetry_space_group_name_H-M "C 2/C"
_symmetry_group_IT_number 15
_symmetry_cell_setting 'monoclinic'
loop_
_space_group_symop_operation_xyz
x,y,z
-x,y,1/2-z
-x,-y,-z
x,-y,1/2+z
1/2+x,1/2+y,z
1/2-x,1/2+y,1/2-z
1/2-x,1/2-y,-z
1/2+x,1/2-y,1/2+z
loop_
_atom_site_type_symbol
_atom_site_label
_atom_site_fract_x
_atom_site_fract_y
_atom_site_fract_z
Si Si1 0.500000 0.514864 0.250000
Si Si2 0.641475 0.118162 0.371157
Si Si3 0.181735 0.077661 0.488159
Si Si4 0.126342 0.392140 0.165525
Si Si5 0.500000 0.252864 0.250000
O O1 0.289158 0.571423 0.296601
O O2 0.385195 0.453429 0.170333
O O3 0.468060 0.193002 0.328816
O O4 0.922673 0.135623 0.446613
O O5 0.412634 0.071642 0.419209
O O6 0.385976 0.106862 0.578043
O O7 0.000000 0.000000 0.500000
O O8 0.253683 0.309590 0.199795
O O9 0.000000 0.424091 0.250000
#
# Coordination Sequence:
#
# PCOD9306890 Si02
#       5
#     4   8   8   8   4
#     4  11  28  52  86 121 164 224 278 353 418 504
#     4  12  29  50  87 121 166 219 284 347 418 506
#     4  12  30  50  84 130 167 213 285 357 418 490
#     4  11  29  53  80 119 173 221 276 347 428 499
#     4  11  30  54  80 119 170 230 274 337 428 508
#
# _framework density 26.530348
#
# number of rings (size 3 to 8) (size 9 to 14) (size 15 to 20)
#    0.000    0.500    0.000    3.750   28.000    2.000 
#    0.000    0.000    0.000    0.000    0.000    0.000 
#    0.000    0.000    0.000    0.000    0.000    0.000 
#
# Total GULP energy -89424.612230 kJ/mol
# GULP energy per Si atom -5589.038264 kJ/mol
# Density = 2.646996 g / cm^3
# Si number density = 26.530348 Si / 1000 Ang^3
#
#
#
# Elastic Constant Matrix: (Units=GPa)
#
#
# Indices 1 2 3 4 5 6 
#
# 1 173.8706 57.4939 74.0699 0.0000 -2.7351 0.0000
# 2 57.4939 145.1611 93.5317 0.0000 25.8386 0.0000
# 3 74.0699 93.5317 216.6308 0.0000 41.4185 0.0000
# 4 0.0000 0.0000 0.0000 40.7063 0.0000 14.6775
# 5 -2.7351 25.8386 41.4185 0.0000 75.5876 0.0000
# 6 0.0000 0.0000 0.0000 14.6775 0.0000 22.3575
#
#
#
# Elastic Compliance Matrix: (Units=1/GPa)
#
#
# Indices 1 2 3 4 5 6 
#
# 1 0.007297 -0.001932 -0.002052 0.000000 0.002049 0.000000
# 2 -0.001932 0.010142 -0.003398 0.000000 -0.001675 0.000000
# 3 -0.002052 -0.003398 0.007347 0.000000 -0.002938 0.000000
# 4 0.000000 0.000000 0.000000 0.032185 0.000000 -0.021129
# 5 0.002049 -0.001675 -0.002938 0.000000 0.015487 0.000000
# 6 0.000000 0.000000 0.000000 -0.021129 0.000000 0.058599
#
#
# Mechanical properties :
#
#
# Convention : Reuss Voigt Hill
#
# Bulk Modulus (GPa) = 99.79906 109.53926 104.66916
# Shear Modulus (GPa) = 33.52088 48.43474 40.97781
#
# Velocity S-wave (km/s) = 3.55842 4.27738 3.93436
# Velocity P-wave (km/s) = 7.38795 8.11003 7.75739
#
# Compressibility (1/GPa) = 0.01002013
#
# Stress axis : x y z
#
# Youngs Moduli (GPa) = 137.04285 98.60285 136.11491
#
# Poissons Ratio (x) = 0.19054 0.27937
# Poissons Ratio (y) = 0.26483 0.46249
# Poissons Ratio (z) = 0.28127 0.33503
#
# Static dielectric constant tensor:
#      x y z
#    x 2.339630 0.000000 0.059690 
#    y 0.000000 2.067850 0.000000 
#    z 0.059690 0.000000 2.220000 
# 
# From -- ./inp_files/184046.got.cif
#   From: 2010.05.17/outbox.cif.g08.bks.cpg/sg15_93_cif.got.tgz:184046.got - 2010.06.03 18:47:42.
