data_PCOD9306316
_publ_section_title
;
Structure prediction by ZEFSAII (Michael W. Deem and Ramdas Pophale) SiO2 
 PCOD9306316
Probable space group: C 2/C
;
_chemical_formula_sum "Si O2"
_cell_formula_units_Z 24
_cell_length_a 22.098163
_cell_length_b 10.846443
_cell_length_c 14.095250
_cell_angle_alpha 90.000000
_cell_angle_beta 17.593541
_cell_angle_gamma 90.000000
_cell_volume 1021.175697
_symmetry_space_group_name_H-M "C 2/C"
_symmetry_group_IT_number 15
_symmetry_cell_setting 'monoclinic'
loop_
_space_group_symop_operation_xyz
x,y,z
-x,y,1/2-z
-x,-y,-z
x,-y,1/2+z
1/2+x,1/2+y,z
1/2-x,1/2+y,1/2-z
1/2-x,1/2-y,-z
1/2+x,1/2-y,1/2+z
loop_
_atom_site_type_symbol
_atom_site_label
_atom_site_fract_x
_atom_site_fract_y
_atom_site_fract_z
Si Si1 0.217633 0.255582 0.662086
Si Si2 0.000000 0.043549 0.750000
Si Si3 0.500000 0.964966 0.750000
Si Si4 0.345920 0.130477 0.811806
O O1 0.250000 0.250000 0.500000
O O2 0.355526 0.354174 0.513730
O O3 0.305380 0.122389 0.560376
O O4 0.998877 0.311237 0.007215
O O5 0.163165 0.955687 0.552665
O O6 0.461180 0.050004 0.717562
O O7 0.250000 0.250000 0.000000
#
# Coordination Sequence:
#
# PCOD9306316 Si02
#       4
#     8   4   4   8
#     4  11  26  50  80 109 155 212 252 318 390 454
#     4  11  25  46  78 110 153 195 260 316 372 461
#     4  11  27  50  78 116 157 201 258 320 386 463
#     4  12  28  48  78 116 155 201 259 319 388 460
#
# _framework density 23.502321999999999
#
# number of rings (size 3 to 8) (size 9 to 14) (size 15 to 20)
#    0.000    0.667    3.333    2.000    4.667    9.333 
#    0.000    0.000    0.000    0.000    0.000    0.000 
#    0.000    0.000    0.000    0.000    0.000    0.000 
#
# Total GULP energy -66916.607498 kJ/mol
# GULP energy per Si atom -5576.383958 kJ/mol
# Density = 2.344883 g / cm^3
# Si number density = 23.502322 Si / 1000 Ang^3
#
#
#
# Elastic Constant Matrix: (Units=GPa)
#
#
# Indices 1 2 3 4 5 6 
#
# 1 138.9001 80.2335 77.9039 -0.0010 -11.5300 0.0004
# 2 80.2335 197.6765 60.4561 -0.0005 3.6332 0.0000
# 3 77.9039 60.4561 137.9420 -0.0009 2.1745 0.0002
# 4 -0.0010 -0.0005 -0.0009 -113.0395 0.0012 64.1097
# 5 -11.5300 3.6332 2.1745 0.0012 25.7629 -0.0005
# 6 0.0004 0.0000 0.0002 64.1097 -0.0005 8.3225
#
#
#
# Elastic Compliance Matrix: (Units=1/GPa)
#
#
# Indices 1 2 3 4 5 6 
#
# 1 0.013259 -0.003679 -0.005986 0.000000 0.006958 0.000000
# 2 -0.003679 0.006872 -0.000894 0.000000 -0.002540 0.000000
# 3 -0.005986 -0.000894 0.011077 0.000000 -0.003488 0.000000
# 4 0.000000 0.000000 0.000000 -0.001648 0.000000 0.012693
# 5 0.006958 -0.002540 -0.003488 0.000000 0.042582 0.000000
# 6 0.000000 0.000000 0.000000 0.012693 0.000000 0.022380
#
#
# Mechanical properties :
#
#
# Convention : Reuss Voigt Hill
#
# Bulk Modulus (GPa) = 99.10058 101.30062 100.20060
# Shear Modulus (GPa) = 42.01555 1.27084 21.64320
#
# Velocity S-wave (km/s) = 4.23273 0.73614 3.03792
# Velocity P-wave (km/s) = 8.13301 6.62710 7.41837
#
# Compressibility (1/GPa) = 0.01009076
#
# Stress axis : x y z
#
# Youngs Moduli (GPa) = 75.41947 145.51511 90.28024
#
# Poissons Ratio (x) = 0.53535 0.54037
# Poissons Ratio (y) = 0.27747 0.08072
# Poissons Ratio (z) = 0.45142 0.13010
#
# Static dielectric constant tensor:
#      x y z
#    x 1.922030 0.000000 -0.033620 
#    y 0.000000 1.914220 0.000000 
#    z -0.033620 0.000000 2.052700 
# 
# From -- ./inp_files/26968.got.cif
#   From: 2010.05.17/outbox.cif.g08.bks.cpg/sg15_14_cif.got.tgz:26968.got - 2010.06.03 18:47:42.
