data_PCOD9306943
_publ_section_title
;
Structure prediction by ZEFSAII (Michael W. Deem and Ramdas Pophale) SiO2 
 PCOD9306943
Probable space group: C 2/C
;
_chemical_formula_sum "Si O2"
_cell_formula_units_Z 48
_cell_length_a 18.476285
_cell_length_b 29.401646
_cell_length_c 5.224481
_cell_angle_alpha 90.000000
_cell_angle_beta 105.080792
_cell_angle_gamma 90.000000
_cell_volume 2740.366667
_symmetry_space_group_name_H-M "C 2/C"
_symmetry_group_IT_number 15
_symmetry_cell_setting 'monoclinic'
loop_
_space_group_symop_operation_xyz
x,y,z
-x,y,1/2-z
-x,-y,-z
x,-y,1/2+z
1/2+x,1/2+y,z
1/2-x,1/2+y,1/2-z
1/2-x,1/2-y,-z
1/2+x,1/2-y,1/2+z
loop_
_atom_site_type_symbol
_atom_site_label
_atom_site_fract_x
_atom_site_fract_y
_atom_site_fract_z
Si Si1 0.000000 0.043375 0.250000
Si Si2 0.171659 0.973109 0.817614
Si Si3 0.129158 0.163169 0.840652
Si Si4 0.500000 0.402124 0.250000
Si Si5 0.792786 0.133938 0.099579
Si Si6 0.816418 0.289244 0.075974
Si Si7 0.411992 0.767492 0.668224
O O1 0.919934 0.023531 0.266292
O O2 0.023722 0.070077 0.525808
O O3 0.198847 0.920659 0.866300
O O4 0.197426 0.996658 0.580267
O O5 0.068062 0.128896 0.895568
O O6 0.149220 0.149007 0.570358
O O7 0.096236 0.213150 0.812062
O O8 0.194113 0.156861 0.109579
O O9 0.718984 0.160394 0.935923
O O10 0.868653 0.279812 0.368109
O O11 0.750000 0.250000 0.000000
O O12 0.866475 0.286561 0.867953
O O13 0.500000 0.779783 0.750000
#
# Coordination Sequence:
#
# PCOD9306943 Si02
#       7
#     4   8   8   4   8   8   8
#     4  12  22  37  54  76 108 154 194 254 288 325
#     4  12  24  39  54  78 109 149 198 246 290 337
#     4  12  20  35  55  81 111 154 192 239 276 334
#     4  12  20  33  52  80 110 148 206 230 282 333
#     4  12  24  38  59  78 113 150 198 240 284 334
#     4  12  23  40  61  89 119 157 202 240 290 355
#     4  12  24  38  59  89 124 157 195 245 291 348
#
# _framework density 17.515903000000002
#
# number of rings (size 3 to 8) (size 9 to 14) (size 15 to 20)
#    0.000    0.000    7.500    4.500    0.000    0.000 
#    0.000    0.000    0.000    0.000    0.000    0.000 
#    0.000   13.333    0.000    0.000    0.000    0.000 
#
# Total GULP energy -133925.713243 kJ/mol
# GULP energy per Si atom -5580.238052 kJ/mol
# Density = 1.747604 g / cm^3
# Si number density = 17.515903 Si / 1000 Ang^3
#
#
#
# Elastic Constant Matrix: (Units=GPa)
#
#
# Indices 1 2 3 4 5 6 
#
# 1 81.8279 32.1758 28.1974 0.0000 5.2564 0.0000
# 2 32.1758 87.3161 19.2029 0.0000 11.6396 0.0000
# 3 28.1974 19.2029 99.5342 0.0000 4.0832 0.0000
# 4 0.0000 0.0000 0.0000 38.2096 0.0000 -9.8591
# 5 5.2564 11.6396 4.0832 0.0000 25.4837 0.0000
# 6 0.0000 0.0000 0.0000 -9.8591 0.0000 42.7079
#
#
#
# Elastic Compliance Matrix: (Units=1/GPa)
#
#
# Indices 1 2 3 4 5 6 
#
# 1 0.015320 -0.004846 -0.003389 0.000000 -0.000403 0.000000
# 2 -0.004846 0.014198 -0.001149 0.000000 -0.005301 0.000000
# 3 -0.003389 -0.001149 0.011252 0.000000 -0.000579 0.000000
# 4 0.000000 0.000000 0.000000 0.027829 0.000000 0.006424
# 5 -0.000403 -0.005301 -0.000579 0.000000 0.041838 0.000000
# 6 0.000000 0.000000 0.000000 0.006424 0.000000 0.024898
#
#
# Mechanical properties :
#
#
# Convention : Reuss Voigt Hill
#
# Bulk Modulus (GPa) = 45.44899 47.53672 46.49285
# Shear Modulus (GPa) = 30.97194 33.88706 32.42950
#
# Velocity S-wave (km/s) = 4.20958 4.40323 4.30749
# Velocity P-wave (km/s) = 7.04493 7.28350 7.16521
#
# Compressibility (1/GPa) = 0.02200269
#
# Stress axis : x y z
#
# Youngs Moduli (GPa) = 65.27412 70.43332 88.87211
#
# Poissons Ratio (x) = 0.34135 0.30114
# Poissons Ratio (y) = 0.31634 0.10209
# Poissons Ratio (z) = 0.22118 0.08091
#
# Static dielectric constant tensor:
#      x y z
#    x 1.577730 0.000000 0.017080 
#    y 0.000000 1.620290 0.000000 
#    z 0.017080 0.000000 1.645620 
# 
# From -- ./inp_files/8680.got.cif
#   From: 2010.05.17/outbox.cif.g08.bks.cpg/sg15_5_cif.got.tgz:8680.got - 2010.06.03 18:47:42.
