data_PCOD9306995
_publ_section_title
;
Structure prediction by ZEFSAII (Michael W. Deem and Ramdas Pophale) SiO2 
 PCOD9306995
Probable space group: C 2/C
;
_chemical_formula_sum "Si O2"
_cell_formula_units_Z 44
_cell_length_a 11.336514
_cell_length_b 11.029848
_cell_length_c 21.688719
_cell_angle_alpha 90.000000
_cell_angle_beta 49.418353
_cell_angle_gamma 90.000000
_cell_volume 2059.677110
_symmetry_space_group_name_H-M "C 2/C"
_symmetry_group_IT_number 15
_symmetry_cell_setting 'monoclinic'
loop_
_space_group_symop_operation_xyz
x,y,z
-x,y,1/2-z
-x,-y,-z
x,-y,1/2+z
1/2+x,1/2+y,z
1/2-x,1/2+y,1/2-z
1/2-x,1/2-y,-z
1/2+x,1/2-y,1/2+z
loop_
_atom_site_type_symbol
_atom_site_label
_atom_site_fract_x
_atom_site_fract_y
_atom_site_fract_z
Si Si1 0.000000 0.883155 0.750000
Si Si2 0.367552 0.830525 0.215392
Si Si3 0.296855 0.877834 0.454587
Si Si4 0.329058 0.478388 0.123477
Si Si5 0.140817 0.047245 0.596464
Si Si6 0.674411 0.767125 0.670011
O O1 0.896556 0.794393 0.742809
O O2 0.900457 0.966041 0.829622
O O3 0.530745 0.869974 0.131066
O O4 0.300507 0.926799 0.285839
O O5 0.169763 0.818357 0.111680
O O6 0.250000 0.750000 0.500000
O O7 0.184367 0.905178 0.435300
O O8 0.276968 0.983056 0.511880
O O9 0.491142 0.461211 0.102946
O O10 0.282946 0.616365 0.125040
O O11 0.746810 0.691370 0.701842
O O12 0.500000 0.801270 0.750000
#
# Coordination Sequence:
#
# PCOD9306995 Si02
#       6
#     4   8   8   8   8   8
#     4  12  20  46  70 100 134 182 238 280 356 428
#     4  12  23  43  74 100 137 189 236 291 355 430
#     4  12  24  44  70 104 141 186 237 299 362 420
#     4  12  24  47  70 103 143 187 242 290 352 438
#     4  12  25  44  71 102 141 187 233 298 365 418
#     4  12  25  43  71 103 139 186 241 295 354 423
#
# _framework density 21.362572
#
# number of rings (size 3 to 8) (size 9 to 14) (size 15 to 20)
#    0.000    0.000    8.182    1.636    0.000    1.455 
#    0.000    0.000    0.000    0.000    0.000    0.000 
#    0.000    0.000    0.000    0.000    0.000    0.000 
#
# Total GULP energy -123236.085346 kJ/mol
# GULP energy per Si atom -5601.640243 kJ/mol
# Density = 2.131395 g / cm^3
# Si number density = 21.362572 Si / 1000 Ang^3
#
#
#
# Elastic Constant Matrix: (Units=GPa)
#
#
# Indices 1 2 3 4 5 6 
#
# 1 115.2577 48.5089 32.6124 0.0000 24.1996 0.0000
# 2 48.5089 132.9320 41.8253 0.0000 19.4793 0.0000
# 3 32.6124 41.8253 116.0891 0.0000 17.2624 0.0000
# 4 0.0000 0.0000 0.0000 19.8760 0.0000 -4.9124
# 5 24.1996 19.4793 17.2624 0.0000 23.1836 0.0000
# 6 0.0000 0.0000 0.0000 -4.9124 0.0000 -8.7215
#
#
#
# Elastic Compliance Matrix: (Units=1/GPa)
#
#
# Indices 1 2 3 4 5 6 
#
# 1 0.012117 -0.002695 -0.001000 0.000000 -0.009640 0.000000
# 2 -0.002695 0.009745 -0.002198 0.000000 -0.003739 0.000000
# 3 -0.001000 -0.002198 0.010410 0.000000 -0.004860 0.000000
# 4 0.000000 0.000000 0.000000 0.044164 0.000000 -0.024875
# 5 -0.009640 -0.003739 -0.004860 0.000000 0.059957 0.000000
# 6 0.000000 0.000000 0.000000 -0.024875 0.000000 -0.100649
#
#
# Mechanical properties :
#
#
# Convention : Reuss Voigt Hill
#
# Bulk Modulus (GPa) = 48.81118 67.79687 58.30402
# Shear Modulus (GPa) = 91.98209 22.95644 57.46926
#
# Velocity S-wave (km/s) = 6.56895 3.28168 5.19233
# Velocity P-wave (km/s) = 8.96846 6.79444 7.95606
#
# Compressibility (1/GPa) = 0.02048711
#
# Stress axis : x y z
#
# Youngs Moduli (GPa) = 82.52767 102.61187 96.06463
#
# Poissons Ratio (x) = 0.27650 0.09604
# Poissons Ratio (y) = 0.22238 0.21117
# Poissons Ratio (z) = 0.08251 0.22556
#
# Static dielectric constant tensor:
#      x y z
#    x 1.763540 0.000000 -0.012390 
#    y 0.000000 1.786640 0.000000 
#    z -0.012390 0.000000 1.782540 
# 
# From -- ./inp_files/189170.got.cif
#   From: 2010.05.17/outbox.cif.g08.bks.cpg/sg15_95_cif.got.tgz:189170.got - 2010.06.03 18:47:42.
