data_PCOD9306815
_publ_section_title
;
Structure prediction by ZEFSAII (Michael W. Deem and Ramdas Pophale) SiO2 
 PCOD9306815
Probable space group: C 2/C
;
_chemical_formula_sum "Si O2"
_cell_formula_units_Z 36
_cell_length_a 5.335777
_cell_length_b 21.367255
_cell_length_c 14.370582
_cell_angle_alpha 90.000000
_cell_angle_beta 106.398857
_cell_angle_gamma 90.000000
_cell_volume 1571.752217
_symmetry_space_group_name_H-M "C 2/C"
_symmetry_group_IT_number 15
_symmetry_cell_setting 'monoclinic'
loop_
_space_group_symop_operation_xyz
x,y,z
-x,y,1/2-z
-x,-y,-z
x,-y,1/2+z
1/2+x,1/2+y,z
1/2-x,1/2+y,1/2-z
1/2-x,1/2-y,-z
1/2+x,1/2-y,1/2+z
loop_
_atom_site_type_symbol
_atom_site_label
_atom_site_fract_x
_atom_site_fract_y
_atom_site_fract_z
Si Si1 0.500000 0.643501 0.750000
Si Si2 0.600711 0.035568 0.662084
Si Si3 0.491012 0.671556 0.144800
Si Si4 0.331612 0.551831 0.033399
Si Si5 0.050290 0.745855 0.392601
O O1 0.265789 0.595707 0.709075
O O2 0.523059 0.688367 0.662851
O O3 0.500000 0.009439 0.750000
O O4 0.400574 0.061507 0.563897
O O5 0.741736 0.980089 0.620346
O O6 0.500000 0.645820 0.250000
O O7 0.479301 0.615537 0.070334
O O8 0.756377 0.710509 0.159185
O O9 0.219975 0.711026 0.109304
O O10 0.500000 0.500000 0.000000
O O11 0.250000 0.750000 0.500000
#
# Coordination Sequence:
#
# PCOD9306815 Si02
#       5
#     4   8   8   8   8
#     4  12  26  48  72 112 148 200 258 310 390 456
#     4  11  27  46  78 109 152 202 254 328 383 481
#     4  12  27  50  76 113 150 203 250 322 387 462
#     4  11  28  49  75 116 151 199 262 322 402 460
#     4  12  28  49  79 109 153 202 256 316 377 463
#
# _framework density 22.904375000000002
#
# number of rings (size 3 to 8) (size 9 to 14) (size 15 to 20)
#    0.000    0.444    2.222    3.333   20.222    0.000 
#    0.000    0.000    0.000    0.000    0.000    0.000 
#    0.000    0.000    0.000    0.000    0.000    0.000 
#
# Total GULP energy -100699.140238 kJ/mol
# GULP energy per Si atom -5594.396680 kJ/mol
# Density = 2.285224 g / cm^3
# Si number density = 22.904375 Si / 1000 Ang^3
#
#
#
# Elastic Constant Matrix: (Units=GPa)
#
#
# Indices 1 2 3 4 5 6 
#
# 1 122.9783 59.4101 44.9117 0.0000 7.2311 0.0000
# 2 59.4101 71.6120 64.8989 0.0000 16.1142 0.0000
# 3 44.9117 64.8989 136.3745 0.0000 -6.5704 0.0000
# 4 0.0000 0.0000 0.0000 68.9845 0.0000 2.4983
# 5 7.2311 16.1142 -6.5704 0.0000 49.4356 0.0000
# 6 0.0000 0.0000 0.0000 2.4983 0.0000 24.4010
#
#
#
# Elastic Compliance Matrix: (Units=1/GPa)
#
#
# Indices 1 2 3 4 5 6 
#
# 1 0.014119 -0.014615 0.002451 0.000000 0.003025 0.000000
# 2 -0.014615 0.045258 -0.017444 0.000000 -0.014933 0.000000
# 3 0.002451 -0.017444 0.015181 0.000000 0.007345 0.000000
# 4 0.000000 0.000000 0.000000 0.014550 0.000000 -0.001490
# 5 0.003025 -0.014933 0.007345 0.000000 0.025630 0.000000
# 6 0.000000 0.000000 0.000000 -0.001490 0.000000 0.041134
#
#
# Mechanical properties :
#
#
# Convention : Reuss Voigt Hill
#
# Bulk Modulus (GPa) = 65.18186 74.37845 69.78016
# Shear Modulus (GPa) = 22.70637 39.34719 31.02678
#
# Velocity S-wave (km/s) = 3.15200 4.14924 3.68451
# Velocity P-wave (km/s) = 6.46272 7.44976 6.97373
#
# Compressibility (1/GPa) = 0.01534169
#
# Stress axis : x y z
#
# Youngs Moduli (GPa) = 70.82620 22.09544 65.87271
#
# Poissons Ratio (x) = 0.32293 -0.16147
# Poissons Ratio (y) = 1.03515 1.14909
# Poissons Ratio (z) = -0.17361 0.38543
#
# Static dielectric constant tensor:
#      x y z
#    x 1.885070 0.000000 -0.099480 
#    y 0.000000 1.796760 0.000000 
#    z -0.099480 0.000000 1.766390 
# 
# From -- ./inp_files/129218.got.cif
#   From: 2010.05.17/outbox.cif.g08.bks.cpg/sg15_65_cif.got.tgz:129218.got - 2010.06.03 18:47:42.
