data_PCOD9306408
_publ_section_title
;
Structure prediction by ZEFSAII (Michael W. Deem and Ramdas Pophale) SiO2 
 PCOD9306408
Probable space group: C 2/C
;
_chemical_formula_sum "Si O2"
_cell_formula_units_Z 48
_cell_length_a 9.022784
_cell_length_b 10.473135
_cell_length_c 26.482997
_cell_angle_alpha 90.000000
_cell_angle_beta 63.430584
_cell_angle_gamma 90.000000
_cell_volume 2238.271904
_symmetry_space_group_name_H-M "C 2/C"
_symmetry_group_IT_number 15
_symmetry_cell_setting 'monoclinic'
loop_
_space_group_symop_operation_xyz
x,y,z
-x,y,1/2-z
-x,-y,-z
x,-y,1/2+z
1/2+x,1/2+y,z
1/2-x,1/2+y,1/2-z
1/2-x,1/2-y,-z
1/2+x,1/2-y,1/2+z
loop_
_atom_site_type_symbol
_atom_site_label
_atom_site_fract_x
_atom_site_fract_y
_atom_site_fract_z
Si Si1 0.194971 0.332515 0.207911
Si Si2 0.237369 0.738202 0.584396
Si Si3 0.694939 0.873887 0.731205
Si Si4 0.694198 0.480419 0.962950
Si Si5 0.426895 0.860462 0.004292
Si Si6 0.609784 0.308194 0.892360
O O1 0.218942 0.308269 0.144608
O O2 0.275839 0.209194 0.222950
O O3 0.251878 0.475717 0.218051
O O4 0.000000 0.327580 0.250000
O O5 0.217852 0.616014 0.550836
O O6 0.422196 0.786589 0.545832
O O7 0.083962 0.829122 0.592304
O O8 0.500000 0.876167 0.750000
O O9 0.793051 0.791157 0.674144
O O10 0.770859 0.385097 0.991600
O O11 0.702634 0.423982 0.905658
O O12 0.500000 0.500000 0.000000
O O13 0.383122 0.798033 0.064761
O O14 0.500000 0.000000 0.000000
#
# Coordination Sequence:
#
# PCOD9306408 Si02
#       6
#     8   8   8   8   8   8
#     4  11  25  48  72 100 140 188 236 298 353 417
#     4  12  25  45  73  99 142 187 233 289 359 423
#     4  11  27  46  73 103 141 185 243 294 354 421
#     4  12  25  44  69 103 143 184 231 288 354 424
#     4  12  26  43  72 108 143 183 234 286 357 426
#     4  12  24  46  69 102 140 185 232 289 351 425
#
# _framework density 21.445117
#
# number of rings (size 3 to 8) (size 9 to 14) (size 15 to 20)
#    0.000    0.333    6.667    2.000    2.333    2.000 
#    3.000    0.000    0.000    0.000    0.000    0.000 
#    0.000    0.000    0.000    0.000    0.000    0.000 
#
# Total GULP energy -133963.153946 kJ/mol
# GULP energy per Si atom -5581.798081 kJ/mol
# Density = 2.139631 g / cm^3
# Si number density = 21.445117 Si / 1000 Ang^3
#
#
#
# Elastic Constant Matrix: (Units=GPa)
#
#
# Indices 1 2 3 4 5 6 
#
# 1 112.8374 37.6464 9.6233 0.0000 7.6451 0.0000
# 2 37.6464 104.6275 22.4593 0.0000 7.9158 0.0000
# 3 9.6233 22.4593 82.3468 0.0000 7.2224 0.0000
# 4 0.0000 0.0000 0.0000 28.6853 0.0000 1.1672
# 5 7.6451 7.9158 7.2224 0.0000 30.8460 0.0000
# 6 0.0000 0.0000 0.0000 1.1672 0.0000 28.7278
#
#
#
# Elastic Compliance Matrix: (Units=1/GPa)
#
#
# Indices 1 2 3 4 5 6 
#
# 1 0.010150 -0.003512 -0.000088 0.000000 -0.001594 0.000000
# 2 -0.003512 0.011490 -0.002594 0.000000 -0.001471 0.000000
# 3 -0.000088 -0.002594 0.013070 0.000000 -0.002373 0.000000
# 4 0.000000 0.000000 0.000000 0.034919 0.000000 -0.001419
# 5 -0.001594 -0.001471 -0.002373 0.000000 0.033747 0.000000
# 6 0.000000 0.000000 0.000000 -0.001419 0.000000 0.034867
#
#
# Mechanical properties :
#
#
# Convention : Reuss Voigt Hill
#
# Bulk Modulus (GPa) = 44.80502 48.80775 46.80639
# Shear Modulus (GPa) = 31.63120 32.99067 32.31093
#
# Velocity S-wave (km/s) = 3.84472 3.92647 3.88581
# Velocity P-wave (km/s) = 6.37553 6.58521 6.48122
#
# Compressibility (1/GPa) = 0.02231893
#
# Stress axis : x y z
#
# Youngs Moduli (GPa) = 98.52520 87.03460 76.51268
#
# Poissons Ratio (x) = 0.30571 0.00676
# Poissons Ratio (y) = 0.34607 0.19849
# Poissons Ratio (z) = 0.00871 0.22579
#
# Static dielectric constant tensor:
#      x y z
#    x 2.099220 0.000000 0.429610 
#    y 0.000000 1.916030 0.000000 
#    z 0.429610 0.000000 2.317150 
# 
# From -- ./inp_files/263181.got.cif
#   From: 2010.05.17/outbox.cif.g08.bks.cpg/sg15_132_cif.got.tgz:263181.got - 2010.06.03 18:47:42.
