data_PCOD9306921
_publ_section_title
;
Structure prediction by ZEFSAII (Michael W. Deem and Ramdas Pophale) SiO2 
 PCOD9306921
Probable space group: C 2/C
;
_chemical_formula_sum "Si O2"
_cell_formula_units_Z 64
_cell_length_a 23.859143
_cell_length_b 18.336336
_cell_length_c 7.611137
_cell_angle_alpha 90.000000
_cell_angle_beta 91.199236
_cell_angle_gamma 90.000000
_cell_volume 3329.061366
_symmetry_space_group_name_H-M "C 2/C"
_symmetry_group_IT_number 15
_symmetry_cell_setting 'monoclinic'
loop_
_space_group_symop_operation_xyz
x,y,z
-x,y,1/2-z
-x,-y,-z
x,-y,1/2+z
1/2+x,1/2+y,z
1/2-x,1/2+y,1/2-z
1/2-x,1/2-y,-z
1/2+x,1/2-y,1/2+z
loop_
_atom_site_type_symbol
_atom_site_label
_atom_site_fract_x
_atom_site_fract_y
_atom_site_fract_z
Si Si1 0.872170 0.959291 0.678020
Si Si2 0.840519 0.265646 0.210485
Si Si3 0.233289 0.670360 0.297417
Si Si4 0.562812 0.393397 0.323272
Si Si5 0.160058 0.792531 0.187047
Si Si6 0.063081 0.164997 0.211732
Si Si7 0.767976 0.610729 0.603564
Si Si8 0.219336 0.039869 0.067747
O O1 0.912000 0.891229 0.638892
O O2 0.830169 0.925643 0.817782
O O3 0.911569 0.027585 0.725786
O O4 0.823097 0.995483 0.559221
O O5 0.786927 0.222984 0.284091
O O6 0.896377 0.234503 0.302391
O O7 0.821039 0.349426 0.194855
O O8 0.846514 0.240423 0.007515
O O9 0.181292 0.725451 0.308042
O O10 0.241912 0.610585 0.449941
O O11 0.229063 0.628433 0.107011
O O12 0.500000 0.385962 0.250000
O O13 0.605841 0.333312 0.253430
O O14 0.561928 0.382549 0.533363
O O15 0.210936 0.850495 0.168844
O O16 0.000000 0.186480 0.250000
O O17 0.759057 0.525317 0.638487
#
# Coordination Sequence:
#
# PCOD9306921 Si02
#       8
#     8   8   8   8   8   8   8   8
#     4  12  23  34  52  74 110 142 178 213 248 306
#     4   9  17  35  53  73  99 138 176 212 256 312
#     4   9  17  32  53  77 104 134 173 211 259 312
#     4  12  25  37  52  76 102 140 183 220 260 298
#     4   9  18  34  55  74  99 136 174 219 258 303
#     4  12  25  38  52  73 104 142 183 220 254 307
#     4   9  17  30  54  75 102 139 172 206 263 311
#     4  12  19  34  53  79 109 142 172 211 257 308
#
# _framework density 19.224637999999999
#
# number of rings (size 3 to 8) (size 9 to 14) (size 15 to 20)
#    0.000    1.500    5.000    3.375    1.750    1.000 
#    2.250    1.875    0.000    0.000    0.000    0.875 
#    0.000    6.000    0.000    0.000    0.000    0.000 
#
# Total GULP energy -178386.910829 kJ/mol
# GULP energy per Si atom -5574.590963 kJ/mol
# Density = 1.918088 g / cm^3
# Si number density = 19.224638 Si / 1000 Ang^3
#
#
#
# Elastic Constant Matrix: (Units=GPa)
#
#
# Indices 1 2 3 4 5 6 
#
# 1 123.8554 70.9615 18.3265 0.0000 6.1700 0.0000
# 2 70.9615 91.0488 19.3463 0.0000 6.7810 0.0000
# 3 18.3265 19.3463 33.5857 0.0000 10.7936 0.0000
# 4 0.0000 0.0000 0.0000 18.4976 0.0000 4.4386
# 5 6.1700 6.7810 10.7936 0.0000 22.8783 0.0000
# 6 0.0000 0.0000 0.0000 4.4386 0.0000 25.2751
#
#
#
# Elastic Compliance Matrix: (Units=1/GPa)
#
#
# Indices 1 2 3 4 5 6 
#
# 1 0.014665 -0.011087 -0.001651 0.000000 0.000110 0.000000
# 2 -0.011087 0.020899 -0.005845 0.000000 -0.000447 0.000000
# 3 -0.001651 -0.005845 0.039302 0.000000 -0.016364 0.000000
# 4 0.000000 0.000000 0.000000 0.056439 0.000000 -0.009911
# 5 0.000110 -0.000447 -0.016364 0.000000 0.051533 0.000000
# 6 0.000000 0.000000 0.000000 -0.009911 0.000000 0.041305
#
#
# Mechanical properties :
#
#
# Convention : Reuss Voigt Hill
#
# Bulk Modulus (GPa) = 26.52580 51.75094 39.13837
# Shear Modulus (GPa) = 18.25646 22.65391 20.45518
#
# Velocity S-wave (km/s) = 3.08496 3.43648 3.26545
# Velocity P-wave (km/s) = 5.14948 6.53631 5.88389
#
# Compressibility (1/GPa) = 0.03769915
#
# Stress axis : x y z
#
# Youngs Moduli (GPa) = 68.19034 47.84862 25.44428
#
# Poissons Ratio (x) = 0.53049 0.04201
# Poissons Ratio (y) = 0.75601 0.14873
# Poissons Ratio (z) = 0.11259 0.27969
#
# Static dielectric constant tensor:
#      x y z
#    x 1.662730 0.000000 0.047990 
#    y 0.000000 1.692400 0.000000 
#    z 0.047990 0.000000 1.894630 
# 
# From -- ./inp_files/56642.got.cif
#   From: 2010.05.17/outbox.cif.g08.bks.cpg/sg15_29_cif.got.tgz:56642.got - 2010.06.03 18:47:42.
