data_PCOD9306145
_publ_section_title
;
Structure prediction by ZEFSAII (Michael W. Deem and Ramdas Pophale) SiO2 
 PCOD9306145
Probable space group: C 2/C
;
_chemical_formula_sum "Si O2"
_cell_formula_units_Z 44
_cell_length_a 6.729326
_cell_length_b 21.798653
_cell_length_c 17.316109
_cell_angle_alpha 90.000000
_cell_angle_beta 119.467128
_cell_angle_gamma 90.000000
_cell_volume 2211.511437
_symmetry_space_group_name_H-M "C 2/C"
_symmetry_group_IT_number 15
_symmetry_cell_setting 'monoclinic'
loop_
_space_group_symop_operation_xyz
x,y,z
-x,y,1/2-z
-x,-y,-z
x,-y,1/2+z
1/2+x,1/2+y,z
1/2-x,1/2+y,1/2-z
1/2-x,1/2-y,-z
1/2+x,1/2-y,1/2+z
loop_
_atom_site_type_symbol
_atom_site_label
_atom_site_fract_x
_atom_site_fract_y
_atom_site_fract_z
Si Si1 0.609776 0.934662 0.009020
Si Si2 0.700111 0.901056 0.851272
Si Si3 0.550988 0.512031 0.669993
Si Si4 0.386337 0.835355 0.075289
Si Si5 0.897188 0.217939 0.459269
Si Si6 0.500000 0.905818 0.250000
O O1 0.458417 0.883264 0.022230
O O2 0.858450 0.944901 0.094584
O O3 0.622980 0.923163 0.920828
O O4 0.500000 0.000000 0.000000
O O5 0.500000 0.905780 0.750000
O O6 0.765903 0.830678 0.880570
O O7 0.903676 0.946827 0.863397
O O8 0.500000 0.500531 0.750000
O O9 0.782928 0.550174 0.709599
O O10 0.505644 0.772157 0.074687
O O11 0.483794 0.863887 0.171751
O O12 0.117169 0.820464 0.031923
O O13 0.750000 0.250000 0.500000
#
# Coordination Sequence:
#
# PCOD9306145 Si02
#       6
#     8   8   8   8   8   4
#     4  12  23  44  73 104 143 190 228 298 372 426
#     4  12  25  44  69 104 142 185 240 292 359 436
#     4  12  24  45  71 106 148 181 238 299 368 444
#     4  11  25  45  71 101 135 185 242 291 359 434
#     4  11  25  49  69  95 141 190 243 296 352 432
#     4  12  24  44  70 108 138 178 238 296 366 440
#
# _framework density 19.895893999999998
#
# number of rings (size 3 to 8) (size 9 to 14) (size 15 to 20)
#    0.000    0.364    4.545    4.909    0.000    1.455 
#    1.636    0.000    0.000    0.000    0.000    0.000 
#    0.000    0.000    0.000    0.000    0.000    0.000 
#
# Total GULP energy -123001.465338 kJ/mol
# GULP energy per Si atom -5590.975697 kJ/mol
# Density = 1.985061 g / cm^3
# Si number density = 19.895894 Si / 1000 Ang^3
#
#
#
# Elastic Constant Matrix: (Units=GPa)
#
#
# Indices 1 2 3 4 5 6 
#
# 1 113.8049 46.5806 63.2425 0.0000 0.4508 0.0000
# 2 46.5806 131.7577 44.4622 0.0000 -1.0531 0.0000
# 3 63.2425 44.4622 121.0565 0.0000 -13.6418 0.0000
# 4 0.0000 0.0000 0.0000 6.2288 0.0000 -15.6301
# 5 0.4508 -1.0531 -13.6418 0.0000 46.5846 0.0000
# 6 0.0000 0.0000 0.0000 -15.6301 0.0000 45.0220
#
#
#
# Elastic Compliance Matrix: (Units=1/GPa)
#
#
# Indices 1 2 3 4 5 6 
#
# 1 0.013330 -0.002628 -0.006225 0.000000 -0.002011 0.000000
# 2 -0.002628 0.009208 -0.002050 0.000000 -0.000367 0.000000
# 3 -0.006225 -0.002050 0.012686 0.000000 0.003729 0.000000
# 4 0.000000 0.000000 0.000000 1.246066 0.000000 0.432592
# 5 -0.002011 -0.000367 0.003729 0.000000 0.022569 0.000000
# 6 0.000000 0.000000 0.000000 0.432592 0.000000 0.172393
#
#
# Mechanical properties :
#
#
# Convention : Reuss Voigt Hill
#
# Bulk Modulus (GPa) = 74.53405 75.02107 74.77756
# Shear Modulus (GPa) = 3.32772 33.72266 18.52519
#
# Velocity S-wave (km/s) = 1.29468 4.12145 3.05471
# Velocity P-wave (km/s) = 6.30700 7.77413 7.07868
#
# Compressibility (1/GPa) = 0.01341669
#
# Stress axis : x y z
#
# Youngs Moduli (GPa) = 75.01861 108.60493 78.82634
#
# Poissons Ratio (x) = 0.28540 0.49072
# Poissons Ratio (y) = 0.19714 0.16162
# Poissons Ratio (z) = 0.46702 0.22267
#
# Static dielectric constant tensor:
#      x y z
#    x 1.355600 0.000000 -0.183160 
#    y 0.000000 1.576290 0.000000 
#    z -0.183160 0.000000 1.540400 
# 
# From -- ./inp_files/129347.got.cif
#   From: 2010.05.17/outbox.cif.g08.bks.cpg/sg15_65_cif.got.tgz:129347.got - 2010.06.03 18:47:42.
