data_PCOD9306284
_publ_section_title
;
Structure prediction by ZEFSAII (Michael W. Deem and Ramdas Pophale) SiO2 
 PCOD9306284
Probable space group: C 2/C
;
_chemical_formula_sum "Si O2"
_cell_formula_units_Z 40
_cell_length_a 29.918439
_cell_length_b 4.889251
_cell_length_c 9.217701
_cell_angle_alpha 90.000000
_cell_angle_beta 100.667356
_cell_angle_gamma 90.000000
_cell_volume 1325.052167
_symmetry_space_group_name_H-M "C 2/C"
_symmetry_group_IT_number 15
_symmetry_cell_setting 'monoclinic'
loop_
_space_group_symop_operation_xyz
x,y,z
-x,y,1/2-z
-x,-y,-z
x,-y,1/2+z
1/2+x,1/2+y,z
1/2-x,1/2+y,1/2-z
1/2-x,1/2-y,-z
1/2+x,1/2-y,1/2+z
loop_
_atom_site_type_symbol
_atom_site_label
_atom_site_fract_x
_atom_site_fract_y
_atom_site_fract_z
Si Si1 0.852896 0.546657 0.107522
Si Si2 0.644357 0.368170 0.128941
Si Si3 0.548092 0.146287 0.725963
Si Si4 0.547988 0.592493 0.959872
Si Si5 0.281108 0.737944 0.260956
O O1 0.850188 0.830868 0.194893
O O2 0.905256 0.478963 0.187904
O O3 0.812047 0.376263 0.157026
O O4 0.851388 0.424071 0.945354
O O5 0.595907 0.483658 0.053574
O O6 0.684659 0.575575 0.111255
O O7 0.500000 0.016438 0.750000
O O8 0.549371 0.122249 0.552353
O O9 0.547875 0.450164 0.801631
O O10 0.500000 0.500000 0.000000
O O11 0.252095 0.990246 0.307742
#
# Coordination Sequence:
#
# PCOD9306284 Si02
#       5
#     8   8   8   8   8
#     4  11  25  46  73 106 154 194 254 315 380 458
#     4  11  25  46  74 108 153 199 254 318 385 459
#     4   9  18  36  63  97 140 183 240 296 371 444
#     4   9  18  36  64  99 137 186 241 299 369 446
#     4  12  26  50  76 116 148 201 258 326 387 451
#
# _framework density 30.18749
#
# number of rings (size 3 to 8) (size 9 to 14) (size 15 to 20)
#    0.000    1.600    4.000    0.000    0.000    4.800 
#    0.000   12.000    0.000    0.000    0.000    0.000 
#    0.000    0.000    0.000    0.000    0.000    0.000 
#
# Total GULP energy -111703.011061 kJ/mol
# GULP energy per Si atom -5585.150553 kJ/mol
# Density = 3.011878 g / cm^3
# Si number density = 30.187490 Si / 1000 Ang^3
#
#
#
# Elastic Constant Matrix: (Units=GPa)
#
#
# Indices 1 2 3 4 5 6 
#
# 1 227.3577 40.3606 31.7926 0.0000 2.6139 0.0000
# 2 40.3606 103.6293 -19.6335 0.0000 -3.6645 0.0000
# 3 31.7926 -19.6335 137.3492 0.0000 -6.0104 0.0000
# 4 0.0000 0.0000 0.0000 26.2883 0.0000 -1.9272
# 5 2.6139 -3.6645 -6.0104 0.0000 51.9430 0.0000
# 6 0.0000 0.0000 0.0000 -1.9272 0.0000 72.8496
#
#
#
# Elastic Compliance Matrix: (Units=1/GPa)
#
#
# Indices 1 2 3 4 5 6 
#
# 1 0.005018 -0.002261 -0.001510 0.000000 -0.000587 0.000000
# 2 -0.002261 0.010976 0.002142 0.000000 0.001136 0.000000
# 3 -0.001510 0.002142 0.007987 0.000000 0.001151 0.000000
# 4 0.000000 0.000000 0.000000 0.038114 0.000000 0.001008
# 5 -0.000587 0.001136 0.001151 0.000000 0.019495 0.000000
# 6 0.000000 0.000000 0.000000 0.001008 0.000000 0.013754
#
#
# Mechanical properties :
#
#
# Convention : Reuss Voigt Hill
#
# Bulk Modulus (GPa) = 48.25713 63.70841 55.98277
# Shear Modulus (GPa) = 47.38923 57.93729 52.66326
#
# Velocity S-wave (km/s) = 3.96641 4.38568 4.18130
# Velocity P-wave (km/s) = 6.08252 6.84073 6.47274
#
# Compressibility (1/GPa) = 0.02072233
#
# Stress axis : x y z
#
# Youngs Moduli (GPa) = 199.29434 91.10411 125.20488
#
# Poissons Ratio (x) = 0.20600 0.18910
# Poissons Ratio (y) = 0.45063 -0.26821
# Poissons Ratio (z) = 0.30101 -0.19516
#
# Static dielectric constant tensor:
#      x y z
#    x 2.299350 0.000000 0.064940 
#    y 0.000000 2.511640 0.000000 
#    z 0.064940 0.000000 2.524070 
# 
# From -- ./inp_files/124782.got.cif
#   From: 2010.05.17/outbox.cif.g08.bks.cpg/sg15_63_cif.got.tgz:124782.got - 2010.06.03 18:47:42.
