data_PCOD9306859
_publ_section_title
;
Structure prediction by ZEFSAII (Michael W. Deem and Ramdas Pophale) SiO2 
 PCOD9306859
Probable space group: C 2/C
;
_chemical_formula_sum "Si O2"
_cell_formula_units_Z 36
_cell_length_a 27.239618
_cell_length_b 12.432194
_cell_length_c 4.968935
_cell_angle_alpha 90.000000
_cell_angle_beta 117.569689
_cell_angle_gamma 90.000000
_cell_volume 1491.645566
_symmetry_space_group_name_H-M "C 2/C"
_symmetry_group_IT_number 15
_symmetry_cell_setting 'monoclinic'
loop_
_space_group_symop_operation_xyz
x,y,z
-x,y,1/2-z
-x,-y,-z
x,-y,1/2+z
1/2+x,1/2+y,z
1/2-x,1/2+y,1/2-z
1/2-x,1/2-y,-z
1/2+x,1/2-y,1/2+z
loop_
_atom_site_type_symbol
_atom_site_label
_atom_site_fract_x
_atom_site_fract_y
_atom_site_fract_z
Si Si1 0.753713 0.423453 0.848656
Si Si2 0.162988 0.241989 0.336146
Si Si3 0.446804 0.743852 0.809728
Si Si4 0.617275 0.577818 0.614817
Si Si5 0.500000 0.079305 0.750000
O O1 0.707033 0.333780 0.791162
O O2 0.749593 0.522193 0.047335
O O3 0.810234 0.357463 0.038873
O O4 0.625726 0.508087 0.901784
O O5 0.151356 0.179424 0.585992
O O6 0.107149 0.249813 0.018410
O O7 0.500000 0.748312 0.750000
O O8 0.441080 0.634214 0.964233
O O9 0.451274 0.838817 0.040502
O O10 0.500000 0.000000 0.500000
#
# Coordination Sequence:
#
# PCOD9306859 Si02
#       5
#     8   8   8   8   4
#     4  11  28  49  80 119 155 208 267 333 404 465
#     4  11  27  50  82 114 165 204 271 328 395 486
#     4  12  28  53  77 122 158 211 271 317 395 481
#     4  12  26  46  76 113 157 207 257 324 392 462
#     4  12  28  52  78 108 156 208 256 320 382 458
#
# _framework density 24.134421
#
# number of rings (size 3 to 8) (size 9 to 14) (size 15 to 20)
#    0.000    0.444    3.333    2.667    6.222    4.444 
#    0.000    0.000    0.000    0.000    0.000    0.000 
#    0.000    0.000    0.000    0.000    0.000    0.000 
#
# Total GULP energy -100664.742717 kJ/mol
# GULP energy per Si atom -5592.485706 kJ/mol
# Density = 2.407949 g / cm^3
# Si number density = 24.134421 Si / 1000 Ang^3
#
#
#
# Elastic Constant Matrix: (Units=GPa)
#
#
# Indices 1 2 3 4 5 6 
#
# 1 90.5820 29.2211 64.8855 0.0000 2.1283 0.0000
# 2 29.2211 117.4945 47.2317 0.0000 5.1191 0.0000
# 3 64.8855 47.2317 166.2025 0.0000 -5.0111 0.0000
# 4 0.0000 0.0000 0.0000 44.7883 0.0000 1.5620
# 5 2.1283 5.1191 -5.0111 0.0000 55.6209 0.0000
# 6 0.0000 0.0000 0.0000 1.5620 0.0000 50.6464
#
#
#
# Elastic Compliance Matrix: (Units=1/GPa)
#
#
# Indices 1 2 3 4 5 6 
#
# 1 0.015644 -0.001560 -0.005693 0.000000 -0.000968 0.000000
# 2 -0.001560 0.009836 -0.002218 0.000000 -0.001045 0.000000
# 3 -0.005693 -0.002218 0.008907 0.000000 0.001224 0.000000
# 4 0.000000 0.000000 0.000000 0.022351 0.000000 -0.000689
# 5 -0.000968 -0.001045 0.001224 0.000000 0.018222 0.000000
# 6 0.000000 0.000000 0.000000 -0.000689 0.000000 0.019766
#
#
# Mechanical properties :
#
#
# Convention : Reuss Voigt Hill
#
# Bulk Modulus (GPa) = 64.74715 72.99505 68.87110
# Shear Modulus (GPa) = 42.08182 45.74052 43.91117
#
# Velocity S-wave (km/s) = 4.18023 4.35816 4.27012
# Velocity P-wave (km/s) = 7.08414 7.45893 7.27395
#
# Compressibility (1/GPa) = 0.01544469
#
# Stress axis : x y z
#
# Youngs Moduli (GPa) = 63.92287 101.66693 112.27652
#
# Poissons Ratio (x) = 0.15858 0.63922
# Poissons Ratio (y) = 0.09971 0.24900
# Poissons Ratio (z) = 0.36393 0.22547
#
# Static dielectric constant tensor:
#      x y z
#    x 1.981400 0.000000 0.031820 
#    y 0.000000 1.924130 0.000000 
#    z 0.031820 0.000000 1.971680 
# 
# From -- ./inp_files/13132.got.cif
#   From: 2010.05.17/outbox.cif.g08.bks.cpg/sg15_7_cif.got.tgz:13132.got - 2010.06.03 18:47:42.
