data_PCOD9306414
_publ_section_title
;
Structure prediction by ZEFSAII (Michael W. Deem and Ramdas Pophale) SiO2 
 PCOD9306414
Probable space group: C 2/C
;
_chemical_formula_sum "Si O2"
_cell_formula_units_Z 56
_cell_length_a 27.537171
_cell_length_b 11.763372
_cell_length_c 22.789486
_cell_angle_alpha 90.000000
_cell_angle_beta 159.234301
_cell_angle_gamma 90.000000
_cell_volume 2617.337968
_symmetry_space_group_name_H-M "C 2/C"
_symmetry_group_IT_number 15
_symmetry_cell_setting 'monoclinic'
loop_
_space_group_symop_operation_xyz
x,y,z
-x,y,1/2-z
-x,-y,-z
x,-y,1/2+z
1/2+x,1/2+y,z
1/2-x,1/2+y,1/2-z
1/2-x,1/2-y,-z
1/2+x,1/2-y,1/2+z
loop_
_atom_site_type_symbol
_atom_site_label
_atom_site_fract_x
_atom_site_fract_y
_atom_site_fract_z
Si Si1 0.404802 0.653957 0.843889
Si Si2 0.937727 0.378782 0.948455
Si Si3 0.000000 0.960656 0.250000
Si Si4 0.000000 0.499980 0.250000
Si Si5 0.777530 0.148752 0.576301
Si Si6 0.332630 0.499062 0.369888
Si Si7 0.336258 0.631791 0.993668
Si Si8 0.452866 0.180620 0.799326
O O1 0.466081 0.772226 0.937822
O O2 0.308540 0.677233 0.679260
O O3 0.330533 0.590618 0.814161
O O4 0.521708 0.561778 0.959770
O O5 0.776082 0.402286 0.764441
O O6 0.000000 0.500000 0.000000
O O7 0.985697 0.349631 0.067876
O O8 0.077350 0.897708 0.284806
O O9 0.121841 0.034827 0.414261
O O10 0.975919 0.420598 0.279488
O O11 0.140271 0.571446 0.418095
O O12 0.750000 0.250000 0.500000
O O13 0.300188 0.428900 0.391834
O O14 0.207732 0.701148 0.872491
O O15 0.467501 0.710224 0.133442
#
# Coordination Sequence:
#
# PCOD9306414 Si02
#       8
#     8   8   4   4   8   8   8   8
#     4  11  27  47  78 104 144 197 244 303 371 439
#     4  12  27  43  73 107 149 188 245 305 365 439
#     4  12  26  50  72 104 148 192 242 302 374 436
#     4  12  28  50  74 110 150 194 250 308 374 446
#     4  12  28  48  74 109 148 198 249 302 365 448
#     4  11  25  48  72 108 142 192 244 304 371 439
#     4  12  26  48  76 107 145 191 246 308 377 442
#     4  12  28  47  75 111 146 192 248 308 378 443
#
# _framework density 21.395785
#
# number of rings (size 3 to 8) (size 9 to 14) (size 15 to 20)
#    0.000    0.286    5.714    1.714   10.000    2.286 
#    0.000    0.000    0.000    0.000    0.000    0.000 
#    0.000    0.000    0.000    0.000    0.000    0.000 
#
# Total GULP energy -156577.529347 kJ/mol
# GULP energy per Si atom -5592.054620 kJ/mol
# Density = 2.134709 g / cm^3
# Si number density = 21.395785 Si / 1000 Ang^3
#
#
#
# Elastic Constant Matrix: (Units=GPa)
#
#
# Indices 1 2 3 4 5 6 
#
# 1 93.5285 27.3063 34.4833 0.0000 -23.8689 0.0000
# 2 27.3063 75.4074 5.7121 0.0000 -15.4377 0.0000
# 3 34.4833 5.7121 77.4412 0.0001 -12.8270 0.0001
# 4 0.0000 0.0000 0.0001 29.6281 0.0001 1.4866
# 5 -23.8689 -15.4377 -12.8270 0.0001 53.5203 0.0001
# 6 0.0000 0.0000 0.0001 1.4866 0.0001 25.7418
#
#
#
# Elastic Compliance Matrix: (Units=1/GPa)
#
#
# Indices 1 2 3 4 5 6 
#
# 1 0.015079 -0.004178 -0.005719 0.000000 0.004149 0.000000
# 2 -0.004178 0.015262 0.001203 0.000000 0.002827 0.000000
# 3 -0.005719 0.001203 0.015626 0.000000 0.001541 0.000000
# 4 0.000000 0.000000 0.000000 0.033850 0.000000 -0.001955
# 5 0.004149 0.002827 0.001541 0.000000 0.021720 0.000000
# 6 0.000000 0.000000 0.000000 -0.001955 0.000000 0.038960
#
#
# Mechanical properties :
#
#
# Convention : Reuss Voigt Hill
#
# Bulk Modulus (GPa) = 34.99038 42.37562 38.68300
# Shear Modulus (GPa) = 29.86653 33.70307 31.78480
#
# Velocity S-wave (km/s) = 3.74024 3.97321 3.85848
# Velocity P-wave (km/s) = 5.91962 6.39509 6.16194
#
# Compressibility (1/GPa) = 0.02857928
#
# Stress axis : x y z
#
# Youngs Moduli (GPa) = 66.31678 65.52292 63.99500
#
# Poissons Ratio (x) = 0.27374 0.36599
# Poissons Ratio (y) = 0.27705 -0.07698
# Poissons Ratio (z) = 0.37927 -0.07882
#
# Static dielectric constant tensor:
#      x y z
#    x 1.396090 0.000000 -0.133000 
#    y 0.000000 1.792240 0.000000 
#    z -0.133000 0.000000 1.722700 
# 
# From -- ./inp_files/284670.got.cif
#   From: 2010.05.17/outbox.cif.g08.bks.cpg/sg15_143_cif.got.tgz:284670.got - 2010.06.03 18:47:42.
