data_PCOD9306140
_publ_section_title
;
Structure prediction by ZEFSAII (Michael W. Deem and Ramdas Pophale) SiO2 
 PCOD9306140
Probable space group: C 2/C
;
_chemical_formula_sum "Si O2"
_cell_formula_units_Z 36
_cell_length_a 27.446423
_cell_length_b 5.874169
_cell_length_c 9.275878
_cell_angle_alpha 90.000000
_cell_angle_beta 116.854527
_cell_angle_gamma 90.000000
_cell_volume 1334.222242
_symmetry_space_group_name_H-M "C 2/C"
_symmetry_group_IT_number 15
_symmetry_cell_setting 'monoclinic'
loop_
_space_group_symop_operation_xyz
x,y,z
-x,y,1/2-z
-x,-y,-z
x,-y,1/2+z
1/2+x,1/2+y,z
1/2-x,1/2+y,1/2-z
1/2-x,1/2-y,-z
1/2+x,1/2-y,1/2+z
loop_
_atom_site_type_symbol
_atom_site_label
_atom_site_fract_x
_atom_site_fract_y
_atom_site_fract_z
Si Si1 0.695345 0.722529 0.325347
Si Si2 0.589549 0.776241 0.871891
Si Si3 0.000000 0.628301 0.750000
Si Si4 0.696915 0.218960 0.333960
Si Si5 0.575280 0.403471 0.657231
O O1 0.750000 0.750000 0.500000
O O2 0.696309 0.467133 0.253683
O O3 0.632969 0.693424 0.302698
O O4 0.694399 0.974691 0.249505
O O5 0.649670 0.808017 0.890750
O O6 0.563899 0.653888 0.699622
O O7 0.552161 0.982829 0.867993
O O8 0.585874 0.610835 0.002975
O O9 0.975067 0.765079 0.848979
O O10 0.750000 0.250000 0.500000
#
# Coordination Sequence:
#
# PCOD9306140 Si02
#       5
#     8   8   4   8   8
#     4   9  18  39  66  99 139 182 236 290 361 428
#     4  11  25  45  70 103 143 191 244 306 370 443
#     4  12  24  44  72 100 142 192 250 300 368 440
#     4   9  18  39  66  99 139 182 236 290 361 428
#     4  11  25  45  70 103 143 191 244 306 370 443
#
# _framework density 26.982011
#
# number of rings (size 3 to 8) (size 9 to 14) (size 15 to 20)
#    0.000    1.778    2.222    1.333    0.000    5.333 
#    0.000   20.000    0.000    0.000    0.000    0.000 
#    0.000    0.000    0.000    0.000    0.000    0.000 
#
# Total GULP energy -100325.215786 kJ/mol
# GULP energy per Si atom -5573.623099 kJ/mol
# Density = 2.692060 g / cm^3
# Si number density = 26.982011 Si / 1000 Ang^3
#
#
#
# Elastic Constant Matrix: (Units=GPa)
#
#
# Indices 1 2 3 4 5 6 
#
# 1 242.7718 31.3191 46.7374 0.0000 1.6219 0.0000
# 2 31.3191 184.6381 5.5406 0.0000 6.4199 0.0000
# 3 46.7374 5.5406 75.2307 0.0000 1.1167 0.0000
# 4 0.0000 0.0000 0.0000 3.8783 0.0000 26.0684
# 5 1.6219 6.4199 1.1167 0.0000 43.0073 0.0000
# 6 0.0000 0.0000 0.0000 26.0684 0.0000 32.9295
#
#
#
# Elastic Compliance Matrix: (Units=1/GPa)
#
#
# Indices 1 2 3 4 5 6 
#
# 1 0.004773 -0.000722 -0.002912 0.000000 0.000003 0.000000
# 2 -0.000722 0.005565 0.000051 0.000000 -0.000805 0.000000
# 3 -0.002912 0.000051 0.015102 0.000000 -0.000290 0.000000
# 4 0.000000 0.000000 0.000000 -0.059671 0.000000 0.047238
# 5 0.000003 -0.000805 -0.000290 0.000000 0.023379 0.000000
# 6 0.000000 0.000000 0.000000 0.047238 0.000000 -0.007028
#
#
# Mechanical properties :
#
#
# Convention : Reuss Voigt Hill
#
# Bulk Modulus (GPa) = 54.72572 74.42609 64.57590
# Shear Modulus (GPa) = -1081.95195 43.89924 -519.02635
#
# Velocity S-wave (km/s) = -20.04646 4.03796 -13.88444
# Velocity P-wave (km/s) = 22.70436 7.02735 15.26604
#
# Compressibility (1/GPa) = 0.01827295
#
# Stress axis : x y z
#
# Youngs Moduli (GPa) = 209.51772 179.69510 66.21595
#
# Poissons Ratio (x) = 0.12980 0.19282
# Poissons Ratio (y) = 0.15134 -0.00337
# Poissons Ratio (z) = 0.61012 -0.00914
#
# Static dielectric constant tensor:
#      x y z
#    x 2.055870 0.000000 0.108950 
#    y 0.000000 2.303580 0.000000 
#    z 0.108950 0.000000 2.072460 
# 
# From -- ./inp_files/120577.got.cif
#   From: 2010.05.17/outbox.cif.g08.bks.cpg/sg15_61_cif.got.tgz:120577.got - 2010.06.03 18:47:42.
