data_PCOD9306985
_publ_section_title
;
Structure prediction by ZEFSAII (Michael W. Deem and Ramdas Pophale) SiO2 
 PCOD9306985
Probable space group: C 2/C
;
_chemical_formula_sum "Si O2"
_cell_formula_units_Z 36
_cell_length_a 13.956734
_cell_length_b 5.784682
_cell_length_c 30.773320
_cell_angle_alpha 90.000000
_cell_angle_beta 144.004431
_cell_angle_gamma 90.000000
_cell_volume 1460.192447
_symmetry_space_group_name_H-M "C 2/C"
_symmetry_group_IT_number 15
_symmetry_cell_setting 'monoclinic'
loop_
_space_group_symop_operation_xyz
x,y,z
-x,y,1/2-z
-x,-y,-z
x,-y,1/2+z
1/2+x,1/2+y,z
1/2-x,1/2+y,1/2-z
1/2-x,1/2-y,-z
1/2+x,1/2-y,1/2+z
loop_
_atom_site_type_symbol
_atom_site_label
_atom_site_fract_x
_atom_site_fract_y
_atom_site_fract_z
Si Si1 0.000000 0.825464 0.250000
Si Si2 0.109625 0.782778 0.146326
Si Si3 0.048792 0.545450 0.694646
Si Si4 0.745973 0.147307 0.111577
Si Si5 0.715698 0.497972 0.964962
O O1 0.950490 0.674068 0.272997
O O2 0.846284 0.974139 0.178999
O O3 0.050640 0.544559 0.146349
O O4 0.122502 0.770238 0.099028
O O5 0.287882 0.821989 0.232146
O O6 0.980770 0.977514 0.113254
O O7 0.882359 0.672494 0.645422
O O8 0.695266 0.017640 0.049120
O O9 0.750000 0.250000 0.000000
O O10 0.750000 0.750000 0.000000
#
# Coordination Sequence:
#
# PCOD9306985 Si02
#       5
#     4   8   8   8   8
#     4  12  20  42  76 110 154 176 228 328 386 442
#     4  12  24  45  79 104 150 203 238 312 396 436
#     4  12  23  44  73 120 150 178 242 317 395 458
#     4  12  25  48  74 111 150 187 248 318 383 455
#     4  12  30  52  72 106 154 208 265 303 348 456
#
# _framework density 24.654284000000001
#
# number of rings (size 3 to 8) (size 9 to 14) (size 15 to 20)
#    0.000    0.000    6.667    4.000    0.000    3.556 
#    0.000    0.000    0.000    0.000    0.000    0.000 
#    0.000    0.000    0.000    0.000    0.000    0.000 
#
# Total GULP energy -100764.109478 kJ/mol
# GULP energy per Si atom -5598.006082 kJ/mol
# Density = 2.459817 g / cm^3
# Si number density = 24.654284 Si / 1000 Ang^3
#
#
#
# Elastic Constant Matrix: (Units=GPa)
#
#
# Indices 1 2 3 4 5 6 
#
# 1 168.2271 40.6776 20.3732 -0.0003 -23.6428 -0.0005
# 2 40.6776 115.6445 32.3484 -0.0008 -13.2484 -0.0006
# 3 20.3732 32.3484 67.3987 -0.0005 -12.7433 0.0000
# 4 -0.0003 -0.0008 -0.0005 32.8084 0.0004 -21.3267
# 5 -23.6428 -13.2484 -12.7433 0.0004 35.5616 0.0003
# 6 -0.0005 -0.0006 0.0000 -21.3267 0.0003 46.3386
#
#
#
# Elastic Compliance Matrix: (Units=1/GPa)
#
#
# Indices 1 2 3 4 5 6 
#
# 1 0.006990 -0.001889 -0.000494 0.000000 0.003767 0.000000
# 2 -0.001889 0.010654 -0.004322 0.000000 0.001164 0.000000
# 3 -0.000494 -0.004322 0.017908 0.000000 0.004478 0.000000
# 4 0.000000 0.000000 0.000000 0.043491 -0.000001 0.020016
# 5 0.003767 0.001164 0.004478 -0.000001 0.032663 0.000000
# 6 0.000000 0.000000 0.000000 0.020016 0.000000 0.030792
#
#
# Mechanical properties :
#
#
# Convention : Reuss Voigt Hill
#
# Bulk Modulus (GPa) = 45.16512 59.78542 52.47527
# Shear Modulus (GPa) = 30.62025 40.13312 35.37668
#
# Velocity S-wave (km/s) = 3.52800 4.03902 3.79213
# Velocity P-wave (km/s) = 5.91227 6.78629 6.36430
#
# Compressibility (1/GPa) = 0.02214098
#
# Stress axis : x y z
#
# Youngs Moduli (GPa) = 143.05444 93.86045 55.84186
#
# Poissons Ratio (x) = 0.17731 0.02760
# Poissons Ratio (y) = 0.27024 0.24137
# Poissons Ratio (z) = 0.07069 0.40570
#
# Static dielectric constant tensor:
#      x y z
#    x 1.985460 0.000000 0.013330 
#    y 0.000000 1.977370 0.000000 
#    z 0.013330 0.000000 2.279150 
# 
# From -- ./inp_files/271498.got.cif
#   From: 2010.05.17/outbox.cif.g08.bks.cpg/sg15_136_cif.got.tgz:271498.got - 2010.06.03 18:47:42.
