data_PCOD9306099
_publ_section_title
;
Structure prediction by ZEFSAII (Michael W. Deem and Ramdas Pophale) SiO2 
 PCOD9306099
Probable space group: C 2/C
;
_chemical_formula_sum "Si O2"
_cell_formula_units_Z 56
_cell_length_a 15.151935
_cell_length_b 12.793319
_cell_length_c 13.481404
_cell_angle_alpha 90.000000
_cell_angle_beta 63.040440
_cell_angle_gamma 90.000000
_cell_volume 2329.289043
_symmetry_space_group_name_H-M "C 2/C"
_symmetry_group_IT_number 15
_symmetry_cell_setting 'monoclinic'
loop_
_space_group_symop_operation_xyz
x,y,z
-x,y,1/2-z
-x,-y,-z
x,-y,1/2+z
1/2+x,1/2+y,z
1/2-x,1/2+y,1/2-z
1/2-x,1/2-y,-z
1/2+x,1/2-y,1/2+z
loop_
_atom_site_type_symbol
_atom_site_label
_atom_site_fract_x
_atom_site_fract_y
_atom_site_fract_z
Si Si1 0.341747 0.231042 0.732209
Si Si2 0.122722 0.512388 0.279882
Si Si3 0.251539 0.171088 0.589254
Si Si4 0.808792 0.656001 0.084605
Si Si5 0.106881 0.527565 0.070031
Si Si6 0.434418 0.460145 0.381821
Si Si7 0.975056 0.167171 0.480677
O O1 0.359431 0.109938 0.745527
O O2 0.253953 0.225730 0.694075
O O3 0.297887 0.290333 0.849921
O O4 0.436294 0.286465 0.633541
O O5 0.187258 0.574581 0.325303
O O6 0.132816 0.564152 0.167131
O O7 0.010103 0.518963 0.374038
O O8 0.250000 0.250000 0.500000
O O9 0.167399 0.086990 0.608511
O O10 0.356030 0.111266 0.527634
O O11 0.838156 0.580872 0.979666
O O12 0.893388 0.744756 0.044645
O O13 0.500000 0.474225 0.250000
O O14 0.428490 0.568123 0.445938
O O15 0.480164 0.377784 0.438537
#
# Coordination Sequence:
#
# PCOD9306099 Si02
#       7
#     8   8   8   8   8   8   8
#     4  12  25  44  74 101 145 187 239 293 363 425
#     4  11  25  46  70 104 139 183 240 293 356 430
#     4  12  24  45  71 104 139 185 240 296 345 429
#     4  12  25  45  75 103 143 186 237 295 361 417
#     4  11  25  44  73 102 137 182 238 296 352 426
#     4  11  27  46  72 103 150 188 237 292 367 439
#     4  11  26  48  71 107 144 190 236 303 360 429
#
# _framework density 24.04167
#
# number of rings (size 3 to 8) (size 9 to 14) (size 15 to 20)
#    0.000    0.571    4.286    3.000    4.000    2.857 
#    0.000    0.000    0.000    0.000    0.000    0.000 
#    0.000    0.000    0.000    0.000    0.000    0.000 
#
# Total GULP energy -156793.798760 kJ/mol
# GULP energy per Si atom -5599.778527 kJ/mol
# Density = 2.398695 g / cm^3
# Si number density = 24.041670 Si / 1000 Ang^3
#
#
#
# Elastic Constant Matrix: (Units=GPa)
#
#
# Indices 1 2 3 4 5 6 
#
# 1 36.2925 1.1718 1.8162 0.0000 0.9563 0.0000
# 2 1.1718 90.0740 14.0135 0.0000 -15.1978 0.0000
# 3 1.8162 14.0135 87.9250 0.0000 -9.9076 0.0000
# 4 0.0000 0.0000 0.0000 50.8760 0.0000 -3.3598
# 5 0.9563 -15.1978 -9.9076 0.0000 28.8491 0.0000
# 6 0.0000 0.0000 0.0000 -3.3598 0.0000 48.0026
#
#
#
# Elastic Compliance Matrix: (Units=1/GPa)
#
#
# Indices 1 2 3 4 5 6 
#
# 1 0.027639 -0.000495 -0.000650 0.000000 -0.001400 0.000000
# 2 -0.000495 0.012331 -0.001270 0.000000 0.006076 0.000000
# 3 -0.000650 -0.001270 0.011980 0.000000 0.003466 0.000000
# 4 0.000000 0.000000 0.000000 0.019747 0.000000 0.001382
# 5 -0.001400 0.006076 0.003466 0.000000 0.039101 0.000000
# 6 0.000000 0.000000 0.000000 0.001382 0.000000 0.020929
#
#
# Mechanical properties :
#
#
# Convention : Reuss Voigt Hill
#
# Bulk Modulus (GPa) = 21.22220 27.58828 24.40524
# Shear Modulus (GPa) = 32.83771 38.69821 35.76796
#
# Velocity S-wave (km/s) = 3.69977 4.01637 3.86132
# Velocity P-wave (km/s) = 5.20553 5.74530 5.48206
#
# Compressibility (1/GPa) = 0.04712048
#
# Stress axis : x y z
#
# Youngs Moduli (GPa) = 36.18042 81.09454 83.47346
#
# Poissons Ratio (x) = 0.04012 0.05424
# Poissons Ratio (y) = 0.01790 0.10605
# Poissons Ratio (z) = 0.02351 0.10303
#
# Static dielectric constant tensor:
#      x y z
#    x 1.948390 0.000000 0.025610 
#    y 0.000000 1.905990 0.000000 
#    z 0.025610 0.000000 2.037420 
# 
# From -- ./inp_files/161224.got.cif
#   From: 2010.05.17/outbox.cif.g08.bks.cpg/sg15_81_cif.got.tgz:161224.got - 2010.06.03 18:47:42.
