data_PCOD9306578
_publ_section_title
;
Structure prediction by ZEFSAII (Michael W. Deem and Ramdas Pophale) SiO2 
 PCOD9306578
Probable space group: C 2/C
;
_chemical_formula_sum "Si O2"
_cell_formula_units_Z 40
_cell_length_a 5.058920
_cell_length_b 37.074391
_cell_length_c 9.806590
_cell_angle_alpha 90.000000
_cell_angle_beta 107.964629
_cell_angle_gamma 90.000000
_cell_volume 1749.617861
_symmetry_space_group_name_H-M "C 2/C"
_symmetry_group_IT_number 15
_symmetry_cell_setting 'monoclinic'
loop_
_space_group_symop_operation_xyz
x,y,z
-x,y,1/2-z
-x,-y,-z
x,-y,1/2+z
1/2+x,1/2+y,z
1/2-x,1/2+y,1/2-z
1/2-x,1/2-y,-z
1/2+x,1/2-y,1/2+z
loop_
_atom_site_type_symbol
_atom_site_label
_atom_site_fract_x
_atom_site_fract_y
_atom_site_fract_z
Si Si1 0.151138 0.822156 0.000196
Si Si2 0.500000 0.078375 0.250000
Si Si3 0.500000 0.283281 0.250000
Si Si4 0.500000 0.375556 0.750000
Si Si5 0.753328 0.973936 0.002167
Si Si6 0.500000 0.733613 0.250000
Si Si7 0.500000 0.865385 0.250000
Si Si8 0.000000 0.082810 0.750000
O O1 0.987195 0.852137 0.886385
O O2 0.162600 0.790454 0.888761
O O3 0.008038 0.806712 0.113303
O O4 0.429207 0.840265 0.107767
O O5 0.283953 0.102033 0.301471
O O6 0.316485 0.051816 0.132948
O O7 0.227276 0.258302 0.212444
O O8 0.836768 0.945099 0.128841
O O9 0.500000 0.000000 0.000000
O O10 0.000000 0.000000 0.000000
O O11 0.768647 0.890803 0.276843
#
# Coordination Sequence:
#
# PCOD9306578 Si02
#       8
#     8   4   4   4   8   4   4   4
#     4  11  26  46  71 102 138 181 230 284 345 412
#     4  12  24  44  68  98 136 180 227 280 339 406
#     4  12  25  45  72 104 137 179 229 288 345 411
#     4  11  26  45  69 100 137 182 229 282 341 410
#     4  12  24  42  67  97 133 176 224 278 335 400
#     4  11  27  46  72 101 139 180 229 284 347 414
#     4  12  25  43  67  98 134 175 223 278 335 399
#     4  12  25  43  66  97 133 174 221 276 333 396
#
# _framework density 22.862136
#
# number of rings (size 3 to 8) (size 9 to 14) (size 15 to 20)
#    0.000    0.400    0.000    8.400    0.000    9.600 
#    0.000    0.000    0.000    0.000    0.000    0.000 
#    0.000    0.000    0.000    0.000    0.000    0.000 
#
# Total GULP energy -111931.053005 kJ/mol
# GULP energy per Si atom -5596.552650 kJ/mol
# Density = 2.281010 g / cm^3
# Si number density = 22.862136 Si / 1000 Ang^3
#
#
#
# Elastic Constant Matrix: (Units=GPa)
#
#
# Indices 1 2 3 4 5 6 
#
# 1 133.2557 64.9985 2.8317 0.0000 -0.0337 0.0000
# 2 64.9985 146.1878 61.3974 0.0000 -1.7809 0.0000
# 3 2.8317 61.3974 149.3718 0.0000 1.8692 0.0000
# 4 0.0000 0.0000 0.0000 4.2683 0.0000 -4.0348
# 5 -0.0337 -1.7809 1.8692 0.0000 31.5378 0.0000
# 6 0.0000 0.0000 0.0000 -4.0348 0.0000 29.0848
#
#
#
# Elastic Compliance Matrix: (Units=1/GPa)
#
#
# Indices 1 2 3 4 5 6 
#
# 1 0.010054 -0.005315 0.001999 0.000000 -0.000408 0.000000
# 2 -0.005315 0.011092 -0.004469 0.000000 0.000886 0.000000
# 3 0.001999 -0.004469 0.008503 0.000000 -0.000754 0.000000
# 4 0.000000 0.000000 0.000000 0.269642 0.000000 0.037406
# 5 -0.000408 0.000886 -0.000754 0.000000 0.031802 0.000000
# 6 0.000000 0.000000 0.000000 0.037406 0.000000 0.039571
#
#
# Mechanical properties :
#
#
# Convention : Reuss Voigt Hill
#
# Bulk Modulus (GPa) = 71.02879 76.36336 73.69608
# Shear Modulus (GPa) = 12.79008 32.95070 22.87039
#
# Velocity S-wave (km/s) = 2.36782 3.80054 3.16628
# Velocity P-wave (km/s) = 6.21379 7.26175 6.75811
#
# Compressibility (1/GPa) = 0.01407880
#
# Stress axis : x y z
#
# Youngs Moduli (GPa) = 99.46019 90.15879 117.60118
#
# Poissons Ratio (x) = 0.47919 -0.23510
# Poissons Ratio (y) = 0.52863 0.52560
# Poissons Ratio (z) = -0.19884 0.40295
#
# Static dielectric constant tensor:
#      x y z
#    x 2.081840 0.000000 -0.090950 
#    y 0.000000 1.818690 0.000000 
#    z -0.090950 0.000000 1.849580 
# 
# From -- ./inp_files/74132.got.cif
#   From: 2010.05.17/outbox.cif.g08.bks.cpg/sg15_38_cif.got.tgz:74132.got - 2010.06.03 18:47:42.
