data_PCOD9306461
_publ_section_title
;
Structure prediction by ZEFSAII (Michael W. Deem and Ramdas Pophale) SiO2 
 PCOD9306461
Probable space group: C 2/C
;
_chemical_formula_sum "Si O2"
_cell_formula_units_Z 24
_cell_length_a 22.554461
_cell_length_b 5.066860
_cell_length_c 9.546395
_cell_angle_alpha 90.000000
_cell_angle_beta 51.258641
_cell_angle_gamma 90.000000
_cell_volume 850.929532
_symmetry_space_group_name_H-M "C 2/C"
_symmetry_group_IT_number 15
_symmetry_cell_setting 'monoclinic'
loop_
_space_group_symop_operation_xyz
x,y,z
-x,y,1/2-z
-x,-y,-z
x,-y,1/2+z
1/2+x,1/2+y,z
1/2-x,1/2+y,1/2-z
1/2-x,1/2-y,-z
1/2+x,1/2-y,1/2+z
loop_
_atom_site_type_symbol
_atom_site_label
_atom_site_fract_x
_atom_site_fract_y
_atom_site_fract_z
Si Si1 0.824975 0.651545 0.721566
Si Si2 0.151724 0.031064 0.043305
Si Si3 0.948689 0.747548 0.031693
O O1 0.850380 0.744948 0.529223
O O2 0.734569 0.626144 0.866694
O O3 0.867975 0.386815 0.703219
O O4 0.847480 0.882567 0.796816
O O5 0.080260 0.180080 0.080807
O O6 0.000000 0.500000 0.000000
O O7 0.000000 0.000000 0.000000
#
# Coordination Sequence:
#
# PCOD9306461 Si02
#       3
#     8   8   8
#     4  11  25  48  82 120 161 221 281 345 411 492
#     4  11  25  48  80 118 164 216 285 338 413 498
#     4  12  26  50  75 116 166 219 267 338 415 494
#
# _framework density 28.204450000000001
#
# number of rings (size 3 to 8) (size 9 to 14) (size 15 to 20)
#    0.000    0.667    6.667    0.000    0.000    5.333 
#    6.000    0.000    0.000    0.000    0.000    0.000 
#    0.000    0.000    0.000    0.000    0.000    0.000 
#
# Total GULP energy -66970.053312 kJ/mol
# GULP energy per Si atom -5580.837776 kJ/mol
# Density = 2.814026 g / cm^3
# Si number density = 28.204450 Si / 1000 Ang^3
#
#
#
# Elastic Constant Matrix: (Units=GPa)
#
#
# Indices 1 2 3 4 5 6 
#
# 1 248.1980 93.2204 59.8282 0.0000 -31.7231 -0.0001
# 2 93.2204 267.6775 44.2177 -0.0001 -12.6674 0.0002
# 3 59.8282 44.2177 113.8024 0.0000 -4.0317 0.0000
# 4 0.0000 -0.0001 0.0000 23.6926 0.0000 -16.7252
# 5 -31.7231 -12.6674 -4.0317 0.0000 62.5489 0.0000
# 6 -0.0001 0.0002 0.0000 -16.7252 0.0000 39.0003
#
#
#
# Elastic Compliance Matrix: (Units=1/GPa)
#
#
# Indices 1 2 3 4 5 6 
#
# 1 0.005381 -0.001401 -0.002203 0.000000 0.002303 0.000000
# 2 -0.001401 0.004389 -0.000965 0.000000 0.000116 0.000000
# 3 -0.002203 -0.000965 0.010297 0.000000 -0.000649 0.000000
# 4 0.000000 0.000000 0.000000 0.060533 0.000000 0.025959
# 5 0.002303 0.000116 -0.000649 0.000000 0.017137 0.000000
# 6 0.000000 0.000000 0.000000 0.025959 0.000000 0.036773
#
#
# Mechanical properties :
#
#
# Convention : Reuss Voigt Hill
#
# Bulk Modulus (GPa) = 91.49443 113.80115 102.64779
# Shear Modulus (GPa) = 33.94679 53.87579 43.91129
#
# Velocity S-wave (km/s) = 3.47305 4.37531 3.95003
# Velocity P-wave (km/s) = 6.97086 8.12162 7.56815
#
# Compressibility (1/GPa) = 0.01092963
#
# Stress axis : x y z
#
# Youngs Moduli (GPa) = 185.85375 227.86535 97.11588
#
# Poissons Ratio (x) = 0.31923 0.21392
# Poissons Ratio (y) = 0.26037 0.09367
# Poissons Ratio (z) = 0.40939 0.21979
#
# Static dielectric constant tensor:
#      x y z
#    x 2.096440 0.000000 -0.061050 
#    y 0.000000 2.367820 0.000000 
#    z -0.061050 0.000000 2.609420 
# 
# From -- ./inp_files/108776.got.cif
#   From: 2010.05.17/outbox.cif.g08.bks.cpg/sg15_55_cif.got.tgz:108776.got - 2010.06.03 18:47:42.
