data_PCOD9306719
_publ_section_title
;
Structure prediction by ZEFSAII (Michael W. Deem and Ramdas Pophale) SiO2 
 PCOD9306719
Probable space group: C 2/C
;
_chemical_formula_sum "Si O2"
_cell_formula_units_Z 40
_cell_length_a 23.675719
_cell_length_b 7.117491
_cell_length_c 12.051641
_cell_angle_alpha 90.000000
_cell_angle_beta 130.564281
_cell_angle_gamma 90.000000
_cell_volume 1542.784221
_symmetry_space_group_name_H-M "C 2/C"
_symmetry_group_IT_number 15
_symmetry_cell_setting 'monoclinic'
loop_
_space_group_symop_operation_xyz
x,y,z
-x,y,1/2-z
-x,-y,-z
x,-y,1/2+z
1/2+x,1/2+y,z
1/2-x,1/2+y,1/2-z
1/2-x,1/2-y,-z
1/2+x,1/2-y,1/2+z
loop_
_atom_site_type_symbol
_atom_site_label
_atom_site_fract_x
_atom_site_fract_y
_atom_site_fract_z
Si Si1 0.189147 0.623464 0.821269
Si Si2 0.678361 0.688725 0.000812
Si Si3 0.566189 0.717430 0.040057
Si Si4 0.312283 0.120506 0.427843
Si Si5 0.898881 0.187088 0.833448
O O1 0.420022 0.533284 0.368015
O O2 0.270764 0.698836 0.183055
O O3 0.255800 0.466484 0.902104
O O4 0.334304 0.832577 0.082906
O O5 0.653710 0.710945 0.841160
O O6 0.602747 0.650247 0.971216
O O7 0.696406 0.895687 0.073116
O O8 0.613019 0.886046 0.156220
O O9 0.480892 0.771820 0.919912
O O10 0.359700 0.230047 0.395140
#
# Coordination Sequence:
#
# PCOD9306719 Si02
#       5
#     8   8   8   8   8
#     4  11  26  51  75 121 153 216 265 342 403 485
#     4  12  27  51  82 114 162 210 275 336 413 491
#     4  11  27  49  86 114 171 210 280 342 420 488
#     4  11  26  48  82 110 159 209 277 328 408 488
#     4  11  26  54  80 121 160 225 271 342 417 503
#
# _framework density 25.927152
#
# number of rings (size 3 to 8) (size 9 to 14) (size 15 to 20)
#    0.000    0.800    2.000    3.600    5.600    3.200 
#    7.200    0.000    0.000    0.000    0.000    0.000 
#    0.000    0.000    0.000    0.000    0.000    0.000 
#
# Total GULP energy -111745.669253 kJ/mol
# GULP energy per Si atom -5587.283463 kJ/mol
# Density = 2.586814 g / cm^3
# Si number density = 25.927152 Si / 1000 Ang^3
#
#
#
# Elastic Constant Matrix: (Units=GPa)
#
#
# Indices 1 2 3 4 5 6 
#
# 1 152.9769 48.8060 68.5858 0.0000 -0.9085 0.0000
# 2 48.8060 142.9339 65.1945 0.0000 18.0241 0.0000
# 3 68.5858 65.1945 119.0398 0.0000 -10.4487 0.0000
# 4 0.0000 0.0000 0.0000 43.7847 0.0000 1.6965
# 5 -0.9085 18.0241 -10.4487 0.0000 56.3032 0.0000
# 6 0.0000 0.0000 0.0000 1.6965 0.0000 46.3145
#
#
#
# Elastic Compliance Matrix: (Units=1/GPa)
#
#
# Indices 1 2 3 4 5 6 
#
# 1 0.008917 -0.000832 -0.004723 0.000000 -0.000466 0.000000
# 2 -0.000832 0.010382 -0.005591 0.000000 -0.004374 0.000000
# 3 -0.004723 -0.005591 0.014571 0.000000 0.004418 0.000000
# 4 0.000000 0.000000 0.000000 0.022871 0.000000 -0.000838
# 5 -0.000466 -0.004374 0.004418 0.000000 0.019974 0.000000
# 6 0.000000 0.000000 0.000000 -0.000838 0.000000 0.021622
#
#
# Mechanical properties :
#
#
# Convention : Reuss Voigt Hill
#
# Bulk Modulus (GPa) = 86.35960 86.68036 86.51998
# Shear Modulus (GPa) = 40.16451 44.77143 42.46797
#
# Velocity S-wave (km/s) = 3.94017 4.16001 4.05158
# Velocity P-wave (km/s) = 7.35396 7.52190 7.43841
#
# Compressibility (1/GPa) = 0.01157949
#
# Stress axis : x y z
#
# Youngs Moduli (GPa) = 112.14452 96.32237 68.62797
#
# Poissons Ratio (x) = 0.08011 0.32413
# Poissons Ratio (y) = 0.09327 0.38367
# Poissons Ratio (z) = 0.52967 0.53849
#
# Static dielectric constant tensor:
#      x y z
#    x 2.061580 0.000000 -0.072650 
#    y 0.000000 2.218150 0.000000 
#    z -0.072650 0.000000 2.086620 
# 
# From -- ./inp_files/116546.got.cif
#   From: 2010.05.17/outbox.cif.g08.bks.cpg/sg15_59_cif.got.tgz:116546.got - 2010.06.03 18:47:42.
