data_PCOD9306218
_publ_section_title
;
Structure prediction by ZEFSAII (Michael W. Deem and Ramdas Pophale) SiO2 
 PCOD9306218
Probable space group: C 2/C
;
_chemical_formula_sum "Si O2"
_cell_formula_units_Z 48
_cell_length_a 10.910574
_cell_length_b 22.787423
_cell_length_c 11.350790
_cell_angle_alpha 90.000000
_cell_angle_beta 134.015410
_cell_angle_gamma 90.000000
_cell_volume 2029.505179
_symmetry_space_group_name_H-M "C 2/C"
_symmetry_group_IT_number 15
_symmetry_cell_setting 'monoclinic'
loop_
_space_group_symop_operation_xyz
x,y,z
-x,y,1/2-z
-x,-y,-z
x,-y,1/2+z
1/2+x,1/2+y,z
1/2-x,1/2+y,1/2-z
1/2-x,1/2-y,-z
1/2+x,1/2-y,1/2+z
loop_
_atom_site_type_symbol
_atom_site_label
_atom_site_fract_x
_atom_site_fract_y
_atom_site_fract_z
Si Si1 0.032140 0.778359 0.541464
Si Si2 0.000000 0.718057 0.750000
Si Si3 0.268464 0.627299 0.819628
Si Si4 0.118179 0.330940 0.643471
Si Si5 0.000000 0.575457 0.250000
Si Si6 0.305176 0.410359 0.597353
Si Si7 0.292956 0.458688 0.122632
O O1 0.220127 0.796323 0.699752
O O2 0.940397 0.760658 0.603788
O O3 0.938362 0.833374 0.419740
O O4 0.024717 0.718596 0.462787
O O5 0.866777 0.675807 0.727291
O O6 0.233187 0.587736 0.682122
O O7 0.286459 0.584934 0.944628
O O8 0.178891 0.361759 0.563749
O O9 0.074420 0.382810 0.700011
O O10 0.164786 0.546205 0.424566
O O11 0.500000 0.392240 0.750000
O O12 0.276947 0.472358 0.643239
O O13 0.500000 0.449334 0.250000
#
# Coordination Sequence:
#
# PCOD9306218 Si02
#       7
#     8   4   8   8   4   8   8
#     4  12  23  42  73 107 149 187 249 306 375 443
#     4  12  22  39  70 112 144 185 246 316 374 430
#     4  12  24  44  74 109 147 196 246 312 378 438
#     4  12  26  47  72 113 147 199 244 309 378 448
#     4  12  30  53  72 108 158 201 254 304 374 456
#     4  11  25  45  79 111 148 196 254 316 373 437
#     4  11  29  52  77 108 153 206 251 306 374 453
#
# _framework density 23.651084999999998
#
# number of rings (size 3 to 8) (size 9 to 14) (size 15 to 20)
#    0.000    0.333    5.000    3.500    2.333    3.333 
#    1.500    0.000    0.000    0.000    0.000    0.000 
#    0.000    0.000    0.000    0.000    0.000    0.000 
#
# Total GULP energy -134171.772800 kJ/mol
# GULP energy per Si atom -5590.490533 kJ/mol
# Density = 2.359725 g / cm^3
# Si number density = 23.651085 Si / 1000 Ang^3
#
#
#
# Elastic Constant Matrix: (Units=GPa)
#
#
# Indices 1 2 3 4 5 6 
#
# 1 38.7175 19.2408 26.1121 0.0000 12.9201 0.0000
# 2 19.2408 122.6341 36.0995 0.0000 1.1430 0.0000
# 3 26.1121 36.0995 131.6513 0.0000 9.7044 0.0000
# 4 0.0000 0.0000 0.0000 36.1727 0.0000 -20.9260
# 5 12.9201 1.1430 9.7044 0.0000 29.7005 0.0000
# 6 0.0000 0.0000 0.0000 -20.9260 0.0000 168.1062
#
#
#
# Elastic Compliance Matrix: (Units=1/GPa)
#
#
# Indices 1 2 3 4 5 6 
#
# 1 0.035784 -0.004020 -0.004979 0.000000 -0.013785 0.000000
# 2 -0.004020 0.009328 -0.001909 0.000000 0.002014 0.000000
# 3 -0.004979 -0.001909 0.009162 0.000000 -0.000754 0.000000
# 4 0.000000 0.000000 0.000000 0.029790 0.000000 0.003708
# 5 -0.013785 0.002014 -0.000754 0.000000 0.039835 0.000000
# 6 0.000000 0.000000 0.000000 0.003708 0.000000 0.006410
#
#
# Mechanical properties :
#
#
# Convention : Reuss Voigt Hill
#
# Bulk Modulus (GPa) = 30.80865 50.65643 40.73254
# Shear Modulus (GPa) = 30.68496 60.89925 45.79211
#
# Velocity S-wave (km/s) = 3.60585 5.07986 4.40495
# Velocity P-wave (km/s) = 5.51279 7.47471 6.56742
#
# Compressibility (1/GPa) = 0.03245842
#
# Stress axis : x y z
#
# Youngs Moduli (GPa) = 27.94538 107.20126 109.14152
#
# Poissons Ratio (x) = 0.43098 0.54342
# Poissons Ratio (y) = 0.11235 0.20834
# Poissons Ratio (z) = 0.13914 0.20464
#
# Static dielectric constant tensor:
#      x y z
#    x 1.921560 0.000000 -0.010640 
#    y 0.000000 1.841780 0.000000 
#    z -0.010640 0.000000 2.001490 
# 
# From -- ./inp_files/89840.got.cif
#   From: 2010.05.17/outbox.cif.g08.bks.cpg/sg15_45_cif.got.tgz:89840.got - 2010.06.03 18:47:42.
