data_PCOD9306519
_publ_section_title
;
Structure prediction by ZEFSAII (Michael W. Deem and Ramdas Pophale) SiO2 
 PCOD9306519
Probable space group: C 2/C
;
_chemical_formula_sum "Si O2"
_cell_formula_units_Z 24
_cell_length_a 6.249969
_cell_length_b 14.337076
_cell_length_c 13.015022
_cell_angle_alpha 90.000000
_cell_angle_beta 126.563458
_cell_angle_gamma 90.000000
_cell_volume 936.711266
_symmetry_space_group_name_H-M "C 2/C"
_symmetry_group_IT_number 15
_symmetry_cell_setting 'monoclinic'
loop_
_space_group_symop_operation_xyz
x,y,z
-x,y,1/2-z
-x,-y,-z
x,-y,1/2+z
1/2+x,1/2+y,z
1/2-x,1/2+y,1/2-z
1/2-x,1/2-y,-z
1/2+x,1/2-y,1/2+z
loop_
_atom_site_type_symbol
_atom_site_label
_atom_site_fract_x
_atom_site_fract_y
_atom_site_fract_z
Si Si1 0.792032 0.418542 0.841264
Si Si2 0.238000 0.435459 0.432155
Si Si3 0.974765 0.777781 0.358361
O O1 0.500000 0.459143 0.750000
O O2 0.997238 0.491616 0.854673
O O3 0.819355 0.319092 0.796341
O O4 0.823375 0.398166 0.971079
O O5 0.500000 0.500000 0.500000
O O6 0.302914 0.349771 0.376497
O O7 0.250000 0.750000 0.500000
O O8 0.000000 0.817301 0.250000
#
# Coordination Sequence:
#
# PCOD9306519 Si02
#       3
#     8   8   8
#     4  11  26  51  77 116 164 211 273 347 412 488
#     4  11  25  50  80 114 159 212 281 333 412 493
#     4  12  26  52  83 122 162 218 277 340 416 494
#
# _framework density 25.621556999999999
#
# number of rings (size 3 to 8) (size 9 to 14) (size 15 to 20)
#    0.000    0.667    3.333    3.000    0.000    1.333 
#   12.000    0.000    0.000    0.000    0.000    0.000 
#    0.000    0.000    0.000    0.000    0.000    0.000 
#
# Total GULP energy -67234.079144 kJ/mol
# GULP energy per Si atom -5602.839929 kJ/mol
# Density = 2.556324 g / cm^3
# Si number density = 25.621557 Si / 1000 Ang^3
#
#
#
# Elastic Constant Matrix: (Units=GPa)
#
#
# Indices 1 2 3 4 5 6 
#
# 1 225.7157 105.4200 87.6715 0.0000 2.2820 0.0000
# 2 105.4200 182.5300 33.5871 0.0000 6.6458 0.0000
# 3 87.6715 33.5871 103.6178 0.0000 -15.8570 0.0000
# 4 0.0000 0.0000 0.0000 -65.4289 0.0000 129.5255
# 5 2.2820 6.6458 -15.8570 0.0000 92.9107 0.0000
# 6 0.0000 0.0000 0.0000 129.5255 0.0000 -146.9078
#
#
#
# Elastic Compliance Matrix: (Units=1/GPa)
#
#
# Indices 1 2 3 4 5 6 
#
# 1 0.008637 -0.003806 -0.006227 0.000000 -0.001003 0.000000
# 2 -0.003806 0.007556 0.000721 0.000000 -0.000324 0.000000
# 3 -0.006227 0.000721 0.015096 0.000000 0.002678 0.000000
# 4 0.000000 0.000000 0.000000 0.020504 0.000000 0.018078
# 5 -0.001003 -0.000324 0.002678 0.000000 0.011268 0.000000
# 6 0.000000 0.000000 0.000000 0.018078 0.000000 0.009132
#
#
# Mechanical properties :
#
#
# Convention : Reuss Voigt Hill
#
# Bulk Modulus (GPa) = 78.96000 107.24676 93.10338
# Shear Modulus (GPa) = 52.61086 -4.87288 23.86899
#
# Velocity S-wave (km/s) = 4.53634 -1.38058 3.05552
# Velocity P-wave (km/s) = 7.63692 6.27754 6.99036
#
# Compressibility (1/GPa) = 0.01266464
#
# Stress axis : x y z
#
# Youngs Moduli (GPa) = 115.78333 132.35195 66.24311
#
# Poissons Ratio (x) = 0.50370 0.41253
# Poissons Ratio (y) = 0.44064 -0.04779
# Poissons Ratio (z) = 0.72104 -0.09548
#
# Static dielectric constant tensor:
#      x y z
#    x 2.023030 0.000000 -0.010660 
#    y 0.000000 1.906000 0.000000 
#    z -0.010660 0.000000 2.272630 
# 
# From -- ./inp_files/71256.got.cif
#   From: 2010.05.17/outbox.cif.g08.bks.cpg/sg15_36_cif.got.tgz:71256.got - 2010.06.03 18:47:42.
