data_PCOD9306195
_publ_section_title
;
Structure prediction by ZEFSAII (Michael W. Deem and Ramdas Pophale) SiO2 
 PCOD9306195
Probable space group: C 2/C
;
_chemical_formula_sum "Si O2"
_cell_formula_units_Z 32
_cell_length_a 26.436491
_cell_length_b 5.074907
_cell_length_c 24.446661
_cell_angle_alpha 90.000000
_cell_angle_beta 158.595523
_cell_angle_gamma 90.000000
_cell_volume 1196.972745
_symmetry_space_group_name_H-M "C 2/C"
_symmetry_group_IT_number 15
_symmetry_cell_setting 'monoclinic'
loop_
_space_group_symop_operation_xyz
x,y,z
-x,y,1/2-z
-x,-y,-z
x,-y,1/2+z
1/2+x,1/2+y,z
1/2-x,1/2+y,1/2-z
1/2-x,1/2-y,-z
1/2+x,1/2-y,1/2+z
loop_
_atom_site_type_symbol
_atom_site_label
_atom_site_fract_x
_atom_site_fract_y
_atom_site_fract_z
Si Si1 0.168918 0.443685 0.619332
Si Si2 0.393225 0.198119 0.320187
Si Si3 0.681850 0.407820 0.038411
Si Si4 0.133218 0.386344 0.919948
O O1 0.318789 0.520410 0.746754
O O2 0.166390 0.411209 0.681471
O O3 0.120985 0.201444 0.534012
O O4 0.055015 0.663220 0.490838
O O5 0.328499 0.038206 0.204249
O O6 0.598553 0.645513 0.926383
O O7 0.685296 0.151633 0.002583
O O8 0.000000 0.455464 0.750000
O O9 0.250000 0.250000 0.000000
#
# Coordination Sequence:
#
# PCOD9306195 Si02
#       4
#     8   8   8   8
#     4  11  25  45  74 115 158 200 246 305 372 470
#     4  11  25  45  74 115 158 198 250 300 377 465
#     4  12  26  47  80 106 150 196 250 305 390 431
#     4  12  30  51  74 106 146 194 264 324 368 437
#
# _framework density 26.734110000000001
#
# number of rings (size 3 to 8) (size 9 to 14) (size 15 to 20)
#    0.000    0.500    5.000    1.500    7.000    3.000 
#    0.000    0.000    0.000    0.000    0.000    0.000 
#    0.000    0.000    0.000    0.000    0.000    0.000 
#
# Total GULP energy -89622.988662 kJ/mol
# GULP energy per Si atom -5601.436791 kJ/mol
# Density = 2.667326 g / cm^3
# Si number density = 26.734110 Si / 1000 Ang^3
#
#
#
# Elastic Constant Matrix: (Units=GPa)
#
#
# Indices 1 2 3 4 5 6 
#
# 1 104.1322 50.0929 38.8232 0.0006 -34.6923 0.0003
# 2 50.0929 157.1483 17.3854 0.0019 -25.3548 0.0032
# 3 38.8232 17.3854 117.1549 0.0008 -20.5261 0.0011
# 4 0.0006 0.0019 0.0008 36.3990 0.0001 -11.0181
# 5 -34.6923 -25.3548 -20.5261 0.0001 53.0682 0.0002
# 6 0.0003 0.0032 0.0011 -11.0181 0.0002 53.8632
#
#
#
# Elastic Compliance Matrix: (Units=1/GPa)
#
#
# Indices 1 2 3 4 5 6 
#
# 1 0.014585 -0.003205 -0.003170 0.000000 0.006777 0.000000
# 2 -0.003205 0.007624 0.000216 -0.000001 0.001631 -0.000001
# 3 -0.003170 0.000216 0.009879 0.000000 0.001852 0.000000
# 4 0.000000 -0.000001 0.000000 0.029287 0.000000 0.005991
# 5 0.006777 0.001631 0.001852 0.000000 0.024770 0.000000
# 6 0.000000 -0.000001 0.000000 0.005991 0.000000 0.019791
#
#
# Mechanical properties :
#
#
# Convention : Reuss Voigt Hill
#
# Bulk Modulus (GPa) = 50.58098 65.67093 58.12596
# Shear Modulus (GPa) = 40.05059 46.80834 43.42946
#
# Velocity S-wave (km/s) = 3.87474 4.18890 4.03488
# Velocity P-wave (km/s) = 6.24333 6.92919 6.59518
#
# Compressibility (1/GPa) = 0.01977028
#
# Stress axis : x y z
#
# Youngs Moduli (GPa) = 68.56549 131.16019 101.22916
#
# Poissons Ratio (x) = 0.42035 0.32091
# Poissons Ratio (y) = 0.21974 -0.02191
# Poissons Ratio (z) = 0.21736 -0.02839
#
# Static dielectric constant tensor:
#      x y z
#    x 2.176490 0.000000 -0.006180 
#    y 0.000000 2.121360 0.000000 
#    z -0.006180 0.000000 2.002770 
# 
# From -- ./inp_files/124605.got.cif
#   From: 2010.05.17/outbox.cif.g08.bks.cpg/sg15_63_cif.got.tgz:124605.got - 2010.06.03 18:47:42.
