data_PCOD9306928
_publ_section_title
;
Structure prediction by ZEFSAII (Michael W. Deem and Ramdas Pophale) SiO2 
 PCOD9306928
Probable space group: C 2/C
;
_chemical_formula_sum "Si O2"
_cell_formula_units_Z 60
_cell_length_a 26.902073
_cell_length_b 9.308494
_cell_length_c 12.314909
_cell_angle_alpha 90.000000
_cell_angle_beta 69.591708
_cell_angle_gamma 90.000000
_cell_volume 2890.302304
_symmetry_space_group_name_H-M "C 2/C"
_symmetry_group_IT_number 15
_symmetry_cell_setting 'monoclinic'
loop_
_space_group_symop_operation_xyz
x,y,z
-x,y,1/2-z
-x,-y,-z
x,-y,1/2+z
1/2+x,1/2+y,z
1/2-x,1/2+y,1/2-z
1/2-x,1/2-y,-z
1/2+x,1/2-y,1/2+z
loop_
_atom_site_type_symbol
_atom_site_label
_atom_site_fract_x
_atom_site_fract_y
_atom_site_fract_z
Si Si1 0.849566 0.794161 0.069015
Si Si2 0.679439 0.429022 0.639816
Si Si3 0.576507 0.490919 0.353036
Si Si4 0.154213 0.544240 0.923242
Si Si5 0.686044 0.303399 0.004236
Si Si6 0.926786 0.767790 0.493174
Si Si7 0.760520 0.727187 0.745977
Si Si8 0.500000 0.325380 0.250000
O O1 0.900430 0.867935 0.085099
O O2 0.853136 0.622451 0.061449
O O3 0.798033 0.824547 0.183067
O O4 0.836736 0.853644 0.960063
O O5 0.628072 0.442683 0.754703
O O6 0.698927 0.588705 0.590251
O O7 0.721875 0.332341 0.670185
O O8 0.549313 0.620165 0.440278
O O9 0.539220 0.422665 0.291159
O O10 0.197455 0.596863 0.801882
O O11 0.174904 0.630778 0.016397
O O12 0.098745 0.623930 0.939165
O O13 0.627144 0.348132 0.007940
O O14 0.728329 0.314320 0.874673
O O15 0.964791 0.739435 0.363424
#
# Coordination Sequence:
#
# PCOD9306928 Si02
#       8
#     8   8   8   8   8   8   8   4
#     4  12  23  38  66  88 128 178 205 248 327 366
#     4  12  19  39  63  92 122 169 211 257 302 376
#     4  12  22  41  63  93 127 160 213 276 309 366
#     4   8  20  40  56  89 131 163 195 257 313 366
#     4   8  18  38  58  85 133 157 196 265 299 348
#     4   9  19  41  61  87 129 148 204 271 313 363
#     4   9  22  38  58  89 136 165 209 249 299 376
#     4  12  22  38  70  94 106 168 228 254 322 380
#
# _framework density 20.759073999999998
#
# number of rings (size 3 to 8) (size 9 to 14) (size 15 to 20)
#    1.600    0.000    5.333    0.800    3.733    0.000 
#    4.800    2.000    0.000    4.000    0.000    0.000 
#    0.000    0.000    0.000    0.000    0.000    0.000 
#
# Total GULP energy -167219.450809 kJ/mol
# GULP energy per Si atom -5573.981694 kJ/mol
# Density = 2.071183 g / cm^3
# Si number density = 20.759074 Si / 1000 Ang^3
#
#
#
# Elastic Constant Matrix: (Units=GPa)
#
#
# Indices 1 2 3 4 5 6 
#
# 1 61.0508 15.5471 6.6854 0.0000 8.5378 0.0000
# 2 15.5471 126.2272 41.7624 0.0000 11.2409 0.0000
# 3 6.6854 41.7624 88.9728 0.0000 1.5063 0.0000
# 4 0.0000 0.0000 0.0000 23.0522 0.0000 5.8004
# 5 8.5378 11.2409 1.5063 0.0000 29.9958 0.0000
# 6 0.0000 0.0000 0.0000 5.8004 0.0000 12.8256
#
#
#
# Elastic Compliance Matrix: (Units=1/GPa)
#
#
# Indices 1 2 3 4 5 6 
#
# 1 0.017448 -0.001602 -0.000486 0.000000 -0.004342 0.000000
# 2 -0.001602 0.009863 -0.004458 0.000000 -0.003016 0.000000
# 3 -0.000486 -0.004458 0.013349 0.000000 0.001139 0.000000
# 4 0.000000 0.000000 0.000000 0.048950 0.000000 -0.022138
# 5 -0.004342 -0.003016 0.001139 0.000000 0.035647 0.000000
# 6 0.000000 0.000000 0.000000 -0.022138 0.000000 0.087981
#
#
# Mechanical properties :
#
#
# Convention : Reuss Voigt Hill
#
# Bulk Modulus (GPa) = 36.27239 44.91561 40.59400
# Shear Modulus (GPa) = 21.22966 27.32511 24.27739
#
# Velocity S-wave (km/s) = 3.20139 3.63202 3.42348
# Velocity P-wave (km/s) = 5.58356 6.26676 5.93500
#
# Compressibility (1/GPa) = 0.02756918
#
# Stress axis : x y z
#
# Youngs Moduli (GPa) = 57.31304 101.38789 74.91085
#
# Poissons Ratio (x) = 0.16239 0.03639
# Poissons Ratio (y) = 0.09180 0.33396
# Poissons Ratio (z) = 0.02784 0.45200
#
# Static dielectric constant tensor:
#      x y z
#    x 1.771040 0.000000 0.008220 
#    y 0.000000 1.763660 0.000000 
#    z 0.008220 0.000000 1.761140 
# 
# From -- ./inp_files/125865.got.cif
#   From: 2010.05.17/outbox.cif.g08.bks.cpg/sg15_63_cif.got.tgz:125865.got - 2010.06.03 18:47:42.
