data_PCOD9306588
_publ_section_title
;
Structure prediction by ZEFSAII (Michael W. Deem and Ramdas Pophale) SiO2 
 PCOD9306588
Probable space group: C 2/C
;
_chemical_formula_sum "Si O2"
_cell_formula_units_Z 48
_cell_length_a 10.915802
_cell_length_b 10.443256
_cell_length_c 18.161502
_cell_angle_alpha 90.000000
_cell_angle_beta 87.122966
_cell_angle_gamma 90.000000
_cell_volume 2067.738373
_symmetry_space_group_name_H-M "C 2/C"
_symmetry_group_IT_number 15
_symmetry_cell_setting 'monoclinic'
loop_
_space_group_symop_operation_xyz
x,y,z
-x,y,1/2-z
-x,-y,-z
x,-y,1/2+z
1/2+x,1/2+y,z
1/2-x,1/2+y,1/2-z
1/2-x,1/2-y,-z
1/2+x,1/2-y,1/2+z
loop_
_atom_site_type_symbol
_atom_site_label
_atom_site_fract_x
_atom_site_fract_y
_atom_site_fract_z
Si Si1 0.331958 0.763733 0.661764
Si Si2 0.825944 0.115683 0.005907
Si Si3 0.616171 0.907286 0.993748
Si Si4 0.500000 0.060395 0.250000
Si Si5 0.009284 0.023382 0.879730
Si Si6 0.500000 0.360734 0.750000
Si Si7 0.065070 0.673571 0.650734
O O1 0.358462 0.833923 0.582658
O O2 0.391876 0.851177 0.722496
O O3 0.396630 0.626683 0.654567
O O4 0.189976 0.734300 0.678166
O O5 0.912617 0.098422 0.932610
O O6 0.730354 0.998302 0.007542
O O7 0.750000 0.250000 0.000000
O O8 0.915081 0.077660 0.071624
O O9 0.586412 0.816011 0.063378
O O10 0.500000 0.000000 0.000000
O O11 0.454197 0.969304 0.318202
O O12 0.944065 0.958087 0.811744
O O13 0.455741 0.255201 0.690563
#
# Coordination Sequence:
#
# PCOD9306588 Si02
#       7
#     8   8   8   4   8   4   8
#     4  12  25  45  76  99 142 185 238 295 354 431
#     4  11  26  45  75 106 143 185 243 301 355 426
#     4  12  24  46  75 104 137 191 239 296 357 424
#     4  11  27  48  66 108 143 189 236 294 364 439
#     4  11  26  47  70 109 143 187 238 295 363 430
#     4  11  27  48  68 102 147 185 228 294 362 433
#     4  11  26  46  72 101 143 187 237 290 362 432
#
# _framework density 23.213768000000002
#
# number of rings (size 3 to 8) (size 9 to 14) (size 15 to 20)
#    0.000    0.667    3.333    3.000    9.333    0.000 
#    6.000    0.000    0.000    0.000    0.000    0.000 
#    0.000    0.000    0.000    0.000    0.000    0.000 
#
# Total GULP energy -133874.795382 kJ/mol
# GULP energy per Si atom -5578.116474 kJ/mol
# Density = 2.316093 g / cm^3
# Si number density = 23.213768 Si / 1000 Ang^3
#
#
#
# Elastic Constant Matrix: (Units=GPa)
#
#
# Indices 1 2 3 4 5 6 
#
# 1 94.9110 30.2656 14.5813 0.0000 -10.6262 0.0000
# 2 30.2656 117.7780 30.1409 0.0000 1.4154 0.0000
# 3 14.5813 30.1409 93.5549 0.0000 -8.9137 0.0000
# 4 0.0000 0.0000 0.0000 33.8532 0.0000 -15.2600
# 5 -10.6262 1.4154 -8.9137 0.0000 22.0122 0.0000
# 6 0.0000 0.0000 0.0000 -15.2600 0.0000 45.2787
#
#
#
# Elastic Compliance Matrix: (Units=1/GPa)
#
#
# Indices 1 2 3 4 5 6 
#
# 1 0.012257 -0.003137 -0.000329 0.000000 0.005986 0.000000
# 2 -0.003137 0.010132 -0.003101 0.000000 -0.003422 0.000000
# 3 -0.000329 -0.003101 0.012214 0.000000 0.004987 0.000000
# 4 0.000000 0.000000 0.000000 0.034831 0.000000 0.011739
# 5 0.005986 -0.003422 0.004987 0.000000 0.050558 0.000000
# 6 0.000000 0.000000 0.000000 0.011739 0.000000 0.026042
#
#
# Mechanical properties :
#
#
# Convention : Reuss Voigt Hill
#
# Bulk Modulus (GPa) = 46.58190 50.69104 48.63647
# Shear Modulus (GPa) = 30.06147 35.64589 32.85368
#
# Velocity S-wave (km/s) = 3.60249 3.92286 3.76608
# Velocity P-wave (km/s) = 6.11670 6.51172 6.31730
#
# Compressibility (1/GPa) = 0.02146757
#
# Stress axis : x y z
#
# Youngs Moduli (GPa) = 81.58330 98.70184 81.87030
#
# Poissons Ratio (x) = 0.30967 0.02696
# Poissons Ratio (y) = 0.25596 0.25389
# Poissons Ratio (z) = 0.02687 0.30609
#
# Static dielectric constant tensor:
#      x y z
#    x 2.081740 0.000000 -0.022090 
#    y 0.000000 1.787750 0.000000 
#    z -0.022090 0.000000 1.933740 
# 
# From -- ./inp_files/196075.got.cif
#   From: 2010.05.17/outbox.cif.g08.bks.cpg/sg15_99_cif.got.tgz:196075.got - 2010.06.03 18:47:42.
