data_PCOD9306056
_publ_section_title
;
Structure prediction by ZEFSAII (Michael W. Deem and Ramdas Pophale) SiO2 
 PCOD9306056
Probable space group: C 2/C
;
_chemical_formula_sum "Si O2"
_cell_formula_units_Z 48
_cell_length_a 13.156453
_cell_length_b 21.493734
_cell_length_c 8.763771
_cell_angle_alpha 90.000000
_cell_angle_beta 124.725017
_cell_angle_gamma 90.000000
_cell_volume 2036.846300
_symmetry_space_group_name_H-M "C 2/C"
_symmetry_group_IT_number 15
_symmetry_cell_setting 'monoclinic'
loop_
_space_group_symop_operation_xyz
x,y,z
-x,y,1/2-z
-x,-y,-z
x,-y,1/2+z
1/2+x,1/2+y,z
1/2-x,1/2+y,1/2-z
1/2-x,1/2-y,-z
1/2+x,1/2-y,1/2+z
loop_
_atom_site_type_symbol
_atom_site_label
_atom_site_fract_x
_atom_site_fract_y
_atom_site_fract_z
Si Si1 0.759131 0.022383 0.333786
Si Si2 0.952937 0.411837 0.048712
Si Si3 0.110604 0.804207 0.226503
Si Si4 0.552133 0.386057 0.633514
Si Si5 0.215843 0.702350 0.103674
Si Si6 0.291056 0.087447 0.895422
O O1 0.886801 0.056997 0.404164
O O2 0.724791 0.042056 0.474351
O O3 0.766785 0.949938 0.298595
O O4 0.649002 0.048921 0.131111
O O5 0.000000 0.440112 0.250000
O O6 0.068719 0.401551 0.035878
O O7 0.888836 0.346517 0.034365
O O8 0.167199 0.741988 0.204944
O O9 0.220248 0.849273 0.377468
O O10 0.000000 0.792455 0.250000
O O11 0.048244 0.845807 0.041182
O O12 0.500000 0.408044 0.750000
O O13 0.664591 0.338101 0.756288
O O14 0.250000 0.750000 0.000000
#
# Coordination Sequence:
#
# PCOD9306056 Si02
#       6
#     8   8   8   8   8   8
#     4  11  26  47  70 104 139 184 232 293 343 415
#     4  11  25  45  72 105 138 184 232 285 345 410
#     4  12  27  45  68 105 140 184 231 288 348 413
#     4  11  25  45  70 101 141 180 234 280 351 416
#     4  11  25  43  72 100 141 184 232 283 341 414
#     4  12  26  45  73 100 141 183 235 285 354 406
#
# _framework density 23.565843000000001
#
# number of rings (size 3 to 8) (size 9 to 14) (size 15 to 20)
#    0.000    0.667    3.333    3.000    9.333    4.667 
#    0.000    0.000    0.000    0.000    0.000    0.000 
#    0.000    0.000    0.000    0.000    0.000    0.000 
#
# Total GULP energy -134505.363263 kJ/mol
# GULP energy per Si atom -5604.390136 kJ/mol
# Density = 2.351221 g / cm^3
# Si number density = 23.565843 Si / 1000 Ang^3
#
#
#
# Elastic Constant Matrix: (Units=GPa)
#
#
# Indices 1 2 3 4 5 6 
#
# 1 156.2071 36.6790 21.3440 0.0000 -25.3591 0.0000
# 2 36.6790 58.2101 -8.3808 0.0000 13.4687 0.0000
# 3 21.3440 -8.3808 59.0186 0.0000 -9.4155 0.0000
# 4 0.0000 0.0000 0.0000 26.3596 0.0000 -4.6558
# 5 -25.3591 13.4687 -9.4155 0.0000 35.8042 0.0000
# 6 0.0000 0.0000 0.0000 -4.6558 0.0000 33.8473
#
#
#
# Elastic Compliance Matrix: (Units=1/GPa)
#
#
# Indices 1 2 3 4 5 6 
#
# 1 0.010906 -0.009819 -0.003671 0.000000 0.010453 0.000000
# 2 -0.009819 0.027805 0.004928 0.000000 -0.016118 0.000000
# 3 -0.003671 0.004928 0.019060 0.000000 0.000559 0.000000
# 4 0.000000 0.000000 0.000000 0.038881 0.000000 0.005348
# 5 0.010453 -0.016118 0.000559 0.000000 0.041543 0.000000
# 6 0.000000 0.000000 0.000000 0.005348 0.000000 0.030280
#
#
# Mechanical properties :
#
#
# Convention : Reuss Voigt Hill
#
# Bulk Modulus (GPa) = 24.60163 41.41334 33.00748
# Shear Modulus (GPa) = 25.10683 34.12179 29.61431
#
# Velocity S-wave (km/s) = 3.26757 3.80930 3.54879
# Velocity P-wave (km/s) = 4.96973 6.07942 5.55237
#
# Compressibility (1/GPa) = 0.04064772
#
# Stress axis : x y z
#
# Youngs Moduli (GPa) = 91.69396 35.96447 52.46514
#
# Poissons Ratio (x) = 0.35313 0.19259
# Poissons Ratio (y) = 0.90034 -0.25855
# Poissons Ratio (z) = 0.33660 -0.17723
#
# Static dielectric constant tensor:
#      x y z
#    x 1.864940 0.000000 0.013400 
#    y 0.000000 1.865140 0.000000 
#    z 0.013400 0.000000 1.922040 
# 
# From -- ./inp_files/32629.got.cif
#   From: 2010.05.17/outbox.cif.g08.bks.cpg/sg15_17_cif.got.tgz:32629.got - 2010.06.03 18:47:42.
