data_PCOD9306203
_publ_section_title
;
Structure prediction by ZEFSAII (Michael W. Deem and Ramdas Pophale) SiO2 
 PCOD9306203
Probable space group: C 2/C
;
_chemical_formula_sum "Si O2"
_cell_formula_units_Z 40
_cell_length_a 15.000274
_cell_length_b 12.892487
_cell_length_c 13.101092
_cell_angle_alpha 90.000000
_cell_angle_beta 137.805058
_cell_angle_gamma 90.000000
_cell_volume 1701.726513
_symmetry_space_group_name_H-M "C 2/C"
_symmetry_group_IT_number 15
_symmetry_cell_setting 'monoclinic'
loop_
_space_group_symop_operation_xyz
x,y,z
-x,y,1/2-z
-x,-y,-z
x,-y,1/2+z
1/2+x,1/2+y,z
1/2-x,1/2+y,1/2-z
1/2-x,1/2-y,-z
1/2+x,1/2-y,1/2+z
loop_
_atom_site_type_symbol
_atom_site_label
_atom_site_fract_x
_atom_site_fract_y
_atom_site_fract_z
Si Si1 0.488989 0.273531 0.012538
Si Si2 0.809873 0.945863 0.801847
Si Si3 0.717732 0.339983 0.340026
Si Si4 0.673098 0.829536 0.506623
Si Si5 0.849065 0.549549 0.127795
O O1 0.442162 0.392001 0.955970
O O2 0.356936 0.210075 0.925958
O O3 0.595653 0.270968 0.195826
O O4 0.551613 0.226740 0.961613
O O5 0.763146 0.864329 0.677286
O O6 0.705322 0.958490 0.804626
O O7 0.807702 0.054229 0.742625
O O8 0.744732 0.376618 0.478742
O O9 0.750000 0.750000 0.500000
O O10 0.645779 0.935758 0.421639
O O11 0.000000 0.587936 0.250000
#
# Coordination Sequence:
#
# PCOD9306203 Si02
#       5
#     8   8   8   8   8
#     4  12  24  48  75 111 151 198 256 309 373 452
#     4  11  25  48  73 110 151 196 250 318 373 448
#     4  11  26  47  74 109 151 196 252 312 380 445
#     4  11  25  45  76 111 147 200 256 309 373 451
#     4  11  25  45  75 108 152 198 249 313 382 445
#
# _framework density 23.505541000000001
#
# number of rings (size 3 to 8) (size 9 to 14) (size 15 to 20)
#    0.000    0.800    2.000    4.200    2.800    4.800 
#    3.600    4.000    0.000    0.000    0.000    0.000 
#    0.000    0.000    0.000    0.000    0.000    0.000 
#
# Total GULP energy -111912.267813 kJ/mol
# GULP energy per Si atom -5595.613391 kJ/mol
# Density = 2.345204 g / cm^3
# Si number density = 23.505541 Si / 1000 Ang^3
#
#
#
# Elastic Constant Matrix: (Units=GPa)
#
#
# Indices 1 2 3 4 5 6 
#
# 1 76.4105 29.0327 51.7131 0.0000 -7.8862 0.0000
# 2 29.0327 106.5822 25.0934 0.0000 7.2328 0.0000
# 3 51.7131 25.0934 139.4080 0.0000 9.6357 0.0000
# 4 0.0000 0.0000 0.0000 22.9694 0.0000 32.6621
# 5 -7.8862 7.2328 9.6357 0.0000 43.9462 0.0000
# 6 0.0000 0.0000 0.0000 32.6621 0.0000 -57.2932
#
#
#
# Elastic Compliance Matrix: (Units=1/GPa)
#
#
# Indices 1 2 3 4 5 6 
#
# 1 0.020094 -0.004198 -0.007103 0.000000 0.005854 0.000000
# 2 -0.004198 0.010742 -0.000205 0.000000 -0.002476 0.000000
# 3 -0.007103 -0.000205 0.010083 0.000000 -0.003452 0.000000
# 4 0.000000 0.000000 0.000000 0.024044 0.000000 0.013707
# 5 0.005854 -0.002476 -0.003452 0.000000 0.024970 0.000000
# 6 0.000000 0.000000 0.000000 0.013707 0.000000 -0.009640
#
#
# Mechanical properties :
#
#
# Convention : Reuss Voigt Hill
#
# Bulk Modulus (GPa) = 55.84366 59.34210 57.59288
# Shear Modulus (GPa) = 45.75599 16.36192 31.05895
#
# Velocity S-wave (km/s) = 4.41682 2.64121 3.63898
# Velocity P-wave (km/s) = 7.05835 5.88236 6.49702
#
# Compressibility (1/GPa) = 0.01790714
#
# Stress axis : x y z
#
# Youngs Moduli (GPa) = 49.76732 93.08896 99.17335
#
# Poissons Ratio (x) = 0.39083 0.70438
# Poissons Ratio (y) = 0.20895 0.02033
# Poissons Ratio (z) = 0.35348 0.01909
#
# Static dielectric constant tensor:
#      x y z
#    x 1.823200 0.000000 0.031700 
#    y 0.000000 1.939120 0.000000 
#    z 0.031700 0.000000 1.907370 
# 
# From -- ./inp_files/96657.got.cif
#   From: 2010.05.17/outbox.cif.g08.bks.cpg/sg15_49_cif.got.tgz:96657.got - 2010.06.03 18:47:42.
