data_PCOD9306108
_publ_section_title
;
Structure prediction by ZEFSAII (Michael W. Deem and Ramdas Pophale) SiO2 
 PCOD9306108
Probable space group: C 2/C
;
_chemical_formula_sum "Si O2"
_cell_formula_units_Z 44
_cell_length_a 21.463306
_cell_length_b 17.042602
_cell_length_c 14.405068
_cell_angle_alpha 90.000000
_cell_angle_beta 21.366722
_cell_angle_gamma 90.000000
_cell_volume 1919.772937
_symmetry_space_group_name_H-M "C 2/C"
_symmetry_group_IT_number 15
_symmetry_cell_setting 'monoclinic'
loop_
_space_group_symop_operation_xyz
x,y,z
-x,y,1/2-z
-x,-y,-z
x,-y,1/2+z
1/2+x,1/2+y,z
1/2-x,1/2+y,1/2-z
1/2-x,1/2-y,-z
1/2+x,1/2-y,1/2+z
loop_
_atom_site_type_symbol
_atom_site_label
_atom_site_fract_x
_atom_site_fract_y
_atom_site_fract_z
Si Si1 0.439464 0.152013 0.423627
Si Si2 0.564536 0.418983 0.958130
Si Si3 0.000000 0.964388 0.250000
Si Si4 0.874271 0.760017 0.185830
Si Si5 0.564991 0.146384 0.558717
Si Si6 0.339795 0.941838 0.232925
O O1 0.500000 0.101470 0.250000
O O2 0.320158 0.213064 0.534260
O O3 0.566059 0.197773 0.318685
O O4 0.327209 0.101688 0.651735
O O5 0.771049 0.411972 0.668066
O O6 0.500000 0.500000 0.000000
O O7 0.496488 0.417543 0.158823
O O8 0.491734 0.337341 0.019729
O O9 0.830947 0.016035 0.498309
O O10 0.876202 0.719860 0.082928
O O11 0.500000 0.165513 0.750000
O O12 0.403532 0.114528 0.725567
O O13 0.500000 0.000000 0.000000
#
# Coordination Sequence:
#
# PCOD9306108 Si02
#       6
#     8   8   4   8   8   8
#     4  11  25  44  75 103 147 191 247 310 366 444
#     4  12  26  46  73 111 145 196 251 302 379 442
#     4  12  26  48  74 104 156 188 246 320 364 450
#     4  11  25  46  70 111 142 195 249 298 378 438
#     4  11  25  49  73 105 151 195 249 311 367 450
#     4  11  25  47  72 111 146 195 248 301 380 439
#
# _framework density 22.919378999999999
#
# number of rings (size 3 to 8) (size 9 to 14) (size 15 to 20)
#    0.000    0.727    3.636    2.727    3.818    1.455 
#    6.545    0.000    0.000    0.000    0.000    0.000 
#    0.000    0.000    0.000    0.000    0.000    0.000 
#
# Total GULP energy -122971.664461 kJ/mol
# GULP energy per Si atom -5589.621112 kJ/mol
# Density = 2.286721 g / cm^3
# Si number density = 22.919379 Si / 1000 Ang^3
#
#
#
# Elastic Constant Matrix: (Units=GPa)
#
#
# Indices 1 2 3 4 5 6 
#
# 1 100.5778 23.1013 44.8434 -0.0005 23.4072 -0.0005
# 2 23.1013 64.3028 15.4773 -0.0007 3.9735 0.0003
# 3 44.8434 15.4773 117.6511 -0.0008 5.3067 0.0005
# 4 -0.0005 -0.0007 -0.0008 23.7235 0.0010 -0.4917
# 5 23.4072 3.9735 5.3067 0.0010 52.4453 -0.0004
# 6 -0.0005 0.0003 0.0005 -0.4917 -0.0004 33.1756
#
#
#
# Elastic Compliance Matrix: (Units=1/GPa)
#
#
# Indices 1 2 3 4 5 6 
#
# 1 0.014150 -0.003616 -0.004666 0.000000 -0.005569 0.000000
# 2 -0.003616 0.017037 -0.000882 0.000000 0.000412 0.000000
# 3 -0.004666 -0.000882 0.010345 0.000000 0.001103 0.000000
# 4 0.000000 0.000000 0.000000 0.042165 -0.000001 0.000625
# 5 -0.005569 0.000412 0.001103 -0.000001 0.021410 0.000000
# 6 0.000000 0.000000 0.000000 0.000625 0.000000 0.030152
#
#
# Mechanical properties :
#
#
# Convention : Reuss Voigt Hill
#
# Bulk Modulus (GPa) = 43.09705 49.93063 46.51384
# Shear Modulus (GPa) = 30.99402 35.14286 33.06844
#
# Velocity S-wave (km/s) = 3.68136 3.92002 3.80256
# Velocity P-wave (km/s) = 6.07573 6.50549 6.29428
#
# Compressibility (1/GPa) = 0.02320345
#
# Stress axis : x y z
#
# Youngs Moduli (GPa) = 70.67275 58.69495 96.66931
#
# Poissons Ratio (x) = 0.21225 0.45109
# Poissons Ratio (y) = 0.25556 0.08522
# Poissons Ratio (z) = 0.32978 0.05175
#
# Static dielectric constant tensor:
#      x y z
#    x 1.904260 0.000000 0.023490 
#    y 0.000000 1.906800 0.000000 
#    z 0.023490 0.000000 1.932680 
# 
# From -- ./inp_files/174165.got.cif
#   From: 2010.05.17/outbox.cif.g08.bks.cpg/sg15_88_cif.got.tgz:174165.got - 2010.06.03 18:47:42.
