data_PCOD9306088
_publ_section_title
;
Structure prediction by ZEFSAII (Michael W. Deem and Ramdas Pophale) SiO2 
 PCOD9306088
Probable space group: C 2/C
;
_chemical_formula_sum "Si O2"
_cell_formula_units_Z 28
_cell_length_a 16.195484
_cell_length_b 7.847147
_cell_length_c 8.195197
_cell_angle_alpha 90.000000
_cell_angle_beta 96.622509
_cell_angle_gamma 90.000000
_cell_volume 1034.564547
_symmetry_space_group_name_H-M "C 2/C"
_symmetry_group_IT_number 15
_symmetry_cell_setting 'monoclinic'
loop_
_space_group_symop_operation_xyz
x,y,z
-x,y,1/2-z
-x,-y,-z
x,-y,1/2+z
1/2+x,1/2+y,z
1/2-x,1/2+y,1/2-z
1/2-x,1/2-y,-z
1/2+x,1/2-y,1/2+z
loop_
_atom_site_type_symbol
_atom_site_label
_atom_site_fract_x
_atom_site_fract_y
_atom_site_fract_z
Si Si1 0.320420 0.371342 0.217149
Si Si2 0.037807 0.675937 0.937784
Si Si3 0.797609 0.487725 0.573699
Si Si4 0.000000 0.098512 0.750000
O O1 0.288436 0.435227 0.382039
O O2 0.333818 0.170840 0.186369
O O3 0.406042 0.468008 0.196386
O O4 0.234084 0.406579 0.101286
O O5 0.133583 0.629968 0.930433
O O6 0.000000 0.715725 0.750000
O O7 0.000000 0.500000 0.000000
O O8 0.018192 0.804709 0.081074
#
# Coordination Sequence:
#
# PCOD9306088 Si02
#       4
#     8   8   8   4
#     4  11  25  46  69 103 143 186 236 293 355 427
#     4  12  22  42  74 106 137 187 243 293 337 421
#     4  11  25  44  71 104 142 183 238 295 353 420
#     4  12  26  44  72 106 148 184 242 288 360 428
#
# _framework density 27.064527999999999
#
# number of rings (size 3 to 8) (size 9 to 14) (size 15 to 20)
#    0.000    0.571    4.286    3.429    4.000    5.714 
#    0.000    0.000    0.000    0.000    0.000    0.000 
#    0.000    0.000    0.000    0.000    0.000    0.000 
#
# Total GULP energy -78282.070384 kJ/mol
# GULP energy per Si atom -5591.576456 kJ/mol
# Density = 2.700293 g / cm^3
# Si number density = 27.064528 Si / 1000 Ang^3
#
#
#
# Elastic Constant Matrix: (Units=GPa)
#
#
# Indices 1 2 3 4 5 6 
#
# 1 215.6274 26.7893 17.5156 0.0000 -9.3765 0.0000
# 2 26.7893 74.1639 18.8194 0.0000 6.4981 0.0000
# 3 17.5156 18.8194 134.0835 0.0000 15.0127 0.0000
# 4 0.0000 0.0000 0.0000 26.5190 0.0000 6.4817
# 5 -9.3765 6.4981 15.0127 0.0000 51.7689 0.0000
# 6 0.0000 0.0000 0.0000 6.4817 0.0000 50.8495
#
#
#
# Elastic Compliance Matrix: (Units=1/GPa)
#
#
# Indices 1 2 3 4 5 6 
#
# 1 0.004956 -0.001764 -0.000543 0.000000 0.001277 0.000000
# 2 -0.001764 0.014685 -0.001642 0.000000 -0.001687 0.000000
# 3 -0.000543 -0.001642 0.008007 0.000000 -0.002214 0.000000
# 4 0.000000 0.000000 0.000000 0.038921 0.000000 -0.004961
# 5 0.001277 -0.001687 -0.002214 0.000000 0.020402 0.000000
# 6 0.000000 0.000000 0.000000 -0.004961 0.000000 0.020298
#
#
# Mechanical properties :
#
#
# Convention : Reuss Voigt Hill
#
# Bulk Modulus (GPa) = 50.63017 61.12482 55.87749
# Shear Modulus (GPa) = 41.06695 49.87751 45.47223
#
# Velocity S-wave (km/s) = 3.89957 4.29757 4.10340
# Velocity P-wave (km/s) = 6.24687 6.87454 6.56821
#
# Compressibility (1/GPa) = 0.01975107
#
# Stress axis : x y z
#
# Youngs Moduli (GPa) = 201.75741 68.09468 124.88594
#
# Poissons Ratio (x) = 0.12015 0.06778
# Poissons Ratio (y) = 0.35600 0.20504
# Poissons Ratio (z) = 0.10950 0.11180
#
# Static dielectric constant tensor:
#      x y z
#    x 2.028080 0.000000 0.014170 
#    y 0.000000 2.315830 0.000000 
#    z 0.014170 0.000000 2.245030 
# 
# From -- ./inp_files/36374.got.cif
#   From: 2010.05.17/outbox.cif.g08.bks.cpg/sg15_19_cif.got.tgz:36374.got - 2010.06.03 18:47:42.
