data_PCOD9306941
_publ_section_title
;
Structure prediction by ZEFSAII (Michael W. Deem and Ramdas Pophale) SiO2 
 PCOD9306941
Probable space group: C 2/C
;
_chemical_formula_sum "Si O2"
_cell_formula_units_Z 44
_cell_length_a 8.245383
_cell_length_b 29.644831
_cell_length_c 8.614447
_cell_angle_alpha 90.000000
_cell_angle_beta 85.917154
_cell_angle_gamma 90.000000
_cell_volume 2100.311150
_symmetry_space_group_name_H-M "C 2/C"
_symmetry_group_IT_number 15
_symmetry_cell_setting 'monoclinic'
loop_
_space_group_symop_operation_xyz
x,y,z
-x,y,1/2-z
-x,-y,-z
x,-y,1/2+z
1/2+x,1/2+y,z
1/2-x,1/2+y,1/2-z
1/2-x,1/2-y,-z
1/2+x,1/2-y,1/2+z
loop_
_atom_site_type_symbol
_atom_site_label
_atom_site_fract_x
_atom_site_fract_y
_atom_site_fract_z
Si Si1 0.254765 0.321880 0.817461
Si Si2 0.770505 0.579355 0.165795
Si Si3 0.620507 0.514959 0.627480
Si Si4 0.500000 0.750673 0.250000
Si Si5 0.901749 0.680441 0.505112
Si Si6 0.900422 0.581177 0.505421
O O1 0.316578 0.372583 0.853654
O O2 0.379687 0.282767 0.850461
O O3 0.217733 0.315608 0.635143
O O4 0.082750 0.318624 0.917366
O O5 0.675120 0.533257 0.189650
O O6 0.849676 0.586681 0.329013
O O7 0.907462 0.570999 0.023555
O O8 0.500000 0.541369 0.750000
O O9 0.500000 0.500000 0.500000
O O10 0.781461 0.543547 0.580966
O O11 0.599825 0.782083 0.362163
O O12 0.877869 0.630574 0.578923
#
# Coordination Sequence:
#
# PCOD9306941 Si02
#       6
#     8   8   8   4   8   8
#     4   9  20  37  61  83 114 159 194 232 284 354
#     4   9  19  38  62  83 110 163 200 222 280 369
#     4  12  23  37  58  88 121 144 194 246 294 340
#     4  12  20  32  62  94 116 142 194 258 292 318
#     4   9  20  39  57  82 119 154 196 230 287 356
#     4   9  19  40  60  78 116 161 196 231 283 351
#
# _framework density 20.949276999999999
#
# number of rings (size 3 to 8) (size 9 to 14) (size 15 to 20)
#    0.000    2.182    1.818    3.818    1.273    0.000 
#    6.545    0.000   12.000    0.000    0.000    0.000 
#    0.000    0.000    0.000    0.000    0.000    0.000 
#
# Total GULP energy -122578.300031 kJ/mol
# GULP energy per Si atom -5571.740911 kJ/mol
# Density = 2.090160 g / cm^3
# Si number density = 20.949277 Si / 1000 Ang^3
#
#
#
# Elastic Constant Matrix: (Units=GPa)
#
#
# Indices 1 2 3 4 5 6 
#
# 1 57.1527 49.5173 8.4341 0.0000 -15.9282 0.0000
# 2 49.5173 161.3195 28.3557 0.0000 -16.4077 0.0000
# 3 8.4341 28.3557 36.1530 0.0000 -13.3828 0.0000
# 4 0.0000 0.0000 0.0000 21.4359 0.0000 -2.0837
# 5 -15.9282 -16.4077 -13.3828 0.0000 25.8507 0.0000
# 6 0.0000 0.0000 0.0000 -2.0837 0.0000 7.9317
#
#
#
# Elastic Compliance Matrix: (Units=1/GPa)
#
#
# Indices 1 2 3 4 5 6 
#
# 1 0.027694 -0.007917 0.005202 0.000000 0.014732 0.000000
# 2 -0.007917 0.009541 -0.006433 0.000000 -0.002153 0.000000
# 3 0.005202 -0.006433 0.038556 0.000000 0.019083 0.000000
# 4 0.000000 0.000000 0.000000 0.047873 0.000000 0.012577
# 5 0.014732 -0.002153 0.019083 0.000000 0.056274 0.000000
# 6 0.000000 0.000000 0.000000 0.012577 0.000000 0.129381
#
#
# Mechanical properties :
#
#
# Convention : Reuss Voigt Hill
#
# Bulk Modulus (GPa) = 17.39263 47.47106 32.43184
# Shear Modulus (GPa) = 14.41838 22.26486 18.34162
#
# Velocity S-wave (km/s) = 2.62630 3.26360 2.96214
# Velocity P-wave (km/s) = 4.18532 6.07541 5.21668
#
# Compressibility (1/GPa) = 0.05749562
#
# Stress axis : x y z
#
# Youngs Moduli (GPa) = 36.10855 104.81356 25.93623
#
# Poissons Ratio (x) = 0.82979 -0.13492
# Poissons Ratio (y) = 0.28586 0.16685
# Poissons Ratio (z) = -0.18784 0.67427
#
# Static dielectric constant tensor:
#      x y z
#    x 1.805430 0.000000 0.033860 
#    y 0.000000 1.844410 0.000000 
#    z 0.033860 0.000000 1.868780 
# 
# From -- ./inp_files/25572.got.cif
#   From: 2010.05.17/outbox.cif.g08.bks.cpg/sg15_13_cif.got.tgz:25572.got - 2010.06.03 18:47:42.
