data_PCOD9306061
_publ_section_title
;
Structure prediction by ZEFSAII (Michael W. Deem and Ramdas Pophale) SiO2 
 PCOD9306061
Probable space group: C 2/C
;
_chemical_formula_sum "Si O2"
_cell_formula_units_Z 44
_cell_length_a 22.565126
_cell_length_b 17.801638
_cell_length_c 15.203602
_cell_angle_alpha 90.000000
_cell_angle_beta 20.040809
_cell_angle_gamma 90.000000
_cell_volume 2092.882435
_symmetry_space_group_name_H-M "C 2/C"
_symmetry_group_IT_number 15
_symmetry_cell_setting 'monoclinic'
loop_
_space_group_symop_operation_xyz
x,y,z
-x,y,1/2-z
-x,-y,-z
x,-y,1/2+z
1/2+x,1/2+y,z
1/2-x,1/2+y,1/2-z
1/2-x,1/2-y,-z
1/2+x,1/2-y,1/2+z
loop_
_atom_site_type_symbol
_atom_site_label
_atom_site_fract_x
_atom_site_fract_y
_atom_site_fract_z
Si Si1 0.478190 0.071077 0.595558
Si Si2 0.084619 0.214175 0.777449
Si Si3 0.137152 0.067802 0.807088
Si Si4 0.153338 0.156148 0.968074
Si Si5 0.000000 0.502440 0.750000
Si Si6 0.799792 0.291249 0.713263
O O1 0.326609 0.122981 0.768924
O O2 0.435352 0.047470 0.754818
O O3 0.651380 0.121668 0.360098
O O4 0.500000 0.000000 0.500000
O O5 0.250000 0.250000 0.500000
O O6 0.101810 0.126777 0.777961
O O7 0.085122 0.256599 0.869976
O O8 0.901525 0.223844 0.985444
O O9 0.124286 0.111042 0.917746
O O10 0.335006 0.042517 0.516791
O O11 0.000000 0.000000 0.000000
O O12 0.164655 0.243624 0.924253
O O13 0.000000 0.144536 0.250000
#
# Coordination Sequence:
#
# PCOD9306061 Si02
#       6
#     8   8   8   8   4   8
#     4  12  26  48  74 108 152 195 250 310 381 451
#     4  11  25  43  73 105 149 195 254 310 380 449
#     4  11  25  46  69 108 148 195 257 314 382 460
#     4  11  25  47  72 103 150 192 252 313 372 451
#     4  12  26  44  80 100 150 196 248 312 388 434
#     4  11  25  47  71 106 149 195 250 307 378 454
#
# _framework density 21.023637000000001
#
# number of rings (size 3 to 8) (size 9 to 14) (size 15 to 20)
#    0.000    0.727    3.636    2.727    8.909    2.182 
#    0.000    0.000    0.000    0.000    0.000    0.000 
#    0.000    0.000    0.000    0.000    0.000    0.000 
#
# Total GULP energy -122928.237451 kJ/mol
# GULP energy per Si atom -5587.647157 kJ/mol
# Density = 2.097579 g / cm^3
# Si number density = 21.023637 Si / 1000 Ang^3
#
#
#
# Elastic Constant Matrix: (Units=GPa)
#
#
# Indices 1 2 3 4 5 6 
#
# 1 101.0159 42.1606 35.6219 -0.0053 3.7094 0.0034
# 2 42.1606 122.6085 59.5676 -0.0049 2.8013 0.0029
# 3 35.6219 59.5676 154.1155 -0.0068 -5.5460 0.0035
# 4 -0.0053 -0.0049 -0.0068 22.2561 0.0047 -2.7799
# 5 3.7094 2.8013 -5.5460 0.0047 38.8773 -0.0033
# 6 0.0034 0.0029 0.0035 -2.7799 -0.0033 34.3966
#
#
#
# Elastic Compliance Matrix: (Units=1/GPa)
#
#
# Indices 1 2 3 4 5 6 
#
# 1 0.011855 -0.003325 -0.001495 0.000002 -0.001105 -0.000001
# 2 -0.003325 0.011038 -0.003533 0.000001 -0.000982 0.000000
# 3 -0.001495 -0.003533 0.008256 0.000001 0.001575 0.000000
# 4 0.000002 0.000001 0.000001 0.045390 -0.000005 0.003668
# 5 -0.001105 -0.000982 0.001575 -0.000005 0.026123 0.000002
# 6 -0.000001 0.000000 0.000000 0.003668 0.000002 0.029369
#
#
# Mechanical properties :
#
#
# Convention : Reuss Voigt Hill
#
# Bulk Modulus (GPa) = 69.23434 72.49334 70.86384
# Shear Modulus (GPa) = 32.56229 35.13201 33.84715
#
# Velocity S-wave (km/s) = 3.93980 4.09231 4.01678
# Velocity P-wave (km/s) = 7.32797 7.54228 7.43590
#
# Compressibility (1/GPa) = 0.01444370
#
# Stress axis : x y z
#
# Youngs Moduli (GPa) = 84.35378 90.59250 121.11724
#
# Poissons Ratio (x) = 0.30122 0.18103
# Poissons Ratio (y) = 0.28048 0.42794
# Poissons Ratio (z) = 0.12608 0.32009
#
# Static dielectric constant tensor:
#      x y z
#    x 1.751210 0.000000 -0.034800 
#    y 0.000000 1.792340 0.000000 
#    z -0.034800 0.000000 1.663480 
# 
# From -- ./inp_files/174172.got.cif
#   From: 2010.05.17/outbox.cif.g08.bks.cpg/sg15_88_cif.got.tgz:174172.got - 2010.06.03 18:47:42.
