data_PCOD9306215
_publ_section_title
;
Structure prediction by ZEFSAII (Michael W. Deem and Ramdas Pophale) SiO2 
 PCOD9306215
Probable space group: C 2/C
;
_chemical_formula_sum "Si O2"
_cell_formula_units_Z 52
_cell_length_a 14.527957
_cell_length_b 11.819840
_cell_length_c 13.578359
_cell_angle_alpha 90.000000
_cell_angle_beta 115.900579
_cell_angle_gamma 90.000000
_cell_volume 2097.443944
_symmetry_space_group_name_H-M "C 2/C"
_symmetry_group_IT_number 15
_symmetry_cell_setting 'monoclinic'
loop_
_space_group_symop_operation_xyz
x,y,z
-x,y,1/2-z
-x,-y,-z
x,-y,1/2+z
1/2+x,1/2+y,z
1/2-x,1/2+y,1/2-z
1/2-x,1/2-y,-z
1/2+x,1/2-y,1/2+z
loop_
_atom_site_type_symbol
_atom_site_label
_atom_site_fract_x
_atom_site_fract_y
_atom_site_fract_z
Si Si1 0.002187 0.749986 0.863396
Si Si2 0.851307 0.918168 0.862400
Si Si3 0.670121 0.795514 0.729655
Si Si4 0.402674 0.032261 0.890462
Si Si5 0.305226 0.502949 0.621772
Si Si6 0.817164 0.152195 0.948710
Si Si7 0.000000 0.140435 0.750000
O O1 0.947944 0.838635 0.910301
O O2 0.942745 0.632471 0.840484
O O3 0.000000 0.788715 0.750000
O O4 0.114480 0.755752 0.961048
O O5 0.754822 0.839481 0.847117
O O6 0.832652 0.943574 0.737928
O O7 0.861346 0.039508 0.915656
O O8 0.722136 0.724038 0.664043
O O9 0.576356 0.718916 0.722569
O O10 0.624376 0.915191 0.674612
O O11 0.299200 0.069863 0.899655
O O12 0.500000 0.000000 0.000000
O O13 0.271843 0.417001 0.520733
O O14 0.413442 0.567007 0.650164
#
# Coordination Sequence:
#
# PCOD9306215 Si02
#       7
#     8   8   8   8   8   8   4
#     4  12  25  45  77 110 153 198 256 313 376 464
#     4  11  25  46  71 111 148 193 256 312 379 452
#     4  11  27  45  72 104 156 198 249 315 384 456
#     4  11  26  48  67 109 156 200 251 309 385 461
#     4  11  25  45  78 109 150 193 263 314 379 456
#     4  12  25  47  78 111 147 204 251 322 383 449
#     4  12  24  48  72 112 148 190 256 320 376 454
#
# _framework density 24.792079000000001
#
# number of rings (size 3 to 8) (size 9 to 14) (size 15 to 20)
#    0.000    0.615    4.615    2.308    5.385    4.923 
#    0.000    2.308    0.000    0.000    0.000    0.000 
#    0.000    0.000    0.000    0.000    0.000    0.000 
#
# Total GULP energy -145000.506653 kJ/mol
# GULP energy per Si atom -5576.942564 kJ/mol
# Density = 2.473565 g / cm^3
# Si number density = 24.792079 Si / 1000 Ang^3
#
#
#
# Elastic Constant Matrix: (Units=GPa)
#
#
# Indices 1 2 3 4 5 6 
#
# 1 101.6981 47.3127 30.3484 0.0000 10.9654 0.0000
# 2 47.3127 144.5903 23.0589 0.0000 5.4230 0.0000
# 3 30.3484 23.0589 52.9232 0.0000 6.3840 0.0000
# 4 0.0000 0.0000 0.0000 35.4195 0.0000 -0.6535
# 5 10.9654 5.4230 6.3840 0.0000 35.5911 0.0000
# 6 0.0000 0.0000 0.0000 -0.6535 0.0000 57.7436
#
#
#
# Elastic Compliance Matrix: (Units=1/GPa)
#
#
# Indices 1 2 3 4 5 6 
#
# 1 0.013442 -0.003356 -0.005937 0.000000 -0.002565 0.000000
# 2 -0.003356 0.008281 -0.001693 0.000000 0.000076 0.000000
# 3 -0.005937 -0.001693 0.023290 0.000000 -0.002090 0.000000
# 4 0.000000 0.000000 0.000000 0.028239 0.000000 0.000320
# 5 -0.002565 0.000076 -0.002090 0.000000 0.029251 0.000000
# 6 0.000000 0.000000 0.000000 0.000320 0.000000 0.017322
#
#
# Mechanical properties :
#
#
# Convention : Reuss Voigt Hill
#
# Bulk Modulus (GPa) = 43.39886 55.62796 49.51341
# Shear Modulus (GPa) = 33.45008 38.98360 36.21684
#
# Velocity S-wave (km/s) = 3.67716 3.96968 3.82622
# Velocity P-wave (km/s) = 5.96421 6.59527 6.28767
#
# Compressibility (1/GPa) = 0.02304208
#
# Stress axis : x y z
#
# Youngs Moduli (GPa) = 74.39143 120.75432 42.93756
#
# Poissons Ratio (x) = 0.40520 0.25492
# Poissons Ratio (y) = 0.24963 0.07270
# Poissons Ratio (z) = 0.44166 0.20445
#
# Static dielectric constant tensor:
#      x y z
#    x 2.269390 0.000000 0.123650 
#    y 0.000000 1.989110 0.000000 
#    z 0.123650 0.000000 2.066230 
# 
# From -- ./inp_files/152669.got.cif
#   From: 2010.05.17/outbox.cif.g08.bks.cpg/sg15_77_cif.got.tgz:152669.got - 2010.06.03 18:47:42.
