data_PCOD9306863
_publ_section_title
;
Structure prediction by ZEFSAII (Michael W. Deem and Ramdas Pophale) SiO2 
 PCOD9306863
Probable space group: C 2/C
;
_chemical_formula_sum "Si O2"
_cell_formula_units_Z 40
_cell_length_a 18.439560
_cell_length_b 5.126442
_cell_length_c 24.322737
_cell_angle_alpha 90.000000
_cell_angle_beta 135.475072
_cell_angle_gamma 90.000000
_cell_volume 1612.252431
_symmetry_space_group_name_H-M "C 2/C"
_symmetry_group_IT_number 15
_symmetry_cell_setting 'monoclinic'
loop_
_space_group_symop_operation_xyz
x,y,z
-x,y,1/2-z
-x,-y,-z
x,-y,1/2+z
1/2+x,1/2+y,z
1/2-x,1/2+y,1/2-z
1/2-x,1/2-y,-z
1/2+x,1/2-y,1/2+z
loop_
_atom_site_type_symbol
_atom_site_label
_atom_site_fract_x
_atom_site_fract_y
_atom_site_fract_z
Si Si1 0.212372 0.205051 0.541832
Si Si2 0.466496 0.285865 0.319186
Si Si3 0.171948 0.203819 0.858639
Si Si4 0.317021 0.377515 0.792926
Si Si5 0.484880 0.111234 0.931944
O O1 0.250000 0.250000 0.500000
O O2 0.269360 0.426755 0.609594
O O3 0.089380 0.231197 0.476738
O O4 0.249392 0.922355 0.579541
O O5 0.384059 0.201973 0.227715
O O6 0.577677 0.312165 0.351496
O O7 0.415101 0.562450 0.307042
O O8 0.471847 0.104653 0.376188
O O9 0.257073 0.647428 0.766681
O O10 0.378432 0.273979 0.878270
O O11 0.500000 0.000000 0.000000
#
# Coordination Sequence:
#
# PCOD9306863 Si02
#       5
#     8   8   8   8   8
#     4  12  26  50  80 116 157 203 252 326 396 462
#     4  11  27  51  77 115 154 202 272 318 384 478
#     4  11  28  46  84 113 151 206 259 323 392 463
#     4  12  28  50  78 104 153 207 255 315 387 474
#     4  12  30  49  80 116 163 203 265 325 397 469
#
# _framework density 24.810010999999999
#
# number of rings (size 3 to 8) (size 9 to 14) (size 15 to 20)
#    0.000    0.400    4.000    1.800    8.400    4.000 
#    0.000    0.000    0.000    0.000    0.000    0.000 
#    0.000    0.000    0.000    0.000    0.000    0.000 
#
# Total GULP energy -112093.300707 kJ/mol
# GULP energy per Si atom -5604.665035 kJ/mol
# Density = 2.475354 g / cm^3
# Si number density = 24.810011 Si / 1000 Ang^3
#
#
#
# Elastic Constant Matrix: (Units=GPa)
#
#
# Indices 1 2 3 4 5 6 
#
# 1 102.0647 38.2582 53.9856 -0.0040 6.0339 0.0075
# 2 38.2582 128.5309 50.9450 -0.0098 16.6690 0.0103
# 3 53.9856 50.9450 154.3731 -0.0019 19.0187 0.0056
# 4 -0.0040 -0.0098 -0.0019 39.4101 -0.0001 7.6064
# 5 6.0339 16.6690 19.0187 -0.0001 52.7566 -0.0008
# 6 0.0075 0.0103 0.0056 7.6064 -0.0008 37.3827
#
#
#
# Elastic Compliance Matrix: (Units=1/GPa)
#
#
# Indices 1 2 3 4 5 6 
#
# 1 0.012608 -0.002367 -0.003707 0.000001 0.000642 -0.000001
# 2 -0.002367 0.009570 -0.002084 0.000002 -0.002002 -0.000002
# 3 -0.003707 -0.002084 0.008716 0.000000 -0.002060 0.000000
# 4 0.000001 0.000002 0.000000 0.026411 -0.000001 -0.005374
# 5 0.000642 -0.002002 -0.002060 -0.000001 0.020256 0.000001
# 6 -0.000001 -0.000002 0.000000 -0.005374 0.000001 0.027844
#
#
# Mechanical properties :
#
#
# Convention : Reuss Voigt Hill
#
# Bulk Modulus (GPa) = 68.59621 74.59403 71.59512
# Shear Modulus (GPa) = 39.50052 42.02854 40.76453
#
# Velocity S-wave (km/s) = 3.99447 4.12031 4.05787
# Velocity P-wave (km/s) = 6.99878 7.26411 7.13268
#
# Compressibility (1/GPa) = 0.01457807
#
# Stress axis : x y z
#
# Youngs Moduli (GPa) = 79.31660 104.48928 114.73532
#
# Poissons Ratio (x) = 0.24730 0.42534
# Poissons Ratio (y) = 0.18772 0.23911
# Poissons Ratio (z) = 0.29403 0.21776
#
# Static dielectric constant tensor:
#      x y z
#    x 2.174420 -0.000210 -0.099860 
#    y -0.000210 2.187020 0.000030 
#    z -0.099860 0.000030 2.010380 
# 
# From -- ./inp_files/300013.got.cif
#   From: 2010.05.17/outbox.cif.g08.bks.cpg/sg15_151_cif.got.tgz:300013.got - 2010.06.03 18:47:42.
