data_PCOD9306748
_publ_section_title
;
Structure prediction by ZEFSAII (Michael W. Deem and Ramdas Pophale) SiO2 
 PCOD9306748
Probable space group: C 2/C
;
_chemical_formula_sum "Si O2"
_cell_formula_units_Z 64
_cell_length_a 16.509503
_cell_length_b 14.000867
_cell_length_c 17.947295
_cell_angle_alpha 90.000000
_cell_angle_beta 137.389202
_cell_angle_gamma 90.000000
_cell_volume 2808.574954
_symmetry_space_group_name_H-M "C 2/C"
_symmetry_group_IT_number 15
_symmetry_cell_setting 'monoclinic'
loop_
_space_group_symop_operation_xyz
x,y,z
-x,y,1/2-z
-x,-y,-z
x,-y,1/2+z
1/2+x,1/2+y,z
1/2-x,1/2+y,1/2-z
1/2-x,1/2-y,-z
1/2+x,1/2-y,1/2+z
loop_
_atom_site_type_symbol
_atom_site_label
_atom_site_fract_x
_atom_site_fract_y
_atom_site_fract_z
Si Si1 0.737829 0.894817 0.545105
Si Si2 0.006324 0.892635 0.339593
Si Si3 0.071078 0.699279 0.442433
Si Si4 0.743543 0.477347 0.290920
Si Si5 0.662706 0.127106 0.248965
Si Si6 0.644464 0.225985 0.650350
Si Si7 0.447036 0.257640 0.636507
Si Si8 0.772273 0.578459 0.046082
O O1 0.643600 0.808683 0.472678
O O2 0.866809 0.849068 0.608788
O O3 0.740166 0.953290 0.625173
O O4 0.693670 0.973054 0.455572
O O5 0.887562 0.932304 0.295268
O O6 0.000000 0.924291 0.250000
O O7 0.019377 0.778444 0.352014
O O8 0.130300 0.925893 0.458986
O O9 0.085471 0.749529 0.530982
O O10 0.193244 0.651814 0.497011
O O11 0.969307 0.619325 0.374038
O O12 0.758713 0.541843 0.229300
O O13 0.834490 0.388056 0.342674
O O14 0.727694 0.222118 0.263547
O O15 0.663668 0.118359 0.338085
O O16 0.562494 0.265604 0.661101
O O17 0.500000 0.216399 0.750000
#
# Coordination Sequence:
#
# PCOD9306748 Si02
#       8
#     8   8   8   8   8   8   8   8
#     4  11  26  50  72 108 145 197 247 303 363 452
#     4  12  23  43  74 105 142 190 234 299 372 440
#     4  12  25  47  73 102 149 186 237 307 372 433
#     4  12  27  47  75 106 147 196 246 298 378 445
#     4  12  28  44  71 109 146 185 242 310 367 435
#     4  12  26  48  72 108 146 192 246 303 374 444
#     4  11  28  48  76 103 151 198 248 301 369 439
#     4  12  26  43  74 106 142 181 250 299 366 439
#
# _framework density 22.787358000000001
#
# number of rings (size 3 to 8) (size 9 to 14) (size 15 to 20)
#    0.000    0.250    5.000    3.000    7.000    3.500 
#    0.000    0.000    0.000    0.000    0.000    0.000 
#    0.000    0.000    0.000    0.000    0.000    0.000 
#
# Total GULP energy -178831.757921 kJ/mol
# GULP energy per Si atom -5588.492435 kJ/mol
# Density = 2.273549 g / cm^3
# Si number density = 22.787358 Si / 1000 Ang^3
#
#
#
# Elastic Constant Matrix: (Units=GPa)
#
#
# Indices 1 2 3 4 5 6 
#
# 1 77.3931 5.6329 17.3818 0.0000 -6.0788 0.0000
# 2 5.6329 70.8954 -1.1011 0.0000 -5.5204 0.0000
# 3 17.3818 -1.1011 64.7485 0.0000 6.0901 0.0000
# 4 0.0000 0.0000 0.0000 18.1767 0.0000 8.0422
# 5 -6.0788 -5.5204 6.0901 0.0000 34.4514 0.0000
# 6 0.0000 0.0000 0.0000 8.0422 0.0000 28.0126
#
#
#
# Elastic Compliance Matrix: (Units=1/GPa)
#
#
# Indices 1 2 3 4 5 6 
#
# 1 0.014153 -0.000949 -0.004104 0.000000 0.003071 0.000000
# 2 -0.000949 0.014347 0.000303 0.000000 0.002078 0.000000
# 3 -0.004104 0.000303 0.016896 0.000000 -0.003662 0.000000
# 4 0.000000 0.000000 0.000000 0.063021 0.000000 -0.018093
# 5 0.003071 0.002078 -0.003662 0.000000 0.030549 0.000000
# 6 0.000000 0.000000 0.000000 -0.018093 0.000000 0.040893
#
#
# Mechanical properties :
#
#
# Convention : Reuss Voigt Hill
#
# Bulk Modulus (GPa) = 27.85842 28.54045 28.19944
# Shear Modulus (GPa) = 24.83564 28.86970 26.85267
#
# Velocity S-wave (km/s) = 3.30492 3.56324 3.43651
# Velocity P-wave (km/s) = 5.17835 5.42962 5.30547
#
# Compressibility (1/GPa) = 0.03589579
#
# Stress axis : x y z
#
# Youngs Moduli (GPa) = 70.65572 69.69993 59.18617
#
# Poissons Ratio (x) = 0.06616 0.24292
# Poissons Ratio (y) = 0.06706 -0.01795
# Poissons Ratio (z) = 0.29000 -0.02114
#
# Static dielectric constant tensor:
#      x y z
#    x 1.856180 0.000000 0.014040 
#    y 0.000000 1.920850 0.000000 
#    z 0.014040 0.000000 1.821420 
# 
# From -- ./inp_files/211402.got.cif
#   From: 2010.05.17/outbox.cif.g08.bks.cpg/sg15_106_cif.got.tgz:211402.got - 2010.06.03 18:47:42.
