data_PCOD9306514
_publ_section_title
;
Structure prediction by ZEFSAII (Michael W. Deem and Ramdas Pophale) SiO2 
 PCOD9306514
Probable space group: C 2/C
;
_chemical_formula_sum "Si O2"
_cell_formula_units_Z 36
_cell_length_a 7.167442
_cell_length_b 17.715482
_cell_length_c 11.023035
_cell_angle_alpha 90.000000
_cell_angle_beta 102.708471
_cell_angle_gamma 90.000000
_cell_volume 1365.357952
_symmetry_space_group_name_H-M "C 2/C"
_symmetry_group_IT_number 15
_symmetry_cell_setting 'monoclinic'
loop_
_space_group_symop_operation_xyz
x,y,z
-x,y,1/2-z
-x,-y,-z
x,-y,1/2+z
1/2+x,1/2+y,z
1/2-x,1/2+y,1/2-z
1/2-x,1/2-y,-z
1/2+x,1/2-y,1/2+z
loop_
_atom_site_type_symbol
_atom_site_label
_atom_site_fract_x
_atom_site_fract_y
_atom_site_fract_z
Si Si1 0.407512 0.252832 0.363758
Si Si2 0.851457 0.053833 0.405470
Si Si3 0.065521 0.372661 0.050586
Si Si4 0.266715 0.595672 0.825368
Si Si5 0.500000 0.681428 0.250000
O O1 0.500000 0.229847 0.250000
O O2 0.515074 0.206760 0.482546
O O3 0.427821 0.343174 0.381369
O O4 0.184041 0.228327 0.324336
O O5 0.678976 0.078843 0.468138
O O6 0.930064 0.125957 0.346836
O O7 0.791950 0.991536 0.296302
O O8 0.000000 0.000000 0.500000
O O9 0.182567 0.367470 0.191694
O O10 0.868380 0.405619 0.075734
#
# Coordination Sequence:
#
# PCOD9306514 Si02
#       5
#     8   8   8   8   4
#     4  12  27  51  79 111 160 206 257 319 390 461
#     4  12  26  46  76 111 157 201 259 319 383 460
#     4  11  25  50  77 112 157 206 251 326 391 457
#     4  11  27  48  78 115 150 203 264 314 387 465
#     4  12  26  50  72 114 150 206 260 310 390 466
#
# _framework density 26.366714000000002
#
# number of rings (size 3 to 8) (size 9 to 14) (size 15 to 20)
#    0.000    0.444    2.222    5.333    4.667    6.222 
#    0.000    0.000    0.000    0.000    0.000    0.000 
#    0.000    0.000    0.000    0.000    0.000    0.000 
#
# Total GULP energy -100863.479593 kJ/mol
# GULP energy per Si atom -5603.526644 kJ/mol
# Density = 2.630670 g / cm^3
# Si number density = 26.366714 Si / 1000 Ang^3
#
#
#
# Elastic Constant Matrix: (Units=GPa)
#
#
# Indices 1 2 3 4 5 6 
#
# 1 128.0133 47.8047 40.1803 0.0000 -37.6220 0.0000
# 2 47.8047 161.2569 44.1006 0.0000 -11.3222 0.0000
# 3 40.1803 44.1006 126.7230 0.0000 -24.7254 0.0000
# 4 0.0000 0.0000 0.0000 12.5438 0.0000 -28.2099
# 5 -37.6220 -11.3222 -24.7254 0.0000 44.7759 0.0000
# 6 0.0000 0.0000 0.0000 -28.2099 0.0000 20.3953
#
#
#
# Elastic Compliance Matrix: (Units=1/GPa)
#
#
# Indices 1 2 3 4 5 6 
#
# 1 0.011610 -0.002533 -0.001145 0.000000 0.008482 0.000000
# 2 -0.002533 0.007415 -0.002047 0.000000 -0.001384 0.000000
# 3 -0.001145 -0.002047 0.009726 0.000000 0.003891 0.000000
# 4 0.000000 0.000000 0.000000 -0.037771 0.000000 -0.052244
# 5 0.008482 -0.001384 0.003891 0.000000 0.031259 0.000000
# 6 0.000000 0.000000 0.000000 -0.052244 0.000000 -0.023231
#
#
# Mechanical properties :
#
#
# Convention : Reuss Voigt Hill
#
# Bulk Modulus (GPa) = 57.80155 75.57381 66.68768
# Shear Modulus (GPa) = 308.17146 34.47017 171.32082
#
# Velocity S-wave (km/s) = 10.82279 3.61963 8.06952
# Velocity P-wave (km/s) = 13.34716 6.79660 10.59105
#
# Compressibility (1/GPa) = 0.01730057
#
# Stress axis : x y z
#
# Youngs Moduli (GPa) = 86.13418 134.86243 102.81868
#
# Poissons Ratio (x) = 0.34163 0.11768
# Poissons Ratio (y) = 0.21819 0.21050
# Poissons Ratio (z) = 0.09859 0.27610
#
# Static dielectric constant tensor:
#      x y z
#    x 2.236050 0.000000 0.171070 
#    y 0.000000 2.166010 0.000000 
#    z 0.171070 0.000000 2.107320 
# 
# From -- ./inp_files/76438.got.cif
#   From: 2010.05.17/outbox.cif.g08.bks.cpg/sg15_39_cif.got.tgz:76438.got - 2010.06.03 18:47:42.
