data_PCOD9306265
_publ_section_title
;
Structure prediction by ZEFSAII (Michael W. Deem and Ramdas Pophale) SiO2 
 PCOD9306265
Probable space group: C 2/C
;
_chemical_formula_sum "Si O2"
_cell_formula_units_Z 52
_cell_length_a 21.435435
_cell_length_b 19.064060
_cell_length_c 7.487717
_cell_angle_alpha 90.000000
_cell_angle_beta 51.225836
_cell_angle_gamma 90.000000
_cell_volume 2385.505015
_symmetry_space_group_name_H-M "C 2/C"
_symmetry_group_IT_number 15
_symmetry_cell_setting 'monoclinic'
loop_
_space_group_symop_operation_xyz
x,y,z
-x,y,1/2-z
-x,-y,-z
x,-y,1/2+z
1/2+x,1/2+y,z
1/2-x,1/2+y,1/2-z
1/2-x,1/2-y,-z
1/2+x,1/2-y,1/2+z
loop_
_atom_site_type_symbol
_atom_site_label
_atom_site_fract_x
_atom_site_fract_y
_atom_site_fract_z
Si Si1 0.825060 0.168289 0.984203
Si Si2 0.500000 0.304317 0.250000
Si Si3 0.568417 0.802952 0.349144
Si Si4 0.702307 0.946128 0.764490
Si Si5 0.305771 0.728906 0.629560
Si Si6 0.208499 0.395193 0.161941
Si Si7 0.466180 0.075668 0.110697
O O1 0.916330 0.156072 0.876435
O O2 0.827185 0.207895 0.791863
O O3 0.778099 0.095472 0.052756
O O4 0.770530 0.218097 0.211643
O O5 0.479830 0.254446 0.453371
O O6 0.378592 0.767188 0.399412
O O7 0.365727 0.845719 0.151688
O O8 0.505313 0.863441 0.424204
O O9 0.626820 0.927116 0.775097
O O10 0.712297 0.029985 0.751724
O O11 0.693506 0.917295 0.982429
O O12 0.281737 0.657222 0.569907
O O13 0.500000 0.087177 0.250000
O O14 0.500000 0.000000 0.000000
#
# Coordination Sequence:
#
# PCOD9306265 Si02
#       7
#     8   4   8   8   8   8   8
#     4  11  26  46  73 104 142 189 242 297 360 431
#     4  12  26  44  70 104 142 182 240 300 352 418
#     4  12  25  43  68 103 144 188 227 302 341 429
#     4  12  26  44  71 106 143 194 232 291 368 429
#     4  11  25  46  72 105 140 189 242 292 363 425
#     4  12  24  44  72 102 142 188 238 293 352 432
#     4  12  27  42  65 105 151 187 233 285 355 434
#
# _framework density 21.798321000000001
#
# number of rings (size 3 to 8) (size 9 to 14) (size 15 to 20)
#    0.000    0.308    5.385    3.231    6.462    1.846 
#    0.000    0.000    0.000    8.308    0.000    0.000 
#    0.000    0.000    0.000    0.000    0.000    0.000 
#
# Total GULP energy -145387.773114 kJ/mol
# GULP energy per Si atom -5591.837427 kJ/mol
# Density = 2.174871 g / cm^3
# Si number density = 21.798321 Si / 1000 Ang^3
#
#
#
# Elastic Constant Matrix: (Units=GPa)
#
#
# Indices 1 2 3 4 5 6 
#
# 1 136.9475 60.5267 57.4750 0.0000 -16.4635 0.0000
# 2 60.5267 122.6499 46.9437 0.0000 -13.0396 0.0000
# 3 57.4750 46.9437 133.7486 0.0000 -5.6575 0.0000
# 4 0.0000 0.0000 0.0000 38.2409 0.0000 -5.7063
# 5 -16.4635 -13.0396 -5.6575 0.0000 45.1504 0.0000
# 6 0.0000 0.0000 0.0000 -5.7063 0.0000 43.0861
#
#
#
# Elastic Compliance Matrix: (Units=1/GPa)
#
#
# Indices 1 2 3 4 5 6 
#
# 1 0.010559 -0.003766 -0.003115 0.000000 0.002372 0.000000
# 2 -0.003766 0.011010 -0.002181 0.000000 0.001533 0.000000
# 3 -0.003115 -0.002181 0.009557 0.000000 -0.000568 0.000000
# 4 0.000000 0.000000 0.000000 0.026677 0.000000 0.003533
# 5 0.002372 0.001533 -0.000568 0.000000 0.023385 0.000000
# 6 0.000000 0.000000 0.000000 0.003533 0.000000 0.023677
#
#
# Mechanical properties :
#
#
# Convention : Reuss Voigt Hill
#
# Bulk Modulus (GPa) = 76.91878 80.35963 78.63920
# Shear Modulus (GPa) = 39.26997 40.52219 39.89608
#
# Velocity S-wave (km/s) = 4.24903 4.31624 4.28277
# Velocity P-wave (km/s) = 7.70944 7.86034 7.78526
#
# Compressibility (1/GPa) = 0.01300073
#
# Stress axis : x y z
#
# Youngs Moduli (GPa) = 94.70299 90.82934 104.63693
#
# Poissons Ratio (x) = 0.34210 0.32598
# Poissons Ratio (y) = 0.35669 0.22820
# Poissons Ratio (z) = 0.29503 0.19809
#
# Static dielectric constant tensor:
#      x y z
#    x 1.717550 0.000000 0.050310 
#    y 0.000000 1.780480 0.000000 
#    z 0.050310 0.000000 1.854540 
# 
# From -- ./inp_files/48478.got.cif
#   From: 2010.05.17/outbox.cif.g08.bks.cpg/sg15_25_cif.got.tgz:48478.got - 2010.06.03 18:47:42.
