data_PCOD9306012
_publ_section_title
;
Structure prediction by ZEFSAII (Michael W. Deem and Ramdas Pophale) SiO2 
 PCOD9306012
Probable space group: C 2/C
;
_chemical_formula_sum "Si O2"
_cell_formula_units_Z 60
_cell_length_a 29.630840
_cell_length_b 8.248243
_cell_length_c 24.022569
_cell_angle_alpha 90.000000
_cell_angle_beta 150.570486
_cell_angle_gamma 90.000000
_cell_volume 2884.815210
_symmetry_space_group_name_H-M "C 2/C"
_symmetry_group_IT_number 15
_symmetry_cell_setting 'monoclinic'
loop_
_space_group_symop_operation_xyz
x,y,z
-x,y,1/2-z
-x,-y,-z
x,-y,1/2+z
1/2+x,1/2+y,z
1/2-x,1/2+y,1/2-z
1/2-x,1/2-y,-z
1/2+x,1/2-y,1/2+z
loop_
_atom_site_type_symbol
_atom_site_label
_atom_site_fract_x
_atom_site_fract_y
_atom_site_fract_z
Si Si1 0.500000 0.467897 0.750000
Si Si2 0.339149 0.848503 0.792619
Si Si3 0.466310 0.337579 0.830058
Si Si4 0.839092 0.288464 0.440684
Si Si5 0.636283 0.850745 0.552285
Si Si6 0.810353 0.873618 0.027975
Si Si7 0.000219 0.115914 0.946359
Si Si8 0.714273 0.867769 0.350257
O O1 0.509576 0.362264 0.815811
O O2 0.593718 0.569535 0.842016
O O3 0.264296 0.716188 0.693182
O O4 0.329575 0.873895 0.847962
O O5 0.439104 0.774334 0.890083
O O6 0.318681 0.004672 0.732690
O O7 0.457814 0.511089 0.850579
O O8 0.370838 0.244327 0.724620
O O9 0.539042 0.239306 0.945410
O O10 0.874925 0.469613 0.483076
O O11 0.838943 0.212573 0.501382
O O12 0.899715 0.175576 0.465275
O O13 0.707136 0.742828 0.593048
O O14 0.750000 0.750000 0.000000
O O15 0.752274 0.028771 0.943454
O O16 0.000000 0.000000 0.000000
#
# Coordination Sequence:
#
# PCOD9306012 Si02
#       8
#     4   8   8   8   8   8   8   8
#     4  12  26  50  76  96 146 188 238 308 362 414
#     4  11  25  41  69 101 147 190 225 290 362 435
#     4  12  26  44  72 101 143 188 238 306 355 431
#     4  11  26  44  69 104 142 185 240 291 362 434
#     4  12  24  43  67 107 144 184 237 297 355 441
#     4  11  27  49  74 102 139 189 245 302 363 433
#     4  12  25  44  69 104 144 189 237 293 362 436
#     4  11  26  45  69 108 142 182 250 289 367 440
#
# _framework density 20.798559000000001
#
# number of rings (size 3 to 8) (size 9 to 14) (size 15 to 20)
#    0.000    0.533    4.000    3.200   11.200    3.733 
#    0.000    0.000    0.000    0.000    0.000    0.000 
#    0.000    0.000    0.000    0.000    0.000    0.000 
#
# Total GULP energy -167812.517811 kJ/mol
# GULP energy per Si atom -5593.750594 kJ/mol
# Density = 2.075122 g / cm^3
# Si number density = 20.798559 Si / 1000 Ang^3
#
#
#
# Elastic Constant Matrix: (Units=GPa)
#
#
# Indices 1 2 3 4 5 6 
#
# 1 71.6934 1.2776 7.9655 0.0000 2.1391 0.0000
# 2 1.2776 45.1873 -4.1659 -0.0001 0.4543 -0.0001
# 3 7.9655 -4.1659 73.2941 0.0000 2.8672 0.0000
# 4 0.0000 -0.0001 0.0000 28.8578 0.0000 19.5675
# 5 2.1391 0.4543 2.8672 0.0000 34.1281 0.0000
# 6 0.0000 -0.0001 0.0000 19.5675 0.0000 22.4287
#
#
#
# Elastic Compliance Matrix: (Units=1/GPa)
#
#
# Indices 1 2 3 4 5 6 
#
# 1 0.014151 -0.000534 -0.001539 0.000000 -0.000751 0.000000
# 2 -0.000534 0.022272 0.001339 0.000000 -0.000375 0.000000
# 3 -0.001539 0.001339 0.013930 0.000000 -0.001092 0.000000
# 4 0.000000 0.000000 0.000000 0.084842 0.000000 -0.074019
# 5 -0.000751 -0.000375 -0.001092 0.000000 0.029445 0.000000
# 6 0.000000 0.000000 0.000000 -0.074019 0.000000 0.109162
#
#
# Mechanical properties :
#
#
# Convention : Reuss Voigt Hill
#
# Bulk Modulus (GPa) = 20.45662 22.25880 21.35771
# Shear Modulus (GPa) = 17.14871 29.42277 23.28574
#
# Velocity S-wave (km/s) = 2.87455 3.76527 3.34965
# Velocity P-wave (km/s) = 4.56884 5.44319 5.02507
#
# Compressibility (1/GPa) = 0.04888392
#
# Stress axis : x y z
#
# Youngs Moduli (GPa) = 70.66544 44.89862 71.78905
#
# Poissons Ratio (x) = 0.02399 0.11048
# Poissons Ratio (y) = 0.03777 -0.09610
# Poissons Ratio (z) = 0.10875 -0.06010
#
# Static dielectric constant tensor:
#      x y z
#    x 1.745950 0.000000 -0.013970 
#    y 0.000000 1.751400 0.000000 
#    z -0.013970 0.000000 1.713970 
# 
# From -- ./inp_files/283402.got.cif
#   From: 2010.05.17/outbox.cif.g08.bks.cpg/sg15_142_cif.got.tgz:283402.got - 2010.06.03 18:47:42.
