data_PCOD9306874
_publ_section_title
;
Structure prediction by ZEFSAII (Michael W. Deem and Ramdas Pophale) SiO2 
 PCOD9306874
Probable space group: C 2/C
;
_chemical_formula_sum "Si O2"
_cell_formula_units_Z 40
_cell_length_a 9.418390
_cell_length_b 10.694619
_cell_length_c 16.046183
_cell_angle_alpha 90.000000
_cell_angle_beta 118.004564
_cell_angle_gamma 90.000000
_cell_volume 1427.020654
_symmetry_space_group_name_H-M "C 2/C"
_symmetry_group_IT_number 15
_symmetry_cell_setting 'monoclinic'
loop_
_space_group_symop_operation_xyz
x,y,z
-x,y,1/2-z
-x,-y,-z
x,-y,1/2+z
1/2+x,1/2+y,z
1/2-x,1/2+y,1/2-z
1/2-x,1/2-y,-z
1/2+x,1/2-y,1/2+z
loop_
_atom_site_type_symbol
_atom_site_label
_atom_site_fract_x
_atom_site_fract_y
_atom_site_fract_z
Si Si1 0.028829 0.848675 0.416571
Si Si2 0.911794 0.558062 0.396523
Si Si3 0.330317 0.601774 0.376717
Si Si4 0.500000 0.090999 0.750000
Si Si5 0.650296 0.292774 0.890940
Si Si6 0.000000 0.264055 0.750000
O O1 0.966469 0.704642 0.407261
O O2 0.163639 0.873174 0.522539
O O3 0.076325 0.834900 0.335227
O O4 0.900147 0.960950 0.388865
O O5 0.840691 0.644327 0.207667
O O6 0.000000 0.500000 0.500000
O O7 0.957286 0.475264 0.328049
O O8 0.272776 0.584102 0.129114
O O9 0.471857 0.681228 0.374623
O O10 0.637921 0.185991 0.818483
O O11 0.750000 0.250000 0.000000
#
# Coordination Sequence:
#
# PCOD9306874 Si02
#       6
#     8   8   8   4   8   4
#     4  11  27  55  84 131 174 237 302 380 465 557
#     4  12  27  56  90 135 185 249 308 390 476 567
#     4  11  28  57  88 126 186 241 308 390 465 559
#     4  12  29  55  94 138 195 248 315 390 484 569
#     4  12  27  57  91 136 187 251 313 391 477 571
#     4  12  29  57  86 132 181 240 305 384 462 561
#
# _framework density 28.030429000000002
#
# number of rings (size 3 to 8) (size 9 to 14) (size 15 to 20)
#    0.000    0.400    4.000    1.200    2.800   10.400 
#   10.800    0.000    0.000    0.000    0.000    0.000 
#    0.000    0.000    0.000    0.000    0.000    0.000 
#
# Total GULP energy -111751.504515 kJ/mol
# GULP energy per Si atom -5587.575226 kJ/mol
# Density = 2.796663 g / cm^3
# Si number density = 28.030429 Si / 1000 Ang^3
#
#
#
# Elastic Constant Matrix: (Units=GPa)
#
#
# Indices 1 2 3 4 5 6 
#
# 1 147.4370 48.2361 58.3059 0.0000 33.8714 0.0000
# 2 48.2361 200.2311 107.6960 0.0000 19.9711 0.0000
# 3 58.3059 107.6960 203.3157 0.0000 10.9927 0.0000
# 4 0.0000 0.0000 0.0000 8.8175 0.0000 -18.4368
# 5 33.8714 19.9711 10.9927 0.0000 48.4310 0.0000
# 6 0.0000 0.0000 0.0000 -18.4368 0.0000 45.0292
#
#
#
# Elastic Compliance Matrix: (Units=1/GPa)
#
#
# Indices 1 2 3 4 5 6 
#
# 1 0.009050 -0.000538 -0.002005 0.000000 -0.005652 0.000000
# 2 -0.000538 0.007226 -0.003577 0.000000 -0.001792 0.000000
# 3 -0.002005 -0.003577 0.007322 0.000000 0.001215 0.000000
# 4 0.000000 0.000000 0.000000 0.788245 0.000000 0.322741
# 5 -0.005652 -0.001792 0.001215 0.000000 0.025064 0.000000
# 6 0.000000 0.000000 0.000000 0.322741 0.000000 0.154351
#
#
# Mechanical properties :
#
#
# Convention : Reuss Voigt Hill
#
# Bulk Modulus (GPa) = 88.03082 108.82887 98.42984
# Shear Modulus (GPa) = 4.96384 42.90526 23.93455
#
# Velocity S-wave (km/s) = 1.33219 3.91662 2.92529
# Velocity P-wave (km/s) = 5.81721 7.70472 6.82652
#
# Compressibility (1/GPa) = 0.01135966
#
# Stress axis : x y z
#
# Youngs Moduli (GPa) = 110.49818 138.38461 136.57234
#
# Poissons Ratio (x) = 0.07448 0.27377
# Poissons Ratio (y) = 0.05947 0.48845
# Poissons Ratio (z) = 0.22151 0.49494
#
# Static dielectric constant tensor:
#      x y z
#    x 2.693660 0.000000 -0.611430 
#    y 0.000000 1.996870 0.000000 
#    z -0.611430 0.000000 2.675650 
# 
# From -- ./inp_files/218905.got.cif
#   From: 2010.05.17/outbox.cif.g08.bks.cpg/sg15_110_cif.got.tgz:218905.got - 2010.06.03 18:47:42.
