data_PCOD9306957
_publ_section_title
;
Structure prediction by ZEFSAII (Michael W. Deem and Ramdas Pophale) SiO2 
 PCOD9306957
Probable space group: C 2/C
;
_chemical_formula_sum "Si O2"
_cell_formula_units_Z 56
_cell_length_a 20.342448
_cell_length_b 18.386292
_cell_length_c 19.662940
_cell_angle_alpha 90.000000
_cell_angle_beta 159.030842
_cell_angle_gamma 90.000000
_cell_volume 2631.876339
_symmetry_space_group_name_H-M "C 2/C"
_symmetry_group_IT_number 15
_symmetry_cell_setting 'monoclinic'
loop_
_space_group_symop_operation_xyz
x,y,z
-x,y,1/2-z
-x,-y,-z
x,-y,1/2+z
1/2+x,1/2+y,z
1/2-x,1/2+y,1/2-z
1/2-x,1/2-y,-z
1/2+x,1/2-y,1/2+z
loop_
_atom_site_type_symbol
_atom_site_label
_atom_site_fract_x
_atom_site_fract_y
_atom_site_fract_z
Si Si1 0.288011 0.835201 0.528286
Si Si2 0.599963 0.187195 0.777586
Si Si3 0.835840 0.081374 0.462287
Si Si4 0.323038 0.667965 0.733534
Si Si5 0.922041 0.328550 0.874850
Si Si6 0.428111 0.425941 0.604709
Si Si7 0.752353 0.333539 0.857697
O O1 0.500000 0.850245 0.750000
O O2 0.250000 0.750000 0.500000
O O3 0.172086 0.878118 0.472348
O O4 0.241032 0.850472 0.404937
O O5 0.500000 0.212801 0.750000
O O6 0.679695 0.256061 0.814775
O O7 0.440422 0.149869 0.579392
O O8 0.764600 0.132510 0.952874
O O9 0.657336 0.107848 0.249121
O O10 0.010213 0.114126 0.590325
O O11 0.855531 0.997134 0.496551
O O12 0.395579 0.750936 0.810818
O O13 0.137617 0.661858 0.597923
O O14 0.803809 0.327120 0.828869
O O15 0.500000 0.443651 0.750000
O O16 0.595195 0.390808 0.724004
#
# Coordination Sequence:
#
# PCOD9306957 Si02
#       7
#     8   8   8   8   8   8   8
#     4  12  20  37  64  98 132 181 241 291 331 393
#     4  12  24  46  81 109 138 176 238 304 365 429
#     4  12  27  44  70 103 150 191 235 301 355 417
#     4  12  22  41  67 100 142 187 244 294 338 413
#     4  12  25  43  68 105 145 190 244 285 349 432
#     4  12  27  49  72 108 145 182 236 305 369 421
#     4  12  26  45  76 109 138 182 234 298 364 439
#
# _framework density 21.277595999999999
#
# number of rings (size 3 to 8) (size 9 to 14) (size 15 to 20)
#    0.000    0.000    7.143    3.857    0.000    3.429 
#    0.000    1.429    0.000    0.000    0.000    0.000 
#    0.000    0.000    0.000    0.000    0.000    0.000 
#
# Total GULP energy -156801.839805 kJ/mol
# GULP energy per Si atom -5600.065707 kJ/mol
# Density = 2.122917 g / cm^3
# Si number density = 21.277596 Si / 1000 Ang^3
#
#
#
# Elastic Constant Matrix: (Units=GPa)
#
#
# Indices 1 2 3 4 5 6 
#
# 1 104.5033 19.2348 11.3673 0.0041 15.0505 0.0237
# 2 19.2348 95.3227 10.7338 0.0396 14.5417 -0.0152
# 3 11.3673 10.7338 78.2031 0.0374 26.2503 -0.0265
# 4 0.0041 0.0396 0.0374 0.8639 0.0046 28.9313
# 5 15.0505 14.5417 26.2503 0.0046 36.4041 0.0048
# 6 0.0237 -0.0152 -0.0265 28.9313 0.0048 -16.7094
#
#
#
# Elastic Compliance Matrix: (Units=1/GPa)
#
#
# Indices 1 2 3 4 5 6 
#
# 1 0.010382 -0.001533 -0.000084 -0.000008 -0.003619 0.000002
# 2 -0.001533 0.011398 -0.000034 -0.000001 -0.003894 -0.000015
# 3 -0.000084 -0.000034 0.016872 0.000006 -0.012117 -0.000020
# 4 -0.000008 -0.000001 0.000006 0.019624 -0.000008 0.033979
# 5 -0.003619 -0.003894 -0.012117 -0.000008 0.039259 0.000016
# 6 0.000002 -0.000015 -0.000020 0.033979 0.000016 -0.001015
#
#
# Mechanical properties :
#
#
# Convention : Reuss Voigt Hill
#
# Bulk Modulus (GPa) = 28.28990 40.07789 34.18390
# Shear Modulus (GPa) = 44.80057 19.89126 32.34591
#
# Velocity S-wave (km/s) = 4.59358 3.06084 3.90319
# Velocity P-wave (km/s) = 6.43888 5.60074 6.03438
#
# Compressibility (1/GPa) = 0.03534831
#
# Stress axis : x y z
#
# Youngs Moduli (GPa) = 96.32388 87.73446 59.27148
#
# Poissons Ratio (x) = 0.13453 0.00496
# Poissons Ratio (y) = 0.14770 0.00204
# Poissons Ratio (z) = 0.00806 0.00302
#
# Static dielectric constant tensor:
#      x y z
#    x 1.790280 0.000000 0.004310 
#    y 0.000000 1.718920 0.000000 
#    z 0.004310 0.000000 1.802220 
# 
# From -- ./inp_files/253325.got.cif
#   From: 2010.05.17/outbox.cif.g08.bks.cpg/sg15_127_cif.got.tgz:253325.got - 2010.06.03 18:47:42.
