data_PCOD9306993
_publ_section_title
;
Structure prediction by ZEFSAII (Michael W. Deem and Ramdas Pophale) SiO2 
 PCOD9306993
Probable space group: C 2/C
;
_chemical_formula_sum "Si O2"
_cell_formula_units_Z 24
_cell_length_a 4.760415
_cell_length_b 14.072857
_cell_length_c 13.350966
_cell_angle_alpha 90.000000
_cell_angle_beta 91.122033
_cell_angle_gamma 90.000000
_cell_volume 894.244954
_symmetry_space_group_name_H-M "C 2/C"
_symmetry_group_IT_number 15
_symmetry_cell_setting 'monoclinic'
loop_
_space_group_symop_operation_xyz
x,y,z
-x,y,1/2-z
-x,-y,-z
x,-y,1/2+z
1/2+x,1/2+y,z
1/2-x,1/2+y,1/2-z
1/2-x,1/2-y,-z
1/2+x,1/2-y,1/2+z
loop_
_atom_site_type_symbol
_atom_site_label
_atom_site_fract_x
_atom_site_fract_y
_atom_site_fract_z
Si Si1 0.000000 0.209157 0.750000
Si Si2 0.500000 0.911876 0.250000
Si Si3 0.156719 0.332647 0.925528
Si Si4 0.629242 0.556875 0.363256
O O1 0.180987 0.275688 0.821682
O O2 0.238990 0.145046 0.699854
O O3 0.337878 0.969938 0.336300
O O4 0.352625 0.426200 0.928687
O O5 0.836980 0.366591 0.915274
O O6 0.250000 0.250000 0.000000
O O7 0.500000 0.571706 0.250000
#
# Coordination Sequence:
#
# PCOD9306993 Si02
#       4
#     4   4   8   8
#     4  12  23  42  67 104 130 168 234 286 319 398
#     4  12  23  40  73  96 134 186 212 278 349 390
#     4  12  25  43  71 100 132 178 229 276 326 400
#     4  12  20  45  69  91 133 185 217 261 352 397
#
# _framework density 26.838287000000001
#
# number of rings (size 3 to 8) (size 9 to 14) (size 15 to 20)
#    0.000    0.000    8.333    3.000    0.000    0.000 
#    0.000   10.000    0.000    0.000    0.000    0.000 
#    0.000    0.000    0.000    0.000    0.000    0.000 
#
# Total GULP energy -66889.099673 kJ/mol
# GULP energy per Si atom -5574.091639 kJ/mol
# Density = 2.677720 g / cm^3
# Si number density = 26.838287 Si / 1000 Ang^3
#
#
#
# Elastic Constant Matrix: (Units=GPa)
#
#
# Indices 1 2 3 4 5 6 
#
# 1 186.6817 39.7414 -1.2698 0.0000 14.1077 0.0000
# 2 39.7414 74.5162 -0.8798 0.0000 8.0592 0.0000
# 3 -1.2698 -0.8798 37.4109 0.0000 9.1542 0.0000
# 4 0.0000 0.0000 0.0000 49.1797 0.0000 -11.8420
# 5 14.1077 8.0592 9.1542 0.0000 33.2224 0.0000
# 6 0.0000 0.0000 0.0000 -11.8420 0.0000 79.8603
#
#
#
# Elastic Compliance Matrix: (Units=1/GPa)
#
#
# Indices 1 2 3 4 5 6 
#
# 1 0.006168 -0.003060 0.000640 0.000000 -0.002053 0.000000
# 2 -0.003060 0.015352 0.000912 0.000000 -0.002676 0.000000
# 3 0.000640 0.000912 0.028838 0.000000 -0.008439 0.000000
# 4 0.000000 0.000000 0.000000 0.021086 0.000000 0.003127
# 5 -0.002053 -0.002676 -0.008439 0.000000 0.033947 0.000000
# 6 0.000000 0.000000 0.000000 0.003127 0.000000 0.012986
#
#
# Mechanical properties :
#
#
# Convention : Reuss Voigt Hill
#
# Bulk Modulus (GPa) = 21.12290 41.53248 31.32769
# Shear Modulus (GPa) = 36.45034 49.85363 43.15199
#
# Velocity S-wave (km/s) = 3.68930 4.31461 4.01415
# Velocity P-wave (km/s) = 5.10250 6.35058 5.76044
#
# Compressibility (1/GPa) = 0.04734199
#
# Stress axis : x y z
#
# Youngs Moduli (GPa) = 162.13819 65.13842 34.67603
#
# Poissons Ratio (x) = 0.19931 -0.02218
# Poissons Ratio (y) = 0.49610 -0.03163
# Poissons Ratio (z) = -0.10373 -0.05941
#
# Static dielectric constant tensor:
#      x y z
#    x 1.997360 0.000000 -0.101440 
#    y 0.000000 2.247830 0.000000 
#    z -0.101440 0.000000 2.074140 
# 
# From -- ./inp_files/127775.got.cif
#   From: 2010.05.17/outbox.cif.g08.bks.cpg/sg15_64_cif.got.tgz:127775.got - 2010.06.03 18:47:42.
