data_PCOD9306228
_publ_section_title
;
Structure prediction by ZEFSAII (Michael W. Deem and Ramdas Pophale) SiO2 
 PCOD9306228
Probable space group: C 2/C
;
_chemical_formula_sum "Si O2"
_cell_formula_units_Z 48
_cell_length_a 6.773954
_cell_length_b 19.183536
_cell_length_c 26.355494
_cell_angle_alpha 90.000000
_cell_angle_beta 45.213681
_cell_angle_gamma 90.000000
_cell_volume 2430.752360
_symmetry_space_group_name_H-M "C 2/C"
_symmetry_group_IT_number 15
_symmetry_cell_setting 'monoclinic'
loop_
_space_group_symop_operation_xyz
x,y,z
-x,y,1/2-z
-x,-y,-z
x,-y,1/2+z
1/2+x,1/2+y,z
1/2-x,1/2+y,1/2-z
1/2-x,1/2-y,-z
1/2+x,1/2-y,1/2+z
loop_
_atom_site_type_symbol
_atom_site_label
_atom_site_fract_x
_atom_site_fract_y
_atom_site_fract_z
Si Si1 0.277874 0.731674 0.434870
Si Si2 0.728511 0.616087 0.930472
Si Si3 0.914320 0.640864 0.427263
Si Si4 0.604257 0.989951 0.423585
Si Si5 0.767001 0.019370 0.667729
Si Si6 0.170187 0.356526 0.668294
O O1 0.250000 0.750000 0.500000
O O2 0.337687 0.806722 0.399642
O O3 0.535045 0.680642 0.382077
O O4 0.026115 0.692683 0.450943
O O5 0.714940 0.569409 0.883347
O O6 0.921237 0.572623 0.933909
O O7 0.416247 0.628553 0.007403
O O8 0.967850 0.666112 0.360061
O O9 0.048834 0.564645 0.408230
O O10 0.932356 0.975555 0.360269
O O11 0.500000 0.000000 0.500000
O O12 0.500000 0.037304 0.750000
O O13 0.721374 0.939700 0.658102
O O14 0.000000 0.341043 0.750000
#
# Coordination Sequence:
#
# PCOD9306228 Si02
#       6
#     8   8   8   8   8   8
#     4  12  26  44  69 105 138 183 231 292 352 419
#     4  12  25  41  70 106 133 176 236 291 350 405
#     4  12  23  43  74  99 137 186 235 285 344 424
#     4  12  22  40  74 100 132 179 239 287 339 412
#     4  11  25  46  68 101 140 181 234 294 352 419
#     4  11  25  47  69  99 138 184 238 284 353 432
#
# _framework density 19.746972
#
# number of rings (size 3 to 8) (size 9 to 14) (size 15 to 20)
#    0.000    0.333    6.667    3.000    0.000    1.333 
#    6.000    0.000    0.000    0.000    0.000    0.000 
#    0.000    0.000    0.000    0.000    0.000    0.000 
#
# Total GULP energy -134137.545929 kJ/mol
# GULP energy per Si atom -5589.064414 kJ/mol
# Density = 1.970203 g / cm^3
# Si number density = 19.746972 Si / 1000 Ang^3
#
#
#
# Elastic Constant Matrix: (Units=GPa)
#
#
# Indices 1 2 3 4 5 6 
#
# 1 139.4581 41.6598 54.5035 -0.0015 -1.5726 0.0012
# 2 41.6598 76.5457 36.1273 -0.0009 -0.0698 0.0011
# 3 54.5035 36.1273 109.2277 0.0001 9.9251 0.0004
# 4 -0.0015 -0.0009 0.0001 9.5716 0.0007 2.3841
# 5 -1.5726 -0.0698 9.9251 0.0007 21.9556 -0.0008
# 6 0.0012 0.0011 0.0004 2.3841 -0.0008 50.8688
#
#
#
# Elastic Compliance Matrix: (Units=1/GPa)
#
#
# Indices 1 2 3 4 5 6 
#
# 1 0.009778 -0.003448 -0.003964 0.000001 0.002481 0.000000
# 2 -0.003448 0.016826 -0.003991 0.000001 0.001611 0.000000
# 3 -0.003964 -0.003991 0.013015 -0.000001 -0.006180 0.000000
# 4 0.000001 0.000001 -0.000001 0.105709 -0.000003 -0.004954
# 5 0.002481 0.001611 -0.006180 -0.000003 0.048523 0.000001
# 6 0.000000 0.000000 0.000000 -0.004954 0.000001 0.019891
#
#
# Mechanical properties :
#
#
# Convention : Reuss Voigt Hill
#
# Bulk Modulus (GPa) = 59.48116 65.53476 62.50796
# Shear Modulus (GPa) = 20.64818 29.34193 24.99506
#
# Velocity S-wave (km/s) = 3.23714 3.85891 3.56162
# Velocity P-wave (km/s) = 6.64524 7.28795 6.97400
#
# Compressibility (1/GPa) = 0.01681205
#
# Stress axis : x y z
#
# Youngs Moduli (GPa) = 102.27081 59.43206 76.83628
#
# Poissons Ratio (x) = 0.20495 0.30458
# Poissons Ratio (y) = 0.35268 0.30664
# Poissons Ratio (z) = 0.40540 0.23718
#
# Static dielectric constant tensor:
#      x y z
#    x 1.767520 0.000000 0.004700 
#    y 0.000000 1.690050 0.000000 
#    z 0.004700 0.000000 1.687720 
# 
# From -- ./inp_files/261303.got.cif
#   From: 2010.05.17/outbox.cif.g08.bks.cpg/sg15_131_cif.got.tgz:261303.got - 2010.06.03 18:47:42.
