data_PCOD9306849
_publ_section_title
;
Structure prediction by ZEFSAII (Michael W. Deem and Ramdas Pophale) SiO2 
 PCOD9306849
Probable space group: C 2/C
;
_chemical_formula_sum "Si O2"
_cell_formula_units_Z 20
_cell_length_a 10.939006
_cell_length_b 11.775157
_cell_length_c 7.292165
_cell_angle_alpha 90.000000
_cell_angle_beta 48.563616
_cell_angle_gamma 90.000000
_cell_volume 704.179430
_symmetry_space_group_name_H-M "C 2/C"
_symmetry_group_IT_number 15
_symmetry_cell_setting 'monoclinic'
loop_
_space_group_symop_operation_xyz
x,y,z
-x,y,1/2-z
-x,-y,-z
x,-y,1/2+z
1/2+x,1/2+y,z
1/2-x,1/2+y,1/2-z
1/2-x,1/2-y,-z
1/2+x,1/2-y,1/2+z
loop_
_atom_site_type_symbol
_atom_site_label
_atom_site_fract_x
_atom_site_fract_y
_atom_site_fract_z
Si Si1 0.500000 0.414280 0.750000
Si Si2 0.823080 0.433613 0.930249
Si Si3 0.303242 0.735162 0.236978
O O1 0.662636 0.489587 0.585370
O O2 0.527257 0.334932 0.901538
O O3 0.806215 0.349694 0.773826
O O4 0.000000 0.492673 0.750000
O O5 0.821826 0.350749 0.107273
O O6 0.250000 0.750000 0.500000
#
# Coordination Sequence:
#
# PCOD9306849 Si02
#       3
#     4   8   8
#     4  12  28  54  86 116 164 216 268 334 410 476
#     4  11  28  52  79 119 165 209 270 337 399 482
#     4  11  27  49  83 119 162 213 269 334 403 480
#
# _framework density 28.401851000000001
#
# number of rings (size 3 to 8) (size 9 to 14) (size 15 to 20)
#    0.000    0.800    0.000    3.600   22.400    1.600 
#    3.600    4.000    0.000    0.000    0.000    0.000 
#    0.000    0.000    0.000    0.000    0.000    0.000 
#
# Total GULP energy -56176.184028 kJ/mol
# GULP energy per Si atom -5617.618403 kJ/mol
# Density = 2.833721 g / cm^3
# Si number density = 28.401851 Si / 1000 Ang^3
#
#
#
# Elastic Constant Matrix: (Units=GPa)
#
#
# Indices 1 2 3 4 5 6 
#
# 1 235.5839 94.9035 121.4402 0.0000 -11.8605 0.0000
# 2 94.9035 158.1211 82.7451 0.0000 -11.2411 0.0000
# 3 121.4402 82.7451 165.3227 0.0000 -1.5361 0.0000
# 4 0.0000 0.0000 0.0000 55.3783 0.0000 12.3932
# 5 -11.8605 -11.2411 -1.5361 0.0000 81.4063 0.0000
# 6 0.0000 0.0000 0.0000 12.3932 0.0000 96.8869
#
#
#
# Elastic Compliance Matrix: (Units=1/GPa)
#
#
# Indices 1 2 3 4 5 6 
#
# 1 0.007371 -0.002092 -0.004361 0.000000 0.000703 0.000000
# 2 -0.002092 0.009262 -0.003091 0.000000 0.000916 0.000000
# 3 -0.004361 -0.003091 0.010791 0.000000 -0.000858 0.000000
# 4 0.000000 0.000000 0.000000 0.018590 0.000000 -0.002378
# 5 0.000703 0.000916 -0.000858 0.000000 0.012497 0.000000
# 6 0.000000 0.000000 0.000000 -0.002378 0.000000 0.010625
#
#
# Mechanical properties :
#
#
# Convention : Reuss Voigt Hill
#
# Bulk Modulus (GPa) = 119.94276 128.57835 124.26055
# Shear Modulus (GPa) = 54.94393 64.06356 59.50374
#
# Velocity S-wave (km/s) = 4.40309 4.75448 4.58215
# Velocity P-wave (km/s) = 8.25663 8.68962 8.47589
#
# Compressibility (1/GPa) = 0.00833731
#
# Stress axis : x y z
#
# Youngs Moduli (GPa) = 135.67063 107.96441 92.67023
#
# Poissons Ratio (x) = 0.22586 0.40411
# Poissons Ratio (y) = 0.28382 0.28641
# Poissons Ratio (z) = 0.59163 0.33368
#
# Static dielectric constant tensor:
#      x y z
#    x 2.202250 0.000000 -0.084800 
#    y 0.000000 2.322190 0.000000 
#    z -0.084800 0.000000 2.275250 
# 
# From -- ./inp_files/27138.got.cif
#   From: 2010.05.17/outbox.cif.g08.bks.cpg/sg15_14_cif.got.tgz:27138.got - 2010.06.03 18:47:42.
