data_PCOD9306069
_publ_section_title
;
Structure prediction by ZEFSAII (Michael W. Deem and Ramdas Pophale) SiO2 
 PCOD9306069
Probable space group: C 2/C
;
_chemical_formula_sum "Si O2"
_cell_formula_units_Z 40
_cell_length_a 11.152309
_cell_length_b 13.383607
_cell_length_c 15.655214
_cell_angle_alpha 90.000000
_cell_angle_beta 42.337790
_cell_angle_gamma 90.000000
_cell_volume 1573.746241
_symmetry_space_group_name_H-M "C 2/C"
_symmetry_group_IT_number 15
_symmetry_cell_setting 'monoclinic'
loop_
_space_group_symop_operation_xyz
x,y,z
-x,y,1/2-z
-x,-y,-z
x,-y,1/2+z
1/2+x,1/2+y,z
1/2-x,1/2+y,1/2-z
1/2-x,1/2-y,-z
1/2+x,1/2-y,1/2+z
loop_
_atom_site_type_symbol
_atom_site_label
_atom_site_fract_x
_atom_site_fract_y
_atom_site_fract_z
Si Si1 0.208097 0.775886 0.619632
Si Si2 0.233650 0.588648 0.998670
Si Si3 0.810561 0.597587 0.204527
Si Si4 0.709279 0.751170 0.648010
Si Si5 0.718261 0.062984 0.645667
O O1 0.250000 0.750000 0.500000
O O2 0.285607 0.877659 0.618408
O O3 0.283327 0.674869 0.623052
O O4 0.000000 0.782555 0.750000
O O5 0.297033 0.677372 0.029784
O O6 0.287901 0.489334 0.021562
O O7 0.020205 0.586602 0.108712
O O8 0.273047 0.634618 0.884508
O O9 0.737366 0.697040 0.291723
O O10 0.734201 0.504928 0.297885
O O11 0.500000 0.770285 0.750000
O O12 0.500000 0.066903 0.750000
#
# Coordination Sequence:
#
# PCOD9306069 Si02
#       5
#     8   8   8   8   8
#     4  11  25  44  62  86 128 168 200 248 308 361
#     4   8  14  29  57  84 113 144 198 253 292 348
#     4   9  18  34  61  83 114 158 208 245 295 360
#     4   8  14  26  51  86 114 143 190 253 306 339
#     4   8  17  39  62  87 113 155 203 248 294 367
#
# _framework density 25.417057
#
# number of rings (size 3 to 8) (size 9 to 14) (size 15 to 20)
#    0.000    3.200    0.000    2.400    2.800    0.000 
#    3.600    5.000    0.000    1.200    0.000    0.000 
#    0.000    0.000    0.000    0.000    0.000    0.000 
#
# Total GULP energy -111418.645479 kJ/mol
# GULP energy per Si atom -5570.932274 kJ/mol
# Density = 2.535921 g / cm^3
# Si number density = 25.417057 Si / 1000 Ang^3
#
#
#
# Elastic Constant Matrix: (Units=GPa)
#
#
# Indices 1 2 3 4 5 6 
#
# 1 66.8400 31.2907 25.1678 -0.0001 16.8961 0.0000
# 2 31.2907 94.0501 -4.1386 -0.0001 17.1741 0.0000
# 3 25.1678 -4.1386 52.4664 -0.0004 6.8956 0.0002
# 4 -0.0001 -0.0001 -0.0004 19.2096 0.0002 16.1604
# 5 16.8961 17.1741 6.8956 0.0002 41.4033 -0.0001
# 6 0.0000 0.0000 0.0002 16.1604 -0.0001 36.7916
#
#
#
# Elastic Compliance Matrix: (Units=1/GPa)
#
#
# Indices 1 2 3 4 5 6 
#
# 1 0.024085 -0.007657 -0.011536 0.000000 -0.004732 0.000000
# 2 -0.007657 0.014066 0.005254 0.000000 -0.003585 0.000000
# 3 -0.011536 0.005254 0.025228 0.000001 -0.001673 -0.000001
# 4 0.000000 0.000000 0.000001 0.082568 -0.000001 -0.036267
# 5 -0.004732 -0.003585 -0.001673 -0.000001 0.027849 0.000000
# 6 0.000000 0.000000 -0.000001 -0.036267 0.000000 0.043110
#
#
# Mechanical properties :
#
#
# Convention : Reuss Voigt Hill
#
# Bulk Modulus (GPa) = 28.16813 35.33292 31.75052
# Shear Modulus (GPa) = 19.48423 30.21666 24.85045
#
# Velocity S-wave (km/s) = 2.77172 3.45169 3.13022
# Velocity P-wave (km/s) = 4.62057 5.46049 5.05800
#
# Compressibility (1/GPa) = 0.03550111
#
# Stress axis : x y z
#
# Youngs Moduli (GPa) = 41.51912 71.09396 39.63889
#
# Poissons Ratio (x) = 0.54436 0.45726
# Poissons Ratio (y) = 0.31791 -0.20825
# Poissons Ratio (z) = 0.47895 -0.37350
#
# Static dielectric constant tensor:
#      x y z
#    x 2.043410 0.000000 0.089460 
#    y 0.000000 2.042620 0.000000 
#    z 0.089460 0.000000 2.026080 
# 
# From -- ./inp_files/197575.got.cif
#   From: 2010.05.17/outbox.cif.g08.bks.cpg/sg15_99_cif.got.tgz:197575.got - 2010.06.03 18:47:42.
