data_PCOD9306520
_publ_section_title
;
Structure prediction by ZEFSAII (Michael W. Deem and Ramdas Pophale) SiO2 
 PCOD9306520
Probable space group: C 2/C
;
_chemical_formula_sum "Si O2"
_cell_formula_units_Z 28
_cell_length_a 7.562159
_cell_length_b 16.661617
_cell_length_c 15.212334
_cell_angle_alpha 90.000000
_cell_angle_beta 145.503968
_cell_angle_gamma 90.000000
_cell_volume 1085.533087
_symmetry_space_group_name_H-M "C 2/C"
_symmetry_group_IT_number 15
_symmetry_cell_setting 'monoclinic'
loop_
_space_group_symop_operation_xyz
x,y,z
-x,y,1/2-z
-x,-y,-z
x,-y,1/2+z
1/2+x,1/2+y,z
1/2-x,1/2+y,1/2-z
1/2-x,1/2-y,-z
1/2+x,1/2-y,1/2+z
loop_
_atom_site_type_symbol
_atom_site_label
_atom_site_fract_x
_atom_site_fract_y
_atom_site_fract_z
Si Si1 0.163801 0.924530 0.957531
Si Si2 0.748772 0.404028 0.429392
Si Si3 0.000000 0.331961 0.250000
Si Si4 0.387079 0.799143 0.800593
O O1 0.421328 0.912970 0.986274
O O2 0.303647 0.887320 0.103529
O O3 0.852338 0.874979 0.808309
O O4 0.136528 0.020536 0.942244
O O5 0.500000 0.396324 0.250000
O O6 0.824922 0.331517 0.524680
O O7 0.197273 0.271552 0.269594
O O8 0.500000 0.777644 0.750000
#
# Coordination Sequence:
#
# PCOD9306520 Si02
#       4
#     8   8   4   8
#     4  11  25  50  80 114 163 208 267 326 395 472
#     4  11  25  50  84 118 153 208 272 332 389 470
#     4  12  28  52  80 120 166 210 254 340 396 472
#     4  12  28  50  81 120 163 210 265 321 404 477
#
# _framework density 25.793776999999999
#
# number of rings (size 3 to 8) (size 9 to 14) (size 15 to 20)
#    0.000    0.571    2.857    4.286    6.000    3.429 
#    0.000    0.000    0.000    0.000    0.000    0.000 
#    0.000    0.000    0.000    0.000    0.000    0.000 
#
# Total GULP energy -78618.216931 kJ/mol
# GULP energy per Si atom -5615.586924 kJ/mol
# Density = 2.573507 g / cm^3
# Si number density = 25.793777 Si / 1000 Ang^3
#
#
#
# Elastic Constant Matrix: (Units=GPa)
#
#
# Indices 1 2 3 4 5 6 
#
# 1 200.1468 98.3884 61.4259 0.0009 -10.7316 -0.0005
# 2 98.3884 231.7584 105.0265 0.0046 -29.2786 0.0013
# 3 61.4259 105.0265 177.9628 0.0306 -39.2128 0.0107
# 4 0.0009 0.0046 0.0306 56.4149 0.0066 2.5335
# 5 -10.7316 -29.2786 -39.2128 0.0066 61.7879 0.0016
# 6 -0.0005 0.0013 0.0107 2.5335 0.0016 62.7393
#
#
#
# Elastic Compliance Matrix: (Units=1/GPa)
#
#
# Indices 1 2 3 4 5 6 
#
# 1 0.006422 -0.002372 -0.000951 0.000001 -0.000613 0.000000
# 2 -0.002372 0.006791 -0.002989 0.000001 0.000909 0.000000
# 3 -0.000951 -0.002989 0.008560 -0.000005 0.003851 -0.000001
# 4 0.000001 0.000001 -0.000005 0.017758 -0.000004 -0.000717
# 5 -0.000613 0.000909 0.003851 -0.000004 0.018953 -0.000001
# 6 0.000000 0.000000 -0.000001 -0.000717 -0.000001 0.015968
#
#
# Mechanical properties :
#
#
# Convention : Reuss Voigt Hill
#
# Bulk Modulus (GPa) = 109.31626 126.61664 117.96645
# Shear Modulus (GPa) = 55.47784 59.19023 57.33403
#
# Velocity S-wave (km/s) = 4.64273 4.79555 4.71976
# Velocity P-wave (km/s) = 8.43877 8.93631 8.69110
#
# Compressibility (1/GPa) = 0.00914777
#
# Stress axis : x y z
#
# Youngs Moduli (GPa) = 155.72129 147.24724 116.82409
#
# Poissons Ratio (x) = 0.34934 0.11115
# Poissons Ratio (y) = 0.36944 0.34915
# Poissons Ratio (z) = 0.14815 0.44008
#
# Static dielectric constant tensor:
#      x y z
#    x 1.994780 0.000000 0.047390 
#    y 0.000000 2.041560 0.000000 
#    z 0.047390 0.000000 1.996510 
# 
# From -- ./inp_files/190764.got.cif
#   From: 2010.05.17/outbox.cif.g08.bks.cpg/sg15_96_cif.got.tgz:190764.got - 2010.06.03 18:47:42.
