data_PCOD9306157
_publ_section_title
;
Structure prediction by ZEFSAII (Michael W. Deem and Ramdas Pophale) SiO2 
 PCOD9306157
Probable space group: C 2/C
;
_chemical_formula_sum "Si O2"
_cell_formula_units_Z 44
_cell_length_a 11.272931
_cell_length_b 15.873567
_cell_length_c 12.002924
_cell_angle_alpha 90.000000
_cell_angle_beta 90.463200
_cell_angle_gamma 90.000000
_cell_volume 2147.752544
_symmetry_space_group_name_H-M "C 2/C"
_symmetry_group_IT_number 15
_symmetry_cell_setting 'monoclinic'
loop_
_space_group_symop_operation_xyz
x,y,z
-x,y,1/2-z
-x,-y,-z
x,-y,1/2+z
1/2+x,1/2+y,z
1/2-x,1/2+y,1/2-z
1/2-x,1/2-y,-z
1/2+x,1/2-y,1/2+z
loop_
_atom_site_type_symbol
_atom_site_label
_atom_site_fract_x
_atom_site_fract_y
_atom_site_fract_z
Si Si1 0.922228 0.111641 0.011305
Si Si2 0.572001 0.219373 0.859383
Si Si3 0.500000 0.184649 0.250000
Si Si4 0.557045 0.090871 0.477755
Si Si5 0.824474 0.837923 0.279723
Si Si6 0.823644 0.936305 0.047326
O O1 0.894225 0.200785 0.065417
O O2 0.846412 0.035861 0.061919
O O3 0.894015 0.115753 0.879643
O O4 0.062660 0.094461 0.022643
O O5 0.500000 0.247622 0.750000
O O6 0.690970 0.174004 0.820279
O O7 0.491620 0.156100 0.930594
O O8 0.518756 0.127808 0.358514
O O9 0.388522 0.248001 0.262737
O O10 0.698771 0.082327 0.488690
O O11 0.500000 0.000000 0.500000
O O12 0.826019 0.888903 0.165200
#
# Coordination Sequence:
#
# PCOD9306157 Si02
#       6
#     8   8   4   8   8   8
#     4  11  25  45  71 107 138 191 236 298 356 427
#     4  12  26  44  72 105 146 183 240 298 361 426
#     4  12  28  46  78  98 142 192 236 294 364 420
#     4  12  28  48  69 107 141 190 240 296 360 427
#     4  12  23  47  71 103 143 185 236 296 356 436
#     4  11  25  45  73 101 145 182 243 293 359 426
#
# _framework density 20.486530999999999
#
# number of rings (size 3 to 8) (size 9 to 14) (size 15 to 20)
#    0.000    0.364    5.455    1.636    6.364    5.818 
#    0.000    0.000    0.000    0.000    0.000    0.000 
#    0.000    0.000    0.000    0.000    0.000    0.000 
#
# Total GULP energy -123158.544881 kJ/mol
# GULP energy per Si atom -5598.115676 kJ/mol
# Density = 2.043990 g / cm^3
# Si number density = 20.486531 Si / 1000 Ang^3
#
#
#
# Elastic Constant Matrix: (Units=GPa)
#
#
# Indices 1 2 3 4 5 6 
#
# 1 86.7158 25.8727 14.8268 0.0000 -3.9490 0.0000
# 2 25.8727 132.7528 57.0822 0.0000 -2.6445 0.0000
# 3 14.8268 57.0822 114.5647 0.0000 12.2194 0.0000
# 4 0.0000 0.0000 0.0000 37.9353 0.0000 -5.6567
# 5 -3.9490 -2.6445 12.2194 0.0000 26.5714 0.0000
# 6 0.0000 0.0000 0.0000 -5.6567 0.0000 9.5704
#
#
#
# Elastic Compliance Matrix: (Units=1/GPa)
#
#
# Indices 1 2 3 4 5 6 
#
# 1 0.012365 -0.002023 -0.000806 0.000000 0.002007 0.000000
# 2 -0.002023 0.010203 -0.005151 0.000000 0.003084 0.000000
# 3 -0.000806 -0.005151 0.012058 0.000000 -0.006178 0.000000
# 4 0.000000 0.000000 0.000000 0.028909 0.000000 0.017087
# 5 0.002007 0.003084 -0.006178 0.000000 0.041081 0.000000
# 6 0.000000 0.000000 0.000000 0.017087 0.000000 0.114589
#
#
# Mechanical properties :
#
#
# Convention : Reuss Voigt Hill
#
# Bulk Modulus (GPa) = 53.57354 58.84404 56.20879
# Shear Modulus (GPa) = 20.71363 30.56552 25.63958
#
# Velocity S-wave (km/s) = 3.18321 3.86681 3.54154
# Velocity P-wave (km/s) = 6.30220 6.98011 6.64980
#
# Compressibility (1/GPa) = 0.01866593
#
# Stress axis : x y z
#
# Youngs Moduli (GPa) = 80.87463 98.00700 82.92974
#
# Poissons Ratio (x) = 0.19828 0.06686
# Poissons Ratio (y) = 0.16362 0.42716
# Poissons Ratio (z) = 0.06521 0.50482
#
# Static dielectric constant tensor:
#      x y z
#    x 1.725600 0.000000 0.005450 
#    y 0.000000 1.708540 0.000000 
#    z 0.005450 0.000000 1.702320 
# 
# From -- ./inp_files/86045.got.cif
#   From: 2010.05.17/outbox.cif.g08.bks.cpg/sg15_44_cif.got.tgz:86045.got - 2010.06.03 18:47:42.
