data_PCOD9306469
_publ_section_title
;
Structure prediction by ZEFSAII (Michael W. Deem and Ramdas Pophale) SiO2 
 PCOD9306469
Probable space group: C 2/C
;
_chemical_formula_sum "Si O2"
_cell_formula_units_Z 40
_cell_length_a 11.235650
_cell_length_b 20.674887
_cell_length_c 7.667273
_cell_angle_alpha 90.000000
_cell_angle_beta 88.713404
_cell_angle_gamma 90.000000
_cell_volume 1780.626243
_symmetry_space_group_name_H-M "C 2/C"
_symmetry_group_IT_number 15
_symmetry_cell_setting 'monoclinic'
loop_
_space_group_symop_operation_xyz
x,y,z
-x,y,1/2-z
-x,-y,-z
x,-y,1/2+z
1/2+x,1/2+y,z
1/2-x,1/2+y,1/2-z
1/2-x,1/2-y,-z
1/2+x,1/2-y,1/2+z
loop_
_atom_site_type_symbol
_atom_site_label
_atom_site_fract_x
_atom_site_fract_y
_atom_site_fract_z
Si Si1 0.638025 0.806138 0.192981
Si Si2 0.743683 0.934674 0.347730
Si Si3 0.500000 0.000000 0.500000
Si Si4 0.721598 0.818683 0.799742
Si Si5 0.136174 0.939725 0.799813
Si Si6 0.000000 0.617214 0.250000
O O1 0.500000 0.810193 0.250000
O O2 0.708441 0.869665 0.251049
O O3 0.700357 0.741432 0.264212
O O4 0.657215 0.801738 0.983952
O O5 0.619613 0.963991 0.422297
O O6 0.835777 0.921933 0.501184
O O7 0.799887 0.991382 0.229284
O O8 0.460520 0.932496 0.601139
O O9 0.803980 0.882043 0.812354
O O10 0.610910 0.840289 0.684123
O O11 0.000000 0.945315 0.750000
#
# Coordination Sequence:
#
# PCOD9306469 Si02
#       6
#     8   8   4   8   8   4
#     4  11  27  46  74 104 144 190 242 298 363 439
#     4  12  25  43  73 107 141 185 242 303 366 425
#     4  12  22  40  70 112 132 174 232 306 354 412
#     4  11  25  49  67 105 145 191 237 299 362 435
#     4  12  26  46  70 102 147 189 239 297 369 437
#     4  12  24  42  74 104 144 178 240 300 350 430
#
# _framework density 22.464005
#
# number of rings (size 3 to 8) (size 9 to 14) (size 15 to 20)
#    0.000    0.400    4.000    3.600    7.000    0.800 
#    9.000    0.000    0.000    0.000    0.000    0.000 
#    0.000    0.000    0.000    0.000    0.000    0.000 
#
# Total GULP energy -111420.726126 kJ/mol
# GULP energy per Si atom -5571.036306 kJ/mol
# Density = 2.241288 g / cm^3
# Si number density = 22.464005 Si / 1000 Ang^3
#
#
#
# Elastic Constant Matrix: (Units=GPa)
#
#
# Indices 1 2 3 4 5 6 
#
# 1 118.9842 88.5783 17.1912 0.0000 -6.9458 0.0000
# 2 88.5783 168.5025 9.6227 0.0000 3.6323 0.0000
# 3 17.1912 9.6227 33.8818 0.0000 2.8244 0.0000
# 4 0.0000 0.0000 0.0000 24.3687 0.0000 2.4190
# 5 -6.9458 3.6323 2.8244 0.0000 21.5299 0.0000
# 6 0.0000 0.0000 0.0000 2.4190 0.0000 43.2494
#
#
#
# Elastic Compliance Matrix: (Units=1/GPa)
#
#
# Indices 1 2 3 4 5 6 
#
# 1 0.015754 -0.008078 -0.006305 0.000000 0.007272 0.000000
# 2 -0.008078 0.010188 0.001583 0.000000 -0.004533 0.000000
# 3 -0.006305 0.001583 0.032815 0.000000 -0.006606 0.000000
# 4 0.000000 0.000000 0.000000 0.041265 0.000000 -0.002308
# 5 0.007272 -0.004533 -0.006606 0.000000 0.050424 0.000000
# 6 0.000000 0.000000 0.000000 -0.002308 0.000000 0.023251
#
#
# Mechanical properties :
#
#
# Convention : Reuss Voigt Hill
#
# Bulk Modulus (GPa) = 30.16031 61.35031 45.75531
# Shear Modulus (GPa) = 23.76986 31.56137 27.66562
#
# Velocity S-wave (km/s) = 3.25642 3.75237 3.51316
# Velocity P-wave (km/s) = 5.25302 6.79290 6.07197
#
# Compressibility (1/GPa) = 0.03315615
#
# Stress axis : x y z
#
# Youngs Moduli (GPa) = 63.47664 98.15037 30.47412
#
# Poissons Ratio (x) = 0.79287 0.19215
# Poissons Ratio (y) = 0.51277 -0.04824
# Poissons Ratio (z) = 0.40024 -0.15537
#
# Static dielectric constant tensor:
#      x y z
#    x 1.828610 0.000000 0.059300 
#    y 0.000000 1.807230 0.000000 
#    z 0.059300 0.000000 1.924100 
# 
# From -- ./inp_files/29183.got.cif
#   From: 2010.05.17/outbox.cif.g08.bks.cpg/sg15_15_cif.got.tgz:29183.got - 2010.06.03 18:47:42.
