data_PCOD9306159
_publ_section_title
;
Structure prediction by ZEFSAII (Michael W. Deem and Ramdas Pophale) SiO2 
 PCOD9306159
Probable space group: C 2/C
;
_chemical_formula_sum "Si O2"
_cell_formula_units_Z 56
_cell_length_a 22.556104
_cell_length_b 10.669607
_cell_length_c 23.023810
_cell_angle_alpha 90.000000
_cell_angle_beta 156.968210
_cell_angle_gamma 90.000000
_cell_volume 2167.878578
_symmetry_space_group_name_H-M "C 2/C"
_symmetry_group_IT_number 15
_symmetry_cell_setting 'monoclinic'
loop_
_space_group_symop_operation_xyz
x,y,z
-x,y,1/2-z
-x,-y,-z
x,-y,1/2+z
1/2+x,1/2+y,z
1/2-x,1/2+y,1/2-z
1/2-x,1/2-y,-z
1/2+x,1/2-y,1/2+z
loop_
_atom_site_type_symbol
_atom_site_label
_atom_site_fract_x
_atom_site_fract_y
_atom_site_fract_z
Si Si1 0.345668 0.927679 0.882216
Si Si2 0.158916 0.092614 0.100071
Si Si3 0.833150 0.998342 0.165815
Si Si4 0.944700 0.765857 0.330220
Si Si5 0.709444 0.319473 0.101668
Si Si6 0.140225 0.362717 0.918795
Si Si7 0.006689 0.256154 0.321421
O O1 0.212916 0.936339 0.714088
O O2 0.351651 0.780407 0.906151
O O3 0.278084 0.986673 0.879562
O O4 0.500000 0.000000 0.000000
O O5 0.295510 0.183791 0.203353
O O6 0.152352 0.958798 0.062063
O O7 0.009190 0.167331 0.945816
O O8 0.922698 0.871588 0.261286
O O9 0.941756 0.115488 0.261113
O O10 0.742235 0.982646 0.024044
O O11 0.069935 0.674794 0.417063
O O12 0.891389 0.327279 0.261077
O O13 0.661142 0.261042 0.995916
O O14 0.000000 0.381671 0.750000
O O15 0.250000 0.250000 0.000000
O O16 0.000000 0.306373 0.250000
#
# Coordination Sequence:
#
# PCOD9306159 Si02
#       7
#     8   8   8   8   8   8   8
#     4  11  27  49  78 109 151 198 246 316 381 447
#     4  12  27  47  79 106 158 197 251 313 380 450
#     4  11  25  45  71 108 149 188 253 303 365 457
#     4  12  25  46  70 112 147 195 249 307 370 452
#     4  11  26  50  74 115 144 199 256 309 372 461
#     4  12  24  41  71 106 148 197 245 301 380 438
#     4  11  25  47  78 104 150 196 250 312 379 435
#
# _framework density 25.831704999999999
#
# number of rings (size 3 to 8) (size 9 to 14) (size 15 to 20)
#    0.000    0.571    4.286    2.143    4.000    5.143 
#    0.000    5.000    0.000    0.000    0.000    0.000 
#    0.000    0.000    0.000    0.000    0.000    0.000 
#
# Total GULP energy -156818.513244 kJ/mol
# GULP energy per Si atom -5600.661187 kJ/mol
# Density = 2.577291 g / cm^3
# Si number density = 25.831705 Si / 1000 Ang^3
#
#
#
# Elastic Constant Matrix: (Units=GPa)
#
#
# Indices 1 2 3 4 5 6 
#
# 1 80.4883 16.4528 26.0734 0.0000 -10.4977 0.0000
# 2 16.4528 109.2732 20.7497 -0.0007 -8.3354 -0.0002
# 3 26.0734 20.7497 128.5976 -0.0004 -32.4213 0.0000
# 4 0.0000 -0.0007 -0.0004 44.7561 -0.0003 -11.2620
# 5 -10.4977 -8.3354 -32.4213 -0.0003 50.6310 -0.0001
# 6 0.0000 -0.0002 0.0000 -11.2620 -0.0001 32.0087
#
#
#
# Elastic Compliance Matrix: (Units=1/GPa)
#
#
# Indices 1 2 3 4 5 6 
#
# 1 0.013608 -0.001540 -0.002222 0.000000 0.001145 0.000000
# 2 -0.001540 0.009635 -0.001101 0.000000 0.000562 0.000000
# 3 -0.002222 -0.001101 0.009829 0.000000 0.005652 0.000000
# 4 0.000000 0.000000 0.000000 0.024514 0.000000 0.008625
# 5 0.001145 0.000562 0.005652 0.000000 0.023700 0.000000
# 6 0.000000 0.000000 0.000000 0.008625 0.000000 0.034276
#
#
# Mechanical properties :
#
#
# Convention : Reuss Voigt Hill
#
# Bulk Modulus (GPa) = 42.83060 49.43455 46.13257
# Shear Modulus (GPa) = 37.57436 42.48471 40.02954
#
# Velocity S-wave (km/s) = 3.81804 4.05986 3.94080
# Velocity P-wave (km/s) = 6.00443 6.41524 6.21323
#
# Compressibility (1/GPa) = 0.02334779
#
# Stress axis : x y z
#
# Youngs Moduli (GPa) = 73.48614 103.78724 101.73656
#
# Poissons Ratio (x) = 0.15979 0.22605
# Poissons Ratio (y) = 0.11314 0.11199
# Poissons Ratio (z) = 0.16328 0.11425
#
# Static dielectric constant tensor:
#      x y z
#    x 2.041860 0.000000 0.007760 
#    y 0.000000 2.012050 0.000000 
#    z 0.007760 0.000000 2.076510 
# 
# From -- ./inp_files/303278.got.cif
#   From: 2010.05.17/outbox.cif.g08.bks.cpg/sg15_152_cif.got.tgz:303278.got - 2010.06.03 18:47:42.
