data_PCOD9306505
_publ_section_title
;
Structure prediction by ZEFSAII (Michael W. Deem and Ramdas Pophale) SiO2 
 PCOD9306505
Probable space group: C 2/C
;
_chemical_formula_sum "Si O2"
_cell_formula_units_Z 52
_cell_length_a 5.758433
_cell_length_b 20.973772
_cell_length_c 19.755190
_cell_angle_alpha 90.000000
_cell_angle_beta 83.429692
_cell_angle_gamma 90.000000
_cell_volume 2370.283549
_symmetry_space_group_name_H-M "C 2/C"
_symmetry_group_IT_number 15
_symmetry_cell_setting 'monoclinic'
loop_
_space_group_symop_operation_xyz
x,y,z
-x,y,1/2-z
-x,-y,-z
x,-y,1/2+z
1/2+x,1/2+y,z
1/2-x,1/2+y,1/2-z
1/2-x,1/2-y,-z
1/2+x,1/2-y,1/2+z
loop_
_atom_site_type_symbol
_atom_site_label
_atom_site_fract_x
_atom_site_fract_y
_atom_site_fract_z
Si Si1 0.635360 0.722546 0.613695
Si Si2 0.316753 0.943060 0.504048
Si Si3 0.138934 0.091681 0.863727
Si Si4 0.965689 0.298980 0.493233
Si Si5 0.500000 0.372629 0.750000
Si Si6 0.000000 0.300824 0.750000
Si Si7 0.000000 0.468311 0.250000
Si Si8 0.841823 0.976915 0.845195
O O1 0.458609 0.662354 0.618971
O O2 0.599136 0.773326 0.554737
O O3 0.589244 0.757638 0.685012
O O4 0.895235 0.700320 0.583045
O O5 0.200926 0.939154 0.434261
O O6 0.412416 0.871999 0.509444
O O7 0.178685 0.957805 0.576487
O O8 0.500000 0.000000 0.500000
O O9 0.342684 0.078230 0.802573
O O10 0.934204 0.048728 0.840068
O O11 0.750000 0.250000 0.500000
O O12 0.247077 0.336540 0.762356
O O13 0.510520 0.422316 0.811391
O O14 0.875553 0.515424 0.199212
#
# Coordination Sequence:
#
# PCOD9306505 Si02
#       8
#     8   8   8   8   4   4   4   8
#     4  11  28  47  75 109 151 200 267 318 402 472
#     4  12  25  45  77 110 148 201 263 323 397 476
#     4  12  26  46  72 113 147 201 254 325 397 480
#     4  11  25  50  74 105 151 201 252 329 392 471
#     4  12  28  50  74 113 159 204 270 322 412 464
#     4  12  31  47  80 115 152 215 266 328 394 495
#     4  12  25  47  72 110 157 203 250 324 410 467
#     4  12  26  45  75 107 153 197 256 328 392 469
#
# _framework density 21.938303999999999
#
# number of rings (size 3 to 8) (size 9 to 14) (size 15 to 20)
#    0.000    0.308    4.615    2.769    6.462    1.846 
#    0.000    0.000    0.000    0.000    0.000    0.000 
#    0.000    0.000    0.000    0.000    0.000    0.000 
#
# Total GULP energy -144922.034988 kJ/mol
# GULP energy per Si atom -5573.924423 kJ/mol
# Density = 2.188837 g / cm^3
# Si number density = 21.938304 Si / 1000 Ang^3
#
#
#
# Elastic Constant Matrix: (Units=GPa)
#
#
# Indices 1 2 3 4 5 6 
#
# 1 56.5904 42.2926 28.0895 0.0000 -11.0634 0.0000
# 2 42.2926 140.3878 35.6063 0.0000 -12.3976 0.0000
# 3 28.0895 35.6063 174.6948 0.0000 -31.6472 0.0000
# 4 0.0000 0.0000 0.0000 59.8185 0.0000 -5.7085
# 5 -11.0634 -12.3976 -31.6472 0.0000 48.6122 0.0000
# 6 0.0000 0.0000 0.0000 -5.7085 0.0000 24.4733
#
#
#
# Elastic Compliance Matrix: (Units=1/GPa)
#
#
# Indices 1 2 3 4 5 6 
#
# 1 0.024046 -0.006495 -0.002099 0.000000 0.002450 0.000000
# 2 -0.006495 0.009313 -0.000784 0.000000 0.000387 0.000000
# 3 -0.002099 -0.000784 0.006914 0.000000 0.003824 0.000000
# 4 0.000000 0.000000 0.000000 0.017098 0.000000 0.003988
# 5 0.002450 0.000387 0.003824 0.000000 0.023716 0.000000
# 6 0.000000 0.000000 0.000000 0.003988 0.000000 0.041791
#
#
# Mechanical properties :
#
#
# Convention : Reuss Voigt Hill
#
# Bulk Modulus (GPa) = 46.47434 64.84996 55.66215
# Shear Modulus (GPa) = 33.60086 44.29310 38.94698
#
# Velocity S-wave (km/s) = 3.91782 4.49819 4.21800
# Velocity P-wave (km/s) = 6.45723 7.52347 7.01065
#
# Compressibility (1/GPa) = 0.02151725
#
# Stress axis : x y z
#
# Youngs Moduli (GPa) = 41.58748 107.37934 144.63091
#
# Poissons Ratio (x) = 0.69746 0.30354
# Poissons Ratio (y) = 0.27012 0.11335
# Poissons Ratio (z) = 0.08728 0.08415
#
# Static dielectric constant tensor:
#      x y z
#    x 1.991150 0.000000 -0.007040 
#    y 0.000000 1.762060 0.000000 
#    z -0.007040 0.000000 1.728930 
# 
# From -- ./inp_files/227512.got.cif
#   From: 2010.05.17/outbox.cif.g08.bks.cpg/sg15_114_cif.got.tgz:227512.got - 2010.06.03 18:47:42.
