data_PCOD9306606
_publ_section_title
;
Structure prediction by ZEFSAII (Michael W. Deem and Ramdas Pophale) SiO2 
 PCOD9306606
Probable space group: C 2/C
;
_chemical_formula_sum "Si O2"
_cell_formula_units_Z 36
_cell_length_a 19.034406
_cell_length_b 17.797082
_cell_length_c 9.229418
_cell_angle_alpha 90.000000
_cell_angle_beta 152.019630
_cell_angle_gamma 90.000000
_cell_volume 1466.870526
_symmetry_space_group_name_H-M "C 2/C"
_symmetry_group_IT_number 15
_symmetry_cell_setting 'monoclinic'
loop_
_space_group_symop_operation_xyz
x,y,z
-x,y,1/2-z
-x,-y,-z
x,-y,1/2+z
1/2+x,1/2+y,z
1/2-x,1/2+y,1/2-z
1/2-x,1/2-y,-z
1/2+x,1/2-y,1/2+z
loop_
_atom_site_type_symbol
_atom_site_label
_atom_site_fract_x
_atom_site_fract_y
_atom_site_fract_z
Si Si1 0.589246 0.661593 0.200840
Si Si2 0.291299 0.467094 0.416889
Si Si3 0.500000 0.600170 0.750000
Si Si4 0.887548 0.442384 0.670635
Si Si5 0.950162 0.329325 0.316065
O O1 0.585428 0.583146 0.278589
O O2 0.770648 0.666260 0.511638
O O3 0.525132 0.739591 0.140943
O O4 0.503454 0.649970 0.896181
O O5 0.358062 0.545720 0.486267
O O6 0.172473 0.495434 0.324955
O O7 0.240670 0.421907 0.180515
O O8 0.000000 0.472453 0.750000
O O9 0.960137 0.373710 0.893508
O O10 0.000000 0.358781 0.250000
#
# Coordination Sequence:
#
# PCOD9306606 Si02
#       5
#     8   8   4   8   8
#     4  11  26  46  71 106 151 188 236 304 366 437
#     4  12  26  46  78 108 145 192 243 311 362 427
#     4  12  26  46  72 110 146 190 248 298 374 436
#     4  12  26  46  77 111 141 189 253 304 358 432
#     4  11  27  48  74 105 147 194 244 298 368 437
#
# _framework density 24.542041999999999
#
# number of rings (size 3 to 8) (size 9 to 14) (size 15 to 20)
#    0.000    0.444    4.444    2.667    3.111    0.000 
#    0.000    3.333    0.000    0.000    0.000    0.000 
#    0.000    0.000    0.000    0.000    0.000    0.000 
#
# Total GULP energy -100535.890588 kJ/mol
# GULP energy per Si atom -5585.327255 kJ/mol
# Density = 2.448618 g / cm^3
# Si number density = 24.542042 Si / 1000 Ang^3
#
#
#
# Elastic Constant Matrix: (Units=GPa)
#
#
# Indices 1 2 3 4 5 6 
#
# 1 152.4834 43.3980 38.8387 0.0000 -25.8217 0.0000
# 2 43.3980 132.0615 31.1182 0.0000 -21.2856 0.0000
# 3 38.8387 31.1182 111.0815 0.0000 -42.2591 0.0000
# 4 0.0000 0.0000 0.0000 22.5525 0.0000 -16.6686
# 5 -25.8217 -21.2856 -42.2591 0.0000 51.3508 0.0000
# 6 0.0000 0.0000 0.0000 -16.6686 0.0000 9.9514
#
#
#
# Elastic Compliance Matrix: (Units=1/GPa)
#
#
# Indices 1 2 3 4 5 6 
#
# 1 0.007800 -0.001908 -0.001458 0.000000 0.001931 0.000000
# 2 -0.001908 0.008744 -0.001119 0.000000 0.001744 0.000000
# 3 -0.001458 -0.001119 0.013641 0.000000 0.010029 0.000000
# 4 0.000000 0.000000 0.000000 -0.186318 0.000000 -0.312081
# 5 0.001931 0.001744 0.010029 0.000000 0.029421 0.000000
# 6 0.000000 0.000000 0.000000 -0.312081 0.000000 -0.422244
#
#
# Mechanical properties :
#
#
# Convention : Reuss Voigt Hill
#
# Bulk Modulus (GPa) = 47.13658 69.14846 58.14252
# Shear Modulus (GPa) = -9.38237 35.58906 13.10335
#
# Velocity S-wave (km/s) = -1.95736 3.81218 2.31317
# Velocity P-wave (km/s) = 3.76029 6.90027 5.55668
#
# Compressibility (1/GPa) = 0.02121495
#
# Stress axis : x y z
#
# Youngs Moduli (GPa) = 128.21240 114.36291 73.30936
#
# Poissons Ratio (x) = 0.21824 0.10686
# Poissons Ratio (y) = 0.24467 0.08202
# Poissons Ratio (z) = 0.18689 0.12794
#
# Static dielectric constant tensor:
#      x y z
#    x 2.036030 0.000000 0.138920 
#    y 0.000000 1.872020 0.000000 
#    z 0.138920 0.000000 2.114010 
# 
# From -- ./inp_files/57114.got.cif
#   From: 2010.05.17/outbox.cif.g08.bks.cpg/sg15_29_cif.got.tgz:57114.got - 2010.06.03 18:47:42.
