data_PCOD9306248
_publ_section_title
;
Structure prediction by ZEFSAII (Michael W. Deem and Ramdas Pophale) SiO2 
 PCOD9306248
Probable space group: C 2/C
;
_chemical_formula_sum "Si O2"
_cell_formula_units_Z 48
_cell_length_a 14.711705
_cell_length_b 8.461292
_cell_length_c 26.705992
_cell_angle_alpha 90.000000
_cell_angle_beta 138.277717
_cell_angle_gamma 90.000000
_cell_volume 2212.432150
_symmetry_space_group_name_H-M "C 2/C"
_symmetry_group_IT_number 15
_symmetry_cell_setting 'monoclinic'
loop_
_space_group_symop_operation_xyz
x,y,z
-x,y,1/2-z
-x,-y,-z
x,-y,1/2+z
1/2+x,1/2+y,z
1/2-x,1/2+y,1/2-z
1/2-x,1/2-y,-z
1/2+x,1/2-y,1/2+z
loop_
_atom_site_type_symbol
_atom_site_label
_atom_site_fract_x
_atom_site_fract_y
_atom_site_fract_z
Si Si1 0.617729 0.822290 0.595491
Si Si2 0.317868 0.319264 0.977737
Si Si3 0.620309 0.146460 0.764290
Si Si4 0.844023 0.286227 0.688621
Si Si5 0.395973 0.846494 0.357494
Si Si6 0.848595 0.190416 0.997246
O O1 0.476491 0.727687 0.541924
O O2 0.743815 0.751375 0.678479
O O3 0.664451 0.798478 0.557365
O O4 0.585562 0.996763 0.601857
O O5 0.236689 0.255020 0.896052
O O6 0.313187 0.508979 0.972721
O O7 0.250000 0.250000 0.000000
O O8 0.500000 0.213902 0.750000
O O9 0.572198 0.126036 0.687448
O O10 0.653835 0.973719 0.800074
O O11 0.759371 0.205662 0.697988
O O12 0.000000 0.231891 0.750000
O O13 0.496324 0.712402 0.420014
O O14 0.750000 0.250000 0.000000
#
# Coordination Sequence:
#
# PCOD9306248 Si02
#       6
#     8   8   8   8   8   8
#     4  12  25  46  73 104 144 185 236 291 352 421
#     4  12  27  46  75 103 137 191 235 291 361 418
#     4  11  25  46  71 100 146 193 231 288 358 417
#     4  11  26  48  70  98 145 185 234 289 351 426
#     4  12  26  44  72 109 139 187 239 290 351 422
#     4  12  25  45  72 106 142 177 235 299 347 417
#
# _framework density 21.695578999999999
#
# number of rings (size 3 to 8) (size 9 to 14) (size 15 to 20)
#    0.000    0.333    3.333    5.000   11.667    0.667 
#    0.000    0.000    0.000    0.000    0.000    0.000 
#    0.000    0.000    0.000    0.000    0.000    0.000 
#
# Total GULP energy -134375.949783 kJ/mol
# GULP energy per Si atom -5598.997908 kJ/mol
# Density = 2.164620 g / cm^3
# Si number density = 21.695579 Si / 1000 Ang^3
#
#
#
# Elastic Constant Matrix: (Units=GPa)
#
#
# Indices 1 2 3 4 5 6 
#
# 1 151.8837 33.9200 43.4561 0.0000 -13.2988 0.0000
# 2 33.9200 51.2860 25.7103 0.0000 0.4651 0.0000
# 3 43.4561 25.7103 87.9960 0.0000 -9.0216 0.0000
# 4 0.0000 0.0000 0.0000 17.1355 0.0000 5.3329
# 5 -13.2988 0.4651 -9.0216 0.0000 47.7755 0.0000
# 6 0.0000 0.0000 0.0000 5.3329 0.0000 35.0365
#
#
#
# Elastic Compliance Matrix: (Units=1/GPa)
#
#
# Indices 1 2 3 4 5 6 
#
# 1 0.008486 -0.004248 -0.002757 0.000000 0.001883 0.000000
# 2 -0.004248 0.025078 -0.005482 0.000000 -0.002462 0.000000
# 3 -0.002757 -0.005482 0.014535 0.000000 0.002031 0.000000
# 4 0.000000 0.000000 0.000000 0.061260 0.000000 -0.009325
# 5 0.001883 -0.002462 0.002031 0.000000 0.021863 0.000000
# 6 0.000000 0.000000 0.000000 -0.009325 0.000000 0.029961
#
#
# Mechanical properties :
#
#
# Convention : Reuss Voigt Hill
#
# Bulk Modulus (GPa) = 43.23917 55.25984 49.24951
# Shear Modulus (GPa) = 25.79097 32.52813 29.15955
#
# Velocity S-wave (km/s) = 3.45159 3.87628 3.67008
# Velocity P-wave (km/s) = 5.98814 6.74981 6.38035
#
# Compressibility (1/GPa) = 0.02312718
#
# Stress axis : x y z
#
# Youngs Moduli (GPa) = 117.83766 39.87483 68.79746
#
# Poissons Ratio (x) = 0.16938 0.18965
# Poissons Ratio (y) = 0.50055 0.37715
# Poissons Ratio (z) = 0.32484 0.21859
#
# Static dielectric constant tensor:
#      x y z
#    x 1.796610 0.000000 0.011030 
#    y 0.000000 1.775230 0.000000 
#    z 0.011030 0.000000 1.815190 
# 
# From -- ./inp_files/295441.got.cif
#   From: 2010.05.17/outbox.cif.g08.bks.cpg/sg15_148_cif.got.tgz:295441.got - 2010.06.03 18:47:42.
