data_PCOD9306582
_publ_section_title
;
Structure prediction by ZEFSAII (Michael W. Deem and Ramdas Pophale) SiO2 
 PCOD9306582
Probable space group: C 2/C
;
_chemical_formula_sum "Si O2"
_cell_formula_units_Z 40
_cell_length_a 8.497057
_cell_length_b 12.224027
_cell_length_c 17.378235
_cell_angle_alpha 90.000000
_cell_angle_beta 99.214596
_cell_angle_gamma 90.000000
_cell_volume 1781.753709
_symmetry_space_group_name_H-M "C 2/C"
_symmetry_group_IT_number 15
_symmetry_cell_setting 'monoclinic'
loop_
_space_group_symop_operation_xyz
x,y,z
-x,y,1/2-z
-x,-y,-z
x,-y,1/2+z
1/2+x,1/2+y,z
1/2-x,1/2+y,1/2-z
1/2-x,1/2-y,-z
1/2+x,1/2-y,1/2+z
loop_
_atom_site_type_symbol
_atom_site_label
_atom_site_fract_x
_atom_site_fract_y
_atom_site_fract_z
Si Si1 0.666416 0.199701 0.917243
Si Si2 0.190277 0.362432 0.682470
Si Si3 0.180108 0.988477 0.540483
Si Si4 0.836316 0.700527 0.141922
Si Si5 0.175074 0.418526 0.101958
O O1 0.678820 0.294396 0.854549
O O2 0.490189 0.148759 0.911969
O O3 0.770584 0.092455 0.904845
O O4 0.750000 0.250000 0.000000
O O5 0.190465 0.325594 0.770590
O O6 0.194906 0.492540 0.670797
O O7 0.016550 0.330918 0.635336
O O8 0.215709 0.875900 0.585900
O O9 0.293265 0.984699 0.474021
O O10 0.000000 0.000000 0.500000
O O11 0.807799 0.825845 0.120461
#
# Coordination Sequence:
#
# PCOD9306582 Si02
#       5
#     8   8   8   8   8
#     4  12  23  43  74 104 139 187 234 291 351 424
#     4  11  26  47  68 105 142 188 233 291 361 419
#     4  12  24  45  73 104 140 186 238 294 351 418
#     4  11  26  45  70 102 145 183 235 292 354 426
#     4  12  25  47  71 103 143 183 239 294 349 422
#
# _framework density 22.449791999999999
#
# number of rings (size 3 to 8) (size 9 to 14) (size 15 to 20)
#    0.000    0.400    4.000    4.800    2.800    0.800 
#    0.000    0.000    0.000    0.000    0.000    0.000 
#    0.000    0.000    0.000    0.000    0.000    0.000 
#
# Total GULP energy -111953.710970 kJ/mol
# GULP energy per Si atom -5597.685548 kJ/mol
# Density = 2.239870 g / cm^3
# Si number density = 22.449792 Si / 1000 Ang^3
#
#
#
# Elastic Constant Matrix: (Units=GPa)
#
#
# Indices 1 2 3 4 5 6 
#
# 1 93.2749 6.7822 -1.3176 0.0000 1.8075 0.0000
# 2 6.7822 121.8481 -7.4550 0.0000 3.1635 0.0000
# 3 -1.3176 -7.4550 46.7810 0.0000 -8.0652 0.0000
# 4 0.0000 0.0000 0.0000 16.1486 0.0000 -7.6428
# 5 1.8075 3.1635 -8.0652 0.0000 24.3695 0.0000
# 6 0.0000 0.0000 0.0000 -7.6428 0.0000 43.6991
#
#
#
# Elastic Compliance Matrix: (Units=1/GPa)
#
#
# Indices 1 2 3 4 5 6 
#
# 1 0.010778 -0.000576 0.000092 0.000000 -0.000694 0.000000
# 2 -0.000576 0.008329 0.001201 0.000000 -0.000641 0.000000
# 3 0.000092 0.001201 0.022846 0.000000 0.007398 0.000000
# 4 0.000000 0.000000 0.000000 0.067513 0.000000 0.011808
# 5 -0.000694 -0.000641 0.007398 0.000000 0.043618 0.000000
# 6 0.000000 0.000000 0.000000 0.011808 0.000000 0.024949
#
#
# Mechanical properties :
#
#
# Convention : Reuss Voigt Hill
#
# Bulk Modulus (GPa) = 23.04939 28.65814 25.85377
# Shear Modulus (GPa) = 26.16963 34.43643 30.30303
#
# Velocity S-wave (km/s) = 3.41793 3.92079 3.67797
# Velocity P-wave (km/s) = 5.08584 5.76975 5.43855
#
# Compressibility (1/GPa) = 0.04338509
#
# Stress axis : x y z
#
# Youngs Moduli (GPa) = 92.78465 120.06080 43.77215
#
# Poissons Ratio (x) = 0.06918 -0.00403
# Poissons Ratio (y) = 0.05347 -0.05255
# Poissons Ratio (z) = -0.00854 -0.14414
#
# Static dielectric constant tensor:
#      x y z
#    x 1.858390 0.000000 -0.021800 
#    y 0.000000 1.817030 0.000000 
#    z -0.021800 0.000000 1.853910 
# 
# From -- ./inp_files/187793.got.cif
#   From: 2010.05.17/outbox.cif.g08.bks.cpg/sg15_94_cif.got.tgz:187793.got - 2010.06.03 18:47:42.
