data_PCOD9306628
_publ_section_title
;
Structure prediction by ZEFSAII (Michael W. Deem and Ramdas Pophale) SiO2 
 PCOD9306628
Probable space group: C 2/C
;
_chemical_formula_sum "Si O2"
_cell_formula_units_Z 32
_cell_length_a 19.759796
_cell_length_b 5.173722
_cell_length_c 14.756005
_cell_angle_alpha 90.000000
_cell_angle_beta 120.281400
_cell_angle_gamma 90.000000
_cell_volume 1302.706260
_symmetry_space_group_name_H-M "C 2/C"
_symmetry_group_IT_number 15
_symmetry_cell_setting 'monoclinic'
loop_
_space_group_symop_operation_xyz
x,y,z
-x,y,1/2-z
-x,-y,-z
x,-y,1/2+z
1/2+x,1/2+y,z
1/2-x,1/2+y,1/2-z
1/2-x,1/2-y,-z
1/2+x,1/2-y,1/2+z
loop_
_atom_site_type_symbol
_atom_site_label
_atom_site_fract_x
_atom_site_fract_y
_atom_site_fract_z
Si Si1 0.789171 0.885466 0.732331
Si Si2 0.587483 0.657806 0.461631
Si Si3 0.250000 0.750000 0.000000
Si Si4 0.558074 0.312040 0.134774
Si Si5 0.500000 0.019634 0.750000
O O1 0.760884 0.624756 0.761856
O O2 0.776946 0.862367 0.617234
O O3 0.880058 0.955665 0.812194
O O4 0.676378 0.598645 0.500302
O O5 0.530656 0.413831 0.431523
O O6 0.579890 0.807344 0.552320
O O7 0.552239 0.818882 0.354774
O O8 0.558322 0.143398 0.225379
#
# Coordination Sequence:
#
# PCOD9306628 Si02
#       5
#     8   8   4   8   4
#     4  12  29  52  79 119 163 212 269 337 401 484
#     4  11  26  46  75 113 155 211 265 333 408 484
#     4  12  26  48  78 118 156 220 268 338 400 488
#     4  11  26  50  72 113 160 208 265 337 410 483
#     4  12  24  44  80 110 152 204 270 328 406 490
#
# _framework density 24.564247000000002
#
# number of rings (size 3 to 8) (size 9 to 14) (size 15 to 20)
#    0.000    0.500    2.500    4.500    7.000    5.000 
#    0.000    0.000    0.000    0.000    0.000    0.000 
#    0.000    0.000    0.000    0.000    0.000    0.000 
#
# Total GULP energy -89130.786826 kJ/mol
# GULP energy per Si atom -5570.674177 kJ/mol
# Density = 2.450834 g / cm^3
# Si number density = 24.564247 Si / 1000 Ang^3
#
#
#
# Elastic Constant Matrix: (Units=GPa)
#
#
# Indices 1 2 3 4 5 6 
#
# 1 113.8038 22.2423 30.6277 -0.0003 -29.3334 -0.0002
# 2 22.2423 60.0096 49.4545 0.0005 -13.9727 0.0003
# 3 30.6277 49.4545 172.2440 -0.0001 -58.1205 0.0000
# 4 -0.0003 0.0005 -0.0001 65.2346 0.0000 28.0036
# 5 -29.3334 -13.9727 -58.1205 0.0000 60.4746 0.0000
# 6 -0.0002 0.0003 0.0000 28.0036 0.0000 61.9898
#
#
#
# Elastic Compliance Matrix: (Units=1/GPa)
#
#
# Indices 1 2 3 4 5 6 
#
# 1 0.010551 -0.003401 0.000832 0.000000 0.005131 0.000000
# 2 -0.003401 0.023012 -0.007052 0.000000 -0.003110 0.000000
# 3 0.000832 -0.007052 0.010757 0.000000 0.009113 0.000000
# 4 0.000000 0.000000 0.000000 0.019017 0.000000 -0.008591
# 5 0.005131 -0.003110 0.009113 0.000000 0.027064 0.000000
# 6 0.000000 0.000000 0.000000 -0.008591 0.000000 0.020013
#
#
# Mechanical properties :
#
#
# Convention : Reuss Voigt Hill
#
# Bulk Modulus (GPa) = 39.87633 61.18961 50.53297
# Shear Modulus (GPa) = 36.22770 53.78866 45.00818
#
# Velocity S-wave (km/s) = 3.84450 4.68451 4.28514
# Velocity P-wave (km/s) = 5.99797 7.36367 6.71563
#
# Compressibility (1/GPa) = 0.02507753
#
# Stress axis : x y z
#
# Youngs Moduli (GPa) = 94.78193 43.45554 92.95848
#
# Poissons Ratio (x) = 0.14781 -0.07734
# Poissons Ratio (y) = 0.32239 0.65553
# Poissons Ratio (z) = -0.07886 0.30644
#
# Static dielectric constant tensor:
#      x y z
#    x 1.966490 0.000000 0.020880 
#    y 0.000000 1.972770 0.000000 
#    z 0.020880 0.000000 1.950230 
# 
# From -- ./inp_files/164984.got.cif
#   From: 2010.05.17/outbox.cif.g08.bks.cpg/sg15_83_cif.got.tgz:164984.got - 2010.06.03 18:47:42.
