data_PCOD9306430
_publ_section_title
;
Structure prediction by ZEFSAII (Michael W. Deem and Ramdas Pophale) SiO2 
 PCOD9306430
Probable space group: C 2/C
;
_chemical_formula_sum "Si O2"
_cell_formula_units_Z 40
_cell_length_a 11.482890
_cell_length_b 8.779432
_cell_length_c 17.749454
_cell_angle_alpha 90.000000
_cell_angle_beta 75.758927
_cell_angle_gamma 90.000000
_cell_volume 1734.391183
_symmetry_space_group_name_H-M "C 2/C"
_symmetry_group_IT_number 15
_symmetry_cell_setting 'monoclinic'
loop_
_space_group_symop_operation_xyz
x,y,z
-x,y,1/2-z
-x,-y,-z
x,-y,1/2+z
1/2+x,1/2+y,z
1/2-x,1/2+y,1/2-z
1/2-x,1/2-y,-z
1/2+x,1/2-y,1/2+z
loop_
_atom_site_type_symbol
_atom_site_label
_atom_site_fract_x
_atom_site_fract_y
_atom_site_fract_z
Si Si1 0.826639 0.043053 0.173746
Si Si2 0.500000 0.264138 0.750000
Si Si3 0.619577 0.810212 0.500605
Si Si4 0.016263 0.464143 0.376422
Si Si5 0.000000 0.000000 0.500000
Si Si6 0.872524 0.268444 0.737471
O O1 0.900480 0.129331 0.228140
O O2 0.707551 0.146188 0.187304
O O3 0.806937 0.872528 0.208394
O O4 0.904128 0.033768 0.085416
O O5 0.537312 0.151775 0.676163
O O6 0.750000 0.750000 0.500000
O O7 0.602353 0.871494 0.418782
O O8 0.526848 0.672240 0.528282
O O9 0.584249 0.954772 0.557370
O O10 0.092591 0.595628 0.324514
O O11 0.000000 0.213227 0.750000
#
# Coordination Sequence:
#
# PCOD9306430 Si02
#       6
#     8   4   8   8   4   8
#     4  12  28  48  80 118 160 211 267 331 407 475
#     4  12  24  48  82 116 160 202 278 330 396 482
#     4  11  27  49  77 109 163 210 254 325 405 479
#     4  11  25  48  74 115 153 202 266 321 393 475
#     4  12  26  48  78 118 156 208 264 320 406 482
#     4  12  27  48  78 111 156 206 267 333 392 469
#
# _framework density 23.062849
#
# number of rings (size 3 to 8) (size 9 to 14) (size 15 to 20)
#    0.000    0.400    6.000    1.200    2.800    1.600 
#    0.000    2.000    0.000    0.000    0.000    0.000 
#    0.000    0.000    0.000    0.000    0.000    0.000 
#
# Total GULP energy -111452.824349 kJ/mol
# GULP energy per Si atom -5572.641217 kJ/mol
# Density = 2.301036 g / cm^3
# Si number density = 23.062849 Si / 1000 Ang^3
#
#
#
# Elastic Constant Matrix: (Units=GPa)
#
#
# Indices 1 2 3 4 5 6 
#
# 1 76.0481 37.3432 42.4144 0.0000 8.7990 0.0000
# 2 37.3432 137.0961 38.7891 0.0000 -9.2545 0.0000
# 3 42.4144 38.7891 136.0717 0.0000 -11.9456 0.0000
# 4 0.0000 0.0000 0.0000 34.8244 0.0000 -0.4749
# 5 8.7990 -9.2545 -11.9456 0.0000 34.7683 0.0000
# 6 0.0000 0.0000 0.0000 -0.4749 0.0000 39.8157
#
#
#
# Elastic Compliance Matrix: (Units=1/GPa)
#
#
# Indices 1 2 3 4 5 6 
#
# 1 0.019171 -0.004205 -0.005466 0.000000 -0.007849 0.000000
# 2 -0.004205 0.008921 -0.000959 0.000000 0.003109 0.000000
# 3 -0.005466 -0.000959 0.009718 0.000000 0.004467 0.000000
# 4 0.000000 0.000000 0.000000 0.028720 0.000000 0.000343
# 5 -0.007849 0.003109 0.004467 0.000000 0.033111 0.000000
# 6 0.000000 0.000000 0.000000 0.000343 0.000000 0.025120
#
#
# Mechanical properties :
#
#
# Convention : Reuss Voigt Hill
#
# Bulk Modulus (GPa) = 60.42514 65.14546 62.78530
# Shear Modulus (GPa) = 32.99472 37.25962 35.12717
#
# Velocity S-wave (km/s) = 3.78649 4.02377 3.90693
# Velocity P-wave (km/s) = 6.73600 7.06370 6.90180
#
# Compressibility (1/GPa) = 0.01654940
#
# Stress axis : x y z
#
# Youngs Moduli (GPa) = 52.16099 112.09605 102.89655
#
# Poissons Ratio (x) = 0.47140 0.56245
# Poissons Ratio (y) = 0.21935 0.09870
# Poissons Ratio (z) = 0.28512 0.10753
#
# Static dielectric constant tensor:
#      x y z
#    x 1.982010 0.000000 -0.000300 
#    y 0.000000 1.869270 0.000000 
#    z -0.000300 0.000000 1.883300 
# 
# From -- ./inp_files/195134.got.cif
#   From: 2010.05.17/outbox.cif.g08.bks.cpg/sg15_98_cif.got.tgz:195134.got - 2010.06.03 18:47:42.
