data_PCOD9306753
_publ_section_title
;
Structure prediction by ZEFSAII (Michael W. Deem and Ramdas Pophale) SiO2 
 PCOD9306753
Probable space group: C 2/C
;
_chemical_formula_sum "Si O2"
_cell_formula_units_Z 32
_cell_length_a 16.946315
_cell_length_b 5.849337
_cell_length_c 20.383153
_cell_angle_alpha 90.000000
_cell_angle_beta 141.411518
_cell_angle_gamma 90.000000
_cell_volume 1260.215096
_symmetry_space_group_name_H-M "C 2/C"
_symmetry_group_IT_number 15
_symmetry_cell_setting 'monoclinic'
loop_
_space_group_symop_operation_xyz
x,y,z
-x,y,1/2-z
-x,-y,-z
x,-y,1/2+z
1/2+x,1/2+y,z
1/2-x,1/2+y,1/2-z
1/2-x,1/2-y,-z
1/2+x,1/2-y,1/2+z
loop_
_atom_site_type_symbol
_atom_site_label
_atom_site_fract_x
_atom_site_fract_y
_atom_site_fract_z
Si Si1 0.067661 0.069799 0.853193
Si Si2 0.646342 0.815376 0.272990
Si Si3 0.869702 0.480154 0.377176
Si Si4 0.282922 0.311849 0.930243
O O1 0.210841 0.096165 0.917527
O O2 0.000000 0.210704 0.750000
O O3 0.094950 0.140389 0.945627
O O4 0.971891 0.856055 0.794576
O O5 0.769353 0.674931 0.329204
O O6 0.608471 0.964592 0.185576
O O7 0.695282 0.962875 0.366647
O O8 0.813065 0.253672 0.375260
O O9 0.000000 0.500000 0.500000
#
# Coordination Sequence:
#
# PCOD9306753 Si02
#       4
#     8   8   8   8
#     4  11  26  50  74 108 149 201 248 302 381 441
#     4  12  26  50  78 111 149 198 247 314 378 446
#     4  12  27  46  77 113 147 197 251 309 380 443
#     4  11  27  51  75 108 156 192 253 314 365 455
#
# _framework density 25.392489999999999
#
# number of rings (size 3 to 8) (size 9 to 14) (size 15 to 20)
#    0.000    0.500    5.000    1.500    7.000    4.000 
#    4.500    0.000    0.000    0.000    0.000    0.000 
#    0.000    0.000    0.000    0.000    0.000    0.000 
#
# Total GULP energy -89224.075133 kJ/mol
# GULP energy per Si atom -5576.504696 kJ/mol
# Density = 2.533470 g / cm^3
# Si number density = 25.392490 Si / 1000 Ang^3
#
#
#
# Elastic Constant Matrix: (Units=GPa)
#
#
# Indices 1 2 3 4 5 6 
#
# 1 74.5567 37.2256 44.7184 0.0000 -1.2369 -0.0001
# 2 37.2256 96.9518 79.9128 0.0001 20.5409 0.0000
# 3 44.7184 79.9128 203.3037 0.0000 -17.1894 0.0000
# 4 0.0000 0.0001 0.0000 41.2296 0.0000 3.9950
# 5 -1.2369 20.5409 -17.1894 0.0000 51.6625 0.0000
# 6 -0.0001 0.0000 0.0000 3.9950 0.0000 31.1607
#
#
#
# Elastic Compliance Matrix: (Units=1/GPa)
#
#
# Indices 1 2 3 4 5 6 
#
# 1 0.017238 -0.006210 -0.001139 0.000000 0.002503 0.000000
# 2 -0.006210 0.021961 -0.008249 0.000000 -0.011625 0.000000
# 3 -0.001139 -0.008249 0.008938 0.000000 0.006227 0.000000
# 4 0.000000 0.000000 0.000000 0.024559 0.000000 -0.003149
# 5 0.002503 -0.011625 0.006227 0.000000 0.026110 0.000000
# 6 0.000000 0.000000 0.000000 -0.003149 0.000000 0.032495
#
#
# Mechanical properties :
#
#
# Convention : Reuss Voigt Hill
#
# Bulk Modulus (GPa) = 59.02927 77.61397 68.32162
# Shear Modulus (GPa) = 29.73594 39.00759 34.37177
#
# Velocity S-wave (km/s) = 3.42578 3.92367 3.68315
# Velocity P-wave (km/s) = 6.24060 7.15255 6.71208
#
# Compressibility (1/GPa) = 0.01694075
#
# Stress axis : x y z
#
# Youngs Moduli (GPa) = 58.01149 45.53446 111.87786
#
# Poissons Ratio (x) = 0.28278 0.12743
# Poissons Ratio (y) = 0.36026 0.92292
# Poissons Ratio (z) = 0.06607 0.37563
#
# Static dielectric constant tensor:
#      x y z
#    x 2.084820 0.000000 0.006000 
#    y 0.000000 2.242360 0.000000 
#    z 0.006000 0.000000 1.965780 
# 
# From -- ./inp_files/279115.got.cif
#   From: 2010.05.17/outbox.cif.g08.bks.cpg/sg15_140_cif.got.tgz:279115.got - 2010.06.03 18:47:42.
