data_PCOD9306784
_publ_section_title
;
Structure prediction by ZEFSAII (Michael W. Deem and Ramdas Pophale) SiO2 
 PCOD9306784
Probable space group: C 2/C
;
_chemical_formula_sum "Si O2"
_cell_formula_units_Z 40
_cell_length_a 9.151199
_cell_length_b 17.305150
_cell_length_c 9.690891
_cell_angle_alpha 90.000000
_cell_angle_beta 109.028134
_cell_angle_gamma 90.000000
_cell_volume 1450.820404
_symmetry_space_group_name_H-M "C 2/C"
_symmetry_group_IT_number 15
_symmetry_cell_setting 'monoclinic'
loop_
_space_group_symop_operation_xyz
x,y,z
-x,y,1/2-z
-x,-y,-z
x,-y,1/2+z
1/2+x,1/2+y,z
1/2-x,1/2+y,1/2-z
1/2-x,1/2-y,-z
1/2+x,1/2-y,1/2+z
loop_
_atom_site_type_symbol
_atom_site_label
_atom_site_fract_x
_atom_site_fract_y
_atom_site_fract_z
Si Si1 0.363033 0.794790 0.842677
Si Si2 0.750000 0.250000 0.500000
Si Si3 0.500000 0.461925 0.750000
Si Si4 0.888794 0.585585 0.016536
Si Si5 0.118488 0.839274 0.984376
Si Si6 0.709160 0.039659 0.788787
O O1 0.319307 0.772190 0.677323
O O2 0.450791 0.875404 0.884343
O O3 0.206638 0.801540 0.882553
O O4 0.464860 0.728856 0.955580
O O5 0.774337 0.341997 0.463397
O O6 0.518425 0.406742 0.888331
O O7 0.353077 0.512798 0.738431
O O8 0.820847 0.525882 0.106388
O O9 0.915893 0.553554 0.869683
O O10 0.241925 0.881580 0.119837
#
# Coordination Sequence:
#
# PCOD9306784 Si02
#       6
#     8   4   4   8   8   8
#     4  11  28  52  81 119 166 218 280 349 425 508
#     4  12  26  52  76 122 160 222 272 344 420 512
#     4  12  26  48  82 114 160 218 282 342 418 526
#     4  12  29  53  84 126 167 223 284 360 426 514
#     4  11  26  51  80 116 163 224 274 347 428 502
#     4  12  27  53  83 122 170 222 285 351 437 501
#
# _framework density 27.570608
#
# number of rings (size 3 to 8) (size 9 to 14) (size 15 to 20)
#    0.000    0.400    4.000    2.400    5.600    1.600 
#    7.200    0.000    0.000    0.000    0.000    0.000 
#    0.000    0.000    0.000    0.000    0.000    0.000 
#
# Total GULP energy -111944.083198 kJ/mol
# GULP energy per Si atom -5597.204160 kJ/mol
# Density = 2.750786 g / cm^3
# Si number density = 27.570608 Si / 1000 Ang^3
#
#
#
# Elastic Constant Matrix: (Units=GPa)
#
#
# Indices 1 2 3 4 5 6 
#
# 1 45.7325 30.2132 28.7729 0.0000 -12.0504 0.0000
# 2 30.2132 167.3701 77.6790 0.0000 -15.0615 0.0000
# 3 28.7729 77.6790 246.1989 0.0000 1.1866 0.0000
# 4 0.0000 0.0000 0.0000 71.6329 0.0000 3.8730
# 5 -12.0504 -15.0615 1.1866 0.0000 41.7154 0.0000
# 6 0.0000 0.0000 0.0000 3.8730 0.0000 59.3354
#
#
#
# Elastic Compliance Matrix: (Units=1/GPa)
#
#
# Indices 1 2 3 4 5 6 
#
# 1 0.027179 -0.003294 -0.002169 0.000000 0.006724 0.000000
# 2 -0.003294 0.007691 -0.002051 0.000000 0.001883 0.000000
# 3 -0.002169 -0.002051 0.004970 0.000000 -0.001508 0.000000
# 4 0.000000 0.000000 0.000000 0.014010 0.000000 -0.000914
# 5 0.006724 0.001883 -0.001508 0.000000 0.026637 0.000000
# 6 0.000000 0.000000 0.000000 -0.000914 0.000000 0.016913
#
#
# Mechanical properties :
#
#
# Convention : Reuss Voigt Hill
#
# Bulk Modulus (GPa) = 40.30518 81.40354 60.85436
# Shear Modulus (GPa) = 41.42567 56.04584 48.73576
#
# Velocity S-wave (km/s) = 3.88045 4.51356 4.20893
# Velocity P-wave (km/s) = 5.89303 7.53343 6.76315
#
# Compressibility (1/GPa) = 0.02481071
#
# Stress axis : x y z
#
# Youngs Moduli (GPa) = 36.79277 130.02762 201.22599
#
# Poissons Ratio (x) = 0.42837 0.43653
# Poissons Ratio (y) = 0.12121 0.41263
# Poissons Ratio (z) = 0.07982 0.26663
#
# Static dielectric constant tensor:
#      x y z
#    x -0.888500 0.000000 -0.550530 
#    y 0.000000 2.131320 0.000000 
#    z -0.550530 0.000000 1.995020 
# 
# From -- ./inp_files/38725.got.cif
#   From: 2010.05.17/outbox.cif.g08.bks.cpg/sg15_20_cif.got.tgz:38725.got - 2010.06.03 18:47:42.
