data_PCOD9306086
_publ_section_title
;
Structure prediction by ZEFSAII (Michael W. Deem and Ramdas Pophale) SiO2 
 PCOD9306086
Probable space group: C 2/C
;
_chemical_formula_sum "Si O2"
_cell_formula_units_Z 52
_cell_length_a 18.093265
_cell_length_b 6.575349
_cell_length_c 18.816691
_cell_angle_alpha 90.000000
_cell_angle_beta 100.899398
_cell_angle_gamma 90.000000
_cell_volume 2198.229909
_symmetry_space_group_name_H-M "C 2/C"
_symmetry_group_IT_number 15
_symmetry_cell_setting 'monoclinic'
loop_
_space_group_symop_operation_xyz
x,y,z
-x,y,1/2-z
-x,-y,-z
x,-y,1/2+z
1/2+x,1/2+y,z
1/2-x,1/2+y,1/2-z
1/2-x,1/2-y,-z
1/2+x,1/2-y,1/2+z
loop_
_atom_site_type_symbol
_atom_site_label
_atom_site_fract_x
_atom_site_fract_y
_atom_site_fract_z
Si Si1 0.050883 0.970880 0.901085
Si Si2 0.831534 0.667058 0.880294
Si Si3 0.889708 0.893511 0.375584
Si Si4 0.875267 0.370593 0.994073
Si Si5 0.500000 0.752957 0.250000
Si Si6 0.679282 0.809546 0.906178
Si Si7 0.365138 0.060065 0.258859
O O1 0.069468 0.771314 0.950687
O O2 0.032308 0.886900 0.818921
O O3 0.118651 0.133637 0.913494
O O4 0.976639 0.087691 0.913932
O O5 0.760767 0.707903 0.917506
O O6 0.809152 0.543144 0.805742
O O7 0.861280 0.881487 0.860611
O O8 0.894055 0.545457 0.938329
O O9 0.841905 0.789976 0.430588
O O10 0.887832 0.765173 0.303566
O O11 0.830039 0.496987 0.044379
O O12 0.434750 0.904438 0.265617
O O13 0.664396 0.890922 0.823843
#
# Coordination Sequence:
#
# PCOD9306086 Si02
#       7
#     8   8   8   8   4   8   8
#     4  12  25  43  73 101 141 184 237 291 357 415
#     4  11  27  47  70 104 144 185 238 288 356 425
#     4  11  25  46  71 101 142 186 231 295 356 418
#     4  11  26  47  72 104 146 186 235 291 351 426
#     4  12  22  48  70 106 138 182 240 302 344 422
#     4  12  27  44  72 107 138 188 239 289 354 425
#     4  11  25  44  71 101 140 180 237 296 353 417
#
# _framework density 23.655394999999999
#
# number of rings (size 3 to 8) (size 9 to 14) (size 15 to 20)
#    0.000    0.615    3.077    3.692    2.154    4.923 
#    0.000    0.000    0.000    0.000    0.000    0.000 
#    0.000    0.000    0.000    0.000    0.000    0.000 
#
# Total GULP energy -145303.236631 kJ/mol
# GULP energy per Si atom -5588.586024 kJ/mol
# Density = 2.360155 g / cm^3
# Si number density = 23.655395 Si / 1000 Ang^3
#
#
#
# Elastic Constant Matrix: (Units=GPa)
#
#
# Indices 1 2 3 4 5 6 
#
# 1 100.4582 56.2597 16.2271 0.0000 3.8992 0.0000
# 2 56.2597 153.1500 67.1335 0.0000 2.3181 0.0000
# 3 16.2271 67.1335 165.5592 0.0000 -5.5345 0.0000
# 4 0.0000 0.0000 0.0000 -77.4201 0.0000 1.2275
# 5 3.8992 2.3181 -5.5345 0.0000 26.9651 0.0000
# 6 0.0000 0.0000 0.0000 1.2275 0.0000 18.0682
#
#
#
# Elastic Compliance Matrix: (Units=1/GPa)
#
#
# Indices 1 2 3 4 5 6 
#
# 1 0.012657 -0.004948 0.000724 0.000000 -0.001256 0.000000
# 2 -0.004948 0.009925 -0.003568 0.000000 -0.000870 0.000000
# 3 0.000724 -0.003568 0.007474 0.000000 0.001736 0.000000
# 4 0.000000 0.000000 0.000000 -0.012903 0.000000 0.000877
# 5 -0.001256 -0.000870 0.001736 0.000000 0.037698 0.000000
# 6 0.000000 0.000000 0.000000 0.000877 0.000000 0.055286
#
#
# Mechanical properties :
#
#
# Convention : Reuss Voigt Hill
#
# Bulk Modulus (GPa) = 69.10467 77.60088 73.35278
# Shear Modulus (GPa) = 38.30062 12.15913 25.22988
#
# Velocity S-wave (km/s) = 4.02818 2.26964 3.26936
# Velocity P-wave (km/s) = 7.13523 6.30431 6.73260
#
# Compressibility (1/GPa) = 0.01447080
#
# Stress axis : x y z
#
# Youngs Moduli (GPa) = 79.00642 100.76003 133.79273
#
# Poissons Ratio (x) = 0.49855 -0.09683
# Poissons Ratio (y) = 0.39091 0.47744
# Poissons Ratio (z) = -0.05718 0.35956
#
# Static dielectric constant tensor:
#      x y z
#    x 1.958170 0.000000 -0.049460 
#    y 0.000000 1.875720 0.000000 
#    z -0.049460 0.000000 1.912760 
# 
# From -- ./inp_files/251087.got.cif
#   From: 2010.05.17/outbox.cif.g08.bks.cpg/sg15_126_cif.got.tgz:251087.got - 2010.06.03 18:47:42.
