data_PCOD9306264
_publ_section_title
;
Structure prediction by ZEFSAII (Michael W. Deem and Ramdas Pophale) SiO2 
 PCOD9306264
Probable space group: C 2/C
;
_chemical_formula_sum "Si O2"
_cell_formula_units_Z 56
_cell_length_a 10.950721
_cell_length_b 20.870719
_cell_length_c 10.541112
_cell_angle_alpha 90.000000
_cell_angle_beta 105.446854
_cell_angle_gamma 90.000000
_cell_volume 2322.140994
_symmetry_space_group_name_H-M "C 2/C"
_symmetry_group_IT_number 15
_symmetry_cell_setting 'monoclinic'
loop_
_space_group_symop_operation_xyz
x,y,z
-x,y,1/2-z
-x,-y,-z
x,-y,1/2+z
1/2+x,1/2+y,z
1/2-x,1/2+y,1/2-z
1/2-x,1/2-y,-z
1/2+x,1/2-y,1/2+z
loop_
_atom_site_type_symbol
_atom_site_label
_atom_site_fract_x
_atom_site_fract_y
_atom_site_fract_z
Si Si1 0.302613 0.645166 0.930151
Si Si2 0.476717 0.736696 0.591654
Si Si3 0.029633 0.361341 0.452943
Si Si4 0.874388 0.435642 0.785454
Si Si5 0.201505 0.870525 0.556364
Si Si6 0.021154 0.948382 0.895963
Si Si7 0.722087 0.930531 0.179747
O O1 0.400176 0.702977 0.938909
O O2 0.310511 0.608166 0.798879
O O3 0.156199 0.662523 0.915987
O O4 0.351951 0.593269 0.046711
O O5 0.500000 0.740942 0.750000
O O6 0.467410 0.804327 0.517663
O O7 0.353330 0.693443 0.523775
O O8 0.082913 0.412482 0.566615
O O9 0.916567 0.397447 0.350123
O O10 0.817016 0.377107 0.687048
O O11 0.785170 0.496859 0.775896
O O12 0.000000 0.458795 0.750000
O O13 0.233382 0.920090 0.451770
O O14 0.086478 0.895785 0.609020
O O15 0.000000 0.975420 0.750000
O O16 0.000000 0.000000 0.000000
#
# Coordination Sequence:
#
# PCOD9306264 Si02
#       7
#     8   8   8   8   8   8   8
#     4  11  25  46  72 104 149 192 249 306 384 443
#     4  11  25  49  74 106 147 194 259 314 380 456
#     4  12  26  45  73 106 145 198 249 309 374 452
#     4  12  25  44  69 108 147 197 244 309 382 460
#     4  11  26  45  72 107 148 191 249 310 380 442
#     4  11  26  43  71 107 149 199 248 307 374 446
#     4  12  26  44  72 109 150 195 246 314 379 454
#
# _framework density 24.115675
#
# number of rings (size 3 to 8) (size 9 to 14) (size 15 to 20)
#    0.000    0.571    2.857    4.286    8.000    1.714 
#    0.000    7.143    0.000    0.000    0.000    0.000 
#    0.000    0.000    0.000    0.000    0.000    0.000 
#
# Total GULP energy -156697.824898 kJ/mol
# GULP energy per Si atom -5596.350889 kJ/mol
# Density = 2.406079 g / cm^3
# Si number density = 24.115675 Si / 1000 Ang^3
#
#
#
# Elastic Constant Matrix: (Units=GPa)
#
#
# Indices 1 2 3 4 5 6 
#
# 1 106.1248 20.4676 5.6415 0.0000 -7.6796 0.0000
# 2 20.4676 87.2142 14.8744 0.0000 6.3170 0.0000
# 3 5.6415 14.8744 98.9579 0.0000 6.9110 0.0000
# 4 0.0000 0.0000 0.0000 10.7248 0.0000 -6.6519
# 5 -7.6796 6.3170 6.9110 0.0000 37.7098 0.0000
# 6 0.0000 0.0000 0.0000 -6.6519 0.0000 37.1095
#
#
#
# Elastic Compliance Matrix: (Units=1/GPa)
#
#
# Indices 1 2 3 4 5 6 
#
# 1 0.010108 -0.002492 -0.000379 0.000000 0.002545 0.000000
# 2 -0.002492 0.012487 -0.001573 0.000000 -0.002311 0.000000
# 3 -0.000379 -0.001573 0.010485 0.000000 -0.001735 0.000000
# 4 0.000000 0.000000 0.000000 0.104905 0.000000 0.018804
# 5 0.002545 -0.002311 -0.001735 0.000000 0.027742 0.000000
# 6 0.000000 0.000000 0.000000 0.018804 0.000000 0.030318
#
#
# Mechanical properties :
#
#
# Convention : Reuss Voigt Hill
#
# Bulk Modulus (GPa) = 41.34001 41.58487 41.46244
# Shear Modulus (GPa) = 23.47464 33.86306 28.66885
#
# Velocity S-wave (km/s) = 3.12335 3.75132 3.45165
# Velocity P-wave (km/s) = 5.49424 6.00371 5.75462
#
# Compressibility (1/GPa) = 0.02418964
#
# Stress axis : x y z
#
# Youngs Moduli (GPa) = 98.93346 80.08645 95.37773
#
# Poissons Ratio (x) = 0.19956 0.03619
# Poissons Ratio (y) = 0.24652 0.15007
# Poissons Ratio (z) = 0.03754 0.12601
#
# Static dielectric constant tensor:
#      x y z
#    x 1.977770 0.000000 0.006730 
#    y 0.000000 1.887090 0.000000 
#    z 0.006730 0.000000 1.866450 
# 
# From -- ./inp_files/89034.got.cif
#   From: 2010.05.17/outbox.cif.g08.bks.cpg/sg15_45_cif.got.tgz:89034.got - 2010.06.03 18:47:42.
