data_PCOD9306190
_publ_section_title
;
Structure prediction by ZEFSAII (Michael W. Deem and Ramdas Pophale) SiO2 
 PCOD9306190
Probable space group: C 2/C
;
_chemical_formula_sum "Si O2"
_cell_formula_units_Z 44
_cell_length_a 5.118229
_cell_length_b 21.996136
_cell_length_c 18.701251
_cell_angle_alpha 90.000000
_cell_angle_beta 111.802850
_cell_angle_gamma 90.000000
_cell_volume 1954.804843
_symmetry_space_group_name_H-M "C 2/C"
_symmetry_group_IT_number 15
_symmetry_cell_setting 'monoclinic'
loop_
_space_group_symop_operation_xyz
x,y,z
-x,y,1/2-z
-x,-y,-z
x,-y,1/2+z
1/2+x,1/2+y,z
1/2-x,1/2+y,1/2-z
1/2-x,1/2-y,-z
1/2+x,1/2-y,1/2+z
loop_
_atom_site_type_symbol
_atom_site_label
_atom_site_fract_x
_atom_site_fract_y
_atom_site_fract_z
Si Si1 0.216423 0.037293 0.476571
Si Si2 0.000000 0.450824 0.250000
Si Si3 0.693130 0.717460 0.917935
Si Si4 0.181342 0.637982 0.899920
Si Si5 0.672665 0.819404 0.697114
Si Si6 0.736817 0.443698 0.824257
O O1 0.290745 0.098370 0.525307
O O2 0.101921 0.038032 0.384820
O O3 0.500000 0.000000 0.500000
O O4 0.000000 0.000000 0.500000
O O5 0.893516 0.403745 0.177073
O O6 0.852040 0.500081 0.289689
O O7 0.491815 0.661444 0.914946
O O8 0.494314 0.763160 0.853506
O O9 0.959102 0.691818 0.898843
O O10 0.750000 0.750000 0.000000
O O11 0.500000 0.835674 0.750000
O O12 0.606397 0.880405 0.642610
O O13 0.000000 0.802031 0.750000
O O14 0.500000 0.416844 0.750000
#
# Coordination Sequence:
#
# PCOD9306190 Si02
#       6
#     8   4   8   8   8   8
#     4  12  25  46  71 108 150 197 246 295 381 458
#     4  12  26  46  72 118 150 192 252 310 400 442
#     4  12  28  51  76 107 149 200 258 315 375 453
#     4  12  28  46  79 111 153 201 252 325 382 458
#     4  11  25  46  74 107 141 197 251 304 374 442
#     4  11  25  45  74 107 153 193 245 314 371 463
#
# _framework density 22.50864
#
# number of rings (size 3 to 8) (size 9 to 14) (size 15 to 20)
#    0.000    0.364    2.727    4.909    6.364    2.909 
#    0.000    0.000    0.000    0.000    0.000    0.000 
#    0.000    0.000    0.000    0.000    0.000    0.000 
#
# Total GULP energy -122533.221437 kJ/mol
# GULP energy per Si atom -5569.691883 kJ/mol
# Density = 2.245741 g / cm^3
# Si number density = 22.508640 Si / 1000 Ang^3
#
#
#
# Elastic Constant Matrix: (Units=GPa)
#
#
# Indices 1 2 3 4 5 6 
#
# 1 98.0646 0.8511 16.7518 0.0000 -15.4487 0.0000
# 2 0.8511 68.1826 26.8947 0.0000 -4.1427 0.0000
# 3 16.7518 26.8947 116.6350 0.0000 -27.4326 0.0000
# 4 0.0000 0.0000 0.0000 42.8426 0.0000 -14.5720
# 5 -15.4487 -4.1427 -27.4326 0.0000 43.1387 0.0000
# 6 0.0000 0.0000 0.0000 -14.5720 0.0000 30.5293
#
#
#
# Elastic Compliance Matrix: (Units=1/GPa)
#
#
# Indices 1 2 3 4 5 6 
#
# 1 0.010874 0.000409 -0.000860 0.000000 0.003387 0.000000
# 2 0.000409 0.016183 -0.003987 0.000000 -0.000835 0.000000
# 3 -0.000860 -0.003987 0.011117 0.000000 0.006379 0.000000
# 4 0.000000 0.000000 0.000000 0.027865 0.000000 0.013300
# 5 0.003387 -0.000835 0.006379 0.000000 0.028370 0.000000
# 6 0.000000 0.000000 0.000000 0.013300 0.000000 0.039104
#
#
# Mechanical properties :
#
#
# Convention : Reuss Voigt Hill
#
# Bulk Modulus (GPa) = 34.12986 41.31973 37.72480
# Shear Modulus (GPa) = 32.86142 39.19444 36.02793
#
# Velocity S-wave (km/s) = 3.82507 4.17742 4.00512
# Velocity P-wave (km/s) = 5.89102 6.45484 6.17936
#
# Compressibility (1/GPa) = 0.02929985
#
# Stress axis : x y z
#
# Youngs Moduli (GPa) = 91.96079 61.79226 89.95424
#
# Poissons Ratio (x) = -0.02528 0.07732
# Poissons Ratio (y) = -0.03762 0.35862
# Poissons Ratio (z) = 0.07904 0.24635
#
# Static dielectric constant tensor:
#      x y z
#    x 1.850660 0.000000 0.072180 
#    y 0.000000 1.998830 0.000000 
#    z 0.072180 0.000000 1.728500 
# 
# From -- ./inp_files/185599.got.cif
#   From: 2010.05.17/outbox.cif.g08.bks.cpg/sg15_93_cif.got.tgz:185599.got - 2010.06.03 18:47:42.
