data_PCOD9306846
_publ_section_title
;
Structure prediction by ZEFSAII (Michael W. Deem and Ramdas Pophale) SiO2 
 PCOD9306846
Probable space group: C 2/C
;
_chemical_formula_sum "Si O2"
_cell_formula_units_Z 28
_cell_length_a 17.995036
_cell_length_b 9.107523
_cell_length_c 7.694192
_cell_angle_alpha 90.000000
_cell_angle_beta 61.086234
_cell_angle_gamma 90.000000
_cell_volume 1103.816679
_symmetry_space_group_name_H-M "C 2/C"
_symmetry_group_IT_number 15
_symmetry_cell_setting 'monoclinic'
loop_
_space_group_symop_operation_xyz
x,y,z
-x,y,1/2-z
-x,-y,-z
x,-y,1/2+z
1/2+x,1/2+y,z
1/2-x,1/2+y,1/2-z
1/2-x,1/2-y,-z
1/2+x,1/2-y,1/2+z
loop_
_atom_site_type_symbol
_atom_site_label
_atom_site_fract_x
_atom_site_fract_y
_atom_site_fract_z
Si Si1 0.681464 0.468394 0.021553
Si Si2 0.230537 0.305470 0.273321
Si Si3 0.000000 0.885240 0.750000
Si Si4 0.963969 0.655644 0.480284
O O1 0.702121 0.364022 0.160429
O O2 0.583788 0.516520 0.128216
O O3 0.735407 0.616620 0.937628
O O4 0.714284 0.366030 0.825401
O O5 0.136868 0.365595 0.417474
O O6 0.985188 0.779457 0.600061
O O7 0.000000 0.692628 0.250000
O O8 0.000000 0.500000 0.500000
#
# Coordination Sequence:
#
# PCOD9306846 Si02
#       4
#     8   8   4   8
#     4  11  28  50  82 115 161 215 266 344 403 497
#     4  11  27  49  79 117 163 208 275 329 422 476
#     4  12  30  52  84 120 166 218 276 338 416 482
#     4  12  27  48  82 120 163 213 271 340 410 491
#
# _framework density 25.366530999999998
#
# number of rings (size 3 to 8) (size 9 to 14) (size 15 to 20)
#    0.000    0.571    1.429    3.429   14.000    4.571 
#    0.000    0.000    0.000    0.000    0.000    0.000 
#    0.000    0.000    0.000    0.000    0.000    0.000 
#
# Total GULP energy -78463.541436 kJ/mol
# GULP energy per Si atom -5604.538674 kJ/mol
# Density = 2.530880 g / cm^3
# Si number density = 25.366531 Si / 1000 Ang^3
#
#
#
# Elastic Constant Matrix: (Units=GPa)
#
#
# Indices 1 2 3 4 5 6 
#
# 1 142.2605 67.2789 83.9093 0.0000 -26.5253 0.0000
# 2 67.2789 208.4324 71.1372 0.0000 -15.9227 0.0000
# 3 83.9093 71.1372 158.5644 0.0000 11.5191 0.0000
# 4 0.0000 0.0000 0.0000 56.1873 0.0000 -22.5768
# 5 -26.5253 -15.9227 11.5191 0.0000 63.6082 0.0000
# 6 0.0000 0.0000 0.0000 -22.5768 0.0000 90.3773
#
#
#
# Elastic Compliance Matrix: (Units=1/GPa)
#
#
# Indices 1 2 3 4 5 6 
#
# 1 0.012683 -0.001398 -0.006529 0.000000 0.006121 0.000000
# 2 -0.001398 0.006056 -0.002072 0.000000 0.001308 0.000000
# 3 -0.006529 -0.002072 0.011073 0.000000 -0.005247 0.000000
# 4 0.000000 0.000000 0.000000 0.019783 0.000000 0.004942
# 5 0.006121 0.001308 -0.005247 0.000000 0.019552 0.000000
# 6 0.000000 0.000000 0.000000 0.004942 0.000000 0.012299
#
#
# Mechanical properties :
#
#
# Convention : Reuss Voigt Hill
#
# Bulk Modulus (GPa) = 101.90581 105.98979 103.94780
# Shear Modulus (GPa) = 47.74854 61.16337 54.45595
#
# Velocity S-wave (km/s) = 4.34331 4.91571 4.63834
# Velocity P-wave (km/s) = 8.08783 8.60773 8.35182
#
# Compressibility (1/GPa) = 0.00981298
#
# Stress axis : x y z
#
# Youngs Moduli (GPa) = 78.84665 165.12146 90.31365
#
# Poissons Ratio (x) = 0.23082 0.58967
# Poissons Ratio (y) = 0.11022 0.18716
# Poissons Ratio (z) = 0.51480 0.34218
#
# Static dielectric constant tensor:
#      x y z
#    x 2.001000 0.000000 0.139400 
#    y 0.000000 1.915100 0.000000 
#    z 0.139400 0.000000 2.032880 
# 
# From -- ./inp_files/45421.got.cif
#   From: 2010.05.17/outbox.cif.g08.bks.cpg/sg15_23_cif.got.tgz:45421.got - 2010.06.03 18:47:42.
