data_PCOD9306894
_publ_section_title
;
Structure prediction by ZEFSAII (Michael W. Deem and Ramdas Pophale) SiO2 
 PCOD9306894
Probable space group: C 2/C
;
_chemical_formula_sum "Si O2"
_cell_formula_units_Z 24
_cell_length_a 13.218822
_cell_length_b 11.874049
_cell_length_c 7.180096
_cell_angle_alpha 90.000000
_cell_angle_beta 48.711336
_cell_angle_gamma 90.000000
_cell_volume 846.817784
_symmetry_space_group_name_H-M "C 2/C"
_symmetry_group_IT_number 15
_symmetry_cell_setting 'monoclinic'
loop_
_space_group_symop_operation_xyz
x,y,z
-x,y,1/2-z
-x,-y,-z
x,-y,1/2+z
1/2+x,1/2+y,z
1/2-x,1/2+y,1/2-z
1/2-x,1/2-y,-z
1/2+x,1/2-y,1/2+z
loop_
_atom_site_type_symbol
_atom_site_label
_atom_site_fract_x
_atom_site_fract_y
_atom_site_fract_z
Si Si1 0.101285 0.395933 0.890044
Si Si2 0.285288 0.434214 0.987968
Si Si3 0.471745 0.353634 0.072071
O O1 0.223458 0.442552 0.612869
O O2 0.031716 0.281145 0.917708
O O3 0.163397 0.378350 0.020264
O O4 0.000000 0.500000 0.000000
O O5 0.335098 0.384596 0.124361
O O6 0.410386 0.406604 0.698535
O O7 0.500000 0.390407 0.250000
#
# Coordination Sequence:
#
# PCOD9306894 Si02
#       3
#     8   8   8
#     4  12  28  52  85 124 171 224 279 351 424 502
#     4  11  29  52  86 124 168 221 289 344 421 512
#     4  11  28  53  84 121 168 225 278 353 424 494
#
# _framework density 28.341398999999999
#
# number of rings (size 3 to 8) (size 9 to 14) (size 15 to 20)
#    0.000    0.667    0.000    4.000   18.667    6.667 
#    0.000    0.000    0.000    0.000    0.000    0.000 
#    0.000    0.000    0.000    0.000    0.000    0.000 
#
# Total GULP energy -67228.395650 kJ/mol
# GULP energy per Si atom -5602.366304 kJ/mol
# Density = 2.827689 g / cm^3
# Si number density = 28.341399 Si / 1000 Ang^3
#
#
#
# Elastic Constant Matrix: (Units=GPa)
#
#
# Indices 1 2 3 4 5 6 
#
# 1 250.0733 65.8184 99.8956 0.0000 37.3234 0.0000
# 2 65.8184 229.1261 84.2192 0.0000 9.4529 0.0000
# 3 99.8956 84.2192 226.3569 0.0000 33.2377 0.0000
# 4 0.0000 0.0000 0.0000 30.7587 0.0000 13.7595
# 5 37.3234 9.4529 33.2377 0.0000 62.5151 0.0000
# 6 0.0000 0.0000 0.0000 13.7595 0.0000 49.7307
#
#
#
# Elastic Compliance Matrix: (Units=1/GPa)
#
#
# Indices 1 2 3 4 5 6 
#
# 1 0.005192 -0.000783 -0.001695 0.000000 -0.002081 0.000000
# 2 -0.000783 0.005178 -0.001665 0.000000 0.000569 0.000000
# 3 -0.001695 -0.001665 0.006074 0.000000 -0.001966 0.000000
# 4 0.000000 0.000000 0.000000 0.037103 0.000000 -0.010266
# 5 -0.002081 0.000569 -0.001966 0.000000 0.018197 0.000000
# 6 0.000000 0.000000 0.000000 -0.010266 0.000000 0.022949
#
#
# Mechanical properties :
#
#
# Convention : Reuss Voigt Hill
#
# Bulk Modulus (GPa) = 122.55649 133.93587 128.24618
# Shear Modulus (GPa) = 47.30504 58.97579 53.14041
#
# Velocity S-wave (km/s) = 4.08991 4.56664 4.33484
# Velocity P-wave (km/s) = 8.10185 8.66985 8.39066
#
# Compressibility (1/GPa) = 0.00815950
#
# Stress axis : x y z
#
# Youngs Moduli (GPa) = 192.59026 193.13916 164.64466
#
# Poissons Ratio (x) = 0.15119 0.27903
# Poissons Ratio (y) = 0.15076 0.27406
# Poissons Ratio (z) = 0.32639 0.32149
#
# Static dielectric constant tensor:
#      x y z
#    x 2.176120 0.000000 -0.085580 
#    y 0.000000 2.179420 0.000000 
#    z -0.085580 0.000000 2.346110 
# 
# From -- ./inp_files/26910.got.cif
#   From: 2010.05.17/outbox.cif.g08.bks.cpg/sg15_14_cif.got.tgz:26910.got - 2010.06.03 18:47:42.
