data_PCOD9306376
_publ_section_title
;
Structure prediction by ZEFSAII (Michael W. Deem and Ramdas Pophale) SiO2 
 PCOD9306376
Probable space group: C 2/C
;
_chemical_formula_sum "Si O2"
_cell_formula_units_Z 40
_cell_length_a 8.622948
_cell_length_b 16.915682
_cell_length_c 18.498636
_cell_angle_alpha 90.000000
_cell_angle_beta 143.860646
_cell_angle_gamma 90.000000
_cell_volume 1591.306414
_symmetry_space_group_name_H-M "C 2/C"
_symmetry_group_IT_number 15
_symmetry_cell_setting 'monoclinic'
loop_
_space_group_symop_operation_xyz
x,y,z
-x,y,1/2-z
-x,-y,-z
x,-y,1/2+z
1/2+x,1/2+y,z
1/2-x,1/2+y,1/2-z
1/2-x,1/2-y,-z
1/2+x,1/2-y,1/2+z
loop_
_atom_site_type_symbol
_atom_site_label
_atom_site_fract_x
_atom_site_fract_y
_atom_site_fract_z
Si Si1 0.353433 0.275580 0.949009
Si Si2 0.212730 0.887705 0.172101
Si Si3 0.093195 0.023031 0.386821
Si Si4 0.841080 0.635100 0.254335
Si Si5 0.123111 0.606432 0.603298
O O1 0.347082 0.308721 0.864131
O O2 0.362352 0.182355 0.942626
O O3 0.916353 0.183960 0.919929
O O4 0.074031 0.310549 0.873669
O O5 0.500000 0.903273 0.250000
O O6 0.248216 0.873713 0.271330
O O7 0.019992 0.963176 0.095666
O O8 0.841529 0.076874 0.269555
O O9 0.323742 0.079213 0.501732
O O10 0.230261 0.966214 0.380162
O O11 0.000000 0.589204 0.250000
#
# Coordination Sequence:
#
# PCOD9306376 Si02
#       5
#     8   8   8   8   8
#     4   9  24  50  74 114 150 204 253 311 378 449
#     4  12  27  45  83 113 147 209 260 306 377 460
#     4  11  25  47  77 110 157 199 250 317 385 444
#     4   8  21  44  77 106 148 203 250 307 369 455
#     4  11  27  51  76 114 159 195 254 321 378 455
#
# _framework density 25.136578
#
# number of rings (size 3 to 8) (size 9 to 14) (size 15 to 20)
#    1.200    0.400    0.000    2.400    8.400    5.600 
#    0.000    4.000    0.000    0.000    0.000    0.000 
#    0.000    0.000    0.000    0.000    0.000    0.000 
#
# Total GULP energy -111843.158680 kJ/mol
# GULP energy per Si atom -5592.157934 kJ/mol
# Density = 2.507937 g / cm^3
# Si number density = 25.136578 Si / 1000 Ang^3
#
#
#
# Elastic Constant Matrix: (Units=GPa)
#
#
# Indices 1 2 3 4 5 6 
#
# 1 101.5228 55.7875 55.1913 -0.1342 19.0842 -0.1594
# 2 55.7875 167.9490 77.6972 -0.0709 15.9656 -0.0844
# 3 55.1913 77.6972 141.1388 0.0357 16.4521 0.0406
# 4 -0.1342 -0.0709 0.0357-3213.0549 -0.0326-3835.4607
# 5 19.0842 15.9656 16.4521 -0.0326 52.9788 -0.0393
# 6 -0.1594 -0.0844 0.0406-3835.4607 -0.0393-4511.8596
#
#
#
# Elastic Compliance Matrix: (Units=1/GPa)
#
#
# Indices 1 2 3 4 5 6 
#
# 1 0.013834 -0.002638 -0.003599 0.000000 -0.003070 0.000000
# 2 -0.002638 0.008552 -0.003618 0.000000 -0.000504 0.000000
# 3 -0.003599 -0.003618 0.010589 0.000000 -0.000902 0.000000
# 4 0.000000 0.000000 0.000000 0.021093 0.000000 -0.017931
# 5 -0.003070 -0.000504 -0.000902 0.000000 0.020413 0.000000
# 6 0.000000 0.000000 0.000000 -0.017931 0.000000 0.015021
#
#
# Mechanical properties :
#
#
# Convention : Reuss Voigt Hill
#
# Bulk Modulus (GPa) = 75.38729 87.55138 81.46934
# Shear Modulus (GPa) = 44.00128 -1519.59149 -737.79511
#
# Velocity S-wave (km/s) = 4.18842 -24.61395 -17.15085
# Velocity P-wave (km/s) = 7.31072 27.80089 18.96632
#
# Compressibility (1/GPa) = 0.01326484
#
# Stress axis : x y z
#
# Youngs Moduli (GPa) = 72.28806 116.93314 94.43498
#
# Poissons Ratio (x) = 0.30848 0.33990
# Poissons Ratio (y) = 0.19070 0.34162
# Poissons Ratio (z) = 0.26019 0.42301
#
# Static dielectric constant tensor:
#      x y z
#    x 1.981440 0.000000 -0.023050 
#    y 0.000000 1.982020 0.000000 
#    z -0.023050 0.000000 2.016730 
# 
# From -- ./inp_files/233657.got.cif
#   From: 2010.05.17/outbox.cif.g08.bks.cpg/sg15_117_cif.got.tgz:233657.got - 2010.06.03 18:47:42.
