data_PCOD9306935
_publ_section_title
;
Structure prediction by ZEFSAII (Michael W. Deem and Ramdas Pophale) SiO2 
 PCOD9306935
Probable space group: C 2/C
;
_chemical_formula_sum "Si O2"
_cell_formula_units_Z 36
_cell_length_a 9.764586
_cell_length_b 15.770659
_cell_length_c 9.426224
_cell_angle_alpha 90.000000
_cell_angle_beta 96.617986
_cell_angle_gamma 90.000000
_cell_volume 1441.909109
_symmetry_space_group_name_H-M "C 2/C"
_symmetry_group_IT_number 15
_symmetry_cell_setting 'monoclinic'
loop_
_space_group_symop_operation_xyz
x,y,z
-x,y,1/2-z
-x,-y,-z
x,-y,1/2+z
1/2+x,1/2+y,z
1/2-x,1/2+y,1/2-z
1/2-x,1/2-y,-z
1/2+x,1/2-y,1/2+z
loop_
_atom_site_type_symbol
_atom_site_label
_atom_site_fract_x
_atom_site_fract_y
_atom_site_fract_z
Si Si1 0.543876 0.149608 0.071436
Si Si2 0.517947 0.337258 0.999260
Si Si3 0.193699 0.814098 0.728555
Si Si4 0.719006 0.875134 0.305402
Si Si5 0.000000 0.508339 0.250000
O O1 0.657112 0.156584 0.209190
O O2 0.466933 0.065373 0.107756
O O3 0.484702 0.244051 0.055921
O O4 0.627959 0.139202 0.936228
O O5 0.606946 0.327334 0.864524
O O6 0.373089 0.363937 0.911745
O O7 0.621335 0.382359 0.123119
O O8 0.201060 0.711543 0.713714
O O9 0.636171 0.952792 0.229283
#
# Coordination Sequence:
#
# PCOD9306935 Si02
#       5
#     8   8   8   8   4
#     4   9  18  29  44  68  96 120 148 185 227 268
#     4   8  14  29  50  67  83 115 159 190 213 261
#     4   8  14  29  51  69  84 114 157 191 216 261
#     4   9  17  28  46  68  90 119 153 186 222 265
#     4  12  20  28  42  72 102 120 140 186 236 268
#
# _framework density 24.966898
#
# number of rings (size 3 to 8) (size 9 to 14) (size 15 to 20)
#    0.000    3.111    0.000    6.000    0.000    0.000 
#    0.000    2.222    0.000    0.000    0.000    3.111 
#    0.000    0.000    0.000    0.000    0.000    0.000 
#
# Total GULP energy -100276.721585 kJ/mol
# GULP energy per Si atom -5570.928977 kJ/mol
# Density = 2.491007 g / cm^3
# Si number density = 24.966898 Si / 1000 Ang^3
#
#
#
# Elastic Constant Matrix: (Units=GPa)
#
#
# Indices 1 2 3 4 5 6 
#
# 1 44.4710 15.7531 47.0929 0.0000 19.4397 0.0000
# 2 15.7531 47.6502 11.1752 0.0000 -7.4648 0.0000
# 3 47.0929 11.1752 89.7964 0.0000 35.7183 0.0000
# 4 0.0000 0.0000 0.0000 21.6856 0.0000 -4.7387
# 5 19.4397 -7.4648 35.7183 0.0000 50.5149 0.0000
# 6 0.0000 0.0000 0.0000 -4.7387 0.0000 14.9857
#
#
#
# Elastic Compliance Matrix: (Units=1/GPa)
#
#
# Indices 1 2 3 4 5 6 
#
# 1 0.057672 -0.013787 -0.026284 0.000000 -0.005646 0.000000
# 2 -0.013787 0.026907 0.000264 0.000000 0.009095 0.000000
# 3 -0.026284 0.000264 0.029008 0.000000 -0.010357 0.000000
# 4 0.000000 0.000000 0.000000 0.049536 0.000000 0.015664
# 5 -0.005646 0.009095 -0.010357 0.000000 0.030636 0.000000
# 6 0.000000 0.000000 0.000000 0.015664 0.000000 0.071683
#
#
# Mechanical properties :
#
#
# Convention : Reuss Voigt Hill
#
# Bulk Modulus (GPa) = 29.43482 36.66224 33.04853
# Shear Modulus (GPa) = 14.02996 24.63033 19.33015
#
# Velocity S-wave (km/s) = 2.37310 3.14430 2.78552
# Velocity P-wave (km/s) = 4.39590 5.28189 4.85913
#
# Compressibility (1/GPa) = 0.03397337
#
# Stress axis : x y z
#
# Youngs Moduli (GPa) = 17.33942 37.16496 34.47381
#
# Poissons Ratio (x) = 0.51238 0.90611
# Poissons Ratio (y) = 0.23905 -0.00910
# Poissons Ratio (z) = 0.45575 -0.00981
#
# Static dielectric constant tensor:
#      x y z
#    x 2.084330 0.000000 0.004200 
#    y 0.000000 2.057210 0.000000 
#    z 0.004200 0.000000 2.006890 
# 
# From -- ./inp_files/85416.got.cif
#   From: 2010.05.17/outbox.cif.g08.bks.cpg/sg15_43_cif.got.tgz:85416.got - 2010.06.03 18:47:42.
