data_PCOD9306033
_publ_section_title
;
Structure prediction by ZEFSAII (Michael W. Deem and Ramdas Pophale) SiO2 
 PCOD9306033
Probable space group: C 2/C
;
_chemical_formula_sum "Si O2"
_cell_formula_units_Z 44
_cell_length_a 21.237650
_cell_length_b 6.818167
_cell_length_c 14.589263
_cell_angle_alpha 90.000000
_cell_angle_beta 99.766687
_cell_angle_gamma 90.000000
_cell_volume 2081.934328
_symmetry_space_group_name_H-M "C 2/C"
_symmetry_group_IT_number 15
_symmetry_cell_setting 'monoclinic'
loop_
_space_group_symop_operation_xyz
x,y,z
-x,y,1/2-z
-x,-y,-z
x,-y,1/2+z
1/2+x,1/2+y,z
1/2-x,1/2+y,1/2-z
1/2-x,1/2-y,-z
1/2+x,1/2-y,1/2+z
loop_
_atom_site_type_symbol
_atom_site_label
_atom_site_fract_x
_atom_site_fract_y
_atom_site_fract_z
Si Si1 0.615767 0.963976 0.319276
Si Si2 0.228421 0.250264 0.888250
Si Si3 0.181332 0.089123 0.248546
Si Si4 0.000000 0.705907 0.250000
Si Si5 0.472852 0.808041 0.042476
Si Si6 0.444952 0.461169 0.375503
O O1 0.662375 0.130791 0.367917
O O2 0.561040 0.070842 0.246532
O O3 0.656576 0.796697 0.280493
O O4 0.574698 0.867971 0.389594
O O5 0.223656 0.865668 0.668935
O O6 0.216901 0.039141 0.835564
O O7 0.250000 0.250000 0.000000
O O8 0.118036 0.972819 0.201002
O O9 0.997332 0.851328 0.163300
O O10 0.531244 0.677495 0.094398
O O11 0.435591 0.666353 0.963478
O O12 0.500000 0.000000 0.000000
#
# Coordination Sequence:
#
# PCOD9306033 Si02
#       6
#     8   8   8   4   8   8
#     4  12  26  45  73 105 148 190 244 309 376 443
#     4  12  30  49  76 107 146 201 262 308 374 451
#     4  12  27  51  73 105 147 200 252 315 368 450
#     4  12  22  44  72 106 142 190 232 304 378 446
#     4  11  25  43  69 113 146 192 244 305 383 451
#     4  11  25  42  73 104 148 185 247 305 374 451
#
# _framework density 21.134193
#
# number of rings (size 3 to 8) (size 9 to 14) (size 15 to 20)
#    0.000    0.364    5.455    2.182    5.091    2.182 
#    0.000    0.000    0.000    0.000    0.000    0.000 
#    0.000    0.000    0.000    0.000    0.000    0.000 
#
# Total GULP energy -122998.089496 kJ/mol
# GULP energy per Si atom -5590.822250 kJ/mol
# Density = 2.108609 g / cm^3
# Si number density = 21.134193 Si / 1000 Ang^3
#
#
#
# Elastic Constant Matrix: (Units=GPa)
#
#
# Indices 1 2 3 4 5 6 
#
# 1 71.4581 44.0905 39.1876 0.0000 2.3657 0.0000
# 2 44.0905 129.5963 57.2362 0.0000 -1.0600 0.0000
# 3 39.1876 57.2362 124.5235 0.0000 -0.1206 0.0000
# 4 0.0000 0.0000 0.0000 36.6850 0.0000 -7.5865
# 5 2.3657 -1.0600 -0.1206 0.0000 35.0977 0.0000
# 6 0.0000 0.0000 0.0000 -7.5865 0.0000 41.4936
#
#
#
# Elastic Compliance Matrix: (Units=1/GPa)
#
#
# Indices 1 2 3 4 5 6 
#
# 1 0.019106 -0.004838 -0.003790 0.000000 -0.001447 0.000000
# 2 -0.004838 0.010909 -0.003491 0.000000 0.000644 0.000000
# 3 -0.003790 -0.003491 0.010828 0.000000 0.000187 0.000000
# 4 0.000000 0.000000 0.000000 0.028330 0.000000 0.005180
# 5 -0.001447 0.000644 0.000187 0.000000 0.028610 0.000000
# 6 0.000000 0.000000 0.000000 0.005180 0.000000 0.025047
#
#
# Mechanical properties :
#
#
# Convention : Reuss Voigt Hill
#
# Bulk Modulus (GPa) = 60.22459 67.40071 63.81265
# Shear Modulus (GPa) = 32.76450 34.99284 33.87867
#
# Velocity S-wave (km/s) = 3.94167 4.07350 4.00812
# Velocity P-wave (km/s) = 7.01953 7.35429 7.18886
#
# Compressibility (1/GPa) = 0.01660451
#
# Stress axis : x y z
#
# Youngs Moduli (GPa) = 52.34027 91.66429 92.35023
#
# Poissons Ratio (x) = 0.44346 0.35003
# Poissons Ratio (y) = 0.25322 0.32242
# Poissons Ratio (z) = 0.19839 0.32003
#
# Static dielectric constant tensor:
#      x y z
#    x 1.776200 0.000000 0.024550 
#    y 0.000000 1.778470 0.000000 
#    z 0.024550 0.000000 1.808170 
# 
# From -- ./inp_files/175500.got.cif
#   From: 2010.05.17/outbox.cif.g08.bks.cpg/sg15_88_cif.got.tgz:175500.got - 2010.06.03 18:47:42.
