data_PCOD9306128
_publ_section_title
;
Structure prediction by ZEFSAII (Michael W. Deem and Ramdas Pophale) SiO2 
 PCOD9306128
Probable space group: C 2/C
;
_chemical_formula_sum "Si O2"
_cell_formula_units_Z 60
_cell_length_a 21.094075
_cell_length_b 8.416622
_cell_length_c 24.127462
_cell_angle_alpha 90.000000
_cell_angle_beta 137.689082
_cell_angle_gamma 90.000000
_cell_volume 2883.526983
_symmetry_space_group_name_H-M "C 2/C"
_symmetry_group_IT_number 15
_symmetry_cell_setting 'monoclinic'
loop_
_space_group_symop_operation_xyz
x,y,z
-x,y,1/2-z
-x,-y,-z
x,-y,1/2+z
1/2+x,1/2+y,z
1/2-x,1/2+y,1/2-z
1/2-x,1/2-y,-z
1/2+x,1/2-y,1/2+z
loop_
_atom_site_type_symbol
_atom_site_label
_atom_site_fract_x
_atom_site_fract_y
_atom_site_fract_z
Si Si1 0.500000 0.963965 0.750000
Si Si2 0.496725 0.262726 0.144153
Si Si3 0.311123 0.443311 0.219278
Si Si4 0.222794 0.410366 0.555324
Si Si5 0.505295 0.022684 0.937375
Si Si6 0.298340 0.920530 0.149499
Si Si7 0.296543 0.596682 0.502279
Si Si8 0.174793 0.708376 0.716484
O O1 0.525045 0.852463 0.818166
O O2 0.591422 0.065874 0.793987
O O3 0.586779 0.365840 0.217728
O O4 0.518270 0.144952 0.107121
O O5 0.407418 0.372076 0.073133
O O6 0.268530 0.475123 0.131284
O O7 0.243080 0.328276 0.209754
O O8 0.318692 0.613014 0.255987
O O9 0.110468 0.431776 0.486029
O O10 0.252798 0.236419 0.594040
O O11 0.264695 0.456119 0.522953
O O12 0.429577 0.152677 0.868448
O O13 0.500000 0.000000 0.000000
O O14 0.292503 0.904492 0.211490
O O15 0.245114 0.064585 0.085341
O O16 0.250000 0.750000 0.500000
#
# Coordination Sequence:
#
# PCOD9306128 Si02
#       8
#     4   8   8   8   8   8   8   8
#     4  12  22  44  72 100 138 188 224 286 336 412
#     4  12  26  42  72 103 138 181 232 275 347 405
#     4  11  26  45  71 103 133 187 226 286 338 409
#     4  11  25  45  69 101 140 178 230 284 346 405
#     4  12  24  45  70  97 137 183 224 285 342 403
#     4  11  26  42  71  99 139 181 228 281 347 402
#     4  12  24  44  66 103 138 180 227 283 337 408
#     4  11  25  46  70  99 142 178 233 281 344 407
#
# _framework density 20.807850999999999
#
# number of rings (size 3 to 8) (size 9 to 14) (size 15 to 20)
#    0.000    0.533    5.333    2.000    3.733    3.200 
#    0.000    1.333    0.000    0.000    0.000    0.000 
#    0.000    0.000    0.000    0.000    0.000    0.000 
#
# Total GULP energy -167930.404349 kJ/mol
# GULP energy per Si atom -5597.680145 kJ/mol
# Density = 2.076049 g / cm^3
# Si number density = 20.807851 Si / 1000 Ang^3
#
#
#
# Elastic Constant Matrix: (Units=GPa)
#
#
# Indices 1 2 3 4 5 6 
#
# 1 46.3501 -5.4478 0.5018 0.0000 -2.2150 0.0000
# 2 -5.4478 40.8401 1.7754 0.0000 -0.2678 0.0000
# 3 0.5018 1.7754 76.5936 0.0000 7.1251 0.0000
# 4 0.0000 0.0000 0.0000 35.1404 0.0000 -2.7656
# 5 -2.2150 -0.2678 7.1251 0.0000 59.9316 0.0000
# 6 0.0000 0.0000 0.0000 -2.7656 0.0000 23.8489
#
#
#
# Elastic Compliance Matrix: (Units=1/GPa)
#
#
# Indices 1 2 3 4 5 6 
#
# 1 0.021966 0.002948 -0.000292 0.000000 0.000860 0.000000
# 2 0.002948 0.024908 -0.000624 0.000000 0.000294 0.000000
# 3 -0.000292 -0.000624 0.013220 0.000000 -0.001585 0.000000
# 4 0.000000 0.000000 0.000000 0.028719 0.000000 0.003330
# 5 0.000860 0.000294 -0.001585 0.000000 0.016907 0.000000
# 6 0.000000 0.000000 0.000000 0.003330 0.000000 0.042317
#
#
# Mechanical properties :
#
#
# Convention : Reuss Voigt Hill
#
# Bulk Modulus (GPa) = 15.58657 17.49363 16.54010
# Shear Modulus (GPa) = 30.23727 34.91446 32.57587
#
# Velocity S-wave (km/s) = 3.81618 4.10072 3.96100
# Velocity P-wave (km/s) = 5.18889 5.55398 5.37454
#
# Compressibility (1/GPa) = 0.06415779
#
# Stress axis : x y z
#
# Youngs Moduli (GPa) = 45.52554 40.14758 75.64426
#
# Poissons Ratio (x) = -0.11837 0.02210
# Poissons Ratio (y) = -0.13423 0.04721
# Poissons Ratio (z) = 0.01330 0.02505
#
# Static dielectric constant tensor:
#      x y z
#    x 1.821280 0.000000 -0.011020 
#    y 0.000000 1.790540 0.000000 
#    z -0.011020 0.000000 1.729240 
# 
# From -- ./inp_files/279673.got.cif
#   From: 2010.05.17/outbox.cif.g08.bks.cpg/sg15_140_cif.got.tgz:279673.got - 2010.06.03 18:47:42.
