data_PCOD9306899
_publ_section_title
;
Structure prediction by ZEFSAII (Michael W. Deem and Ramdas Pophale) SiO2 
 PCOD9306899
Probable space group: C 2/C
;
_chemical_formula_sum "Si O2"
_cell_formula_units_Z 36
_cell_length_a 5.459675
_cell_length_b 24.149312
_cell_length_c 11.262677
_cell_angle_alpha 90.000000
_cell_angle_beta 82.875105
_cell_angle_gamma 90.000000
_cell_volume 1473.488011
_symmetry_space_group_name_H-M "C 2/C"
_symmetry_group_IT_number 15
_symmetry_cell_setting 'monoclinic'
loop_
_space_group_symop_operation_xyz
x,y,z
-x,y,1/2-z
-x,-y,-z
x,-y,1/2+z
1/2+x,1/2+y,z
1/2-x,1/2+y,1/2-z
1/2-x,1/2-y,-z
1/2+x,1/2-y,1/2+z
loop_
_atom_site_type_symbol
_atom_site_label
_atom_site_fract_x
_atom_site_fract_y
_atom_site_fract_z
Si Si1 0.000000 0.239661 0.250000
Si Si2 0.966946 0.589122 0.977658
Si Si3 0.767688 0.502304 0.171420
Si Si4 0.761885 0.189280 0.058062
Si Si5 0.169271 0.836619 0.356665
O O1 0.809536 0.201762 0.191437
O O2 0.841118 0.282349 0.338495
O O3 0.805362 0.553391 0.077970
O O4 0.056088 0.645342 0.036064
O O5 0.828104 0.609006 0.867360
O O6 0.189977 0.551232 0.915637
O O7 0.500000 0.502747 0.250000
O O8 0.000000 0.505860 0.250000
O O9 0.750000 0.250000 0.000000
O O10 0.006058 0.165504 0.983275
O O11 0.000000 0.837193 0.250000
#
# Coordination Sequence:
#
# PCOD9306899 Si02
#       5
#     4   8   8   8   8
#     4  12  26  46  70 118 162 214 264 330 398 506
#     4  11  29  50  79 120 160 211 281 342 414 501
#     4  11  30  55  86 119 160 216 282 356 424 486
#     4  12  26  46  75 115 160 210 266 324 410 494
#     4  12  25  45  78 111 158 219 268 326 406 496
#
# _framework density 24.431823000000001
#
# number of rings (size 3 to 8) (size 9 to 14) (size 15 to 20)
#    0.000    0.444    4.444    0.667   10.889    3.556 
#    0.000    0.000    2.444    0.000    0.000    0.000 
#    0.000    0.000    0.000    0.000    0.000    0.000 
#
# Total GULP energy -100812.671848 kJ/mol
# GULP energy per Si atom -5600.703992 kJ/mol
# Density = 2.437622 g / cm^3
# Si number density = 24.431823 Si / 1000 Ang^3
#
#
#
# Elastic Constant Matrix: (Units=GPa)
#
#
# Indices 1 2 3 4 5 6 
#
# 1 133.8911 63.9006 51.1865 0.0000 -6.1178 0.0000
# 2 63.9006 159.4907 55.0636 0.0000 8.4270 0.0000
# 3 51.1865 55.0636 91.0310 0.0000 -4.5268 0.0000
# 4 0.0000 0.0000 0.0000 12.3842 0.0000 20.2443
# 5 -6.1178 8.4270 -4.5268 0.0000 57.0088 0.0000
# 6 0.0000 0.0000 0.0000 20.2443 0.0000 -5.0709
#
#
#
# Elastic Compliance Matrix: (Units=1/GPa)
#
#
# Indices 1 2 3 4 5 6 
#
# 1 0.010443 -0.002833 -0.004098 0.000000 0.001214 0.000000
# 2 -0.002833 0.008834 -0.003846 0.000000 -0.001915 0.000000
# 3 -0.004098 -0.003846 0.015684 0.000000 0.001374 0.000000
# 4 0.000000 0.000000 0.000000 0.010729 0.000000 0.042833
# 5 0.001214 -0.001915 0.001374 0.000000 0.018064 0.000000
# 6 0.000000 0.000000 0.000000 0.042833 0.000000 -0.026203
#
#
# Mechanical properties :
#
#
# Convention : Reuss Voigt Hill
#
# Bulk Modulus (GPa) = 74.58607 80.52378 77.55493
# Shear Modulus (GPa) = 78.64813 27.14855 52.89834
#
# Velocity S-wave (km/s) = 5.67985 3.33708 4.65816
# Velocity P-wave (km/s) = 8.57956 6.91941 7.79381
#
# Compressibility (1/GPa) = 0.01340733
#
# Stress axis : x y z
#
# Youngs Moduli (GPa) = 95.75672 113.19789 63.75942
#
# Poissons Ratio (x) = 0.32074 0.26128
# Poissons Ratio (y) = 0.27132 0.24519
# Poissons Ratio (z) = 0.39239 0.43532
#
# Static dielectric constant tensor:
#      x y z
#    x 1.553110 0.000000 0.085010 
#    y 0.000000 1.979680 0.000000 
#    z 0.085010 0.000000 1.917890 
# 
# From -- ./inp_files/72444.got.cif
#   From: 2010.05.17/outbox.cif.g08.bks.cpg/sg15_37_cif.got.tgz:72444.got - 2010.06.03 18:47:42.
