data_PCOD9306397
_publ_section_title
;
Structure prediction by ZEFSAII (Michael W. Deem and Ramdas Pophale) SiO2 
 PCOD9306397
Probable space group: C 2/C
;
_chemical_formula_sum "Si O2"
_cell_formula_units_Z 44
_cell_length_a 6.799365
_cell_length_b 26.587274
_cell_length_c 14.719672
_cell_angle_alpha 90.000000
_cell_angle_beta 124.999081
_cell_angle_gamma 90.000000
_cell_volume 2179.765107
_symmetry_space_group_name_H-M "C 2/C"
_symmetry_group_IT_number 15
_symmetry_cell_setting 'monoclinic'
loop_
_space_group_symop_operation_xyz
x,y,z
-x,y,1/2-z
-x,-y,-z
x,-y,1/2+z
1/2+x,1/2+y,z
1/2-x,1/2+y,1/2-z
1/2-x,1/2-y,-z
1/2+x,1/2-y,1/2+z
loop_
_atom_site_type_symbol
_atom_site_label
_atom_site_fract_x
_atom_site_fract_y
_atom_site_fract_z
Si Si1 0.500000 0.029842 0.750000
Si Si2 0.951643 0.912065 0.454382
Si Si3 0.685521 0.618324 0.376471
Si Si4 0.448582 0.036133 0.070106
Si Si5 0.883840 0.274114 0.949819
Si Si6 0.925864 0.188331 0.626033
O O1 0.282646 0.063729 0.654830
O O2 0.434066 0.992352 0.813998
O O3 0.896380 0.896043 0.543502
O O4 0.168912 0.952099 0.511163
O O5 0.028684 0.862700 0.418169
O O6 0.500000 0.602375 0.250000
O O7 0.733266 0.677411 0.381096
O O8 0.927908 0.588794 0.418526
O O9 0.500000 0.000000 0.000000
O O10 0.921205 0.232632 0.881624
O O11 0.750000 0.250000 0.000000
O O12 0.148708 0.294290 0.046814
O O13 0.000000 0.181505 0.750000
#
# Coordination Sequence:
#
# PCOD9306397 Si02
#       6
#     4   8   8   8   8   8
#     4  12  28  46  78 102 148 190 236 310 354 434
#     4  12  27  49  71 113 141 187 248 293 366 429
#     4  12  27  47  76 103 143 192 239 301 357 431
#     4  12  27  48  70 103 146 186 243 293 362 423
#     4  11  25  48  70 106 144 189 242 288 360 437
#     4  11  27  44  75 106 149 186 236 300 360 434
#
# _framework density 20.185659999999999
#
# number of rings (size 3 to 8) (size 9 to 14) (size 15 to 20)
#    0.000    0.364    5.455    1.636   10.182    0.000 
#    1.636    0.000    0.000    0.000    0.000    0.000 
#    0.000    0.000    0.000    0.000    0.000    0.000 
#
# Total GULP energy -123077.624074 kJ/mol
# GULP energy per Si atom -5594.437458 kJ/mol
# Density = 2.013972 g / cm^3
# Si number density = 20.185660 Si / 1000 Ang^3
#
#
#
# Elastic Constant Matrix: (Units=GPa)
#
#
# Indices 1 2 3 4 5 6 
#
# 1 128.7020 54.1995 65.1978 0.0000 -11.1326 0.0000
# 2 54.1995 120.2852 43.9201 0.0000 -6.7355 0.0000
# 3 65.1978 43.9201 138.0752 0.0000 -25.6711 0.0000
# 4 0.0000 0.0000 0.0000 31.5633 0.0000 -8.1720
# 5 -11.1326 -6.7355 -25.6711 0.0000 40.4820 0.0000
# 6 0.0000 0.0000 0.0000 -8.1720 0.0000 40.9068
#
#
#
# Elastic Compliance Matrix: (Units=1/GPa)
#
#
# Indices 1 2 3 4 5 6 
#
# 1 0.011445 -0.003600 -0.004291 0.000000 -0.000173 0.000000
# 2 -0.003600 0.010543 -0.001714 0.000000 -0.000323 0.000000
# 3 -0.004291 -0.001714 0.010817 0.000000 0.005394 0.000000
# 4 0.000000 0.000000 0.000000 0.033410 0.000000 0.006674
# 5 -0.000173 -0.000323 0.005394 0.000000 0.028022 0.000000
# 6 0.000000 0.000000 0.000000 0.006674 0.000000 0.025779
#
#
# Mechanical properties :
#
#
# Convention : Reuss Voigt Hill
#
# Bulk Modulus (GPa) = 73.55584 79.29966 76.42775
# Shear Modulus (GPa) = 34.78085 37.50678 36.14382
#
# Velocity S-wave (km/s) = 4.15546 4.31523 4.23610
# Velocity P-wave (km/s) = 7.71639 8.01241 7.86579
#
# Compressibility (1/GPa) = 0.01359511
#
# Stress axis : x y z
#
# Youngs Moduli (GPa) = 87.37685 94.84677 92.44942
#
# Poissons Ratio (x) = 0.34142 0.39672
# Poissons Ratio (y) = 0.31453 0.15845
# Poissons Ratio (z) = 0.37495 0.16256
#
# Static dielectric constant tensor:
#      x y z
#    x 1.683570 0.000000 0.023540 
#    y 0.000000 1.720630 0.000000 
#    z 0.023540 0.000000 1.648530 
# 
# From -- ./inp_files/74009.got.cif
#   From: 2010.05.17/outbox.cif.g08.bks.cpg/sg15_38_cif.got.tgz:74009.got - 2010.06.03 18:47:42.
