data_PCOD9306813
_publ_section_title
;
Structure prediction by ZEFSAII (Michael W. Deem and Ramdas Pophale) SiO2 
 PCOD9306813
Probable space group: C 2/C
;
_chemical_formula_sum "Si O2"
_cell_formula_units_Z 20
_cell_length_a 15.748609
_cell_length_b 11.965007
_cell_length_c 5.075090
_cell_angle_alpha 90.000000
_cell_angle_beta 115.120879
_cell_angle_gamma 90.000000
_cell_volume 865.857029
_symmetry_space_group_name_H-M "C 2/C"
_symmetry_group_IT_number 15
_symmetry_cell_setting 'monoclinic'
loop_
_space_group_symop_operation_xyz
x,y,z
-x,y,1/2-z
-x,-y,-z
x,-y,1/2+z
1/2+x,1/2+y,z
1/2-x,1/2+y,1/2-z
1/2-x,1/2-y,-z
1/2+x,1/2-y,1/2+z
loop_
_atom_site_type_symbol
_atom_site_label
_atom_site_fract_x
_atom_site_fract_y
_atom_site_fract_z
Si Si1 0.899887 0.734550 0.262025
Si Si2 0.500000 0.917694 0.250000
Si Si3 0.256177 0.423765 0.181936
O O1 0.848720 0.850120 0.254842
O O2 0.000000 0.747459 0.250000
O O3 0.918094 0.667000 0.556427
O O4 0.830577 0.657841 0.997652
O O5 0.500000 0.000000 0.500000
O O6 0.253235 0.476486 0.466030
#
# Coordination Sequence:
#
# PCOD9306813 Si02
#       3
#     8   4   8
#     4  11  27  46  75 105 140 184 243 283 346 423
#     4  12  24  40  70 106 132 174 234 288 338 400
#     4  11  28  47  70 105 146 185 229 292 353 412
#
# _framework density 23.098500999999999
#
# number of rings (size 3 to 8) (size 9 to 14) (size 15 to 20)
#    0.000    0.800    2.000    2.400   11.200    4.800 
#    0.000    0.000    0.000    0.000    0.000    0.000 
#    0.000    0.000    0.000    0.000    0.000    0.000 
#
# Total GULP energy -56015.565116 kJ/mol
# GULP energy per Si atom -5601.556512 kJ/mol
# Density = 2.304593 g / cm^3
# Si number density = 23.098501 Si / 1000 Ang^3
#
#
#
# Elastic Constant Matrix: (Units=GPa)
#
#
# Indices 1 2 3 4 5 6 
#
# 1 153.7104 42.7995 35.9843 0.0000 16.8141 0.0000
# 2 42.7995 75.1502 18.7786 0.0000 13.8945 0.0000
# 3 35.9843 18.7786 109.7158 0.0000 -12.0403 0.0000
# 4 0.0000 0.0000 0.0000 29.8095 0.0000 22.8440
# 5 16.8141 13.8945 -12.0403 0.0000 42.8080 0.0000
# 6 0.0000 0.0000 0.0000 22.8440 0.0000 25.8630
#
#
#
# Elastic Compliance Matrix: (Units=1/GPa)
#
#
# Indices 1 2 3 4 5 6 
#
# 1 0.008401 -0.003658 -0.002436 0.000000 -0.002797 0.000000
# 2 -0.003658 0.016791 -0.002182 0.000000 -0.004627 0.000000
# 3 -0.002436 -0.002182 0.010803 0.000000 0.004703 0.000000
# 4 0.000000 0.000000 0.000000 0.103819 0.000000 -0.091700
# 5 -0.002797 -0.004627 0.004703 0.000000 0.027283 0.000000
# 6 0.000000 0.000000 0.000000 -0.091700 0.000000 0.119661
#
#
# Mechanical properties :
#
#
# Convention : Reuss Voigt Hill
#
# Bulk Modulus (GPa) = 51.43470 59.30012 55.36741
# Shear Modulus (GPa) = 16.13994 35.76371 25.95183
#
# Velocity S-wave (km/s) = 2.64624 3.93913 3.35554
# Velocity P-wave (km/s) = 5.62607 6.81303 6.24781
#
# Compressibility (1/GPa) = 0.01944213
#
# Stress axis : x y z
#
# Youngs Moduli (GPa) = 119.03787 59.55633 92.56682
#
# Poissons Ratio (x) = 0.21788 0.22550
# Poissons Ratio (y) = 0.43549 0.20195
# Poissons Ratio (z) = 0.28998 0.12994
#
# Static dielectric constant tensor:
#      x y z
#    x 1.957070 0.000000 -0.004780 
#    y 0.000000 1.841270 0.000000 
#    z -0.004780 0.000000 1.842740 
# 
# From -- ./inp_files/3061.got.cif
#   From: 2010.05.17/outbox.cif.g08.bks.cpg/sg15_2_cif.got.tgz:3061.got - 2010.06.03 18:47:42.
