data_PCOD9306052
_publ_section_title
;
Structure prediction by ZEFSAII (Michael W. Deem and Ramdas Pophale) SiO2 
 PCOD9306052
Probable space group: C 2/C
;
_chemical_formula_sum "Si O2"
_cell_formula_units_Z 28
_cell_length_a 8.316003
_cell_length_b 4.989645
_cell_length_c 25.772495
_cell_angle_alpha 90.000000
_cell_angle_beta 116.812009
_cell_angle_gamma 90.000000
_cell_volume 954.431444
_symmetry_space_group_name_H-M "C 2/C"
_symmetry_group_IT_number 15
_symmetry_cell_setting 'monoclinic'
loop_
_space_group_symop_operation_xyz
x,y,z
-x,y,1/2-z
-x,-y,-z
x,-y,1/2+z
1/2+x,1/2+y,z
1/2-x,1/2+y,1/2-z
1/2-x,1/2-y,-z
1/2+x,1/2-y,1/2+z
loop_
_atom_site_type_symbol
_atom_site_label
_atom_site_fract_x
_atom_site_fract_y
_atom_site_fract_z
Si Si1 0.657774 0.969793 0.867353
Si Si2 0.250000 0.250000 0.000000
Si Si3 0.990685 0.716937 0.558193
Si Si4 0.671451 0.650293 0.710462
O O1 0.529822 0.763564 0.819146
O O2 0.800623 0.800926 0.924208
O O3 0.539627 0.171346 0.884193
O O4 0.770487 0.124230 0.840904
O O5 0.362482 0.541476 0.024419
O O6 0.440957 0.081309 0.034233
O O7 0.703941 0.372122 0.743952
#
# Coordination Sequence:
#
# PCOD9306052 Si02
#       4
#     8   4   8   8
#     4  11  25  43  71 104 142 190 247 303 371 441
#     4   8  16  38  70 104 146 190 242 300 372 440
#     4   9  19  38  71 104 144 190 243 304 367 443
#     4  12  29  50  75 109 152 199 251 312 377 448
#
# _framework density 29.336836999999999
#
# number of rings (size 3 to 8) (size 9 to 14) (size 15 to 20)
#    0.000    1.714    0.000    2.571    0.000   16.000 
#    0.000    0.000    0.000  120.000    0.000    0.000 
#    0.000    0.000    0.000    0.000    0.000    0.000 
#
# Total GULP energy -78472.947517 kJ/mol
# GULP energy per Si atom -5605.210537 kJ/mol
# Density = 2.927007 g / cm^3
# Si number density = 29.336837 Si / 1000 Ang^3
#
#
#
# Elastic Constant Matrix: (Units=GPa)
#
#
# Indices 1 2 3 4 5 6 
#
# 1 133.5228 52.2081 1.0125 0.0000 -0.4100 0.0000
# 2 52.2081 241.0891 70.5403 0.0000 6.5742 0.0000
# 3 1.0125 70.5403 135.2941 0.0000 25.3191 0.0000
# 4 0.0000 0.0000 0.0000 66.2384 0.0000 -2.6979
# 5 -0.4100 6.5742 25.3191 0.0000 48.8816 0.0000
# 6 0.0000 0.0000 0.0000 -2.6979 0.0000 46.1026
#
#
#
# Elastic Compliance Matrix: (Units=1/GPa)
#
#
# Indices 1 2 3 4 5 6 
#
# 1 0.008305 -0.002107 0.001075 0.000000 -0.000204 0.000000
# 2 -0.002107 0.005453 -0.002975 0.000000 0.000790 0.000000
# 3 0.001075 -0.002975 0.009809 0.000000 -0.004671 0.000000
# 4 0.000000 0.000000 0.000000 0.015133 0.000000 0.000886
# 5 -0.000204 0.000790 -0.004671 0.000000 0.022769 0.000000
# 6 0.000000 0.000000 0.000000 0.000886 0.000000 0.021743
#
#
# Mechanical properties :
#
#
# Convention : Reuss Voigt Hill
#
# Bulk Modulus (GPa) = 64.30590 84.15865 74.23227
# Shear Modulus (GPa) = 51.86148 57.98752 54.92450
#
# Velocity S-wave (km/s) = 4.20908 4.45073 4.33159
# Velocity P-wave (km/s) = 6.75198 7.42707 7.09755
#
# Compressibility (1/GPa) = 0.01555067
#
# Stress axis : x y z
#
# Youngs Moduli (GPa) = 120.41632 183.37996 101.94992
#
# Poissons Ratio (x) = 0.38642 -0.10956
# Poissons Ratio (y) = 0.25374 0.30333
# Poissons Ratio (z) = -0.12940 0.54560
#
# Static dielectric constant tensor:
#      x y z
#    x 2.255200 0.000000 -0.053630 
#    y 0.000000 2.006850 0.000000 
#    z -0.053630 0.000000 2.198140 
# 
# From -- ./inp_files/306201.got.cif
#   From: 2010.05.17/outbox.cif.g08.bks.cpg/sg15_154_cif.got.tgz:306201.got - 2010.06.03 18:47:42.
