data_PCOD9306797
_publ_section_title
;
Structure prediction by ZEFSAII (Michael W. Deem and Ramdas Pophale) SiO2 
 PCOD9306797
Probable space group: C 2/C
;
_chemical_formula_sum "Si O2"
_cell_formula_units_Z 40
_cell_length_a 9.850232
_cell_length_b 10.053280
_cell_length_c 14.736890
_cell_angle_alpha 90.000000
_cell_angle_beta 94.272581
_cell_angle_gamma 90.000000
_cell_volume 1455.296390
_symmetry_space_group_name_H-M "C 2/C"
_symmetry_group_IT_number 15
_symmetry_cell_setting 'monoclinic'
loop_
_space_group_symop_operation_xyz
x,y,z
-x,y,1/2-z
-x,-y,-z
x,-y,1/2+z
1/2+x,1/2+y,z
1/2-x,1/2+y,1/2-z
1/2-x,1/2-y,-z
1/2+x,1/2-y,1/2+z
loop_
_atom_site_type_symbol
_atom_site_label
_atom_site_fract_x
_atom_site_fract_y
_atom_site_fract_z
Si Si1 0.838519 0.188688 0.730095
Si Si2 0.402121 0.478832 0.388570
Si Si3 0.280563 0.925292 0.460442
Si Si4 0.072108 0.307912 0.516797
Si Si5 0.889154 0.806777 0.673052
O O1 0.746038 0.298062 0.773762
O O2 0.000000 0.220495 0.750000
O O3 0.823144 0.058413 0.793287
O O4 0.779519 0.153790 0.628350
O O5 0.321990 0.560919 0.460082
O O6 0.535421 0.560681 0.362769
O O7 0.418390 0.858563 0.503517
O O8 0.926746 0.833981 0.433980
O O9 0.331463 0.075578 0.439261
O O10 0.121139 0.285734 0.415911
O O11 0.000000 0.751047 0.750000
#
# Coordination Sequence:
#
# PCOD9306797 Si02
#       5
#     8   8   8   8   8
#     4  12  30  52  86 135 178 232 296 366 444 526
#     4  12  29  50  92 127 177 231 288 365 440 524
#     4  11  27  54  93 134 176 233 292 366 440 525
#     4  11  26  54  91 131 177 226 297 363 438 523
#     4  12  27  54  90 125 177 233 294 362 439 526
#
# _framework density 27.485811000000002
#
# number of rings (size 3 to 8) (size 9 to 14) (size 15 to 20)
#    0.000    0.400    4.000    1.800    8.400    2.400 
#    0.000    2.000    0.000    1.200    0.000    0.000 
#    0.000    0.000    0.000    0.000    0.000    0.000 
#
# Total GULP energy -112234.942657 kJ/mol
# GULP energy per Si atom -5611.747133 kJ/mol
# Density = 2.742325 g / cm^3
# Si number density = 27.485811 Si / 1000 Ang^3
#
#
#
# Elastic Constant Matrix: (Units=GPa)
#
#
# Indices 1 2 3 4 5 6 
#
# 1 211.9584 96.6288 102.8805 0.0000 -28.8640 0.0000
# 2 96.6288 169.2463 77.7747 0.0000 -17.6647 0.0000
# 3 102.8805 77.7747 213.4531 0.0000 -25.5905 0.0000
# 4 0.0000 0.0000 0.0000 34.9161 0.0000 -7.1474
# 5 -28.8640 -17.6647 -25.5905 0.0000 52.3171 0.0000
# 6 0.0000 0.0000 0.0000 -7.1474 0.0000 55.2016
#
#
#
# Elastic Compliance Matrix: (Units=1/GPa)
#
#
# Indices 1 2 3 4 5 6 
#
# 1 0.007459 -0.003013 -0.002258 0.000000 0.001993 0.000000
# 2 -0.003013 0.008386 -0.001554 0.000000 0.000409 0.000000
# 3 -0.002258 -0.001554 0.006509 0.000000 0.001413 0.000000
# 4 0.000000 0.000000 0.000000 0.029420 0.000000 0.003809
# 5 0.001993 0.000409 0.001413 0.000000 0.021043 0.000000
# 6 0.000000 0.000000 0.000000 0.003809 0.000000 0.018609
#
#
# Mechanical properties :
#
#
# Convention : Reuss Voigt Hill
#
# Bulk Modulus (GPa) = 114.90519 127.69173 121.29846
# Shear Modulus (GPa) = 46.30608 49.64522 47.97565
#
# Velocity S-wave (km/s) = 4.10900 4.25457 4.18241
# Velocity P-wave (km/s) = 8.02545 8.40793 8.21891
#
# Compressibility (1/GPa) = 0.00870283
#
# Stress axis : x y z
#
# Youngs Moduli (GPa) = 134.06626 119.25249 153.63080
#
# Poissons Ratio (x) = 0.35928 0.34696
# Poissons Ratio (y) = 0.40391 0.23879
# Poissons Ratio (z) = 0.30277 0.18535
#
# Static dielectric constant tensor:
#      x y z
#    x 2.209090 0.000000 0.035730 
#    y 0.000000 2.166910 0.000000 
#    z 0.035730 0.000000 2.141880 
# 
# From -- ./inp_files/262768.got.cif
#   From: 2010.05.17/outbox.cif.g08.bks.cpg/sg15_132_cif.got.tgz:262768.got - 2010.06.03 18:47:42.
