data_PCOD9306560
_publ_section_title
;
Structure prediction by ZEFSAII (Michael W. Deem and Ramdas Pophale) SiO2 
 PCOD9306560
Probable space group: C 2/C
;
_chemical_formula_sum "Si O2"
_cell_formula_units_Z 48
_cell_length_a 16.688750
_cell_length_b 15.140277
_cell_length_c 9.066040
_cell_angle_alpha 90.000000
_cell_angle_beta 105.631155
_cell_angle_gamma 90.000000
_cell_volume 2206.016987
_symmetry_space_group_name_H-M "C 2/C"
_symmetry_group_IT_number 15
_symmetry_cell_setting 'monoclinic'
loop_
_space_group_symop_operation_xyz
x,y,z
-x,y,1/2-z
-x,-y,-z
x,-y,1/2+z
1/2+x,1/2+y,z
1/2-x,1/2+y,1/2-z
1/2-x,1/2-y,-z
1/2+x,1/2-y,1/2+z
loop_
_atom_site_type_symbol
_atom_site_label
_atom_site_fract_x
_atom_site_fract_y
_atom_site_fract_z
Si Si1 0.916461 0.823036 0.609514
Si Si2 0.346136 0.213131 0.043195
Si Si3 0.201317 0.014903 0.383121
Si Si4 0.186666 0.536342 0.311013
Si Si5 0.597398 0.849025 0.256608
Si Si6 0.418103 0.367826 0.272090
O O1 0.859409 0.903553 0.631141
O O2 0.872912 0.729191 0.620370
O O3 0.932392 0.834877 0.444437
O O4 0.000000 0.825119 0.750000
O O5 0.353918 0.123301 0.141805
O O6 0.399232 0.288059 0.150937
O O7 0.250000 0.250000 0.000000
O O8 0.379016 0.188201 0.895514
O O9 0.284335 0.046128 0.341877
O O10 0.229325 0.975275 0.552109
O O11 0.158181 0.935181 0.274371
O O12 0.137262 0.444889 0.295341
O O13 0.500000 0.859005 0.250000
O O14 0.500000 0.415463 0.250000
#
# Coordination Sequence:
#
# PCOD9306560 Si02
#       6
#     8   8   8   8   8   8
#     4  11  26  44  70 100 142 181 229 296 351 420
#     4  12  25  48  73 102 147 183 235 293 346 420
#     4  12  25  44  69 104 139 180 237 288 353 422
#     4  12  25  45  71 101 138 185 234 290 347 417
#     4  11  26  47  69 101 142 186 236 292 353 415
#     4  12  26  43  71 104 137 187 233 286 363 419
#
# _framework density 21.758673000000002
#
# number of rings (size 3 to 8) (size 9 to 14) (size 15 to 20)
#    0.000    0.333    5.000    3.500    4.667    3.333 
#    0.000    0.000    0.000    0.000    0.000    0.000 
#    0.000    0.000    0.000    0.000    0.000    0.000 
#
# Total GULP energy -134165.032989 kJ/mol
# GULP energy per Si atom -5590.209708 kJ/mol
# Density = 2.170915 g / cm^3
# Si number density = 21.758673 Si / 1000 Ang^3
#
#
#
# Elastic Constant Matrix: (Units=GPa)
#
#
# Indices 1 2 3 4 5 6 
#
# 1 67.7396 24.7788 32.6344 0.0000 -15.5612 0.0000
# 2 24.7788 95.1776 22.8379 0.0000 -18.6022 0.0000
# 3 32.6344 22.8379 113.8972 0.0000 -26.3618 0.0000
# 4 0.0000 0.0000 0.0000 31.7328 0.0000 -1.9587
# 5 -15.5612 -18.6022 -26.3618 0.0000 38.7238 0.0000
# 6 0.0000 0.0000 0.0000 -1.9587 0.0000 -12.9650
#
#
#
# Elastic Compliance Matrix: (Units=1/GPa)
#
#
# Indices 1 2 3 4 5 6 
#
# 1 0.018590 -0.003267 -0.003924 0.000000 0.003230 0.000000
# 2 -0.003267 0.012316 -0.000556 0.000000 0.004226 0.000000
# 3 -0.003924 -0.000556 0.011382 0.000000 0.005905 0.000000
# 4 0.000000 0.000000 0.000000 0.031222 0.000000 -0.004717
# 5 0.003230 0.004226 0.005905 0.000000 0.033171 0.000000
# 6 0.000000 0.000000 0.000000 -0.004717 0.000000 -0.076418
#
#
# Mechanical properties :
#
#
# Convention : Reuss Voigt Hill
#
# Bulk Modulus (GPa) = 37.31934 48.59072 42.95503
# Shear Modulus (GPa) = 91.42723 24.60254 58.01489
#
# Velocity S-wave (km/s) = 6.48922 3.36624 5.16921
# Velocity P-wave (km/s) = 8.56361 6.12282 7.44393
#
# Compressibility (1/GPa) = 0.02679576
#
# Stress axis : x y z
#
# Youngs Moduli (GPa) = 53.79310 81.19285 87.85630
#
# Poissons Ratio (x) = 0.26525 0.34473
# Poissons Ratio (y) = 0.17574 0.04881
# Poissons Ratio (z) = 0.21107 0.04511
#
# Static dielectric constant tensor:
#      x y z
#    x 1.837490 0.000000 0.002970 
#    y 0.000000 1.771510 0.000000 
#    z 0.002970 0.000000 1.792460 
# 
# From -- ./inp_files/47447.got.cif
#   From: 2010.05.17/outbox.cif.g08.bks.cpg/sg15_24_cif.got.tgz:47447.got - 2010.06.03 18:47:42.
