data_PCOD9306253
_publ_section_title
;
Structure prediction by ZEFSAII (Michael W. Deem and Ramdas Pophale) SiO2 
 PCOD9306253
Probable space group: C 2/C
;
_chemical_formula_sum "Si O2"
_cell_formula_units_Z 40
_cell_length_a 14.424956
_cell_length_b 14.019077
_cell_length_c 8.386395
_cell_angle_alpha 90.000000
_cell_angle_beta 111.605901
_cell_angle_gamma 90.000000
_cell_volume 1576.776282
_symmetry_space_group_name_H-M "C 2/C"
_symmetry_group_IT_number 15
_symmetry_cell_setting 'monoclinic'
loop_
_space_group_symop_operation_xyz
x,y,z
-x,y,1/2-z
-x,-y,-z
x,-y,1/2+z
1/2+x,1/2+y,z
1/2-x,1/2+y,1/2-z
1/2-x,1/2-y,-z
1/2+x,1/2-y,1/2+z
loop_
_atom_site_type_symbol
_atom_site_label
_atom_site_fract_x
_atom_site_fract_y
_atom_site_fract_z
Si Si1 0.536959 0.284107 0.454561
Si Si2 0.646261 0.633741 0.520660
Si Si3 0.700750 0.025417 0.388859
Si Si4 0.233878 0.802007 0.744116
Si Si5 0.573911 0.917293 0.095446
O O1 0.500000 0.274867 0.250000
O O2 0.467764 0.361346 0.497744
O O3 0.655008 0.299897 0.549133
O O4 0.524117 0.184250 0.539686
O O5 0.694460 0.528938 0.550189
O O6 0.704427 0.707345 0.675939
O O7 0.668426 0.675140 0.359291
O O8 0.697019 0.107940 0.253398
O O9 0.665958 0.073368 0.529265
O O10 0.621535 0.942442 0.294701
O O11 0.500000 0.000000 0.000000
#
# Coordination Sequence:
#
# PCOD9306253 Si02
#       5
#     8   8   8   8   8
#     4  12  27  43  72 109 146 188 242 301 361 430
#     4  11  25  46  71 106 143 196 241 297 369 430
#     4  12  25  45  73 103 146 194 239 303 363 430
#     4  11  25  46  72 101 149 193 244 294 363 439
#     4  12  25  44  70 109 143 186 246 302 362 425
#
# _framework density 25.368217000000001
#
# number of rings (size 3 to 8) (size 9 to 14) (size 15 to 20)
#    0.000    0.400    4.000    4.800    5.600    4.000 
#    0.000    0.000    0.000    0.000    0.000    0.000 
#    0.000    0.000    0.000    0.000    0.000    0.000 
#
# Total GULP energy -112074.715738 kJ/mol
# GULP energy per Si atom -5603.735787 kJ/mol
# Density = 2.531048 g / cm^3
# Si number density = 25.368217 Si / 1000 Ang^3
#
#
#
# Elastic Constant Matrix: (Units=GPa)
#
#
# Indices 1 2 3 4 5 6 
#
# 1 86.7264 22.8750 14.7481 0.0000 -0.2585 0.0000
# 2 22.8750 92.8279 -0.1493 0.0000 -0.5263 0.0000
# 3 14.7481 -0.1493 111.6858 0.0000 0.8233 0.0000
# 4 0.0000 0.0000 0.0000 30.3909 0.0000 5.9299
# 5 -0.2585 -0.5263 0.8233 0.0000 41.7876 0.0000
# 6 0.0000 0.0000 0.0000 5.9299 0.0000 49.0534
#
#
#
# Elastic Compliance Matrix: (Units=1/GPa)
#
#
# Indices 1 2 3 4 5 6 
#
# 1 0.012637 -0.003116 -0.001673 0.000000 0.000072 0.000000
# 2 -0.003116 0.011542 0.000426 0.000000 0.000118 0.000000
# 3 -0.001673 0.000426 0.009177 0.000000 -0.000186 0.000000
# 4 0.000000 0.000000 0.000000 0.033699 0.000000 -0.004074
# 5 0.000072 0.000118 -0.000186 0.000000 0.023936 0.000000
# 6 0.000000 0.000000 0.000000 -0.004074 0.000000 0.020878
#
#
# Mechanical properties :
#
#
# Convention : Reuss Voigt Hill
#
# Bulk Modulus (GPa) = 40.60372 40.68751 40.64561
# Shear Modulus (GPa) = 38.81783 41.16414 39.99099
#
# Velocity S-wave (km/s) = 3.91599 4.03260 3.97472
# Velocity P-wave (km/s) = 6.04046 6.14460 6.09275
#
# Compressibility (1/GPa) = 0.02462829
#
# Stress axis : x y z
#
# Youngs Moduli (GPa) = 79.13086 86.64056 108.97270
#
# Poissons Ratio (x) = 0.27001 0.18236
# Poissons Ratio (y) = 0.24660 -0.04643
# Poissons Ratio (z) = 0.13242 -0.03692
#
# Static dielectric constant tensor:
#      x y z
#    x 1.999930 0.000000 0.015630 
#    y 0.000000 1.963800 0.000000 
#    z 0.015630 0.000000 2.015840 
# 
# From -- ./inp_files/37844.got.cif
#   From: 2010.05.17/outbox.cif.g08.bks.cpg/sg15_19_cif.got.tgz:37844.got - 2010.06.03 18:47:42.
