data_PCOD9306531
_publ_section_title
;
Structure prediction by ZEFSAII (Michael W. Deem and Ramdas Pophale) SiO2 
 PCOD9306531
Probable space group: C 2/C
;
_chemical_formula_sum "Si O2"
_cell_formula_units_Z 28
_cell_length_a 11.244994
_cell_length_b 13.496838
_cell_length_c 7.565663
_cell_angle_alpha 90.000000
_cell_angle_beta 103.796807
_cell_angle_gamma 90.000000
_cell_volume 1115.124825
_symmetry_space_group_name_H-M "C 2/C"
_symmetry_group_IT_number 15
_symmetry_cell_setting 'monoclinic'
loop_
_space_group_symop_operation_xyz
x,y,z
-x,y,1/2-z
-x,-y,-z
x,-y,1/2+z
1/2+x,1/2+y,z
1/2-x,1/2+y,1/2-z
1/2-x,1/2-y,-z
1/2+x,1/2-y,1/2+z
loop_
_atom_site_type_symbol
_atom_site_label
_atom_site_fract_x
_atom_site_fract_y
_atom_site_fract_z
Si Si1 0.605118 0.784233 0.442266
Si Si2 0.242164 0.131574 0.981635
Si Si3 0.000000 0.821065 0.250000
Si Si4 0.130922 0.484524 0.274995
O O1 0.500000 0.757105 0.250000
O O2 0.750000 0.750000 0.500000
O O3 0.548641 0.744233 0.604072
O O4 0.621094 0.902111 0.427439
O O5 0.338513 0.087078 0.876965
O O6 0.109469 0.112283 0.858251
O O7 0.250000 0.250000 0.000000
O O8 0.267528 0.067960 0.163432
O O9 0.000000 0.535109 0.250000
#
# Coordination Sequence:
#
# PCOD9306531 Si02
#       4
#     8   8   4   8
#     4  11  25  51  82 122 164 217 275 348 414 494
#     4  12  28  48  78 117 155 210 271 338 412 486
#     4  12  28  48  82 116 166 212 274 338 418 494
#     4  11  26  50  79 115 159 210 274 334 408 495
#
# _framework density 25.109299
#
# number of rings (size 3 to 8) (size 9 to 14) (size 15 to 20)
#    0.000    0.571    2.857    4.286    6.000    1.143 
#    2.571    0.000    3.143    0.000    0.000    0.000 
#    0.000    0.000    0.000    0.000    0.000    0.000 
#
# Total GULP energy -78239.075148 kJ/mol
# GULP energy per Si atom -5588.505368 kJ/mol
# Density = 2.505215 g / cm^3
# Si number density = 25.109299 Si / 1000 Ang^3
#
#
#
# Elastic Constant Matrix: (Units=GPa)
#
#
# Indices 1 2 3 4 5 6 
#
# 1 155.7911 41.6727 72.8435 0.0000 21.6009 0.0000
# 2 41.6727 115.1519 48.2343 0.0000 14.8169 0.0000
# 3 72.8435 48.2343 160.5456 0.0000 16.2963 0.0000
# 4 0.0000 0.0000 0.0000 33.9826 0.0000 17.0525
# 5 21.6009 14.8169 16.2963 0.0000 69.9877 0.0000
# 6 0.0000 0.0000 0.0000 17.0525 0.0000 28.5379
#
#
#
# Elastic Compliance Matrix: (Units=1/GPa)
#
#
# Indices 1 2 3 4 5 6 
#
# 1 0.008575 -0.001532 -0.003272 0.000000 -0.001560 0.000000
# 2 -0.001532 0.010352 -0.002295 0.000000 -0.001184 0.000000
# 3 -0.003272 -0.002295 0.008451 0.000000 -0.000472 0.000000
# 4 0.000000 0.000000 0.000000 0.042029 0.000000 -0.025114
# 5 -0.001560 -0.001184 -0.000472 0.000000 0.015130 0.000000
# 6 0.000000 0.000000 0.000000 -0.025114 0.000000 0.050048
#
#
# Mechanical properties :
#
#
# Convention : Reuss Voigt Hill
#
# Bulk Modulus (GPa) = 75.87119 84.10998 79.99059
# Shear Modulus (GPa) = 32.64218 44.41752 38.52985
#
# Velocity S-wave (km/s) = 3.60947 4.21047 3.92150
# Velocity P-wave (km/s) = 6.90311 7.56358 7.24088
#
# Compressibility (1/GPa) = 0.01318023
#
# Stress axis : x y z
#
# Youngs Moduli (GPa) = 116.62002 96.59728 118.33250
#
# Poissons Ratio (x) = 0.14797 0.38719
# Poissons Ratio (y) = 0.17864 0.27157
# Poissons Ratio (z) = 0.38158 0.22169
#
# Static dielectric constant tensor:
#      x y z
#    x 1.981010 0.000000 0.015530 
#    y 0.000000 1.945850 0.000000 
#    z 0.015530 0.000000 2.277450 
# 
# From -- ./inp_files/27739.got.cif
#   From: 2010.05.17/outbox.cif.g08.bks.cpg/sg15_14_cif.got.tgz:27739.got - 2010.06.03 18:47:42.
