data_PCOD9306208
_publ_section_title
;
Structure prediction by ZEFSAII (Michael W. Deem and Ramdas Pophale) SiO2 
 PCOD9306208
Probable space group: C 2/C
;
_chemical_formula_sum "Si O2"
_cell_formula_units_Z 40
_cell_length_a 18.423639
_cell_length_b 8.381322
_cell_length_c 28.981356
_cell_angle_alpha 90.000000
_cell_angle_beta 158.467230
_cell_angle_gamma 90.000000
_cell_volume 1642.525527
_symmetry_space_group_name_H-M "C 2/C"
_symmetry_group_IT_number 15
_symmetry_cell_setting 'monoclinic'
loop_
_space_group_symop_operation_xyz
x,y,z
-x,y,1/2-z
-x,-y,-z
x,-y,1/2+z
1/2+x,1/2+y,z
1/2-x,1/2+y,1/2-z
1/2-x,1/2-y,-z
1/2+x,1/2-y,1/2+z
loop_
_atom_site_type_symbol
_atom_site_label
_atom_site_fract_x
_atom_site_fract_y
_atom_site_fract_z
Si Si1 0.859793 0.155199 0.123789
Si Si2 0.930393 0.864307 0.404666
Si Si3 0.983556 0.657739 0.960561
Si Si4 0.363233 0.156800 0.281500
Si Si5 0.233532 0.497996 0.959487
O O1 0.881653 0.341145 0.123679
O O2 0.000000 0.113119 0.250000
O O3 0.631953 0.141990 0.005617
O O4 0.872314 0.051429 0.084706
O O5 0.945409 0.805317 0.465637
O O6 0.884101 0.708851 0.346583
O O7 0.765758 0.997880 0.300021
O O8 0.133697 0.931785 0.503324
O O9 0.762905 0.701662 0.815913
O O10 0.000000 0.500000 0.000000
O O11 0.572974 0.127924 0.381957
#
# Coordination Sequence:
#
# PCOD9306208 Si02
#       5
#     8   8   8   8   8
#     4  11  25  45  76 107 154 192 251 309 379 447
#     4  12  26  46  73 108 147 192 252 303 384 449
#     4  12  27  48  74 110 141 198 253 309 383 444
#     4  12  26  46  75 102 153 191 243 317 363 463
#     4  11  26  46  70 115 144 202 248 308 384 443
#
# _framework density 24.352743
#
# number of rings (size 3 to 8) (size 9 to 14) (size 15 to 20)
#    0.000    0.400    2.000    6.000   11.200    0.000 
#    0.000    0.000    0.000    0.000    0.000    0.000 
#    0.000    0.000    0.000    0.000    0.000    0.000 
#
# Total GULP energy -112193.352210 kJ/mol
# GULP energy per Si atom -5609.667611 kJ/mol
# Density = 2.429731 g / cm^3
# Si number density = 24.352743 Si / 1000 Ang^3
#
#
#
# Elastic Constant Matrix: (Units=GPa)
#
#
# Indices 1 2 3 4 5 6 
#
# 1 78.1280 22.7643 8.6588 -0.0034 4.5001 -0.0016
# 2 22.7643 76.2628 23.0196 -0.0004 6.8523 -0.0029
# 3 8.6588 23.0196 83.6903 0.0119 2.6646 0.0033
# 4 -0.0034 -0.0004 0.0119 37.4295 -0.0003 -7.8911
# 5 4.5001 6.8523 2.6646 -0.0003 43.8056 -0.0016
# 6 -0.0016 -0.0029 0.0033 -7.8911 -0.0016 35.7460
#
#
#
# Elastic Compliance Matrix: (Units=1/GPa)
#
#
# Indices 1 2 3 4 5 6 
#
# 1 0.014054 -0.004027 -0.000321 0.000001 -0.000794 0.000001
# 2 -0.004027 0.015631 -0.003826 0.000001 -0.001799 0.000002
# 3 -0.000321 -0.003826 0.013039 -0.000005 -0.000162 -0.000003
# 4 0.000001 0.000001 -0.000005 0.028021 0.000000 0.006186
# 5 -0.000794 -0.001799 -0.000162 0.000000 0.023201 0.000001
# 6 0.000001 0.000002 -0.000003 0.006186 0.000001 0.029341
#
#
# Mechanical properties :
#
#
# Convention : Reuss Voigt Hill
#
# Bulk Modulus (GPa) = 37.91112 38.55182 38.23147
# Shear Modulus (GPa) = 33.68669 35.63877 34.66273
#
# Velocity S-wave (km/s) = 3.72328 3.82964 3.77684
# Velocity P-wave (km/s) = 5.83824 5.95146 5.89512
#
# Compressibility (1/GPa) = 0.02637748
#
# Stress axis : x y z
#
# Youngs Moduli (GPa) = 71.15329 63.97592 76.69042
#
# Poissons Ratio (x) = 0.25762 0.02463
# Poissons Ratio (y) = 0.28652 0.29338
# Poissons Ratio (z) = 0.02285 0.24474
#
# Static dielectric constant tensor:
#      x y z
#    x 1.873110 0.000000 -0.031910 
#    y 0.000000 1.950490 0.000000 
#    z -0.031910 0.000000 1.959120 
# 
# From -- ./inp_files/171645.got.cif
#   From: 2010.05.17/outbox.cif.g08.bks.cpg/sg15_86_cif.got.tgz:171645.got - 2010.06.03 18:47:42.
