data_PCOD9306291
_publ_section_title
;
Structure prediction by ZEFSAII (Michael W. Deem and Ramdas Pophale) SiO2 
 PCOD9306291
Probable space group: C 2/C
;
_chemical_formula_sum "Si O2"
_cell_formula_units_Z 56
_cell_length_a 13.652677
_cell_length_b 25.943775
_cell_length_c 13.514528
_cell_angle_alpha 90.000000
_cell_angle_beta 31.334836
_cell_angle_gamma 90.000000
_cell_volume 2489.358176
_symmetry_space_group_name_H-M "C 2/C"
_symmetry_group_IT_number 15
_symmetry_cell_setting 'monoclinic'
loop_
_space_group_symop_operation_xyz
x,y,z
-x,y,1/2-z
-x,-y,-z
x,-y,1/2+z
1/2+x,1/2+y,z
1/2-x,1/2+y,1/2-z
1/2-x,1/2-y,-z
1/2+x,1/2-y,1/2+z
loop_
_atom_site_type_symbol
_atom_site_label
_atom_site_fract_x
_atom_site_fract_y
_atom_site_fract_z
Si Si1 0.810230 0.997160 0.968744
Si Si2 0.289316 0.329072 0.730291
Si Si3 0.284095 0.304679 0.419298
Si Si4 0.516246 0.855485 0.121863
Si Si5 0.311310 0.898099 0.871999
Si Si6 0.200952 0.211862 0.817144
Si Si7 0.959034 0.533891 0.631661
O O1 0.000000 0.978646 0.750000
O O2 0.837276 0.058280 0.969203
O O3 0.732940 0.978480 0.142801
O O4 0.641516 0.978328 0.042225
O O5 0.225282 0.372117 0.704286
O O6 0.184787 0.273295 0.812912
O O7 0.507172 0.313883 0.522457
O O8 0.222497 0.345448 0.897686
O O9 0.500000 0.315758 0.250000
O O10 0.250000 0.250000 0.500000
O O11 0.182389 0.349297 0.562776
O O12 0.247302 0.307234 0.336323
O O13 0.500000 0.870460 0.250000
O O14 0.376270 0.806721 0.231568
O O15 0.447017 0.905250 0.120785
O O16 0.500000 0.926448 0.750000
O O17 0.000000 0.500000 0.500000
#
# Coordination Sequence:
#
# PCOD9306291 Si02
#       7
#     8   8   8   8   8   8   8
#     4  11  25  46  74 108 144 178 237 299 365 435
#     4  12  26  45  70 105 143 189 243 290 359 427
#     4  12  22  37  64 103 149 189 227 282 354 436
#     4  12  28  50  75  99 139 190 249 304 363 418
#     4  12  23  39  69 108 149 190 225 281 363 441
#     4  12  25  46  68 105 149 189 241 294 351 431
#     4  11  25  51  75 104 142 186 241 305 365 433
#
# _framework density 22.495759
#
# number of rings (size 3 to 8) (size 9 to 14) (size 15 to 20)
#    0.000    0.286    7.143    2.571    2.000    2.857 
#    0.000    0.000    0.000    0.000    0.000    0.000 
#    0.000    0.000    0.000    0.000    0.000    0.000 
#
# Total GULP energy -156091.863804 kJ/mol
# GULP energy per Si atom -5574.709422 kJ/mol
# Density = 2.244456 g / cm^3
# Si number density = 22.495759 Si / 1000 Ang^3
#
#
#
# Elastic Constant Matrix: (Units=GPa)
#
#
# Indices 1 2 3 4 5 6 
#
# 1 32.8348 -7.0556 19.0397 -0.0021 13.1339 0.0000
# 2 -7.0556 67.6933 17.7652 -0.0008 2.3135 0.0000
# 3 19.0397 17.7652 181.8411 -0.0012 13.6070 -0.0004
# 4 -0.0021 -0.0008 -0.0012 26.1989 0.0017 4.3639
# 5 13.1339 2.3135 13.6070 0.0017 39.3809 -0.0004
# 6 0.0000 0.0000 -0.0004 4.3639 -0.0004 24.4421
#
#
#
# Elastic Compliance Matrix: (Units=1/GPa)
#
#
# Indices 1 2 3 4 5 6 
#
# 1 0.038492 0.005380 -0.003667 0.000004 -0.011887 -0.000001
# 2 0.005380 0.015919 -0.001965 0.000001 -0.002051 0.000000
# 3 -0.003667 -0.001965 0.006134 0.000000 -0.000781 0.000000
# 4 0.000004 0.000001 0.000000 0.039339 -0.000003 -0.007024
# 5 -0.011887 -0.002051 -0.000781 -0.000003 0.029748 0.000001
# 6 -0.000001 0.000000 0.000000 -0.007024 0.000001 0.042167
#
#
# Mechanical properties :
#
#
# Convention : Reuss Voigt Hill
#
# Bulk Modulus (GPa) = 16.65479 37.98533 27.32006
# Shear Modulus (GPa) = 25.99887 34.84570 30.42228
#
# Velocity S-wave (km/s) = 3.40328 3.93999 3.68143
# Velocity P-wave (km/s) = 4.78149 6.13353 5.49922
#
# Compressibility (1/GPa) = 0.06004277
#
# Stress axis : x y z
#
# Youngs Moduli (GPa) = 25.97915 62.81751 163.03523
#
# Poissons Ratio (x) = -0.33799 0.59777
# Poissons Ratio (y) = -0.13978 0.32039
# Poissons Ratio (z) = 0.09525 0.12345
#
# Static dielectric constant tensor:
#      x y z
#    x 2.026270 0.000000 -0.227930 
#    y 0.000000 1.833930 0.000000 
#    z -0.227930 0.000000 2.118090 
# 
# From -- ./inp_files/157213.got.cif
#   From: 2010.05.17/outbox.cif.g08.bks.cpg/sg15_79_cif.got.tgz:157213.got - 2010.06.03 18:47:42.
