data_PCOD9306467
_publ_section_title
;
Structure prediction by ZEFSAII (Michael W. Deem and Ramdas Pophale) SiO2 
 PCOD9306467
Probable space group: C 2/C
;
_chemical_formula_sum "Si O2"
_cell_formula_units_Z 32
_cell_length_a 14.576991
_cell_length_b 12.017592
_cell_length_c 13.673918
_cell_angle_alpha 90.000000
_cell_angle_beta 30.734352
_cell_angle_gamma 90.000000
_cell_volume 1224.189937
_symmetry_space_group_name_H-M "C 2/C"
_symmetry_group_IT_number 15
_symmetry_cell_setting 'monoclinic'
loop_
_space_group_symop_operation_xyz
x,y,z
-x,y,1/2-z
-x,-y,-z
x,-y,1/2+z
1/2+x,1/2+y,z
1/2-x,1/2+y,1/2-z
1/2-x,1/2-y,-z
1/2+x,1/2-y,1/2+z
loop_
_atom_site_type_symbol
_atom_site_label
_atom_site_fract_x
_atom_site_fract_y
_atom_site_fract_z
Si Si1 0.250000 0.250000 0.000000
Si Si2 0.851226 0.369025 0.717440
Si Si3 0.893667 0.386807 0.197064
Si Si4 0.000000 0.953897 0.750000
Si Si5 0.055249 0.133401 0.864555
O O1 0.382951 0.212465 0.783594
O O2 0.331841 0.375660 0.927536
O O3 0.910196 0.484300 0.713406
O O4 0.938883 0.366390 0.529186
O O5 0.915417 0.255439 0.708768
O O6 0.637491 0.366066 0.907629
O O7 0.716317 0.381996 0.292710
O O8 0.948173 0.034894 0.709222
#
# Coordination Sequence:
#
# PCOD9306467 Si02
#       5
#     4   8   8   4   8
#     4  12  30  52  78 126 164 212 286 360 418 500
#     4  11  25  48  84 118 160 225 281 331 427 513
#     4  11  27  50  83 116 166 223 275 350 429 496
#     4  12  32  52  80 122 170 212 284 356 424 506
#     4  12  26  52  82 117 166 220 277 345 417 510
#
# _framework density 26.139734000000001
#
# number of rings (size 3 to 8) (size 9 to 14) (size 15 to 20)
#    0.000    0.500    5.000    0.750    7.000    3.000 
#    0.000    0.000    0.000    0.000    0.000    0.000 
#    0.000    0.000    0.000    0.000    0.000    0.000 
#
# Total GULP energy -89377.665618 kJ/mol
# GULP energy per Si atom -5586.104101 kJ/mol
# Density = 2.608024 g / cm^3
# Si number density = 26.139734 Si / 1000 Ang^3
#
#
#
# Elastic Constant Matrix: (Units=GPa)
#
#
# Indices 1 2 3 4 5 6 
#
# 1 130.5320 63.1550 43.3984 -0.0002 1.2611 0.0000
# 2 63.1550 244.1870 27.8519 -0.0002 11.8365 0.0000
# 3 43.3984 27.8519 142.5838 0.0003 -17.1045 -0.0001
# 4 -0.0002 -0.0002 0.0003 240.0276 0.0002 -10.5815
# 5 1.2611 11.8365 -17.1045 0.0002 30.9802 0.0000
# 6 0.0000 0.0000 -0.0001 -10.5815 0.0000 52.7634
#
#
#
# Elastic Compliance Matrix: (Units=1/GPa)
#
#
# Indices 1 2 3 4 5 6 
#
# 1 0.009571 -0.002127 -0.002621 0.000000 -0.001024 0.000000
# 2 -0.002127 0.004806 -0.000537 0.000000 -0.002046 0.000000
# 3 -0.002621 -0.000537 0.008517 0.000000 0.005014 0.000000
# 4 0.000000 0.000000 0.000000 0.004203 0.000000 0.000843
# 5 -0.001024 -0.002046 0.005014 0.000000 0.035870 0.000000
# 6 0.000000 0.000000 0.000000 0.000843 0.000000 0.019122
#
#
# Mechanical properties :
#
#
# Convention : Reuss Voigt Hill
#
# Bulk Modulus (GPa) = 81.13056 87.34595 84.23825
# Shear Modulus (GPa) = 51.67064 90.28075 70.97569
#
# Velocity S-wave (km/s) = 4.45084 5.88326 5.21645
# Velocity P-wave (km/s) = 7.58406 8.92400 8.28118
#
# Compressibility (1/GPa) = 0.01232581
#
# Stress axis : x y z
#
# Youngs Moduli (GPa) = 104.48056 208.08593 117.40649
#
# Poissons Ratio (x) = 0.44258 0.30767
# Poissons Ratio (y) = 0.22222 0.06302
# Poissons Ratio (z) = 0.27380 0.11170
#
# Static dielectric constant tensor:
#      x y z
#    x -14.115080 0.000020 1.832950 
#    y 0.000020 1.928960 0.000000 
#    z 1.832950 0.000000 1.908410 
# 
# From -- ./inp_files/53949.got.cif
#   From: 2010.05.17/outbox.cif.g08.bks.cpg/sg15_27_cif.got.tgz:53949.got - 2010.06.03 18:47:42.
