data_PCOD9306413
_publ_section_title
;
Structure prediction by ZEFSAII (Michael W. Deem and Ramdas Pophale) SiO2 
 PCOD9306413
Probable space group: C 2/C
;
_chemical_formula_sum "Si O2"
_cell_formula_units_Z 48
_cell_length_a 18.994026
_cell_length_b 8.216932
_cell_length_c 26.765973
_cell_angle_alpha 90.000000
_cell_angle_beta 151.881719
_cell_angle_gamma 90.000000
_cell_volume 1968.797428
_symmetry_space_group_name_H-M "C 2/C"
_symmetry_group_IT_number 15
_symmetry_cell_setting 'monoclinic'
loop_
_space_group_symop_operation_xyz
x,y,z
-x,y,1/2-z
-x,-y,-z
x,-y,1/2+z
1/2+x,1/2+y,z
1/2-x,1/2+y,1/2-z
1/2-x,1/2-y,-z
1/2+x,1/2-y,1/2+z
loop_
_atom_site_type_symbol
_atom_site_label
_atom_site_fract_x
_atom_site_fract_y
_atom_site_fract_z
Si Si1 0.500000 0.452839 0.250000
Si Si2 0.347196 0.523167 0.057633
Si Si3 0.280917 0.016199 0.222934
Si Si4 0.215983 0.709225 0.615779
Si Si5 0.069152 0.354359 0.435804
Si Si6 0.000000 0.500000 0.000000
Si Si7 0.966590 0.202169 0.891137
O O1 0.455794 0.549810 0.173070
O O2 0.643757 0.342513 0.328429
O O3 0.366524 0.676084 0.033620
O O4 0.405378 0.363720 0.065443
O O5 0.181470 0.523592 0.976564
O O6 0.239321 0.104255 0.144976
O O7 0.356357 0.172257 0.296441
O O8 0.408211 0.880651 0.309020
O O9 0.127576 0.947867 0.148021
O O10 0.177375 0.562869 0.629168
O O11 0.045625 0.699666 0.486008
O O12 0.068867 0.393461 0.494098
#
# Coordination Sequence:
#
# PCOD9306413 Si02
#       7
#     4   8   8   8   8   4   8
#     4  12  24  46  72 108 142 206 232 304 386 450
#     4  11  25  48  72 107 147 195 245 312 375 450
#     4  12  25  45  71 108 143 197 242 314 375 443
#     4  12  27  42  75 104 148 189 248 302 371 449
#     4  11  26  47  74 104 148 193 250 312 375 448
#     4  12  22  48  68 104 138 198 238 310 368 438
#     4  12  25  45  73 106 145 191 248 311 366 461
#
# _framework density 24.380365000000001
#
# number of rings (size 3 to 8) (size 9 to 14) (size 15 to 20)
#    0.000    0.333    5.000    3.500    2.333    2.667 
#    6.000    0.000    0.000    0.000    0.000    0.000 
#    0.000    0.000    0.000    0.000    0.000    0.000 
#
# Total GULP energy -133799.818728 kJ/mol
# GULP energy per Si atom -5574.992447 kJ/mol
# Density = 2.432487 g / cm^3
# Si number density = 24.380365 Si / 1000 Ang^3
#
#
#
# Elastic Constant Matrix: (Units=GPa)
#
#
# Indices 1 2 3 4 5 6 
#
# 1 127.9217 39.4385 24.1719 0.0000 32.8705 0.0000
# 2 39.4385 56.6511 -1.3838 -0.0001 12.4879 0.0000
# 3 24.1719 -1.3838 88.2332 0.0000 23.8660 -0.0002
# 4 0.0000 -0.0001 0.0000 34.2756 0.0000 -1.8735
# 5 32.8705 12.4879 23.8660 0.0000 49.6745 0.0000
# 6 0.0000 0.0000 -0.0002 -1.8735 0.0000 34.1515
#
#
#
# Elastic Compliance Matrix: (Units=1/GPa)
#
#
# Indices 1 2 3 4 5 6 
#
# 1 0.011643 -0.007052 -0.001949 0.000000 -0.004995 0.000000
# 2 -0.007052 0.023210 0.003002 0.000000 -0.002611 0.000000
# 3 -0.001949 0.003002 0.013528 0.000000 -0.005964 0.000000
# 4 0.000000 0.000000 0.000000 0.029263 0.000000 0.001605
# 5 -0.004995 -0.002611 -0.005964 0.000000 0.026958 0.000000
# 6 0.000000 0.000000 0.000000 0.001605 0.000000 0.029369
#
#
# Mechanical properties :
#
#
# Convention : Reuss Voigt Hill
#
# Bulk Modulus (GPa) = 27.48526 44.13993 35.81260
# Shear Modulus (GPa) = 31.62585 37.65896 34.64241
#
# Velocity S-wave (km/s) = 3.60555 3.93446 3.77359
# Velocity P-wave (km/s) = 5.35083 6.22768 5.80583
#
# Compressibility (1/GPa) = 0.03638314
#
# Stress axis : x y z
#
# Youngs Moduli (GPa) = 85.88572 43.08448 73.92084
#
# Poissons Ratio (x) = 0.30384 0.14409
# Poissons Ratio (y) = 0.60568 -0.22192
# Poissons Ratio (z) = 0.16741 -0.12935
#
# Static dielectric constant tensor:
#      x y z
#    x 4.723230 0.000000 -0.574530 
#    y 0.000000 3.073410 0.000000 
#    z -0.574530 0.000000 2.107740 
# 
# From -- ./inp_files/315799.got.cif
#   From: 2010.05.17/outbox.cif.g08.bks.cpg/sg15_158_cif.got.tgz:315799.got - 2010.06.03 18:47:42.
