data_PCOD9306421
_publ_section_title
;
Structure prediction by ZEFSAII (Michael W. Deem and Ramdas Pophale) SiO2 
 PCOD9306421
Probable space group: C 2/C
;
_chemical_formula_sum "Si O2"
_cell_formula_units_Z 28
_cell_length_a 7.113417
_cell_length_b 19.279739
_cell_length_c 9.793999
_cell_angle_alpha 90.000000
_cell_angle_beta 129.846744
_cell_angle_gamma 90.000000
_cell_volume 1031.253762
_symmetry_space_group_name_H-M "C 2/C"
_symmetry_group_IT_number 15
_symmetry_cell_setting 'monoclinic'
loop_
_space_group_symop_operation_xyz
x,y,z
-x,y,1/2-z
-x,-y,-z
x,-y,1/2+z
1/2+x,1/2+y,z
1/2-x,1/2+y,1/2-z
1/2-x,1/2-y,-z
1/2+x,1/2-y,1/2+z
loop_
_atom_site_type_symbol
_atom_site_label
_atom_site_fract_x
_atom_site_fract_y
_atom_site_fract_z
Si Si1 0.312832 0.996578 0.282982
Si Si2 0.465639 0.207615 0.896497
Si Si3 0.500000 0.618289 0.750000
Si Si4 0.754742 0.347619 0.728265
O O1 0.500000 0.981231 0.250000
O O2 0.192879 0.071962 0.208437
O O3 0.500000 0.000000 0.500000
O O4 0.102777 0.938768 0.190984
O O5 0.500000 0.195717 0.750000
O O6 0.427190 0.289093 0.911164
O O7 0.230618 0.169039 0.851619
O O8 0.680824 0.177708 0.089387
O O9 0.000000 0.344613 0.750000
#
# Coordination Sequence:
#
# PCOD9306421 Si02
#       4
#     8   8   4   8
#     4  11  26  49  71 109 146 189 243 298 361 438
#     4  12  26  47  74 108 143 192 244 300 357 435
#     4  12  26  46  78 100 150 194 236 304 366 416
#     4  11  25  48  73 107 148 185 246 300 359 431
#
# _framework density 27.151416000000001
#
# number of rings (size 3 to 8) (size 9 to 14) (size 15 to 20)
#    0.000    0.571    4.286    2.571    2.000    1.143 
#    0.000    0.000    0.000    0.000    0.000    0.000 
#    0.000    0.000    0.000    0.000    0.000    0.000 
#
# Total GULP energy -78399.240224 kJ/mol
# GULP energy per Si atom -5599.945730 kJ/mol
# Density = 2.708962 g / cm^3
# Si number density = 27.151416 Si / 1000 Ang^3
#
#
#
# Elastic Constant Matrix: (Units=GPa)
#
#
# Indices 1 2 3 4 5 6 
#
# 1 186.0226 59.9374 31.3087 0.0000 -18.6602 0.0000
# 2 59.9374 218.6140 7.8180 0.0000 30.3464 0.0000
# 3 31.3087 7.8180 126.9020 0.0000 -26.2934 0.0000
# 4 0.0000 0.0000 0.0000 110.4622 0.0000 -43.2306
# 5 -18.6602 30.3464 -26.2934 0.0000 44.5344 0.0000
# 6 0.0000 0.0000 0.0000 -43.2306 0.0000 77.4908
#
#
#
# Elastic Compliance Matrix: (Units=1/GPa)
#
#
# Indices 1 2 3 4 5 6 
#
# 1 0.006647 -0.002353 -0.000667 0.000000 0.003994 0.000000
# 2 -0.002353 0.006042 -0.000967 0.000000 -0.005674 0.000000
# 3 -0.000667 -0.000967 0.009323 0.000000 0.005884 0.000000
# 4 0.000000 0.000000 0.000000 0.011581 0.000000 0.006461
# 5 0.003994 -0.005674 0.005884 0.000000 0.031468 0.000000
# 6 0.000000 0.000000 0.000000 0.006461 0.000000 0.016509
#
#
# Mechanical properties :
#
#
# Convention : Reuss Voigt Hill
#
# Bulk Modulus (GPa) = 71.24122 81.07409 76.15766
# Shear Modulus (GPa) = 53.06438 75.32911 64.19675
#
# Velocity S-wave (km/s) = 4.42564 5.27298 4.86778
# Velocity P-wave (km/s) = 7.23951 8.18518 7.72683
#
# Compressibility (1/GPa) = 0.01403682
#
# Stress axis : x y z
#
# Youngs Moduli (GPa) = 150.44765 165.51976 107.25608
#
# Poissons Ratio (x) = 0.38946 0.07157
# Poissons Ratio (y) = 0.35400 0.10374
# Poissons Ratio (z) = 0.10039 0.16010
#
# Static dielectric constant tensor:
#      x y z
#    x 2.080220 0.000000 0.017860 
#    y 0.000000 2.072470 0.000000 
#    z 0.017860 0.000000 2.231600 
# 
# From -- ./inp_files/77472.got.cif
#   From: 2010.05.17/outbox.cif.g08.bks.cpg/sg15_39_cif.got.tgz:77472.got - 2010.06.03 18:47:42.
