data_PCOD9306308
_publ_section_title
;
Structure prediction by ZEFSAII (Michael W. Deem and Ramdas Pophale) SiO2 
 PCOD9306308
Probable space group: C 2/C
;
_chemical_formula_sum "Si O2"
_cell_formula_units_Z 44
_cell_length_a 13.878332
_cell_length_b 11.759510
_cell_length_c 10.316109
_cell_angle_alpha 90.000000
_cell_angle_beta 94.202981
_cell_angle_gamma 90.000000
_cell_volume 1679.085782
_symmetry_space_group_name_H-M "C 2/C"
_symmetry_group_IT_number 15
_symmetry_cell_setting 'monoclinic'
loop_
_space_group_symop_operation_xyz
x,y,z
-x,y,1/2-z
-x,-y,-z
x,-y,1/2+z
1/2+x,1/2+y,z
1/2-x,1/2+y,1/2-z
1/2-x,1/2-y,-z
1/2+x,1/2-y,1/2+z
loop_
_atom_site_type_symbol
_atom_site_label
_atom_site_fract_x
_atom_site_fract_y
_atom_site_fract_z
Si Si1 0.029294 0.595231 0.107387
Si Si2 0.238366 0.123664 0.151650
Si Si3 0.611762 0.305852 0.392445
Si Si4 0.500000 0.505235 0.250000
Si Si5 0.880364 0.836740 0.611100
Si Si6 0.304347 0.893606 0.050150
O O1 0.000000 0.563182 0.250000
O O2 0.975906 0.717811 0.081492
O O3 0.142775 0.600714 0.084367
O O4 0.000000 0.500000 0.000000
O O5 0.310763 0.228465 0.174305
O O6 0.170221 0.111642 0.266926
O O7 0.299103 0.012338 0.121660
O O8 0.170522 0.149854 0.021611
O O9 0.578349 0.409620 0.301101
O O10 0.518955 0.595833 0.371591
O O11 0.807620 0.860089 0.485097
O O12 0.869894 0.701267 0.627211
#
# Coordination Sequence:
#
# PCOD9306308 Si02
#       6
#     8   8   8   4   8   8
#     4  12  26  47  78 116 157 207 265 329 397 478
#     4  11  25  48  76 111 155 213 265 334 403 487
#     4  11  25  46  76 114 155 210 263 329 410 473
#     4  12  26  48  74 116 158 210 264 336 402 480
#     4  11  28  46  75 112 158 208 267 338 400 483
#     4  11  26  49  74 115 157 210 269 332 407 482
#
# _framework density 26.204736
#
# number of rings (size 3 to 8) (size 9 to 14) (size 15 to 20)
#    0.000    0.727    4.545    1.091    5.091    3.636 
#    0.000    0.909    0.000    0.000    0.000    0.000 
#    0.000    0.000    0.000    0.000    0.000    0.000 
#
# Total GULP energy -122967.508759 kJ/mol
# GULP energy per Si atom -5589.432216 kJ/mol
# Density = 2.614509 g / cm^3
# Si number density = 26.204736 Si / 1000 Ang^3
#
#
#
# Elastic Constant Matrix: (Units=GPa)
#
#
# Indices 1 2 3 4 5 6 
#
# 1 81.2058 41.9442 33.4242 0.0000 11.3336 0.0000
# 2 41.9442 210.7120 83.9736 0.0000 10.2252 0.0000
# 3 33.4242 83.9736 104.6078 0.0000 -0.7492 0.0000
# 4 0.0000 0.0000 0.0000 42.9461 0.0000 16.9161
# 5 11.3336 10.2252 -0.7492 0.0000 56.3434 0.0000
# 6 0.0000 0.0000 0.0000 16.9161 0.0000 51.2784
#
#
#
# Elastic Compliance Matrix: (Units=1/GPa)
#
#
# Indices 1 2 3 4 5 6 
#
# 1 0.014932 -0.001363 -0.003697 0.000000 -0.002805 0.000000
# 2 -0.001363 0.007205 -0.005357 0.000000 -0.001105 0.000000
# 3 -0.003697 -0.005357 0.015055 0.000000 0.001916 0.000000
# 4 0.000000 0.000000 0.000000 0.026763 0.000000 -0.008829
# 5 -0.002805 -0.001105 0.001916 0.000000 0.018539 0.000000
# 6 0.000000 0.000000 0.000000 -0.008829 0.000000 0.022414
#
#
# Mechanical properties :
#
#
# Convention : Reuss Voigt Hill
#
# Bulk Modulus (GPa) = 61.12986 79.46774 70.29880
# Shear Modulus (GPa) = 38.11204 45.92580 42.01892
#
# Velocity S-wave (km/s) = 3.81779 4.19092 4.00870
# Velocity P-wave (km/s) = 6.54312 7.33553 6.95063
#
# Compressibility (1/GPa) = 0.01635862
#
# Stress axis : x y z
#
# Youngs Moduli (GPa) = 66.97248 138.78406 66.42517
#
# Poissons Ratio (x) = 0.18913 0.24558
# Poissons Ratio (y) = 0.09127 0.35581
# Poissons Ratio (z) = 0.24760 0.74341
#
# Static dielectric constant tensor:
#      x y z
#    x 2.309280 0.000000 0.062840 
#    y 0.000000 2.056950 0.000000 
#    z 0.062840 0.000000 2.055630 
# 
# From -- ./inp_files/95077.got.cif
#   From: 2010.05.17/outbox.cif.g08.bks.cpg/sg15_48_cif.got.tgz:95077.got - 2010.06.03 18:47:42.
