data_PCOD9306448
_publ_section_title
;
Structure prediction by ZEFSAII (Michael W. Deem and Ramdas Pophale) SiO2 
 PCOD9306448
Probable space group: C 2/C
;
_chemical_formula_sum "Si O2"
_cell_formula_units_Z 36
_cell_length_a 18.974364
_cell_length_b 5.355306
_cell_length_c 17.018732
_cell_angle_alpha 90.000000
_cell_angle_beta 131.854698
_cell_angle_gamma 90.000000
_cell_volume 1288.075529
_symmetry_space_group_name_H-M "C 2/C"
_symmetry_group_IT_number 15
_symmetry_cell_setting 'monoclinic'
loop_
_space_group_symop_operation_xyz
x,y,z
-x,y,1/2-z
-x,-y,-z
x,-y,1/2+z
1/2+x,1/2+y,z
1/2-x,1/2+y,1/2-z
1/2-x,1/2-y,-z
1/2+x,1/2-y,1/2+z
loop_
_atom_site_type_symbol
_atom_site_label
_atom_site_fract_x
_atom_site_fract_y
_atom_site_fract_z
Si Si1 0.331737 0.174401 0.978145
Si Si2 0.500000 0.662926 0.250000
Si Si3 0.200349 0.416005 0.397287
Si Si4 0.223497 0.998674 0.262500
Si Si5 0.513085 0.621628 0.595582
O O1 0.285317 0.438479 0.915195
O O2 0.268749 0.979403 0.882553
O O3 0.441421 0.146946 0.037847
O O4 0.332330 0.152347 0.072006
O O5 0.597406 0.807490 0.299861
O O6 0.518908 0.520042 0.347357
O O7 0.250000 0.250000 0.500000
O O8 0.289679 0.786895 0.271692
O O9 0.124574 0.851543 0.189906
O O10 0.500000 0.500000 0.500000
#
# Coordination Sequence:
#
# PCOD9306448 Si02
#       5
#     8   4   8   8   8
#     4  11  27  47  76 115 160 209 272 338 406 483
#     4  12  28  46  86 112 160 218 270 334 412 492
#     4  11  25  48  77 110 158 205 269 335 404 481
#     4  12  30  51  82 117 166 216 273 337 411 486
#     4  12  28  51  79 119 157 213 272 336 406 485
#
# _framework density 27.94867
#
# number of rings (size 3 to 8) (size 9 to 14) (size 15 to 20)
#    0.000    0.444    4.444    1.333   15.556    0.889 
#    0.000    0.000    0.000    0.000    0.000    0.000 
#    0.000    0.000    0.000    0.000    0.000    0.000 
#
# Total GULP energy -100380.501671 kJ/mol
# GULP energy per Si atom -5576.694537 kJ/mol
# Density = 2.788506 g / cm^3
# Si number density = 27.948670 Si / 1000 Ang^3
#
#
#
# Elastic Constant Matrix: (Units=GPa)
#
#
# Indices 1 2 3 4 5 6 
#
# 1 82.0450 -15.3043 20.0244 0.0001 7.6562 0.0002
# 2 -15.3043 55.7965 13.1479 0.0000 -15.1660 0.0015
# 3 20.0244 13.1479 161.1903 0.0000 11.9994 0.0000
# 4 0.0001 0.0000 0.0000 57.9975 0.0000 -9.0597
# 5 7.6562 -15.1660 11.9994 0.0000 73.1788 0.0000
# 6 0.0002 0.0015 0.0000 -9.0597 0.0000 25.2213
#
#
#
# Elastic Compliance Matrix: (Units=1/GPa)
#
#
# Indices 1 2 3 4 5 6 
#
# 1 0.013460 0.004097 -0.001989 0.000000 -0.000233 0.000000
# 2 0.004097 0.020810 -0.002526 0.000000 0.004298 -0.000001
# 3 -0.001989 -0.002526 0.006763 0.000000 -0.001424 0.000000
# 4 0.000000 0.000000 0.000000 0.018267 0.000000 0.006562
# 5 -0.000233 0.004298 -0.001424 0.000000 0.014814 0.000000
# 6 0.000000 -0.000001 0.000000 0.006562 0.000000 0.042006
#
#
# Mechanical properties :
#
#
# Convention : Reuss Voigt Hill
#
# Bulk Modulus (GPa) = 24.87779 37.19641 31.03710
# Shear Modulus (GPa) = 38.35687 50.02378 44.19032
#
# Velocity S-wave (km/s) = 3.70862 4.23525 3.98065
# Velocity P-wave (km/s) = 5.22102 6.10362 5.67949
#
# Compressibility (1/GPa) = 0.04019650
#
# Stress axis : x y z
#
# Youngs Moduli (GPa) = 74.29482 48.05446 147.86241
#
# Poissons Ratio (x) = -0.19689 0.29409
# Poissons Ratio (y) = -0.30440 0.37356
# Poissons Ratio (z) = 0.14777 0.12140
#
# Static dielectric constant tensor:
#      x y z
#    x 2.563350 0.000000 -0.006230 
#    y 0.000000 2.313030 0.000000 
#    z -0.006230 0.000000 2.207860 
# 
# From -- ./inp_files/170657.got.cif
#   From: 2010.05.17/outbox.cif.g08.bks.cpg/sg15_86_cif.got.tgz:170657.got - 2010.06.03 18:47:42.
