data_PCOD9306129
_publ_section_title
;
Structure prediction by ZEFSAII (Michael W. Deem and Ramdas Pophale) SiO2 
 PCOD9306129
Probable space group: C 2/C
;
_chemical_formula_sum "Si O2"
_cell_formula_units_Z 48
_cell_length_a 16.558320
_cell_length_b 17.639075
_cell_length_c 19.557636
_cell_angle_alpha 90.000000
_cell_angle_beta 159.817560
_cell_angle_gamma 90.000000
_cell_volume 1970.792120
_symmetry_space_group_name_H-M "C 2/C"
_symmetry_group_IT_number 15
_symmetry_cell_setting 'monoclinic'
loop_
_space_group_symop_operation_xyz
x,y,z
-x,y,1/2-z
-x,-y,-z
x,-y,1/2+z
1/2+x,1/2+y,z
1/2-x,1/2+y,1/2-z
1/2-x,1/2-y,-z
1/2+x,1/2-y,1/2+z
loop_
_atom_site_type_symbol
_atom_site_label
_atom_site_fract_x
_atom_site_fract_y
_atom_site_fract_z
Si Si1 0.578646 0.173435 0.239683
Si Si2 0.755638 0.343315 0.132215
Si Si3 0.119497 0.433173 0.016141
Si Si4 0.603327 0.320599 0.166202
Si Si5 0.679641 0.570227 0.256544
Si Si6 0.738870 0.820752 0.566643
O O1 0.500000 0.205891 0.250000
O O2 0.584963 0.238322 0.186857
O O3 0.842960 0.145608 0.457606
O O4 0.410845 0.106424 0.080799
O O5 0.691470 0.319200 0.158822
O O6 0.707755 0.269845 0.046956
O O7 0.033384 0.356608 0.357732
O O8 0.582994 0.411386 0.975104
O O9 0.234295 0.372004 0.157902
O O10 0.278253 0.506728 0.152451
O O11 0.856716 0.450424 0.835708
O O12 0.774752 0.646252 0.367880
O O13 0.000000 0.838485 0.750000
#
# Coordination Sequence:
#
# PCOD9306129 Si02
#       6
#     8   8   8   8   8   8
#     4  12  25  42  69 108 143 184 242 303 365 425
#     4  12  23  41  74 104 140 193 249 296 360 438
#     4  11  25  45  70 102 144 186 245 302 357 432
#     4  12  23  41  72 102 137 192 243 294 357 439
#     4  11  25  45  69 101 142 192 241 303 359 433
#     4  12  25  42  69 108 146 185 242 311 367 432
#
# _framework density 24.355688000000001
#
# number of rings (size 3 to 8) (size 9 to 14) (size 15 to 20)
#    0.000    0.333    6.667    3.000    0.000    2.000 
#    3.000    0.000    0.000    0.000    0.000    0.000 
#    0.000    0.000    0.000    0.000    0.000    0.000 
#
# Total GULP energy -134422.193519 kJ/mol
# GULP energy per Si atom -5600.924730 kJ/mol
# Density = 2.430025 g / cm^3
# Si number density = 24.355688 Si / 1000 Ang^3
#
#
#
# Elastic Constant Matrix: (Units=GPa)
#
#
# Indices 1 2 3 4 5 6 
#
# 1 75.1705 15.5353 34.3647 0.0166 -1.9944 -0.0028
# 2 15.5353 68.0637 50.6858 0.1526 8.9428 -0.0018
# 3 34.3647 50.6858 204.0808 0.1341 3.5304 -0.0728
# 4 0.0166 0.1526 0.1341 40.7892 -0.0525 -3.5379
# 5 -1.9944 8.9428 3.5304 -0.0525 26.6320 -0.0163
# 6 -0.0028 -0.0018 -0.0728 -3.5379 -0.0163 10.6835
#
#
#
# Elastic Compliance Matrix: (Units=1/GPa)
#
#
# Indices 1 2 3 4 5 6 
#
# 1 0.014708 -0.002160 -0.001976 0.000011 0.002089 -0.000003
# 2 -0.002160 0.019176 -0.004294 -0.000070 -0.006032 -0.000059
# 3 -0.001976 -0.004294 0.006291 0.000000 0.000460 0.000043
# 4 0.000011 -0.000070 0.000000 0.025242 0.000079 0.008359
# 5 0.002089 -0.006032 0.000460 0.000079 0.039670 0.000089
# 6 -0.000003 -0.000059 0.000043 0.008359 0.000089 0.096371
#
#
# Mechanical properties :
#
#
# Convention : Reuss Voigt Hill
#
# Bulk Modulus (GPa) = 42.89224 60.94292 51.91758
# Shear Modulus (GPa) = 22.11499 32.06955 27.09227
#
# Velocity S-wave (km/s) = 3.01657 3.63260 3.33882
# Velocity P-wave (km/s) = 5.45729 6.53228 6.01883
#
# Compressibility (1/GPa) = 0.02331424
#
# Stress axis : x y z
#
# Youngs Moduli (GPa) = 67.98832 52.14928 158.94545
#
# Poissons Ratio (x) = 0.11263 0.31415
# Poissons Ratio (y) = 0.14684 0.68259
# Poissons Ratio (z) = 0.13438 0.22395
#
# Static dielectric constant tensor:
#      x y z
#    x 1.969010 -0.000010 0.014460 
#    y -0.000010 1.962360 -0.000080 
#    z 0.014460 -0.000080 1.941070 
# 
# From -- ./inp_files/249765.got.cif
#   From: 2010.05.17/outbox.cif.g08.bks.cpg/sg15_125_cif.got.tgz:249765.got - 2010.06.03 18:47:42.
