data_PCOD9306050
_publ_section_title
;
Structure prediction by ZEFSAII (Michael W. Deem and Ramdas Pophale) SiO2 
 PCOD9306050
Probable space group: C 2/C
;
_chemical_formula_sum "Si O2"
_cell_formula_units_Z 48
_cell_length_a 22.835739
_cell_length_b 11.768083
_cell_length_c 12.866781
_cell_angle_alpha 90.000000
_cell_angle_beta 44.480399
_cell_angle_gamma 90.000000
_cell_volume 2422.709053
_symmetry_space_group_name_H-M "C 2/C"
_symmetry_group_IT_number 15
_symmetry_cell_setting 'monoclinic'
loop_
_space_group_symop_operation_xyz
x,y,z
-x,y,1/2-z
-x,-y,-z
x,-y,1/2+z
1/2+x,1/2+y,z
1/2-x,1/2+y,1/2-z
1/2-x,1/2-y,-z
1/2+x,1/2-y,1/2+z
loop_
_atom_site_type_symbol
_atom_site_label
_atom_site_fract_x
_atom_site_fract_y
_atom_site_fract_z
Si Si1 0.462632 0.907175 0.682888
Si Si2 0.714817 0.476046 0.271167
Si Si3 0.188833 0.825866 0.647692
Si Si4 0.901868 0.997312 0.387263
Si Si5 0.165919 0.205317 0.659424
Si Si6 0.883677 0.395330 0.170160
O O1 0.500000 0.895319 0.750000
O O2 0.397137 0.807934 0.738417
O O3 0.541827 0.902736 0.506642
O O4 0.412931 0.025141 0.728447
O O5 0.728085 0.587904 0.182870
O O6 0.638388 0.496225 0.447569
O O7 0.690582 0.370868 0.227380
O O8 0.798060 0.444816 0.229844
O O9 0.250000 0.750000 0.500000
O O10 0.140511 0.906301 0.629345
O O11 0.131483 0.734057 0.778151
O O12 0.000000 0.011950 0.250000
O O13 0.877817 0.877282 0.367705
O O14 0.250000 0.250000 0.500000
#
# Coordination Sequence:
#
# PCOD9306050 Si02
#       6
#     8   8   8   8   8   8
#     4  11  26  44  70 100 137 174 227 283 341 406
#     4  11  26  44  71  98 136 180 232 277 337 414
#     4  11  26  45  68  98 138 176 228 278 344 404
#     4  11  26  43  68 102 136 179 226 280 343 402
#     4  11  25  43  71 100 135 179 227 278 340 407
#     4  11  26  45  69 101 131 182 227 281 344 404
#
# _framework density 19.812532000000001
#
# number of rings (size 3 to 8) (size 9 to 14) (size 15 to 20)
#    0.000    1.000    1.667    2.500   16.333    2.000 
#    0.000    0.000    0.000    0.000    0.000    0.000 
#    0.000    0.000    0.000    0.000    0.000    0.000 
#
# Total GULP energy -134211.584581 kJ/mol
# GULP energy per Si atom -5592.149358 kJ/mol
# Density = 1.976744 g / cm^3
# Si number density = 19.812532 Si / 1000 Ang^3
#
#
#
# Elastic Constant Matrix: (Units=GPa)
#
#
# Indices 1 2 3 4 5 6 
#
# 1 51.9090 12.9232 25.6994 0.0000 -4.4671 0.0000
# 2 12.9232 95.5071 9.1577 0.0000 -0.5570 0.0000
# 3 25.6994 9.1577 98.7205 0.0000 -12.3965 0.0000
# 4 0.0000 0.0000 0.0000 38.5209 0.0000 -8.4736
# 5 -4.4671 -0.5570 -12.3965 0.0000 29.8398 0.0000
# 6 0.0000 0.0000 0.0000 -8.4736 0.0000 6.8843
#
#
#
# Elastic Compliance Matrix: (Units=1/GPa)
#
#
# Indices 1 2 3 4 5 6 
#
# 1 0.022735 -0.002538 -0.005551 0.000000 0.001050 0.000000
# 2 -0.002538 0.010849 -0.000388 0.000000 -0.000339 0.000000
# 3 -0.005551 -0.000388 0.012139 0.000000 0.004205 0.000000
# 4 0.000000 0.000000 0.000000 0.035598 0.000000 0.043817
# 5 0.001050 -0.000339 0.004205 0.000000 0.035410 0.000000
# 6 0.000000 0.000000 0.000000 0.043817 0.000000 0.199189
#
#
# Mechanical properties :
#
#
# Convention : Reuss Voigt Hill
#
# Bulk Modulus (GPa) = 34.76079 37.96637 36.36358
# Shear Modulus (GPa) = 14.60007 28.27276 21.43641
#
# Velocity S-wave (km/s) = 2.71756 3.78168 3.29289
# Velocity P-wave (km/s) = 5.23734 6.18648 5.73159
#
# Compressibility (1/GPa) = 0.02876804
#
# Stress axis : x y z
#
# Youngs Moduli (GPa) = 43.98508 92.17372 82.38093
#
# Poissons Ratio (x) = 0.23393 0.45731
# Poissons Ratio (y) = 0.11163 0.03199
# Poissons Ratio (z) = 0.24417 0.03579
#
# Static dielectric constant tensor:
#      x y z
#    x 1.667950 0.000000 0.027350 
#    y 0.000000 1.695880 0.000000 
#    z 0.027350 0.000000 1.665000 
# 
# From -- ./inp_files/111427.got.cif
#   From: 2010.05.17/outbox.cif.g08.bks.cpg/sg15_56_cif.got.tgz:111427.got - 2010.06.03 18:47:42.
