data_PCOD9306327
_publ_section_title
;
Structure prediction by ZEFSAII (Michael W. Deem and Ramdas Pophale) SiO2 
 PCOD9306327
Probable space group: C 2/C
;
_chemical_formula_sum "Si O2"
_cell_formula_units_Z 36
_cell_length_a 21.153501
_cell_length_b 6.708422
_cell_length_c 22.837826
_cell_angle_alpha 90.000000
_cell_angle_beta 149.536498
_cell_angle_gamma 90.000000
_cell_volume 1643.070746
_symmetry_space_group_name_H-M "C 2/C"
_symmetry_group_IT_number 15
_symmetry_cell_setting 'monoclinic'
loop_
_space_group_symop_operation_xyz
x,y,z
-x,y,1/2-z
-x,-y,-z
x,-y,1/2+z
1/2+x,1/2+y,z
1/2-x,1/2+y,1/2-z
1/2-x,1/2-y,-z
1/2+x,1/2-y,1/2+z
loop_
_atom_site_type_symbol
_atom_site_label
_atom_site_fract_x
_atom_site_fract_y
_atom_site_fract_z
Si Si1 0.084911 0.200793 0.560182
Si Si2 0.182065 0.645090 0.830905
Si Si3 0.500000 0.443421 0.750000
Si Si4 0.346721 0.340444 0.032929
Si Si5 0.008122 0.537857 0.101285
O O1 0.227133 0.192850 0.651258
O O2 0.019818 0.342422 0.459420
O O3 0.087216 0.315328 0.623629
O O4 0.000000 0.000000 0.500000
O O5 0.115141 0.810470 0.817616
O O6 0.071151 0.520566 0.712541
O O7 0.276515 0.518598 0.945191
O O8 0.541228 0.573984 0.838540
O O9 0.387643 0.169678 0.020580
O O10 0.250000 0.250000 0.000000
#
# Coordination Sequence:
#
# PCOD9306327 Si02
#       5
#     8   8   4   8   8
#     4  11  25  47  67 103 141 183 233 293 352 425
#     4  12  25  43  72  98 143 182 234 291 359 420
#     4  12  26  44  72 106 140 188 242 294 360 428
#     4  12  24  45  69 101 144 182 237 296 352 425
#     4  11  26  43  71 103 137 183 238 283 357 421
#
# _framework density 21.910195999999999
#
# number of rings (size 3 to 8) (size 9 to 14) (size 15 to 20)
#    0.000    0.444    2.222    6.000    3.111    0.000 
#    0.000    0.000    0.000    0.000    0.000    0.000 
#    0.000    0.000    0.000    0.000    0.000    0.000 
#
# Total GULP energy -100589.079128 kJ/mol
# GULP energy per Si atom -5588.282174 kJ/mol
# Density = 2.186033 g / cm^3
# Si number density = 21.910196 Si / 1000 Ang^3
#
#
#
# Elastic Constant Matrix: (Units=GPa)
#
#
# Indices 1 2 3 4 5 6 
#
# 1 124.6518 37.9108 -29.4045 0.0000 20.9400 0.0001
# 2 37.9108 106.0411 12.0050 0.0001 3.0428 0.0004
# 3 -29.4045 12.0050 45.1117 0.0000 -15.4258 0.0000
# 4 0.0000 0.0001 0.0000 34.9769 0.0000 9.6272
# 5 20.9400 3.0428 -15.4258 0.0000 43.6069 0.0000
# 6 0.0001 0.0004 0.0000 9.6272 0.0000 54.3951
#
#
#
# Elastic Compliance Matrix: (Units=1/GPa)
#
#
# Indices 1 2 3 4 5 6 
#
# 1 0.011965 -0.005151 0.008337 0.000000 -0.002437 0.000000
# 2 -0.005151 0.012069 -0.006839 0.000000 -0.000788 0.000000
# 3 0.008337 -0.006839 0.032098 0.000000 0.007829 0.000000
# 4 0.000000 0.000000 0.000000 0.030054 0.000000 -0.005319
# 5 -0.002437 -0.000788 0.007829 0.000000 0.026927 0.000000
# 6 0.000000 0.000000 0.000000 -0.005319 0.000000 0.019325
#
#
# Mechanical properties :
#
#
# Convention : Reuss Voigt Hill
#
# Bulk Modulus (GPa) = 20.48166 35.20302 27.84234
# Shear Modulus (GPa) = 32.04703 43.61533 37.83118
#
# Velocity S-wave (km/s) = 3.82861 4.46650 4.15980
# Velocity P-wave (km/s) = 5.37705 6.53463 5.98390
#
# Compressibility (1/GPa) = 0.04882418
#
# Stress axis : x y z
#
# Youngs Moduli (GPa) = 83.57696 82.85794 31.15464
#
# Poissons Ratio (x) = 0.42684 -0.25972
# Poissons Ratio (y) = 0.43054 0.21306
# Poissons Ratio (z) = -0.69674 0.56665
#
# Static dielectric constant tensor:
#      x y z
#    x 1.685390 0.000000 0.070710 
#    y 0.000000 1.815840 0.000000 
#    z 0.070710 0.000000 1.776860 
# 
# From -- ./inp_files/115613.got.cif
#   From: 2010.05.17/outbox.cif.g08.bks.cpg/sg15_58_cif.got.tgz:115613.got - 2010.06.03 18:47:42.
