data_PCOD9306912
_publ_section_title
;
Structure prediction by ZEFSAII (Michael W. Deem and Ramdas Pophale) SiO2 
 PCOD9306912
Probable space group: C 2/C
;
_chemical_formula_sum "Si O2"
_cell_formula_units_Z 36
_cell_length_a 16.317028
_cell_length_b 9.488150
_cell_length_c 8.980209
_cell_angle_alpha 90.000000
_cell_angle_beta 62.014133
_cell_angle_gamma 90.000000
_cell_volume 1227.724479
_symmetry_space_group_name_H-M "C 2/C"
_symmetry_group_IT_number 15
_symmetry_cell_setting 'monoclinic'
loop_
_space_group_symop_operation_xyz
x,y,z
-x,y,1/2-z
-x,-y,-z
x,-y,1/2+z
1/2+x,1/2+y,z
1/2-x,1/2+y,1/2-z
1/2-x,1/2-y,-z
1/2+x,1/2-y,1/2+z
loop_
_atom_site_type_symbol
_atom_site_label
_atom_site_fract_x
_atom_site_fract_y
_atom_site_fract_z
Si Si1 0.598166 0.772405 0.440095
Si Si2 0.500000 0.296428 0.750000
Si Si3 0.378851 0.432263 0.324250
Si Si4 0.667604 0.999825 0.087872
Si Si5 0.312506 0.202276 0.167185
O O1 0.524758 0.798210 0.372144
O O2 0.576546 0.642132 0.569298
O O3 0.599330 0.900545 0.555164
O O4 0.705027 0.745168 0.291396
O O5 0.578226 0.414861 0.722213
O O6 0.165377 0.657384 0.520855
O O7 0.372024 0.330924 0.185530
O O8 0.771681 0.045911 0.955701
O O9 0.664961 0.059939 0.257445
#
# Coordination Sequence:
#
# PCOD9306912 Si02
#       5
#     8   4   8   8   8
#     4   9  19  32  51  76 108 138 167 215 266 301
#     4  12  18  32  54  78 104 130 182 210 254 316
#     4   9  19  32  51  76 108 138 167 215 266 301
#     4   9  17  35  55  76 104 139 176 211 255 308
#     4   9  17  35  55  76 104 139 176 211 255 308
#
# _framework density 29.322538000000002
#
# number of rings (size 3 to 8) (size 9 to 14) (size 15 to 20)
#    0.000    2.667    2.222    3.333    0.000    0.000 
#    0.000   10.000    0.000    5.333    0.000    0.000 
#    0.000    0.000    0.000    0.000    0.000    0.000 
#
# Total GULP energy -100740.872594 kJ/mol
# GULP energy per Si atom -5596.715144 kJ/mol
# Density = 2.925580 g / cm^3
# Si number density = 29.322538 Si / 1000 Ang^3
#
#
#
# Elastic Constant Matrix: (Units=GPa)
#
#
# Indices 1 2 3 4 5 6 
#
# 1 153.6768 34.8302 33.8706 0.0000 39.7418 0.0000
# 2 34.8302 113.1792 35.2755 0.0000 22.6954 0.0000
# 3 33.8706 35.2755 115.0030 0.0000 34.3304 0.0000
# 4 0.0000 0.0000 0.0000 56.1517 0.0000 18.1806
# 5 39.7418 22.6954 34.3304 0.0000 56.9923 0.0000
# 6 0.0000 0.0000 0.0000 18.1806 0.0000 39.7466
#
#
#
# Elastic Compliance Matrix: (Units=1/GPa)
#
#
# Indices 1 2 3 4 5 6 
#
# 1 0.008190 -0.001381 -0.000546 0.000000 -0.004832 0.000000
# 2 -0.001381 0.010314 -0.002217 0.000000 -0.001809 0.000000
# 3 -0.000546 -0.002217 0.011167 0.000000 -0.005463 0.000000
# 4 0.000000 0.000000 0.000000 0.020905 0.000000 -0.009562
# 5 -0.004832 -0.001809 -0.005463 0.000000 0.024927 0.000000
# 6 0.000000 0.000000 0.000000 -0.009562 0.000000 0.029533
#
#
# Mechanical properties :
#
#
# Convention : Reuss Voigt Hill
#
# Bulk Modulus (GPa) = 46.76606 65.53461 56.15033
# Shear Modulus (GPa) = 41.50997 49.10363 45.30680
#
# Velocity S-wave (km/s) = 3.76657 4.09663 3.93506
# Velocity P-wave (km/s) = 5.90758 6.69138 6.31166
#
# Compressibility (1/GPa) = 0.02138303
#
# Stress axis : x y z
#
# Youngs Moduli (GPa) = 122.09692 96.95250 89.54871
#
# Poissons Ratio (x) = 0.13392 0.04889
# Poissons Ratio (y) = 0.16866 0.19853
# Poissons Ratio (z) = 0.06666 0.21495
#
# Static dielectric constant tensor:
#      x y z
#    x 2.447980 0.000000 -0.161710 
#    y 0.000000 2.310250 0.000000 
#    z -0.161710 0.000000 2.413360 
# 
# From -- ./inp_files/85063.got.cif
#   From: 2010.05.17/outbox.cif.g08.bks.cpg/sg15_43_cif.got.tgz:85063.got - 2010.06.03 18:47:42.
