data_PCOD9306793
_publ_section_title
;
Structure prediction by ZEFSAII (Michael W. Deem and Ramdas Pophale) SiO2 
 PCOD9306793
Probable space group: C 2/C
;
_chemical_formula_sum "Si O2"
_cell_formula_units_Z 36
_cell_length_a 22.646626
_cell_length_b 7.106460
_cell_length_c 12.228611
_cell_angle_alpha 90.000000
_cell_angle_beta 42.843794
_cell_angle_gamma 90.000000
_cell_volume 1338.271103
_symmetry_space_group_name_H-M "C 2/C"
_symmetry_group_IT_number 15
_symmetry_cell_setting 'monoclinic'
loop_
_space_group_symop_operation_xyz
x,y,z
-x,y,1/2-z
-x,-y,-z
x,-y,1/2+z
1/2+x,1/2+y,z
1/2-x,1/2+y,1/2-z
1/2-x,1/2-y,-z
1/2+x,1/2-y,1/2+z
loop_
_atom_site_type_symbol
_atom_site_label
_atom_site_fract_x
_atom_site_fract_y
_atom_site_fract_z
Si Si1 0.578738 0.250436 0.841072
Si Si2 0.893998 0.804429 0.171471
Si Si3 0.500000 0.037959 0.750000
Si Si4 0.749238 0.685958 0.208729
Si Si5 0.666324 0.830185 0.513815
O O1 0.589302 0.475878 0.829765
O O2 0.555649 0.167335 0.755154
O O3 0.675708 0.187592 0.747266
O O4 0.488607 0.213309 0.027300
O O5 0.839710 0.764628 0.134206
O O6 0.845227 0.722815 0.344319
O O7 0.572341 0.900007 0.603444
O O8 0.772392 0.506922 0.102643
O O9 0.696595 0.659744 0.395011
#
# Coordination Sequence:
#
# PCOD9306793 Si02
#       5
#     8   8   4   8   8
#     4  11  27  49  83 112 161 202 266 327 392 469
#     4  11  26  53  77 118 156 210 260 326 395 467
#     4  12  28  50  78 120 150 216 260 324 400 462
#     4  12  26  50  78 117 154 208 262 324 386 472
#     4  12  28  48  81 113 164 200 266 323 387 473
#
# _framework density 26.900379000000001
#
# number of rings (size 3 to 8) (size 9 to 14) (size 15 to 20)
#    0.000    0.444    4.444    2.000    3.111    8.889 
#    0.000    0.000    0.000    0.000    0.000    0.000 
#    0.000    0.000    0.000    0.000    0.000    0.000 
#
# Total GULP energy -100627.275437 kJ/mol
# GULP energy per Si atom -5590.404191 kJ/mol
# Density = 2.683915 g / cm^3
# Si number density = 26.900379 Si / 1000 Ang^3
#
#
#
# Elastic Constant Matrix: (Units=GPa)
#
#
# Indices 1 2 3 4 5 6 
#
# 1 251.2219 59.6366 66.8659 -0.0002 -28.8237 0.0000
# 2 59.6366 108.5684 56.1929 -0.0009 -1.2554 0.0002
# 3 66.8659 56.1929 193.5504 -0.0001 -18.5046 0.0000
# 4 -0.0002 -0.0009 -0.0001 38.8118 -0.0001 -1.3666
# 5 -28.8237 -1.2554 -18.5046 -0.0001 53.5091 0.0000
# 6 0.0000 0.0002 0.0000 -1.3666 0.0000 47.6354
#
#
#
# Elastic Compliance Matrix: (Units=1/GPa)
#
#
# Indices 1 2 3 4 5 6 
#
# 1 0.005020 -0.002294 -0.000843 0.000000 0.002359 0.000000
# 2 -0.002294 0.011927 -0.002856 0.000000 -0.001944 0.000000
# 3 -0.000843 -0.002856 0.006450 0.000000 0.001710 0.000000
# 4 0.000000 0.000000 0.000000 0.025791 0.000000 0.000740
# 5 0.002359 -0.001944 0.001710 0.000000 0.020505 0.000000
# 6 0.000000 0.000000 0.000000 0.000740 0.000000 0.021014
#
#
# Mechanical properties :
#
#
# Convention : Reuss Voigt Hill
#
# Bulk Modulus (GPa) = 87.62987 102.08129 94.85558
# Shear Modulus (GPa) = 46.94993 52.70096 49.82544
#
# Velocity S-wave (km/s) = 4.18224 4.43099 4.30841
# Velocity P-wave (km/s) = 7.48117 8.01302 7.75166
#
# Compressibility (1/GPa) = 0.01141163
#
# Stress axis : x y z
#
# Youngs Moduli (GPa) = 199.20029 83.84626 155.03024
#
# Poissons Ratio (x) = 0.19235 0.13065
# Poissons Ratio (y) = 0.45698 0.44275
# Poissons Ratio (z) = 0.16787 0.23946
#
# Static dielectric constant tensor:
#      x y z
#    x 2.157460 0.000000 -0.014910 
#    y 0.000000 2.168600 0.000000 
#    z -0.014910 0.000000 2.165470 
# 
# From -- ./inp_files/151153.got.cif
#   From: 2010.05.17/outbox.cif.g08.bks.cpg/sg15_76_cif.got.tgz:151153.got - 2010.06.03 18:47:42.
