data_PCOD9306460
_publ_section_title
;
Structure prediction by ZEFSAII (Michael W. Deem and Ramdas Pophale) SiO2 
 PCOD9306460
Probable space group: C 2/C
;
_chemical_formula_sum "Si O2"
_cell_formula_units_Z 40
_cell_length_a 21.601114
_cell_length_b 14.647345
_cell_length_c 15.074806
_cell_angle_alpha 90.000000
_cell_angle_beta 161.294404
_cell_angle_gamma 90.000000
_cell_volume 1529.653984
_symmetry_space_group_name_H-M "C 2/C"
_symmetry_group_IT_number 15
_symmetry_cell_setting 'monoclinic'
loop_
_space_group_symop_operation_xyz
x,y,z
-x,y,1/2-z
-x,-y,-z
x,-y,1/2+z
1/2+x,1/2+y,z
1/2-x,1/2+y,1/2-z
1/2-x,1/2-y,-z
1/2+x,1/2-y,1/2+z
loop_
_atom_site_type_symbol
_atom_site_label
_atom_site_fract_x
_atom_site_fract_y
_atom_site_fract_z
Si Si1 0.247816 0.057329 0.803654
Si Si2 0.455863 0.292965 0.978704
Si Si3 0.280470 0.365334 0.423076
Si Si4 0.188293 0.491565 0.925162
Si Si5 0.307730 0.664749 0.462678
O O1 0.237184 0.062120 0.682685
O O2 0.103869 0.140583 0.630158
O O3 0.207580 0.996010 0.837980
O O4 0.478215 0.055184 0.133596
O O5 0.307177 0.231960 0.721791
O O6 0.337136 0.342779 0.896337
O O7 0.613681 0.217467 0.222753
O O8 0.167212 0.411071 0.350425
O O9 0.500000 0.357398 0.750000
O O10 0.312269 0.424123 0.031280
O O11 0.500000 0.720154 0.750000
#
# Coordination Sequence:
#
# PCOD9306460 Si02
#       5
#     8   8   8   8   8
#     4  11  25  48  80 113 150 206 266 323 394 467
#     4  12  25  43  74 118 154 204 261 326 389 468
#     4  12  28  50  76 115 167 210 256 324 392 478
#     4  11  25  49  80 116 153 202 268 336 395 456
#     4  12  22  40  75 113 153 196 264 332 390 447
#
# _framework density 26.149706999999999
#
# number of rings (size 3 to 8) (size 9 to 14) (size 15 to 20)
#    0.000    0.400    6.000    1.800    2.800    1.600 
#    0.000    0.000    4.400    0.000    0.000    0.000 
#    0.000    0.000    0.000    0.000    0.000    0.000 
#
# Total GULP energy -111535.398070 kJ/mol
# GULP energy per Si atom -5576.769904 kJ/mol
# Density = 2.609019 g / cm^3
# Si number density = 26.149707 Si / 1000 Ang^3
#
#
#
# Elastic Constant Matrix: (Units=GPa)
#
#
# Indices 1 2 3 4 5 6 
#
# 1 93.4480 23.6411 17.2007 0.0000 -16.8001 0.0000
# 2 23.6411 52.9009 34.3619 0.0000 -4.4408 0.0000
# 3 17.2007 34.3619 164.8391 0.0000 -15.5684 0.0001
# 4 0.0000 0.0000 0.0000 -35.2222 0.0000 -68.2525
# 5 -16.8001 -4.4408 -15.5684 0.0000 55.0289 0.0001
# 6 0.0000 0.0000 0.0001 -68.2525 0.0001 59.5694
#
#
#
# Elastic Compliance Matrix: (Units=1/GPa)
#
#
# Indices 1 2 3 4 5 6 
#
# 1 0.012683 -0.005470 0.000145 0.000000 0.003471 0.000000
# 2 -0.005470 0.024236 -0.004577 0.000000 -0.001009 0.000000
# 3 0.000145 -0.004577 0.007166 0.000000 0.001702 0.000000
# 4 0.000000 0.000000 0.000000 -0.008817 0.000000 -0.010102
# 5 0.003471 -0.001009 0.001702 0.000000 0.019632 0.000000
# 6 0.000000 0.000000 0.000000 -0.010102 0.000000 0.005213
#
#
# Mechanical properties :
#
#
# Convention : Reuss Voigt Hill
#
# Bulk Modulus (GPa) = 41.18565 51.28838 46.23701
# Shear Modulus (GPa) = 56.81074 31.60748 44.20911
#
# Velocity S-wave (km/s) = 4.66609 3.48043 4.11617
# Velocity P-wave (km/s) = 6.69432 5.98390 6.34906
#
# Compressibility (1/GPa) = 0.02428030
#
# Stress axis : x y z
#
# Youngs Moduli (GPa) = 78.84867 41.26085 139.54344
#
# Poissons Ratio (x) = 0.22571 -0.02021
# Poissons Ratio (y) = 0.43133 0.63864
# Poissons Ratio (z) = -0.01142 0.18884
#
# Static dielectric constant tensor:
#      x y z
#    x 2.269900 0.000000 -0.077590 
#    y 0.000000 2.098470 0.000000 
#    z -0.077590 0.000000 2.168900 
# 
# From -- ./inp_files/169238.got.cif
#   From: 2010.05.17/outbox.cif.g08.bks.cpg/sg15_85_cif.got.tgz:169238.got - 2010.06.03 18:47:42.
