data_PCOD9306635
_publ_section_title
;
Structure prediction by ZEFSAII (Michael W. Deem and Ramdas Pophale) SiO2 
 PCOD9306635
Probable space group: C 2/C
;
_chemical_formula_sum "Si O2"
_cell_formula_units_Z 40
_cell_length_a 13.934036
_cell_length_b 4.741400
_cell_length_c 20.431922
_cell_angle_alpha 90.000000
_cell_angle_beta 98.436420
_cell_angle_gamma 90.000000
_cell_volume 1335.265889
_symmetry_space_group_name_H-M "C 2/C"
_symmetry_group_IT_number 15
_symmetry_cell_setting 'monoclinic'
loop_
_space_group_symop_operation_xyz
x,y,z
-x,y,1/2-z
-x,-y,-z
x,-y,1/2+z
1/2+x,1/2+y,z
1/2-x,1/2+y,1/2-z
1/2-x,1/2-y,-z
1/2+x,1/2-y,1/2+z
loop_
_atom_site_type_symbol
_atom_site_label
_atom_site_fract_x
_atom_site_fract_y
_atom_site_fract_z
Si Si1 0.751353 0.622838 0.705312
Si Si2 0.902109 0.796201 0.559059
Si Si3 0.073544 0.973846 0.117962
Si Si4 0.949706 0.406353 0.680118
Si Si5 0.795046 0.433507 0.443727
O O1 0.791747 0.890442 0.748414
O O2 0.663611 0.723819 0.650069
O O3 0.835938 0.439744 0.681225
O O4 0.959137 0.586845 0.614214
O O5 0.865271 0.651575 0.489206
O O6 0.805904 0.912165 0.585539
O O7 0.982242 0.036426 0.559776
O O8 0.003077 0.890174 0.173152
O O9 0.643193 0.724989 0.096194
O O10 0.000000 0.524640 0.750000
O O11 0.750000 0.250000 0.500000
#
# Coordination Sequence:
#
# PCOD9306635 Si02
#       5
#     8   8   8   8   8
#     4  12  28  50  79 116 168 224 282 352 432 518
#     4  11  26  46  79 109 161 212 277 353 427 519
#     4  12  26  46  78 115 158 216 276 354 423 517
#     4  12  27  50  75 116 161 220 281 350 432 527
#     4  11  26  51  75 115 160 208 282 351 434 512
#
# _framework density 29.956576999999999
#
# number of rings (size 3 to 8) (size 9 to 14) (size 15 to 20)
#    0.000    0.400    2.000    5.400    5.600    7.200 
#    0.000    0.000    0.000    0.000    0.000    0.000 
#    0.000    0.000    0.000    0.000    0.000    0.000 
#
# Total GULP energy -111655.736140 kJ/mol
# GULP energy per Si atom -5582.786807 kJ/mol
# Density = 2.988839 g / cm^3
# Si number density = 29.956577 Si / 1000 Ang^3
#
#
#
# Elastic Constant Matrix: (Units=GPa)
#
#
# Indices 1 2 3 4 5 6 
#
# 1 240.8419 44.3814 52.1004 0.0000 26.2998 0.0000
# 2 44.3814 137.6310 18.8775 0.0000 -10.7947 0.0000
# 3 52.1004 18.8775 127.1493 0.0000 24.0979 0.0000
# 4 0.0000 0.0000 0.0000 46.1062 0.0000 -2.3806
# 5 26.2998 -10.7947 24.0979 0.0000 65.6735 0.0000
# 6 0.0000 0.0000 0.0000 -2.3806 0.0000 54.8190
#
#
#
# Elastic Compliance Matrix: (Units=1/GPa)
#
#
# Indices 1 2 3 4 5 6 
#
# 1 0.004936 -0.001521 -0.001477 0.000000 -0.001685 0.000000
# 2 -0.001521 0.008076 -0.001013 0.000000 0.002308 0.000000
# 3 -0.001477 -0.001013 0.009178 0.000000 -0.002943 0.000000
# 4 0.000000 0.000000 0.000000 0.021738 0.000000 0.000944
# 5 -0.001685 0.002308 -0.002943 0.000000 0.017361 0.000000
# 6 0.000000 0.000000 0.000000 0.000944 0.000000 0.018283
#
#
# Mechanical properties :
#
#
# Convention : Reuss Voigt Hill
#
# Bulk Modulus (GPa) = 70.58707 81.81562 76.20135
# Shear Modulus (GPa) = 54.16055 59.33726 56.74890
#
# Velocity S-wave (km/s) = 4.25663 4.45542 4.35716
# Velocity P-wave (km/s) = 6.91179 7.33746 7.12781
#
# Compressibility (1/GPa) = 0.01416690
#
# Stress axis : x y z
#
# Youngs Moduli (GPa) = 202.59394 123.81797 108.95230
#
# Poissons Ratio (x) = 0.18835 0.16097
# Poissons Ratio (y) = 0.30818 0.11040
# Poissons Ratio (z) = 0.29932 0.12546
#
# Static dielectric constant tensor:
#      x y z
#    x 2.295220 0.000000 -0.155290 
#    y 0.000000 2.783150 0.000000 
#    z -0.155290 0.000000 2.427480 
# 
# From -- ./inp_files/246230.got.cif
#   From: 2010.05.17/outbox.cif.g08.bks.cpg/sg15_124_cif.got.tgz:246230.got - 2010.06.03 18:47:42.
