data_PCOD9306325
_publ_section_title
;
Structure prediction by ZEFSAII (Michael W. Deem and Ramdas Pophale) SiO2 
 PCOD9306325
Probable space group: C 2/C
;
_chemical_formula_sum "Si O2"
_cell_formula_units_Z 44
_cell_length_a 14.125064
_cell_length_b 18.582443
_cell_length_c 9.241212
_cell_angle_alpha 90.000000
_cell_angle_beta 37.824162
_cell_angle_gamma 90.000000
_cell_volume 1487.485677
_symmetry_space_group_name_H-M "C 2/C"
_symmetry_group_IT_number 15
_symmetry_cell_setting 'monoclinic'
loop_
_space_group_symop_operation_xyz
x,y,z
-x,y,1/2-z
-x,-y,-z
x,-y,1/2+z
1/2+x,1/2+y,z
1/2-x,1/2+y,1/2-z
1/2-x,1/2-y,-z
1/2+x,1/2-y,1/2+z
loop_
_atom_site_type_symbol
_atom_site_label
_atom_site_fract_x
_atom_site_fract_y
_atom_site_fract_z
Si Si1 0.201275 0.598431 0.448581
Si Si2 0.500000 0.668186 0.750000
Si Si3 0.799636 0.500265 0.811450
Si Si4 0.500000 0.106817 0.250000
Si Si5 0.166449 0.720004 0.844051
Si Si6 0.434470 0.607056 0.530268
Si Si7 0.000000 0.276167 0.250000
O O1 0.146178 0.571495 0.670932
O O2 0.151436 0.539139 0.392846
O O3 0.386372 0.603319 0.229195
O O4 0.126143 0.674332 0.513493
O O5 0.369578 0.717135 0.990247
O O6 0.435896 0.617421 0.701640
O O7 0.638508 0.534384 0.946574
O O8 0.860256 0.440418 0.852367
O O9 0.568775 0.156228 0.040208
O O10 0.329752 0.677976 0.615330
O O11 0.097927 0.746395 0.774090
#
# Coordination Sequence:
#
# PCOD9306325 Si02
#       7
#     8   4   8   4   8   8   4
#     4  12  28  46  75 120 169 213 260 329 408 491
#     4  11  30  56  85 110 151 231 276 342 398 483
#     4  12  26  46  78 120 172 215 257 330 405 500
#     4  11  25  46  84 126 164 221 259 322 414 501
#     4  11  26  53  85 115 161 210 286 330 404 481
#     4  12  28  48  79 117 160 208 277 338 400 474
#     4  12  25  50  81 124 155 212 269 342 406 480
#
# _framework density 29.580117999999999
#
# number of rings (size 3 to 8) (size 9 to 14) (size 15 to 20)
#    0.000    0.364    3.636    3.273    5.091    5.091 
#    3.273    1.818    0.000    0.000    0.000    0.000 
#    0.000    0.000    0.000    0.000    0.000    0.000 
#
# Total GULP energy -122915.485480 kJ/mol
# GULP energy per Si atom -5587.067522 kJ/mol
# Density = 2.951279 g / cm^3
# Si number density = 29.580118 Si / 1000 Ang^3
#
#
#
# Elastic Constant Matrix: (Units=GPa)
#
#
# Indices 1 2 3 4 5 6 
#
# 1 198.3154 71.3300 100.0283 -0.0012 3.4379 -0.0006
# 2 71.3300 126.4594 58.2087 -0.0003 8.6892 -0.0001
# 3 100.0283 58.2087 173.4812 0.0000 5.4470 0.0003
# 4 -0.0012 -0.0003 0.0000 24.9604 0.0001 -1.8509
# 5 3.4379 8.6892 5.4470 0.0001 80.4119 -0.0009
# 6 -0.0006 -0.0001 0.0003 -1.8509 -0.0009 67.3390
#
#
#
# Elastic Compliance Matrix: (Units=1/GPa)
#
#
# Indices 1 2 3 4 5 6 
#
# 1 0.007859 -0.002789 -0.003602 0.000000 0.000209 0.000000
# 2 -0.002789 0.010394 -0.001852 0.000000 -0.000878 0.000000
# 3 -0.003602 -0.001852 0.008469 0.000000 -0.000220 0.000000
# 4 0.000000 0.000000 0.000000 0.040145 0.000000 0.001103
# 5 0.000209 -0.000878 -0.000220 0.000000 0.012537 0.000000
# 6 0.000000 0.000000 0.000000 0.001103 0.000000 0.014881
#
#
# Mechanical properties :
#
#
# Convention : Reuss Voigt Hill
#
# Bulk Modulus (GPa) = 97.69301 106.37666 102.03484
# Shear Modulus (GPa) = 43.78960 52.45488 48.12224
#
# Velocity S-wave (km/s) = 3.85174 4.21564 4.03779
# Velocity P-wave (km/s) = 7.27182 7.72890 7.50384
#
# Compressibility (1/GPa) = 0.01023615
#
# Stress axis : x y z
#
# Youngs Moduli (GPa) = 127.24367 96.21330 118.07166
#
# Poissons Ratio (x) = 0.26836 0.42531
# Poissons Ratio (y) = 0.35491 0.21862
# Poissons Ratio (z) = 0.45835 0.17815
#
# Static dielectric constant tensor:
#      x y z
#    x 2.382770 0.000000 -0.047410 
#    y 0.000000 2.283160 0.000000 
#    z -0.047410 0.000000 2.416220 
# 
# From -- ./inp_files/40248.got.cif
#   From: 2010.05.17/outbox.cif.g08.bks.cpg/sg15_21_cif.got.tgz:40248.got - 2010.06.03 18:47:42.
