data_PCOD9306236
_publ_section_title
;
Structure prediction by ZEFSAII (Michael W. Deem and Ramdas Pophale) SiO2 
 PCOD9306236
Probable space group: C 2/C
;
_chemical_formula_sum "Si O2"
_cell_formula_units_Z 44
_cell_length_a 18.408836
_cell_length_b 8.833487
_cell_length_c 17.854724
_cell_angle_alpha 90.000000
_cell_angle_beta 44.041865
_cell_angle_gamma 90.000000
_cell_volume 2018.418803
_symmetry_space_group_name_H-M "C 2/C"
_symmetry_group_IT_number 15
_symmetry_cell_setting 'monoclinic'
loop_
_space_group_symop_operation_xyz
x,y,z
-x,y,1/2-z
-x,-y,-z
x,-y,1/2+z
1/2+x,1/2+y,z
1/2-x,1/2+y,1/2-z
1/2-x,1/2-y,-z
1/2+x,1/2-y,1/2+z
loop_
_atom_site_type_symbol
_atom_site_label
_atom_site_fract_x
_atom_site_fract_y
_atom_site_fract_z
Si Si1 0.146390 0.849820 0.568258
Si Si2 0.143096 0.610613 0.903991
Si Si3 0.126111 0.090419 0.713637
Si Si4 0.500000 0.152153 0.250000
Si Si5 0.990416 0.586230 0.889232
Si Si6 0.942471 0.072916 0.971526
O O1 0.250000 0.750000 0.500000
O O2 0.052287 0.735539 0.618972
O O3 0.131278 0.948388 0.654116
O O4 0.146773 0.966232 0.498005
O O5 0.266514 0.604041 0.821388
O O6 0.098482 0.608958 0.853057
O O7 0.092123 0.469178 0.986356
O O8 0.100758 0.764068 0.973409
O O9 0.100374 0.238573 0.683013
O O10 0.030323 0.082940 0.842077
O O11 0.503195 0.045866 0.175817
O O12 0.000000 0.000000 0.000000
#
# Coordination Sequence:
#
# PCOD9306236 Si02
#       6
#     8   8   8   4   8   8
#     4  12  25  46  74 107 145 190 250 307 372 432
#     4  11  25  49  73 101 150 194 243 297 368 442
#     4  12  26  49  75 107 149 198 243 304 380 438
#     4  12  26  44  74 104 146 186 246 300 368 432
#     4  11  25  46  69 106 144 184 247 304 353 444
#     4  12  26  50  71 109 155 194 244 311 369 448
#
# _framework density 21.799243000000001
#
# number of rings (size 3 to 8) (size 9 to 14) (size 15 to 20)
#    0.000    0.364    7.273    0.000    5.091    2.909 
#    3.273    0.000    0.000    0.000    0.000    0.000 
#    0.000    0.000    0.000    0.000    0.000    0.000 
#
# Total GULP energy -123195.195886 kJ/mol
# GULP energy per Si atom -5599.781631 kJ/mol
# Density = 2.174963 g / cm^3
# Si number density = 21.799243 Si / 1000 Ang^3
#
#
#
# Elastic Constant Matrix: (Units=GPa)
#
#
# Indices 1 2 3 4 5 6 
#
# 1 203.8307 55.9767 42.5870 0.0000 2.2721 0.0000
# 2 55.9767 118.8694 20.8928 0.0000 15.2108 0.0000
# 3 42.5870 20.8928 45.6105 0.0000 14.2904 0.0000
# 4 0.0000 0.0000 0.0000 11.2687 0.0000 -3.5513
# 5 2.2721 15.2108 14.2904 0.0000 33.0479 0.0000
# 6 0.0000 0.0000 0.0000 -3.5513 0.0000 48.2492
#
#
#
# Elastic Compliance Matrix: (Units=1/GPa)
#
#
# Indices 1 2 3 4 5 6 
#
# 1 0.006901 -0.002577 -0.006346 0.000000 0.003456 0.000000
# 2 -0.002577 0.010337 -0.001034 0.000000 -0.004133 0.000000
# 3 -0.006346 -0.001034 0.032432 0.000000 -0.013112 0.000000
# 4 0.000000 0.000000 0.000000 0.090849 0.000000 0.006687
# 5 0.003456 -0.004133 -0.013112 0.000000 0.037594 0.000000
# 6 0.000000 0.000000 0.000000 0.006687 0.000000 0.021218
#
#
# Mechanical properties :
#
#
# Convention : Reuss Voigt Hill
#
# Bulk Modulus (GPa) = 33.60644 67.46928 50.53786
# Shear Modulus (GPa) = 21.81867 35.10342 28.46105
#
# Velocity S-wave (km/s) = 3.16712 4.01721 3.61723
# Velocity P-wave (km/s) = 5.36880 7.24809 6.37804
#
# Compressibility (1/GPa) = 0.02975620
#
# Stress axis : x y z
#
# Youngs Moduli (GPa) = 144.90734 96.74385 30.83387
#
# Poissons Ratio (x) = 0.24926 0.19567
# Poissons Ratio (y) = 0.37336 0.03189
# Poissons Ratio (z) = 0.91957 0.10005
#
# Static dielectric constant tensor:
#      x y z
#    x 1.795030 0.000000 0.012800 
#    y 0.000000 1.802210 0.000000 
#    z 0.012800 0.000000 1.784670 
# 
# From -- ./inp_files/209421.got.cif
#   From: 2010.05.17/outbox.cif.g08.bks.cpg/sg15_105_cif.got.tgz:209421.got - 2010.06.03 18:47:42.
