data_PCOD9306313
_publ_section_title
;
Structure prediction by ZEFSAII (Michael W. Deem and Ramdas Pophale) SiO2 
 PCOD9306313
Probable space group: C 2/C
;
_chemical_formula_sum "Si O2"
_cell_formula_units_Z 40
_cell_length_a 9.246036
_cell_length_b 15.399798
_cell_length_c 17.639834
_cell_angle_alpha 90.000000
_cell_angle_beta 138.504678
_cell_angle_gamma 90.000000
_cell_volume 1664.138959
_symmetry_space_group_name_H-M "C 2/C"
_symmetry_group_IT_number 15
_symmetry_cell_setting 'monoclinic'
loop_
_space_group_symop_operation_xyz
x,y,z
-x,y,1/2-z
-x,-y,-z
x,-y,1/2+z
1/2+x,1/2+y,z
1/2-x,1/2+y,1/2-z
1/2-x,1/2-y,-z
1/2+x,1/2-y,1/2+z
loop_
_atom_site_type_symbol
_atom_site_label
_atom_site_fract_x
_atom_site_fract_y
_atom_site_fract_z
Si Si1 0.374552 0.638900 0.483739
Si Si2 0.836238 0.810706 0.134395
Si Si3 0.500000 0.585994 0.250000
Si Si4 0.500000 0.033550 0.250000
Si Si5 0.692749 0.647179 0.475427
Si Si6 0.361308 0.953479 0.341257
O O1 0.346057 0.743155 0.462523
O O2 0.393818 0.633119 0.582279
O O3 0.163797 0.587482 0.369139
O O4 0.571933 0.618223 0.505110
O O5 0.765880 0.872937 0.174157
O O6 0.000000 0.753232 0.250000
O O7 0.536068 0.637942 0.341425
O O8 0.724385 0.531971 0.324891
O O9 0.360618 0.974485 0.252392
O O10 0.750000 0.750000 0.500000
O O11 0.892587 0.579206 0.544684
#
# Coordination Sequence:
#
# PCOD9306313 Si02
#       6
#     8   8   4   4   8   8
#     4  11  26  48  76 111 153 204 263 311 384 469
#     4  11  25  46  77 109 153 207 255 313 389 465
#     4  12  28  50  76 114 164 196 258 330 388 458
#     4  12  28  46  76 112 158 196 252 326 392 454
#     4  12  28  49  79 115 153 208 263 319 382 471
#     4  12  28  46  76 116 151 201 251 323 396 443
#
# _framework density 24.036453999999999
#
# number of rings (size 3 to 8) (size 9 to 14) (size 15 to 20)
#    0.000    0.400    6.000    0.600    8.400    3.200 
#    0.000    0.000    0.000    0.000    0.000    0.000 
#    0.000    0.000    0.000    0.000    0.000    0.000 
#
# Total GULP energy -111532.375755 kJ/mol
# GULP energy per Si atom -5576.618788 kJ/mol
# Density = 2.398175 g / cm^3
# Si number density = 24.036454 Si / 1000 Ang^3
#
#
#
# Elastic Constant Matrix: (Units=GPa)
#
#
# Indices 1 2 3 4 5 6 
#
# 1 157.6767 36.9925 67.8662 0.0001 -17.5272 0.0000
# 2 36.9925 93.5944 52.6927 0.0000 -10.9994 0.0000
# 3 67.8662 52.6927 152.4945 0.0002 -24.5286 0.0001
# 4 0.0001 0.0000 0.0002 129.7270 0.0001 4.4940
# 5 -17.5272 -10.9994 -24.5286 0.0001 41.2315 0.0000
# 6 0.0000 0.0000 0.0001 4.4940 0.0000 22.7988
#
#
#
# Elastic Compliance Matrix: (Units=1/GPa)
#
#
# Indices 1 2 3 4 5 6 
#
# 1 0.008063 -0.001404 -0.002889 0.000000 0.001335 0.000000
# 2 -0.001404 0.013539 -0.003946 0.000000 0.000668 0.000000
# 3 -0.002889 -0.003946 0.009775 0.000000 0.003535 0.000000
# 4 0.000000 0.000000 0.000000 0.007761 0.000000 -0.001530
# 5 0.001335 0.000668 0.003535 0.000000 0.027101 0.000000
# 6 0.000000 0.000000 0.000000 -0.001530 0.000000 0.044163
#
#
# Mechanical properties :
#
#
# Convention : Reuss Voigt Hill
#
# Bulk Modulus (GPa) = 67.11226 79.87428 73.49327
# Shear Modulus (GPa) = 37.92234 55.16576 46.54405
#
# Velocity S-wave (km/s) = 3.97634 4.79590 4.40522
# Velocity P-wave (km/s) = 7.00452 7.99814 7.51776
#
# Compressibility (1/GPa) = 0.01490041
#
# Stress axis : x y z
#
# Youngs Moduli (GPa) = 124.02164 73.85861 102.29839
#
# Poissons Ratio (x) = 0.10368 0.29551
# Poissons Ratio (y) = 0.17409 0.40370
# Poissons Ratio (z) = 0.35826 0.29147
#
# Static dielectric constant tensor:
#      x y z
#    x 1.974150 0.000000 0.086890 
#    y 0.000000 1.957190 0.000000 
#    z 0.086890 0.000000 2.184010 
# 
# From -- ./inp_files/190722.got.cif
#   From: 2010.05.17/outbox.cif.g08.bks.cpg/sg15_96_cif.got.tgz:190722.got - 2010.06.03 18:47:42.
