data_PCOD9306275
_publ_section_title
;
Structure prediction by ZEFSAII (Michael W. Deem and Ramdas Pophale) SiO2 
 PCOD9306275
Probable space group: C 2/C
;
_chemical_formula_sum "Si O2"
_cell_formula_units_Z 52
_cell_length_a 9.153664
_cell_length_b 11.747540
_cell_length_c 25.337645
_cell_angle_alpha 90.000000
_cell_angle_beta 64.182079
_cell_angle_gamma 90.000000
_cell_volume 2452.667963
_symmetry_space_group_name_H-M "C 2/C"
_symmetry_group_IT_number 15
_symmetry_cell_setting 'monoclinic'
loop_
_space_group_symop_operation_xyz
x,y,z
-x,y,1/2-z
-x,-y,-z
x,-y,1/2+z
1/2+x,1/2+y,z
1/2-x,1/2+y,1/2-z
1/2-x,1/2-y,-z
1/2+x,1/2-y,1/2+z
loop_
_atom_site_type_symbol
_atom_site_label
_atom_site_fract_x
_atom_site_fract_y
_atom_site_fract_z
Si Si1 0.035068 0.597754 0.346987
Si Si2 0.750445 0.759155 0.436185
Si Si3 0.247100 0.217831 0.764819
Si Si4 0.500000 0.550308 0.750000
Si Si5 0.401420 0.718040 0.440550
Si Si6 0.574983 0.144583 0.666168
Si Si7 0.191114 0.987044 0.619084
O O1 0.152422 0.665957 0.288701
O O2 0.142065 0.557302 0.380382
O O3 0.889636 0.678219 0.389577
O O4 0.970534 0.486916 0.327340
O O5 0.750000 0.750000 0.500000
O O6 0.573306 0.721910 0.443085
O O7 0.785497 0.886914 0.408742
O O8 0.144302 0.131665 0.746221
O O9 0.423250 0.218993 0.710953
O O10 0.275594 0.168752 0.819037
O O11 0.565841 0.486317 0.688178
O O12 0.250000 0.750000 0.500000
O O13 0.398726 0.814683 0.396470
O O14 0.369679 0.598951 0.415999
#
# Coordination Sequence:
#
# PCOD9306275 Si02
#       7
#     8   8   8   4   8   8   8
#     4  12  25  47  75 105 152 193 243 309 368 446
#     4  12  29  49  77 113 145 199 260 308 379 454
#     4  11  25  46  72 111 148 191 249 298 379 446
#     4  12  24  46  74 112 154 190 248 304 384 442
#     4  12  28  49  77 108 150 200 255 311 380 448
#     4  11  26  47  72 112 148 197 248 307 375 450
#     4  12  27  50  76 107 156 200 241 323 374 450
#
# _framework density 21.201402000000002
#
# number of rings (size 3 to 8) (size 9 to 14) (size 15 to 20)
#    0.000    0.308    6.154    0.923    6.462    3.077 
#    0.000    0.000    0.000    0.000    0.000    0.000 
#    0.000    0.000    0.000    0.000    0.000    0.000 
#
# Total GULP energy -145543.661897 kJ/mol
# GULP energy per Si atom -5597.833150 kJ/mol
# Density = 2.115315 g / cm^3
# Si number density = 21.201402 Si / 1000 Ang^3
#
#
#
# Elastic Constant Matrix: (Units=GPa)
#
#
# Indices 1 2 3 4 5 6 
#
# 1 73.8311 41.4444 32.4299 0.0000 10.2438 0.0000
# 2 41.4444 143.8361 56.2768 0.0000 -15.4871 0.0000
# 3 32.4299 56.2768 144.4840 0.0000 -6.0128 0.0000
# 4 0.0000 0.0000 0.0000 31.3454 0.0000 6.6505
# 5 10.2438 -15.4871 -6.0128 0.0000 29.8801 0.0000
# 6 0.0000 0.0000 0.0000 6.6505 0.0000 32.9276
#
#
#
# Elastic Compliance Matrix: (Units=1/GPa)
#
#
# Indices 1 2 3 4 5 6 
#
# 1 0.019200 -0.005616 -0.002538 0.000000 -0.010004 0.000000
# 2 -0.005616 0.010257 -0.002454 0.000000 0.006748 0.000000
# 3 -0.002538 -0.002454 0.008501 0.000000 0.001309 0.000000
# 4 0.000000 0.000000 0.000000 0.033331 0.000000 -0.006732
# 5 -0.010004 0.006748 0.001309 0.000000 0.040658 0.000000
# 6 0.000000 0.000000 0.000000 -0.006732 0.000000 0.031729
#
#
# Mechanical properties :
#
#
# Convention : Reuss Voigt Hill
#
# Bulk Modulus (GPa) = 59.73103 69.16146 64.44625
# Shear Modulus (GPa) = 29.33003 34.29729 31.81366
#
# Velocity S-wave (km/s) = 3.72344 4.02641 3.87789
# Velocity P-wave (km/s) = 6.83518 7.36940 7.10731
#
# Compressibility (1/GPa) = 0.01674172
#
# Stress axis : x y z
#
# Youngs Moduli (GPa) = 52.08330 97.49208 117.63120
#
# Poissons Ratio (x) = 0.54754 0.29858
# Poissons Ratio (y) = 0.29251 0.28864
# Poissons Ratio (z) = 0.13220 0.23923
#
# Static dielectric constant tensor:
#      x y z
#    x 1.735470 0.000000 0.015130 
#    y 0.000000 1.762530 0.000000 
#    z 0.015130 0.000000 1.759730 
# 
# From -- ./inp_files/287892.got.cif
#   From: 2010.05.17/outbox.cif.g08.bks.cpg/sg15_144_cif.got.tgz:287892.got - 2010.06.03 18:47:42.
