data_PCOD9306680
_publ_section_title
;
Structure prediction by ZEFSAII (Michael W. Deem and Ramdas Pophale) SiO2 
 PCOD9306680
Probable space group: C 2/C
;
_chemical_formula_sum "Si O2"
_cell_formula_units_Z 56
_cell_length_a 9.172137
_cell_length_b 25.156748
_cell_length_c 10.565053
_cell_angle_alpha 90.000000
_cell_angle_beta 71.174605
_cell_angle_gamma 90.000000
_cell_volume 2307.385905
_symmetry_space_group_name_H-M "C 2/C"
_symmetry_group_IT_number 15
_symmetry_cell_setting 'monoclinic'
loop_
_space_group_symop_operation_xyz
x,y,z
-x,y,1/2-z
-x,-y,-z
x,-y,1/2+z
1/2+x,1/2+y,z
1/2-x,1/2+y,1/2-z
1/2-x,1/2-y,-z
1/2+x,1/2-y,1/2+z
loop_
_atom_site_type_symbol
_atom_site_label
_atom_site_fract_x
_atom_site_fract_y
_atom_site_fract_z
Si Si1 0.766750 0.660514 0.868490
Si Si2 0.180537 0.058140 0.740582
Si Si3 0.223454 0.384179 0.508968
Si Si4 0.356579 0.265589 0.705749
Si Si5 0.880362 0.649692 0.112874
Si Si6 0.662771 0.564660 0.273159
Si Si7 0.554159 0.707038 0.594164
O O1 0.745283 0.601383 0.820687
O O2 0.834641 0.705770 0.759340
O O3 0.593958 0.681532 0.931671
O O4 0.860350 0.663290 0.971523
O O5 0.284955 0.067684 0.587282
O O6 0.000000 0.067237 0.750000
O O7 0.189087 0.997841 0.784340
O O8 0.377633 0.262727 0.547978
O O9 0.322473 0.404962 0.598678
O O10 0.325228 0.339570 0.412732
O O11 0.500000 0.286727 0.750000
O O12 0.215006 0.304850 0.784310
O O13 0.793732 0.593815 0.156177
O O14 0.059257 0.639943 0.093414
O O15 0.500000 0.571830 0.250000
O O16 0.500000 0.726816 0.750000
#
# Coordination Sequence:
#
# PCOD9306680 Si02
#       7
#     8   8   8   8   8   8   8
#     4  12  26  49  77 116 152 213 265 321 399 473
#     4  11  26  48  76 114 158 210 268 327 394 480
#     4  12  25  49  76 117 166 197 272 331 403 474
#     4  12  28  49  83 114 159 213 273 325 392 486
#     4  12  27  48  78 118 157 209 266 334 404 465
#     4  11  26  47  82 112 153 213 263 332 394 480
#     4  12  25  51  78 111 160 208 271 328 393 472
#
# _framework density 24.269891000000001
#
# number of rings (size 3 to 8) (size 9 to 14) (size 15 to 20)
#    0.000    0.286    5.714    2.143    4.000    2.286 
#    7.714    0.000    0.000    0.000    0.000    0.000 
#    0.000    0.000    0.000    0.000    0.000    0.000 
#
# Total GULP energy -156696.825987 kJ/mol
# GULP energy per Si atom -5596.315214 kJ/mol
# Density = 2.421465 g / cm^3
# Si number density = 24.269891 Si / 1000 Ang^3
#
#
#
# Elastic Constant Matrix: (Units=GPa)
#
#
# Indices 1 2 3 4 5 6 
#
# 1 137.5263 65.3751 42.8159 0.0000 0.2612 0.0000
# 2 65.3751 156.1989 71.9013 0.0000 -1.4962 0.0000
# 3 42.8159 71.9013 177.6245 0.0000 10.0426 0.0000
# 4 0.0000 0.0000 0.0000 -319.7201 0.0000 -378.8951
# 5 0.2612 -1.4962 10.0426 0.0000 43.4464 0.0000
# 6 0.0000 0.0000 0.0000 -378.8951 0.0000 -378.6853
#
#
#
# Elastic Compliance Matrix: (Units=1/GPa)
#
#
# Indices 1 2 3 4 5 6 
#
# 1 0.009171 -0.003466 -0.000808 0.000000 0.000012 0.000000
# 2 -0.003466 0.009223 -0.002956 0.000000 0.001022 0.000000
# 3 -0.000808 -0.002956 0.007120 0.000000 -0.001743 0.000000
# 4 0.000000 0.000000 0.000000 0.016839 0.000000 -0.016849
# 5 0.000012 0.001022 -0.001743 0.000000 0.023455 0.000000
# 6 0.000000 0.000000 0.000000 -0.016849 0.000000 0.014217
#
#
# Mechanical properties :
#
#
# Convention : Reuss Voigt Hill
#
# Bulk Modulus (GPa) = 90.47034 92.39267 91.43151
# Shear Modulus (GPa) = 50.93245 -111.57464 -30.32109
#
# Velocity S-wave (km/s) = 4.58600 -6.78765 -3.53842
# Velocity P-wave (km/s) = 8.08700 4.82475 4.58919
#
# Compressibility (1/GPa) = 0.01105335
#
# Stress axis : x y z
#
# Youngs Moduli (GPa) = 109.04432 108.42276 140.45619
#
# Poissons Ratio (x) = 0.37580 0.11351
# Poissons Ratio (y) = 0.37796 0.41515
# Poissons Ratio (z) = 0.08813 0.32047
#
# Static dielectric constant tensor:
#      x y z
#    x 1.961320 0.000000 -0.012510 
#    y 0.000000 1.890910 0.000000 
#    z -0.012510 0.000000 2.016560 
# 
# From -- ./inp_files/88889.got.cif
#   From: 2010.05.17/outbox.cif.g08.bks.cpg/sg15_45_cif.got.tgz:88889.got - 2010.06.03 18:47:42.
