data_PCOD9306235
_publ_section_title
;
Structure prediction by ZEFSAII (Michael W. Deem and Ramdas Pophale) SiO2 
 PCOD9306235
Probable space group: C 2/C
;
_chemical_formula_sum "Si O2"
_cell_formula_units_Z 44
_cell_length_a 4.885346
_cell_length_b 25.052006
_cell_length_c 14.177845
_cell_angle_alpha 90.000000
_cell_angle_beta 108.084268
_cell_angle_gamma 90.000000
_cell_volume 1649.477233
_symmetry_space_group_name_H-M "C 2/C"
_symmetry_group_IT_number 15
_symmetry_cell_setting 'monoclinic'
loop_
_space_group_symop_operation_xyz
x,y,z
-x,y,1/2-z
-x,-y,-z
x,-y,1/2+z
1/2+x,1/2+y,z
1/2-x,1/2+y,1/2-z
1/2-x,1/2-y,-z
1/2+x,1/2-y,1/2+z
loop_
_atom_site_type_symbol
_atom_site_label
_atom_site_fract_x
_atom_site_fract_y
_atom_site_fract_z
Si Si1 0.104849 0.499804 0.904336
Si Si2 0.252281 0.766915 0.608007
Si Si3 0.209550 0.159867 0.357860
Si Si4 0.266896 0.646536 0.650725
Si Si5 0.000000 0.575243 0.750000
Si Si6 0.978718 0.911245 0.990845
O O1 0.882928 0.527983 0.809834
O O2 0.232365 0.441213 0.902515
O O3 0.371129 0.541765 0.932208
O O4 0.000000 0.500000 0.000000
O O5 0.250000 0.750000 0.500000
O O6 0.493511 0.813200 0.644311
O O7 0.278146 0.709757 0.660593
O O8 0.954195 0.790843 0.610340
O O9 0.000000 0.143002 0.250000
O O10 0.192710 0.115846 0.438652
O O11 0.500000 0.622946 0.750000
O O12 0.979128 0.620673 0.663282
O O13 0.339272 0.628049 0.553010
#
# Coordination Sequence:
#
# PCOD9306235 Si02
#       6
#     8   8   8   8   4   8
#     4  11  25  46  69 106 142 189 250 314 375 453
#     4  12  28  48  78 110 156 198 255 312 387 453
#     4  12  28  51  74 113 153 203 250 312 384 465
#     4  12  25  44  73 109 143 193 248 317 378 461
#     4  12  26  42  78 104 146 196 256 312 392 448
#     4  11  26  46  73 101 149 194 249 314 382 454
#
# _framework density 26.675117
#
# number of rings (size 3 to 8) (size 9 to 14) (size 15 to 20)
#    0.000    0.364    5.455    2.182    8.909    1.455 
#    0.000    0.000    0.000    0.000    0.000    0.000 
#    0.000    0.000    0.000    0.000    0.000    0.000 
#
# Total GULP energy -122736.811536 kJ/mol
# GULP energy per Si atom -5578.945979 kJ/mol
# Density = 2.661440 g / cm^3
# Si number density = 26.675117 Si / 1000 Ang^3
#
#
#
# Elastic Constant Matrix: (Units=GPa)
#
#
# Indices 1 2 3 4 5 6 
#
# 1 80.9362 32.7834 10.5475 0.0000 -10.7441 0.0000
# 2 32.7834 157.5698 20.7518 0.0000 -4.4681 0.0000
# 3 10.5475 20.7518 105.5589 0.0000 -15.7065 0.0000
# 4 0.0000 0.0000 0.0000 59.1726 0.0000 -9.7736
# 5 -10.7441 -4.4681 -15.7065 0.0000 42.4149 0.0000
# 6 0.0000 0.0000 0.0000 -9.7736 0.0000 38.2402
#
#
#
# Elastic Compliance Matrix: (Units=1/GPa)
#
#
# Indices 1 2 3 4 5 6 
#
# 1 0.013935 -0.002760 -0.000389 0.000000 0.003095 0.000000
# 2 -0.002760 0.007064 -0.001171 0.000000 -0.000389 0.000000
# 3 -0.000389 -0.001171 0.010276 0.000000 0.003583 0.000000
# 4 0.000000 0.000000 0.000000 0.017645 0.000000 0.004510
# 5 0.003095 -0.000389 0.003583 0.000000 0.025647 0.000000
# 6 0.000000 0.000000 0.000000 0.004510 0.000000 0.027303
#
#
# Mechanical properties :
#
#
# Convention : Reuss Voigt Hill
#
# Bulk Modulus (GPa) = 44.18119 52.47005 48.32562
# Shear Modulus (GPa) = 42.35358 46.63102 44.49230
#
# Velocity S-wave (km/s) = 3.98899 4.18558 4.08846
# Velocity P-wave (km/s) = 6.14937 6.56288 6.35949
#
# Compressibility (1/GPa) = 0.02263407
#
# Stress axis : x y z
#
# Youngs Moduli (GPa) = 71.76158 141.56603 97.31814
#
# Poissons Ratio (x) = 0.39076 0.03788
# Poissons Ratio (y) = 0.19808 0.11393
# Poissons Ratio (z) = 0.02793 0.16573
#
# Static dielectric constant tensor:
#      x y z
#    x 2.784630 0.000000 0.340960 
#    y 0.000000 2.096920 0.000000 
#    z 0.340960 0.000000 2.199520 
# 
# From -- ./inp_files/129498.got.cif
#   From: 2010.05.17/outbox.cif.g08.bks.cpg/sg15_65_cif.got.tgz:129498.got - 2010.06.03 18:47:42.
