data_PCOD9306435
_publ_section_title
;
Structure prediction by ZEFSAII (Michael W. Deem and Ramdas Pophale) SiO2 
 PCOD9306435
Probable space group: C 2/C
;
_chemical_formula_sum "Si O2"
_cell_formula_units_Z 64
_cell_length_a 21.425980
_cell_length_b 12.380089
_cell_length_c 17.469413
_cell_angle_alpha 90.000000
_cell_angle_beta 145.055160
_cell_angle_gamma 90.000000
_cell_volume 2654.216512
_symmetry_space_group_name_H-M "C 2/C"
_symmetry_group_IT_number 15
_symmetry_cell_setting 'monoclinic'
loop_
_space_group_symop_operation_xyz
x,y,z
-x,y,1/2-z
-x,-y,-z
x,-y,1/2+z
1/2+x,1/2+y,z
1/2-x,1/2+y,1/2-z
1/2-x,1/2-y,-z
1/2+x,1/2-y,1/2+z
loop_
_atom_site_type_symbol
_atom_site_label
_atom_site_fract_x
_atom_site_fract_y
_atom_site_fract_z
Si Si1 0.818937 0.162325 0.115397
Si Si2 0.175172 0.657099 0.457327
Si Si3 0.380909 0.040268 0.826484
Si Si4 0.014423 0.112632 0.583888
Si Si5 0.150926 0.061962 0.511604
Si Si6 0.457806 0.164985 0.323238
Si Si7 0.737082 0.505280 0.829030
Si Si8 0.491250 0.266447 0.907547
O O1 0.851642 0.077175 0.082382
O O2 0.924865 0.207812 0.263600
O O3 0.756799 0.112619 0.126644
O O4 0.750000 0.250000 0.000000
O O5 0.250000 0.750000 0.500000
O O6 0.080297 0.690162 0.420260
O O7 0.243163 0.574844 0.575120
O O8 0.108666 0.619792 0.316132
O O9 0.274339 0.049011 0.664429
O O10 0.325458 0.031535 0.853971
O O11 0.460430 0.141832 0.891598
O O12 0.559167 0.071791 0.132466
O O13 0.075021 0.215741 0.683692
O O14 0.961374 0.170254 0.456351
O O15 0.117671 0.033115 0.675269
O O16 0.925745 0.039418 0.539835
O O17 0.105332 0.173375 0.503667
#
# Coordination Sequence:
#
# PCOD9306435 Si02
#       8
#     8   8   8   8   8   8   8   8
#     4  12  27  48  77 119 156 216 270 345 419 507
#     4  11  25  48  75 116 154 206 262 337 417 484
#     4  12  28  52  80 118 166 218 275 349 419 502
#     4  12  26  47  82 121 156 213 284 341 422 506
#     4  12  26  50  80 114 161 216 275 355 419 503
#     4  11  28  49  79 118 161 216 269 342 418 503
#     4  12  26  48  80 114 159 213 274 346 420 494
#     4  12  26  50  78 119 156 215 279 335 426 504
#
# _framework density 24.112576000000001
#
# number of rings (size 3 to 8) (size 9 to 14) (size 15 to 20)
#    0.000    0.250    5.000    3.000    3.500    6.000 
#    2.250    0.000    0.000    0.000    0.000    0.000 
#    0.000    0.000    0.000    0.000    0.000    0.000 
#
# Total GULP energy -178749.108402 kJ/mol
# GULP energy per Si atom -5585.909638 kJ/mol
# Density = 2.405769 g / cm^3
# Si number density = 24.112576 Si / 1000 Ang^3
#
#
#
# Elastic Constant Matrix: (Units=GPa)
#
#
# Indices 1 2 3 4 5 6 
#
# 1 125.8429 67.3696 23.3078 0.0000 -9.7994 0.0000
# 2 67.3696 136.5099 34.0028 0.0000 7.3138 0.0000
# 3 23.3078 34.0028 121.4086 0.0000 -7.8013 0.0000
# 4 0.0000 0.0000 0.0000 32.4179 0.0000 -7.9870
# 5 -9.7994 7.3138 -7.8013 0.0000 43.8494 0.0000
# 6 0.0000 0.0000 0.0000 -7.9870 0.0000 47.4425
#
#
#
# Elastic Compliance Matrix: (Units=1/GPa)
#
#
# Indices 1 2 3 4 5 6 
#
# 1 0.011319 -0.005679 -0.000363 0.000000 0.003412 0.000000
# 2 -0.005679 0.010855 -0.002173 0.000000 -0.003466 0.000000
# 3 -0.000363 -0.002173 0.009036 0.000000 0.001889 0.000000
# 4 0.000000 0.000000 0.000000 0.032182 0.000000 0.005418
# 5 0.003412 -0.003466 0.001889 0.000000 0.024482 0.000000
# 6 0.000000 0.000000 0.000000 0.005418 0.000000 0.021990
#
#
# Mechanical properties :
#
#
# Convention : Reuss Voigt Hill
#
# Bulk Modulus (GPa) = 67.65357 70.34686 69.00021
# Shear Modulus (GPa) = 38.10357 42.01404 40.05881
#
# Velocity S-wave (km/s) = 3.97953 4.17875 4.08036
# Velocity P-wave (km/s) = 7.01668 7.24709 7.13282
#
# Compressibility (1/GPa) = 0.01478119
#
# Stress axis : x y z
#
# Youngs Moduli (GPa) = 88.34349 92.12488 110.66493
#
# Poissons Ratio (x) = 0.52314 0.04022
# Poissons Ratio (y) = 0.50167 0.24044
# Poissons Ratio (z) = 0.03211 0.20016
#
# Static dielectric constant tensor:
#      x y z
#    x 1.947600 0.000000 -0.011050 
#    y 0.000000 1.997800 0.000000 
#    z -0.011050 0.000000 2.081390 
# 
# From -- ./inp_files/219732.got.cif
#   From: 2010.05.17/outbox.cif.g08.bks.cpg/sg15_110_cif.got.tgz:219732.got - 2010.06.03 18:47:42.
