data_PCOD9306502
_publ_section_title
;
Structure prediction by ZEFSAII (Michael W. Deem and Ramdas Pophale) SiO2 
 PCOD9306502
Probable space group: C 2/C
;
_chemical_formula_sum "Si O2"
_cell_formula_units_Z 24
_cell_length_a 12.768739
_cell_length_b 10.791746
_cell_length_c 20.899180
_cell_angle_alpha 90.000000
_cell_angle_beta 20.935076
_cell_angle_gamma 90.000000
_cell_volume 1028.996632
_symmetry_space_group_name_H-M "C 2/C"
_symmetry_group_IT_number 15
_symmetry_cell_setting 'monoclinic'
loop_
_space_group_symop_operation_xyz
x,y,z
-x,y,1/2-z
-x,-y,-z
x,-y,1/2+z
1/2+x,1/2+y,z
1/2-x,1/2+y,1/2-z
1/2-x,1/2-y,-z
1/2+x,1/2-y,1/2+z
loop_
_atom_site_type_symbol
_atom_site_label
_atom_site_fract_x
_atom_site_fract_y
_atom_site_fract_z
Si Si1 0.716549 0.472981 0.705627
Si Si2 0.595616 0.381443 0.907236
Si Si3 0.000000 0.750711 0.750000
Si Si4 0.000000 0.814043 0.250000
O O1 0.775890 0.441609 0.745443
O O2 0.589908 0.343544 0.754414
O O3 0.497949 0.586606 0.811059
O O4 0.000000 0.500000 0.500000
O O5 0.758003 0.281707 0.860074
O O6 0.500000 0.500000 0.000000
O O7 0.284103 0.323077 0.065171
#
# Coordination Sequence:
#
# PCOD9306502 Si02
#       4
#     8   8   4   4
#     4  11  26  48  80 109 150 209 256 321 386 454
#     4  12  28  47  78 113 156 201 258 319 392 459
#     4  11  25  50  72 114 155 199 254 324 380 467
#     4  11  27  50  78 112 151 203 264 312 382 465
#
# _framework density 23.323691
#
# number of rings (size 3 to 8) (size 9 to 14) (size 15 to 20)
#    0.000    0.667    3.333    2.000    4.667   13.333 
#    0.000    0.000    0.000    0.000    0.000    0.000 
#    0.000    0.000    0.000    0.000    0.000    0.000 
#
# Total GULP energy -66852.989289 kJ/mol
# GULP energy per Si atom -5571.082441 kJ/mol
# Density = 2.327060 g / cm^3
# Si number density = 23.323691 Si / 1000 Ang^3
#
#
#
# Elastic Constant Matrix: (Units=GPa)
#
#
# Indices 1 2 3 4 5 6 
#
# 1 88.4065 48.0554 67.8666 0.0031 2.7459 0.0335
# 2 48.0554 167.0863 67.9701 -0.0394 2.2223 0.0342
# 3 67.8666 67.9701 144.6824 -0.5007 -6.7080 0.0959
# 4 0.0031 -0.0394 -0.5007 -16.1182 -0.0517 -40.9187
# 5 2.7459 2.2223 -6.7080 -0.0517 29.9507 0.0432
# 6 0.0335 0.0342 0.0959 -40.9187 0.0432 24.5889
#
#
#
# Elastic Compliance Matrix: (Units=1/GPa)
#
#
# Indices 1 2 3 4 5 6 
#
# 1 0.018622 -0.002096 -0.007904 0.000044 -0.003322 0.000087
# 2 -0.002096 0.007689 -0.002674 0.000011 -0.000977 0.000022
# 3 -0.007904 -0.002674 0.012043 -0.000054 0.003620 -0.000129
# 4 0.000044 0.000011 -0.000054 -0.011875 -0.000009 -0.019761
# 5 -0.003322 -0.000977 0.003620 -0.000009 0.034576 -0.000084
# 6 0.000087 0.000022 -0.000129 -0.019761 -0.000084 0.007785
#
#
# Mechanical properties :
#
#
# Convention : Reuss Voigt Hill
#
# Bulk Modulus (GPa) = 76.89409 85.32882 81.11145
# Shear Modulus (GPa) = 50.74895 22.10315 36.42605
#
# Velocity S-wave (km/s) = 4.66967 3.08176 3.95620
# Velocity P-wave (km/s) = 7.88125 7.02332 7.46462
#
# Compressibility (1/GPa) = 0.01300490
#
# Stress axis : x y z
#
# Youngs Moduli (GPa) = 53.70098 130.06275 83.03416
#
# Poissons Ratio (x) = 0.27264 0.65631
# Poissons Ratio (y) = 0.11257 0.22203
# Poissons Ratio (z) = 0.42445 0.34779
#
# Static dielectric constant tensor:
#      x y z
#    x 1.974900 -0.000330 0.137000 
#    y -0.000330 1.834540 -0.000300 
#    z 0.137000 -0.000300 2.258190 
# 
# From -- ./inp_files/36434.got.cif
#   From: 2010.05.17/outbox.cif.g08.bks.cpg/sg15_19_cif.got.tgz:36434.got - 2010.06.03 18:47:42.
