data_PCOD9306176
_publ_section_title
;
Structure prediction by ZEFSAII (Michael W. Deem and Ramdas Pophale) SiO2 
 PCOD9306176
Probable space group: C 2/C
;
_chemical_formula_sum "Si O2"
_cell_formula_units_Z 44
_cell_length_a 14.562073
_cell_length_b 5.066380
_cell_length_c 21.824852
_cell_angle_alpha 90.000000
_cell_angle_beta 82.459225
_cell_angle_gamma 90.000000
_cell_volume 1596.246788
_symmetry_space_group_name_H-M "C 2/C"
_symmetry_group_IT_number 15
_symmetry_cell_setting 'monoclinic'
loop_
_space_group_symop_operation_xyz
x,y,z
-x,y,1/2-z
-x,-y,-z
x,-y,1/2+z
1/2+x,1/2+y,z
1/2-x,1/2+y,1/2-z
1/2-x,1/2-y,-z
1/2+x,1/2-y,1/2+z
loop_
_atom_site_type_symbol
_atom_site_label
_atom_site_fract_x
_atom_site_fract_y
_atom_site_fract_z
Si Si1 0.671307 0.294043 0.165840
Si Si2 0.652029 0.649874 0.266204
Si Si3 0.397431 0.316063 0.119777
Si Si4 0.499837 0.172584 0.562988
Si Si5 0.289304 0.862510 0.431753
Si Si6 0.500000 0.061131 0.250000
O O1 0.665295 0.591902 0.193022
O O2 0.752636 0.201688 0.205966
O O3 0.696558 0.168121 0.097142
O O4 0.569517 0.200184 0.195305
O O5 0.609555 0.413490 0.310098
O O6 0.574928 0.869482 0.274942
O O7 0.443071 0.553920 0.074998
O O8 0.294794 0.269371 0.103272
O O9 0.449816 0.046011 0.107403
O O10 0.604470 0.232119 0.574506
O O11 0.500000 0.000000 0.500000
O O12 0.250000 0.750000 0.500000
#
# Coordination Sequence:
#
# PCOD9306176 Si02
#       6
#     8   8   8   8   8   4
#     4  11  25  47  73 106 149 196 252 320 382 465
#     4  11  25  45  72 107 146 192 254 314 392 454
#     4  11  28  48  75 110 154 199 253 325 376 467
#     4  12  26  49  78 112 152 203 258 305 387 461
#     4  11  26  49  74 112 156 204 258 318 391 461
#     4  12  24  44  72 102 150 190 250 316 392 448
#
# _framework density 27.564658999999999
#
# number of rings (size 3 to 8) (size 9 to 14) (size 15 to 20)
#    0.000    0.727    3.636    2.182    7.636    2.182 
#    0.000    0.000    0.000    0.000    0.000    0.000 
#    0.000    0.000    0.000    0.000    0.000    0.000 
#
# Total GULP energy -122865.224533 kJ/mol
# GULP energy per Si atom -5584.782933 kJ/mol
# Density = 2.750192 g / cm^3
# Si number density = 27.564659 Si / 1000 Ang^3
#
#
#
# Elastic Constant Matrix: (Units=GPa)
#
#
# Indices 1 2 3 4 5 6 
#
# 1 254.1338 54.6826 47.6614 0.0000 -22.1240 0.0000
# 2 54.6826 101.3707 51.6784 0.0000 -23.5079 0.0000
# 3 47.6614 51.6784 155.2045 0.0000 -10.0965 0.0000
# 4 0.0000 0.0000 0.0000 40.0254 0.0000 10.1864
# 5 -22.1240 -23.5079 -10.0965 0.0000 44.4647 0.0000
# 6 0.0000 0.0000 0.0000 10.1864 0.0000 27.2846
#
#
#
# Elastic Compliance Matrix: (Units=1/GPa)
#
#
# Indices 1 2 3 4 5 6 
#
# 1 0.004563 -0.001831 -0.000717 0.000000 0.001139 0.000000
# 2 -0.001831 0.014087 -0.003758 0.000000 0.005683 0.000000
# 3 -0.000717 -0.003758 0.007879 0.000000 -0.000555 0.000000
# 4 0.000000 0.000000 0.000000 0.027607 0.000000 -0.010307
# 5 0.001139 0.005683 -0.000555 0.000000 0.025935 0.000000
# 6 0.000000 0.000000 0.000000 -0.010307 0.000000 0.040499
#
#
# Mechanical properties :
#
#
# Convention : Reuss Voigt Hill
#
# Bulk Modulus (GPa) = 71.87046 90.97265 81.42155
# Shear Modulus (GPa) = 36.27907 46.13407 41.20657
#
# Velocity S-wave (km/s) = 3.63181 4.09549 3.87060
# Velocity P-wave (km/s) = 6.61186 7.44574 7.04115
#
# Compressibility (1/GPa) = 0.01391392
#
# Stress axis : x y z
#
# Youngs Moduli (GPa) = 219.16885 70.98985 126.92508
#
# Poissons Ratio (x) = 0.13002 0.09103
# Poissons Ratio (y) = 0.40140 0.47702
# Poissons Ratio (z) = 0.15719 0.26680
#
# Static dielectric constant tensor:
#      x y z
#    x 2.020090 0.000000 0.098800 
#    y 0.000000 2.375090 0.000000 
#    z 0.098800 0.000000 2.079110 
# 
# From -- ./inp_files/271854.got.cif
#   From: 2010.05.17/outbox.cif.g08.bks.cpg/sg15_136_cif.got.tgz:271854.got - 2010.06.03 18:47:42.
