data_PCOD9306296
_publ_section_title
;
Structure prediction by ZEFSAII (Michael W. Deem and Ramdas Pophale) SiO2 
 PCOD9306296
Probable space group: C 2/C
;
_chemical_formula_sum "Si O2"
_cell_formula_units_Z 32
_cell_length_a 22.136182
_cell_length_b 5.757560
_cell_length_c 9.087599
_cell_angle_alpha 90.000000
_cell_angle_beta 87.957335
_cell_angle_gamma 90.000000
_cell_volume 1157.482116
_symmetry_space_group_name_H-M "C 2/C"
_symmetry_group_IT_number 15
_symmetry_cell_setting 'monoclinic'
loop_
_space_group_symop_operation_xyz
x,y,z
-x,y,1/2-z
-x,-y,-z
x,-y,1/2+z
1/2+x,1/2+y,z
1/2-x,1/2+y,1/2-z
1/2-x,1/2-y,-z
1/2+x,1/2-y,1/2+z
loop_
_atom_site_type_symbol
_atom_site_label
_atom_site_fract_x
_atom_site_fract_y
_atom_site_fract_z
Si Si1 0.000000 0.000000 0.000000
Si Si2 0.500000 0.863375 0.750000
Si Si3 0.307496 0.825847 0.683569
Si Si4 0.677713 0.508965 0.086707
Si Si5 0.403651 0.789989 0.203174
O O1 0.982785 0.799914 0.118230
O O2 0.945802 0.172085 0.078561
O O3 0.555004 0.031336 0.710693
O O4 0.324690 0.604446 0.578782
O O5 0.314838 0.752114 0.853613
O O6 0.238319 0.876257 0.649883
O O7 0.348627 0.050255 0.650951
O O8 0.618896 0.607692 0.173310
#
# Coordination Sequence:
#
# PCOD9306296 Si02
#       5
#     4   4   8   8   8
#     4  12  28  50  78 114 156 208 266 326 392 468
#     4  12  28  50  78 112 156 210 264 328 390 468
#     4  11  25  46  75 113 158 207 256 320 393 466
#     4  11  25  46  74 112 155 204 258 319 391 472
#     4  12  26  48  78 115 155 206 263 330 389 471
#
# _framework density 27.646215999999999
#
# number of rings (size 3 to 8) (size 9 to 14) (size 15 to 20)
#    0.000    0.500    2.500    4.500    0.000   13.000 
#    0.000    0.000    0.000    0.000    0.000    0.000 
#    0.000    0.000    0.000    0.000    0.000    0.000 
#
# Total GULP energy -89302.760289 kJ/mol
# GULP energy per Si atom -5581.422518 kJ/mol
# Density = 2.758329 g / cm^3
# Si number density = 27.646216 Si / 1000 Ang^3
#
#
#
# Elastic Constant Matrix: (Units=GPa)
#
#
# Indices 1 2 3 4 5 6 
#
# 1 56.0220 42.1522 27.7147 0.0000 -10.8374 0.0000
# 2 42.1522 97.3011 45.7192 0.0000 5.9897 0.0000
# 3 27.7147 45.7192 115.2615 0.0000 -4.6230 0.0000
# 4 0.0000 0.0000 0.0000 49.0429 0.0000 -19.6508
# 5 -10.8374 5.9897 -4.6230 0.0000 47.3320 0.0000
# 6 0.0000 0.0000 0.0000 -19.6508 0.0000 50.9073
#
#
#
# Elastic Compliance Matrix: (Units=1/GPa)
#
#
# Indices 1 2 3 4 5 6 
#
# 1 0.029799 -0.012542 -0.001860 0.000000 0.008228 0.000000
# 2 -0.012542 0.018121 -0.004396 0.000000 -0.005594 0.000000
# 3 -0.001860 -0.004396 0.010915 0.000000 0.001196 0.000000
# 4 0.000000 0.000000 0.000000 0.024121 0.000000 0.009311
# 5 0.008228 -0.005594 0.001196 0.000000 0.023836 0.000000
# 6 0.000000 0.000000 0.000000 0.009311 0.000000 0.023238
#
#
# Mechanical properties :
#
#
# Convention : Reuss Voigt Hill
#
# Bulk Modulus (GPa) = 47.08600 55.52855 51.30727
# Shear Modulus (GPa) = 28.61956 39.65636 34.13796
#
# Velocity S-wave (km/s) = 3.22095 3.79149 3.51781
# Velocity P-wave (km/s) = 5.55890 6.26867 5.92442
#
# Compressibility (1/GPa) = 0.02123774
#
# Stress axis : x y z
#
# Youngs Moduli (GPa) = 33.55838 55.18545 91.61604
#
# Poissons Ratio (x) = 0.69212 0.17044
# Poissons Ratio (y) = 0.42088 0.40278
# Poissons Ratio (z) = 0.06243 0.24262
#
# Static dielectric constant tensor:
#      x y z
#    x 2.294230 0.000000 0.089000 
#    y 0.000000 2.129170 0.000000 
#    z 0.089000 0.000000 2.090790 
# 
# From -- ./inp_files/115559.got.cif
#   From: 2010.05.17/outbox.cif.g08.bks.cpg/sg15_58_cif.got.tgz:115559.got - 2010.06.03 18:47:42.
