data_PCOD9306678
_publ_section_title
;
Structure prediction by ZEFSAII (Michael W. Deem and Ramdas Pophale) SiO2 
 PCOD9306678
Probable space group: C 2/C
;
_chemical_formula_sum "Si O2"
_cell_formula_units_Z 32
_cell_length_a 24.794214
_cell_length_b 7.371494
_cell_length_c 14.155713
_cell_angle_alpha 90.000000
_cell_angle_beta 152.335928
_cell_angle_gamma 90.000000
_cell_volume 1201.223743
_symmetry_space_group_name_H-M "C 2/C"
_symmetry_group_IT_number 15
_symmetry_cell_setting 'monoclinic'
loop_
_space_group_symop_operation_xyz
x,y,z
-x,y,1/2-z
-x,-y,-z
x,-y,1/2+z
1/2+x,1/2+y,z
1/2-x,1/2+y,1/2-z
1/2-x,1/2-y,-z
1/2+x,1/2-y,1/2+z
loop_
_atom_site_type_symbol
_atom_site_label
_atom_site_fract_x
_atom_site_fract_y
_atom_site_fract_z
Si Si1 0.981875 0.118226 0.068682
Si Si2 0.493614 0.751514 0.639408
Si Si3 0.157491 0.547053 0.854340
Si Si4 0.260844 0.733772 0.847019
O O1 0.859684 0.184969 0.924205
O O2 0.061369 0.294534 0.193396
O O3 0.027242 0.955719 0.203527
O O4 0.000000 0.000000 0.000000
O O5 0.500000 0.848948 0.750000
O O6 0.363189 0.754590 0.397469
O O7 0.591906 0.859051 0.735488
O O8 0.243212 0.581494 0.900313
O O9 0.212336 0.591139 0.043032
#
# Coordination Sequence:
#
# PCOD9306678 Si02
#       4
#     8   8   8   8
#     4  12  27  48  73 114 156 197 265 319 384 481
#     4  12  27  47  79 113 150 205 257 314 395 468
#     4  11  26  53  74 111 158 201 265 323 383 466
#     4  11  26  47  79 110 153 206 252 326 390 445
#
# _framework density 26.639500999999999
#
# number of rings (size 3 to 8) (size 9 to 14) (size 15 to 20)
#    0.000    0.500    2.500    4.500    7.000    0.000 
#    0.000    7.500    0.000    0.000    0.000    0.000 
#    0.000    0.000    0.000    0.000    0.000    0.000 
#
# Total GULP energy -89415.477497 kJ/mol
# GULP energy per Si atom -5588.467344 kJ/mol
# Density = 2.657887 g / cm^3
# Si number density = 26.639501 Si / 1000 Ang^3
#
#
#
# Elastic Constant Matrix: (Units=GPa)
#
#
# Indices 1 2 3 4 5 6 
#
# 1 179.6336 4.0416 70.6224 0.0000 10.3695 0.0000
# 2 4.0416 58.8990 21.1610 0.0000 4.8864 0.0000
# 3 70.6224 21.1610 191.8262 0.0000 8.9772 0.0000
# 4 0.0000 0.0000 0.0000 38.1919 0.0000 10.2178
# 5 10.3695 4.8864 8.9772 0.0000 53.6417 0.0000
# 6 0.0000 0.0000 0.0000 10.2178 0.0000 21.4289
#
#
#
# Elastic Compliance Matrix: (Units=1/GPa)
#
#
# Indices 1 2 3 4 5 6 
#
# 1 0.006563 0.000497 -0.002429 0.000000 -0.000908 0.000000
# 2 0.000497 0.017806 -0.002083 0.000000 -0.001370 0.000000
# 3 -0.002429 -0.002083 0.006356 0.000000 -0.000404 0.000000
# 4 0.000000 0.000000 0.000000 0.030012 0.000000 -0.014311
# 5 -0.000908 -0.001370 -0.000404 0.000000 0.019010 0.000000
# 6 0.000000 0.000000 0.000000 -0.014311 0.000000 0.053490
#
#
# Mechanical properties :
#
#
# Convention : Reuss Voigt Hill
#
# Bulk Modulus (GPa) = 44.06040 69.11209 56.58624
# Shear Modulus (GPa) = 33.59515 44.95474 39.27494
#
# Velocity S-wave (km/s) = 3.55505 4.11240 3.84384
# Velocity P-wave (km/s) = 5.78158 6.96771 6.40217
#
# Compressibility (1/GPa) = 0.02269612
#
# Stress axis : x y z
#
# Youngs Moduli (GPa) = 152.37227 56.16028 157.33408
#
# Poissons Ratio (x) = -0.02794 0.38210
# Poissons Ratio (y) = -0.07580 0.32778
# Poissons Ratio (z) = 0.37005 0.11700
#
# Static dielectric constant tensor:
#      x y z
#    x 2.656440 0.000000 -0.025440 
#    y 0.000000 2.053710 0.000000 
#    z -0.025440 0.000000 2.166460 
# 
# From -- ./inp_files/172180.got.cif
#   From: 2010.05.17/outbox.cif.g08.bks.cpg/sg15_87_cif.got.tgz:172180.got - 2010.06.03 18:47:42.
