data_PCOD9306804
_publ_section_title
;
Structure prediction by ZEFSAII (Michael W. Deem and Ramdas Pophale) SiO2 
 PCOD9306804
Probable space group: C 2/C
;
_chemical_formula_sum "Si O2"
_cell_formula_units_Z 48
_cell_length_a 15.254618
_cell_length_b 29.140992
_cell_length_c 12.072369
_cell_angle_alpha 90.000000
_cell_angle_beta 152.850596
_cell_angle_gamma 90.000000
_cell_volume 2448.839819
_symmetry_space_group_name_H-M "C 2/C"
_symmetry_group_IT_number 15
_symmetry_cell_setting 'monoclinic'
loop_
_space_group_symop_operation_xyz
x,y,z
-x,y,1/2-z
-x,-y,-z
x,-y,1/2+z
1/2+x,1/2+y,z
1/2-x,1/2+y,1/2-z
1/2-x,1/2-y,-z
1/2+x,1/2-y,1/2+z
loop_
_atom_site_type_symbol
_atom_site_label
_atom_site_fract_x
_atom_site_fract_y
_atom_site_fract_z
Si Si1 0.214525 0.601504 0.439100
Si Si2 0.501519 0.445246 0.882708
Si Si3 0.608584 0.788929 0.990470
Si Si4 0.744788 0.685371 0.172771
Si Si5 0.915476 0.131701 0.870286
Si Si6 0.207733 0.526260 0.235117
O O1 0.266434 0.650315 0.442826
O O2 0.367468 0.597871 0.711445
O O3 0.207016 0.564417 0.332089
O O4 0.000000 0.602418 0.250000
O O5 0.500000 0.440250 0.750000
O O6 0.298469 0.452448 0.722280
O O7 0.609840 0.401205 0.055362
O O8 0.633614 0.488972 0.054769
O O9 0.500000 0.792015 0.750000
O O10 0.468501 0.804311 0.932458
O O11 0.659729 0.735646 0.057730
O O12 0.780390 0.824795 0.194068
O O13 0.622106 0.655803 0.119352
O O14 0.000000 0.500000 0.000000
#
# Coordination Sequence:
#
# PCOD9306804 Si02
#       6
#     8   8   8   8   8   8
#     4  12  23  38  65  97 133 169 211 261 327 396
#     4  11  28  46  67  94 127 173 224 272 327 384
#     4  12  22  33  58  98 135 168 207 253 327 397
#     4  12  22  35  58  97 138 168 203 258 328 394
#     4  12  23  40  63  92 132 169 212 268 323 386
#     4  11  27  45  68  97 129 170 217 269 332 391
#
# _framework density 19.601119000000001
#
# number of rings (size 3 to 8) (size 9 to 14) (size 15 to 20)
#    0.000    0.333    6.667    3.000    7.000    0.000 
#    0.000    0.000    0.000    1.000    0.000    0.000 
#    0.000    0.000    0.000    0.000    0.000    0.000 
#
# Total GULP energy -133665.563502 kJ/mol
# GULP energy per Si atom -5569.398479 kJ/mol
# Density = 1.955651 g / cm^3
# Si number density = 19.601119 Si / 1000 Ang^3
#
#
#
# Elastic Constant Matrix: (Units=GPa)
#
#
# Indices 1 2 3 4 5 6 
#
# 1 104.6549 60.0093 39.1334 -0.0001 -8.2912 0.0000
# 2 60.0093 129.9800 38.7579 0.0000 -14.0299 0.0000
# 3 39.1334 38.7579 50.4589 -0.0003 2.3676 0.0001
# 4 -0.0001 0.0000 -0.0003 -31.9347 -0.0001 33.1867
# 5 -8.2912 -14.0299 2.3676 -0.0001 31.1043 0.0000
# 6 0.0000 0.0000 0.0001 33.1867 0.0000 22.0222
#
#
#
# Elastic Compliance Matrix: (Units=1/GPa)
#
#
# Indices 1 2 3 4 5 6 
#
# 1 0.015544 -0.004181 -0.008982 0.000000 0.002941 0.000000
# 2 -0.004181 0.011981 -0.006184 0.000000 0.004761 0.000000
# 3 -0.008982 -0.006184 0.031891 0.000000 -0.007611 0.000000
# 4 0.000000 0.000000 0.000000 -0.012203 0.000000 0.018390
# 5 0.002941 0.004761 -0.007611 0.000000 0.035661 0.000000
# 6 0.000000 0.000000 0.000000 0.018390 0.000000 0.017696
#
#
# Mechanical properties :
#
#
# Convention : Reuss Voigt Hill
#
# Bulk Modulus (GPa) = 48.25496 62.32167 55.28831
# Shear Modulus (GPa) = 34.20629 14.05123 24.12876
#
# Velocity S-wave (km/s) = 4.18199 2.68033 3.51235
# Velocity P-wave (km/s) = 6.92753 6.43761 6.68706
#
# Compressibility (1/GPa) = 0.02072326
#
# Stress axis : x y z
#
# Youngs Moduli (GPa) = 64.33326 83.46215 31.35637
#
# Poissons Ratio (x) = 0.34892 0.28165
# Poissons Ratio (y) = 0.26895 0.19391
# Poissons Ratio (z) = 0.57785 0.51615
#
# Static dielectric constant tensor:
#      x y z
#    x 1.783910 0.000000 0.088220 
#    y 0.000000 1.733430 0.000000 
#    z 0.088220 0.000000 1.724420 
# 
# From -- ./inp_files/101412.got.cif
#   From: 2010.05.17/outbox.cif.g08.bks.cpg/sg15_51_cif.got.tgz:101412.got - 2010.06.03 18:47:42.
