data_PCOD9306717
_publ_section_title
;
Structure prediction by ZEFSAII (Michael W. Deem and Ramdas Pophale) SiO2 
 PCOD9306717
Probable space group: C 2/C
;
_chemical_formula_sum "Si O2"
_cell_formula_units_Z 32
_cell_length_a 12.507519
_cell_length_b 4.869492
_cell_length_c 26.929601
_cell_angle_alpha 90.000000
_cell_angle_beta 138.472049
_cell_angle_gamma 90.000000
_cell_volume 1087.398352
_symmetry_space_group_name_H-M "C 2/C"
_symmetry_group_IT_number 15
_symmetry_cell_setting 'monoclinic'
loop_
_space_group_symop_operation_xyz
x,y,z
-x,y,1/2-z
-x,-y,-z
x,-y,1/2+z
1/2+x,1/2+y,z
1/2-x,1/2+y,1/2-z
1/2-x,1/2-y,-z
1/2+x,1/2-y,1/2+z
loop_
_atom_site_type_symbol
_atom_site_label
_atom_site_fract_x
_atom_site_fract_y
_atom_site_fract_z
Si Si1 0.293962 0.023740 0.974984
Si Si2 0.161026 0.601270 0.200340
Si Si3 0.097003 0.244331 0.083942
Si Si4 0.116779 0.334557 0.335594
O O1 0.330702 0.599056 0.108074
O O2 0.406784 0.767785 0.032374
O O3 0.250000 0.250000 0.000000
O O4 0.405701 0.200663 0.975897
O O5 0.205785 0.914875 0.225229
O O6 0.159819 0.478342 0.144345
O O7 0.994170 0.535419 0.169646
O O8 0.229043 0.003371 0.130806
O O9 0.000000 0.243646 0.250000
#
# Coordination Sequence:
#
# PCOD9306717 Si02
#       4
#     8   8   8   8
#     4  11  27  49  81 118 171 227 292 369 450 538
#     4  12  28  49  82 123 172 224 293 373 453 536
#     4  11  26  48  78 120 164 229 292 360 446 544
#     4  12  26  49  81 116 169 228 294 370 449 539
#
# _framework density 29.428041
#
# number of rings (size 3 to 8) (size 9 to 14) (size 15 to 20)
#    0.000    0.500    2.500    3.750    7.000    7.000 
#    0.000    0.000    0.000    0.000    0.000    0.000 
#    0.000    0.000    0.000    0.000    0.000    0.000 
#
# Total GULP energy -89651.957677 kJ/mol
# GULP energy per Si atom -5603.247355 kJ/mol
# Density = 2.936106 g / cm^3
# Si number density = 29.428041 Si / 1000 Ang^3
#
#
#
# Elastic Constant Matrix: (Units=GPa)
#
#
# Indices 1 2 3 4 5 6 
#
# 1 192.6444 78.1490 97.2228 -0.0017 -15.8242 0.0024
# 2 78.1490 137.0230 70.3601 -0.0057 25.3236 0.0053
# 3 97.2228 70.3601 216.8926 -0.0002 0.9937 0.0014
# 4 -0.0017 -0.0057 -0.0002 52.8469 0.0006 2.5544
# 5 -15.8242 25.3236 0.9937 0.0006 80.5198 -0.0012
# 6 0.0024 0.0053 0.0014 2.5544 -0.0012 35.9108
#
#
#
# Elastic Compliance Matrix: (Units=1/GPa)
#
#
# Indices 1 2 3 4 5 6 
#
# 1 0.008285 -0.004021 -0.002423 0.000000 0.002923 0.000000
# 2 -0.004021 0.011347 -0.001859 0.000001 -0.004336 -0.000002
# 3 -0.002423 -0.001859 0.006299 0.000000 0.000031 0.000000
# 4 0.000000 0.000001 0.000000 0.018988 -0.000001 -0.001351
# 5 0.002923 -0.004336 0.000031 -0.000001 0.014357 0.000001
# 6 0.000000 -0.000002 0.000000 -0.001351 0.000001 0.027943
#
#
# Mechanical properties :
#
#
# Convention : Reuss Voigt Hill
#
# Bulk Modulus (GPa) = 107.22275 115.33599 111.27937
# Shear Modulus (GPa) = 46.75805 53.91070 50.33438
#
# Velocity S-wave (km/s) = 3.99042 4.28477 4.14021
# Velocity P-wave (km/s) = 7.59907 7.98478 7.79431
#
# Compressibility (1/GPa) = 0.00932638
#
# Stress axis : x y z
#
# Youngs Moduli (GPa) = 120.70046 88.12634 158.74744
#
# Poissons Ratio (x) = 0.35439 0.38458
# Poissons Ratio (y) = 0.48538 0.29505
# Poissons Ratio (z) = 0.29241 0.16379
#
# Static dielectric constant tensor:
#      x y z
#    x 2.364320 0.000000 0.043060 
#    y 0.000000 2.345450 0.000000 
#    z 0.043060 0.000000 2.283760 
# 
# From -- ./inp_files/271521.got.cif
#   From: 2010.05.17/outbox.cif.g08.bks.cpg/sg15_136_cif.got.tgz:271521.got - 2010.06.03 18:47:42.
