data_PCOD9306803
_publ_section_title
;
Structure prediction by ZEFSAII (Michael W. Deem and Ramdas Pophale) SiO2 
 PCOD9306803
Probable space group: C 2/C
;
_chemical_formula_sum "Si O2"
_cell_formula_units_Z 36
_cell_length_a 8.720989
_cell_length_b 25.452479
_cell_length_c 11.420010
_cell_angle_alpha 90.000000
_cell_angle_beta 141.585923
_cell_angle_gamma 90.000000
_cell_volume 1575.040910
_symmetry_space_group_name_H-M "C 2/C"
_symmetry_group_IT_number 15
_symmetry_cell_setting 'monoclinic'
loop_
_space_group_symop_operation_xyz
x,y,z
-x,y,1/2-z
-x,-y,-z
x,-y,1/2+z
1/2+x,1/2+y,z
1/2-x,1/2+y,1/2-z
1/2-x,1/2-y,-z
1/2+x,1/2-y,1/2+z
loop_
_atom_site_type_symbol
_atom_site_label
_atom_site_fract_x
_atom_site_fract_y
_atom_site_fract_z
Si Si1 0.904166 0.286199 0.000808
Si Si2 0.485666 0.414933 0.484156
Si Si3 0.500000 0.132606 0.750000
Si Si4 0.262338 0.692145 0.346806
Si Si5 0.782895 0.005095 0.210233
O O1 0.033844 0.329634 0.158377
O O2 0.086281 0.245549 0.046864
O O3 0.750000 0.250000 0.000000
O O4 0.756114 0.312840 0.806334
O O5 0.243952 0.401135 0.416685
O O6 0.604291 0.359371 0.524950
O O7 0.371345 0.448779 0.311578
O O8 0.684434 0.451864 0.667457
O O9 0.000000 0.695715 0.250000
O O10 0.000000 0.020068 0.250000
O O11 0.500000 0.000000 0.000000
#
# Coordination Sequence:
#
# PCOD9306803 Si02
#       5
#     8   8   4   8   8
#     4  12  23  44  70 104 148 192 246 299 361 447
#     4  11  27  44  72 111 140 190 251 300 371 443
#     4  12  24  44  76 108 140 192 252 300 366 444
#     4  12  26  43  71 106 153 193 242 307 373 437
#     4  11  27  49  75 102 148 191 244 313 372 441
#
# _framework density 22.856546999999999
#
# number of rings (size 3 to 8) (size 9 to 14) (size 15 to 20)
#    0.000    0.444    4.444    2.000    9.333    1.778 
#    0.000    1.111    0.000    0.000    0.000    0.000 
#    0.000    0.000    0.000    0.000    0.000    0.000 
#
# Total GULP energy -100678.894991 kJ/mol
# GULP energy per Si atom -5593.271944 kJ/mol
# Density = 2.280452 g / cm^3
# Si number density = 22.856547 Si / 1000 Ang^3
#
#
#
# Elastic Constant Matrix: (Units=GPa)
#
#
# Indices 1 2 3 4 5 6 
#
# 1 77.2719 2.4985 18.7422 0.0000 23.1570 0.0000
# 2 2.4985 84.3079 45.4774 0.0000 -1.0173 0.0000
# 3 18.7422 45.4774 144.2905 0.0000 13.4482 0.0000
# 4 0.0000 0.0000 0.0000 28.3985 0.0000 4.2733
# 5 23.1570 -1.0173 13.4482 0.0000 42.3107 0.0000
# 6 0.0000 0.0000 0.0000 4.2733 0.0000 11.9445
#
#
#
# Elastic Compliance Matrix: (Units=1/GPa)
#
#
# Indices 1 2 3 4 5 6 
#
# 1 0.015707 0.000151 -0.001326 0.000000 -0.008171 0.000000
# 2 0.000151 0.014431 -0.004733 0.000000 0.001768 0.000000
# 3 -0.001326 -0.004733 0.008798 0.000000 -0.002184 0.000000
# 4 0.000000 0.000000 0.000000 0.037217 0.000000 -0.013315
# 5 -0.008171 0.001768 -0.002184 0.000000 0.028844 0.000000
# 6 0.000000 0.000000 0.000000 -0.013315 0.000000 0.088484
#
#
# Mechanical properties :
#
#
# Convention : Reuss Voigt Hill
#
# Bulk Modulus (GPa) = 36.87260 48.81184 42.84222
# Shear Modulus (GPa) = 23.32788 32.47425 27.90106
#
# Velocity S-wave (km/s) = 3.19818 3.77342 3.49765
# Velocity P-wave (km/s) = 5.45940 6.35508 5.92419
#
# Compressibility (1/GPa) = 0.02712041
#
# Stress axis : x y z
#
# Youngs Moduli (GPa) = 63.66623 69.29452 113.66178
#
# Poissons Ratio (x) = -0.01049 0.15075
# Poissons Ratio (y) = -0.00964 0.53795
# Poissons Ratio (z) = 0.08444 0.32796
#
# Static dielectric constant tensor:
#      x y z
#    x 1.911750 0.000000 -0.024050 
#    y 0.000000 1.832800 0.000000 
#    z -0.024050 0.000000 1.899770 
# 
# From -- ./inp_files/80421.got.cif
#   From: 2010.05.17/outbox.cif.g08.bks.cpg/sg15_41_cif.got.tgz:80421.got - 2010.06.03 18:47:42.
