data_PCOD9306870
_publ_section_title
;
Structure prediction by ZEFSAII (Michael W. Deem and Ramdas Pophale) SiO2 
 PCOD9306870
Probable space group: C 2/C
;
_chemical_formula_sum "Si O2"
_cell_formula_units_Z 40
_cell_length_a 5.113882
_cell_length_b 13.200825
_cell_length_c 27.735279
_cell_angle_alpha 90.000000
_cell_angle_beta 127.367576
_cell_angle_gamma 90.000000
_cell_volume 1488.056217
_symmetry_space_group_name_H-M "C 2/C"
_symmetry_group_IT_number 15
_symmetry_cell_setting 'monoclinic'
loop_
_space_group_symop_operation_xyz
x,y,z
-x,y,1/2-z
-x,-y,-z
x,-y,1/2+z
1/2+x,1/2+y,z
1/2-x,1/2+y,1/2-z
1/2-x,1/2-y,-z
1/2+x,1/2-y,1/2+z
loop_
_atom_site_type_symbol
_atom_site_label
_atom_site_fract_x
_atom_site_fract_y
_atom_site_fract_z
Si Si1 0.621699 0.720307 0.712746
Si Si2 0.016071 0.105339 0.893325
Si Si3 0.377801 0.959636 0.544957
Si Si4 0.209016 0.267296 0.553356
Si Si5 0.331120 0.910730 0.648361
O O1 0.500000 0.681080 0.750000
O O2 0.425267 0.679207 0.644588
O O3 0.576834 0.841703 0.705193
O O4 0.000000 0.696699 0.750000
O O5 0.837995 0.172108 0.915275
O O6 0.782263 0.018506 0.845373
O O7 0.349421 0.041052 0.942965
O O8 0.408686 0.845356 0.528648
O O9 0.459855 0.940881 0.610112
O O10 0.000000 0.000000 0.500000
O O11 0.250000 0.250000 0.500000
O O12 0.507241 0.340725 0.603901
#
# Coordination Sequence:
#
# PCOD9306870 Si02
#       5
#     8   8   8   8   8
#     4  12  29  57  87 121 162 219 290 363 434 497
#     4  11  28  55  84 118 171 221 279 351 428 507
#     4  11  28  51  81 126 173 225 279 339 424 520
#     4  11  27  53  80 122 172 227 275 339 419 518
#     4  11  28  51  80 120 167 210 284 352 412 517
#
# _framework density 26.880701999999999
#
# number of rings (size 3 to 8) (size 9 to 14) (size 15 to 20)
#    0.000    0.800    2.000    1.200   11.200    9.600 
#    0.000    0.000    0.000    0.000    0.000    0.000 
#    0.000    0.000    0.000    0.000    0.000    0.000 
#
# Total GULP energy -112020.343099 kJ/mol
# GULP energy per Si atom -5601.017155 kJ/mol
# Density = 2.681952 g / cm^3
# Si number density = 26.880702 Si / 1000 Ang^3
#
#
#
# Elastic Constant Matrix: (Units=GPa)
#
#
# Indices 1 2 3 4 5 6 
#
# 1 165.0572 81.5016 41.5447 0.0000 -13.1201 0.0000
# 2 81.5016 200.0679 42.9576 0.0000 -4.2418 0.0000
# 3 41.5447 42.9576 72.2494 0.0000 -13.7323 0.0000
# 4 0.0000 0.0000 0.0000 111.5714 0.0000 20.4268
# 5 -13.1201 -4.2418 -13.7323 0.0000 41.7980 0.0000
# 6 0.0000 0.0000 0.0000 20.4268 0.0000 75.1365
#
#
#
# Elastic Compliance Matrix: (Units=1/GPa)
#
#
# Indices 1 2 3 4 5 6 
#
# 1 0.008224 -0.002707 -0.002859 0.000000 0.001367 0.000000
# 2 -0.002707 0.006634 -0.002583 0.000000 -0.001025 0.000000
# 3 -0.002859 -0.002583 0.017919 0.000000 0.004728 0.000000
# 4 0.000000 0.000000 0.000000 0.009432 0.000000 -0.002564
# 5 0.001367 -0.001025 0.004728 0.000000 0.025803 0.000000
# 6 0.000000 0.000000 0.000000 -0.002564 0.000000 0.014006
#
#
# Mechanical properties :
#
#
# Convention : Reuss Voigt Hill
#
# Bulk Modulus (GPa) = 60.68397 85.48691 73.08544
# Shear Modulus (GPa) = 48.16549 63.79255 55.97902
#
# Velocity S-wave (km/s) = 4.23759 4.87681 4.56839
# Velocity P-wave (km/s) = 6.82401 7.97386 7.42124
#
# Compressibility (1/GPa) = 0.01647882
#
# Stress axis : x y z
#
# Youngs Moduli (GPa) = 121.60177 150.74151 55.80633
#
# Poissons Ratio (x) = 0.40808 0.15956
# Poissons Ratio (y) = 0.32919 0.14412
# Poissons Ratio (z) = 0.34769 0.38929
#
# Static dielectric constant tensor:
#      x y z
#    x 2.280860 0.000000 -0.035580 
#    y 0.000000 2.100800 0.000000 
#    z -0.035580 0.000000 2.172440 
# 
# From -- ./inp_files/285511.got.cif
#   From: 2010.05.17/outbox.cif.g08.bks.cpg/sg15_143_cif.got.tgz:285511.got - 2010.06.03 18:47:42.
