data_PCOD9306563
_publ_section_title
;
Structure prediction by ZEFSAII (Michael W. Deem and Ramdas Pophale) SiO2 
 PCOD9306563
Probable space group: C 2/C
;
_chemical_formula_sum "Si O2"
_cell_formula_units_Z 32
_cell_length_a 23.437729
_cell_length_b 7.185596
_cell_length_c 9.800511
_cell_angle_alpha 90.000000
_cell_angle_beta 132.204494
_cell_angle_gamma 90.000000
_cell_volume 1222.643444
_symmetry_space_group_name_H-M "C 2/C"
_symmetry_group_IT_number 15
_symmetry_cell_setting 'monoclinic'
loop_
_space_group_symop_operation_xyz
x,y,z
-x,y,1/2-z
-x,-y,-z
x,-y,1/2+z
1/2+x,1/2+y,z
1/2-x,1/2+y,1/2-z
1/2-x,1/2-y,-z
1/2+x,1/2-y,1/2+z
loop_
_atom_site_type_symbol
_atom_site_label
_atom_site_fract_x
_atom_site_fract_y
_atom_site_fract_z
Si Si1 0.595659 0.128607 0.583162
Si Si2 0.039196 0.761187 0.946372
Si Si3 0.674651 0.518648 0.118373
Si Si4 0.766921 0.471227 0.517423
O O1 0.523728 0.234554 0.537268
O O2 0.637397 0.278071 0.555828
O O3 0.566139 0.948139 0.457626
O O4 0.653519 0.045138 0.791388
O O5 0.000000 0.846942 0.750000
O O6 0.114155 0.883117 0.094218
O O7 0.748822 0.532119 0.335183
O O8 0.701084 0.448317 0.013919
O O9 0.750000 0.250000 0.500000
#
# Coordination Sequence:
#
# PCOD9306563 Si02
#       4
#     8   8   8   8
#     4  11  26  44  72 105 149 199 247 311 372 451
#     4  11  26  45  70 106 151 193 254 303 381 445
#     4  12  26  47  77 108 151 196 252 310 376 449
#     4  12  26  47  78 112 150 197 258 309 380 448
#
# _framework density 26.172798
#
# number of rings (size 3 to 8) (size 9 to 14) (size 15 to 20)
#    0.000    0.500    2.500    4.500    7.000    1.000 
#    0.000    0.000    0.000    0.000    0.000    0.000 
#    0.000    0.000    0.000    0.000    0.000    0.000 
#
# Total GULP energy -89752.770972 kJ/mol
# GULP energy per Si atom -5609.548186 kJ/mol
# Density = 2.611323 g / cm^3
# Si number density = 26.172798 Si / 1000 Ang^3
#
#
#
# Elastic Constant Matrix: (Units=GPa)
#
#
# Indices 1 2 3 4 5 6 
#
# 1 111.3856 18.8474 11.6182 0.0000 19.3701 0.0000
# 2 18.8474 81.3003 -7.6063 0.0000 16.8899 0.0000
# 3 11.6182 -7.6063 99.0247 0.0000 11.1624 0.0000
# 4 0.0000 0.0000 0.0000 46.5829 0.0000 16.9689
# 5 19.3701 16.8899 11.1624 0.0000 37.9136 0.0000
# 6 0.0000 0.0000 0.0000 16.9689 0.0000 42.0828
#
#
#
# Elastic Compliance Matrix: (Units=1/GPa)
#
#
# Indices 1 2 3 4 5 6 
#
# 1 0.010056 -0.001533 -0.000823 0.000000 -0.004212 0.000000
# 2 -0.001533 0.014099 0.001947 0.000000 -0.006071 0.000000
# 3 -0.000823 0.001947 0.010752 0.000000 -0.003613 0.000000
# 4 0.000000 0.000000 0.000000 0.025163 0.000000 -0.010146
# 5 -0.004212 -0.006071 -0.003613 0.000000 0.032296 0.000000
# 6 0.000000 0.000000 0.000000 -0.010146 0.000000 0.027854
#
#
# Mechanical properties :
#
#
# Convention : Reuss Voigt Hill
#
# Bulk Modulus (GPa) = 29.33495 37.49212 33.41354
# Shear Modulus (GPa) = 37.76451 43.23928 40.50189
#
# Velocity S-wave (km/s) = 3.80266 4.06898 3.93807
# Velocity P-wave (km/s) = 5.52384 6.03584 5.78551
#
# Compressibility (1/GPa) = 0.03408903
#
# Stress axis : x y z
#
# Youngs Moduli (GPa) = 99.44754 70.92787 93.00760
#
# Poissons Ratio (x) = 0.10873 0.07652
# Poissons Ratio (y) = 0.15245 -0.18110
# Poissons Ratio (z) = 0.08182 -0.13811
#
# Static dielectric constant tensor:
#      x y z
#    x 2.049340 0.000000 0.075140 
#    y 0.000000 2.038420 0.000000 
#    z 0.075140 0.000000 1.960850 
# 
# From -- ./inp_files/109878.got.cif
#   From: 2010.05.17/outbox.cif.g08.bks.cpg/sg15_55_cif.got.tgz:109878.got - 2010.06.03 18:47:42.
