data_PCOD9306115
_publ_section_title
;
Structure prediction by ZEFSAII (Michael W. Deem and Ramdas Pophale) SiO2 
 PCOD9306115
Probable space group: C 2/C
;
_chemical_formula_sum "Si O2"
_cell_formula_units_Z 48
_cell_length_a 9.706976
_cell_length_b 16.760980
_cell_length_c 19.273479
_cell_angle_alpha 90.000000
_cell_angle_beta 143.756212
_cell_angle_gamma 90.000000
_cell_volume 1853.933787
_symmetry_space_group_name_H-M "C 2/C"
_symmetry_group_IT_number 15
_symmetry_cell_setting 'monoclinic'
loop_
_space_group_symop_operation_xyz
x,y,z
-x,y,1/2-z
-x,-y,-z
x,-y,1/2+z
1/2+x,1/2+y,z
1/2-x,1/2+y,1/2-z
1/2-x,1/2-y,-z
1/2+x,1/2-y,1/2+z
loop_
_atom_site_type_symbol
_atom_site_label
_atom_site_fract_x
_atom_site_fract_y
_atom_site_fract_z
Si Si1 0.999685 0.184941 0.019588
Si Si2 0.363786 0.107480 0.549454
Si Si3 0.726892 0.048854 0.126932
Si Si4 0.695518 0.079568 0.269819
Si Si5 0.237592 0.160338 0.874276
Si Si6 0.908124 0.949530 0.055754
O O1 0.090947 0.269747 0.032254
O O2 0.736329 0.173062 0.939145
O O3 0.153683 0.156748 0.147769
O O4 0.054958 0.117671 0.985877
O O5 0.500000 0.000000 0.500000
O O6 0.245207 0.110797 0.424874
O O7 0.273562 0.020841 0.538683
O O8 0.643473 0.083057 0.166577
O O9 0.633159 0.880974 0.139388
O O10 0.000000 0.020970 0.250000
O O11 0.500000 0.075829 0.250000
O O12 0.855796 0.000565 0.341330
O O13 0.168072 0.098645 0.906353
O O14 0.000000 0.197006 0.750000
#
# Coordination Sequence:
#
# PCOD9306115 Si02
#       6
#     8   8   8   8   8   8
#     4  11  25  50  71 109 159 207 257 323 411 474
#     4  11  25  46  81 104 148 198 271 315 391 463
#     4  12  26  45  77 121 162 202 264 335 409 466
#     4  11  26  43  77 120 157 201 270 337 398 474
#     4  12  28  47  72 109 161 206 258 324 405 484
#     4  11  25  44  77 109 151 201 268 322 400 461
#
# _framework density 25.890893999999999
#
# number of rings (size 3 to 8) (size 9 to 14) (size 15 to 20)
#    0.000    0.667    3.333    5.000   11.667    0.000 
#    3.000    0.000    0.000    0.000    0.000    0.000 
#    0.000    0.000    0.000    0.000    0.000    0.000 
#
# Total GULP energy -133961.238899 kJ/mol
# GULP energy per Si atom -5581.718287 kJ/mol
# Density = 2.583197 g / cm^3
# Si number density = 25.890894 Si / 1000 Ang^3
#
#
#
# Elastic Constant Matrix: (Units=GPa)
#
#
# Indices 1 2 3 4 5 6 
#
# 1 202.6763 27.5331 28.9730 0.0003 24.4789 0.0000
# 2 27.5331 100.1274 2.1339 0.0007 18.0711 0.0002
# 3 28.9730 2.1339 71.4352 0.0013 14.0263 0.0007
# 4 0.0003 0.0007 0.0013 32.9252 0.0010 12.0592
# 5 24.4789 18.0711 14.0263 0.0010 44.5044 0.0004
# 6 0.0000 0.0002 0.0007 12.0592 0.0004 48.6754
#
#
#
# Elastic Compliance Matrix: (Units=1/GPa)
#
#
# Indices 1 2 3 4 5 6 
#
# 1 0.005597 -0.001132 -0.001835 0.000000 -0.002040 0.000000
# 2 -0.001132 0.011028 0.000945 0.000000 -0.004153 0.000000
# 3 -0.001835 0.000945 0.015555 0.000000 -0.004276 0.000000
# 4 0.000000 0.000000 0.000000 0.033403 -0.000001 -0.008275
# 5 -0.002040 -0.004153 -0.004276 -0.000001 0.026626 0.000000
# 6 0.000000 0.000000 0.000000 -0.008275 0.000000 0.022594
#
#
# Mechanical properties :
#
#
# Convention : Reuss Voigt Hill
#
# Bulk Modulus (GPa) = 35.54289 54.61322 45.07805
# Shear Modulus (GPa) = 38.99402 46.26094 42.62748
#
# Velocity S-wave (km/s) = 3.88505 4.23160 4.06202
# Velocity P-wave (km/s) = 5.82087 6.70930 6.28081
#
# Compressibility (1/GPa) = 0.02813503
#
# Stress axis : x y z
#
# Youngs Moduli (GPa) = 178.68305 90.67906 64.28973
#
# Poissons Ratio (x) = 0.10261 0.11800
# Poissons Ratio (y) = 0.20219 -0.06076
# Poissons Ratio (z) = 0.32796 -0.08569
#
# Static dielectric constant tensor:
#      x y z
#    x 2.130330 0.000000 0.051510 
#    y 0.000000 2.176190 0.000000 
#    z 0.051510 0.000000 2.145120 
# 
# From -- ./inp_files/232886.got.cif
#   From: 2010.05.17/outbox.cif.g08.bks.cpg/sg15_117_cif.got.tgz:232886.got - 2010.06.03 18:47:42.
