data_PCOD9306409
_publ_section_title
;
Structure prediction by ZEFSAII (Michael W. Deem and Ramdas Pophale) SiO2 
 PCOD9306409
Probable space group: C 2/C
;
_chemical_formula_sum "Si O2"
_cell_formula_units_Z 44
_cell_length_a 6.574593
_cell_length_b 14.154800
_cell_length_c 19.767166
_cell_angle_alpha 90.000000
_cell_angle_beta 98.234689
_cell_angle_gamma 90.000000
_cell_volume 1820.606415
_symmetry_space_group_name_H-M "C 2/C"
_symmetry_group_IT_number 15
_symmetry_cell_setting 'monoclinic'
loop_
_space_group_symop_operation_xyz
x,y,z
-x,y,1/2-z
-x,-y,-z
x,-y,1/2+z
1/2+x,1/2+y,z
1/2-x,1/2+y,1/2-z
1/2-x,1/2-y,-z
1/2+x,1/2-y,1/2+z
loop_
_atom_site_type_symbol
_atom_site_label
_atom_site_fract_x
_atom_site_fract_y
_atom_site_fract_z
Si Si1 0.924496 0.905281 0.171125
Si Si2 0.000000 0.403307 0.750000
Si Si3 0.843185 0.769175 0.795559
Si Si4 0.862616 0.823362 0.577781
Si Si5 0.776268 0.888903 0.439040
Si Si6 0.947560 0.533311 0.391346
O O1 0.802293 0.807281 0.176683
O O2 0.761054 0.974861 0.129580
O O3 0.000000 0.935101 0.250000
O O4 0.105872 0.894103 0.126081
O O5 0.803673 0.337793 0.753231
O O6 0.037441 0.458593 0.820037
O O7 0.000000 0.722346 0.750000
O O8 0.970135 0.830657 0.855397
O O9 0.921432 0.877085 0.511520
O O10 0.844997 0.710800 0.566945
O O11 0.638395 0.866902 0.585749
O O12 0.618291 0.975131 0.439793
#
# Coordination Sequence:
#
# PCOD9306409 Si02
#       6
#     8   4   8   8   8   8
#     4  12  26  43  72 106 139 184 237 295 361 430
#     4  12  26  42  72 102 142 184 236 292 362 426
#     4  12  24  46  70 105 141 187 240 297 364 431
#     4  11  25  48  72 100 145 188 239 295 363 435
#     4  11  26  50  69 102 143 189 237 298 363 433
#     4  12  26  45  70 106 141 188 241 300 357 438
#
# _framework density 24.167771999999999
#
# number of rings (size 3 to 8) (size 9 to 14) (size 15 to 20)
#    0.000    0.364    4.545    3.818    6.364    1.455 
#    3.273    0.000    0.000    0.000    0.000    0.000 
#    0.000    0.000    0.000    0.000    0.000    0.000 
#
# Total GULP energy -123166.512852 kJ/mol
# GULP energy per Si atom -5598.477857 kJ/mol
# Density = 2.411276 g / cm^3
# Si number density = 24.167772 Si / 1000 Ang^3
#
#
#
# Elastic Constant Matrix: (Units=GPa)
#
#
# Indices 1 2 3 4 5 6 
#
# 1 84.4467 24.4832 37.7084 0.0000 -2.3397 0.0000
# 2 24.4832 69.0426 7.4851 0.0000 3.2323 0.0000
# 3 37.7084 7.4851 108.2799 0.0000 -13.0827 0.0000
# 4 0.0000 0.0000 0.0000 31.9369 0.0000 3.2133
# 5 -2.3397 3.2323 -13.0827 0.0000 39.7932 0.0000
# 6 0.0000 0.0000 0.0000 3.2133 0.0000 42.3300
#
#
#
# Elastic Compliance Matrix: (Units=1/GPa)
#
#
# Indices 1 2 3 4 5 6 
#
# 1 0.015550 -0.004942 -0.005118 0.000000 -0.000367 0.000000
# 2 -0.004942 0.016260 0.000419 0.000000 -0.001474 0.000000
# 3 -0.005118 0.000419 0.011401 0.000000 0.003413 0.000000
# 4 0.000000 0.000000 0.000000 0.031553 0.000000 -0.002395
# 5 -0.000367 -0.001474 0.003413 0.000000 0.026350 0.000000
# 6 0.000000 0.000000 0.000000 -0.002395 0.000000 0.023806
#
#
# Mechanical properties :
#
#
# Convention : Reuss Voigt Hill
#
# Bulk Modulus (GPa) = 41.79059 44.56919 43.17989
# Shear Modulus (GPa) = 32.85634 35.61818 34.23726
#
# Velocity S-wave (km/s) = 3.69115 3.84316 3.76792
# Velocity P-wave (km/s) = 5.95782 6.17857 6.06920
#
# Compressibility (1/GPa) = 0.02392883
#
# Stress axis : x y z
#
# Youngs Moduli (GPa) = 64.30963 61.50106 87.71105
#
# Poissons Ratio (x) = 0.30394 0.44890
# Poissons Ratio (y) = 0.31782 -0.03675
# Poissons Ratio (z) = 0.32913 -0.02577
#
# Static dielectric constant tensor:
#      x y z
#    x 1.941850 0.000000 -0.016190 
#    y 0.000000 1.962830 0.000000 
#    z -0.016190 0.000000 1.965390 
# 
# From -- ./inp_files/260419.got.cif
#   From: 2010.05.17/outbox.cif.g08.bks.cpg/sg15_131_cif.got.tgz:260419.got - 2010.06.03 18:47:42.
