data_PCOD9306565
_publ_section_title
;
Structure prediction by ZEFSAII (Michael W. Deem and Ramdas Pophale) SiO2 
 PCOD9306565
Probable space group: C 2/C
;
_chemical_formula_sum "Si O2"
_cell_formula_units_Z 28
_cell_length_a 17.762184
_cell_length_b 6.005786
_cell_length_c 12.393855
_cell_angle_alpha 90.000000
_cell_angle_beta 115.350192
_cell_angle_gamma 90.000000
_cell_volume 1194.815022
_symmetry_space_group_name_H-M "C 2/C"
_symmetry_group_IT_number 15
_symmetry_cell_setting 'monoclinic'
loop_
_space_group_symop_operation_xyz
x,y,z
-x,y,1/2-z
-x,-y,-z
x,-y,1/2+z
1/2+x,1/2+y,z
1/2-x,1/2+y,1/2-z
1/2-x,1/2-y,-z
1/2+x,1/2-y,1/2+z
loop_
_atom_site_type_symbol
_atom_site_label
_atom_site_fract_x
_atom_site_fract_y
_atom_site_fract_z
Si Si1 0.500000 0.169526 0.750000
Si Si2 0.790663 0.048061 0.954396
Si Si3 0.428998 0.473827 0.367722
Si Si4 0.620351 0.814229 0.847174
O O1 0.567218 0.022351 0.858136
O O2 0.555863 0.314032 0.701404
O O3 0.843701 0.078279 0.878680
O O4 0.710584 0.905617 0.871873
O O5 0.750000 0.250000 0.000000
O O6 0.854516 0.896471 0.064275
O O7 0.500000 0.500000 0.500000
O O8 0.432200 0.271198 0.286402
#
# Coordination Sequence:
#
# PCOD9306565 Si02
#       4
#     4   8   8   8
#     4  12  26  48  70 108 152 192 258 296 374 448
#     4  11  26  47  73 109 150 193 254 308 378 449
#     4  12  26  45  74 107 150 202 245 312 373 447
#     4  11  26  44  73 108 146 198 246 313 373 441
#
# _framework density 23.434588999999999
#
# number of rings (size 3 to 8) (size 9 to 14) (size 15 to 20)
#    0.000    0.571    0.000    7.714    8.000    6.857 
#    0.000    0.000    0.000    0.000    0.000    0.000 
#    0.000    0.000    0.000    0.000    0.000    0.000 
#
# Total GULP energy -78084.375640 kJ/mol
# GULP energy per Si atom -5577.455403 kJ/mol
# Density = 2.338125 g / cm^3
# Si number density = 23.434589 Si / 1000 Ang^3
#
#
#
# Elastic Constant Matrix: (Units=GPa)
#
#
# Indices 1 2 3 4 5 6 
#
# 1 171.0004 58.3709 18.1844 0.0000 -33.5763 0.0000
# 2 58.3709 97.2627 38.5094 0.0000 -14.0244 0.0000
# 3 18.1844 38.5094 94.8392 0.0000 9.7651 0.0000
# 4 0.0000 0.0000 0.0000 29.5006 0.0000 21.9019
# 5 -33.5763 -14.0244 9.7651 0.0000 31.4203 0.0000
# 6 0.0000 0.0000 0.0000 21.9019 0.0000 46.5635
#
#
#
# Elastic Compliance Matrix: (Units=1/GPa)
#
#
# Indices 1 2 3 4 5 6 
#
# 1 0.008810 -0.003726 -0.001007 0.000000 0.008065 0.000000
# 2 -0.003726 0.015663 -0.006152 0.000000 0.004922 0.000000
# 3 -0.001007 -0.006152 0.014079 0.000000 -0.008198 0.000000
# 4 0.000000 0.000000 0.000000 0.052087 0.000000 -0.024500
# 5 0.008065 0.004922 -0.008198 0.000000 0.045189 0.000000
# 6 0.000000 0.000000 0.000000 -0.024500 0.000000 0.033000
#
#
# Mechanical properties :
#
#
# Convention : Reuss Voigt Hill
#
# Bulk Modulus (GPa) = 59.58486 65.91463 62.74974
# Shear Modulus (GPa) = 25.48509 38.03272 31.75891
#
# Velocity S-wave (km/s) = 3.30130 4.03293 3.68532
# Velocity P-wave (km/s) = 6.32556 7.06217 6.70399
#
# Compressibility (1/GPa) = 0.01678279
#
# Stress axis : x y z
#
# Youngs Moduli (GPa) = 113.50240 63.84449 71.02574
#
# Poissons Ratio (x) = 0.23788 0.07151
# Poissons Ratio (y) = 0.42291 0.43697
# Poissons Ratio (z) = 0.11427 0.39279
#
# Static dielectric constant tensor:
#      x y z
#    x 2.025600 0.000000 -0.076230 
#    y 0.000000 1.988090 0.000000 
#    z -0.076230 0.000000 1.905720 
# 
# From -- ./inp_files/101959.got.cif
#   From: 2010.05.17/outbox.cif.g08.bks.cpg/sg15_51_cif.got.tgz:101959.got - 2010.06.03 18:47:42.
