data_PCOD9306866
_publ_section_title
;
Structure prediction by ZEFSAII (Michael W. Deem and Ramdas Pophale) SiO2 
 PCOD9306866
Probable space group: C 2/C
;
_chemical_formula_sum "Si O2"
_cell_formula_units_Z 40
_cell_length_a 9.997153
_cell_length_b 20.777227
_cell_length_c 13.961277
_cell_angle_alpha 90.000000
_cell_angle_beta 152.591272
_cell_angle_gamma 90.000000
_cell_volume 1334.944114
_symmetry_space_group_name_H-M "C 2/C"
_symmetry_group_IT_number 15
_symmetry_cell_setting 'monoclinic'
loop_
_space_group_symop_operation_xyz
x,y,z
-x,y,1/2-z
-x,-y,-z
x,-y,1/2+z
1/2+x,1/2+y,z
1/2-x,1/2+y,1/2-z
1/2-x,1/2-y,-z
1/2+x,1/2-y,1/2+z
loop_
_atom_site_type_symbol
_atom_site_label
_atom_site_fract_x
_atom_site_fract_y
_atom_site_fract_z
Si Si1 0.414912 0.425687 0.905530
Si Si2 0.290615 0.763928 0.430998
Si Si3 0.782375 0.403429 0.327086
Si Si4 0.321385 0.003380 0.515859
Si Si5 0.819217 0.806252 0.470788
O O1 0.632365 0.474537 0.988012
O O2 0.539017 0.402098 0.088086
O O3 0.447592 0.361853 0.861327
O O4 0.097411 0.455888 0.711929
O O5 0.478225 0.757816 0.659184
O O6 0.289169 0.839308 0.395221
O O7 0.541352 0.729134 0.530754
O O8 0.068156 0.427600 0.454160
O O9 0.729003 0.464551 0.361324
O O10 0.500000 0.835857 0.250000
O O11 0.750000 0.750000 0.500000
#
# Coordination Sequence:
#
# PCOD9306866 Si02
#       5
#     8   8   8   8   8
#     4  12  27  55  83 124 174 228 289 365 428 525
#     4  12  28  52  84 123 164 219 290 355 433 509
#     4  11  27  52  81 122 175 216 285 362 429 516
#     4  11  28  49  87 123 169 231 291 345 448 512
#     4  12  27  52  83 118 170 221 282 353 440 520
#
# _framework density 29.963799999999999
#
# number of rings (size 3 to 8) (size 9 to 14) (size 15 to 20)
#    0.000    0.400    0.000    7.200    8.400    4.000 
#   10.800    0.000    0.000    0.000    0.000    0.000 
#    0.000    0.000    0.000    0.000    0.000    0.000 
#
# Total GULP energy -111772.467359 kJ/mol
# GULP energy per Si atom -5588.623368 kJ/mol
# Density = 2.989560 g / cm^3
# Si number density = 29.963800 Si / 1000 Ang^3
#
#
#
# Elastic Constant Matrix: (Units=GPa)
#
#
# Indices 1 2 3 4 5 6 
#
# 1 243.0541 46.2185 76.7153 0.0007 -13.0846 -0.0056
# 2 46.2185 209.8284 37.3579 0.0016 -32.2151 0.0005
# 3 76.7153 37.3579 151.6131 -0.0006 -37.6950 -0.0267
# 4 0.0007 0.0016 -0.0006 99.3255 -0.0005 109.2497
# 5 -13.0846 -32.2151 -37.6950 -0.0005 56.4155 -0.0162
# 6 -0.0056 0.0005 -0.0267 109.2497 -0.0162 456.7549
#
#
#
# Elastic Compliance Matrix: (Units=1/GPa)
#
#
# Indices 1 2 3 4 5 6 
#
# 1 0.005034 -0.000803 -0.002606 0.000000 -0.001032 0.000000
# 2 -0.000803 0.005407 -0.000245 0.000000 0.002737 0.000000
# 3 -0.002606 -0.000245 0.009341 -0.000001 0.005497 0.000001
# 4 0.000000 0.000000 -0.000001 0.013662 -0.000002 -0.003268
# 5 -0.001032 0.002737 0.005497 -0.000002 0.022722 0.000001
# 6 0.000000 0.000000 0.000001 -0.003268 0.000001 0.002971
#
#
# Mechanical properties :
#
#
# Convention : Reuss Voigt Hill
#
# Bulk Modulus (GPa) = 80.17147 102.78657 91.47902
# Shear Modulus (GPa) = 70.81720 152.11278 111.46499
#
# Velocity S-wave (km/s) = 4.86678 7.13272 6.10579
# Velocity P-wave (km/s) = 7.64166 10.11001 8.96123
#
# Compressibility (1/GPa) = 0.01247327
#
# Stress axis : x y z
#
# Youngs Moduli (GPa) = 198.64916 184.95722 107.04945
#
# Poissons Ratio (x) = 0.14859 0.27896
# Poissons Ratio (y) = 0.15959 0.02624
# Poissons Ratio (z) = 0.51766 0.04534
#
# Static dielectric constant tensor:
#      x y z
#    x 2.375490 0.000000 -0.060670 
#    y 0.000000 2.375520 -0.000010 
#    z -0.060670 -0.000010 3.236430 
# 
# From -- ./inp_files/249571.got.cif
#   From: 2010.05.17/outbox.cif.g08.bks.cpg/sg15_125_cif.got.tgz:249571.got - 2010.06.03 18:47:42.
