data_PCOD9306624
_publ_section_title
;
Structure prediction by ZEFSAII (Michael W. Deem and Ramdas Pophale) SiO2 
 PCOD9306624
Probable space group: C 2/C
;
_chemical_formula_sum "Si O2"
_cell_formula_units_Z 40
_cell_length_a 14.577942
_cell_length_b 8.553743
_cell_length_c 15.560078
_cell_angle_alpha 90.000000
_cell_angle_beta 66.098424
_cell_angle_gamma 90.000000
_cell_volume 1773.886135
_symmetry_space_group_name_H-M "C 2/C"
_symmetry_group_IT_number 15
_symmetry_cell_setting 'monoclinic'
loop_
_space_group_symop_operation_xyz
x,y,z
-x,y,1/2-z
-x,-y,-z
x,-y,1/2+z
1/2+x,1/2+y,z
1/2-x,1/2+y,1/2-z
1/2-x,1/2-y,-z
1/2+x,1/2-y,1/2+z
loop_
_atom_site_type_symbol
_atom_site_label
_atom_site_fract_x
_atom_site_fract_y
_atom_site_fract_z
Si Si1 0.860414 0.759117 0.235723
Si Si2 0.535816 0.674762 0.461228
Si Si3 0.344279 0.630325 0.253705
Si Si4 0.139442 0.293786 0.072002
Si Si5 0.912818 0.344730 0.893947
O O1 0.770643 0.682450 0.216571
O O2 0.849774 0.728972 0.341069
O O3 0.968393 0.685896 0.170004
O O4 0.858237 0.946069 0.232018
O O5 0.500000 0.500000 0.500000
O O6 0.593610 0.698256 0.349709
O O7 0.431131 0.757002 0.481640
O O8 0.599524 0.755268 0.511793
O O9 0.379858 0.692722 0.333377
O O10 0.118620 0.475391 0.096396
O O11 0.250000 0.250000 0.000000
#
# Coordination Sequence:
#
# PCOD9306624 Si02
#       5
#     8   8   8   8   8
#     4  11  26  46  75 104 149 190 250 299 373 439
#     4  12  26  47  74 105 150 191 248 308 373 444
#     4  12  27  47  75 108 145 199 246 307 377 444
#     4  12  29  48  75 108 150 195 251 302 376 447
#     4  11  26  49  73 106 149 193 245 310 366 442
#
# _framework density 22.549361999999999
#
# number of rings (size 3 to 8) (size 9 to 14) (size 15 to 20)
#    0.000    0.400    2.000    4.800   16.800    0.800 
#    0.000    0.000    0.000    0.000    0.000    0.000 
#    0.000    0.000    0.000    0.000    0.000    0.000 
#
# Total GULP energy -111865.486933 kJ/mol
# GULP energy per Si atom -5593.274347 kJ/mol
# Density = 2.249804 g / cm^3
# Si number density = 22.549362 Si / 1000 Ang^3
#
#
#
# Elastic Constant Matrix: (Units=GPa)
#
#
# Indices 1 2 3 4 5 6 
#
# 1 62.5444 25.1490 10.2784 0.0000 9.6814 0.0000
# 2 25.1490 101.8475 10.9211 0.0000 -14.0855 0.0000
# 3 10.2784 10.9211 106.1178 0.0000 0.8749 0.0000
# 4 0.0000 0.0000 0.0000 33.7448 0.0000 8.5537
# 5 9.6814 -14.0855 0.8749 0.0000 42.4380 0.0000
# 6 0.0000 0.0000 0.0000 8.5537 0.0000 41.1013
#
#
#
# Elastic Compliance Matrix: (Units=1/GPa)
#
#
# Indices 1 2 3 4 5 6 
#
# 1 0.019374 -0.005510 -0.001258 0.000000 -0.006223 0.000000
# 2 -0.005510 0.011985 -0.000743 0.000000 0.005250 0.000000
# 3 -0.001258 -0.000743 0.009623 0.000000 -0.000158 0.000000
# 4 0.000000 0.000000 0.000000 0.031285 0.000000 -0.006511
# 5 -0.006223 0.005250 -0.000158 0.000000 0.026729 0.000000
# 6 0.000000 0.000000 0.000000 -0.006511 0.000000 0.025685
#
#
# Mechanical properties :
#
#
# Convention : Reuss Voigt Hill
#
# Bulk Modulus (GPa) = 38.52049 40.35629 39.43839
# Shear Modulus (GPa) = 33.70268 38.40088 36.05178
#
# Velocity S-wave (km/s) = 3.87022 4.13118 4.00283
# Velocity P-wave (km/s) = 6.09027 6.37897 6.23629
#
# Compressibility (1/GPa) = 0.02596021
#
# Stress axis : x y z
#
# Youngs Moduli (GPa) = 51.61542 83.43869 103.91630
#
# Poissons Ratio (x) = 0.45972 0.13075
# Poissons Ratio (y) = 0.28438 0.07721
# Poissons Ratio (z) = 0.06494 0.06200
#
# Static dielectric constant tensor:
#      x y z
#    x 1.824110 0.000000 -0.029840 
#    y 0.000000 1.221430 0.000000 
#    z -0.029840 0.000000 1.843060 
# 
# From -- ./inp_files/150564.got.cif
#   From: 2010.05.17/outbox.cif.g08.bks.cpg/sg15_76_cif.got.tgz:150564.got - 2010.06.03 18:47:42.
