data_PCOD9306041
_publ_section_title
;
Structure prediction by ZEFSAII (Michael W. Deem and Ramdas Pophale) SiO2 
 PCOD9306041
Probable space group: C 2/C
;
_chemical_formula_sum "Si O2"
_cell_formula_units_Z 40
_cell_length_a 7.369951
_cell_length_b 16.217055
_cell_length_c 19.472415
_cell_angle_alpha 90.000000
_cell_angle_beta 44.022496
_cell_angle_gamma 90.000000
_cell_volume 1617.350644
_symmetry_space_group_name_H-M "C 2/C"
_symmetry_group_IT_number 15
_symmetry_cell_setting 'monoclinic'
loop_
_space_group_symop_operation_xyz
x,y,z
-x,y,1/2-z
-x,-y,-z
x,-y,1/2+z
1/2+x,1/2+y,z
1/2-x,1/2+y,1/2-z
1/2-x,1/2-y,-z
1/2+x,1/2-y,1/2+z
loop_
_atom_site_type_symbol
_atom_site_label
_atom_site_fract_x
_atom_site_fract_y
_atom_site_fract_z
Si Si1 0.670636 0.438241 0.761949
Si Si2 0.476743 0.930689 0.337045
Si Si3 0.771990 0.989184 0.469772
Si Si4 0.932702 0.293199 0.842539
Si Si5 0.046026 0.180648 0.938732
O O1 0.500000 0.396914 0.750000
O O2 0.487513 0.452633 0.876419
O O3 0.753200 0.529699 0.712713
O O4 0.923566 0.381677 0.700976
O O5 0.500000 0.950371 0.250000
O O6 0.344656 0.841739 0.375498
O O7 0.281963 0.979809 0.439109
O O8 0.893873 0.897723 0.444505
O O9 0.500000 0.000000 0.500000
O O10 0.045717 0.247503 0.878685
O O11 0.000000 0.253697 0.750000
O O12 0.628147 0.297932 0.947248
#
# Coordination Sequence:
#
# PCOD9306041 Si02
#       5
#     8   8   8   8   8
#     4  12  24  43  71 107 140 191 242 298 363 427
#     4  12  24  40  72 105 138 184 240 296 353 424
#     4  12  24  43  72 107 142 180 252 301 351 431
#     4  11  25  46  71  99 155 193 228 298 374 436
#     4  11  25  43  68 110 141 186 244 294 362 440
#
# _framework density 24.731805999999999
#
# number of rings (size 3 to 8) (size 9 to 14) (size 15 to 20)
#    0.000    0.400    6.000    2.400    0.000    3.200 
#    0.000    0.000    0.000    9.600    0.000    0.000 
#    0.000    0.000    0.000    0.000    0.000    0.000 
#
# Total GULP energy -111552.296918 kJ/mol
# GULP energy per Si atom -5577.614846 kJ/mol
# Density = 2.467552 g / cm^3
# Si number density = 24.731806 Si / 1000 Ang^3
#
#
#
# Elastic Constant Matrix: (Units=GPa)
#
#
# Indices 1 2 3 4 5 6 
#
# 1 66.4129 9.9864 38.4190 -0.0011 -9.6044 -0.0004
# 2 9.9864 57.3479 45.8783 0.0001 4.3608 -0.0004
# 3 38.4190 45.8783 242.3180 0.0018 25.9611 -0.0009
# 4 -0.0011 0.0001 0.0018 21.4275 -0.0001 2.8694
# 5 -9.6044 4.3608 25.9611 -0.0001 36.7846 0.0005
# 6 -0.0004 -0.0004 -0.0009 2.8694 0.0005 31.9066
#
#
#
# Elastic Compliance Matrix: (Units=1/GPa)
#
#
# Indices 1 2 3 4 5 6 
#
# 1 0.018296 -0.000936 -0.003513 0.000001 0.007367 0.000000
# 2 -0.000936 0.020602 -0.003748 0.000000 -0.000042 0.000000
# 3 -0.003513 -0.003748 0.005889 -0.000001 -0.004629 0.000000
# 4 0.000001 0.000000 -0.000001 0.047238 0.000001 -0.004248
# 5 0.007367 -0.000042 -0.004629 0.000001 0.032381 -0.000001
# 6 0.000000 0.000000 0.000000 -0.004248 -0.000001 0.031724
#
#
# Mechanical properties :
#
#
# Convention : Reuss Voigt Hill
#
# Bulk Modulus (GPa) = 35.21898 61.62736 48.42317
# Shear Modulus (GPa) = 27.47459 36.14341 31.80900
#
# Velocity S-wave (km/s) = 3.33663 3.82699 3.59019
# Velocity P-wave (km/s) = 5.39587 6.67085 6.06694
#
# Compressibility (1/GPa) = 0.02839378
#
# Stress axis : x y z
#
# Youngs Moduli (GPa) = 54.65803 48.53963 169.79992
#
# Poissons Ratio (x) = 0.04543 0.59648
# Poissons Ratio (y) = 0.05115 0.63636
# Poissons Ratio (z) = 0.19200 0.18191
#
# Static dielectric constant tensor:
#      x y z
#    x 2.007100 0.000000 -0.021690 
#    y 0.000000 1.984060 0.000000 
#    z -0.021690 0.000000 1.950920 
# 
# From -- ./inp_files/232442.got.cif
#   From: 2010.05.17/outbox.cif.g08.bks.cpg/sg15_117_cif.got.tgz:232442.got - 2010.06.03 18:47:42.
