data_PCOD9306048
_publ_section_title
;
Structure prediction by ZEFSAII (Michael W. Deem and Ramdas Pophale) SiO2 
 PCOD9306048
Probable space group: C 2/C
;
_chemical_formula_sum "Si O2"
_cell_formula_units_Z 64
_cell_length_a 15.403388
_cell_length_b 11.963264
_cell_length_c 28.286357
_cell_angle_alpha 90.000000
_cell_angle_beta 37.494488
_cell_angle_gamma 90.000000
_cell_volume 3172.748397
_symmetry_space_group_name_H-M "C 2/C"
_symmetry_group_IT_number 15
_symmetry_cell_setting 'monoclinic'
loop_
_space_group_symop_operation_xyz
x,y,z
-x,y,1/2-z
-x,-y,-z
x,-y,1/2+z
1/2+x,1/2+y,z
1/2-x,1/2+y,1/2-z
1/2-x,1/2-y,-z
1/2+x,1/2-y,1/2+z
loop_
_atom_site_type_symbol
_atom_site_label
_atom_site_fract_x
_atom_site_fract_y
_atom_site_fract_z
Si Si1 0.282287 0.046909 0.314373
Si Si2 0.341377 0.779632 0.163856
Si Si3 0.402662 0.992711 0.860397
Si Si4 0.365263 0.241454 0.908625
Si Si5 0.887240 0.598876 0.547138
Si Si6 0.405755 0.465572 0.838237
Si Si7 0.604476 0.401084 0.324443
Si Si8 0.404837 0.803485 0.938124
O O1 0.247072 0.168051 0.308736
O O2 0.435549 0.007275 0.228719
O O3 0.301646 0.054413 0.362426
O O4 0.163046 0.962760 0.345846
O O5 0.476687 0.751999 0.137523
O O6 0.394023 0.829692 0.091696
O O7 0.239930 0.868198 0.233800
O O8 0.404845 0.914421 0.905607
O O9 0.354173 0.118497 0.891332
O O10 0.351997 0.343617 0.877810
O O11 0.250000 0.250000 0.000000
O O12 0.728836 0.546660 0.611391
O O13 0.923285 0.667468 0.484760
O O14 0.000000 0.500000 0.500000
O O15 0.500000 0.458665 0.750000
O O16 0.501837 0.518446 0.838512
O O17 0.520700 0.287050 0.371756
O O18 0.250000 0.750000 0.000000
#
# Coordination Sequence:
#
# PCOD9306048 Si02
#       8
#     8   8   8   8   8   8   8   8
#     4  11  25  43  70 106 133 182 234 292 347 409
#     4  12  24  46  72 102 143 186 238 292 347 425
#     4  11  25  45  70 102 142 178 234 292 350 413
#     4  12  27  46  68 102 150 188 224 292 367 421
#     4  12  27  45  71 108 143 188 235 289 360 426
#     4  12  26  45  75 103 142 186 240 293 352 424
#     4  12  25  45  73 106 137 182 245 294 345 422
#     4  12  25  45  74 103 143 184 231 292 358 419
#
# _framework density 20.171786000000001
#
# number of rings (size 3 to 8) (size 9 to 14) (size 15 to 20)
#    0.000    0.250    6.250    3.000    1.750    3.000 
#    0.000    1.875    0.000    0.000    0.000    0.000 
#    0.000    0.000    0.000    0.000    0.000    0.000 
#
# Total GULP energy -179078.029412 kJ/mol
# GULP energy per Si atom -5596.188419 kJ/mol
# Density = 2.012587 g / cm^3
# Si number density = 20.171786 Si / 1000 Ang^3
#
#
#
# Elastic Constant Matrix: (Units=GPa)
#
#
# Indices 1 2 3 4 5 6 
#
# 1 53.7148 -16.1568 -16.1253 0.0000 2.2775 0.0000
# 2 -16.1568 67.4863 -5.2654 0.0000 10.2347 0.0000
# 3 -16.1253 -5.2654 65.8456 0.0000 12.8690 0.0000
# 4 0.0000 0.0000 0.0000 39.1640 0.0000 1.9317
# 5 2.2775 10.2347 12.8690 0.0000 33.5185 0.0000
# 6 0.0000 0.0000 0.0000 1.9317 0.0000 37.8018
#
#
#
# Elastic Compliance Matrix: (Units=1/GPa)
#
#
# Indices 1 2 3 4 5 6 
#
# 1 0.023350 0.007200 0.007604 0.000000 -0.006705 0.000000
# 2 0.007200 0.018100 0.004742 0.000000 -0.007837 0.000000
# 3 0.007604 0.004742 0.019258 0.000000 -0.009358 0.000000
# 4 0.000000 0.000000 0.000000 0.025598 0.000000 -0.001308
# 5 -0.006705 -0.007837 -0.009358 0.000000 0.036276 0.000000
# 6 0.000000 0.000000 0.000000 -0.001308 0.000000 0.026521
#
#
# Mechanical properties :
#
#
# Convention : Reuss Voigt Hill
#
# Bulk Modulus (GPa) = 10.01988 12.43907 11.22948
# Shear Modulus (GPa) = 34.89787 37.06980 35.98384
#
# Velocity S-wave (km/s) = 4.16388 4.29150 4.22817
# Velocity P-wave (km/s) = 5.30050 5.54400 5.42361
#
# Compressibility (1/GPa) = 0.09980155
#
# Stress axis : x y z
#
# Youngs Moduli (GPa) = 42.82698 55.24824 51.92757
#
# Poissons Ratio (x) = -0.39780 -0.39488
# Poissons Ratio (y) = -0.30837 -0.24626
# Poissons Ratio (z) = -0.32568 -0.26201
#
# Static dielectric constant tensor:
#      x y z
#    x 1.831970 0.000000 0.127030 
#    y 0.000000 1.694910 0.000000 
#    z 0.127030 0.000000 1.788550 
# 
# From -- ./inp_files/296101.got.cif
#   From: 2010.05.17/outbox.cif.g08.bks.cpg/sg15_149_cif.got.tgz:296101.got - 2010.06.03 18:47:42.
