data_PCOD9306667
_publ_section_title
;
Structure prediction by ZEFSAII (Michael W. Deem and Ramdas Pophale) SiO2 
 PCOD9306667
Probable space group: C 2/C
;
_chemical_formula_sum "Si O2"
_cell_formula_units_Z 44
_cell_length_a 17.902885
_cell_length_b 6.844727
_cell_length_c 18.624225
_cell_angle_alpha 90.000000
_cell_angle_beta 107.775541
_cell_angle_gamma 90.000000
_cell_volume 2173.265649
_symmetry_space_group_name_H-M "C 2/C"
_symmetry_group_IT_number 15
_symmetry_cell_setting 'monoclinic'
loop_
_space_group_symop_operation_xyz
x,y,z
-x,y,1/2-z
-x,-y,-z
x,-y,1/2+z
1/2+x,1/2+y,z
1/2-x,1/2+y,1/2-z
1/2-x,1/2-y,-z
1/2+x,1/2-y,1/2+z
loop_
_atom_site_type_symbol
_atom_site_label
_atom_site_fract_x
_atom_site_fract_y
_atom_site_fract_z
Si Si1 0.705503 0.773045 0.911662
Si Si2 0.048923 0.196294 0.528357
Si Si3 0.500000 0.204430 0.750000
Si Si4 0.665855 0.582753 0.301809
Si Si5 0.705205 0.424094 0.157101
Si Si6 0.047457 0.498536 0.902851
O O1 0.680677 0.566411 0.871062
O O2 0.761102 0.882956 0.871295
O O3 0.628845 0.905366 0.901238
O O4 0.750000 0.750000 0.000000
O O5 0.130685 0.147243 0.590016
O O6 0.061592 0.316554 0.458808
O O7 0.999298 0.337064 0.565842
O O8 0.000000 0.000000 0.500000
O O9 0.421874 0.333488 0.722492
O O10 0.498464 0.070528 0.820167
O O11 0.680185 0.472185 0.230827
O O12 0.727590 0.759843 0.323942
#
# Coordination Sequence:
#
# PCOD9306667 Si02
#       6
#     8   8   4   8   8   8
#     4  12  27  46  75 106 143 185 246 300 358 427
#     4  11  26  47  75 105 146 191 235 295 366 426
#     4  12  28  46  72 104 148 188 242 290 364 428
#     4  12  28  47  71 108 144 194 234 299 360 430
#     4  12  26  47  75 104 147 186 241 292 363 424
#     4  11  27  46  70 109 144 188 239 295 353 435
#
# _framework density 20.246030000000001
#
# number of rings (size 3 to 8) (size 9 to 14) (size 15 to 20)
#    0.000    0.364    3.636    3.273   12.727    4.364 
#    0.000    0.000    0.000    0.000    0.000    0.000 
#    0.000    0.000    0.000    0.000    0.000    0.000 
#
# Total GULP energy -123248.571209 kJ/mol
# GULP energy per Si atom -5602.207782 kJ/mol
# Density = 2.019995 g / cm^3
# Si number density = 20.246030 Si / 1000 Ang^3
#
#
#
# Elastic Constant Matrix: (Units=GPa)
#
#
# Indices 1 2 3 4 5 6 
#
# 1 90.7624 41.1805 37.3263 0.0000 17.9696 0.0000
# 2 41.1805 127.2241 67.8996 0.0000 11.1212 0.0000
# 3 37.3263 67.8996 158.3345 0.0000 10.0038 0.0000
# 4 0.0000 0.0000 0.0000 46.8009 0.0000 3.1793
# 5 17.9696 11.1212 10.0038 0.0000 42.9314 0.0000
# 6 0.0000 0.0000 0.0000 3.1793 0.0000 39.7479
#
#
#
# Elastic Compliance Matrix: (Units=1/GPa)
#
#
# Indices 1 2 3 4 5 6 
#
# 1 0.014102 -0.003293 -0.001617 0.000000 -0.004673 0.000000
# 2 -0.003293 0.011078 -0.003938 0.000000 -0.000574 0.000000
# 3 -0.001617 -0.003938 0.008402 0.000000 -0.000261 0.000000
# 4 0.000000 0.000000 0.000000 0.021484 0.000000 -0.001718
# 5 -0.004673 -0.000574 -0.000261 0.000000 0.025458 0.000000
# 6 0.000000 0.000000 0.000000 -0.001718 0.000000 0.025296
#
#
# Mechanical properties :
#
#
# Convention : Reuss Voigt Hill
#
# Bulk Modulus (GPa) = 62.94922 74.34820 68.64871
# Shear Modulus (GPa) = 38.81621 41.22367 40.01994
#
# Velocity S-wave (km/s) = 4.38336 4.51725 4.45081
# Velocity P-wave (km/s) = 7.53513 8.00059 7.77135
#
# Compressibility (1/GPa) = 0.01588582
#
# Stress axis : x y z
#
# Youngs Moduli (GPa) = 70.91143 90.26915 119.01622
#
# Poissons Ratio (x) = 0.29727 0.19245
# Poissons Ratio (y) = 0.23352 0.46869
# Poissons Ratio (z) = 0.11467 0.35549
#
# Static dielectric constant tensor:
#      x y z
#    x 1.660850 0.000000 -0.027080 
#    y 0.000000 1.696670 0.000000 
#    z -0.027080 0.000000 1.682480 
# 
# From -- ./inp_files/246532.got.cif
#   From: 2010.05.17/outbox.cif.g08.bks.cpg/sg15_124_cif.got.tgz:246532.got - 2010.06.03 18:47:42.
