data_PCOD9306704
_publ_section_title
;
Structure prediction by ZEFSAII (Michael W. Deem and Ramdas Pophale) SiO2 
 PCOD9306704
Probable space group: C 2/C
;
_chemical_formula_sum "Si O2"
_cell_formula_units_Z 32
_cell_length_a 10.425007
_cell_length_b 7.427615
_cell_length_c 18.774656
_cell_angle_alpha 90.000000
_cell_angle_beta 74.401102
_cell_angle_gamma 90.000000
_cell_volume 1400.230895
_symmetry_space_group_name_H-M "C 2/C"
_symmetry_group_IT_number 15
_symmetry_cell_setting 'monoclinic'
loop_
_space_group_symop_operation_xyz
x,y,z
-x,y,1/2-z
-x,-y,-z
x,-y,1/2+z
1/2+x,1/2+y,z
1/2-x,1/2+y,1/2-z
1/2-x,1/2-y,-z
1/2+x,1/2-y,1/2+z
loop_
_atom_site_type_symbol
_atom_site_label
_atom_site_fract_x
_atom_site_fract_y
_atom_site_fract_z
Si Si1 0.091164 0.010645 0.289274
Si Si2 0.909754 0.953071 0.445702
Si Si3 0.116440 0.526430 0.040140
Si Si4 0.129892 0.374818 0.194345
O O1 0.129668 0.178954 0.233088
O O2 0.000000 0.889965 0.250000
O O3 0.227535 0.948223 0.303313
O O4 0.991260 0.040919 0.369527
O O5 0.895880 0.737427 0.436746
O O6 0.758279 0.012914 0.481552
O O7 0.000000 0.000000 0.500000
O O8 0.112602 0.409184 0.112731
O O9 0.000000 0.500000 0.000000
O O10 0.000000 0.463306 0.250000
#
# Coordination Sequence:
#
# PCOD9306704 Si02
#       4
#     8   8   8   8
#     4  11  28  46  74 105 153 193 250 304 378 441
#     4  11  26  48  76 110 146 196 253 309 368 443
#     4  11  28  47  80 109 150 193 255 308 378 441
#     4  11  28  46  72 113 146 197 248 304 380 449
#
# _framework density 22.853375
#
# number of rings (size 3 to 8) (size 9 to 14) (size 15 to 20)
#    0.000    1.000    2.500    0.000   17.500    3.000 
#    0.000    0.000    0.000    0.000    0.000    0.000 
#    0.000    0.000    0.000    0.000    0.000    0.000 
#
# Total GULP energy -89267.852235 kJ/mol
# GULP energy per Si atom -5579.240765 kJ/mol
# Density = 2.280136 g / cm^3
# Si number density = 22.853375 Si / 1000 Ang^3
#
#
#
# Elastic Constant Matrix: (Units=GPa)
#
#
# Indices 1 2 3 4 5 6 
#
# 1 265.2375 35.0568 117.1389 0.0000 -0.3764 0.0000
# 2 35.0568 97.7872 41.8068 0.0000 -8.3728 0.0000
# 3 117.1389 41.8068 195.6749 0.0000 6.5383 0.0000
# 4 0.0000 0.0000 0.0000 24.0771 0.0000 1.8218
# 5 -0.3764 -8.3728 6.5383 0.0000 52.1915 0.0000
# 6 0.0000 0.0000 0.0000 1.8218 0.0000 14.9291
#
#
#
# Elastic Compliance Matrix: (Units=1/GPa)
#
#
# Indices 1 2 3 4 5 6 
#
# 1 0.005160 -0.000547 -0.002983 0.000000 0.000323 0.000000
# 2 -0.000547 0.011550 -0.002211 0.000000 0.002126 0.000000
# 3 -0.002983 -0.002211 0.007412 0.000000 -0.001305 0.000000
# 4 0.000000 0.000000 0.000000 0.041920 0.000000 -0.005115
# 5 0.000323 0.002126 -0.001305 0.000000 0.019667 0.000000
# 6 0.000000 0.000000 0.000000 -0.005115 0.000000 0.067607
#
#
# Mechanical properties :
#
#
# Convention : Reuss Voigt Hill
#
# Bulk Modulus (GPa) = 79.11502 105.18938 92.15220
# Shear Modulus (GPa) = 29.58343 42.55269 36.06806
#
# Velocity S-wave (km/s) = 3.60180 4.31976 3.97701
# Velocity P-wave (km/s) = 7.21048 8.42664 7.84217
#
# Compressibility (1/GPa) = 0.01263983
#
# Stress axis : x y z
#
# Youngs Moduli (GPa) = 193.78171 86.58170 134.90865
#
# Poissons Ratio (x) = 0.04736 0.40246
# Poissons Ratio (y) = 0.10599 0.29832
# Poissons Ratio (z) = 0.57809 0.19146
#
# Static dielectric constant tensor:
#      x y z
#    x 1.882650 0.000000 0.026530 
#    y 0.000000 2.010420 0.000000 
#    z 0.026530 0.000000 1.868220 
# 
# From -- ./inp_files/140728.got.cif
#   From: 2010.05.17/outbox.cif.g08.bks.cpg/sg15_71_cif.got.tgz:140728.got - 2010.06.03 18:47:42.
