data_PCOD9306454
_publ_section_title
;
Structure prediction by ZEFSAII (Michael W. Deem and Ramdas Pophale) SiO2 
 PCOD9306454
Probable space group: C 2/C
;
_chemical_formula_sum "Si O2"
_cell_formula_units_Z 40
_cell_length_a 13.554924
_cell_length_b 13.681800
_cell_length_c 17.804110
_cell_angle_alpha 90.000000
_cell_angle_beta 29.231135
_cell_angle_gamma 90.000000
_cell_volume 1612.417500
_symmetry_space_group_name_H-M "C 2/C"
_symmetry_group_IT_number 15
_symmetry_cell_setting 'monoclinic'
loop_
_space_group_symop_operation_xyz
x,y,z
-x,y,1/2-z
-x,-y,-z
x,-y,1/2+z
1/2+x,1/2+y,z
1/2-x,1/2+y,1/2-z
1/2-x,1/2-y,-z
1/2+x,1/2-y,1/2+z
loop_
_atom_site_type_symbol
_atom_site_label
_atom_site_fract_x
_atom_site_fract_y
_atom_site_fract_z
Si Si1 0.563222 0.659223 0.066852
Si Si2 0.730133 0.142355 0.870355
Si Si3 0.500000 0.530712 0.250000
Si Si4 0.127133 0.417083 0.809187
Si Si5 0.350016 0.145029 0.735593
Si Si6 0.500000 0.801408 0.750000
O O1 0.591261 0.595952 0.123135
O O2 0.359909 0.613978 0.162973
O O3 0.518020 0.770985 0.119546
O O4 0.736277 0.651648 0.889915
O O5 0.785845 0.169181 0.748071
O O6 0.810783 0.228036 0.869783
O O7 0.493111 0.124072 0.038840
O O8 0.836570 0.041956 0.822523
O O9 0.100364 0.532437 0.814278
O O10 0.019507 0.368141 0.809541
#
# Coordination Sequence:
#
# PCOD9306454 Si02
#       6
#     8   8   4   8   8   4
#     4  12  28  49  76 109 153 198 251 311 372 443
#     4  11  25  48  78 110 151 194 247 311 374 440
#     4  11  28  47  76 106 158 193 252 303 370 444
#     4  12  26  46  79 111 152 194 249 304 379 441
#     4  12  27  48  79 107 150 202 248 305 377 442
#     4  11  26  43  80 118 148 185 252 315 368 440
#
# _framework density 24.807471
#
# number of rings (size 3 to 8) (size 9 to 14) (size 15 to 20)
#    0.000    0.400    4.000    3.000    5.600    3.200 
#    0.000    0.000    0.000    0.000    0.000    0.000 
#    0.000    0.000    0.000    0.000    0.000    0.000 
#
# Total GULP energy -112122.622626 kJ/mol
# GULP energy per Si atom -5606.131131 kJ/mol
# Density = 2.475101 g / cm^3
# Si number density = 24.807471 Si / 1000 Ang^3
#
#
#
# Elastic Constant Matrix: (Units=GPa)
#
#
# Indices 1 2 3 4 5 6 
#
# 1 105.8156 36.0254 25.0677 0.0009 36.8000 0.0002
# 2 36.0254 165.9676 22.7716 -0.0027 14.2657 0.0021
# 3 25.0677 22.7716 100.5649 -0.0013 31.4143 0.0047
# 4 0.0009 -0.0027 -0.0013 19.6090 0.0022 1.4206
# 5 36.8000 14.2657 31.4143 0.0022 45.7370 -0.0010
# 6 0.0002 0.0021 0.0047 1.4206 -0.0010 65.5143
#
#
#
# Elastic Compliance Matrix: (Units=1/GPa)
#
#
# Indices 1 2 3 4 5 6 
#
# 1 0.013809 -0.002130 0.000386 0.000000 -0.010712 0.000000
# 2 -0.002130 0.006602 -0.001090 0.000001 0.000403 0.000000
# 3 0.000386 -0.001090 0.012840 0.000002 -0.008790 -0.000001
# 4 0.000000 0.000001 0.000002 0.051077 -0.000004 -0.001108
# 5 -0.010712 0.000403 -0.008790 -0.000004 0.036395 0.000001
# 6 0.000000 0.000000 -0.000001 -0.001108 0.000001 0.015288
#
#
# Mechanical properties :
#
#
# Convention : Reuss Voigt Hill
#
# Bulk Modulus (GPa) = 36.25177 60.00864 48.13021
# Shear Modulus (GPa) = 33.14024 45.40428 39.27226
#
# Velocity S-wave (km/s) = 3.65896 4.28280 3.98311
# Velocity P-wave (km/s) = 5.70049 6.97845 6.37159
#
# Compressibility (1/GPa) = 0.02758486
#
# Stress axis : x y z
#
# Youngs Moduli (GPa) = 72.41473 151.45806 77.88055
#
# Poissons Ratio (x) = 0.32257 -0.03008
# Poissons Ratio (y) = 0.15422 0.08489
# Poissons Ratio (z) = -0.02797 0.16509
#
# Static dielectric constant tensor:
#      x y z
#    x 1.993190 0.000000 -0.035700 
#    y 0.000000 1.934130 0.000000 
#    z -0.035700 0.000000 1.945700 
# 
# From -- ./inp_files/205620.got.cif
#   From: 2010.05.17/outbox.cif.g08.bks.cpg/sg15_103_cif.got.tgz:205620.got - 2010.06.03 18:47:42.
