data_PCOD9306779
_publ_section_title
;
Structure prediction by ZEFSAII (Michael W. Deem and Ramdas Pophale) SiO2 
 PCOD9306779
Probable space group: C 2/C
;
_chemical_formula_sum "Si O2"
_cell_formula_units_Z 48
_cell_length_a 19.395578
_cell_length_b 11.234860
_cell_length_c 12.610179
_cell_angle_alpha 90.000000
_cell_angle_beta 47.154316
_cell_angle_gamma 90.000000
_cell_volume 2014.683941
_symmetry_space_group_name_H-M "C 2/C"
_symmetry_group_IT_number 15
_symmetry_cell_setting 'monoclinic'
loop_
_space_group_symop_operation_xyz
x,y,z
-x,y,1/2-z
-x,-y,-z
x,-y,1/2+z
1/2+x,1/2+y,z
1/2-x,1/2+y,1/2-z
1/2-x,1/2-y,-z
1/2+x,1/2-y,1/2+z
loop_
_atom_site_type_symbol
_atom_site_label
_atom_site_fract_x
_atom_site_fract_y
_atom_site_fract_z
Si Si1 0.500000 0.550064 0.250000
Si Si2 0.568733 0.728050 1.000000
Si Si3 0.803315 0.918931 0.486399
Si Si4 0.325728 0.143361 0.927100
Si Si5 0.442832 0.106745 0.506426
Si Si6 0.253453 0.296078 0.319315
Si Si7 0.000000 0.473173 0.250000
O O1 0.489212 0.640132 0.362175
O O2 0.409045 0.467851 0.362373
O O3 0.503400 0.779213 0.975997
O O4 0.658984 0.674879 0.847154
O O5 0.622730 0.829842 0.013744
O O6 0.778315 0.840193 0.617214
O O7 0.782474 0.843953 0.403177
O O8 0.736203 0.031891 0.540793
O O9 0.425463 0.111341 0.765434
O O10 0.250000 0.250000 0.000000
O O11 0.335106 0.137270 0.639196
O O12 0.445064 0.065280 0.382048
O O13 0.500000 0.000000 0.500000
#
# Coordination Sequence:
#
# PCOD9306779 Si02
#       7
#     4   8   8   8   8   8   4
#     4  12  29  49  80 112 160 203 259 330 394 472
#     4  12  28  46  77 115 154 202 258 323 387 463
#     4  11  26  51  75 111 153 211 253 322 399 465
#     4  12  25  45  76 104 152 197 255 315 388 456
#     4  12  27  47  79 113 150 203 263 323 384 468
#     4  11  28  50  75 113 155 203 259 321 391 475
#     4  12  25  49  78 108 150 205 261 326 386 468
#
# _framework density 23.825075999999999
#
# number of rings (size 3 to 8) (size 9 to 14) (size 15 to 20)
#    0.000    0.333    5.000    1.500    9.333    3.333 
#    0.000    0.000    0.000    0.000    0.000    0.000 
#    0.000    0.000    0.000    0.000    0.000    0.000 
#
# Total GULP energy -133797.215770 kJ/mol
# GULP energy per Si atom -5574.883990 kJ/mol
# Density = 2.377085 g / cm^3
# Si number density = 23.825076 Si / 1000 Ang^3
#
#
#
# Elastic Constant Matrix: (Units=GPa)
#
#
# Indices 1 2 3 4 5 6 
#
# 1 64.3577 13.3947 12.5388 0.0000 -18.9374 0.0000
# 2 13.3947 99.4758 32.8950 0.0000 -6.8844 0.0000
# 3 12.5388 32.8950 106.4287 0.0000 -30.4169 0.0000
# 4 0.0000 0.0000 0.0000 36.7789 0.0000 -14.8552
# 5 -18.9374 -6.8844 -30.4169 0.0000 45.2339 0.0000
# 6 0.0000 0.0000 0.0000 -14.8552 0.0000 24.7550
#
#
#
# Elastic Compliance Matrix: (Units=1/GPa)
#
#
# Indices 1 2 3 4 5 6 
#
# 1 0.018124 -0.002151 0.000748 0.000000 0.007764 0.000000
# 2 -0.002151 0.011474 -0.003777 0.000000 -0.001694 0.000000
# 3 0.000748 -0.003777 0.012875 0.000000 0.008396 0.000000
# 4 0.000000 0.000000 0.000000 0.035888 0.000000 0.021536
# 5 0.007764 -0.001694 0.008396 0.000000 0.030745 0.000000
# 6 0.000000 0.000000 0.000000 0.021536 0.000000 0.053319
#
#
# Mechanical properties :
#
#
# Convention : Reuss Voigt Hill
#
# Bulk Modulus (GPa) = 31.13889 43.10212 37.12050
# Shear Modulus (GPa) = 27.24941 35.44915 31.34928
#
# Velocity S-wave (km/s) = 3.38557 3.86151 3.63135
# Velocity P-wave (km/s) = 5.32738 6.16539 5.76164
#
# Compressibility (1/GPa) = 0.03211418
#
# Stress axis : x y z
#
# Youngs Moduli (GPa) = 55.17405 87.15278 77.67137
#
# Poissons Ratio (x) = 0.18743 -0.05812
# Poissons Ratio (y) = 0.11866 0.29338
# Poissons Ratio (z) = -0.04128 0.32919
#
# Static dielectric constant tensor:
#      x y z
#    x 1.955060 0.000000 0.053840 
#    y 0.000000 1.997280 0.000000 
#    z 0.053840 0.000000 2.135110 
# 
# From -- ./inp_files/167868.got.cif
#   From: 2010.05.17/outbox.cif.g08.bks.cpg/sg15_84_cif.got.tgz:167868.got - 2010.06.03 18:47:42.
