data_PCOD9306355
_publ_section_title
;
Structure prediction by ZEFSAII (Michael W. Deem and Ramdas Pophale) SiO2 
 PCOD9306355
Probable space group: C 2/C
;
_chemical_formula_sum "Si O2"
_cell_formula_units_Z 44
_cell_length_a 15.008042
_cell_length_b 11.948095
_cell_length_c 9.654156
_cell_angle_alpha 90.000000
_cell_angle_beta 98.834474
_cell_angle_gamma 90.000000
_cell_volume 1710.621023
_symmetry_space_group_name_H-M "C 2/C"
_symmetry_group_IT_number 15
_symmetry_cell_setting 'monoclinic'
loop_
_space_group_symop_operation_xyz
x,y,z
-x,y,1/2-z
-x,-y,-z
x,-y,1/2+z
1/2+x,1/2+y,z
1/2-x,1/2+y,1/2-z
1/2-x,1/2-y,-z
1/2+x,1/2-y,1/2+z
loop_
_atom_site_type_symbol
_atom_site_label
_atom_site_fract_x
_atom_site_fract_y
_atom_site_fract_z
Si Si1 0.560825 0.614133 0.632134
Si Si2 0.275585 0.625244 0.972037
Si Si3 0.638679 0.611281 0.225664
Si Si4 0.000000 0.487352 0.250000
Si Si5 0.328591 0.087293 0.120418
Si Si6 0.045984 0.296588 0.067083
O O1 0.500000 0.633211 0.750000
O O2 0.668454 0.635152 0.657449
O O3 0.572686 0.477538 0.632053
O O4 0.520804 0.707287 0.518941
O O5 0.342033 0.580904 0.110446
O O6 0.250000 0.750000 0.000000
O O7 0.197802 0.534706 0.945939
O O8 0.735333 0.619836 0.172006
O O9 0.593199 0.731340 0.204369
O O10 0.088097 0.563757 0.258125
O O11 0.000346 0.406711 0.116985
O O12 0.373051 0.168155 0.017706
#
# Coordination Sequence:
#
# PCOD9306355 Si02
#       6
#     8   8   8   4   8   8
#     4  11  28  43  73 108 148 188 243 302 361 436
#     4  11  25  47  73 105 147 195 241 300 370 436
#     4  11  26  45  74 102 147 184 240 299 366 429
#     4  12  26  48  72 100 142 190 234 298 360 438
#     4  11  26  46  70 106 141 185 242 298 362 435
#     4  12  25  45  73 106 141 189 242 292 367 434
#
# _framework density 25.721654999999998
#
# number of rings (size 3 to 8) (size 9 to 14) (size 15 to 20)
#    0.000    0.727    0.000    6.000   12.727    1.455 
#    0.000    0.000    0.000    0.000    0.000    0.000 
#    0.000    0.000    0.000    0.000    0.000    0.000 
#
# Total GULP energy -122967.283787 kJ/mol
# GULP energy per Si atom -5589.421990 kJ/mol
# Density = 2.566311 g / cm^3
# Si number density = 25.721655 Si / 1000 Ang^3
#
#
#
# Elastic Constant Matrix: (Units=GPa)
#
#
# Indices 1 2 3 4 5 6 
#
# 1 149.6034 28.4732 38.1884 0.0000 -14.5619 0.0000
# 2 28.4732 80.3774 19.4498 0.0000 6.6972 0.0000
# 3 38.1884 19.4498 58.5199 0.0000 -3.8871 0.0000
# 4 0.0000 0.0000 0.0000 32.4757 0.0000 6.4341
# 5 -14.5619 6.6972 -3.8871 0.0000 44.9046 0.0000
# 6 0.0000 0.0000 0.0000 6.4341 0.0000 40.3956
#
#
#
# Elastic Compliance Matrix: (Units=1/GPa)
#
#
# Indices 1 2 3 4 5 6 
#
# 1 0.008546 -0.002114 -0.004696 0.000000 0.002680 0.000000
# 2 -0.002114 0.014319 -0.003587 0.000000 -0.003132 0.000000
# 3 -0.004696 -0.003587 0.021403 0.000000 0.000865 0.000000
# 4 0.000000 0.000000 0.000000 0.031796 0.000000 -0.005064
# 5 0.002680 -0.003132 0.000865 0.000000 0.023681 0.000000
# 6 0.000000 0.000000 0.000000 -0.005064 0.000000 0.025562
#
#
# Mechanical properties :
#
#
# Convention : Reuss Voigt Hill
#
# Bulk Modulus (GPa) = 42.60387 51.19149 46.89768
# Shear Modulus (GPa) = 32.48295 37.04782 34.76538
#
# Velocity S-wave (km/s) = 3.55753 3.79929 3.68040
# Velocity P-wave (km/s) = 5.78568 6.26031 6.02767
#
# Compressibility (1/GPa) = 0.02347205
#
# Stress axis : x y z
#
# Youngs Moduli (GPa) = 117.00725 69.83543 46.72312
#
# Poissons Ratio (x) = 0.14766 0.21943
# Poissons Ratio (y) = 0.24740 0.16762
# Poissons Ratio (z) = 0.54951 0.25053
#
# Static dielectric constant tensor:
#      x y z
#    x 2.011830 0.000000 0.017880 
#    y 0.000000 1.998180 0.000000 
#    z 0.017880 0.000000 2.111360 
# 
# From -- ./inp_files/95070.got.cif
#   From: 2010.05.17/outbox.cif.g08.bks.cpg/sg15_48_cif.got.tgz:95070.got - 2010.06.03 18:47:42.
