data_PCOD9306341
_publ_section_title
;
Structure prediction by ZEFSAII (Michael W. Deem and Ramdas Pophale) SiO2 
 PCOD9306341
Probable space group: C 2/C
;
_chemical_formula_sum "Si O2"
_cell_formula_units_Z 44
_cell_length_a 12.046366
_cell_length_b 14.482119
_cell_length_c 12.394488
_cell_angle_alpha 90.000000
_cell_angle_beta 98.543521
_cell_angle_gamma 90.000000
_cell_volume 2138.309597
_symmetry_space_group_name_H-M "C 2/C"
_symmetry_group_IT_number 15
_symmetry_cell_setting 'monoclinic'
loop_
_space_group_symop_operation_xyz
x,y,z
-x,y,1/2-z
-x,-y,-z
x,-y,1/2+z
1/2+x,1/2+y,z
1/2-x,1/2+y,1/2-z
1/2-x,1/2-y,-z
1/2+x,1/2-y,1/2+z
loop_
_atom_site_type_symbol
_atom_site_label
_atom_site_fract_x
_atom_site_fract_y
_atom_site_fract_z
Si Si1 0.100244 0.774726 0.850343
Si Si2 0.327253 0.963371 0.412855
Si Si3 0.031789 0.647735 0.042295
Si Si4 0.619773 0.543156 0.487824
Si Si5 0.000000 0.230739 0.750000
Si Si6 0.780909 0.143121 0.787993
O O1 0.108011 0.879093 0.893580
O O2 0.212877 0.734434 0.813055
O O3 0.000000 0.765616 0.750000
O O4 0.076844 0.711092 0.951558
O O5 0.416837 0.898708 0.485102
O O6 0.301355 0.922947 0.291238
O O7 0.381633 0.065206 0.419830
O O8 0.210764 0.969810 0.460263
O O9 0.010175 0.707781 0.144753
O O10 0.500000 0.500000 0.500000
O O11 0.672027 0.592849 0.599790
O O12 0.887870 0.169970 0.731828
#
# Coordination Sequence:
#
# PCOD9306341 Si02
#       6
#     8   8   8   8   4   8
#     4  12  25  49  73 100 140 194 235 289 364 419
#     4  11  26  43  72 103 138 182 241 292 351 411
#     4  11  25  47  70 104 137 187 239 296 345 420
#     4  12  27  45  68 102 146 183 235 290 359 418
#     4  12  26  42  70 100 142 182 242 284 348 420
#     4  12  25  46  70  99 143 186 231 293 353 425
#
# _framework density 20.577002
#
# number of rings (size 3 to 8) (size 9 to 14) (size 15 to 20)
#    0.000    0.364    5.455    2.727    5.091    2.182 
#    0.000    0.000    0.000    0.000    0.000    0.000 
#    0.000    0.000    0.000    0.000    0.000    0.000 
#
# Total GULP energy -123183.306569 kJ/mol
# GULP energy per Si atom -5599.241208 kJ/mol
# Density = 2.053017 g / cm^3
# Si number density = 20.577002 Si / 1000 Ang^3
#
#
#
# Elastic Constant Matrix: (Units=GPa)
#
#
# Indices 1 2 3 4 5 6 
#
# 1 134.5814 30.8965 31.7059 0.0000 -0.7607 0.0000
# 2 30.8965 38.5191 13.7877 0.0000 11.0103 0.0000
# 3 31.7059 13.7877 101.9665 0.0000 20.9480 0.0000
# 4 0.0000 0.0000 0.0000 32.7443 0.0000 -5.6508
# 5 -0.7607 11.0103 20.9480 0.0000 35.3792 0.0000
# 6 0.0000 0.0000 0.0000 -5.6508 0.0000 35.5783
#
#
#
# Elastic Compliance Matrix: (Units=1/GPa)
#
#
# Indices 1 2 3 4 5 6 
#
# 1 0.010056 -0.008314 -0.002936 0.000000 0.004542 0.000000
# 2 -0.008314 0.035856 0.000075 0.000000 -0.011382 0.000000
# 3 -0.002936 0.000075 0.012213 0.000000 -0.007318 0.000000
# 4 0.000000 0.000000 0.000000 0.031400 0.000000 0.004987
# 5 0.004542 -0.011382 -0.007318 0.000000 0.036238 0.000000
# 6 0.000000 0.000000 0.000000 0.004987 0.000000 0.028899
#
#
# Mechanical properties :
#
#
# Convention : Reuss Voigt Hill
#
# Bulk Modulus (GPa) = 27.95116 47.53859 37.74488
# Shear Modulus (GPa) = 26.46370 33.98548 30.22459
#
# Velocity S-wave (km/s) = 3.59009 4.06843 3.83672
# Velocity P-wave (km/s) = 5.54961 6.72476 6.16525
#
# Compressibility (1/GPa) = 0.03577669
#
# Stress axis : x y z
#
# Youngs Moduli (GPa) = 99.43918 27.88920 81.87792
#
# Poissons Ratio (x) = 0.23186 0.24039
# Poissons Ratio (y) = 0.82670 -0.00614
# Poissons Ratio (z) = 0.29194 -0.00209
#
# Static dielectric constant tensor:
#      x y z
#    x 1.732150 0.000000 0.009140 
#    y 0.000000 1.720720 0.000000 
#    z 0.009140 0.000000 1.705270 
# 
# From -- ./inp_files/86054.got.cif
#   From: 2010.05.17/outbox.cif.g08.bks.cpg/sg15_44_cif.got.tgz:86054.got - 2010.06.03 18:47:42.
