data_PCOD9306977
_publ_section_title
;
Structure prediction by ZEFSAII (Michael W. Deem and Ramdas Pophale) SiO2 
 PCOD9306977
Probable space group: C 2/C
;
_chemical_formula_sum "Si O2"
_cell_formula_units_Z 28
_cell_length_a 20.059482
_cell_length_b 12.660443
_cell_length_c 8.234477
_cell_angle_alpha 90.000000
_cell_angle_beta 30.421140
_cell_angle_gamma 90.000000
_cell_volume 1058.905336
_symmetry_space_group_name_H-M "C 2/C"
_symmetry_group_IT_number 15
_symmetry_cell_setting 'monoclinic'
loop_
_space_group_symop_operation_xyz
x,y,z
-x,y,1/2-z
-x,-y,-z
x,-y,1/2+z
1/2+x,1/2+y,z
1/2-x,1/2+y,1/2-z
1/2-x,1/2-y,-z
1/2+x,1/2-y,1/2+z
loop_
_atom_site_type_symbol
_atom_site_label
_atom_site_fract_x
_atom_site_fract_y
_atom_site_fract_z
Si Si1 0.644313 0.151159 0.243337
Si Si2 0.000000 0.938626 0.750000
Si Si3 0.051625 0.803467 0.954668
Si Si4 0.737787 0.058016 0.368367
O O1 0.501062 0.189909 0.488313
O O2 0.655844 0.116261 0.403840
O O3 0.750000 0.250000 0.000000
O O4 0.675080 0.044329 0.080880
O O5 0.011655 0.873699 0.558404
O O6 0.131406 0.006870 0.489506
O O7 0.197730 0.851913 0.653546
O O8 0.000000 0.807689 0.250000
#
# Coordination Sequence:
#
# PCOD9306977 Si02
#       4
#     8   4   8   8
#     4  12  24  43  76 112 145 198 252 303 380 446
#     4  12  20  40  74 104 134 194 240 294 378 422
#     4  12  24  44  74 106 151 192 247 313 368 445
#     4  12  22  44  74 107 148 192 250 311 366 448
#
# _framework density 26.442399999999999
#
# number of rings (size 3 to 8) (size 9 to 14) (size 15 to 20)
#    0.000    0.000   10.000    0.857    0.000    0.000 
#    5.143    5.714    0.000    0.000    0.000    0.000 
#    0.000    0.000    0.000    0.000    0.000    0.000 
#
# Total GULP energy -78284.543857 kJ/mol
# GULP energy per Si atom -5591.753133 kJ/mol
# Density = 2.638222 g / cm^3
# Si number density = 26.442400 Si / 1000 Ang^3
#
#
#
# Elastic Constant Matrix: (Units=GPa)
#
#
# Indices 1 2 3 4 5 6 
#
# 1 208.0927 103.2282 64.0978 0.0000 13.5948 0.0000
# 2 103.2282 220.0305 82.7905 0.0000 1.5522 0.0000
# 3 64.0978 82.7905 99.8142 0.0000 -2.8157 0.0000
# 4 0.0000 0.0000 0.0000 22.9779 0.0000 -11.1362
# 5 13.5948 1.5522 -2.8157 0.0000 45.6902 0.0000
# 6 0.0000 0.0000 0.0000 -11.1362 0.0000 65.5414
#
#
#
# Elastic Compliance Matrix: (Units=1/GPa)
#
#
# Indices 1 2 3 4 5 6 
#
# 1 0.006850 -0.002211 -0.002625 0.000000 -0.002125 0.000000
# 2 -0.002211 0.007335 -0.004661 0.000000 0.000121 0.000000
# 3 -0.002625 -0.004661 0.015624 0.000000 0.001902 0.000000
# 4 0.000000 0.000000 0.000000 0.047425 0.000000 0.008058
# 5 -0.002125 0.000121 0.001902 0.000000 0.022632 0.000000
# 6 0.000000 0.000000 0.000000 0.008058 0.000000 0.016627
#
#
# Mechanical properties :
#
#
# Convention : Reuss Voigt Hill
#
# Bulk Modulus (GPa) = 92.46051 114.24115 103.35083
# Shear Modulus (GPa) = 35.94804 45.36330 40.65567
#
# Velocity S-wave (km/s) = 3.69112 4.14642 3.92537
# Velocity P-wave (km/s) = 7.29441 8.13764 7.72754
#
# Compressibility (1/GPa) = 0.01081543
#
# Stress axis : x y z
#
# Youngs Moduli (GPa) = 145.99374 136.33440 64.00592
#
# Poissons Ratio (x) = 0.30143 0.16800
# Poissons Ratio (y) = 0.32278 0.29831
# Poissons Ratio (z) = 0.38319 0.63541
#
# Static dielectric constant tensor:
#      x y z
#    x 2.023460 0.000000 -0.048420 
#    y 0.000000 2.130160 0.000000 
#    z -0.048420 0.000000 2.173050 
# 
# From -- ./inp_files/36397.got.cif
#   From: 2010.05.17/outbox.cif.g08.bks.cpg/sg15_19_cif.got.tgz:36397.got - 2010.06.03 18:47:42.
