data_PCOD9306307
_publ_section_title
;
Structure prediction by ZEFSAII (Michael W. Deem and Ramdas Pophale) SiO2 
 PCOD9306307
Probable space group: C 2/C
;
_chemical_formula_sum "Si O2"
_cell_formula_units_Z 44
_cell_length_a 7.378406
_cell_length_b 22.664747
_cell_length_c 10.468023
_cell_angle_alpha 90.000000
_cell_angle_beta 76.109465
_cell_angle_gamma 90.000000
_cell_volume 1699.371163
_symmetry_space_group_name_H-M "C 2/C"
_symmetry_group_IT_number 15
_symmetry_cell_setting 'monoclinic'
loop_
_space_group_symop_operation_xyz
x,y,z
-x,y,1/2-z
-x,-y,-z
x,-y,1/2+z
1/2+x,1/2+y,z
1/2-x,1/2+y,1/2-z
1/2-x,1/2-y,-z
1/2+x,1/2-y,1/2+z
loop_
_atom_site_type_symbol
_atom_site_label
_atom_site_fract_x
_atom_site_fract_y
_atom_site_fract_z
Si Si1 0.326468 0.183004 0.961236
Si Si2 0.381217 0.465160 0.633906
Si Si3 0.737115 0.224266 0.865910
Si Si4 0.500000 0.033137 0.750000
Si Si5 0.809263 0.889046 0.260902
Si Si6 0.787153 0.842830 0.753581
O O1 0.531302 0.199353 0.879548
O O2 0.228463 0.142909 0.869193
O O3 0.250000 0.250000 0.000000
O O4 0.314083 0.145139 0.094383
O O5 0.500000 0.461914 0.750000
O O6 0.500000 0.500000 0.500000
O O7 0.178517 0.497643 0.667697
O O8 0.309185 0.395786 0.647286
O O9 0.849485 0.164651 0.847448
O O10 0.793978 0.279419 0.771730
O O11 0.750000 0.250000 0.000000
O O12 0.378589 0.074800 0.676075
O O13 0.000000 0.925121 0.250000
O O14 0.000000 0.828094 0.750000
#
# Coordination Sequence:
#
# PCOD9306307 Si02
#       6
#     8   8   8   4   8   8
#     4  12  22  44  73 113 167 208 264 339 428 516
#     4  11  30  56  88 122 166 230 295 355 424 506
#     4  12  25  41  72 119 163 210 266 338 434 515
#     4  12  28  54  82 118 168 218 288 358 430 508
#     4  12  26  46  77 116 159 217 275 348 431 515
#     4  11  25  46  76 113 161 212 265 342 420 503
#
# _framework density 25.891931
#
# number of rings (size 3 to 8) (size 9 to 14) (size 15 to 20)
#    0.000    0.364    5.455    1.636    5.091    3.636 
#    0.000    0.000    0.000    0.000    0.000    0.000 
#    0.000    0.000    0.000    0.000    0.000    0.000 
#
# Total GULP energy -122495.967173 kJ/mol
# GULP energy per Si atom -5567.998508 kJ/mol
# Density = 2.583300 g / cm^3
# Si number density = 25.891931 Si / 1000 Ang^3
#
#
#
# Elastic Constant Matrix: (Units=GPa)
#
#
# Indices 1 2 3 4 5 6 
#
# 1 189.8853 23.6005 40.0468 0.0000 -32.6665 0.0000
# 2 23.6005 132.1967 19.4929 0.0000 -11.5530 0.0000
# 3 40.0468 19.4929 131.4544 0.0000 1.6420 0.0000
# 4 0.0000 0.0000 0.0000 38.9552 0.0000 -4.1800
# 5 -32.6665 -11.5530 1.6420 0.0000 47.2005 0.0000
# 6 0.0000 0.0000 0.0000 -4.1800 0.0000 3.2240
#
#
#
# Elastic Compliance Matrix: (Units=1/GPa)
#
#
# Indices 1 2 3 4 5 6 
#
# 1 0.006507 -0.000483 -0.001966 0.000000 0.004454 0.000000
# 2 -0.000483 0.007950 -0.001052 0.000000 0.001649 0.000000
# 3 -0.001966 -0.001052 0.008386 0.000000 -0.001910 0.000000
# 4 0.000000 0.000000 0.000000 0.029819 0.000000 0.038661
# 5 0.004454 0.001649 -0.001910 0.000000 0.024739 0.000000
# 6 0.000000 0.000000 0.000000 0.038661 0.000000 0.360301
#
#
# Mechanical properties :
#
#
# Convention : Reuss Voigt Hill
#
# Bulk Modulus (GPa) = 63.12956 68.86854 65.99905
# Shear Modulus (GPa) = 11.11149 42.56902 26.84026
#
# Velocity S-wave (km/s) = 2.07384 4.05915 3.22316
# Velocity P-wave (km/s) = 5.49266 6.97318 6.27672
#
# Compressibility (1/GPa) = 0.01584044
#
# Stress axis : x y z
#
# Youngs Moduli (GPa) = 153.67495 125.78798 119.24348
#
# Poissons Ratio (x) = 0.06069 0.23449
# Poissons Ratio (y) = 0.07415 0.12550
# Poissons Ratio (z) = 0.30220 0.13239
#
# Static dielectric constant tensor:
#      x y z
#    x 1.949490 0.000000 -0.076540 
#    y 0.000000 1.177380 0.000000 
#    z -0.076540 0.000000 2.265520 
# 
# From -- ./inp_files/79693.got.cif
#   From: 2010.05.17/outbox.cif.g08.bks.cpg/sg15_40_cif.got.tgz:79693.got - 2010.06.03 18:47:42.
