data_PCOD9306785
_publ_section_title
;
Structure prediction by ZEFSAII (Michael W. Deem and Ramdas Pophale) SiO2 
 PCOD9306785
Probable space group: C 2/C
;
_chemical_formula_sum "Si O2"
_cell_formula_units_Z 40
_cell_length_a 9.306343
_cell_length_b 11.650569
_cell_length_c 16.244317
_cell_angle_alpha 90.000000
_cell_angle_beta 61.051561
_cell_angle_gamma 90.000000
_cell_volume 1541.215310
_symmetry_space_group_name_H-M "C 2/C"
_symmetry_group_IT_number 15
_symmetry_cell_setting 'monoclinic'
loop_
_space_group_symop_operation_xyz
x,y,z
-x,y,1/2-z
-x,-y,-z
x,-y,1/2+z
1/2+x,1/2+y,z
1/2-x,1/2+y,1/2-z
1/2-x,1/2-y,-z
1/2+x,1/2-y,1/2+z
loop_
_atom_site_type_symbol
_atom_site_label
_atom_site_fract_x
_atom_site_fract_y
_atom_site_fract_z
Si Si1 0.161546 0.464956 0.405325
Si Si2 0.638955 0.321954 0.415551
Si Si3 0.420075 0.656991 0.377978
Si Si4 0.747395 0.546948 0.294150
Si Si5 0.112369 0.756136 0.147859
O O1 0.304550 0.547557 0.398006
O O2 0.153263 0.490769 0.309372
O O3 0.230335 0.337716 0.403761
O O4 0.000000 0.500000 0.500000
O O5 0.571873 0.325179 0.526126
O O6 0.818084 0.263637 0.370874
O O7 0.662937 0.446087 0.369076
O O8 0.509400 0.253742 0.395328
O O9 0.601746 0.626690 0.297698
O O10 0.839552 0.632094 0.330784
O O11 0.000000 0.813630 0.250000
#
# Coordination Sequence:
#
# PCOD9306785 Si02
#       5
#     8   8   8   8   8
#     4  12  28  52  84 123 165 212 279 338 405 491
#     4  11  26  51  82 124 164 211 273 336 407 485
#     4  11  26  52  82 117 168 217 267 340 413 487
#     4  12  27  54  84 116 167 216 269 339 412 482
#     4  12  26  53  82 119 163 215 270 335 403 486
#
# _framework density 25.953544000000001
#
# number of rings (size 3 to 8) (size 9 to 14) (size 15 to 20)
#    0.000    0.400    4.000    2.400    5.600    4.000 
#    0.000    3.000    0.000    0.000    0.000    0.000 
#    0.000    0.000    0.000    0.000    0.000    0.000 
#
# Total GULP energy -112266.817079 kJ/mol
# GULP energy per Si atom -5613.340854 kJ/mol
# Density = 2.589447 g / cm^3
# Si number density = 25.953544 Si / 1000 Ang^3
#
#
#
# Elastic Constant Matrix: (Units=GPa)
#
#
# Indices 1 2 3 4 5 6 
#
# 1 158.8534 64.8209 52.6579 0.0000 22.9832 0.0000
# 2 64.8209 53.8895 -0.8661 0.0000 -5.8753 0.0000
# 3 52.6579 -0.8661 135.8309 0.0000 -11.5634 0.0000
# 4 0.0000 0.0000 0.0000 31.6605 0.0000 -2.8672
# 5 22.9832 -5.8753 -11.5634 0.0000 41.6246 0.0000
# 6 0.0000 0.0000 0.0000 -2.8672 0.0000 53.2078
#
#
#
# Elastic Compliance Matrix: (Units=1/GPa)
#
#
# Indices 1 2 3 4 5 6 
#
# 1 0.033776 -0.044074 -0.015867 0.000000 -0.029278 0.000000
# 2 -0.044074 0.076376 0.021061 0.000000 0.040967 0.000000
# 3 -0.015867 0.021061 0.015001 0.000000 0.015901 0.000000
# 4 0.000000 0.000000 0.000000 0.031740 0.000000 0.001710
# 5 -0.029278 0.040967 0.015901 0.000000 0.050390 0.000000
# 6 0.000000 0.000000 0.000000 0.001710 0.000000 0.018886
#
#
# Mechanical properties :
#
#
# Convention : Reuss Voigt Hill
#
# Bulk Modulus (GPa) = 21.10078 64.64434 42.87256
# Shear Modulus (GPa) = 15.63828 40.76265 28.20047
#
# Velocity S-wave (km/s) = 2.45735 3.96738 3.29990
# Velocity P-wave (km/s) = 4.02483 6.77854 5.57440
#
# Compressibility (1/GPa) = 0.04739160
#
# Stress axis : x y z
#
# Youngs Moduli (GPa) = 29.60713 13.09315 66.66027
#
# Poissons Ratio (x) = 0.57707 1.05773
# Poissons Ratio (y) = 1.30491 -1.40392
# Poissons Ratio (z) = 0.46979 -0.27575
#
# Static dielectric constant tensor:
#      x y z
#    x 2.057230 0.000000 0.016870 
#    y 0.000000 2.057800 0.000000 
#    z 0.016870 0.000000 2.051370 
# 
# From -- ./inp_files/237359.got.cif
#   From: 2010.05.17/outbox.cif.g08.bks.cpg/sg15_119_cif.got.tgz:237359.got - 2010.06.03 18:47:42.
