data_PCOD9306321
_publ_section_title
;
Structure prediction by ZEFSAII (Michael W. Deem and Ramdas Pophale) SiO2 
 PCOD9306321
Probable space group: C 2/C
;
_chemical_formula_sum "Si O2"
_cell_formula_units_Z 44
_cell_length_a 23.113485
_cell_length_b 9.291795
_cell_length_c 13.598335
_cell_angle_alpha 90.000000
_cell_angle_beta 38.392966
_cell_angle_gamma 90.000000
_cell_volume 1813.754271
_symmetry_space_group_name_H-M "C 2/C"
_symmetry_group_IT_number 15
_symmetry_cell_setting 'monoclinic'
loop_
_space_group_symop_operation_xyz
x,y,z
-x,y,1/2-z
-x,-y,-z
x,-y,1/2+z
1/2+x,1/2+y,z
1/2-x,1/2+y,1/2-z
1/2-x,1/2-y,-z
1/2+x,1/2-y,1/2+z
loop_
_atom_site_type_symbol
_atom_site_label
_atom_site_fract_x
_atom_site_fract_y
_atom_site_fract_z
Si Si1 0.298880 0.709821 0.689762
Si Si2 0.065574 0.925081 0.332743
Si Si3 0.860462 0.484330 0.119513
Si Si4 0.000000 0.724739 0.250000
Si Si5 0.069576 0.525301 0.762135
Si Si6 0.347205 0.683002 0.409520
O O1 0.362059 0.669428 0.699019
O O2 0.194182 0.655861 0.840422
O O3 0.339732 0.642760 0.534341
O O4 0.301212 0.878833 0.666619
O O5 0.004975 0.827705 0.338398
O O6 0.119008 0.047510 0.199104
O O7 0.000000 0.000000 0.500000
O O8 0.864330 0.484312 0.232391
O O9 0.965284 0.506680 0.943512
O O10 0.080528 0.608417 0.173532
O O11 0.084141 0.681241 0.696678
O O12 0.250000 0.750000 0.500000
#
# Coordination Sequence:
#
# PCOD9306321 Si02
#       6
#     8   8   8   4   8   8
#     4  12  25  48  75 114 151 202 262 325 389 464
#     4  12  28  48  76 113 157 204 259 324 394 462
#     4  11  25  46  79 111 158 204 257 322 394 473
#     4  12  26  48  76 108 152 208 260 316 376 476
#     4  11  25  50  76 112 157 213 257 313 401 473
#     4  12  26  50  79 115 157 204 264 325 389 467
#
# _framework density 24.259074999999999
#
# number of rings (size 3 to 8) (size 9 to 14) (size 15 to 20)
#    0.000    0.364    3.636    4.364    2.545    3.636 
#    0.000    2.727    0.000    0.000    0.000    0.000 
#    0.000    0.000    0.000    0.000    0.000    0.000 
#
# Total GULP energy -123128.586696 kJ/mol
# GULP energy per Si atom -5596.753941 kJ/mol
# Density = 2.420386 g / cm^3
# Si number density = 24.259075 Si / 1000 Ang^3
#
#
#
# Elastic Constant Matrix: (Units=GPa)
#
#
# Indices 1 2 3 4 5 6 
#
# 1 123.9227 18.9331 31.4630 0.0000 22.1949 0.0000
# 2 18.9331 98.8747 33.3872 -0.0003 -1.8484 0.0002
# 3 31.4630 33.3872 112.2656 -0.0001 21.3333 0.0001
# 4 0.0000 -0.0003 -0.0001 37.8385 0.0000 0.7827
# 5 22.1949 -1.8484 21.3333 0.0000 46.0135 0.0000
# 6 0.0000 0.0002 0.0001 0.7827 0.0000 54.5124
#
#
#
# Elastic Compliance Matrix: (Units=1/GPa)
#
#
# Indices 1 2 3 4 5 6 
#
# 1 0.009348 -0.001364 -0.001477 0.000000 -0.003879 0.000000
# 2 -0.001364 0.011648 -0.003614 0.000000 0.002801 0.000000
# 3 -0.001477 -0.003614 0.011282 0.000000 -0.004664 0.000000
# 4 0.000000 0.000000 0.000000 0.026436 0.000000 -0.000380
# 5 -0.003879 0.002801 -0.004664 0.000000 0.025878 0.000000
# 6 0.000000 0.000000 0.000000 -0.000380 0.000000 0.018350
#
#
# Mechanical properties :
#
#
# Convention : Reuss Voigt Hill
#
# Bulk Modulus (GPa) = 51.63155 55.84772 53.73963
# Shear Modulus (GPa) = 40.88050 44.42488 42.65269
#
# Velocity S-wave (km/s) = 4.10953 4.28397 4.19766
# Velocity P-wave (km/s) = 6.62172 6.89502 6.75975
#
# Compressibility (1/GPa) = 0.01936800
#
# Stress axis : x y z
#
# Youngs Moduli (GPa) = 106.97911 85.85401 88.63342
#
# Poissons Ratio (x) = 0.11708 0.13092
# Poissons Ratio (y) = 0.14588 0.32033
# Poissons Ratio (z) = 0.15802 0.31028
#
# Static dielectric constant tensor:
#      x y z
#    x 1.945870 0.000000 0.015460 
#    y 0.000000 1.919010 0.000000 
#    z 0.015460 0.000000 2.001460 
# 
# From -- ./inp_files/116679.got.cif
#   From: 2010.05.17/outbox.cif.g08.bks.cpg/sg15_59_cif.got.tgz:116679.got - 2010.06.03 18:47:42.
