data_PCOD9306757
_publ_section_title
;
Structure prediction by ZEFSAII (Michael W. Deem and Ramdas Pophale) SiO2 
 PCOD9306757
Probable space group: C 2/C
;
_chemical_formula_sum "Si O2"
_cell_formula_units_Z 32
_cell_length_a 11.018717
_cell_length_b 10.141175
_cell_length_c 10.195087
_cell_angle_alpha 90.000000
_cell_angle_beta 98.055095
_cell_angle_gamma 90.000000
_cell_volume 1127.987070
_symmetry_space_group_name_H-M "C 2/C"
_symmetry_group_IT_number 15
_symmetry_cell_setting 'monoclinic'
loop_
_space_group_symop_operation_xyz
x,y,z
-x,y,1/2-z
-x,-y,-z
x,-y,1/2+z
1/2+x,1/2+y,z
1/2-x,1/2+y,1/2-z
1/2-x,1/2-y,-z
1/2+x,1/2-y,1/2+z
loop_
_atom_site_type_symbol
_atom_site_label
_atom_site_fract_x
_atom_site_fract_y
_atom_site_fract_z
Si Si1 0.817743 0.417463 0.322742
Si Si2 0.681459 0.160028 0.303735
Si Si3 0.521682 0.821361 0.516741
Si Si4 0.079144 0.057626 0.393764
O O1 0.791321 0.261800 0.309341
O O2 0.799714 0.502411 0.187187
O O3 0.954441 0.420586 0.403705
O O4 0.707418 0.481600 0.392451
O O5 0.598051 0.209265 0.409860
O O6 0.615966 0.164497 0.152000
O O7 0.582895 0.710399 0.435132
O O8 0.000000 0.038768 0.250000
O O9 0.000000 0.000000 0.500000
#
# Coordination Sequence:
#
# PCOD9306757 Si02
#       4
#     8   8   8   8
#     4  12  26  48  82 113 160 212 264 331 415 463
#     4  11  26  50  79 115 162 206 273 337 397 483
#     4  11  26  50  75 115 163 209 268 333 398 486
#     4  12  26  47  82 118 158 211 272 326 399 482
#
# _framework density 28.369119999999999
#
# number of rings (size 3 to 8) (size 9 to 14) (size 15 to 20)
#    0.000    0.500    2.500    4.500    7.000    1.000 
#   18.000    0.000    0.000    0.000    0.000    0.000 
#    0.000    0.000    0.000    0.000    0.000    0.000 
#
# Total GULP energy -89497.930666 kJ/mol
# GULP energy per Si atom -5593.620667 kJ/mol
# Density = 2.830455 g / cm^3
# Si number density = 28.369120 Si / 1000 Ang^3
#
#
#
# Elastic Constant Matrix: (Units=GPa)
#
#
# Indices 1 2 3 4 5 6 
#
# 1 100.2906 27.7966 25.6231 0.0000 -25.5384 0.0000
# 2 27.7966 92.8072 38.3395 0.0000 10.0033 0.0000
# 3 25.6231 38.3395 179.0901 0.0000 4.6731 0.0000
# 4 0.0000 0.0000 0.0000 43.7804 0.0000 -3.2382
# 5 -25.5384 10.0033 4.6731 0.0000 62.3030 0.0000
# 6 0.0000 0.0000 0.0000 -3.2382 0.0000 56.5900
#
#
#
# Elastic Compliance Matrix: (Units=1/GPa)
#
#
# Indices 1 2 3 4 5 6 
#
# 1 0.012920 -0.004049 -0.001139 0.000000 0.006032 0.000000
# 2 -0.004049 0.013274 -0.002168 0.000000 -0.003629 0.000000
# 3 -0.001139 -0.002168 0.006226 0.000000 -0.000586 0.000000
# 4 0.000000 0.000000 0.000000 0.022938 0.000000 0.001313
# 5 0.006032 -0.003629 -0.000586 0.000000 0.019150 0.000000
# 6 0.000000 0.000000 0.000000 0.001313 0.000000 0.017746
#
#
# Mechanical properties :
#
#
# Convention : Reuss Voigt Hill
#
# Bulk Modulus (GPa) = 56.46979 61.74514 59.10747
# Shear Modulus (GPa) = 44.29874 51.22991 47.76433
#
# Velocity S-wave (km/s) = 3.95588 4.25412 4.10771
# Velocity P-wave (km/s) = 6.38858 6.77807 6.58620
#
# Compressibility (1/GPa) = 0.01770858
#
# Stress axis : x y z
#
# Youngs Moduli (GPa) = 77.39766 75.33264 160.61388
#
# Poissons Ratio (x) = 0.30505 0.18295
# Poissons Ratio (y) = 0.31341 0.34817
# Poissons Ratio (z) = 0.08816 0.16330
#
# Static dielectric constant tensor:
#      x y z
#    x 2.152940 0.000000 -0.005890 
#    y 0.000000 2.653400 0.000000 
#    z -0.005890 0.000000 2.221780 
# 
# From -- ./inp_files/84111.got.cif
#   From: 2010.05.17/outbox.cif.g08.bks.cpg/sg15_43_cif.got.tgz:84111.got - 2010.06.03 18:47:42.
