data_PCOD9306220
_publ_section_title
;
Structure prediction by ZEFSAII (Michael W. Deem and Ramdas Pophale) SiO2 
 PCOD9306220
Probable space group: C 2/C
;
_chemical_formula_sum "Si O2"
_cell_formula_units_Z 36
_cell_length_a 8.110010
_cell_length_b 12.898820
_cell_length_c 13.855278
_cell_angle_alpha 90.000000
_cell_angle_beta 70.813894
_cell_angle_gamma 90.000000
_cell_volume 1368.889487
_symmetry_space_group_name_H-M "C 2/C"
_symmetry_group_IT_number 15
_symmetry_cell_setting 'monoclinic'
loop_
_space_group_symop_operation_xyz
x,y,z
-x,y,1/2-z
-x,-y,-z
x,-y,1/2+z
1/2+x,1/2+y,z
1/2-x,1/2+y,1/2-z
1/2-x,1/2-y,-z
1/2+x,1/2-y,1/2+z
loop_
_atom_site_type_symbol
_atom_site_label
_atom_site_fract_x
_atom_site_fract_y
_atom_site_fract_z
Si Si1 0.803035 0.428961 0.781483
Si Si2 0.094753 0.624391 0.859664
Si Si3 0.788653 0.868560 0.020310
Si Si4 0.139915 0.088582 0.527048
Si Si5 0.500000 0.314512 0.750000
O O1 0.827215 0.547132 0.736401
O O2 0.718421 0.410013 0.903106
O O3 0.677930 0.378300 0.725286
O O4 0.000000 0.386204 0.750000
O O5 0.227473 0.636012 0.921842
O O6 0.039283 0.734176 0.827765
O O7 0.905284 0.583517 0.928383
O O8 0.873536 0.965512 0.945354
O O9 0.750000 0.750000 0.000000
O O10 0.946919 0.861467 0.067815
#
# Coordination Sequence:
#
# PCOD9306220 Si02
#       5
#     8   8   8   8   4
#     4  12  28  51  80 115 161 209 266 328 398 475
#     4  12  27  53  80 117 164 206 270 333 393 480
#     4  11  25  45  81 120 152 206 268 322 399 481
#     4  11  27  49  78 115 160 210 257 335 399 464
#     4  12  30  50  80 120 156 212 270 330 400 474
#
# _framework density 26.298690000000001
#
# number of rings (size 3 to 8) (size 9 to 14) (size 15 to 20)
#    0.000    0.444    3.333    2.000    9.333    5.333 
#    2.000    0.000    0.000    0.000    0.000    0.000 
#    0.000    0.000    0.000    0.000    0.000    0.000 
#
# Total GULP energy -100439.367819 kJ/mol
# GULP energy per Si atom -5579.964879 kJ/mol
# Density = 2.623883 g / cm^3
# Si number density = 26.298690 Si / 1000 Ang^3
#
#
#
# Elastic Constant Matrix: (Units=GPa)
#
#
# Indices 1 2 3 4 5 6 
#
# 1 340.8683 85.7314 91.5058 0.0000 -2.9371 0.0000
# 2 85.7314 140.3120 21.5637 0.0000 4.8920 0.0000
# 3 91.5058 21.5637 86.0950 0.0000 0.7843 0.0000
# 4 0.0000 0.0000 0.0000 1.4902 0.0000 14.5466
# 5 -2.9371 4.8920 0.7843 0.0000 48.7508 0.0000
# 6 0.0000 0.0000 0.0000 14.5466 0.0000 56.7543
#
#
#
# Elastic Compliance Matrix: (Units=1/GPa)
#
#
# Indices 1 2 3 4 5 6 
#
# 1 0.004681 -0.002199 -0.004429 0.000000 0.000574 0.000000
# 2 -0.002199 0.008471 0.000225 0.000000 -0.000986 0.000000
# 3 -0.004429 0.000225 0.016272 0.000000 -0.000551 0.000000
# 4 0.000000 0.000000 0.000000 -0.446783 0.000000 0.114515
# 5 0.000574 -0.000986 -0.000551 0.000000 0.020655 0.000000
# 6 0.000000 0.000000 0.000000 0.114515 0.000000 -0.011731
#
#
# Mechanical properties :
#
#
# Convention : Reuss Voigt Hill
#
# Bulk Modulus (GPa) = 60.18512 107.20858 83.69685
# Shear Modulus (GPa) = -12.81754 45.96403 16.57325
#
# Velocity S-wave (km/s) = -2.21007 4.18517 2.51309
# Velocity P-wave (km/s) = 4.05245 8.01302 6.34944
#
# Compressibility (1/GPa) = 0.01661540
#
# Stress axis : x y z
#
# Youngs Moduli (GPa) = 213.63675 118.05578 61.45703
#
# Poissons Ratio (x) = 0.25964 0.27222
# Poissons Ratio (y) = 0.46985 -0.01382
# Poissons Ratio (z) = 0.94628 -0.02655
#
# Static dielectric constant tensor:
#      x y z
#    x 2.080650 0.000000 0.025610 
#    y 0.000000 2.135170 0.000000 
#    z 0.025610 0.000000 2.453330 
# 
# From -- ./inp_files/229529.got.cif
#   From: 2010.05.17/outbox.cif.g08.bks.cpg/sg15_115_cif.got.tgz:229529.got - 2010.06.03 18:47:42.
