data_PCOD9306419
_publ_section_title
;
Structure prediction by ZEFSAII (Michael W. Deem and Ramdas Pophale) SiO2 
 PCOD9306419
Probable space group: C 2/C
;
_chemical_formula_sum "Si O2"
_cell_formula_units_Z 52
_cell_length_a 12.468233
_cell_length_b 11.168360
_cell_length_c 17.539662
_cell_angle_alpha 90.000000
_cell_angle_beta 126.708987
_cell_angle_gamma 90.000000
_cell_volume 1958.022193
_symmetry_space_group_name_H-M "C 2/C"
_symmetry_group_IT_number 15
_symmetry_cell_setting 'monoclinic'
loop_
_space_group_symop_operation_xyz
x,y,z
-x,y,1/2-z
-x,-y,-z
x,-y,1/2+z
1/2+x,1/2+y,z
1/2-x,1/2+y,1/2-z
1/2-x,1/2-y,-z
1/2+x,1/2-y,1/2+z
loop_
_atom_site_type_symbol
_atom_site_label
_atom_site_fract_x
_atom_site_fract_y
_atom_site_fract_z
Si Si1 0.949983 0.778022 0.912454
Si Si2 0.648478 0.602128 0.280941
Si Si3 0.277910 0.303263 0.406132
Si Si4 0.613389 0.644972 0.712724
Si Si5 0.826434 0.872774 0.018499
Si Si6 0.078409 0.546846 0.907177
Si Si7 0.000000 0.644294 0.250000
O O1 0.870551 0.823789 0.805548
O O2 0.882345 0.845423 0.956420
O O3 0.982260 0.632658 0.918756
O O4 0.103068 0.825368 0.984454
O O5 0.500000 0.606183 0.250000
O O6 0.754020 0.664219 0.380551
O O7 0.682863 0.465953 0.281316
O O8 0.322584 0.347772 0.343062
O O9 0.360382 0.141749 0.626678
O O10 0.457809 0.615670 0.626644
O O11 0.610487 0.761168 0.765447
O O12 0.715579 0.974570 0.987395
O O13 0.750000 0.750000 0.000000
O O14 0.010805 0.442693 0.827653
#
# Coordination Sequence:
#
# PCOD9306419 Si02
#       7
#     8   8   8   8   8   8   4
#     4  11  26  48  74 109 145 187 258 305 370 453
#     4  12  24  45  74 107 143 194 243 298 372 445
#     4  11  26  46  74 107 140 196 241 304 374 433
#     4  11  26  46  68 106 149 186 250 303 368 452
#     4  11  25  48  73 105 144 197 246 309 385 436
#     4  12  24  45  75 100 149 187 242 311 370 443
#     4  12  26  44  62 110 148 188 240 300 366 446
#
# _framework density 26.557410999999998
#
# number of rings (size 3 to 8) (size 9 to 14) (size 15 to 20)
#    0.000    0.615    3.846    3.231    6.462    3.077 
#    0.000    0.000    0.000    0.000    0.000    0.000 
#    0.000    0.000    0.000    0.000    0.000    0.000 
#
# Total GULP energy -145298.561999 kJ/mol
# GULP energy per Si atom -5588.406231 kJ/mol
# Density = 2.649696 g / cm^3
# Si number density = 26.557411 Si / 1000 Ang^3
#
#
#
# Elastic Constant Matrix: (Units=GPa)
#
#
# Indices 1 2 3 4 5 6 
#
# 1 74.2169 16.7449 21.3428 0.0000 -14.0341 0.0000
# 2 16.7449 146.0327 17.1116 0.0000 -8.1395 0.0000
# 3 21.3428 17.1116 69.5613 0.0000 -0.3216 0.0000
# 4 0.0000 0.0000 0.0000 45.5606 0.0000 -6.2422
# 5 -14.0341 -8.1395 -0.3216 0.0000 35.2612 0.0000
# 6 0.0000 0.0000 0.0000 -6.2422 0.0000 -5.9205
#
#
#
# Elastic Compliance Matrix: (Units=1/GPa)
#
#
# Indices 1 2 3 4 5 6 
#
# 1 0.016216 -0.000963 -0.004710 0.000000 0.006189 0.000000
# 2 -0.000963 0.007201 -0.001470 0.000000 0.001266 0.000000
# 3 -0.004710 -0.001470 0.016173 0.000000 -0.002066 0.000000
# 4 0.000000 0.000000 0.000000 0.019178 0.000000 -0.020220
# 5 0.006189 0.001266 -0.002066 0.000000 0.031096 0.000000
# 6 0.000000 0.000000 0.000000 -0.020220 0.000000 -0.147586
#
#
# Mechanical properties :
#
#
# Convention : Reuss Voigt Hill
#
# Bulk Modulus (GPa) = 39.51871 44.46771 41.99321
# Shear Modulus (GPa) = -142.85370 30.62104 -56.11633
#
# Velocity S-wave (km/s) = -7.34216 3.39929 -4.60175
# Velocity P-wave (km/s) = 7.54742 5.67338 3.51969
#
# Compressibility (1/GPa) = 0.02530447
#
# Stress axis : x y z
#
# Youngs Moduli (GPa) = 61.66775 138.87011 61.83136
#
# Poissons Ratio (x) = 0.13367 0.29122
# Poissons Ratio (y) = 0.05936 0.09091
# Poissons Ratio (z) = 0.29045 0.20417
#
# Static dielectric constant tensor:
#      x y z
#    x 2.096860 0.000000 -0.043380 
#    y 0.000000 2.148610 0.000000 
#    z -0.043380 0.000000 2.115470 
# 
# From -- ./inp_files/204185.got.cif
#   From: 2010.05.17/outbox.cif.g08.bks.cpg/sg15_103_cif.got.tgz:204185.got - 2010.06.03 18:47:42.
