data_PCOD9306988
_publ_section_title
;
Structure prediction by ZEFSAII (Michael W. Deem and Ramdas Pophale) SiO2 
 PCOD9306988
Probable space group: C 2/C
;
_chemical_formula_sum "Si O2"
_cell_formula_units_Z 52
_cell_length_a 11.591669
_cell_length_b 21.114306
_cell_length_c 10.064515
_cell_angle_alpha 90.000000
_cell_angle_beta 54.853746
_cell_angle_gamma 90.000000
_cell_volume 2014.196338
_symmetry_space_group_name_H-M "C 2/C"
_symmetry_group_IT_number 15
_symmetry_cell_setting 'monoclinic'
loop_
_space_group_symop_operation_xyz
x,y,z
-x,y,1/2-z
-x,-y,-z
x,-y,1/2+z
1/2+x,1/2+y,z
1/2-x,1/2+y,1/2-z
1/2-x,1/2-y,-z
1/2+x,1/2-y,1/2+z
loop_
_atom_site_type_symbol
_atom_site_label
_atom_site_fract_x
_atom_site_fract_y
_atom_site_fract_z
Si Si1 0.703148 0.240570 0.831150
Si Si2 0.775746 0.581999 0.060580
Si Si3 0.500000 0.716488 0.250000
Si Si4 0.615158 0.957544 0.582121
Si Si5 0.135434 0.860122 0.416203
Si Si6 0.953507 0.671250 0.106501
Si Si7 0.605624 0.440309 0.930584
O O1 0.626036 0.248938 0.740796
O O2 0.783582 0.175298 0.752649
O O3 0.570891 0.225973 0.013773
O O4 0.818914 0.296515 0.771825
O O5 0.649032 0.581205 0.252383
O O6 0.843078 0.513003 0.046638
O O7 0.726686 0.588937 0.940608
O O8 0.877091 0.641057 0.027551
O O9 0.420699 0.681785 0.423661
O O10 0.500000 0.991356 0.750000
O O11 0.540204 0.891543 0.593386
O O12 0.754914 0.945048 0.575106
O O13 0.995120 0.887159 0.444914
O O14 0.500000 0.500000 0.000000
#
# Coordination Sequence:
#
# PCOD9306988 Si02
#       7
#     8   8   4   8   8   8   8
#     4  12  26  44  75 108 147 196 252 305 378 446
#     4  12  25  46  75 109 145 189 248 318 374 438
#     4  12  20  44  68 106 138 186 236 318 360 426
#     4  12  29  48  73 108 151 196 243 310 378 450
#     4  12  23  42  72 104 141 185 244 310 369 427
#     4  12  27  49  75 108 152 198 251 306 378 446
#     4  12  26  46  73 104 147 188 249 305 374 443
#
# _framework density 25.816749000000002
#
# number of rings (size 3 to 8) (size 9 to 14) (size 15 to 20)
#    0.000    0.000    7.692    1.846    4.308    0.000 
#    0.000    3.077    0.000    0.000    0.000    0.000 
#    0.000    0.000    0.000    0.000    0.000    0.000 
#
# Total GULP energy -145180.393139 kJ/mol
# GULP energy per Si atom -5583.861275 kJ/mol
# Density = 2.575799 g / cm^3
# Si number density = 25.816749 Si / 1000 Ang^3
#
#
#
# Elastic Constant Matrix: (Units=GPa)
#
#
# Indices 1 2 3 4 5 6 
#
# 1 139.5030 37.1774 27.6826 0.0000 -31.9233 0.0000
# 2 37.1774 91.2781 21.0836 0.0000 -20.1694 0.0000
# 3 27.6826 21.0836 59.3386 0.0000 -33.1955 0.0000
# 4 0.0000 0.0000 0.0000 46.8079 0.0000 -16.1070
# 5 -31.9233 -20.1694 -33.1955 0.0000 41.7701 0.0000
# 6 0.0000 0.0000 0.0000 -16.1070 0.0000 48.0605
#
#
#
# Elastic Compliance Matrix: (Units=1/GPa)
#
#
# Indices 1 2 3 4 5 6 
#
# 1 0.009152 -0.002426 -0.000270 0.000000 0.005608 0.000000
# 2 -0.002426 0.013025 -0.001827 0.000000 0.002983 0.000000
# 3 -0.000270 -0.001827 0.030641 0.000000 0.023263 0.000000
# 4 0.000000 0.000000 0.000000 0.024149 0.000000 0.008093
# 5 0.005608 0.002983 0.023263 0.000000 0.048154 0.000000
# 6 0.000000 0.000000 0.000000 0.008093 0.000000 0.023519
#
#
# Mechanical properties :
#
#
# Convention : Reuss Voigt Hill
#
# Bulk Modulus (GPa) = 22.84598 51.33407 37.09003
# Shear Modulus (GPa) = 29.02290 40.93945 34.98118
#
# Velocity S-wave (km/s) = 3.35653 3.98649 3.68500
# Velocity P-wave (km/s) = 4.88776 6.41223 5.70118
#
# Compressibility (1/GPa) = 0.04377137
#
# Stress axis : x y z
#
# Youngs Moduli (GPa) = 109.26840 76.77652 32.63562
#
# Poissons Ratio (x) = 0.18625 0.00881
# Poissons Ratio (y) = 0.26507 0.05964
# Poissons Ratio (z) = 0.02951 0.14030
#
# Static dielectric constant tensor:
#      x y z
#    x 2.134120 0.000000 0.030960 
#    y 0.000000 2.103430 0.000000 
#    z 0.030960 0.000000 2.054210 
# 
# From -- ./inp_files/91202.got.cif
#   From: 2010.05.17/outbox.cif.g08.bks.cpg/sg15_46_cif.got.tgz:91202.got - 2010.06.03 18:47:42.
