data_PCOD9306282
_publ_section_title
;
Structure prediction by ZEFSAII (Michael W. Deem and Ramdas Pophale) SiO2 
 PCOD9306282
Probable space group: C 2/C
;
_chemical_formula_sum "Si O2"
_cell_formula_units_Z 40
_cell_length_a 8.708528
_cell_length_b 23.042958
_cell_length_c 15.438212
_cell_angle_alpha 90.000000
_cell_angle_beta 148.653528
_cell_angle_gamma 90.000000
_cell_volume 1611.611410
_symmetry_space_group_name_H-M "C 2/C"
_symmetry_group_IT_number 15
_symmetry_cell_setting 'monoclinic'
loop_
_space_group_symop_operation_xyz
x,y,z
-x,y,1/2-z
-x,-y,-z
x,-y,1/2+z
1/2+x,1/2+y,z
1/2-x,1/2+y,1/2-z
1/2-x,1/2-y,-z
1/2+x,1/2-y,1/2+z
loop_
_atom_site_type_symbol
_atom_site_label
_atom_site_fract_x
_atom_site_fract_y
_atom_site_fract_z
Si Si1 0.321620 0.822871 0.931206
Si Si2 0.000000 0.340802 0.750000
Si Si3 0.375955 0.509526 0.840148
Si Si4 0.384184 0.302201 0.479204
Si Si5 0.421891 0.919807 0.552165
Si Si6 0.500000 0.905085 0.250000
O O1 0.344619 0.756896 0.906395
O O2 0.541901 0.872675 0.006784
O O3 0.000000 0.845010 0.750000
O O4 0.309825 0.807938 0.026930
O O5 0.124042 0.380717 0.885145
O O6 0.732236 0.305493 0.662087
O O7 0.095009 0.552386 0.718291
O O8 0.225363 0.454424 0.721213
O O9 0.500000 0.500000 0.000000
O O10 0.644005 0.537189 0.915412
O O11 0.275749 0.361754 0.385142
#
# Coordination Sequence:
#
# PCOD9306282 Si02
#       6
#     8   4   8   8   8   4
#     4  11  25  47  71 104 149 184 239 308 373 422
#     4  12  21  40  78 104 140 187 242 294 360 434
#     4  12  22  41  72 106 143 192 242 286 348 434
#     4  11  25  46  73 105 139 191 239 305 371 433
#     4  12  24  43  73 105 146 194 240 297 353 433
#     4  12  21  42  76 104 140 191 246 286 356 444
#
# _framework density 24.819877999999999
#
# number of rings (size 3 to 8) (size 9 to 14) (size 15 to 20)
#    0.000    0.400    9.000    0.000    0.000    0.800 
#    7.200    4.000    0.000    0.000    0.000    0.000 
#    0.000    0.000    0.000    0.000    0.000    0.000 
#
# Total GULP energy -111640.849154 kJ/mol
# GULP energy per Si atom -5582.042458 kJ/mol
# Density = 2.476339 g / cm^3
# Si number density = 24.819878 Si / 1000 Ang^3
#
#
#
# Elastic Constant Matrix: (Units=GPa)
#
#
# Indices 1 2 3 4 5 6 
#
# 1 99.4077 77.3414 44.3384 0.0001 10.8571 0.0006
# 2 77.3414 157.6031 43.2021 0.0003 16.4763 0.0001
# 3 44.3384 43.2021 84.9235 0.0064 31.1314 0.0011
# 4 0.0001 0.0003 0.0064 -12.5735 0.0012 -28.9498
# 5 10.8571 16.4763 31.1314 0.0012 36.9279 0.0013
# 6 0.0006 0.0001 0.0011 -28.9498 0.0013 31.2175
#
#
#
# Elastic Compliance Matrix: (Units=1/GPa)
#
#
# Indices 1 2 3 4 5 6 
#
# 1 0.018913 -0.007659 -0.007514 -0.000001 0.004192 -0.000001
# 2 -0.007659 0.010476 -0.000640 0.000000 -0.001882 0.000000
# 3 -0.007514 -0.000640 0.021868 0.000003 -0.015940 0.000003
# 4 -0.000001 0.000000 0.000003 -0.025368 -0.000001 -0.023525
# 5 0.004192 -0.001882 -0.015940 -0.000001 0.040125 -0.000002
# 6 -0.000001 0.000000 0.000003 -0.023525 -0.000002 0.010217
#
#
# Mechanical properties :
#
#
# Convention : Reuss Voigt Hill
#
# Bulk Modulus (GPa) = 50.94755 74.63314 62.79034
# Shear Modulus (GPa) = 43.70527 22.91787 33.31157
#
# Velocity S-wave (km/s) = 4.20086 3.04199 3.66749
# Velocity P-wave (km/s) = 6.64086 6.51717 6.57931
#
# Compressibility (1/GPa) = 0.01962803
#
# Stress axis : x y z
#
# Youngs Moduli (GPa) = 52.87476 95.45483 45.72955
#
# Poissons Ratio (x) = 0.73113 0.34363
# Poissons Ratio (y) = 0.40499 0.02928
# Poissons Ratio (z) = 0.39732 0.06112
#
# Static dielectric constant tensor:
#      x y z
#    x 2.108650 0.000000 -0.008960 
#    y 0.000000 2.022830 0.000000 
#    z -0.008960 0.000000 2.046050 
# 
# From -- ./inp_files/193466.got.cif
#   From: 2010.05.17/outbox.cif.g08.bks.cpg/sg15_97_cif.got.tgz:193466.got - 2010.06.03 18:47:42.
