data_PCOD9306066
_publ_section_title
;
Structure prediction by ZEFSAII (Michael W. Deem and Ramdas Pophale) SiO2 
 PCOD9306066
Probable space group: C 2/C
;
_chemical_formula_sum "Si O2"
_cell_formula_units_Z 48
_cell_length_a 25.030503
_cell_length_b 14.628682
_cell_length_c 10.516428
_cell_angle_alpha 90.000000
_cell_angle_beta 145.905615
_cell_angle_gamma 90.000000
_cell_volume 2158.556703
_symmetry_space_group_name_H-M "C 2/C"
_symmetry_group_IT_number 15
_symmetry_cell_setting 'monoclinic'
loop_
_space_group_symop_operation_xyz
x,y,z
-x,y,1/2-z
-x,-y,-z
x,-y,1/2+z
1/2+x,1/2+y,z
1/2-x,1/2+y,1/2-z
1/2-x,1/2-y,-z
1/2+x,1/2-y,1/2+z
loop_
_atom_site_type_symbol
_atom_site_label
_atom_site_fract_x
_atom_site_fract_y
_atom_site_fract_z
Si Si1 0.878063 0.902320 0.230612
Si Si2 0.944993 0.907835 0.763532
Si Si3 0.103593 0.263680 0.895398
Si Si4 0.217462 0.239573 0.581556
Si Si5 0.335090 0.076180 0.137458
Si Si6 0.386229 0.923442 0.028210
O O1 0.875222 0.840629 0.100297
O O2 0.969561 0.865170 0.486138
O O3 0.898188 0.008127 0.244225
O O4 0.776298 0.898834 0.096010
O O5 0.865125 0.835553 0.572300
O O6 0.000000 0.946439 0.750000
O O7 0.109981 0.330319 0.786966
O O8 0.000000 0.272125 0.750000
O O9 0.188484 0.290367 0.157087
O O10 0.250000 0.250000 0.500000
O O11 0.172722 0.333293 0.547992
O O12 0.354776 0.048533 0.322640
O O13 0.364666 0.000622 0.092099
O O14 0.500000 0.906354 0.250000
#
# Coordination Sequence:
#
# PCOD9306066 Si02
#       6
#     8   8   8   8   8   8
#     4  11  25  47  72 107 145 189 240 301 373 434
#     4  11  25  43  75 103 142 187 243 301 364 439
#     4  12  27  46  74 107 153 190 245 304 376 440
#     4  12  27  45  76 109 146 195 248 307 370 445
#     4  12  28  48  76 106 148 202 245 309 370 443
#     4  12  29  49  75 108 151 196 254 303 372 440
#
# _framework density 22.237082000000001
#
# number of rings (size 3 to 8) (size 9 to 14) (size 15 to 20)
#    0.000    0.333    1.667    5.500   14.000    2.667 
#    0.000    0.000    0.000    0.000    0.000    0.000 
#    0.000    0.000    0.000    0.000    0.000    0.000 
#
# Total GULP energy -134362.210150 kJ/mol
# GULP energy per Si atom -5598.425423 kJ/mol
# Density = 2.218647 g / cm^3
# Si number density = 22.237082 Si / 1000 Ang^3
#
#
#
# Elastic Constant Matrix: (Units=GPa)
#
#
# Indices 1 2 3 4 5 6 
#
# 1 140.3264 37.3467 60.9405 0.0000 16.1513 0.0000
# 2 37.3467 79.9716 44.0928 0.0000 12.8600 0.0000
# 3 60.9405 44.0928 150.4877 0.0000 14.3721 0.0000
# 4 0.0000 0.0000 0.0000 17.9415 0.0000 -2.0864
# 5 16.1513 12.8600 14.3721 0.0000 55.7274 0.0000
# 6 0.0000 0.0000 0.0000 -2.0864 0.0000 36.3179
#
#
#
# Elastic Compliance Matrix: (Units=1/GPa)
#
#
# Indices 1 2 3 4 5 6 
#
# 1 0.009188 -0.002497 -0.002860 0.000000 -0.001349 0.000000
# 2 -0.002497 0.015905 -0.003453 0.000000 -0.002056 0.000000
# 3 -0.002860 -0.003453 0.008878 0.000000 -0.000664 0.000000
# 4 0.000000 0.000000 0.000000 0.056112 0.000000 0.003224
# 5 -0.001349 -0.002056 -0.000664 0.000000 0.018981 0.000000
# 6 0.000000 0.000000 0.000000 0.003224 0.000000 0.027720
#
#
# Mechanical properties :
#
#
# Convention : Reuss Voigt Hill
#
# Bulk Modulus (GPa) = 61.15573 72.83842 66.99707
# Shear Modulus (GPa) = 31.27847 37.22441 34.25144
#
# Velocity S-wave (km/s) = 3.75452 4.09587 3.92890
# Velocity P-wave (km/s) = 6.80857 7.42931 7.12570
#
# Compressibility (1/GPa) = 0.01635170
#
# Stress axis : x y z
#
# Youngs Moduli (GPa) = 108.83479 62.87436 112.63291
#
# Poissons Ratio (x) = 0.15699 0.32217
# Poissons Ratio (y) = 0.27175 0.38887
# Poissons Ratio (z) = 0.31131 0.21708
#
# Static dielectric constant tensor:
#      x y z
#    x 1.863330 0.000000 -0.073560 
#    y 0.000000 1.792060 0.000000 
#    z -0.073560 0.000000 1.842290 
# 
# From -- ./inp_files/123573.got.cif
#   From: 2010.05.17/outbox.cif.g08.bks.cpg/sg15_62_cif.got.tgz:123573.got - 2010.06.03 18:47:42.
