data_PCOD9306046
_publ_section_title
;
Structure prediction by ZEFSAII (Michael W. Deem and Ramdas Pophale) SiO2 
 PCOD9306046
Probable space group: C 2/C
;
_chemical_formula_sum "Si O2"
_cell_formula_units_Z 48
_cell_length_a 9.394593
_cell_length_b 26.976684
_cell_length_c 14.584569
_cell_angle_alpha 90.000000
_cell_angle_beta 139.055655
_cell_angle_gamma 90.000000
_cell_volume 2422.240621
_symmetry_space_group_name_H-M "C 2/C"
_symmetry_group_IT_number 15
_symmetry_cell_setting 'monoclinic'
loop_
_space_group_symop_operation_xyz
x,y,z
-x,y,1/2-z
-x,-y,-z
x,-y,1/2+z
1/2+x,1/2+y,z
1/2-x,1/2+y,1/2-z
1/2-x,1/2-y,-z
1/2+x,1/2-y,1/2+z
loop_
_atom_site_type_symbol
_atom_site_label
_atom_site_fract_x
_atom_site_fract_y
_atom_site_fract_z
Si Si1 0.946794 0.056595 0.830407
Si Si2 0.249389 0.769327 0.604499
Si Si3 0.475835 0.444346 0.629891
Si Si4 0.477544 0.102998 0.631416
Si Si5 0.237158 0.883240 0.613518
Si Si6 0.960300 0.283234 0.119112
O O1 0.708882 0.080672 0.717075
O O2 0.000000 0.056081 0.750000
O O3 0.953610 0.999469 0.865667
O O4 0.124761 0.086611 0.975788
O O5 0.500000 0.771168 0.750000
O O6 0.250000 0.750000 0.500000
O O7 0.168381 0.826051 0.567951
O O8 0.134485 0.738640 0.630604
O O9 0.500000 0.440005 0.750000
O O10 0.625859 0.405409 0.649922
O O11 0.224770 0.432501 0.487193
O O12 0.500000 0.107789 0.750000
O O13 0.433486 0.159122 0.577412
O O14 0.500000 0.887460 0.750000
O O15 0.000000 0.280735 0.250000
O O16 0.750000 0.250000 0.000000
#
# Coordination Sequence:
#
# PCOD9306046 Si02
#       6
#     8   8   8   8   8   8
#     4  11  27  43  70  99 135 180 225 284 341 407
#     4  11  26  42  67  99 135 178 225 278 340 408
#     4  11  26  44  69 100 136 176 229 281 340 407
#     4  11  25  43  70 100 133 182 227 276 342 410
#     4  11  26  44  67 100 136 178 225 280 344 404
#     4  11  25  44  69  99 137 178 228 281 340 404
#
# _framework density 19.816364
#
# number of rings (size 3 to 8) (size 9 to 14) (size 15 to 20)
#    0.000    1.000    1.667    2.500   11.667    5.333 
#    0.000    0.000    0.000    0.000    0.000    0.000 
#    0.000    0.000    0.000    0.000    0.000    0.000 
#
# Total GULP energy -133954.381780 kJ/mol
# GULP energy per Si atom -5581.432574 kJ/mol
# Density = 1.977126 g / cm^3
# Si number density = 19.816364 Si / 1000 Ang^3
#
#
#
# Elastic Constant Matrix: (Units=GPa)
#
#
# Indices 1 2 3 4 5 6 
#
# 1 115.8579 51.2538 11.7465 0.0000 -0.3309 0.0000
# 2 51.2538 146.1668 38.7823 0.0000 7.3250 0.0000
# 3 11.7465 38.7823 85.2969 0.0000 4.0166 0.0000
# 4 0.0000 0.0000 0.0000 44.3269 0.0000 -18.3986
# 5 -0.3309 7.3250 4.0166 0.0000 42.7631 0.0000
# 6 0.0000 0.0000 0.0000 -18.3986 0.0000 65.5100
#
#
#
# Elastic Compliance Matrix: (Units=1/GPa)
#
#
# Indices 1 2 3 4 5 6 
#
# 1 0.010241 -0.003688 0.000234 0.000000 0.000689 0.000000
# 2 -0.003688 0.009151 -0.003594 0.000000 -0.001259 0.000000
# 3 0.000234 -0.003594 0.013356 0.000000 -0.000637 0.000000
# 4 0.000000 0.000000 0.000000 0.025537 0.000000 0.007172
# 5 0.000689 -0.001259 -0.000637 0.000000 0.023665 0.000000
# 6 0.000000 0.000000 0.000000 0.007172 0.000000 0.017279
#
#
# Mechanical properties :
#
#
# Convention : Reuss Voigt Hill
#
# Bulk Modulus (GPa) = 53.61139 61.20965 57.41052
# Shear Modulus (GPa) = 41.82672 46.88925 44.35798
#
# Velocity S-wave (km/s) = 4.59924 4.86963 4.73636
# Velocity P-wave (km/s) = 7.43753 7.91032 7.67756
#
# Compressibility (1/GPa) = 0.01865275
#
# Stress axis : x y z
#
# Youngs Moduli (GPa) = 97.64827 109.27604 74.87551
#
# Poissons Ratio (x) = 0.40296 -0.01751
# Poissons Ratio (y) = 0.36008 0.26908
# Poissons Ratio (z) = -0.02284 0.39271
#
# Static dielectric constant tensor:
#      x y z
#    x 1.662810 0.000000 -0.005870 
#    y 0.000000 1.773670 0.000000 
#    z -0.005870 0.000000 1.661770 
# 
# From -- ./inp_files/139030.got.cif
#   From: 2010.05.17/outbox.cif.g08.bks.cpg/sg15_70_cif.got.tgz:139030.got - 2010.06.03 18:47:42.
