data_PCOD9306721
_publ_section_title
;
Structure prediction by ZEFSAII (Michael W. Deem and Ramdas Pophale) SiO2 
 PCOD9306721
Probable space group: C 2/C
;
_chemical_formula_sum "Si O2"
_cell_formula_units_Z 32
_cell_length_a 9.362063
_cell_length_b 14.313650
_cell_length_c 14.520839
_cell_angle_alpha 90.000000
_cell_angle_beta 145.077990
_cell_angle_gamma 90.000000
_cell_volume 1113.934063
_symmetry_space_group_name_H-M "C 2/C"
_symmetry_group_IT_number 15
_symmetry_cell_setting 'monoclinic'
loop_
_space_group_symop_operation_xyz
x,y,z
-x,y,1/2-z
-x,-y,-z
x,-y,1/2+z
1/2+x,1/2+y,z
1/2-x,1/2+y,1/2-z
1/2-x,1/2-y,-z
1/2+x,1/2-y,1/2+z
loop_
_atom_site_type_symbol
_atom_site_label
_atom_site_fract_x
_atom_site_fract_y
_atom_site_fract_z
Si Si1 0.258165 0.214603 0.688356
Si Si2 0.444690 0.486556 0.620512
Si Si3 0.240333 0.890138 0.629688
Si Si4 0.041856 0.610787 0.997689
O O1 0.500000 0.210062 0.750000
O O2 0.209861 0.105132 0.434414
O O3 0.018570 0.164335 0.517753
O O4 0.143034 0.319851 0.631838
O O5 0.500000 0.530013 0.750000
O O6 0.259371 0.547105 0.462529
O O7 0.676831 0.463698 0.677525
O O8 0.500000 0.836804 0.750000
O O9 0.662242 0.836664 0.174246
O O10 0.000000 0.500000 0.000000
#
# Coordination Sequence:
#
# PCOD9306721 Si02
#       4
#     8   8   8   8
#     4  12  27  55  87 129 178 242 309 375 462 570
#     4  11  26  48  85 124 179 240 305 373 468 549
#     4  11  28  49  83 131 183 236 303 390 461 544
#     4  12  29  53  93 131 178 239 313 383 465 552
#
# _framework density 28.727015000000002
#
# number of rings (size 3 to 8) (size 9 to 14) (size 15 to 20)
#    0.000    0.500    2.500    3.000   14.000    0.000 
#    0.000    7.500    0.000    1.500    0.000    0.000 
#    0.000    0.000    0.000    0.000    0.000    0.000 
#
# Total GULP energy -89358.781424 kJ/mol
# GULP energy per Si atom -5584.923839 kJ/mol
# Density = 2.866163 g / cm^3
# Si number density = 28.727015 Si / 1000 Ang^3
#
#
#
# Elastic Constant Matrix: (Units=GPa)
#
#
# Indices 1 2 3 4 5 6 
#
# 1 184.7081 50.5885 58.7590 0.0004 18.9042 -0.0001
# 2 50.5885 165.5674 72.2318 0.0007 -8.2595 0.0001
# 3 58.7590 72.2318 135.4417 0.0039 26.6439 0.0015
# 4 0.0004 0.0007 0.0039 61.1963 0.0012 -6.9548
# 5 18.9042 -8.2595 26.6439 0.0012 60.9022 0.0003
# 6 -0.0001 0.0001 0.0015 -6.9548 0.0003 37.9458
#
#
#
# Elastic Compliance Matrix: (Units=1/GPa)
#
#
# Indices 1 2 3 4 5 6 
#
# 1 0.006491 -0.001222 -0.001898 0.000000 -0.001350 0.000000
# 2 -0.001222 0.008707 -0.004836 0.000000 0.003676 0.000000
# 3 -0.001898 -0.004836 0.011816 -0.000001 -0.005236 -0.000001
# 4 0.000000 0.000000 -0.000001 0.016688 0.000000 0.003059
# 5 -0.001350 0.003676 -0.005236 0.000000 0.019628 0.000000
# 6 0.000000 0.000000 -0.000001 0.003059 0.000000 0.026914
#
#
# Mechanical properties :
#
#
# Convention : Reuss Voigt Hill
#
# Bulk Modulus (GPa) = 90.09377 94.31952 92.20664
# Shear Modulus (GPa) = 45.51355 52.28473 48.89914
#
# Velocity S-wave (km/s) = 3.98470 4.27084 4.13025
# Velocity P-wave (km/s) = 7.25263 7.56468 7.41030
#
# Compressibility (1/GPa) = 0.01109955
#
# Stress axis : x y z
#
# Youngs Moduli (GPa) = 154.06339 114.85653 84.63123
#
# Poissons Ratio (x) = 0.14039 0.16067
# Poissons Ratio (y) = 0.18832 0.40928
# Poissons Ratio (z) = 0.29249 0.55545
#
# Static dielectric constant tensor:
#      x y z
#    x 2.338050 0.000000 -0.059770 
#    y 0.000000 2.375140 0.000000 
#    z -0.059770 0.000000 2.467850 
# 
# From -- ./inp_files/244647.got.cif
#   From: 2010.05.17/outbox.cif.g08.bks.cpg/sg15_123_cif.got.tgz:244647.got - 2010.06.03 18:47:42.
