data_PCOD9306900
_publ_section_title
;
Structure prediction by ZEFSAII (Michael W. Deem and Ramdas Pophale) SiO2 
 PCOD9306900
Probable space group: C 2/C
;
_chemical_formula_sum "Si O2"
_cell_formula_units_Z 40
_cell_length_a 13.043809
_cell_length_b 5.049678
_cell_length_c 24.976100
_cell_angle_alpha 90.000000
_cell_angle_beta 113.197510
_cell_angle_gamma 90.000000
_cell_volume 1512.099237
_symmetry_space_group_name_H-M "C 2/C"
_symmetry_group_IT_number 15
_symmetry_cell_setting 'monoclinic'
loop_
_space_group_symop_operation_xyz
x,y,z
-x,y,1/2-z
-x,-y,-z
x,-y,1/2+z
1/2+x,1/2+y,z
1/2-x,1/2+y,1/2-z
1/2-x,1/2-y,-z
1/2+x,1/2-y,1/2+z
loop_
_atom_site_type_symbol
_atom_site_label
_atom_site_fract_x
_atom_site_fract_y
_atom_site_fract_z
Si Si1 0.319033 0.075990 0.054166
Si Si2 0.321155 0.561027 0.746972
Si Si3 0.937125 0.012985 0.659791
Si Si4 0.606810 0.413751 0.059593
Si Si5 0.031760 0.397890 0.099570
O O1 0.380597 0.283019 0.106648
O O2 0.229085 0.880449 0.060506
O O3 0.416285 0.926185 0.042263
O O4 0.250000 0.250000 0.000000
O O5 0.240441 0.812270 0.738034
O O6 0.354373 0.485267 0.692922
O O7 0.443016 0.625936 0.796472
O O8 0.975295 0.732259 0.641076
O O9 0.615975 0.680442 0.096486
O O10 0.584557 0.177794 0.096275
O O11 0.500000 0.500000 0.000000
#
# Coordination Sequence:
#
# PCOD9306900 Si02
#       5
#     8   8   8   8   8
#     4  12  28  48  78 117 167 216 266 330 397 488
#     4  11  30  53  85 114 155 206 269 351 424 485
#     4  11  29  50  81 119 158 206 279 336 414 498
#     4  12  27  45  72 109 161 216 265 313 391 471
#     4  12  27  47  73 110 157 204 269 321 391 473
#
# _framework density 26.453291
#
# number of rings (size 3 to 8) (size 9 to 14) (size 15 to 20)
#    0.000    0.400    4.000    0.600   11.200    3.200 
#    0.000    0.000    0.000    0.000    0.000    0.000 
#    0.000    0.000    0.000    0.000    0.000    0.000 
#
# Total GULP energy -111859.094550 kJ/mol
# GULP energy per Si atom -5592.954728 kJ/mol
# Density = 2.639308 g / cm^3
# Si number density = 26.453291 Si / 1000 Ang^3
#
#
#
# Elastic Constant Matrix: (Units=GPa)
#
#
# Indices 1 2 3 4 5 6 
#
# 1 121.7284 32.4193 0.7879 0.0000 15.1582 0.0000
# 2 32.4193 145.2515 35.4592 0.0000 -5.1128 0.0001
# 3 0.7879 35.4592 96.3223 0.0000 14.4418 0.0000
# 4 0.0000 0.0000 0.0000 32.1146 0.0000 -2.8986
# 5 15.1582 -5.1128 14.4418 0.0000 38.4704 0.0000
# 6 0.0000 0.0001 0.0000 -2.8986 0.0000 37.4741
#
#
#
# Elastic Compliance Matrix: (Units=1/GPa)
#
#
# Indices 1 2 3 4 5 6 
#
# 1 0.009505 -0.002681 0.001615 0.000000 -0.004708 0.000000
# 2 -0.002681 0.008496 -0.003638 0.000000 0.003552 0.000000
# 3 0.001615 -0.003638 0.012584 0.000000 -0.005844 0.000000
# 4 0.000000 0.000000 0.000000 0.031357 0.000000 0.002425
# 5 -0.004708 0.003552 -0.005844 0.000000 0.030515 0.000000
# 6 0.000000 0.000000 0.000000 0.002425 0.000000 0.026873
#
#
# Mechanical properties :
#
#
# Convention : Reuss Voigt Hill
#
# Bulk Modulus (GPa) = 47.22245 55.62611 51.42428
# Shear Modulus (GPa) = 36.81927 41.25419 39.03673
#
# Velocity S-wave (km/s) = 3.73481 3.95335 3.84563
# Velocity P-wave (km/s) = 6.04057 6.47397 6.26102
#
# Compressibility (1/GPa) = 0.02117637
#
# Stress axis : x y z
#
# Youngs Moduli (GPa) = 105.20833 117.69808 79.46472
#
# Poissons Ratio (x) = 0.31561 -0.12836
# Poissons Ratio (y) = 0.28211 0.28912
# Poissons Ratio (z) = -0.16994 0.42822
#
# Static dielectric constant tensor:
#      x y z
#    x 2.141320 0.000000 -0.077050 
#    y 0.000000 2.191150 0.000000 
#    z -0.077050 0.000000 2.242890 
# 
# From -- ./inp_files/311951.got.cif
#   From: 2010.05.17/outbox.cif.g08.bks.cpg/sg15_156_cif.got.tgz:311951.got - 2010.06.03 18:47:42.
