data_PCOD9306826
_publ_section_title
;
Structure prediction by ZEFSAII (Michael W. Deem and Ramdas Pophale) SiO2 
 PCOD9306826
Probable space group: C 2/C
;
_chemical_formula_sum "Si O2"
_cell_formula_units_Z 28
_cell_length_a 25.185451
_cell_length_b 9.595958
_cell_length_c 8.963333
_cell_angle_alpha 90.000000
_cell_angle_beta 153.299368
_cell_angle_gamma 90.000000
_cell_volume 973.356445
_symmetry_space_group_name_H-M "C 2/C"
_symmetry_group_IT_number 15
_symmetry_cell_setting 'monoclinic'
loop_
_space_group_symop_operation_xyz
x,y,z
-x,y,1/2-z
-x,-y,-z
x,-y,1/2+z
1/2+x,1/2+y,z
1/2-x,1/2+y,1/2-z
1/2-x,1/2-y,-z
1/2+x,1/2-y,1/2+z
loop_
_atom_site_type_symbol
_atom_site_label
_atom_site_fract_x
_atom_site_fract_y
_atom_site_fract_z
Si Si1 0.351454 0.941226 0.468334
Si Si2 0.306686 0.564888 0.209494
Si Si3 0.000000 0.298365 0.250000
Si Si4 0.541219 0.314870 0.158303
O O1 0.460639 0.845650 0.793441
O O2 0.261821 0.936054 0.384450
O O3 0.401766 0.096423 0.568470
O O4 0.285972 0.892359 0.152798
O O5 0.345447 0.633785 0.465739
O O6 0.429182 0.594698 0.427988
O O7 0.047616 0.198628 0.498600
#
# Coordination Sequence:
#
# PCOD9306826 Si02
#       4
#     8   8   4   8
#     4  12  26  50  79 117 155 208 254 321 384 461
#     4  11  28  48  82 112 160 203 257 317 393 447
#     4  12  26  46  78 116 154 200 266 310 384 464
#     4  11  27  47  78 118 153 203 262 317 378 471
#
# _framework density 28.766442000000001
#
# number of rings (size 3 to 8) (size 9 to 14) (size 15 to 20)
#    0.000    0.571    2.857    3.429   12.000    8.000 
#    0.000    0.000    0.000    0.000    0.000    0.000 
#    0.000    0.000    0.000    0.000    0.000    0.000 
#
# Total GULP energy -78266.791477 kJ/mol
# GULP energy per Si atom -5590.485105 kJ/mol
# Density = 2.870097 g / cm^3
# Si number density = 28.766442 Si / 1000 Ang^3
#
#
#
# Elastic Constant Matrix: (Units=GPa)
#
#
# Indices 1 2 3 4 5 6 
#
# 1 201.0383 57.2980 95.8519 0.0000 -2.1223 0.0000
# 2 57.2980 127.8248 55.2823 0.0000 10.2652 0.0000
# 3 95.8519 55.2823 229.4250 0.0000 -31.3540 0.0000
# 4 0.0000 0.0000 0.0000 16.9629 0.0000 -4.4541
# 5 -2.1223 10.2652 -31.3540 0.0000 83.9888 0.0000
# 6 0.0000 0.0000 0.0000 -4.4541 0.0000 43.8933
#
#
#
# Elastic Compliance Matrix: (Units=1/GPa)
#
#
# Indices 1 2 3 4 5 6 
#
# 1 0.006651 -0.001910 -0.002385 0.000000 -0.000489 0.000000
# 2 -0.001910 0.009597 -0.001772 0.000000 -0.001883 0.000000
# 3 -0.002385 -0.001772 0.006115 0.000000 0.002439 0.000000
# 4 0.000000 0.000000 0.000000 0.060566 0.000000 0.006146
# 5 -0.000489 -0.001883 0.002439 0.000000 0.013035 0.000000
# 6 0.000000 0.000000 0.000000 0.006146 0.000000 0.023406
#
#
# Mechanical properties :
#
#
# Convention : Reuss Voigt Hill
#
# Bulk Modulus (GPa) = 97.76276 108.35029 103.05652
# Shear Modulus (GPa) = 37.06076 52.29273 44.67674
#
# Velocity S-wave (km/s) = 3.59323 4.26824 3.94520
# Velocity P-wave (km/s) = 7.16058 7.87640 7.52700
#
# Compressibility (1/GPa) = 0.01022884
#
# Stress axis : x y z
#
# Youngs Moduli (GPa) = 150.36083 104.19994 163.52109
#
# Poissons Ratio (x) = 0.19907 0.39001
# Poissons Ratio (y) = 0.28725 0.28969
# Poissons Ratio (z) = 0.35862 0.18460
#
# Static dielectric constant tensor:
#      x y z
#    x 2.450000 0.000000 0.110260 
#    y 0.000000 2.385540 0.000000 
#    z 0.110260 0.000000 2.119560 
# 
# From -- ./inp_files/61126.got.cif
#   From: 2010.05.17/outbox.cif.g08.bks.cpg/sg15_31_cif.got.tgz:61126.got - 2010.06.03 18:47:42.
