data_PCOD9306171
_publ_section_title
;
Structure prediction by ZEFSAII (Michael W. Deem and Ramdas Pophale) SiO2 
 PCOD9306171
Probable space group: C 2/C
;
_chemical_formula_sum "Si O2"
_cell_formula_units_Z 40
_cell_length_a 8.307189
_cell_length_b 21.608402
_cell_length_c 10.900659
_cell_angle_alpha 90.000000
_cell_angle_beta 91.847362
_cell_angle_gamma 90.000000
_cell_volume 1955.706660
_symmetry_space_group_name_H-M "C 2/C"
_symmetry_group_IT_number 15
_symmetry_cell_setting 'monoclinic'
loop_
_space_group_symop_operation_xyz
x,y,z
-x,y,1/2-z
-x,-y,-z
x,-y,1/2+z
1/2+x,1/2+y,z
1/2-x,1/2+y,1/2-z
1/2-x,1/2-y,-z
1/2+x,1/2-y,1/2+z
loop_
_atom_site_type_symbol
_atom_site_label
_atom_site_fract_x
_atom_site_fract_y
_atom_site_fract_z
Si Si1 0.654071 0.527303 0.574922
Si Si2 0.250000 0.250000 0.500000
Si Si3 0.275654 0.897452 0.648049
Si Si4 0.861565 0.382838 0.926334
Si Si5 0.386796 0.301385 0.025002
Si Si6 0.000000 0.872891 0.250000
O O1 0.500000 0.500000 0.500000
O O2 0.729204 0.469258 0.647860
O O3 0.780900 0.557047 0.484119
O O4 0.598782 0.581681 0.664001
O O5 0.187668 0.322536 0.500126
O O6 0.437881 0.273407 0.490888
O O7 0.293993 0.873651 0.786739
O O8 0.447095 0.889917 0.584590
O O9 0.147452 0.857103 0.570208
O O10 0.250000 0.250000 0.000000
O O11 0.388152 0.329671 0.162274
#
# Coordination Sequence:
#
# PCOD9306171 Si02
#       6
#     8   4   8   8   8   4
#     4  12  23  45  72 103 143 188 236 292 369 422
#     4  12  24  46  72 106 138 190 244 288 362 430
#     4  11  25  46  72 101 145 186 234 304 357 424
#     4  11  25  45  72 105 139 186 244 292 354 438
#     4  12  27  47  72 104 146 187 239 299 361 424
#     4  12  26  46  72 106 148 182 242 304 342 448
#
# _framework density 20.452964999999999
#
# number of rings (size 3 to 8) (size 9 to 14) (size 15 to 20)
#    0.000    0.400    6.000    1.800    2.800    2.400 
#    0.000    2.000    0.000    0.000    0.000    0.000 
#    0.000    0.000    0.000    0.000    0.000    0.000 
#
# Total GULP energy -111362.429739 kJ/mol
# GULP energy per Si atom -5568.121487 kJ/mol
# Density = 2.040641 g / cm^3
# Si number density = 20.452965 Si / 1000 Ang^3
#
#
#
# Elastic Constant Matrix: (Units=GPa)
#
#
# Indices 1 2 3 4 5 6 
#
# 1 105.9957 35.3219 31.2942 0.0000 -3.9794 0.0000
# 2 35.3219 123.0574 25.6486 0.0000 8.6271 0.0000
# 3 31.2942 25.6486 50.0340 0.0000 7.9460 0.0000
# 4 0.0000 0.0000 0.0000 12.2717 0.0000 5.3734
# 5 -3.9794 8.6271 7.9460 0.0000 26.2145 0.0000
# 6 0.0000 0.0000 0.0000 5.3734 0.0000 48.3211
#
#
#
# Elastic Compliance Matrix: (Units=1/GPa)
#
#
# Indices 1 2 3 4 5 6 
#
# 1 0.012626 -0.002421 -0.007445 0.000000 0.004970 0.000000
# 2 -0.002421 0.009632 -0.003006 0.000000 -0.002626 0.000000
# 3 -0.007445 -0.003006 0.027532 0.000000 -0.008486 0.000000
# 4 0.000000 0.000000 0.000000 0.085659 0.000000 -0.009525
# 5 0.004970 -0.002626 -0.008486 0.000000 0.042338 0.000000
# 6 0.000000 0.000000 0.000000 -0.009525 0.000000 0.021754
#
#
# Mechanical properties :
#
#
# Convention : Reuss Voigt Hill
#
# Bulk Modulus (GPa) = 41.58905 51.51295 46.55100
# Shear Modulus (GPa) = 21.43158 29.81628 25.62393
#
# Velocity S-wave (km/s) = 3.24056 3.82225 3.54336
# Velocity P-wave (km/s) = 5.86343 6.68732 6.28888
#
# Compressibility (1/GPa) = 0.02404479
#
# Stress axis : x y z
#
# Youngs Moduli (GPa) = 79.20329 103.82247 36.32135
#
# Poissons Ratio (x) = 0.25132 0.27042
# Poissons Ratio (y) = 0.19172 0.10920
# Poissons Ratio (z) = 0.58969 0.31214
#
# Static dielectric constant tensor:
#      x y z
#    x 1.697420 0.000000 -0.001700 
#    y 0.000000 1.710200 0.000000 
#    z -0.001700 0.000000 1.747600 
# 
# From -- ./inp_files/77825.got.cif
#   From: 2010.05.17/outbox.cif.g08.bks.cpg/sg15_39_cif.got.tgz:77825.got - 2010.06.03 18:47:42.
