data_PCOD9306160
_publ_section_title
;
Structure prediction by ZEFSAII (Michael W. Deem and Ramdas Pophale) SiO2 
 PCOD9306160
Probable space group: C 2/C
;
_chemical_formula_sum "Si O2"
_cell_formula_units_Z 44
_cell_length_a 5.304632
_cell_length_b 18.715993
_cell_length_c 18.065791
_cell_angle_alpha 90.000000
_cell_angle_beta 96.792488
_cell_angle_gamma 90.000000
_cell_volume 1781.008801
_symmetry_space_group_name_H-M "C 2/C"
_symmetry_group_IT_number 15
_symmetry_cell_setting 'monoclinic'
loop_
_space_group_symop_operation_xyz
x,y,z
-x,y,1/2-z
-x,-y,-z
x,-y,1/2+z
1/2+x,1/2+y,z
1/2-x,1/2+y,1/2-z
1/2-x,1/2-y,-z
1/2+x,1/2-y,1/2+z
loop_
_atom_site_type_symbol
_atom_site_label
_atom_site_fract_x
_atom_site_fract_y
_atom_site_fract_z
Si Si1 0.916449 0.898636 0.162221
Si Si2 0.603526 0.579989 0.521263
Si Si3 0.827665 0.738817 0.169934
Si Si4 0.406016 0.025233 0.323119
Si Si5 0.590211 0.126759 0.442407
Si Si6 0.000000 0.860169 0.750000
O O1 0.785219 0.821662 0.153195
O O2 0.734594 0.964414 0.137027
O O3 0.000000 0.908440 0.250000
O O4 0.140203 0.906022 0.110108
O O5 0.500000 0.500000 0.500000
O O6 0.359282 0.628486 0.492058
O O7 0.851941 0.602362 0.483874
O O8 0.951208 0.699893 0.103934
O O9 0.590011 0.691220 0.186917
O O10 0.000000 0.735496 0.250000
O O11 0.500000 0.992435 0.250000
O O12 0.610470 0.065425 0.379585
O O13 0.215588 0.087696 0.289292
#
# Coordination Sequence:
#
# PCOD9306160 Si02
#       6
#     8   8   8   8   8   4
#     4  11  28  48  71 110 151 192 252 314 380 442
#     4  12  28  48  76 113 148 199 248 317 370 447
#     4  11  25  45  71 112 146 200 250 311 370 449
#     4  12  24  40  76 110 138 201 252 304 368 451
#     4  12  25  48  79 102 154 194 253 304 372 446
#     4  12  20  44  70 108 146 194 258 300 362 448
#
# _framework density 24.705099000000001
#
# number of rings (size 3 to 8) (size 9 to 14) (size 15 to 20)
#    0.000    0.364    6.364    1.636    3.818    1.455 
#    3.273    0.000    0.000    0.000    0.000    0.000 
#    0.000    0.000    0.000    0.000    0.000    0.000 
#
# Total GULP energy -123226.625375 kJ/mol
# GULP energy per Si atom -5601.210244 kJ/mol
# Density = 2.464887 g / cm^3
# Si number density = 24.705099 Si / 1000 Ang^3
#
#
#
# Elastic Constant Matrix: (Units=GPa)
#
#
# Indices 1 2 3 4 5 6 
#
# 1 87.9790 10.8270 34.1474 0.0000 -19.2400 0.0000
# 2 10.8270 132.9765 18.5664 0.0000 -14.0541 0.0000
# 3 34.1474 18.5664 137.2333 0.0000 -19.3292 0.0000
# 4 0.0000 0.0000 0.0000 27.5749 0.0000 -8.7827
# 5 -19.2400 -14.0541 -19.3292 0.0000 51.5828 0.0000
# 6 0.0000 0.0000 0.0000 -8.7827 0.0000 19.1412
#
#
#
# Elastic Compliance Matrix: (Units=1/GPa)
#
#
# Indices 1 2 3 4 5 6 
#
# 1 0.013305 -0.000295 -0.002727 0.000000 0.003861 0.000000
# 2 -0.000295 0.007832 -0.000740 0.000000 0.001747 0.000000
# 3 -0.002727 -0.000740 0.008334 0.000000 0.001904 0.000000
# 4 0.000000 0.000000 0.000000 0.042472 0.000000 0.019488
# 5 0.003861 0.001747 0.001904 0.000000 0.022016 0.000000
# 6 0.000000 0.000000 0.000000 0.019488 0.000000 0.061185
#
#
# Mechanical properties :
#
#
# Convention : Reuss Voigt Hill
#
# Bulk Modulus (GPa) = 45.56377 53.91894 49.74136
# Shear Modulus (GPa) = 29.41470 39.30299 34.35885
#
# Velocity S-wave (km/s) = 3.45430 3.99292 3.73333
# Velocity P-wave (km/s) = 5.86453 6.56736 6.22587
#
# Compressibility (1/GPa) = 0.02194726
#
# Stress axis : x y z
#
# Youngs Moduli (GPa) = 75.15771 127.68015 119.99374
#
# Poissons Ratio (x) = 0.03761 0.32724
# Poissons Ratio (y) = 0.02214 0.08883
# Poissons Ratio (z) = 0.20496 0.09452
#
# Static dielectric constant tensor:
#      x y z
#    x 2.009150 0.000000 0.023830 
#    y 0.000000 1.910710 0.000000 
#    z 0.023830 0.000000 2.020500 
# 
# From -- ./inp_files/184944.got.cif
#   From: 2010.05.17/outbox.cif.g08.bks.cpg/sg15_93_cif.got.tgz:184944.got - 2010.06.03 18:47:42.
