data_PCOD9306929
_publ_section_title
;
Structure prediction by ZEFSAII (Michael W. Deem and Ramdas Pophale) SiO2 
 PCOD9306929
Probable space group: C 2/C
;
_chemical_formula_sum "Si O2"
_cell_formula_units_Z 52
_cell_length_a 11.844264
_cell_length_b 18.575779
_cell_length_c 14.299101
_cell_angle_alpha 90.000000
_cell_angle_beta 47.948617
_cell_angle_gamma 90.000000
_cell_volume 2336.072429
_symmetry_space_group_name_H-M "C 2/C"
_symmetry_group_IT_number 15
_symmetry_cell_setting 'monoclinic'
loop_
_space_group_symop_operation_xyz
x,y,z
-x,y,1/2-z
-x,-y,-z
x,-y,1/2+z
1/2+x,1/2+y,z
1/2-x,1/2+y,1/2-z
1/2-x,1/2-y,-z
1/2+x,1/2-y,1/2+z
loop_
_atom_site_type_symbol
_atom_site_label
_atom_site_fract_x
_atom_site_fract_y
_atom_site_fract_z
Si Si1 0.472645 0.522961 0.656102
Si Si2 0.972167 0.579732 0.478341
Si Si3 0.748001 0.848848 0.253621
Si Si4 0.813131 0.507394 0.405240
Si Si5 0.000000 0.375338 0.250000
Si Si6 0.819996 0.275480 0.858011
Si Si7 0.250741 0.903220 0.776191
O O1 0.500000 0.540753 0.750000
O O2 0.376207 0.589459 0.665822
O O3 0.632860 0.507725 0.519012
O O4 0.382140 0.447825 0.697920
O O5 0.871154 0.617369 0.609198
O O6 0.870950 0.568467 0.442874
O O7 0.000000 0.500000 0.500000
O O8 0.127195 0.620409 0.368395
O O9 0.634713 0.832920 0.229216
O O10 0.814020 0.785161 0.279973
O O11 0.838447 0.534484 0.286132
O O12 0.898319 0.431526 0.368778
O O13 0.721316 0.340870 0.867616
O O14 0.000000 0.297269 0.750000
O O15 0.750000 0.250000 0.000000
#
# Coordination Sequence:
#
# PCOD9306929 Si02
#       7
#     8   8   8   8   4   8   8
#     4  12  24  38  67 102 138 172 224 293 347 405
#     4  12  19  39  68  96 136 174 229 284 345 416
#     4  12  25  44  67 101 136 183 230 284 352 417
#     4  12  20  37  63 101 132 168 222 283 344 400
#     4  12  24  40  70  98 134 182 228 286 346 416
#     4  12  29  49  73 100 141 191 240 293 354 429
#     4  12  24  42  66 101 135 182 230 284 349 417
#
# _framework density 22.259584
#
# number of rings (size 3 to 8) (size 9 to 14) (size 15 to 20)
#    0.000    0.000    7.692    3.692    2.154    0.000 
#    1.385    0.000    0.000    2.769    0.000    0.000 
#    0.000    0.000    0.000    0.000    0.000    0.000 
#
# Total GULP energy -145046.248932 kJ/mol
# GULP energy per Si atom -5578.701882 kJ/mol
# Density = 2.220892 g / cm^3
# Si number density = 22.259584 Si / 1000 Ang^3
#
#
#
# Elastic Constant Matrix: (Units=GPa)
#
#
# Indices 1 2 3 4 5 6 
#
# 1 103.2404 21.6407 20.8709 0.0000 -7.6576 0.0000
# 2 21.6407 67.8064 3.5553 0.0000 -4.0095 0.0000
# 3 20.8709 3.5553 90.2900 -0.0001 -17.9130 0.0001
# 4 0.0000 0.0000 -0.0001 28.4641 0.0001 9.7734
# 5 -7.6576 -4.0095 -17.9130 0.0001 37.0960 0.0000
# 6 0.0000 0.0000 0.0001 9.7734 0.0000 40.8782
#
#
#
# Elastic Compliance Matrix: (Units=1/GPa)
#
#
# Indices 1 2 3 4 5 6 
#
# 1 0.010890 -0.003311 -0.002225 0.000000 0.000816 0.000000
# 2 -0.003311 0.015856 0.000382 0.000000 0.001215 0.000000
# 3 -0.002225 0.000382 0.012709 0.000000 0.005719 0.000000
# 4 0.000000 0.000000 0.000000 0.038274 0.000000 -0.009151
# 5 0.000816 0.001215 0.005719 0.000000 0.030018 0.000000
# 6 0.000000 0.000000 0.000000 -0.009151 0.000000 0.026651
#
#
# Mechanical properties :
#
#
# Convention : Reuss Voigt Hill
#
# Bulk Modulus (GPa) = 34.30756 39.27450 36.79103
# Shear Modulus (GPa) = 32.37851 35.63900 34.00876
#
# Velocity S-wave (km/s) = 3.81804 4.00567 3.91298
# Velocity P-wave (km/s) = 5.90615 6.25108 6.08106
#
# Compressibility (1/GPa) = 0.02914810
#
# Stress axis : x y z
#
# Youngs Moduli (GPa) = 91.82335 63.06625 78.68210
#
# Poissons Ratio (x) = 0.20880 0.17508
# Poissons Ratio (y) = 0.30401 -0.03005
# Poissons Ratio (z) = 0.20432 -0.02409
#
# Static dielectric constant tensor:
#      x y z
#    x 1.861490 0.000000 -0.004850 
#    y 0.000000 2.425960 0.000000 
#    z -0.004850 0.000000 1.871050 
# 
# From -- ./inp_files/147073.got.cif
#   From: 2010.05.17/outbox.cif.g08.bks.cpg/sg15_74_cif.got.tgz:147073.got - 2010.06.03 18:47:42.
