data_PCOD9306967
_publ_section_title
;
Structure prediction by ZEFSAII (Michael W. Deem and Ramdas Pophale) SiO2 
 PCOD9306967
Probable space group: C 2/C
;
_chemical_formula_sum "Si O2"
_cell_formula_units_Z 48
_cell_length_a 29.322121
_cell_length_b 4.817894
_cell_length_c 21.843628
_cell_angle_alpha 90.000000
_cell_angle_beta 135.159581
_cell_angle_gamma 90.000000
_cell_volume 2175.952537
_symmetry_space_group_name_H-M "C 2/C"
_symmetry_group_IT_number 15
_symmetry_cell_setting 'monoclinic'
loop_
_space_group_symop_operation_xyz
x,y,z
-x,y,1/2-z
-x,-y,-z
x,-y,1/2+z
1/2+x,1/2+y,z
1/2-x,1/2+y,1/2-z
1/2-x,1/2-y,-z
1/2+x,1/2-y,1/2+z
loop_
_atom_site_type_symbol
_atom_site_label
_atom_site_fract_x
_atom_site_fract_y
_atom_site_fract_z
Si Si1 0.060293 0.189862 0.038996
Si Si2 0.742107 0.119053 0.198712
Si Si3 0.076747 0.838880 0.249169
Si Si4 0.949157 0.562914 0.157529
Si Si5 0.395496 0.823325 0.988737
Si Si6 0.869412 0.664863 0.767581
O O1 0.098442 0.990736 0.028060
O O2 0.099807 0.259502 0.137764
O O3 0.052367 0.483245 0.997510
O O4 0.000000 0.000000 0.000000
O O5 0.766388 0.837474 0.253631
O O6 0.674635 0.075652 0.100242
O O7 0.794994 0.251113 0.203897
O O8 0.091867 0.741284 0.332853
O O9 0.095266 0.147197 0.249428
O O10 0.000226 0.767939 0.171836
O O11 0.115115 0.646939 0.237466
O O12 0.000000 0.397730 0.250000
O O13 0.909983 0.380155 0.073195
#
# Coordination Sequence:
#
# PCOD9306967 Si02
#       6
#     8   8   8   8   8   8
#     4  12  24  34  64  93 126 149 204 257 317 368
#     4  12  23  41  60  89 127 169 200 249 305 369
#     4   9  22  37  63  86 119 157 199 254 298 360
#     4   8  22  43  64  86 125 160 206 249 318 353
#     4  12  22  43  59  92 121 167 201 247 312 368
#     4  12  20  39  58  91 122 154 204 248 301 357
#
# _framework density 22.059305999999999
#
# number of rings (size 3 to 8) (size 9 to 14) (size 15 to 20)
#    1.000    0.000    3.333    4.500    0.000    4.000 
#    0.000    1.667    0.000    0.000    0.000    0.000 
#    0.000    0.000    0.000    0.000    0.000    0.000 
#
# Total GULP energy -134146.481627 kJ/mol
# GULP energy per Si atom -5589.436734 kJ/mol
# Density = 2.200910 g / cm^3
# Si number density = 22.059306 Si / 1000 Ang^3
#
#
#
# Elastic Constant Matrix: (Units=GPa)
#
#
# Indices 1 2 3 4 5 6 
#
# 1 72.3220 -0.4723 12.1555 0.0012 -10.7633 -0.0005
# 2 -0.4723 83.7583 4.5839 -0.0055 -10.4295 0.0202
# 3 12.1555 4.5839 112.7358 -0.0051 -12.2873 0.0003
# 4 0.0012 -0.0055 -0.0051 16.7673 0.0041 -2.6182
# 5 -10.7633 -10.4295 -12.2873 0.0041 28.3836 0.0007
# 6 -0.0005 0.0202 0.0003 -2.6182 0.0007 24.9339
#
#
#
# Elastic Compliance Matrix: (Units=1/GPa)
#
#
# Indices 1 2 3 4 5 6 
#
# 1 0.014821 0.000822 -0.001035 -0.000003 0.005474 -0.000001
# 2 0.000822 0.012557 -0.000065 0.000001 0.004897 -0.000010
# 3 -0.001035 -0.000065 0.009382 0.000002 0.003645 0.000000
# 4 -0.000003 0.000001 0.000002 0.060634 -0.000009 0.006367
# 5 0.005474 0.004897 0.003645 -0.000009 0.040685 -0.000006
# 6 -0.000001 -0.000010 0.000000 0.006367 -0.000006 0.040775
#
#
# Mechanical properties :
#
#
# Convention : Reuss Voigt Hill
#
# Bulk Modulus (GPa) = 27.62178 33.48335 30.55257
# Shear Modulus (GPa) = 26.11261 30.85356 28.48309
#
# Velocity S-wave (km/s) = 3.44429 3.74393 3.59723
# Velocity P-wave (km/s) = 5.32600 5.82246 5.57976
#
# Compressibility (1/GPa) = 0.03620331
#
# Stress axis : x y z
#
# Youngs Moduli (GPa) = 67.47155 79.63581 106.58933
#
# Poissons Ratio (x) = -0.06545 0.11030
# Poissons Ratio (y) = -0.05545 0.00697
# Poissons Ratio (z) = 0.06982 0.00521
#
# Static dielectric constant tensor:
#      x y z
#    x 1.879650 0.000000 -0.000290 
#    y 0.000000 1.814690 0.000000 
#    z -0.000290 0.000000 1.802290 
# 
# From -- ./inp_files/256637.got.cif
#   From: 2010.05.17/outbox.cif.g08.bks.cpg/sg15_129_cif.got.tgz:256637.got - 2010.06.03 18:47:42.
