data_PCOD9306687
_publ_section_title
;
Structure prediction by ZEFSAII (Michael W. Deem and Ramdas Pophale) SiO2 
 PCOD9306687
Probable space group: C 2/C
;
_chemical_formula_sum "Si O2"
_cell_formula_units_Z 48
_cell_length_a 27.880758
_cell_length_b 6.442800
_cell_length_c 14.050600
_cell_angle_alpha 90.000000
_cell_angle_beta 122.085392
_cell_angle_gamma 90.000000
_cell_volume 2138.402515
_symmetry_space_group_name_H-M "C 2/C"
_symmetry_group_IT_number 15
_symmetry_cell_setting 'monoclinic'
loop_
_space_group_symop_operation_xyz
x,y,z
-x,y,1/2-z
-x,-y,-z
x,-y,1/2+z
1/2+x,1/2+y,z
1/2-x,1/2+y,1/2-z
1/2-x,1/2-y,-z
1/2+x,1/2-y,1/2+z
loop_
_atom_site_type_symbol
_atom_site_label
_atom_site_fract_x
_atom_site_fract_y
_atom_site_fract_z
Si Si1 0.568193 0.216132 0.568084
Si Si2 0.188300 0.320985 0.402151
Si Si3 0.821684 0.423034 0.427760
Si Si4 0.780860 0.650076 0.215405
Si Si5 0.471308 0.119724 0.319927
Si Si6 0.878554 0.949805 0.249226
O O1 0.620422 0.116024 0.566151
O O2 0.517007 0.223235 0.439551
O O3 0.588563 0.434423 0.631108
O O4 0.551968 0.072709 0.641897
O O5 0.250000 0.250000 0.500000
O O6 0.167398 0.487978 0.456893
O O7 0.197926 0.443605 0.314707
O O8 0.146291 0.128510 0.345110
O O9 0.786253 0.596172 0.331608
O O10 0.781000 0.222077 0.383302
O O11 0.824649 0.828792 0.233640
O O12 0.500000 0.060008 0.250000
O O13 0.421469 0.285225 0.249262
#
# Coordination Sequence:
#
# PCOD9306687 Si02
#       6
#     8   8   8   8   8   8
#     4  11  26  48  73 106 143 188 250 302 360 432
#     4  12  26  44  69 112 146 193 239 289 359 446
#     4  12  24  43  76 101 150 193 234 301 367 428
#     4  12  25  47  68 110 147 191 240 295 364 443
#     4  11  27  49  76 103 141 194 248 308 358 426
#     4  12  24  48  70 103 153 182 247 296 366 437
#
# _framework density 22.446660999999999
#
# number of rings (size 3 to 8) (size 9 to 14) (size 15 to 20)
#    0.000    0.333    5.000    3.000    4.667    2.000 
#    3.000    0.000    0.000    0.000    0.000    0.000 
#    0.000    0.000    0.000    0.000    0.000    0.000 
#
# Total GULP energy -134438.441794 kJ/mol
# GULP energy per Si atom -5601.601741 kJ/mol
# Density = 2.239557 g / cm^3
# Si number density = 22.446661 Si / 1000 Ang^3
#
#
#
# Elastic Constant Matrix: (Units=GPa)
#
#
# Indices 1 2 3 4 5 6 
#
# 1 134.1195 35.2636 39.6088 0.0000 -0.6404 0.0000
# 2 35.2636 56.2535 30.9539 0.0000 9.4263 0.0000
# 3 39.6088 30.9539 94.1940 0.0000 8.2145 0.0000
# 4 0.0000 0.0000 0.0000 33.9096 0.0000 8.4029
# 5 -0.6404 9.4263 8.2145 0.0000 38.3484 0.0000
# 6 0.0000 0.0000 0.0000 8.4029 0.0000 28.3888
#
#
#
# Elastic Compliance Matrix: (Units=1/GPa)
#
#
# Indices 1 2 3 4 5 6 
#
# 1 0.009501 -0.004865 -0.002563 0.000000 0.001903 0.000000
# 2 -0.004865 0.024773 -0.005663 0.000000 -0.004958 0.000000
# 3 -0.002563 -0.005663 0.013693 0.000000 -0.001584 0.000000
# 4 0.000000 0.000000 0.000000 0.031824 0.000000 -0.009420
# 5 0.001903 -0.004958 -0.001584 0.000000 0.027666 0.000000
# 6 0.000000 0.000000 0.000000 -0.009420 0.000000 0.038013
#
#
# Mechanical properties :
#
#
# Convention : Reuss Voigt Hill
#
# Bulk Modulus (GPa) = 45.89966 55.13550 50.51758
# Shear Modulus (GPa) = 27.94642 32.04540 29.99591
#
# Velocity S-wave (km/s) = 3.53230 3.78249 3.65954
# Velocity P-wave (km/s) = 6.09335 6.61003 6.35694
#
# Compressibility (1/GPa) = 0.02178665
#
# Stress axis : x y z
#
# Youngs Moduli (GPa) = 105.25226 40.36649 73.03008
#
# Poissons Ratio (x) = 0.19637 0.18714
# Poissons Ratio (y) = 0.51203 0.41356
# Poissons Ratio (z) = 0.26971 0.22859
#
# Static dielectric constant tensor:
#      x y z
#    x 1.816170 0.000000 0.033000 
#    y 0.000000 1.825340 0.000000 
#    z 0.033000 0.000000 1.847530 
# 
# From -- ./inp_files/180196.got.cif
#   From: 2010.05.17/outbox.cif.g08.bks.cpg/sg15_91_cif.got.tgz:180196.got - 2010.06.03 18:47:42.
