data_PCOD9306390
_publ_section_title
;
Structure prediction by ZEFSAII (Michael W. Deem and Ramdas Pophale) SiO2 
 PCOD9306390
Probable space group: C 2/C
;
_chemical_formula_sum "Si O2"
_cell_formula_units_Z 40
_cell_length_a 11.384421
_cell_length_b 13.626357
_cell_length_c 9.231803
_cell_angle_alpha 90.000000
_cell_angle_beta 93.047106
_cell_angle_gamma 90.000000
_cell_volume 1430.088076
_symmetry_space_group_name_H-M "C 2/C"
_symmetry_group_IT_number 15
_symmetry_cell_setting 'monoclinic'
loop_
_space_group_symop_operation_xyz
x,y,z
-x,y,1/2-z
-x,-y,-z
x,-y,1/2+z
1/2+x,1/2+y,z
1/2-x,1/2+y,1/2-z
1/2-x,1/2-y,-z
1/2+x,1/2-y,1/2+z
loop_
_atom_site_type_symbol
_atom_site_label
_atom_site_fract_x
_atom_site_fract_y
_atom_site_fract_z
Si Si1 0.409914 0.468125 0.370871
Si Si2 0.696489 0.068909 0.229247
Si Si3 0.093914 0.427424 0.435557
Si Si4 0.062093 0.236926 0.107387
Si Si5 0.669621 0.286424 0.304989
O O1 0.500000 0.467455 0.250000
O O2 0.500000 0.500000 0.500000
O O3 0.683955 0.553312 0.174509
O O4 0.203603 0.434138 0.556420
O O5 0.641658 0.173579 0.263482
O O6 0.625165 0.977092 0.286413
O O7 0.350600 0.361161 0.330099
O O8 0.000000 0.500000 0.500000
O O9 0.034565 0.322070 0.427862
O O10 0.189959 0.282927 0.155957
O O11 0.000000 0.190842 0.250000
O O12 0.096264 0.192915 0.948876
#
# Coordination Sequence:
#
# PCOD9306390 Si02
#       5
#     8   8   8   8   8
#     4  12  30  54  83 119 175 230 285 353 446 518
#     4  12  28  50  79 122 163 224 291 356 420 526
#     4  12  23  42  79 118 160 207 278 355 425 488
#     4  11  25  47  83 129 167 216 286 356 436 515
#     4  11  28  51  85 123 176 224 288 357 436 529
#
# _framework density 27.970303999999999
#
# number of rings (size 3 to 8) (size 9 to 14) (size 15 to 20)
#    0.000    0.400    2.000    5.400   11.200    0.800 
#    3.600    5.000    0.000    0.000    0.000    0.000 
#    0.000    0.000    0.000    0.000    0.000    0.000 
#
# Total GULP energy -111779.764886 kJ/mol
# GULP energy per Si atom -5588.988244 kJ/mol
# Density = 2.790664 g / cm^3
# Si number density = 27.970304 Si / 1000 Ang^3
#
#
#
# Elastic Constant Matrix: (Units=GPa)
#
#
# Indices 1 2 3 4 5 6 
#
# 1 185.7100 48.2843 56.9941 0.0000 44.4616 0.0000
# 2 48.2843 171.5521 64.8742 0.0000 14.0559 0.0000
# 3 56.9941 64.8742 206.0678 0.0000 11.3856 0.0000
# 4 0.0000 0.0000 0.0000 50.3343 0.0000 -1.2609
# 5 44.4616 14.0559 11.3856 0.0000 61.8057 0.0000
# 6 0.0000 0.0000 0.0000 -1.2609 0.0000 42.2230
#
#
#
# Elastic Compliance Matrix: (Units=1/GPa)
#
#
# Indices 1 2 3 4 5 6 
#
# 1 0.007224 -0.001126 -0.001385 0.000000 -0.004686 0.000000
# 2 -0.001126 0.006872 -0.001829 0.000000 -0.000416 0.000000
# 3 -0.001385 -0.001829 0.005793 0.000000 0.000345 0.000000
# 4 0.000000 0.000000 0.000000 0.019882 0.000000 0.000594
# 5 -0.004686 -0.000416 0.000345 0.000000 0.019582 0.000000
# 6 0.000000 0.000000 0.000000 0.000594 0.000000 0.023701
#
#
# Mechanical properties :
#
#
# Convention : Reuss Voigt Hill
#
# Bulk Modulus (GPa) = 89.21015 100.40388 94.80701
# Shear Modulus (GPa) = 52.37290 57.08445 54.72868
#
# Velocity S-wave (km/s) = 4.33187 4.52253 4.42823
# Velocity P-wave (km/s) = 7.54877 7.95271 7.75337
#
# Compressibility (1/GPa) = 0.01120949
#
# Stress axis : x y z
#
# Youngs Moduli (GPa) = 138.42224 145.52407 172.63651
#
# Poissons Ratio (x) = 0.16382 0.23906
# Poissons Ratio (y) = 0.15582 0.31575
# Poissons Ratio (z) = 0.19169 0.26617
#
# Static dielectric constant tensor:
#      x y z
#    x 2.197730 0.000000 0.024760 
#    y 0.000000 2.309630 0.000000 
#    z 0.024760 0.000000 2.140240 
# 
# From -- ./inp_files/104744.got.cif
#   From: 2010.05.17/outbox.cif.g08.bks.cpg/sg15_53_cif.got.tgz:104744.got - 2010.06.03 18:47:42.
