data_PCOD9306609
_publ_section_title
;
Structure prediction by ZEFSAII (Michael W. Deem and Ramdas Pophale) SiO2 
 PCOD9306609
Probable space group: C 2/C
;
_chemical_formula_sum "Si O2"
_cell_formula_units_Z 40
_cell_length_a 8.152605
_cell_length_b 10.671345
_cell_length_c 19.428340
_cell_angle_alpha 90.000000
_cell_angle_beta 104.715397
_cell_angle_gamma 90.000000
_cell_volume 1634.810174
_symmetry_space_group_name_H-M "C 2/C"
_symmetry_group_IT_number 15
_symmetry_cell_setting 'monoclinic'
loop_
_space_group_symop_operation_xyz
x,y,z
-x,y,1/2-z
-x,-y,-z
x,-y,1/2+z
1/2+x,1/2+y,z
1/2-x,1/2+y,1/2-z
1/2-x,1/2-y,-z
1/2+x,1/2-y,1/2+z
loop_
_atom_site_type_symbol
_atom_site_label
_atom_site_fract_x
_atom_site_fract_y
_atom_site_fract_z
Si Si1 0.665687 0.454253 0.088972
Si Si2 0.836259 0.882295 0.556777
Si Si3 0.983015 0.569790 0.384840
Si Si4 0.634381 0.697361 0.718468
Si Si5 0.554483 0.794378 0.177265
O O1 0.473395 0.503233 0.074591
O O2 0.707673 0.393636 0.167263
O O3 0.813236 0.553483 0.083202
O O4 0.668665 0.356978 0.025539
O O5 0.650348 0.915668 0.566235
O O6 0.936660 0.782459 0.613930
O O7 0.940479 0.686423 0.331609
O O8 0.935608 0.437731 0.344760
O O9 0.500000 0.622067 0.750000
O O10 0.755108 0.752364 0.791056
O O11 0.500000 0.780009 0.250000
#
# Coordination Sequence:
#
# PCOD9306609 Si02
#       5
#     8   8   8   8   8
#     4  11  26  47  70 106 144 191 246 295 366 435
#     4  11  26  46  72 103 148 190 237 307 361 429
#     4  12  24  45  74 104 140 190 247 295 365 434
#     4  12  26  45  73 105 145 193 244 307 362 433
#     4  12  24  45  68 105 143 186 239 300 358 427
#
# _framework density 24.467673999999999
#
# number of rings (size 3 to 8) (size 9 to 14) (size 15 to 20)
#    0.000    0.400    4.000    3.600    2.800    5.600 
#    0.000    5.000    0.000    0.000    0.000    0.000 
#    0.000    0.000    0.000    0.000    0.000    0.000 
#
# Total GULP energy -111676.962552 kJ/mol
# GULP energy per Si atom -5583.848128 kJ/mol
# Density = 2.441198 g / cm^3
# Si number density = 24.467674 Si / 1000 Ang^3
#
#
#
# Elastic Constant Matrix: (Units=GPa)
#
#
# Indices 1 2 3 4 5 6 
#
# 1 153.6024 28.7527 63.4761 0.0000 -29.0647 0.0000
# 2 28.7527 46.3100 20.3561 0.0000 -15.0280 0.0000
# 3 63.4761 20.3561 127.3893 0.0000 -0.4681 0.0000
# 4 0.0000 0.0000 0.0000 40.6954 0.0000 -3.9948
# 5 -29.0647 -15.0280 -0.4681 0.0000 38.4694 0.0000
# 6 0.0000 0.0000 0.0000 -3.9948 0.0000 32.5670
#
#
#
# Elastic Compliance Matrix: (Units=1/GPa)
#
#
# Indices 1 2 3 4 5 6 
#
# 1 0.010112 -0.002010 -0.004693 0.000000 0.006798 0.000000
# 2 -0.002010 0.027249 -0.003319 0.000000 0.009086 0.000000
# 3 -0.004693 -0.003319 0.010701 0.000000 -0.004712 0.000000
# 4 0.000000 0.000000 0.000000 0.024872 0.000000 0.003051
# 5 0.006798 0.009086 -0.004712 0.000000 0.034623 0.000000
# 6 0.000000 0.000000 0.000000 0.003051 0.000000 0.031080
#
#
# Mechanical properties :
#
#
# Convention : Reuss Voigt Hill
#
# Bulk Modulus (GPa) = 35.69022 61.38574 48.53798
# Shear Modulus (GPa) = 29.75834 36.66081 33.20957
#
# Velocity S-wave (km/s) = 3.49123 3.87503 3.68813
# Velocity P-wave (km/s) = 5.55607 6.72043 6.16580
#
# Compressibility (1/GPa) = 0.02801888
#
# Stress axis : x y z
#
# Youngs Moduli (GPa) = 98.89297 36.69864 93.44691
#
# Poissons Ratio (x) = 0.07375 0.43850
# Poissons Ratio (y) = 0.19875 0.31019
# Poissons Ratio (z) = 0.46406 0.12182
#
# Static dielectric constant tensor:
#      x y z
#    x 2.426230 0.000000 0.085800 
#    y 0.000000 1.934560 0.000000 
#    z 0.085800 0.000000 1.907470 
# 
# From -- ./inp_files/187955.got.cif
#   From: 2010.05.17/outbox.cif.g08.bks.cpg/sg15_94_cif.got.tgz:187955.got - 2010.06.03 18:47:42.
