data_PCOD9306348
_publ_section_title
;
Structure prediction by ZEFSAII (Michael W. Deem and Ramdas Pophale) SiO2 
 PCOD9306348
Probable space group: C 2/C
;
_chemical_formula_sum "Si O2"
_cell_formula_units_Z 44
_cell_length_a 6.813889
_cell_length_b 21.835033
_cell_length_c 14.467902
_cell_angle_alpha 90.000000
_cell_angle_beta 76.989182
_cell_angle_gamma 90.000000
_cell_volume 2097.294699
_symmetry_space_group_name_H-M "C 2/C"
_symmetry_group_IT_number 15
_symmetry_cell_setting 'monoclinic'
loop_
_space_group_symop_operation_xyz
x,y,z
-x,y,1/2-z
-x,-y,-z
x,-y,1/2+z
1/2+x,1/2+y,z
1/2-x,1/2+y,1/2-z
1/2-x,1/2-y,-z
1/2+x,1/2-y,1/2+z
loop_
_atom_site_type_symbol
_atom_site_label
_atom_site_fract_x
_atom_site_fract_y
_atom_site_fract_z
Si Si1 0.845613 0.075876 0.846104
Si Si2 0.709934 0.559902 0.173667
Si Si3 0.991384 0.665701 0.860020
Si Si4 0.500000 0.847490 0.750000
Si Si5 0.821573 0.784120 0.585207
Si Si6 0.902199 0.893801 0.011527
O O1 0.674182 0.125625 0.882025
O O2 0.000000 0.097368 0.750000
O O3 0.746466 0.012516 0.821965
O O4 0.980245 0.067307 0.923554
O O5 0.500000 0.570112 0.250000
O O6 0.682133 0.571092 0.067970
O O7 0.868299 0.607159 0.199627
O O8 0.000000 0.656183 0.750000
O O9 0.033246 0.736213 0.878685
O O10 0.781352 0.641843 0.921156
O O11 0.640442 0.805023 0.671028
O O12 0.750000 0.750000 0.500000
O O13 0.942182 0.844313 0.544391
#
# Coordination Sequence:
#
# PCOD9306348 Si02
#       6
#     8   8   8   4   8   8
#     4  11  25  47  72 105 142 182 241 297 352 426
#     4  11  26  47  73 103 145 186 238 294 355 424
#     4  12  27  43  72 104 140 186 230 292 360 416
#     4  12  28  48  74 104 148 190 238 294 358 420
#     4  12  27  46  72 102 143 185 238 291 348 427
#     4  12  25  48  71 108 139 186 239 289 360 423
#
# _framework density 20.979407999999999
#
# number of rings (size 3 to 8) (size 9 to 14) (size 15 to 20)
#    0.000    0.364    5.455    2.182    7.636    0.727 
#    0.000    0.000    0.000    0.000    0.000    0.000 
#    0.000    0.000    0.000    0.000    0.000    0.000 
#
# Total GULP energy -123113.840196 kJ/mol
# GULP energy per Si atom -5596.083645 kJ/mol
# Density = 2.093166 g / cm^3
# Si number density = 20.979408 Si / 1000 Ang^3
#
#
#
# Elastic Constant Matrix: (Units=GPa)
#
#
# Indices 1 2 3 4 5 6 
#
# 1 43.8413 15.4520 36.5681 0.0000 3.7466 0.0000
# 2 15.4520 65.3786 13.6145 0.0000 -9.3104 0.0000
# 3 36.5681 13.6145 120.6802 0.0000 -10.8211 0.0000
# 4 0.0000 0.0000 0.0000 33.8294 0.0000 14.0726
# 5 3.7466 -9.3104 -10.8211 0.0000 47.4315 0.0000
# 6 0.0000 0.0000 0.0000 14.0726 0.0000 28.1903
#
#
#
# Elastic Compliance Matrix: (Units=1/GPa)
#
#
# Indices 1 2 3 4 5 6 
#
# 1 0.034275 -0.006890 -0.010181 0.000000 -0.006383 0.000000
# 2 -0.006890 0.017402 0.000490 0.000000 0.004072 0.000000
# 3 -0.010181 0.000490 0.011635 0.000000 0.003555 0.000000
# 4 0.000000 0.000000 0.000000 0.037307 0.000000 -0.018624
# 5 -0.006383 0.004072 0.003555 0.000000 0.023197 0.000000
# 6 0.000000 0.000000 0.000000 -0.018624 0.000000 0.044770
#
#
# Mechanical properties :
#
#
# Convention : Reuss Voigt Hill
#
# Bulk Modulus (GPa) = 33.16775 40.12995 36.64885
# Shear Modulus (GPa) = 23.60726 32.84127 28.22426
#
# Velocity S-wave (km/s) = 3.35813 3.96081 3.67186
# Velocity P-wave (km/s) = 5.55698 6.33144 5.95681
#
# Compressibility (1/GPa) = 0.03014977
#
# Stress axis : x y z
#
# Youngs Moduli (GPa) = 29.17549 57.46547 85.94834
#
# Poissons Ratio (x) = 0.39592 0.87504
# Poissons Ratio (y) = 0.20101 -0.04208
# Poissons Ratio (z) = 0.29704 -0.02814
#
# Static dielectric constant tensor:
#      x y z
#    x 1.757390 0.000000 0.070810 
#    y 0.000000 1.725830 0.000000 
#    z 0.070810 0.000000 1.833360 
# 
# From -- ./inp_files/129330.got.cif
#   From: 2010.05.17/outbox.cif.g08.bks.cpg/sg15_65_cif.got.tgz:129330.got - 2010.06.03 18:47:42.
