data_PCOD9306911
_publ_section_title
;
Structure prediction by ZEFSAII (Michael W. Deem and Ramdas Pophale) SiO2 
 PCOD9306911
Probable space group: C 2/C
;
_chemical_formula_sum "Si O2"
_cell_formula_units_Z 52
_cell_length_a 27.176326
_cell_length_b 19.313945
_cell_length_c 13.811850
_cell_angle_alpha 90.000000
_cell_angle_beta 159.310372
_cell_angle_gamma 90.000000
_cell_volume 2561.320844
_symmetry_space_group_name_H-M "C 2/C"
_symmetry_group_IT_number 15
_symmetry_cell_setting 'monoclinic'
loop_
_space_group_symop_operation_xyz
x,y,z
-x,y,1/2-z
-x,-y,-z
x,-y,1/2+z
1/2+x,1/2+y,z
1/2-x,1/2+y,1/2-z
1/2-x,1/2-y,-z
1/2+x,1/2-y,1/2+z
loop_
_atom_site_type_symbol
_atom_site_label
_atom_site_fract_x
_atom_site_fract_y
_atom_site_fract_z
Si Si1 0.574886 0.628014 0.983361
Si Si2 0.970510 0.421437 0.985291
Si Si3 0.671638 0.571059 0.857528
Si Si4 0.251188 0.668831 0.018619
Si Si5 0.878251 0.068671 0.109312
Si Si6 0.224417 0.017321 0.752831
Si Si7 0.000000 0.451371 0.250000
O O1 0.500000 0.658757 0.750000
O O2 0.446581 0.620406 0.820383
O O3 0.699065 0.657844 0.278346
O O4 0.635321 0.551895 0.066555
O O5 0.106569 0.372070 0.229111
O O6 0.936380 0.416401 0.037947
O O7 0.826272 0.402684 0.666509
O O8 0.000000 0.500000 0.000000
O O9 0.640738 0.498052 0.855890
O O10 0.654878 0.557238 0.713150
O O11 0.359995 0.633849 0.144119
O O12 0.250000 0.750000 0.000000
O O13 0.000000 0.069927 0.250000
O O14 0.751490 0.060326 0.799753
O O15 0.374449 0.993974 0.065314
#
# Coordination Sequence:
#
# PCOD9306911 Si02
#       7
#     8   8   8   8   8   8   4
#     4  12  21  40  67  99 128 170 223 285 342 407
#     4  12  21  40  66  98 130 171 221 285 340 394
#     4  12  21  35  66 106 132 159 219 297 345 385
#     4  12  28  49  64  92 146 192 226 276 356 432
#     4  12  21  38  66  98 134 167 223 281 353 401
#     4  12  20  32  61 104 135 159 213 293 348 391
#     4  12  18  30  56  94 126 152 208 264 332 390
#
# _framework density 20.302025
#
# number of rings (size 3 to 8) (size 9 to 14) (size 15 to 20)
#    0.000    0.000   10.769    1.385    0.000    0.000 
#    1.385    2.308    0.000    0.000    0.000    0.000 
#    0.000    0.000    0.000    0.000    0.000    0.000 
#
# Total GULP energy -144866.047961 kJ/mol
# GULP energy per Si atom -5571.771075 kJ/mol
# Density = 2.025582 g / cm^3
# Si number density = 20.302025 Si / 1000 Ang^3
#
#
#
# Elastic Constant Matrix: (Units=GPa)
#
#
# Indices 1 2 3 4 5 6 
#
# 1 115.3073 31.9606 15.3364 0.0000 -24.2905 0.0000
# 2 31.9606 83.9766 37.9907 0.0000 -9.7869 0.0000
# 3 15.3364 37.9907 115.5553 0.0000 -4.7388 0.0000
# 4 0.0000 0.0000 0.0000 11.7099 0.0000 -0.8448
# 5 -24.2905 -9.7869 -4.7388 0.0000 54.7020 0.0000
# 6 0.0000 0.0000 0.0000 -0.8448 0.0000 14.0298
#
#
#
# Elastic Compliance Matrix: (Units=1/GPa)
#
#
# Indices 1 2 3 4 5 6 
#
# 1 0.010500 -0.003490 -0.000081 0.000000 0.004031 0.000000
# 2 -0.003490 0.015396 -0.004565 0.000000 0.000809 0.000000
# 3 -0.000081 -0.004565 0.010167 0.000000 0.000028 0.000000
# 4 0.000000 0.000000 0.000000 0.085771 0.000000 0.005165
# 5 0.004031 0.000809 0.000028 0.000000 0.020218 0.000000
# 6 0.000000 0.000000 0.000000 0.005165 0.000000 0.071588
#
#
# Mechanical properties :
#
#
# Convention : Reuss Voigt Hill
#
# Bulk Modulus (GPa) = 50.52945 53.93496 52.23221
# Shear Modulus (GPa) = 21.14097 31.39175 26.26636
#
# Velocity S-wave (km/s) = 3.23045 3.93649 3.60082
# Velocity P-wave (km/s) = 6.23357 6.87643 6.56287
#
# Compressibility (1/GPa) = 0.01979044
#
# Stress axis : x y z
#
# Youngs Moduli (GPa) = 95.24102 64.95246 98.36060
#
# Poissons Ratio (x) = 0.22666 0.00796
# Poissons Ratio (y) = 0.33236 0.44905
# Poissons Ratio (z) = 0.00771 0.29653
#
# Static dielectric constant tensor:
#      x y z
#    x 1.767290 0.000000 0.018470 
#    y 0.000000 1.693110 0.000000 
#    z 0.018470 0.000000 1.899110 
# 
# From -- ./inp_files/182916.got.cif
#   From: 2010.05.17/outbox.cif.g08.bks.cpg/sg15_92_cif.got.tgz:182916.got - 2010.06.03 18:47:42.
