data_PCOD9306453
_publ_section_title
;
Structure prediction by ZEFSAII (Michael W. Deem and Ramdas Pophale) SiO2 
 PCOD9306453
Probable space group: C 2/C
;
_chemical_formula_sum "Si O2"
_cell_formula_units_Z 40
_cell_length_a 9.953922
_cell_length_b 21.283720
_cell_length_c 8.091937
_cell_angle_alpha 90.000000
_cell_angle_beta 101.927180
_cell_angle_gamma 90.000000
_cell_volume 1677.318799
_symmetry_space_group_name_H-M "C 2/C"
_symmetry_group_IT_number 15
_symmetry_cell_setting 'monoclinic'
loop_
_space_group_symop_operation_xyz
x,y,z
-x,y,1/2-z
-x,-y,-z
x,-y,1/2+z
1/2+x,1/2+y,z
1/2-x,1/2+y,1/2-z
1/2-x,1/2-y,-z
1/2+x,1/2-y,1/2+z
loop_
_atom_site_type_symbol
_atom_site_label
_atom_site_fract_x
_atom_site_fract_y
_atom_site_fract_z
Si Si1 0.003986 0.664998 0.440117
Si Si2 0.748846 0.906744 0.132708
Si Si3 0.073530 0.805980 0.505403
Si Si4 0.154447 0.024808 0.513329
Si Si5 0.808540 0.847944 0.617260
O O1 0.099779 0.623461 0.580609
O O2 0.000000 0.640597 0.250000
O O3 0.071695 0.734035 0.451202
O O4 0.848296 0.666706 0.463294
O O5 0.757806 0.963967 0.006074
O O6 0.857591 0.853439 0.105407
O O7 0.791442 0.937739 0.314937
O O8 0.917098 0.822905 0.511727
O O9 0.845608 0.817075 0.802069
O O10 0.165008 0.076998 0.371279
O O11 0.000000 0.000000 0.500000
#
# Coordination Sequence:
#
# PCOD9306453 Si02
#       5
#     8   8   8   8   8
#     4  12  28  48  75 113 156 195 249 310 387 445
#     4  12  27  49  78 109 151 197 252 312 378 444
#     4  11  25  48  78 110 149 199 251 305 371 453
#     4  12  27  48  81 109 148 196 258 308 372 452
#     4  11  26  48  76 109 152 190 253 310 369 443
#
# _framework density 23.847583
#
# number of rings (size 3 to 8) (size 9 to 14) (size 15 to 20)
#    0.000    0.400    4.000    3.000    5.600    4.800 
#    0.000    0.000    0.000    0.000    0.000    0.000 
#    0.000    0.000    0.000    0.000    0.000    0.000 
#
# Total GULP energy -112185.032450 kJ/mol
# GULP energy per Si atom -5609.251622 kJ/mol
# Density = 2.379330 g / cm^3
# Si number density = 23.847583 Si / 1000 Ang^3
#
#
#
# Elastic Constant Matrix: (Units=GPa)
#
#
# Indices 1 2 3 4 5 6 
#
# 1 151.3743 34.5271 54.5514 0.0000 32.6651 0.0000
# 2 34.5271 119.9053 34.4532 0.0000 23.5161 0.0000
# 3 54.5514 34.4532 133.4543 0.0000 24.1184 0.0000
# 4 0.0000 0.0000 0.0000 43.8692 0.0000 1.1770
# 5 32.6651 23.5161 24.1184 0.0000 27.7557 0.0000
# 6 0.0000 0.0000 0.0000 1.1770 0.0000 31.7882
#
#
#
# Elastic Compliance Matrix: (Units=1/GPa)
#
#
# Indices 1 2 3 4 5 6 
#
# 1 0.009371 -0.000343 -0.002137 0.000000 -0.008881 0.000000
# 2 -0.000343 0.010192 -0.001190 0.000000 -0.007198 0.000000
# 3 -0.002137 -0.001190 0.009535 0.000000 -0.004762 0.000000
# 4 0.000000 0.000000 0.000000 0.022818 0.000000 -0.000845
# 5 -0.008881 -0.007198 -0.004762 0.000000 0.056717 0.000000
# 6 0.000000 0.000000 0.000000 -0.000845 0.000000 0.031490
#
#
# Mechanical properties :
#
#
# Convention : Reuss Voigt Hill
#
# Bulk Modulus (GPa) = 45.96061 72.42191 59.19126
# Shear Modulus (GPa) = 32.31768 39.42944 35.87356
#
# Velocity S-wave (km/s) = 3.68527 4.07061 3.88272
# Velocity P-wave (km/s) = 6.11741 7.24760 6.70636
#
# Compressibility (1/GPa) = 0.02175776
#
# Stress axis : x y z
#
# Youngs Moduli (GPa) = 106.71374 98.11365 104.88137
#
# Poissons Ratio (x) = 0.03361 0.22413
# Poissons Ratio (y) = 0.03655 0.12485
# Poissons Ratio (z) = 0.22805 0.11680
#
# Static dielectric constant tensor:
#      x y z
#    x 1.891370 0.000000 0.008980 
#    y 0.000000 1.890110 0.000000 
#    z 0.008980 0.000000 2.004620 
# 
# From -- ./inp_files/77808.got.cif
#   From: 2010.05.17/outbox.cif.g08.bks.cpg/sg15_39_cif.got.tgz:77808.got - 2010.06.03 18:47:42.
