data_PCOD9306230
_publ_section_title
;
Structure prediction by ZEFSAII (Michael W. Deem and Ramdas Pophale) SiO2 
 PCOD9306230
Probable space group: C 2/C
;
_chemical_formula_sum "Si O2"
_cell_formula_units_Z 40
_cell_length_a 24.659942
_cell_length_b 11.399159
_cell_length_c 11.230039
_cell_angle_alpha 90.000000
_cell_angle_beta 28.379778
_cell_angle_gamma 90.000000
_cell_volume 1500.467086
_symmetry_space_group_name_H-M "C 2/C"
_symmetry_group_IT_number 15
_symmetry_cell_setting 'monoclinic'
loop_
_space_group_symop_operation_xyz
x,y,z
-x,y,1/2-z
-x,-y,-z
x,-y,1/2+z
1/2+x,1/2+y,z
1/2-x,1/2+y,1/2-z
1/2-x,1/2-y,-z
1/2+x,1/2-y,1/2+z
loop_
_atom_site_type_symbol
_atom_site_label
_atom_site_fract_x
_atom_site_fract_y
_atom_site_fract_z
Si Si1 0.278297 0.662101 0.791033
Si Si2 0.396026 0.677424 0.811510
Si Si3 0.429926 0.982526 0.262640
Si Si4 0.389957 0.206663 0.678717
Si Si5 0.338183 0.588686 0.437791
O O1 0.351920 0.696175 0.762721
O O2 0.362492 0.629270 0.524118
O O3 0.200960 0.775529 0.912659
O O4 0.186166 0.560155 0.004997
O O5 0.502130 0.765936 0.612314
O O6 0.395557 0.538256 0.821399
O O7 0.500000 0.992701 0.250000
O O8 0.401945 0.847318 0.288632
O O9 0.500000 0.000000 0.000000
O O10 0.299758 0.117385 0.793453
O O11 0.362524 0.340105 0.770465
#
# Coordination Sequence:
#
# PCOD9306230 Si02
#       5
#     8   8   8   8   8
#     4  11  26  42  71 104 142 189 245 312 378 449
#     4  11  25  46  68 104 145 183 252 311 374 450
#     4  12  25  44  75 105 145 194 258 313 376 457
#     4  11  25  46  70 106 142 197 247 309 378 457
#     4  11  26  45  71 102 146 196 245 310 381 455
#
# _framework density 26.658366000000001
#
# number of rings (size 3 to 8) (size 9 to 14) (size 15 to 20)
#    0.000    0.800    4.000    1.800    5.600    0.000 
#    0.000    2.000    0.000    0.000    0.000    0.000 
#    0.000    0.000    0.000    0.000    0.000    0.000 
#
# Total GULP energy -111522.228097 kJ/mol
# GULP energy per Si atom -5576.111405 kJ/mol
# Density = 2.659769 g / cm^3
# Si number density = 26.658366 Si / 1000 Ang^3
#
#
#
# Elastic Constant Matrix: (Units=GPa)
#
#
# Indices 1 2 3 4 5 6 
#
# 1 108.7148 4.4905 25.4415 0.0000 5.3285 0.0000
# 2 4.4905 94.8081 14.1825 0.0000 3.3897 0.0000
# 3 25.4415 14.1825 91.1760 0.0000 13.3119 0.0000
# 4 0.0000 0.0000 0.0000 38.8442 0.0000 10.2024
# 5 5.3285 3.3897 13.3119 0.0000 29.7798 0.0000
# 6 0.0000 0.0000 0.0000 10.2024 0.0000 20.2231
#
#
#
# Elastic Compliance Matrix: (Units=1/GPa)
#
#
# Indices 1 2 3 4 5 6 
#
# 1 0.009850 -0.000049 -0.002658 0.000000 -0.000569 0.000000
# 2 -0.000049 0.010806 -0.001593 0.000000 -0.000509 0.000000
# 3 -0.002658 -0.001593 0.012690 0.000000 -0.005015 0.000000
# 4 0.000000 0.000000 0.000000 0.029676 0.000000 -0.014971
# 5 -0.000569 -0.000509 -0.005015 0.000000 0.035981 0.000000
# 6 0.000000 0.000000 0.000000 -0.014971 0.000000 0.057002
#
#
# Mechanical properties :
#
#
# Convention : Reuss Voigt Hill
#
# Bulk Modulus (GPa) = 40.40891 42.54754 41.47823
# Shear Modulus (GPa) = 28.92621 34.47504 31.70063
#
# Velocity S-wave (km/s) = 3.29761 3.60003 3.45214
# Velocity P-wave (km/s) = 5.44885 5.76847 5.61094
#
# Compressibility (1/GPa) = 0.02474702
#
# Stress axis : x y z
#
# Youngs Moduli (GPa) = 101.51979 92.53743 78.80504
#
# Poissons Ratio (x) = 0.00450 0.20946
# Poissons Ratio (y) = 0.00493 0.12554
# Poissons Ratio (z) = 0.26984 0.14742
#
# Static dielectric constant tensor:
#      x y z
#    x 2.222520 0.000000 -0.178120 
#    y 0.000000 2.390590 0.000000 
#    z -0.178120 0.000000 2.285650 
# 
# From -- ./inp_files/122773.got.cif
#   From: 2010.05.17/outbox.cif.g08.bks.cpg/sg15_62_cif.got.tgz:122773.got - 2010.06.03 18:47:42.
