data_PCOD9306478
_publ_section_title
;
Structure prediction by ZEFSAII (Michael W. Deem and Ramdas Pophale) SiO2 
 PCOD9306478
Probable space group: C 2/C
;
_chemical_formula_sum "Si O2"
_cell_formula_units_Z 40
_cell_length_a 30.274903
_cell_length_b 5.170126
_cell_length_c 14.008127
_cell_angle_alpha 90.000000
_cell_angle_beta 134.218440
_cell_angle_gamma 90.000000
_cell_volume 1571.422610
_symmetry_space_group_name_H-M "C 2/C"
_symmetry_group_IT_number 15
_symmetry_cell_setting 'monoclinic'
loop_
_space_group_symop_operation_xyz
x,y,z
-x,y,1/2-z
-x,-y,-z
x,-y,1/2+z
1/2+x,1/2+y,z
1/2-x,1/2+y,1/2-z
1/2-x,1/2-y,-z
1/2+x,1/2-y,1/2+z
loop_
_atom_site_type_symbol
_atom_site_label
_atom_site_fract_x
_atom_site_fract_y
_atom_site_fract_z
Si Si1 0.024554 0.968286 0.192089
Si Si2 0.557243 0.193841 0.574462
Si Si3 0.638070 0.843683 0.913289
Si Si4 0.183702 0.416126 0.772665
Si Si5 0.307438 0.650999 0.908253
O O1 0.064551 0.146285 0.183013
O O2 0.000000 0.100922 0.250000
O O3 0.066598 0.722970 0.284169
O O4 0.965365 0.886939 0.041323
O O5 0.500000 0.000000 0.500000
O O6 0.618902 0.043702 0.646693
O O7 0.673722 0.822110 0.865635
O O8 0.844578 0.384505 0.013508
O O9 0.660443 0.616534 0.016288
O O10 0.238970 0.620420 0.847790
O O11 0.196927 0.203203 0.711407
#
# Coordination Sequence:
#
# PCOD9306478 Si02
#       5
#     8   8   8   8   8
#     4  11  26  45  77 110 154 206 265 320 398 470
#     4  11  25  49  74 110 155 209 255 332 390 470
#     4  12  27  50  78 115 155 201 262 326 386 471
#     4  12  27  53  79 113 164 199 268 324 402 462
#     4  12  29  48  81 115 152 209 258 320 394 474
#
# _framework density 25.454643000000001
#
# number of rings (size 3 to 8) (size 9 to 14) (size 15 to 20)
#    0.000    0.400    2.000    4.800    2.800    8.800 
#    0.000    0.000    0.000    0.000    0.000    0.000 
#    0.000    0.000    0.000    0.000    0.000    0.000 
#
# Total GULP energy -112287.553416 kJ/mol
# GULP energy per Si atom -5614.377671 kJ/mol
# Density = 2.539671 g / cm^3
# Si number density = 25.454643 Si / 1000 Ang^3
#
#
#
# Elastic Constant Matrix: (Units=GPa)
#
#
# Indices 1 2 3 4 5 6 
#
# 1 125.2345 15.7605 26.2439 -0.0001 -13.5942 0.0001
# 2 15.7605 105.5680 34.2273 -0.0007 -4.7287 0.0010
# 3 26.2439 34.2273 88.1451 0.0000 -3.9765 0.0001
# 4 -0.0001 -0.0007 0.0000 44.3864 0.0000 -7.6865
# 5 -13.5942 -4.7287 -3.9765 0.0000 69.8646 0.0000
# 6 0.0001 0.0010 0.0001 -7.6865 0.0000 39.7342
#
#
#
# Elastic Compliance Matrix: (Units=1/GPa)
#
#
# Indices 1 2 3 4 5 6 
#
# 1 0.008700 -0.000472 -0.002338 0.000000 0.001528 0.000000
# 2 -0.000472 0.010880 -0.004065 0.000000 0.000413 0.000000
# 3 -0.002338 -0.004065 0.013622 0.000000 0.000045 0.000000
# 4 0.000000 0.000000 0.000000 0.023310 0.000000 0.004509
# 5 0.001528 0.000413 0.000045 0.000000 0.014641 0.000000
# 6 0.000000 0.000000 0.000000 0.004509 0.000000 0.026040
#
#
# Mechanical properties :
#
#
# Convention : Reuss Voigt Hill
#
# Bulk Modulus (GPa) = 51.41372 52.37899 51.89635
# Shear Modulus (GPa) = 42.57943 46.97810 44.77876
#
# Velocity S-wave (km/s) = 4.09437 4.30066 4.19878
# Velocity P-wave (km/s) = 6.52640 6.72926 6.62861
#
# Compressibility (1/GPa) = 0.01945006
#
# Stress axis : x y z
#
# Youngs Moduli (GPa) = 114.93896 91.91458 73.41235
#
# Poissons Ratio (x) = 0.04342 0.17164
# Poissons Ratio (y) = 0.05430 0.29845
# Poissons Ratio (z) = 0.26873 0.37367
#
# Static dielectric constant tensor:
#      x y z
#    x 1.969190 0.000000 -0.011540 
#    y 0.000000 1.986200 0.000000 
#    z -0.011540 0.000000 1.997630 
# 
# From -- ./inp_files/179867.got.cif
#   From: 2010.05.17/outbox.cif.g08.bks.cpg/sg15_90_cif.got.tgz:179867.got - 2010.06.03 18:47:42.
