data_PCOD9306925
_publ_section_title
;
Structure prediction by ZEFSAII (Michael W. Deem and Ramdas Pophale) SiO2 
 PCOD9306925
Probable space group: C 2/C
;
_chemical_formula_sum "Si O2"
_cell_formula_units_Z 56
_cell_length_a 13.130960
_cell_length_b 16.560221
_cell_length_c 16.095894
_cell_angle_alpha 90.000000
_cell_angle_beta 135.813341
_cell_angle_gamma 90.000000
_cell_volume 2439.547837
_symmetry_space_group_name_H-M "C 2/C"
_symmetry_group_IT_number 15
_symmetry_cell_setting 'monoclinic'
loop_
_space_group_symop_operation_xyz
x,y,z
-x,y,1/2-z
-x,-y,-z
x,-y,1/2+z
1/2+x,1/2+y,z
1/2-x,1/2+y,1/2-z
1/2-x,1/2-y,-z
1/2+x,1/2-y,1/2+z
loop_
_atom_site_type_symbol
_atom_site_label
_atom_site_fract_x
_atom_site_fract_y
_atom_site_fract_z
Si Si1 0.500000 0.684084 0.250000
Si Si2 0.099825 0.719309 0.950062
Si Si3 0.051381 0.030194 0.939417
Si Si4 0.695713 0.812488 0.789674
Si Si5 0.000000 0.431076 0.750000
Si Si6 0.355948 0.968829 0.034803
Si Si7 0.796382 0.063755 0.203619
Si Si8 0.523753 0.279440 0.454590
O O1 0.515863 0.738989 0.178850
O O2 0.363090 0.624347 0.173155
O O3 0.092699 0.623985 0.935775
O O4 0.082285 0.757427 0.030389
O O5 0.250000 0.750000 0.000000
O O6 0.041714 0.127168 0.939410
O O7 0.925025 0.994931 0.806590
O O8 0.206722 0.992695 0.999182
O O9 0.000000 0.000000 0.000000
O O10 0.636783 0.872704 0.824679
O O11 0.753262 0.875986 0.753009
O O12 0.557518 0.765983 0.668521
O O13 0.819495 0.759434 0.908833
O O14 0.981717 0.482902 0.656450
O O15 0.323767 0.985400 0.918702
#
# Coordination Sequence:
#
# PCOD9306925 Si02
#       8
#     4   8   8   8   4   8   8   8
#     4  12  19  36  65 102 148 184 232 298 379 460
#     4  12  22  38  70 107 148 191 238 307 386 456
#     4  12  22  43  74 104 148 197 244 299 385 463
#     4  12  27  52  74 105 150 200 259 323 376 462
#     4  12  29  52  73  98 150 200 262 320 381 444
#     4  12  24  45  70 108 144 193 248 313 380 453
#     4  12  22  42  72 109 146 188 251 312 377 459
#     4  12  26  48  73 108 149 201 253 312 384 458
#
# _framework density 22.955074
#
# number of rings (size 3 to 8) (size 9 to 14) (size 15 to 20)
#    0.000    0.000    8.571    1.286    0.000    2.286 
#    7.714    0.000    0.000    0.000    0.000    0.000 
#    0.000    0.000    0.000    0.000    0.000    0.000 
#
# Total GULP energy -156201.324345 kJ/mol
# GULP energy per Si atom -5578.618727 kJ/mol
# Density = 2.290283 g / cm^3
# Si number density = 22.955074 Si / 1000 Ang^3
#
#
#
# Elastic Constant Matrix: (Units=GPa)
#
#
# Indices 1 2 3 4 5 6 
#
# 1 40.0808 34.1995 4.3051 0.0000 6.5771 0.0000
# 2 34.1995 108.8383 46.3455 0.0000 -5.7061 0.0000
# 3 4.3051 46.3455 155.5878 0.0000 -4.3996 0.0000
# 4 0.0000 0.0000 0.0000 50.0036 0.0000 -2.3688
# 5 6.5771 -5.7061 -4.3996 0.0000 29.7768 0.0000
# 6 0.0000 0.0000 0.0000 -2.3688 0.0000 23.9953
#
#
#
# Elastic Compliance Matrix: (Units=1/GPa)
#
#
# Indices 1 2 3 4 5 6 
#
# 1 0.038074 -0.013679 0.002721 0.000000 -0.010629 0.000000
# 2 -0.013679 0.015510 -0.004089 0.000000 0.005389 0.000000
# 3 0.002721 -0.004089 0.007562 0.000000 -0.000267 0.000000
# 4 0.000000 0.000000 0.000000 0.020093 0.000000 0.001984
# 5 -0.010629 0.005389 -0.000267 0.000000 0.036924 0.000000
# 6 0.000000 0.000000 0.000000 0.001984 0.000000 0.041871
#
#
# Mechanical properties :
#
#
# Convention : Reuss Voigt Hill
#
# Bulk Modulus (GPa) = 32.20561 52.68968 42.44764
# Shear Modulus (GPa) = 24.94021 35.39893 30.16957
#
# Velocity S-wave (km/s) = 3.29975 3.93121 3.62924
# Velocity P-wave (km/s) = 5.34585 6.60372 6.00780
#
# Compressibility (1/GPa) = 0.03105049
#
# Stress axis : x y z
#
# Youngs Moduli (GPa) = 26.26489 64.47409 132.23222
#
# Poissons Ratio (x) = 0.88196 -0.35976
# Poissons Ratio (y) = 0.35929 0.54072
# Poissons Ratio (z) = -0.07146 0.26364
#
# Static dielectric constant tensor:
#      x y z
#    x 1.911130 0.000000 0.064840 
#    y 0.000000 1.838190 0.000000 
#    z 0.064840 0.000000 2.067160 
# 
# From -- ./inp_files/206312.got.cif
#   From: 2010.05.17/outbox.cif.g08.bks.cpg/sg15_104_cif.got.tgz:206312.got - 2010.06.03 18:47:42.
