data_PCOD9306486
_publ_section_title
;
Structure prediction by ZEFSAII (Michael W. Deem and Ramdas Pophale) SiO2 
 PCOD9306486
Probable space group: C 2/C
;
_chemical_formula_sum "Si O2"
_cell_formula_units_Z 40
_cell_length_a 7.667849
_cell_length_b 8.990913
_cell_length_c 23.168097
_cell_angle_alpha 90.000000
_cell_angle_beta 98.905243
_cell_angle_gamma 90.000000
_cell_volume 1577.977430
_symmetry_space_group_name_H-M "C 2/C"
_symmetry_group_IT_number 15
_symmetry_cell_setting 'monoclinic'
loop_
_space_group_symop_operation_xyz
x,y,z
-x,y,1/2-z
-x,-y,-z
x,-y,1/2+z
1/2+x,1/2+y,z
1/2-x,1/2+y,1/2-z
1/2-x,1/2-y,-z
1/2+x,1/2-y,1/2+z
loop_
_atom_site_type_symbol
_atom_site_label
_atom_site_fract_x
_atom_site_fract_y
_atom_site_fract_z
Si Si1 0.860184 0.350442 0.083928
Si Si2 0.198094 0.149094 0.236296
Si Si3 0.237052 0.362593 0.133972
Si Si4 0.376869 0.367577 0.320222
Si Si5 0.168389 0.025035 0.468774
O O1 0.700884 0.370286 0.120224
O O2 0.870709 0.172807 0.071807
O O3 0.035650 0.417540 0.122059
O O4 0.821081 0.429116 0.021371
O O5 0.217790 0.217035 0.172902
O O6 0.339505 0.210364 0.288933
O O7 0.000000 0.181483 0.250000
O O8 0.227838 0.976199 0.227317
O O9 0.422157 0.422865 0.168525
O O10 0.282532 0.383037 0.068065
O O11 0.000000 0.000000 0.500000
#
# Coordination Sequence:
#
# PCOD9306486 Si02
#       5
#     8   8   8   8   8
#     4  11  26  49  75 113 151 199 250 312 381 450
#     4  12  27  49  74 108 150 196 256 317 379 453
#     4  12  25  48  79 104 152 200 249 309 382 446
#     4  12  28  51  76 110 153 198 255 317 376 456
#     4  11  25  49  76 113 157 195 254 314 373 461
#
# _framework density 25.348903
#
# number of rings (size 3 to 8) (size 9 to 14) (size 15 to 20)
#    0.000    0.400    4.000    3.600    2.800    4.000 
#    3.600    0.000    0.000    0.000    0.000    0.000 
#    0.000    0.000    0.000    0.000    0.000    0.000 
#
# Total GULP energy -111707.924749 kJ/mol
# GULP energy per Si atom -5585.396237 kJ/mol
# Density = 2.529121 g / cm^3
# Si number density = 25.348903 Si / 1000 Ang^3
#
#
#
# Elastic Constant Matrix: (Units=GPa)
#
#
# Indices 1 2 3 4 5 6 
#
# 1 122.7783 28.8091 41.2104 0.0000 2.0224 0.0000
# 2 28.8091 51.7720 52.4878 0.0000 -9.0419 0.0000
# 3 41.2104 52.4878 127.6247 0.0000 -16.2178 0.0000
# 4 0.0000 0.0000 0.0000 54.8209 0.0000 -3.0345
# 5 2.0224 -9.0419 -16.2178 0.0000 74.0720 0.0000
# 6 0.0000 0.0000 0.0000 -3.0345 0.0000 16.9172
#
#
#
# Elastic Compliance Matrix: (Units=1/GPa)
#
#
# Indices 1 2 3 4 5 6 
#
# 1 0.009627 -0.003869 -0.001657 0.000000 -0.001098 0.000000
# 2 -0.003869 0.034769 -0.012855 0.000000 0.001535 0.000000
# 3 -0.001657 -0.012855 0.013849 0.000000 0.001508 0.000000
# 4 0.000000 0.000000 0.000000 0.018424 0.000000 0.003305
# 5 -0.001098 0.001535 0.001508 0.000000 0.014048 0.000000
# 6 0.000000 0.000000 0.000000 0.003305 0.000000 0.059704
#
#
# Mechanical properties :
#
#
# Convention : Reuss Voigt Hill
#
# Bulk Modulus (GPa) = 46.54757 60.79885 53.67321
# Shear Modulus (GPa) = 25.72753 41.13987 33.43370
#
# Velocity S-wave (km/s) = 3.18926 4.03295 3.63566
# Velocity P-wave (km/s) = 5.65371 6.76189 6.23248
#
# Compressibility (1/GPa) = 0.02148340
#
# Stress axis : x y z
#
# Youngs Moduli (GPa) = 103.87683 28.76097 72.20722
#
# Poissons Ratio (x) = 0.11127 0.11964
# Poissons Ratio (y) = 0.40189 0.92823
# Poissons Ratio (z) = 0.17211 0.36973
#
# Static dielectric constant tensor:
#      x y z
#    x 1.973410 0.000000 0.019530 
#    y 0.000000 2.002830 0.000000 
#    z 0.019530 0.000000 1.984880 
# 
# From -- ./inp_files/262506.got.cif
#   From: 2010.05.17/outbox.cif.g08.bks.cpg/sg15_132_cif.got.tgz:262506.got - 2010.06.03 18:47:42.
