data_PCOD9306400
_publ_section_title
;
Structure prediction by ZEFSAII (Michael W. Deem and Ramdas Pophale) SiO2 
 PCOD9306400
Probable space group: C 2/C
;
_chemical_formula_sum "Si O2"
_cell_formula_units_Z 44
_cell_length_a 18.756032
_cell_length_b 22.655897
_cell_length_c 11.492610
_cell_angle_alpha 90.000000
_cell_angle_beta 22.975623
_cell_angle_gamma 90.000000
_cell_volume 1906.265327
_symmetry_space_group_name_H-M "C 2/C"
_symmetry_group_IT_number 15
_symmetry_cell_setting 'monoclinic'
loop_
_space_group_symop_operation_xyz
x,y,z
-x,y,1/2-z
-x,-y,-z
x,-y,1/2+z
1/2+x,1/2+y,z
1/2-x,1/2+y,1/2-z
1/2-x,1/2-y,-z
1/2+x,1/2-y,1/2+z
loop_
_atom_site_type_symbol
_atom_site_label
_atom_site_fract_x
_atom_site_fract_y
_atom_site_fract_z
Si Si1 0.000000 0.733931 0.250000
Si Si2 0.500000 0.520072 0.250000
Si Si3 0.722010 0.614420 0.821572
Si Si4 0.000000 0.224650 0.250000
Si Si5 0.865495 0.652174 0.273805
Si Si6 0.462564 0.414923 0.138007
Si Si7 0.234689 0.811348 0.732862
O O1 0.850065 0.695118 0.408625
O O2 0.920316 0.772134 0.473491
O O3 0.333055 0.566440 0.497955
O O4 0.509400 0.477163 0.124999
O O5 0.653555 0.585587 0.805228
O O6 0.937975 0.623388 0.500361
O O7 0.609601 0.676142 0.006119
O O8 0.835427 0.273165 0.483431
O O9 0.682535 0.613604 0.552429
O O10 0.871268 0.680325 0.137264
O O11 0.637731 0.373143 0.850437
#
# Coordination Sequence:
#
# PCOD9306400 Si02
#       7
#     4   4   8   4   8   8   8
#     4  12  21  38  67 101 136 181 226 264 332 416
#     4  11  25  48  70  96 134 182 232 292 336 403
#     4  11  26  42  71  99 137 179 226 284 349 400
#     4  11  26  44  63 107 146 173 218 278 354 403
#     4  12  22  41  68 103 133 180 234 275 336 408
#     4  12  23  47  69  98 133 181 237 282 335 405
#     4  12  25  40  71 100 144 181 219 282 341 411
#
# _framework density 23.081780999999999
#
# number of rings (size 3 to 8) (size 9 to 14) (size 15 to 20)
#    0.000    0.364    7.273    1.091    2.545    5.091 
#    0.000    0.000    0.000    0.000    0.000    0.000 
#    0.000    0.000    0.000    0.000    0.000    0.000 
#
# Total GULP energy -122681.591586 kJ/mol
# GULP energy per Si atom -5576.435981 kJ/mol
# Density = 2.302925 g / cm^3
# Si number density = 23.081781 Si / 1000 Ang^3
#
#
#
# Elastic Constant Matrix: (Units=GPa)
#
#
# Indices 1 2 3 4 5 6 
#
# 1 90.1810 28.6188 12.9518 0.0225 -18.8017 0.0213
# 2 28.6188 128.9423 64.5251 0.0311 -5.3628 0.0058
# 3 12.9518 64.5251 126.0083 0.0512 -1.9087 -0.0067
# 4 0.0225 0.0311 0.0512 16.1949 -0.0272 -5.3610
# 5 -18.8017 -5.3628 -1.9087 -0.0272 29.3699 -0.0025
# 6 0.0213 0.0058 -0.0067 -5.3610 -0.0025 11.0094
#
#
#
# Elastic Compliance Matrix: (Units=1/GPa)
#
#
# Indices 1 2 3 4 5 6 
#
# 1 0.013665 -0.002755 0.000131 -0.000009 0.008253 -0.000028
# 2 -0.002755 0.011055 -0.005379 -0.000002 -0.000095 -0.000005
# 3 0.000131 -0.005379 0.010674 -0.000025 -0.000204 -0.000003
# 4 -0.000009 -0.000002 -0.000025 0.073614 0.000063 0.035847
# 5 0.008253 -0.000095 -0.000204 0.000063 0.039301 0.000024
# 6 -0.000028 -0.000005 -0.000003 0.035847 0.000024 0.108287
#
#
# Mechanical properties :
#
#
# Convention : Reuss Voigt Hill
#
# Bulk Modulus (GPa) = 51.57936 61.92478 56.75207
# Shear Modulus (GPa) = 17.91696 27.25058 22.58377
#
# Velocity S-wave (km/s) = 2.78913 3.43973 3.13137
# Velocity P-wave (km/s) = 5.72426 6.53164 6.14123
#
# Compressibility (1/GPa) = 0.01938760
#
# Stress axis : x y z
#
# Youngs Moduli (GPa) = 73.17895 90.45828 93.68700
#
# Poissons Ratio (x) = 0.24926 -0.01232
# Poissons Ratio (y) = 0.20164 0.50395
# Poissons Ratio (z) = -0.00962 0.48658
#
# Static dielectric constant tensor:
#      x y z
#    x 1.915890 -0.000010 0.079050 
#    y -0.000010 1.914360 0.000000 
#    z 0.079050 0.000000 1.932950 
# 
# From -- ./inp_files/174420.got.cif
#   From: 2010.05.17/outbox.cif.g08.bks.cpg/sg15_88_cif.got.tgz:174420.got - 2010.06.03 18:47:42.
