data_PCOD9306401
_publ_section_title
;
Structure prediction by ZEFSAII (Michael W. Deem and Ramdas Pophale) SiO2 
 PCOD9306401
Probable space group: C 2/C
;
_chemical_formula_sum "Si O2"
_cell_formula_units_Z 52
_cell_length_a 7.908125
_cell_length_b 22.316286
_cell_length_c 17.710629
_cell_angle_alpha 90.000000
_cell_angle_beta 127.683835
_cell_angle_gamma 90.000000
_cell_volume 2473.564837
_symmetry_space_group_name_H-M "C 2/C"
_symmetry_group_IT_number 15
_symmetry_cell_setting 'monoclinic'
loop_
_space_group_symop_operation_xyz
x,y,z
-x,y,1/2-z
-x,-y,-z
x,-y,1/2+z
1/2+x,1/2+y,z
1/2-x,1/2+y,1/2-z
1/2-x,1/2-y,-z
1/2+x,1/2-y,1/2+z
loop_
_atom_site_type_symbol
_atom_site_label
_atom_site_fract_x
_atom_site_fract_y
_atom_site_fract_z
Si Si1 0.911513 0.713211 0.311386
Si Si2 0.747327 0.123400 0.458702
Si Si3 0.538685 0.002988 0.923100
Si Si4 0.948804 0.148108 0.824693
Si Si5 0.000000 0.138427 0.250000
Si Si6 0.555235 0.571295 0.421195
Si Si7 0.230101 0.529578 0.779233
O O1 0.888967 0.783218 0.323554
O O2 0.693100 0.678150 0.269097
O O3 0.000000 0.708024 0.250000
O O4 0.096080 0.680132 0.408012
O O5 0.921583 0.115558 0.439424
O O6 0.853784 0.129310 0.569207
O O7 0.613353 0.062265 0.416926
O O8 0.318142 0.018959 0.821930
O O9 0.735923 0.050209 0.974604
O O10 0.500000 0.000000 0.000000
O O11 0.774066 0.099334 0.800056
O O12 0.000000 0.142416 0.750000
O O13 0.914294 0.100816 0.153627
O O14 0.412731 0.512011 0.364144
O O15 0.000000 0.512957 0.750000
#
# Coordination Sequence:
#
# PCOD9306401 Si02
#       7
#     8   8   8   8   4   8   8
#     4  11  25  48  71 100 137 191 236 292 345 406
#     4  12  22  45  70 100 139 186 234 284 358 412
#     4  12  24  38  66 102 140 178 225 281 352 417
#     4  11  26  45  70  96 140 184 240 287 347 420
#     4  12  26  44  74 102 140 184 238 284 352 428
#     4  12  24  43  68 108 139 180 233 289 347 436
#     4  12  24  41  66 101 139 180 218 286 356 405
#
# _framework density 21.022290999999999
#
# number of rings (size 3 to 8) (size 9 to 14) (size 15 to 20)
#    0.000    0.308    4.615    5.538    2.154    0.000 
#    0.000    0.769    0.000    0.000    0.000    0.000 
#    0.000    0.000    0.000    0.000    0.000    0.000 
#
# Total GULP energy -145324.175834 kJ/mol
# GULP energy per Si atom -5589.391378 kJ/mol
# Density = 2.097444 g / cm^3
# Si number density = 21.022291 Si / 1000 Ang^3
#
#
#
# Elastic Constant Matrix: (Units=GPa)
#
#
# Indices 1 2 3 4 5 6 
#
# 1 69.9506 33.4137 -1.7453 0.0000 -4.6755 0.0000
# 2 33.4137 113.6646 32.8874 0.0000 -3.7689 0.0000
# 3 -1.7453 32.8874 103.3990 0.0000 -2.3959 0.0000
# 4 0.0000 0.0000 0.0000 4.3633 0.0000 -16.2798
# 5 -4.6755 -3.7689 -2.3959 0.0000 30.3608 0.0000
# 6 0.0000 0.0000 0.0000 -16.2798 0.0000 19.3593
#
#
#
# Elastic Compliance Matrix: (Units=1/GPa)
#
#
# Indices 1 2 3 4 5 6 
#
# 1 0.017158 -0.005586 0.002115 0.000000 0.002116 0.000000
# 2 -0.005586 0.011536 -0.003757 0.000000 0.000275 0.000000
# 3 0.002115 -0.003757 0.010919 0.000000 0.000721 0.000000
# 4 0.000000 0.000000 0.000000 -0.107217 0.000000 -0.090161
# 5 0.002116 0.000275 0.000721 0.000000 0.033354 0.000000
# 6 0.000000 0.000000 0.000000 -0.090161 0.000000 -0.024165
#
#
# Mechanical properties :
#
#
# Convention : Reuss Voigt Hill
#
# Bulk Modulus (GPa) = 39.74931 46.23620 42.99275
# Shear Modulus (GPa) = -140.55618 25.64724 -57.45447
#
# Velocity S-wave (km/s) = -8.18570 3.49664 -5.23351
# Velocity P-wave (km/s) = 8.38998 6.19222 4.00300
#
# Compressibility (1/GPa) = 0.02515767
#
# Stress axis : x y z
#
# Youngs Moduli (GPa) = 58.28117 86.68468 91.58621
#
# Poissons Ratio (x) = 0.48421 -0.19373
# Poissons Ratio (y) = 0.32555 0.34410
# Poissons Ratio (z) = -0.12328 0.32568
#
# Static dielectric constant tensor:
#      x y z
#    x 1.835840 0.000000 -0.029250 
#    y 0.000000 1.734730 0.000000 
#    z -0.029250 0.000000 1.875490 
# 
# From -- ./inp_files/192614.got.cif
#   From: 2010.05.17/outbox.cif.g08.bks.cpg/sg15_97_cif.got.tgz:192614.got - 2010.06.03 18:47:42.
