data_PCOD9306634
_publ_section_title
;
Structure prediction by ZEFSAII (Michael W. Deem and Ramdas Pophale) SiO2 
 PCOD9306634
Probable space group: C 2/C
;
_chemical_formula_sum "Si O2"
_cell_formula_units_Z 40
_cell_length_a 11.211195
_cell_length_b 24.116172
_cell_length_c 9.737200
_cell_angle_alpha 90.000000
_cell_angle_beta 36.065209
_cell_angle_gamma 90.000000
_cell_volume 1549.860299
_symmetry_space_group_name_H-M "C 2/C"
_symmetry_group_IT_number 15
_symmetry_cell_setting 'monoclinic'
loop_
_space_group_symop_operation_xyz
x,y,z
-x,y,1/2-z
-x,-y,-z
x,-y,1/2+z
1/2+x,1/2+y,z
1/2-x,1/2+y,1/2-z
1/2-x,1/2-y,-z
1/2+x,1/2-y,1/2+z
loop_
_atom_site_type_symbol
_atom_site_label
_atom_site_fract_x
_atom_site_fract_y
_atom_site_fract_z
Si Si1 0.107521 0.737669 0.531283
Si Si2 0.298510 0.480171 0.769799
Si Si3 0.333150 0.630921 0.302765
Si Si4 0.430758 0.913284 0.959606
Si Si5 0.081973 0.169400 0.829174
O O1 0.145936 0.671696 0.474816
O O2 0.081617 0.772417 0.411708
O O3 0.861287 0.741930 0.814856
O O4 0.500000 0.500000 0.500000
O O5 0.310823 0.431604 0.872136
O O6 0.121116 0.447080 0.849244
O O7 0.223986 0.535760 0.909732
O O8 0.500000 0.656575 0.250000
O O9 0.429783 0.632305 0.062530
O O10 0.500000 0.891203 0.750000
O O11 0.294124 0.863379 0.146281
O O12 0.000000 0.173828 0.750000
#
# Coordination Sequence:
#
# PCOD9306634 Si02
#       5
#     8   8   8   8   8
#     4  12  25  50  76 110 159 206 278 340 402 485
#     4  11  26  46  78 113 156 207 271 329 406 487
#     4  12  26  46  79 112 151 213 262 342 403 486
#     4  11  27  47  74 117 159 208 264 335 408 491
#     4  12  26  48  77 113 167 216 265 337 422 490
#
# _framework density 25.808776999999999
#
# number of rings (size 3 to 8) (size 9 to 14) (size 15 to 20)
#    0.000    0.400    6.000    1.200    5.600    1.600 
#    0.000    2.000    0.000    0.000    0.000    0.000 
#    0.000    0.000    0.000    0.000    0.000    0.000 
#
# Total GULP energy -111509.838555 kJ/mol
# GULP energy per Si atom -5575.491928 kJ/mol
# Density = 2.575004 g / cm^3
# Si number density = 25.808777 Si / 1000 Ang^3
#
#
#
# Elastic Constant Matrix: (Units=GPa)
#
#
# Indices 1 2 3 4 5 6 
#
# 1 130.6838 31.9883 40.6121 0.0000 -7.6054 0.0000
# 2 31.9883 170.3720 76.8341 0.0000 -6.6145 0.0000
# 3 40.6121 76.8341 185.9576 0.0000 0.1195 0.0000
# 4 0.0000 0.0000 0.0000 59.7300 0.0000 -9.0037
# 5 -7.6054 -6.6145 0.1195 0.0000 40.1890 0.0000
# 6 0.0000 0.0000 0.0000 -9.0037 0.0000 30.2433
#
#
#
# Elastic Compliance Matrix: (Units=1/GPa)
#
#
# Indices 1 2 3 4 5 6 
#
# 1 0.008407 -0.000852 -0.001485 0.000000 0.001455 0.000000
# 2 -0.000852 0.007358 -0.002855 0.000000 0.001058 0.000000
# 3 -0.001485 -0.002855 0.006882 0.000000 -0.000771 0.000000
# 4 0.000000 0.000000 0.000000 0.017529 0.000000 0.005218
# 5 0.001455 0.001058 -0.000771 0.000000 0.025334 0.000000
# 6 0.000000 0.000000 0.000000 0.005218 0.000000 0.034619
#
#
# Mechanical properties :
#
#
# Convention : Reuss Voigt Hill
#
# Bulk Modulus (GPa) = 81.54603 87.32026 84.43315
# Shear Modulus (GPa) = 43.63013 48.53771 46.08392
#
# Velocity S-wave (km/s) = 4.11605 4.34137 4.23021
# Velocity P-wave (km/s) = 7.36573 7.68355 7.52632
#
# Compressibility (1/GPa) = 0.01226301
#
# Stress axis : x y z
#
# Youngs Moduli (GPa) = 118.95163 135.90559 145.30971
#
# Poissons Ratio (x) = 0.11584 0.21575
# Poissons Ratio (y) = 0.10139 0.41482
# Poissons Ratio (z) = 0.17661 0.38798
#
# Static dielectric constant tensor:
#      x y z
#    x 2.404340 0.000000 -0.253180 
#    y 0.000000 2.020440 0.000000 
#    z -0.253180 0.000000 2.132060 
# 
# From -- ./inp_files/92192.got.cif
#   From: 2010.05.17/outbox.cif.g08.bks.cpg/sg15_47_cif.got.tgz:92192.got - 2010.06.03 18:47:42.
