data_PCOD9306878
_publ_section_title
;
Structure prediction by ZEFSAII (Michael W. Deem and Ramdas Pophale) SiO2 
 PCOD9306878
Probable space group: C 2/C
;
_chemical_formula_sum "Si O2"
_cell_formula_units_Z 48
_cell_length_a 19.685769
_cell_length_b 11.899702
_cell_length_c 11.550373
_cell_angle_alpha 90.000000
_cell_angle_beta 135.172124
_cell_angle_gamma 90.000000
_cell_volume 1907.483883
_symmetry_space_group_name_H-M "C 2/C"
_symmetry_group_IT_number 15
_symmetry_cell_setting 'monoclinic'
loop_
_space_group_symop_operation_xyz
x,y,z
-x,y,1/2-z
-x,-y,-z
x,-y,1/2+z
1/2+x,1/2+y,z
1/2-x,1/2+y,1/2-z
1/2-x,1/2-y,-z
1/2+x,1/2-y,1/2+z
loop_
_atom_site_type_symbol
_atom_site_label
_atom_site_fract_x
_atom_site_fract_y
_atom_site_fract_z
Si Si1 0.886256 0.698385 0.515717
Si Si2 0.000000 0.493746 0.750000
Si Si3 0.500000 0.445128 0.250000
Si Si4 0.472298 0.320899 0.989718
Si Si5 0.220273 0.248032 0.150083
Si Si6 0.353359 0.392635 0.641336
Si Si7 0.294281 0.926885 0.548664
O O1 0.780952 0.712439 0.334314
O O2 0.876504 0.768274 0.623248
O O3 0.938406 0.579036 0.594357
O O4 0.951743 0.763120 0.501175
O O5 0.088950 0.426313 0.799687
O O6 0.480111 0.374131 0.339759
O O7 0.589265 0.526860 0.378133
O O8 0.390287 0.242955 0.946151
O O9 0.408070 0.402839 0.830237
O O10 0.246165 0.149783 0.089822
O O11 0.239685 0.365536 0.110246
O O12 0.247715 0.446712 0.505975
#
# Coordination Sequence:
#
# PCOD9306878 Si02
#       7
#     8   4   4   8   8   8   8
#     4  12  27  47  75 111 152 197 250 304 384 441
#     4  12  27  51  76 112 148 206 249 315 372 456
#     4  12  23  39  74 110 140 190 247 305 368 430
#     4  12  25  45  75 106 149 190 249 310 366 448
#     4  11  28  48  71 111 150 203 242 314 373 452
#     4  12  24  48  73 111 148 193 247 307 370 454
#     4  11  28  49  75 108 153 196 258 301 384 442
#
# _framework density 25.164038999999999
#
# number of rings (size 3 to 8) (size 9 to 14) (size 15 to 20)
#    0.000    0.333    5.000    2.500    9.333    3.333 
#    0.000    0.000    0.000    0.000    0.000    0.000 
#    0.000    0.000    0.000    0.000    0.000    0.000 
#
# Total GULP energy -134219.834609 kJ/mol
# GULP energy per Si atom -5592.493109 kJ/mol
# Density = 2.510676 g / cm^3
# Si number density = 25.164039 Si / 1000 Ang^3
#
#
#
# Elastic Constant Matrix: (Units=GPa)
#
#
# Indices 1 2 3 4 5 6 
#
# 1 101.4657 22.8064 4.5444 0.0000 16.2571 0.0000
# 2 22.8064 64.9192 17.0174 0.0000 -6.2243 0.0000
# 3 4.5444 17.0174 51.2543 0.0000 -2.6443 0.0000
# 4 0.0000 0.0000 0.0000 -7.8988 0.0000 -60.8016
# 5 16.2571 -6.2243 -2.6443 0.0000 52.6822 0.0000
# 6 0.0000 0.0000 0.0000 -60.8016 0.0000 -130.7096
#
#
#
# Elastic Compliance Matrix: (Units=1/GPa)
#
#
# Indices 1 2 3 4 5 6 
#
# 1 0.011508 -0.004502 0.000265 0.000000 -0.004070 0.000000
# 2 -0.004502 0.018790 -0.005668 0.000000 0.003325 0.000000
# 3 0.000265 -0.005668 0.021386 0.000000 0.000322 0.000000
# 4 0.000000 0.000000 0.000000 0.049058 0.000000 -0.022820
# 5 -0.004070 0.003325 0.000322 0.000000 0.020647 0.000000
# 6 0.000000 0.000000 0.000000 -0.022820 0.000000 0.002965
#
#
# Mechanical properties :
#
#
# Convention : Reuss Voigt Hill
#
# Bulk Modulus (GPa) = 31.37549 34.04175 32.70862
# Shear Modulus (GPa) = 32.30223 -5.63385 13.33419
#
# Velocity S-wave (km/s) = 3.58672 -1.49790 2.30443
# Velocity P-wave (km/s) = 5.44501 3.25049 4.48407
#
# Compressibility (1/GPa) = 0.03187201
#
# Stress axis : x y z
#
# Youngs Moduli (GPa) = 86.89797 53.21994 46.76049
#
# Poissons Ratio (x) = 0.23961 -0.01237
# Poissons Ratio (y) = 0.39124 0.26503
# Poissons Ratio (z) = -0.02299 0.30165
#
# Static dielectric constant tensor:
#      x y z
#    x 2.052190 0.000000 0.046740 
#    y 0.000000 1.993080 0.000000 
#    z 0.046740 0.000000 2.007110 
# 
# From -- ./inp_files/111470.got.cif
#   From: 2010.05.17/outbox.cif.g08.bks.cpg/sg15_56_cif.got.tgz:111470.got - 2010.06.03 18:47:42.
