data_PCOD9306018
_publ_section_title
;
Structure prediction by ZEFSAII (Michael W. Deem and Ramdas Pophale) SiO2 
 PCOD9306018
Probable space group: C 2/C
;
_chemical_formula_sum "Si O2"
_cell_formula_units_Z 40
_cell_length_a 29.281666
_cell_length_b 7.094104
_cell_length_c 9.274977
_cell_angle_alpha 90.000000
_cell_angle_beta 88.800317
_cell_angle_gamma 90.000000
_cell_volume 1926.242527
_symmetry_space_group_name_H-M "C 2/C"
_symmetry_group_IT_number 15
_symmetry_cell_setting 'monoclinic'
loop_
_space_group_symop_operation_xyz
x,y,z
-x,y,1/2-z
-x,-y,-z
x,-y,1/2+z
1/2+x,1/2+y,z
1/2-x,1/2+y,1/2-z
1/2-x,1/2-y,-z
1/2+x,1/2-y,1/2+z
loop_
_atom_site_type_symbol
_atom_site_label
_atom_site_fract_x
_atom_site_fract_y
_atom_site_fract_z
Si Si1 0.797014 0.747123 0.805462
Si Si2 0.926946 0.004811 0.028757
Si Si3 0.805402 0.613723 0.127898
Si Si4 0.494120 0.801258 0.421066
Si Si5 0.865132 0.092944 0.785883
O O1 0.804351 0.602690 0.674832
O O2 0.743916 0.801296 0.824530
O O3 0.826697 0.932632 0.779032
O O4 0.811218 0.652473 0.957514
O O5 0.966186 0.160704 0.028036
O O6 0.909348 0.959700 0.188854
O O7 0.883830 0.088751 0.946053
O O8 0.947440 0.811935 0.960308
O O9 0.843605 0.720678 0.218783
O O10 0.500000 0.827123 0.250000
O O11 0.500000 0.000000 0.500000
#
# Coordination Sequence:
#
# PCOD9306018 Si02
#       5
#     8   8   8   8   8
#     4  11  25  42  65  96 131 180 229 278 334 385
#     4  11  26  46  68  99 142 175 220 274 339 399
#     4  11  25  42  65  95 133 179 228 279 333 387
#     4  11  26  46  73 102 136 175 217 273 342 410
#     4  12  24  45  66 101 137 180 226 279 326 398
#
# _framework density 20.765816999999998
#
# number of rings (size 3 to 8) (size 9 to 14) (size 15 to 20)
#    0.000    0.800    6.000    0.000    5.600    4.000 
#    0.000    0.000    0.000    0.000    0.000    0.000 
#    0.000    0.000    0.000    0.000    0.000    0.000 
#
# Total GULP energy -111846.110610 kJ/mol
# GULP energy per Si atom -5592.305531 kJ/mol
# Density = 2.071855 g / cm^3
# Si number density = 20.765817 Si / 1000 Ang^3
#
#
#
# Elastic Constant Matrix: (Units=GPa)
#
#
# Indices 1 2 3 4 5 6 
#
# 1 51.8204 17.8385 -9.3721 0.0000 2.3410 0.0000
# 2 17.8385 60.0708 18.2996 0.0000 2.8505 0.0000
# 3 -9.3721 18.2996 52.9396 0.0000 -4.3930 0.0000
# 4 0.0000 0.0000 0.0000 32.3194 0.0000 2.5176
# 5 2.3410 2.8505 -4.3930 0.0000 40.0086 0.0000
# 6 0.0000 0.0000 0.0000 2.5176 0.0000 27.7072
#
#
#
# Elastic Compliance Matrix: (Units=1/GPa)
#
#
# Indices 1 2 3 4 5 6 
#
# 1 0.023870 -0.009369 0.007472 0.000000 0.000091 0.000000
# 2 -0.009369 0.022452 -0.009594 0.000000 -0.002105 0.000000
# 3 0.007472 -0.009594 0.023766 0.000000 0.002856 0.000000
# 4 0.000000 0.000000 0.000000 0.031162 0.000000 -0.002831
# 5 0.000091 -0.002105 0.002856 0.000000 0.025453 0.000000
# 6 0.000000 0.000000 0.000000 -0.002831 0.000000 0.036349
#
#
# Mechanical properties :
#
#
# Convention : Reuss Voigt Hill
#
# Bulk Modulus (GPa) = 21.22924 24.26253 22.74589
# Shear Modulus (GPa) = 24.78504 29.21134 26.99819
#
# Velocity S-wave (km/s) = 3.45853 3.75467 3.60964
# Velocity P-wave (km/s) = 5.11800 5.52322 5.32447
#
# Compressibility (1/GPa) = 0.04710484
#
# Stress axis : x y z
#
# Youngs Moduli (GPa) = 41.89408 44.53997 42.07756
#
# Poissons Ratio (x) = 0.41729 -0.31440
# Poissons Ratio (y) = 0.39250 0.40370
# Poissons Ratio (z) = -0.31303 0.42732
#
# Static dielectric constant tensor:
#      x y z
#    x 1.731820 0.000000 -0.002090 
#    y 0.000000 1.711320 0.000000 
#    z -0.002090 0.000000 1.706820 
# 
# From -- ./inp_files/68168.got.cif
#   From: 2010.05.17/outbox.cif.g08.bks.cpg/sg15_35_cif.got.tgz:68168.got - 2010.06.03 18:47:42.
