data_PCOD9306792
_publ_section_title
;
Structure prediction by ZEFSAII (Michael W. Deem and Ramdas Pophale) SiO2 
 PCOD9306792
Probable space group: C 2/C
;
_chemical_formula_sum "Si O2"
_cell_formula_units_Z 64
_cell_length_a 14.479768
_cell_length_b 24.823580
_cell_length_c 17.413301
_cell_angle_alpha 90.000000
_cell_angle_beta 23.846876
_cell_angle_gamma 90.000000
_cell_volume 2530.487102
_symmetry_space_group_name_H-M "C 2/C"
_symmetry_group_IT_number 15
_symmetry_cell_setting 'monoclinic'
loop_
_space_group_symop_operation_xyz
x,y,z
-x,y,1/2-z
-x,-y,-z
x,-y,1/2+z
1/2+x,1/2+y,z
1/2-x,1/2+y,1/2-z
1/2-x,1/2-y,-z
1/2+x,1/2-y,1/2+z
loop_
_atom_site_type_symbol
_atom_site_label
_atom_site_fract_x
_atom_site_fract_y
_atom_site_fract_z
Si Si1 0.746858 0.077718 0.973030
Si Si2 0.797989 0.690225 0.843521
Si Si3 0.000179 0.468382 0.157868
Si Si4 0.730732 0.244975 0.092916
Si Si5 0.787792 0.623264 0.337410
Si Si6 0.811651 0.887541 0.834162
Si Si7 0.510055 0.207195 0.522160
Si Si8 0.067179 0.079024 0.011391
O O1 0.000000 0.088549 0.750000
O O2 0.544407 0.119722 0.108486
O O3 0.744833 0.082240 0.066655
O O4 0.640313 0.021109 0.028285
O O5 0.000000 0.703589 0.750000
O O6 0.859119 0.685649 0.706941
O O7 0.617785 0.738760 0.977391
O O8 0.709129 0.631273 0.932463
O O9 0.730259 0.464273 0.347761
O O10 0.000000 0.465222 0.250000
O O11 0.118619 0.417635 0.029059
O O12 0.438406 0.253912 0.357489
O O13 0.751458 0.182231 0.099746
O O14 0.870327 0.278532 0.051745
O O15 0.608078 0.603921 0.413945
O O16 0.926935 0.934356 0.694471
O O17 0.000000 0.865598 0.750000
O O18 0.704500 0.838653 0.866737
#
# Coordination Sequence:
#
# PCOD9306792 Si02
#       8
#     8   8   8   8   8   8   8   8
#     4  11  26  52  87 111 154 203 270 337 413 475
#     4  12  23  44  68 107 163 212 263 328 402 482
#     4  12  24  49  80 117 155 203 259 326 405 491
#     4  12  27  48  77 109 155 215 276 335 398 462
#     4  11  26  53  77 115 157 209 261 342 398 472
#     4  12  25  43  75 117 162 215 259 320 406 493
#     4  12  25  42  69 111 159 210 276 328 394 487
#     4  12  26  45  77 111 165 201 261 323 402 487
#
# _framework density 25.291574000000001
#
# number of rings (size 3 to 8) (size 9 to 14) (size 15 to 20)
#    0.000    0.250    6.250    3.750    1.750    2.000 
#    0.000    1.250    0.000    0.000    0.000    0.000 
#    0.000    0.000    0.000    0.000    0.000    0.000 
#
# Total GULP energy -178954.153247 kJ/mol
# GULP energy per Si atom -5592.317289 kJ/mol
# Density = 2.523401 g / cm^3
# Si number density = 25.291574 Si / 1000 Ang^3
#
#
#
# Elastic Constant Matrix: (Units=GPa)
#
#
# Indices 1 2 3 4 5 6 
#
# 1 177.0700 38.2717 65.2738 0.0336 -22.3406 -0.0551
# 2 38.2717 106.2215 43.4917 0.0952 -2.3874 -0.1898
# 3 65.2738 43.4917 167.0129 -0.0292 -2.9400 -0.0291
# 4 0.0336 0.0952 -0.0292 25.9838 -0.1216 3.0440
# 5 -22.3406 -2.3874 -2.9400 -0.1216 42.4458 0.1052
# 6 -0.0551 -0.1898 -0.0291 3.0440 0.1052 26.7445
#
#
#
# Elastic Compliance Matrix: (Units=1/GPa)
#
#
# Indices 1 2 3 4 5 6 
#
# 1 0.007323 -0.001580 -0.002387 0.000012 0.003600 -0.000014
# 2 -0.001580 0.010886 -0.002224 -0.000051 -0.000374 0.000079
# 3 -0.002387 -0.002224 0.007484 0.000017 -0.000863 -0.000011
# 4 0.000012 -0.000051 0.000017 0.039006 0.000127 -0.004440
# 5 0.003600 -0.000374 -0.000863 0.000127 0.025374 -0.000110
# 6 -0.000014 0.000079 -0.000011 -0.004440 -0.000110 0.037897
#
#
# Mechanical properties :
#
#
# Convention : Reuss Voigt Hill
#
# Bulk Modulus (GPa) = 75.12508 82.70874 78.91691
# Shear Modulus (GPa) = 34.53245 39.25263 36.89254
#
# Velocity S-wave (km/s) = 3.69911 3.94382 3.82342
# Velocity P-wave (km/s) = 6.92911 7.31515 7.12475
#
# Compressibility (1/GPa) = 0.01331113
#
# Stress axis : x y z
#
# Youngs Moduli (GPa) = 136.55026 91.86150 133.60972
#
# Poissons Ratio (x) = 0.14516 0.31896
# Poissons Ratio (y) = 0.21578 0.29712
# Poissons Ratio (z) = 0.32598 0.20428
#
# Static dielectric constant tensor:
#      x y z
#    x 1.981120 -0.000100 0.044750 
#    y -0.000100 1.969630 0.000190 
#    z 0.044750 0.000190 2.603370 
# 
# From -- ./inp_files/250275.got.cif
#   From: 2010.05.17/outbox.cif.g08.bks.cpg/sg15_126_cif.got.tgz:250275.got - 2010.06.03 18:47:42.
