data_PCOD9306795
_publ_section_title
;
Structure prediction by ZEFSAII (Michael W. Deem and Ramdas Pophale) SiO2 
 PCOD9306795
Probable space group: C 2/C
;
_chemical_formula_sum "Si O2"
_cell_formula_units_Z 32
_cell_length_a 10.391967
_cell_length_b 14.199280
_cell_length_c 14.153422
_cell_angle_alpha 90.000000
_cell_angle_beta 34.892191
_cell_angle_gamma 90.000000
_cell_volume 1194.668595
_symmetry_space_group_name_H-M "C 2/C"
_symmetry_group_IT_number 15
_symmetry_cell_setting 'monoclinic'
loop_
_space_group_symop_operation_xyz
x,y,z
-x,y,1/2-z
-x,-y,-z
x,-y,1/2+z
1/2+x,1/2+y,z
1/2-x,1/2+y,1/2-z
1/2-x,1/2-y,-z
1/2+x,1/2-y,1/2+z
loop_
_atom_site_type_symbol
_atom_site_label
_atom_site_fract_x
_atom_site_fract_y
_atom_site_fract_z
Si Si1 0.524771 0.285423 0.584678
Si Si2 0.730470 0.935576 0.851235
Si Si3 0.872580 0.135311 0.678670
Si Si4 0.857111 0.431708 0.934052
O O1 0.750000 0.250000 0.500000
O O2 0.401438 0.355278 0.728136
O O3 0.328953 0.208699 0.676877
O O4 0.592509 0.346060 0.452665
O O5 0.521119 0.895613 0.916924
O O6 0.794849 0.030955 0.755606
O O7 0.296200 0.969186 0.524072
O O8 0.131852 0.131884 0.561825
O O9 0.000000 0.438770 0.750000
#
# Coordination Sequence:
#
# PCOD9306795 Si02
#       4
#     8   8   8   8
#     4  12  30  55  87 130 178 222 298 362 441 522
#     4  11  28  56  87 131 169 229 289 370 435 525
#     4  12  29  53  86 126 172 234 284 363 439 525
#     4  11  26  53  90 121 173 228 296 347 447 518
#
# _framework density 26.785672000000002
#
# number of rings (size 3 to 8) (size 9 to 14) (size 15 to 20)
#    0.000    0.500    2.500    2.250   10.500    3.000 
#    4.500    0.000    0.000    0.000    0.000    0.000 
#    0.000    0.000    0.000    0.000    0.000    0.000 
#
# Total GULP energy -89412.121374 kJ/mol
# GULP energy per Si atom -5588.257586 kJ/mol
# Density = 2.672471 g / cm^3
# Si number density = 26.785672 Si / 1000 Ang^3
#
#
#
# Elastic Constant Matrix: (Units=GPa)
#
#
# Indices 1 2 3 4 5 6 
#
# 1 178.1353 61.3155 116.4532 -0.0006 1.6627 0.0000
# 2 61.3155 148.4718 102.3871 -0.0042 11.2174 0.0002
# 3 116.4532 102.3871 215.2476 -0.0096 -22.4486 0.0013
# 4 -0.0006 -0.0042 -0.0096 71.5413 0.0016 -7.2855
# 5 1.6627 11.2174 -22.4486 0.0016 76.6363 0.0006
# 6 0.0000 0.0002 0.0013 -7.2855 0.0006 40.6502
#
#
#
# Elastic Compliance Matrix: (Units=1/GPa)
#
#
# Indices 1 2 3 4 5 6 
#
# 1 0.008887 -0.000176 -0.004891 -0.000001 -0.001600 0.000000
# 2 -0.000176 0.010720 -0.005330 0.000000 -0.003126 0.000000
# 3 -0.004891 -0.005330 0.010232 0.000001 0.003883 0.000000
# 4 -0.000001 0.000000 0.000001 0.014238 0.000000 0.002552
# 5 -0.001600 -0.003126 0.003883 0.000000 0.014679 0.000000
# 6 0.000000 0.000000 0.000000 0.002552 0.000000 0.025057
#
#
# Mechanical properties :
#
#
# Convention : Reuss Voigt Hill
#
# Bulk Modulus (GPa) = 110.56274 122.46292 116.51283
# Shear Modulus (GPa) = 46.45945 55.21215 50.83580
#
# Velocity S-wave (km/s) = 4.16924 4.54503 4.36118
# Velocity P-wave (km/s) = 8.03388 8.56516 8.30377
#
# Compressibility (1/GPa) = 0.00904464
#
# Stress axis : x y z
#
# Youngs Moduli (GPa) = 112.52885 93.28579 97.73282
#
# Poissons Ratio (x) = 0.01646 0.47798
# Poissons Ratio (y) = 0.01985 0.52088
# Poissons Ratio (z) = 0.55035 0.49718
#
# Static dielectric constant tensor:
#      x y z
#    x 2.048610 0.000000 -0.083380 
#    y 0.000000 2.138690 0.000000 
#    z -0.083380 0.000000 2.343390 
# 
# From -- ./inp_files/38460.got.cif
#   From: 2010.05.17/outbox.cif.g08.bks.cpg/sg15_20_cif.got.tgz:38460.got - 2010.06.03 18:47:42.
