data_PCOD9306424
_publ_section_title
;
Structure prediction by ZEFSAII (Michael W. Deem and Ramdas Pophale) SiO2 
 PCOD9306424
Probable space group: C 2/C
;
_chemical_formula_sum "Si O2"
_cell_formula_units_Z 32
_cell_length_a 19.228869
_cell_length_b 7.076885
_cell_length_c 17.097190
_cell_angle_alpha 90.000000
_cell_angle_beta 145.260966
_cell_angle_gamma 90.000000
_cell_volume 1325.785190
_symmetry_space_group_name_H-M "C 2/C"
_symmetry_group_IT_number 15
_symmetry_cell_setting 'monoclinic'
loop_
_space_group_symop_operation_xyz
x,y,z
-x,y,1/2-z
-x,-y,-z
x,-y,1/2+z
1/2+x,1/2+y,z
1/2-x,1/2+y,1/2-z
1/2-x,1/2-y,-z
1/2+x,1/2-y,1/2+z
loop_
_atom_site_type_symbol
_atom_site_label
_atom_site_fract_x
_atom_site_fract_y
_atom_site_fract_z
Si Si1 0.393884 0.651867 0.886581
Si Si2 0.952975 0.504012 0.832079
Si Si3 0.199875 0.458968 0.964174
Si Si4 0.695330 0.660466 0.304595
O O1 0.306706 0.534129 0.746351
O O2 0.310792 0.717714 0.882133
O O3 0.433464 0.841893 0.877612
O O4 0.500000 0.500000 0.000000
O O5 0.852979 0.499538 0.670043
O O6 0.923631 0.717449 0.830322
O O7 0.083471 0.470815 0.913902
O O8 0.250000 0.250000 0.000000
O O9 0.297023 0.594200 0.097766
#
# Coordination Sequence:
#
# PCOD9306424 Si02
#       4
#     8   8   8   8
#     4  12  27  43  75 110 146 190 244 304 369 439
#     4  11  26  48  71 108 143 194 247 300 370 439
#     4  11  25  48  74 101 146 194 245 303 361 436
#     4  12  25  48  74 106 147 192 242 305 370 436
#
# _framework density 24.136638000000001
#
# number of rings (size 3 to 8) (size 9 to 14) (size 15 to 20)
#    0.000    0.500    5.000    2.250    7.000    2.000 
#    9.000    0.000    0.000    0.000    0.000    0.000 
#    0.000    0.000    0.000    0.000    0.000    0.000 
#
# Total GULP energy -89459.060301 kJ/mol
# GULP energy per Si atom -5591.191269 kJ/mol
# Density = 2.408170 g / cm^3
# Si number density = 24.136638 Si / 1000 Ang^3
#
#
#
# Elastic Constant Matrix: (Units=GPa)
#
#
# Indices 1 2 3 4 5 6 
#
# 1 101.3510 52.8156 20.7876 0.0000 5.2244 0.0000
# 2 52.8156 179.6849 57.6530 0.0000 -8.6558 0.0000
# 3 20.7876 57.6530 94.0611 0.0000 -14.1829 0.0000
# 4 0.0000 0.0000 0.0000 60.0950 0.0000 -14.2316
# 5 5.2244 -8.6558 -14.1829 0.0000 30.5881 0.0000
# 6 0.0000 0.0000 0.0000 -14.2316 0.0000 56.2124
#
#
#
# Elastic Compliance Matrix: (Units=1/GPa)
#
#
# Indices 1 2 3 4 5 6 
#
# 1 0.012022 -0.003337 -0.001144 0.000000 -0.003528 0.000000
# 2 -0.003337 0.007854 -0.003930 0.000000 0.000970 0.000000
# 3 -0.001144 -0.003930 0.014144 0.000000 0.005641 0.000000
# 4 0.000000 0.000000 0.000000 0.017702 0.000000 0.004482
# 5 -0.003528 0.000970 0.005641 0.000000 0.036185 0.000000
# 6 0.000000 0.000000 0.000000 0.004482 0.000000 0.018924
#
#
# Mechanical properties :
#
#
# Convention : Reuss Voigt Hill
#
# Bulk Modulus (GPa) = 58.14487 70.84550 64.49518
# Shear Modulus (GPa) = 38.64457 45.63514 42.13986
#
# Velocity S-wave (km/s) = 4.00568 4.35294 4.18291
# Velocity P-wave (km/s) = 6.74805 7.39457 7.07869
#
# Compressibility (1/GPa) = 0.01719842
#
# Stress axis : x y z
#
# Youngs Moduli (GPa) = 83.18160 127.32681 70.70299
#
# Poissons Ratio (x) = 0.42484 0.08086
# Poissons Ratio (y) = 0.27755 0.27788
# Poissons Ratio (z) = 0.09513 0.50042
#
# Static dielectric constant tensor:
#      x y z
#    x 2.012000 0.000000 -0.169410 
#    y 0.000000 2.095670 0.000000 
#    z -0.169410 0.000000 2.158380 
# 
# From -- ./inp_files/254181.got.cif
#   From: 2010.05.17/outbox.cif.g08.bks.cpg/sg15_128_cif.got.tgz:254181.got - 2010.06.03 18:47:42.
