data_PCOD9306916
_publ_section_title
;
Structure prediction by ZEFSAII (Michael W. Deem and Ramdas Pophale) SiO2 
 PCOD9306916
Probable space group: C 2/C
;
_chemical_formula_sum "Si O2"
_cell_formula_units_Z 52
_cell_length_a 20.404339
_cell_length_b 5.993415
_cell_length_c 24.970748
_cell_angle_alpha 90.000000
_cell_angle_beta 128.978881
_cell_angle_gamma 90.000000
_cell_volume 2373.890092
_symmetry_space_group_name_H-M "C 2/C"
_symmetry_group_IT_number 15
_symmetry_cell_setting 'monoclinic'
loop_
_space_group_symop_operation_xyz
x,y,z
-x,y,1/2-z
-x,-y,-z
x,-y,1/2+z
1/2+x,1/2+y,z
1/2-x,1/2+y,1/2-z
1/2-x,1/2-y,-z
1/2+x,1/2-y,1/2+z
loop_
_atom_site_type_symbol
_atom_site_label
_atom_site_fract_x
_atom_site_fract_y
_atom_site_fract_z
Si Si1 0.843938 0.653476 0.791756
Si Si2 0.940123 0.260845 0.800535
Si Si3 0.955245 0.248699 0.986635
Si Si4 0.876900 0.067250 0.172549
Si Si5 0.500000 0.056340 0.750000
Si Si6 0.524204 0.602770 0.389059
Si Si7 0.283852 0.097002 0.352943
O O1 0.862222 0.404280 0.780143
O O2 0.777356 0.778361 0.720662
O O3 0.813390 0.625562 0.837064
O O4 0.935235 0.768316 0.836575
O O5 0.009071 0.415339 0.807835
O O6 0.911641 0.106276 0.735511
O O7 0.985237 0.145470 0.873675
O O8 0.866771 0.266871 0.910456
O O9 0.935032 0.220894 0.039683
O O10 0.000000 0.500000 0.000000
O O11 0.000000 0.000000 0.000000
O O12 0.916605 0.299240 0.213233
O O13 0.917659 0.068310 0.133993
O O14 0.776873 0.056495 0.127330
#
# Coordination Sequence:
#
# PCOD9306916 Si02
#       7
#     8   8   8   8   4   8   8
#     4  12  25  42  73 106 141 190 243 306 370 431
#     4  12  20  39  72 105 145 188 242 303 360 442
#     4  12  30  54  74 103 152 201 245 304 381 456
#     4  12  22  40  68 110 142 183 244 307 358 434
#     4  12  18  38  64 106 150 178 228 314 366 424
#     4  12  24  44  74 104 143 199 238 287 386 448
#     4  12  26  45  72 109 145 184 252 315 359 438
#
# _framework density 21.904972999999998
#
# number of rings (size 3 to 8) (size 9 to 14) (size 15 to 20)
#    0.000    0.000    9.231    1.846    2.154    1.846 
#    0.000    0.000    0.000    3.692    0.000    0.000 
#    0.000    0.000    0.000    0.000    0.000    0.000 
#
# Total GULP energy -144753.250906 kJ/mol
# GULP energy per Si atom -5567.432727 kJ/mol
# Density = 2.185512 g / cm^3
# Si number density = 21.904973 Si / 1000 Ang^3
#
#
#
# Elastic Constant Matrix: (Units=GPa)
#
#
# Indices 1 2 3 4 5 6 
#
# 1 163.1366 32.7139 20.5967 -0.0002 4.3467 0.0000
# 2 32.7139 65.9865 -8.8560 -0.0005 2.6032 -0.0002
# 3 20.5967 -8.8560 57.6726 -0.0002 8.5272 -0.0001
# 4 -0.0002 -0.0005 -0.0002 9.3781 0.0001 1.8894
# 5 4.3467 2.6032 8.5272 0.0001 29.6286 0.0000
# 6 0.0000 -0.0002 -0.0001 1.8894 0.0000 31.0407
#
#
#
# Elastic Compliance Matrix: (Units=1/GPa)
#
#
# Indices 1 2 3 4 5 6 
#
# 1 0.007362 -0.004101 -0.003292 0.000000 0.000228 0.000000
# 2 -0.004101 0.017888 0.004548 0.000001 -0.002279 0.000000
# 3 -0.003292 0.004548 0.020055 0.000001 -0.005688 0.000000
# 4 0.000000 0.000001 0.000001 0.107956 0.000000 -0.006571
# 5 0.000228 -0.002279 -0.005688 0.000000 0.035555 0.000000
# 6 0.000000 0.000000 0.000000 -0.006571 0.000000 0.032616
#
#
# Mechanical properties :
#
#
# Convention : Reuss Voigt Hill
#
# Bulk Modulus (GPa) = 25.24323 41.74498 33.49411
# Shear Modulus (GPa) = 20.80512 30.16554 25.48533
#
# Velocity S-wave (km/s) = 3.08521 3.71497 3.41464
# Velocity P-wave (km/s) = 4.92345 6.12372 5.55609
#
# Compressibility (1/GPa) = 0.03961458
#
# Stress axis : x y z
#
# Youngs Moduli (GPa) = 135.83744 55.90377 49.86388
#
# Poissons Ratio (x) = 0.22924 0.16418
# Poissons Ratio (y) = 0.55701 -0.22679
# Poissons Ratio (z) = 0.44724 -0.25426
#
# Static dielectric constant tensor:
#      x y z
#    x 1.906610 0.000000 -0.063400 
#    y 0.000000 2.002530 0.000000 
#    z -0.063400 0.000000 1.781750 
# 
# From -- ./inp_files/300153.got.cif
#   From: 2010.05.17/outbox.cif.g08.bks.cpg/sg15_151_cif.got.tgz:300153.got - 2010.06.03 18:47:42.
