data_PCOD9306495
_publ_section_title
;
Structure prediction by ZEFSAII (Michael W. Deem and Ramdas Pophale) SiO2 
 PCOD9306495
Probable space group: C 2/C
;
_chemical_formula_sum "Si O2"
_cell_formula_units_Z 28
_cell_length_a 17.125027
_cell_length_b 7.021042
_cell_length_c 25.577423
_cell_angle_alpha 90.000000
_cell_angle_beta 19.319318
_cell_angle_gamma 90.000000
_cell_volume 1017.414457
_symmetry_space_group_name_H-M "C 2/C"
_symmetry_group_IT_number 15
_symmetry_cell_setting 'monoclinic'
loop_
_space_group_symop_operation_xyz
x,y,z
-x,y,1/2-z
-x,-y,-z
x,-y,1/2+z
1/2+x,1/2+y,z
1/2-x,1/2+y,1/2-z
1/2-x,1/2-y,-z
1/2+x,1/2-y,1/2+z
loop_
_atom_site_type_symbol
_atom_site_label
_atom_site_fract_x
_atom_site_fract_y
_atom_site_fract_z
Si Si1 0.425133 0.765683 0.149924
Si Si2 0.000000 0.111817 0.750000
Si Si3 0.261103 0.478078 0.496017
Si Si4 0.539095 0.717902 0.491686
O O1 0.603662 0.585902 0.043767
O O2 0.442519 0.818467 0.077522
O O3 0.520041 0.926899 0.130056
O O4 0.333810 0.225998 0.162872
O O5 0.927983 0.974658 0.841737
O O6 0.786875 0.239988 0.863616
O O7 0.250000 0.250000 0.500000
O O8 0.500000 0.500000 0.500000
#
# Coordination Sequence:
#
# PCOD9306495 Si02
#       4
#     8   4   8   8
#     4  11  28  51  80 120 166 215 276 343 418 486
#     4  12  28  46  80 108 162 218 274 320 420 488
#     4  11  25  49  81 117 161 211 276 342 412 499
#     4  12  29  50  83 120 166 220 281 347 414 505
#
# _framework density 27.520741999999998
#
# number of rings (size 3 to 8) (size 9 to 14) (size 15 to 20)
#    0.000    0.571    0.000    5.143   12.000    8.000 
#    0.000    0.000    0.000    0.000    0.000    0.000 
#    0.000    0.000    0.000    0.000    0.000    0.000 
#
# Total GULP energy -78443.958165 kJ/mol
# GULP energy per Si atom -5603.139869 kJ/mol
# Density = 2.745810 g / cm^3
# Si number density = 27.520742 Si / 1000 Ang^3
#
#
#
# Elastic Constant Matrix: (Units=GPa)
#
#
# Indices 1 2 3 4 5 6 
#
# 1 219.3972 32.7312 71.8736 0.0002 -15.9907 0.0076
# 2 32.7312 137.7570 12.4408 0.0052 -31.3876 -0.0029
# 3 71.8736 12.4408 167.7397 -0.0063 -17.0046 0.0016
# 4 0.0002 0.0052 -0.0063 35.5349 0.0143 6.0865
# 5 -15.9907 -31.3876 -17.0046 0.0143 69.3694 -0.0055
# 6 0.0076 -0.0029 0.0016 6.0865 -0.0055 33.7118
#
#
#
# Elastic Compliance Matrix: (Units=1/GPa)
#
#
# Indices 1 2 3 4 5 6 
#
# 1 0.005465 -0.001042 -0.002240 0.000000 0.000239 -0.000001
# 2 -0.001042 0.008301 0.000192 -0.000003 0.003563 0.000002
# 3 -0.002240 0.000192 0.007039 0.000001 0.001296 0.000000
# 4 0.000000 -0.000003 0.000001 0.029039 -0.000008 -0.005243
# 5 0.000239 0.003563 0.001296 -0.000008 0.016401 0.000004
# 6 -0.000001 0.000002 0.000000 -0.005243 0.000004 0.030610
#
#
# Mechanical properties :
#
#
# Convention : Reuss Voigt Hill
#
# Bulk Modulus (GPa) = 68.37703 84.33168 76.35436
# Shear Modulus (GPa) = 46.33564 54.91310 50.62437
#
# Velocity S-wave (km/s) = 4.10770 4.47176 4.29359
# Velocity P-wave (km/s) = 6.88456 7.57441 7.23771
#
# Compressibility (1/GPa) = 0.01462479
#
# Stress axis : x y z
#
# Youngs Moduli (GPa) = 182.99677 120.46562 142.07485
#
# Poissons Ratio (x) = 0.12547 0.31824
# Poissons Ratio (y) = 0.19061 -0.02725
# Poissons Ratio (z) = 0.40991 -0.02311
#
# Static dielectric constant tensor:
#      x y z
#    x 2.214570 0.000010 0.006480 
#    y 0.000010 2.235670 0.000020 
#    z 0.006480 0.000020 2.245570 
# 
# From -- ./inp_files/297370.got.cif
#   From: 2010.05.17/outbox.cif.g08.bks.cpg/sg15_149_cif.got.tgz:297370.got - 2010.06.03 18:47:42.
