data_PCOD9306902
_publ_section_title
;
Structure prediction by ZEFSAII (Michael W. Deem and Ramdas Pophale) SiO2 
 PCOD9306902
Probable space group: C 2/C
;
_chemical_formula_sum "Si O2"
_cell_formula_units_Z 28
_cell_length_a 12.934870
_cell_length_b 5.136244
_cell_length_c 19.211999
_cell_angle_alpha 90.000000
_cell_angle_beta 66.188932
_cell_angle_gamma 90.000000
_cell_volume 1167.737453
_symmetry_space_group_name_H-M "C 2/C"
_symmetry_group_IT_number 15
_symmetry_cell_setting 'monoclinic'
loop_
_space_group_symop_operation_xyz
x,y,z
-x,y,1/2-z
-x,-y,-z
x,-y,1/2+z
1/2+x,1/2+y,z
1/2-x,1/2+y,1/2-z
1/2-x,1/2-y,-z
1/2+x,1/2-y,1/2+z
loop_
_atom_site_type_symbol
_atom_site_label
_atom_site_fract_x
_atom_site_fract_y
_atom_site_fract_z
Si Si1 0.324128 0.805907 0.378119
Si Si2 0.576615 0.245147 0.494024
Si Si3 0.500000 0.446680 0.250000
Si Si4 0.189762 0.342008 0.738832
O O1 0.377903 0.781676 0.439417
O O2 0.191969 0.733883 0.417869
O O3 0.404952 0.627512 0.309335
O O4 0.318724 0.084400 0.340616
O O5 0.500000 0.500000 0.500000
O O6 0.500000 0.000000 0.500000
O O7 0.434408 0.269021 0.211682
O O8 0.224589 0.609804 0.766424
#
# Coordination Sequence:
#
# PCOD9306902 Si02
#       4
#     8   8   4   8
#     4  11  29  51  78 116 152 198 264 308 382 463
#     4  11  30  51  80 106 153 208 255 313 376 451
#     4  12  28  48  80 118 156 194 258 324 382 458
#     4  12  28  46  75 116 155 200 245 317 392 452
#
# _framework density 23.977990999999999
#
# number of rings (size 3 to 8) (size 9 to 14) (size 15 to 20)
#    0.000    0.571    2.857    0.857   12.000    4.571 
#    0.000    0.000    0.000    0.000    0.000    0.000 
#    0.000    0.000    0.000    0.000    0.000    0.000 
#
# Total GULP energy -78340.132795 kJ/mol
# GULP energy per Si atom -5595.723771 kJ/mol
# Density = 2.392342 g / cm^3
# Si number density = 23.977991 Si / 1000 Ang^3
#
#
#
# Elastic Constant Matrix: (Units=GPa)
#
#
# Indices 1 2 3 4 5 6 
#
# 1 219.8777 115.8820 73.1245 0.0001 -28.4591 0.0006
# 2 115.8820 205.2562 60.1768 0.0002 -22.2264 0.0012
# 3 73.1245 60.1768 105.3981 0.0000 -29.2311 0.0001
# 4 0.0001 0.0002 0.0000 22.8126 0.0000 -6.1414
# 5 -28.4591 -22.2264 -29.2311 0.0000 45.9613 0.0002
# 6 0.0006 0.0012 0.0001 -6.1414 0.0002 59.9434
#
#
#
# Elastic Compliance Matrix: (Units=1/GPa)
#
#
# Indices 1 2 3 4 5 6 
#
# 1 0.007347 -0.003151 -0.002986 0.000000 0.001127 0.000000
# 2 -0.003151 0.007230 -0.001838 0.000000 0.000377 0.000000
# 3 -0.002986 -0.001838 0.014387 0.000000 0.006412 0.000000
# 4 0.000000 0.000000 0.000000 0.045079 0.000000 0.004618
# 5 0.001127 0.000377 0.006412 0.000000 0.026716 0.000000
# 6 0.000000 0.000000 0.000000 0.004618 0.000000 0.017156
#
#
# Mechanical properties :
#
#
# Convention : Reuss Voigt Hill
#
# Bulk Modulus (GPa) = 76.82953 114.32207 95.57580
# Shear Modulus (GPa) = 36.17867 44.50004 40.33935
#
# Velocity S-wave (km/s) = 3.88858 4.31265 4.10609
# Velocity P-wave (km/s) = 7.22998 8.51939 7.90103
#
# Compressibility (1/GPa) = 0.01301583
#
# Stress axis : x y z
#
# Youngs Moduli (GPa) = 136.10190 138.30655 69.50533
#
# Poissons Ratio (x) = 0.43575 0.20756
# Poissons Ratio (y) = 0.42881 0.12773
# Poissons Ratio (z) = 0.40644 0.25417
#
# Static dielectric constant tensor:
#      x y z
#    x 3.125730 -0.000050 -0.289650 
#    y -0.000050 2.078570 0.000020 
#    z -0.289650 0.000020 2.089770 
# 
# From -- ./inp_files/235173.got.cif
#   From: 2010.05.17/outbox.cif.g08.bks.cpg/sg15_118_cif.got.tgz:235173.got - 2010.06.03 18:47:42.
