data_PCOD9306528
_publ_section_title
;
Structure prediction by ZEFSAII (Michael W. Deem and Ramdas Pophale) SiO2 
 PCOD9306528
Probable space group: C 2/C
;
_chemical_formula_sum "Si O2"
_cell_formula_units_Z 32
_cell_length_a 29.051027
_cell_length_b 10.830528
_cell_length_c 8.811902
_cell_angle_alpha 90.000000
_cell_angle_beta 150.062691
_cell_angle_gamma 90.000000
_cell_volume 1383.651406
_symmetry_space_group_name_H-M "C 2/C"
_symmetry_group_IT_number 15
_symmetry_cell_setting 'monoclinic'
loop_
_space_group_symop_operation_xyz
x,y,z
-x,y,1/2-z
-x,-y,-z
x,-y,1/2+z
1/2+x,1/2+y,z
1/2-x,1/2+y,1/2-z
1/2-x,1/2-y,-z
1/2+x,1/2-y,1/2+z
loop_
_atom_site_type_symbol
_atom_site_label
_atom_site_fract_x
_atom_site_fract_y
_atom_site_fract_z
Si Si1 0.707195 0.737527 0.210917
Si Si2 0.549582 0.129476 0.108258
Si Si3 0.432048 0.473843 0.168611
Si Si4 0.882536 0.246116 0.000218
O O1 0.750000 0.750000 0.500000
O O2 0.785892 0.745133 0.308385
O O3 0.627615 0.838665 0.953168
O O4 0.655820 0.607219 0.045799
O O5 0.600343 0.159559 0.090909
O O6 0.463382 0.222501 0.850848
O O7 0.500000 0.000000 0.000000
O O8 0.500000 0.402766 0.250000
O O9 0.500000 0.500000 0.500000
O O10 0.399187 0.603808 0.002210
#
# Coordination Sequence:
#
# PCOD9306528 Si02
#       4
#     8   8   8   8
#     4  12  28  45  77 121 153 197 262 318 393 464
#     4  11  26  51  77 107 158 206 258 321 396 461
#     4  12  23  49  77 104 155 203 256 314 383 468
#     4  11  25  51  76 109 150 211 259 317 388 462
#
# _framework density 23.127213999999999
#
# number of rings (size 3 to 8) (size 9 to 14) (size 15 to 20)
#    0.000    0.500    5.000    2.250    3.500    4.000 
#    0.000    0.000    0.000    0.000    0.000    0.000 
#    0.000    0.000    0.000    0.000    0.000    0.000 
#
# Total GULP energy -89449.250340 kJ/mol
# GULP energy per Si atom -5590.578146 kJ/mol
# Density = 2.307458 g / cm^3
# Si number density = 23.127214 Si / 1000 Ang^3
#
#
#
# Elastic Constant Matrix: (Units=GPa)
#
#
# Indices 1 2 3 4 5 6 
#
# 1 118.3409 70.3597 67.5874 0.0000 20.1292 0.0000
# 2 70.3597 136.8317 56.6780 0.0000 14.2945 0.0000
# 3 67.5874 56.6780 187.0440 0.0000 -1.7613 0.0000
# 4 0.0000 0.0000 0.0000 36.2007 0.0000 9.2334
# 5 20.1292 14.2945 -1.7613 0.0000 55.1211 0.0000
# 6 0.0000 0.0000 0.0000 9.2334 0.0000 36.5381
#
#
#
# Elastic Compliance Matrix: (Units=1/GPa)
#
#
# Indices 1 2 3 4 5 6 
#
# 1 0.014465 -0.005539 -0.003586 0.000000 -0.003960 0.000000
# 2 -0.005539 0.010766 -0.001269 0.000000 -0.000810 0.000000
# 3 -0.003586 -0.001269 0.007044 0.000000 0.001863 0.000000
# 4 0.000000 0.000000 0.000000 0.029527 0.000000 -0.007462
# 5 -0.003960 -0.000810 0.001863 0.000000 0.019858 0.000000
# 6 0.000000 0.000000 0.000000 -0.007462 0.000000 0.029254
#
#
# Mechanical properties :
#
#
# Convention : Reuss Voigt Hill
#
# Bulk Modulus (GPa) = 87.04097 92.38520 89.71308
# Shear Modulus (GPa) = 36.89208 42.07808 39.48508
#
# Velocity S-wave (km/s) = 3.99830 4.27009 4.13643
# Velocity P-wave (km/s) = 7.68327 8.02152 7.85422
#
# Compressibility (1/GPa) = 0.01148884
#
# Stress axis : x y z
#
# Youngs Moduli (GPa) = 69.13295 92.88072 141.96533
#
# Poissons Ratio (x) = 0.51446 0.50904
# Poissons Ratio (y) = 0.38292 0.18010
# Poissons Ratio (z) = 0.24789 0.11783
#
# Static dielectric constant tensor:
#      x y z
#    x 1.931390 0.000000 -0.047410 
#    y 0.000000 1.875330 0.000000 
#    z -0.047410 0.000000 1.894160 
# 
# From -- ./inp_files/69265.got.cif
#   From: 2010.05.17/outbox.cif.g08.bks.cpg/sg15_35_cif.got.tgz:69265.got - 2010.06.03 18:47:42.
