data_PCOD9306328
_publ_section_title
;
Structure prediction by ZEFSAII (Michael W. Deem and Ramdas Pophale) SiO2 
 PCOD9306328
Probable space group: C 2/C
;
_chemical_formula_sum "Si O2"
_cell_formula_units_Z 20
_cell_length_a 12.657211
_cell_length_b 6.753975
_cell_length_c 13.252289
_cell_angle_alpha 90.000000
_cell_angle_beta 138.256141
_cell_angle_gamma 90.000000
_cell_volume 754.281170
_symmetry_space_group_name_H-M "C 2/C"
_symmetry_group_IT_number 15
_symmetry_cell_setting 'monoclinic'
loop_
_space_group_symop_operation_xyz
x,y,z
-x,y,1/2-z
-x,-y,-z
x,-y,1/2+z
1/2+x,1/2+y,z
1/2-x,1/2+y,1/2-z
1/2-x,1/2-y,-z
1/2+x,1/2-y,1/2+z
loop_
_atom_site_type_symbol
_atom_site_label
_atom_site_fract_x
_atom_site_fract_y
_atom_site_fract_z
Si Si1 0.000000 0.942030 0.250000
Si Si2 0.009534 0.764451 0.922239
Si Si3 0.826922 0.627384 0.260814
O O1 0.879605 0.798095 0.221720
O O2 0.078206 0.088802 0.387401
O O3 0.923634 0.573284 0.810691
O O4 0.862490 0.876325 0.872410
O O5 0.124381 0.683958 0.089916
#
# Coordination Sequence:
#
# PCOD9306328 Si02
#       3
#     4   8   8
#     4  12  24  44  74  96 134 184 216 274 344 384
#     4  11  25  47  68 100 138 173 225 278 327 400
#     4  11  25  47  68 100 138 173 225 278 327 400
#
# _framework density 26.515309999999999
#
# number of rings (size 3 to 8) (size 9 to 14) (size 15 to 20)
#    0.000    0.800    4.000    2.400    0.000    3.200 
#    0.000    0.000    0.000    0.000    0.000    0.000 
#    0.000    0.000    0.000    0.000    0.000    0.000 
#
# Total GULP energy -56117.254996 kJ/mol
# GULP energy per Si atom -5611.725500 kJ/mol
# Density = 2.645496 g / cm^3
# Si number density = 26.515310 Si / 1000 Ang^3
#
#
#
# Elastic Constant Matrix: (Units=GPa)
#
#
# Indices 1 2 3 4 5 6 
#
# 1 93.3629 53.4178 48.4236 0.0000 -22.9819 0.0000
# 2 53.4178 181.4770 27.6615 0.0000 -24.5527 0.0000
# 3 48.4236 27.6615 118.1434 0.0000 8.8114 0.0000
# 4 0.0000 0.0000 0.0000 51.1362 0.0000 -21.1163
# 5 -22.9819 -24.5527 8.8114 0.0000 41.1801 0.0000
# 6 0.0000 0.0000 0.0000 -21.1163 0.0000 70.1604
#
#
#
# Elastic Compliance Matrix: (Units=1/GPa)
#
#
# Indices 1 2 3 4 5 6 
#
# 1 0.019151 -0.002992 -0.007939 0.000000 0.010602 0.000000
# 2 -0.002992 0.006816 -0.000557 0.000000 0.002513 0.000000
# 3 -0.007939 -0.000557 0.012402 0.000000 -0.007417 0.000000
# 4 0.000000 0.000000 0.000000 0.022331 0.000000 0.006721
# 5 0.010602 0.002513 -0.007417 0.000000 0.033286 0.000000
# 6 0.000000 0.000000 0.000000 0.006721 0.000000 0.016276
#
#
# Mechanical properties :
#
#
# Convention : Reuss Voigt Hill
#
# Bulk Modulus (GPa) = 64.97145 72.44323 68.70734
# Shear Modulus (GPa) = 36.13522 50.06072 43.09797
#
# Velocity S-wave (km/s) = 3.69562 4.34982 4.03600
# Velocity P-wave (km/s) = 6.53963 7.25317 6.90562
#
# Compressibility (1/GPa) = 0.01539138
#
# Stress axis : x y z
#
# Youngs Moduli (GPa) = 52.21734 146.71315 80.63245
#
# Poissons Ratio (x) = 0.43903 0.64018
# Poissons Ratio (y) = 0.15626 0.04490
# Poissons Ratio (z) = 0.41458 0.08169
#
# Static dielectric constant tensor:
#      x y z
#    x 2.024270 0.000000 -0.017470 
#    y 0.000000 2.151540 0.000000 
#    z -0.017470 0.000000 2.033850 
# 
# From -- ./inp_files/26434.got.cif
#   From: 2010.05.17/outbox.cif.g08.bks.cpg/sg15_14_cif.got.tgz:26434.got - 2010.06.03 18:47:42.
