data_PCOD9306710
_publ_section_title
;
Structure prediction by ZEFSAII (Michael W. Deem and Ramdas Pophale) SiO2 
 PCOD9306710
Probable space group: C 2/C
;
_chemical_formula_sum "Si O2"
_cell_formula_units_Z 44
_cell_length_a 5.295524
_cell_length_b 14.203298
_cell_length_c 27.427469
_cell_angle_alpha 90.000000
_cell_angle_beta 61.344615
_cell_angle_gamma 90.000000
_cell_volume 1810.259418
_symmetry_space_group_name_H-M "C 2/C"
_symmetry_group_IT_number 15
_symmetry_cell_setting 'monoclinic'
loop_
_space_group_symop_operation_xyz
x,y,z
-x,y,1/2-z
-x,-y,-z
x,-y,1/2+z
1/2+x,1/2+y,z
1/2-x,1/2+y,1/2-z
1/2-x,1/2-y,-z
1/2+x,1/2-y,1/2+z
loop_
_atom_site_type_symbol
_atom_site_label
_atom_site_fract_x
_atom_site_fract_y
_atom_site_fract_z
Si Si1 0.829226 0.902751 0.476256
Si Si2 0.953183 0.900439 0.570986
Si Si3 0.507678 0.045168 0.192461
Si Si4 0.960394 0.310495 0.426185
Si Si5 0.500000 0.328330 0.750000
Si Si6 0.194144 0.340158 0.300877
O O1 0.754956 0.896440 0.540434
O O2 0.632174 0.846754 0.457261
O O3 0.160673 0.864308 0.444262
O O4 0.842114 0.011085 0.458129
O O5 0.769053 0.919993 0.635937
O O6 0.099228 0.799777 0.562426
O O7 0.500000 0.069461 0.250000
O O8 0.224683 0.102445 0.202321
O O9 0.498403 0.932426 0.189966
O O10 0.173214 0.323061 0.360327
O O11 0.389631 0.254655 0.719546
O O12 0.500000 0.367509 0.250000
#
# Coordination Sequence:
#
# PCOD9306710 Si02
#       6
#     8   8   8   8   4   8
#     4  11  28  50  75 116 147 204 248 316 366 450
#     4  11  26  48  77 108 154 193 259 305 381 444
#     4  12  26  48  74 110 142 198 244 315 372 450
#     4  12  27  49  78 108 154 199 253 308 380 441
#     4  12  26  48  76 100 150 192 252 302 396 428
#     4  12  27  46  74 108 149 194 250 315 369 456
#
# _framework density 24.305910000000001
#
# number of rings (size 3 to 8) (size 9 to 14) (size 15 to 20)
#    0.000    0.364    3.636    3.818    7.636    5.818 
#    3.273    0.000    0.000    0.000    0.000    0.000 
#    0.000    0.000    0.000    0.000    0.000    0.000 
#
# Total GULP energy -123283.198071 kJ/mol
# GULP energy per Si atom -5603.781731 kJ/mol
# Density = 2.425059 g / cm^3
# Si number density = 24.305910 Si / 1000 Ang^3
#
#
#
# Elastic Constant Matrix: (Units=GPa)
#
#
# Indices 1 2 3 4 5 6 
#
# 1 68.1057 19.8940 39.3298 -0.0001 1.7663 0.0001
# 2 19.8940 166.2105 29.2257 0.0000 -3.0804 0.0000
# 3 39.3298 29.2257 186.7836 -0.0001 17.2569 0.0000
# 4 -0.0001 0.0000 -0.0001 4.1884 0.0001 -11.9335
# 5 1.7663 -3.0804 17.2569 0.0001 25.3437 0.0000
# 6 0.0001 0.0000 0.0000 -11.9335 0.0000 22.0760
#
#
#
# Elastic Compliance Matrix: (Units=1/GPa)
#
#
# Indices 1 2 3 4 5 6 
#
# 1 0.017072 -0.001416 -0.003465 -0.000001 0.000998 0.000000
# 2 -0.001416 0.006358 -0.000830 0.000000 0.001436 0.000000
# 3 -0.003465 -0.000830 0.006617 0.000000 -0.004365 0.000000
# 4 -0.000001 0.000000 0.000000 -0.442003 0.000001 -0.238931
# 5 0.000998 0.001436 -0.004365 0.000001 0.042534 0.000001
# 6 0.000000 0.000000 0.000000 -0.238931 0.000001 -0.083860
#
#
# Mechanical properties :
#
#
# Convention : Reuss Voigt Hill
#
# Bulk Modulus (GPa) = 53.68886 66.44431 60.06658
# Shear Modulus (GPa) = -11.47705 32.49832 10.51064
#
# Velocity S-wave (km/s) = -2.17535 3.66054 2.08175
# Velocity P-wave (km/s) = 3.97834 6.72771 5.52672
#
# Compressibility (1/GPa) = 0.01862584
#
# Stress axis : x y z
#
# Youngs Moduli (GPa) = 58.57590 157.27290 151.13705
#
# Poissons Ratio (x) = 0.22262 0.52375
# Poissons Ratio (y) = 0.08292 0.12537
# Poissons Ratio (z) = 0.20299 0.13046
#
# Static dielectric constant tensor:
#      x y z
#    x 2.009410 0.000000 0.033240 
#    y 0.000000 1.884420 0.000000 
#    z 0.033240 0.000000 1.917170 
# 
# From -- ./inp_files/285440.got.cif
#   From: 2010.05.17/outbox.cif.g08.bks.cpg/sg15_143_cif.got.tgz:285440.got - 2010.06.03 18:47:42.
