data_PCOD9306113
_publ_section_title
;
Structure prediction by ZEFSAII (Michael W. Deem and Ramdas Pophale) SiO2 
 PCOD9306113
Probable space group: C 2/C
;
_chemical_formula_sum "Si O2"
_cell_formula_units_Z 56
_cell_length_a 14.835079
_cell_length_b 11.830215
_cell_length_c 14.055851
_cell_angle_alpha 90.000000
_cell_angle_beta 83.556932
_cell_angle_gamma 90.000000
_cell_volume 2451.251525
_symmetry_space_group_name_H-M "C 2/C"
_symmetry_group_IT_number 15
_symmetry_cell_setting 'monoclinic'
loop_
_space_group_symop_operation_xyz
x,y,z
-x,y,1/2-z
-x,-y,-z
x,-y,1/2+z
1/2+x,1/2+y,z
1/2-x,1/2+y,1/2-z
1/2-x,1/2-y,-z
1/2+x,1/2-y,1/2+z
loop_
_atom_site_type_symbol
_atom_site_label
_atom_site_fract_x
_atom_site_fract_y
_atom_site_fract_z
Si Si1 0.580059 0.939553 0.358354
Si Si2 0.212180 0.517466 0.175836
Si Si3 0.158633 0.680025 0.028454
Si Si4 0.717969 0.125233 0.483797
Si Si5 0.000000 0.755553 0.750000
Si Si6 0.138477 0.951306 0.690238
Si Si7 0.532293 0.820568 0.898782
Si Si8 0.500000 0.355594 0.250000
O O1 0.646802 0.970864 0.264737
O O2 0.638912 0.910176 0.445688
O O3 0.528850 0.827276 0.331738
O O4 0.512438 0.047167 0.373832
O O5 0.175238 0.631031 0.131890
O O6 0.307117 0.535451 0.217336
O O7 0.217828 0.437008 0.084528
O O8 0.058018 0.732735 0.044676
O O9 0.250000 0.750000 0.000000
O O10 0.750000 0.250000 0.500000
O O11 0.788788 0.066203 0.402445
O O12 0.619247 0.150659 0.451114
O O13 0.079509 0.837900 0.706158
O O14 0.071505 0.059340 0.690752
O O15 0.552700 0.731532 0.813272
#
# Coordination Sequence:
#
# PCOD9306113 Si02
#       8
#     8   8   8   8   4   8   8   4
#     4  12  25  48  75 111 151 192 260 320 385 455
#     4  12  24  48  74 103 150 196 251 310 377 451
#     4  12  28  45  75 113 152 197 255 318 384 461
#     4  12  27  47  76 110 151 204 257 312 378 463
#     4  11  25  44  76 108 147 201 246 324 384 447
#     4  11  26  51  72 112 154 202 259 311 387 457
#     4  12  26  47  77 113 150 201 252 313 388 454
#     4  11  27  48  78 110 161 205 254 316 388 467
#
# _framework density 22.845472999999998
#
# number of rings (size 3 to 8) (size 9 to 14) (size 15 to 20)
#    0.000    0.286    2.857    5.143    8.000    0.000 
#    0.000    2.143    0.000    0.000    0.000    0.000 
#    0.000    0.000    0.000    0.000    0.000    0.000 
#
# Total GULP energy -156460.297039 kJ/mol
# GULP energy per Si atom -5587.867751 kJ/mol
# Density = 2.279348 g / cm^3
# Si number density = 22.845473 Si / 1000 Ang^3
#
#
#
# Elastic Constant Matrix: (Units=GPa)
#
#
# Indices 1 2 3 4 5 6 
#
# 1 146.2663 65.5008 50.8227 0.0000 -9.1970 0.0000
# 2 65.5008 120.1290 44.7288 0.0000 2.0724 0.0000
# 3 50.8227 44.7288 126.6599 0.0000 -1.2258 0.0000
# 4 0.0000 0.0000 0.0000 28.5996 0.0000 3.7040
# 5 -9.1970 2.0724 -1.2258 0.0000 36.9410 0.0000
# 6 0.0000 0.0000 0.0000 3.7040 0.0000 42.2412
#
#
#
# Elastic Compliance Matrix: (Units=1/GPa)
#
#
# Indices 1 2 3 4 5 6 
#
# 1 0.009845 -0.004551 -0.002318 0.000000 0.002630 0.000000
# 2 -0.004551 0.011704 -0.002325 0.000000 -0.001867 0.000000
# 3 -0.002318 -0.002325 0.009645 0.000000 -0.000127 0.000000
# 4 0.000000 0.000000 0.000000 0.035367 0.000000 -0.003101
# 5 0.002630 -0.001867 -0.000127 0.000000 0.027825 0.000000
# 6 0.000000 0.000000 0.000000 -0.003101 0.000000 0.023945
#
#
# Mechanical properties :
#
#
# Convention : Reuss Voigt Hill
#
# Bulk Modulus (GPa) = 78.08457 79.46222 78.77340
# Shear Modulus (GPa) = 35.46387 37.02322 36.24355
#
# Velocity S-wave (km/s) = 3.94424 4.03003 3.98737
# Velocity P-wave (km/s) = 7.41596 7.51750 7.46690
#
# Compressibility (1/GPa) = 0.01280663
#
# Stress axis : x y z
#
# Youngs Moduli (GPa) = 101.56976 85.44441 103.67864
#
# Poissons Ratio (x) = 0.38882 0.24034
# Poissons Ratio (y) = 0.46219 0.24107
# Poissons Ratio (z) = 0.23545 0.19867
#
# Static dielectric constant tensor:
#      x y z
#    x 4.169970 0.000000 -0.028590 
#    y 0.000000 1.872180 0.000000 
#    z -0.028590 0.000000 1.882600 
# 
# From -- ./inp_files/152657.got.cif
#   From: 2010.05.17/outbox.cif.g08.bks.cpg/sg15_77_cif.got.tgz:152657.got - 2010.06.03 18:47:42.
