data_PCOD9306690
_publ_section_title
;
Structure prediction by ZEFSAII (Michael W. Deem and Ramdas Pophale) SiO2 
 PCOD9306690
Probable space group: C 2/C
;
_chemical_formula_sum "Si O2"
_cell_formula_units_Z 52
_cell_length_a 8.026020
_cell_length_b 16.283499
_cell_length_c 17.870579
_cell_angle_alpha 90.000000
_cell_angle_beta 113.862493
_cell_angle_gamma 90.000000
_cell_volume 2135.892119
_symmetry_space_group_name_H-M "C 2/C"
_symmetry_group_IT_number 15
_symmetry_cell_setting 'monoclinic'
loop_
_space_group_symop_operation_xyz
x,y,z
-x,y,1/2-z
-x,-y,-z
x,-y,1/2+z
1/2+x,1/2+y,z
1/2-x,1/2+y,1/2-z
1/2-x,1/2-y,-z
1/2+x,1/2-y,1/2+z
loop_
_atom_site_type_symbol
_atom_site_label
_atom_site_fract_x
_atom_site_fract_y
_atom_site_fract_z
Si Si1 0.612840 0.451944 0.656920
Si Si2 0.000000 0.823427 0.750000
Si Si3 0.975284 0.296753 0.125547
Si Si4 0.647426 0.569931 0.942268
Si Si5 0.927303 0.397380 0.610818
Si Si6 0.684389 0.956854 0.185370
Si Si7 0.956012 0.238614 0.951809
O O1 0.483184 0.392648 0.681583
O O2 0.483914 0.492768 0.573158
O O3 0.779773 0.403664 0.649959
O O4 0.696614 0.528100 0.719299
O O5 0.085575 0.756291 0.707471
O O6 0.761026 0.275115 0.095222
O O7 0.023067 0.390169 0.154835
O O8 0.008840 0.272166 0.044670
O O9 0.696765 0.570724 0.863603
O O10 0.557334 0.653900 0.953819
O O11 0.831560 0.560802 0.022063
O O12 0.099479 0.452800 0.660540
O O13 0.984398 0.306892 0.597160
#
# Coordination Sequence:
#
# PCOD9306690 Si02
#       7
#     8   4   8   8   8   8   8
#     4  12  27  49  72 107 153 191 249 302 374 441
#     4  12  26  46  72 104 140 198 234 298 362 442
#     4  11  27  46  76 100 154 186 248 299 372 434
#     4  12  25  47  74 108 145 189 249 305 363 434
#     4  12  26  46  77 107 146 194 253 300 368 438
#     4  12  26  48  71 108 150 195 236 308 369 437
#     4  11  26  48  73 111 138 194 247 307 361 433
#
# _framework density 24.345799
#
# number of rings (size 3 to 8) (size 9 to 14) (size 15 to 20)
#    0.000    0.308    3.077    4.615    6.462    1.231 
#    0.000    1.538    0.000    0.000    0.000    0.000 
#    0.000    0.000    0.000    0.000    0.000    0.000 
#
# Total GULP energy -145247.892669 kJ/mol
# GULP energy per Si atom -5586.457410 kJ/mol
# Density = 2.429039 g / cm^3
# Si number density = 24.345799 Si / 1000 Ang^3
#
#
#
# Elastic Constant Matrix: (Units=GPa)
#
#
# Indices 1 2 3 4 5 6 
#
# 1 85.1942 15.0568 6.7531 0.0000 3.2403 0.0000
# 2 15.0568 81.3495 17.2534 0.0000 -7.8440 0.0000
# 3 6.7531 17.2534 52.7199 0.0000 -17.3915 0.0000
# 4 0.0000 0.0000 0.0000 19.9836 0.0000 -18.3812
# 5 3.2403 -7.8440 -17.3915 0.0000 31.0568 0.0000
# 6 0.0000 0.0000 0.0000 -18.3812 0.0000 18.6513
#
#
#
# Elastic Compliance Matrix: (Units=1/GPa)
#
#
# Indices 1 2 3 4 5 6 
#
# 1 0.012376 -0.002181 -0.001814 0.000000 -0.002858 0.000000
# 2 -0.002181 0.013626 -0.003642 0.000000 0.001629 0.000000
# 3 -0.001814 -0.003642 0.024718 0.000000 0.013111 0.000000
# 4 0.000000 0.000000 0.000000 0.535162 0.000000 0.527411
# 5 -0.002858 0.001629 0.013111 0.000000 0.040251 0.000000
# 6 0.000000 0.000000 0.000000 0.527411 0.000000 0.573388
#
#
# Mechanical properties :
#
#
# Convention : Reuss Voigt Hill
#
# Bulk Modulus (GPa) = 28.21392 33.04338 30.62865
# Shear Modulus (GPa) = 4.07627 25.95169 15.01398
#
# Velocity S-wave (km/s) = 1.29536 3.26845 2.48603
# Velocity P-wave (km/s) = 3.72173 5.27690 4.56601
#
# Compressibility (1/GPa) = 0.03544350
#
# Stress axis : x y z
#
# Youngs Moduli (GPa) = 80.80195 73.38900 40.45690
#
# Poissons Ratio (x) = 0.16009 0.07340
# Poissons Ratio (y) = 0.17627 0.14736
# Poissons Ratio (z) = 0.14659 0.26731
#
# Static dielectric constant tensor:
#      x y z
#    x 2.014960 0.000000 0.037170 
#    y 0.000000 1.887310 0.000000 
#    z 0.037170 0.000000 1.993470 
# 
# From -- ./inp_files/191137.got.cif
#   From: 2010.05.17/outbox.cif.g08.bks.cpg/sg15_96_cif.got.tgz:191137.got - 2010.06.03 18:47:42.
