data_PCOD9306484
_publ_section_title
;
Structure prediction by ZEFSAII (Michael W. Deem and Ramdas Pophale) SiO2 
 PCOD9306484
Probable space group: C 2/C
;
_chemical_formula_sum "Si O2"
_cell_formula_units_Z 48
_cell_length_a 10.623977
_cell_length_b 20.705298
_cell_length_c 12.102296
_cell_angle_alpha 90.000000
_cell_angle_beta 130.217963
_cell_angle_gamma 90.000000
_cell_volume 2032.818833
_symmetry_space_group_name_H-M "C 2/C"
_symmetry_group_IT_number 15
_symmetry_cell_setting 'monoclinic'
loop_
_space_group_symop_operation_xyz
x,y,z
-x,y,1/2-z
-x,-y,-z
x,-y,1/2+z
1/2+x,1/2+y,z
1/2-x,1/2+y,1/2-z
1/2-x,1/2-y,-z
1/2+x,1/2-y,1/2+z
loop_
_atom_site_type_symbol
_atom_site_label
_atom_site_fract_x
_atom_site_fract_y
_atom_site_fract_z
Si Si1 0.676017 0.970354 0.078977
Si Si2 0.912505 0.065801 0.906142
Si Si3 0.288140 0.644930 0.515278
Si Si4 0.254704 0.250995 0.187440
Si Si5 0.671110 0.602393 0.404992
Si Si6 0.116720 0.720257 0.009112
O O1 0.760136 0.948213 0.240345
O O2 0.667237 0.911416 0.988213
O O3 0.791704 0.028030 0.100606
O O4 0.500000 0.000000 0.000000
O O5 0.044146 0.107037 0.913259
O O6 0.855126 0.106188 0.979362
O O7 0.000000 0.000000 0.000000
O O8 0.298737 0.695564 0.621445
O O9 0.241905 0.683880 0.378564
O O10 0.369379 0.247637 0.358830
O O11 0.071459 0.266892 0.129318
O O12 0.500000 0.622345 0.250000
O O13 0.823253 0.646118 0.452739
O O14 0.250000 0.750000 0.000000
#
# Coordination Sequence:
#
# PCOD9306484 Si02
#       6
#     8   8   8   8   8   8
#     4  12  27  46  72 112 149 187 248 313 377 450
#     4  12  24  46  77 105 145 196 246 303 375 455
#     4  11  25  49  76 106 148 199 251 303 368 450
#     4  11  28  47  76 110 150 199 255 308 370 442
#     4  12  24  46  73 107 147 198 248 304 381 450
#     4  12  26  48  73 108 153 194 250 310 372 446
#
# _framework density 23.612532000000002
#
# number of rings (size 3 to 8) (size 9 to 14) (size 15 to 20)
#    0.000    0.333    3.333    5.000    7.000    2.667 
#    6.000    0.000    0.000    0.000    0.000    0.000 
#    0.000    0.000    0.000    0.000    0.000    0.000 
#
# Total GULP energy -134621.209747 kJ/mol
# GULP energy per Si atom -5609.217073 kJ/mol
# Density = 2.355879 g / cm^3
# Si number density = 23.612532 Si / 1000 Ang^3
#
#
#
# Elastic Constant Matrix: (Units=GPa)
#
#
# Indices 1 2 3 4 5 6 
#
# 1 119.4257 28.2394 30.8429 0.0000 -5.9717 0.0000
# 2 28.2394 117.7115 22.3587 0.0000 -3.4281 0.0000
# 3 30.8429 22.3587 56.4859 0.0000 -5.1674 0.0000
# 4 0.0000 0.0000 0.0000 8.0766 0.0000 -12.2551
# 5 -5.9717 -3.4281 -5.1674 0.0000 39.4247 0.0000
# 6 0.0000 0.0000 0.0000 -12.2551 0.0000 52.5809
#
#
#
# Elastic Compliance Matrix: (Units=1/GPa)
#
#
# Indices 1 2 3 4 5 6 
#
# 1 0.010000 -0.001463 -0.004812 0.000000 0.000757 0.000000
# 2 -0.001463 0.009404 -0.002904 0.000000 0.000216 0.000000
# 3 -0.004812 -0.002904 0.021650 0.000000 0.001856 0.000000
# 4 0.000000 0.000000 0.000000 0.191561 0.000000 0.044647
# 5 0.000757 0.000216 0.001856 0.000000 0.025742 0.000000
# 6 0.000000 0.000000 0.000000 0.044647 0.000000 0.029424
#
#
# Mechanical properties :
#
#
# Convention : Reuss Voigt Hill
#
# Bulk Modulus (GPa) = 44.05918 50.72280 47.39099
# Shear Modulus (GPa) = 15.93856 34.16189 25.05022
#
# Velocity S-wave (km/s) = 2.60090 3.80777 3.26066
# Velocity P-wave (km/s) = 5.26492 6.39219 5.85574
#
# Compressibility (1/GPa) = 0.02269675
#
# Stress axis : x y z
#
# Youngs Moduli (GPa) = 100.00092 106.33572 46.18887
#
# Poissons Ratio (x) = 0.15557 0.22226
# Poissons Ratio (y) = 0.14630 0.13413
# Poissons Ratio (z) = 0.48120 0.30879
#
# Static dielectric constant tensor:
#      x y z
#    x 1.884460 0.000000 0.008900 
#    y 0.000000 1.957490 0.000000 
#    z 0.008900 0.000000 1.855840 
# 
# From -- ./inp_files/89798.got.cif
#   From: 2010.05.17/outbox.cif.g08.bks.cpg/sg15_45_cif.got.tgz:89798.got - 2010.06.03 18:47:42.
