data_PCOD9306287
_publ_section_title
;
Structure prediction by ZEFSAII (Michael W. Deem and Ramdas Pophale) SiO2 
 PCOD9306287
Probable space group: C 2/C
;
_chemical_formula_sum "Si O2"
_cell_formula_units_Z 32
_cell_length_a 23.993924
_cell_length_b 9.726763
_cell_length_c 12.375955
_cell_angle_alpha 90.000000
_cell_angle_beta 24.557040
_cell_angle_gamma 90.000000
_cell_volume 1200.391086
_symmetry_space_group_name_H-M "C 2/C"
_symmetry_group_IT_number 15
_symmetry_cell_setting 'monoclinic'
loop_
_space_group_symop_operation_xyz
x,y,z
-x,y,1/2-z
-x,-y,-z
x,-y,1/2+z
1/2+x,1/2+y,z
1/2-x,1/2+y,1/2-z
1/2-x,1/2-y,-z
1/2+x,1/2-y,1/2+z
loop_
_atom_site_type_symbol
_atom_site_label
_atom_site_fract_x
_atom_site_fract_y
_atom_site_fract_z
Si Si1 0.094189 0.128064 0.304918
Si Si2 0.859578 0.770243 0.548369
Si Si3 0.349322 0.946253 0.880675
Si Si4 0.583558 0.843732 0.961696
O O1 0.112370 0.232036 0.373977
O O2 0.015756 0.213215 0.351788
O O3 0.000000 0.000000 0.500000
O O4 0.237266 0.055188 0.040206
O O5 0.826462 0.639449 0.530497
O O6 0.719612 0.851797 0.788884
O O7 0.000000 0.826849 0.250000
O O8 0.363687 0.843605 0.754521
O O9 0.488779 0.026491 0.645526
#
# Coordination Sequence:
#
# PCOD9306287 Si02
#       4
#     8   8   8   8
#     4  12  25  45  75 111 150 191 249 304 371 448
#     4  12  25  43  71 103 146 195 240 299 374 429
#     4  11  25  46  74 104 147 191 247 302 371 438
#     4  11  25  46  74 105 147 190 241 311 364 442
#
# _framework density 26.657978
#
# number of rings (size 3 to 8) (size 9 to 14) (size 15 to 20)
#    0.000    0.500    5.000    3.000    3.500    0.000 
#    0.000    2.500    0.000    0.000    0.000    0.000 
#    0.000    0.000    0.000    0.000    0.000    0.000 
#
# Total GULP energy -89564.071267 kJ/mol
# GULP energy per Si atom -5597.754454 kJ/mol
# Density = 2.659730 g / cm^3
# Si number density = 26.657978 Si / 1000 Ang^3
#
#
#
# Elastic Constant Matrix: (Units=GPa)
#
#
# Indices 1 2 3 4 5 6 
#
# 1 115.1919 27.6097 44.3083 0.0000 -24.4205 0.0000
# 2 27.6097 89.0684 33.5988 0.0000 -3.3623 0.0000
# 3 44.3083 33.5988 178.1447 0.0000 -49.6701 0.0000
# 4 0.0000 0.0000 0.0000 65.2115 0.0000 1.2478
# 5 -24.4205 -3.3623 -49.6701 0.0000 49.6307 0.0000
# 6 0.0000 0.0000 0.0000 1.2478 0.0000 6.3407
#
#
#
# Elastic Compliance Matrix: (Units=1/GPa)
#
#
# Indices 1 2 3 4 5 6 
#
# 1 0.010575 -0.002753 -0.000988 0.000000 0.004028 0.000000
# 2 -0.002753 0.012953 -0.002623 0.000000 -0.003103 0.000000
# 3 -0.000988 -0.002623 0.008556 0.000000 0.007899 0.000000
# 4 0.000000 0.000000 0.000000 0.015393 0.000000 -0.003029
# 5 0.004028 -0.003103 0.007899 0.000000 0.029826 0.000000
# 6 0.000000 0.000000 0.000000 -0.003029 0.000000 0.158307
#
#
# Mechanical properties :
#
#
# Convention : Reuss Voigt Hill
#
# Bulk Modulus (GPa) = 51.66411 65.93762 58.80087
# Shear Modulus (GPa) = 19.62391 42.69580 31.15985
#
# Velocity S-wave (km/s) = 2.71613 4.00636 3.42259
# Velocity P-wave (km/s) = 5.40915 6.79629 6.14201
#
# Compressibility (1/GPa) = 0.01935580
#
# Stress axis : x y z
#
# Youngs Moduli (GPa) = 94.56215 77.20051 116.87210
#
# Poissons Ratio (x) = 0.21256 0.11544
# Poissons Ratio (y) = 0.26037 0.30659
# Poissons Ratio (z) = 0.09341 0.20252
#
# Static dielectric constant tensor:
#      x y z
#    x 2.094870 0.000000 -0.008630 
#    y 0.000000 2.072690 0.000000 
#    z -0.008630 0.000000 2.108610 
# 
# From -- ./inp_files/140729.got.cif
#   From: 2010.05.17/outbox.cif.g08.bks.cpg/sg15_71_cif.got.tgz:140729.got - 2010.06.03 18:47:42.
