data_PCOD9306135
_publ_section_title
;
Structure prediction by ZEFSAII (Michael W. Deem and Ramdas Pophale) SiO2 
 PCOD9306135
Probable space group: C 2/C
;
_chemical_formula_sum "Si O2"
_cell_formula_units_Z 40
_cell_length_a 15.648770
_cell_length_b 14.099214
_cell_length_c 12.924349
_cell_angle_alpha 90.000000
_cell_angle_beta 34.319971
_cell_angle_gamma 90.000000
_cell_volume 1607.754045
_symmetry_space_group_name_H-M "C 2/C"
_symmetry_group_IT_number 15
_symmetry_cell_setting 'monoclinic'
loop_
_space_group_symop_operation_xyz
x,y,z
-x,y,1/2-z
-x,-y,-z
x,-y,1/2+z
1/2+x,1/2+y,z
1/2-x,1/2+y,1/2-z
1/2-x,1/2-y,-z
1/2+x,1/2-y,1/2+z
loop_
_atom_site_type_symbol
_atom_site_label
_atom_site_fract_x
_atom_site_fract_y
_atom_site_fract_z
Si Si1 0.000000 0.527472 0.750000
Si Si2 0.545924 0.360965 0.855904
Si Si3 0.454076 0.139035 0.447752
Si Si4 0.808739 0.168079 0.066495
Si Si5 0.308739 0.831921 0.316027
Si Si6 0.500000 0.527472 0.750000
O O1 0.942058 0.458953 0.899044
O O2 0.866712 0.594602 0.842566
O O3 0.605825 0.362353 0.912876
O O4 0.637371 0.274409 0.712535
O O5 0.557942 0.458953 0.783161
O O6 0.368532 0.335665 0.029129
O O7 0.631468 0.164335 0.266193
O O8 0.362630 0.225591 0.487276
O O9 0.394175 0.137647 0.624526
O O10 0.866712 0.094602 0.924011
#
# Coordination Sequence:
#
# PCOD9306135 Si02
#       6
#     4   8   8   8   8   4
#     4  12  26  40  66 102 132 172 222 272 328 390
#     4  11  25  45  69  97 134 177 221 274 332 395
#     4  11  25  45  69  97 134 177 221 274 332 395
#     4  11  25  45  69  97 134 177 221 274 332 395
#     4  11  25  45  69  97 134 177 221 274 332 395
#     4  12  26  40  66 102 132 172 222 272 328 390
#
# _framework density 24.879427
#
# number of rings (size 3 to 8) (size 9 to 14) (size 15 to 20)
#    0.000    0.800    0.000    8.400    0.000   16.000 
#    0.000    0.000    0.000    0.000    0.000    0.000 
#    0.000    0.000    0.000    0.000    0.000    0.000 
#
# Total GULP energy -112391.510520 kJ/mol
# GULP energy per Si atom -5619.575526 kJ/mol
# Density = 2.482280 g / cm^3
# Si number density = 24.879427 Si / 1000 Ang^3
#
#
#
# Elastic Constant Matrix: (Units=GPa)
#
#
# Indices 1 2 3 4 5 6 
#
# 1 100.0255 54.2580 62.3810 0.0002 -33.1965 -0.0001
# 2 54.2580 169.0324 59.9794 0.0002 -5.7385 -0.0001
# 3 62.3810 59.9794 172.6435 0.0004 -39.6400 -0.0002
# 4 0.0002 0.0002 0.0004 38.1463 -0.0002 13.9869
# 5 -33.1965 -5.7385 -39.6400 -0.0002 41.8336 0.0001
# 6 -0.0001 -0.0001 -0.0002 13.9869 0.0001 52.0914
#
#
#
# Elastic Compliance Matrix: (Units=1/GPa)
#
#
# Indices 1 2 3 4 5 6 
#
# 1 0.017504 -0.004455 -0.002208 0.000000 0.011186 0.000000
# 2 -0.004455 0.007973 -0.002199 0.000000 -0.004526 0.000000
# 3 -0.002208 -0.002199 0.008796 0.000000 0.006281 0.000000
# 4 0.000000 0.000000 0.000000 0.029078 0.000000 -0.007808
# 5 0.011186 -0.004526 0.006281 0.000000 0.038112 0.000000
# 6 0.000000 0.000000 0.000000 -0.007808 0.000000 0.021293
#
#
# Mechanical properties :
#
#
# Convention : Reuss Voigt Hill
#
# Bulk Modulus (GPa) = 60.43191 88.32646 74.37919
# Shear Modulus (GPa) = 34.24712 44.08646 39.16679
#
# Velocity S-wave (km/s) = 3.71418 4.21409 3.97200
# Velocity P-wave (km/s) = 6.53729 7.69785 7.14118
#
# Compressibility (1/GPa) = 0.01654755
#
# Stress axis : x y z
#
# Youngs Moduli (GPa) = 57.13003 125.42582 113.68209
#
# Poissons Ratio (x) = 0.55880 0.25106
# Poissons Ratio (y) = 0.25453 0.25001
# Poissons Ratio (z) = 0.12617 0.27584
#
# Static dielectric constant tensor:
#      x y z
#    x 1.979860 0.000000 0.045290 
#    y 0.000000 1.935310 0.000000 
#    z 0.045290 0.000000 1.934710 
# 
# From -- ./inp_files/150673.got.cif
#   From: 2010.05.17/outbox.cif.g08.bks.cpg/sg15_76_cif.got.tgz:150673.got - 2010.06.03 18:47:42.
