data_PCOD9306731
_publ_section_title
;
Structure prediction by ZEFSAII (Michael W. Deem and Ramdas Pophale) SiO2 
 PCOD9306731
Probable space group: C 2/C
;
_chemical_formula_sum "Si O2"
_cell_formula_units_Z 32
_cell_length_a 16.818927
_cell_length_b 6.021076
_cell_length_c 20.699083
_cell_angle_alpha 90.000000
_cell_angle_beta 39.253642
_cell_angle_gamma 90.000000
_cell_volume 1326.351944
_symmetry_space_group_name_H-M "C 2/C"
_symmetry_group_IT_number 15
_symmetry_cell_setting 'monoclinic'
loop_
_space_group_symop_operation_xyz
x,y,z
-x,y,1/2-z
-x,-y,-z
x,-y,1/2+z
1/2+x,1/2+y,z
1/2-x,1/2+y,1/2-z
1/2-x,1/2-y,-z
1/2+x,1/2-y,1/2+z
loop_
_atom_site_type_symbol
_atom_site_label
_atom_site_fract_x
_atom_site_fract_y
_atom_site_fract_z
Si Si1 0.371949 0.326448 0.750849
Si Si2 0.392437 0.991756 0.621002
Si Si3 0.209847 0.556178 0.575600
Si Si4 0.049125 0.816402 0.104701
O O1 0.392412 0.196123 0.670642
O O2 0.241957 0.460548 0.826837
O O3 0.349867 0.156332 0.822779
O O4 0.489100 0.489903 0.685178
O O5 0.500000 0.000000 0.500000
O O6 0.433530 0.777936 0.636718
O O7 0.250000 0.750000 0.500000
O O8 0.114270 0.384005 0.602367
O O9 0.338891 0.422616 0.508058
#
# Coordination Sequence:
#
# PCOD9306731 Si02
#       4
#     8   8   8   8
#     4  12  26  47  77 113 154 207 261 326 401 469
#     4  12  27  46  74 112 154 204 261 320 393 482
#     4  11  27  49  76 113 154 207 266 328 391 479
#     4  11  26  49  77 107 158 204 263 327 392 464
#
# _framework density 24.126327
#
# number of rings (size 3 to 8) (size 9 to 14) (size 15 to 20)
#    0.000    0.500    2.500    4.500    3.500   12.000 
#    0.000    0.000    0.000    0.000    0.000    0.000 
#    0.000    0.000    0.000    0.000    0.000    0.000 
#
# Total GULP energy -89741.189750 kJ/mol
# GULP energy per Si atom -5608.824359 kJ/mol
# Density = 2.407141 g / cm^3
# Si number density = 24.126327 Si / 1000 Ang^3
#
#
#
# Elastic Constant Matrix: (Units=GPa)
#
#
# Indices 1 2 3 4 5 6 
#
# 1 39.9947 24.2344 44.3344 -0.0003 -11.4742 0.0005
# 2 24.2344 116.2306 74.0352 -0.0010 4.0059 0.0035
# 3 44.3344 74.0352 189.4747 0.0000 2.8287 0.0002
# 4 -0.0003 -0.0010 0.0000 65.4019 0.0000 -11.1210
# 5 -11.4742 4.0059 2.8287 0.0000 53.0892 0.0000
# 6 0.0005 0.0035 0.0002 -11.1210 0.0000 37.9713
#
#
#
# Elastic Compliance Matrix: (Units=1/GPa)
#
#
# Indices 1 2 3 4 5 6 
#
# 1 0.038188 -0.003319 -0.007772 0.000000 0.008918 0.000000
# 2 -0.003319 0.011764 -0.003799 0.000000 -0.001403 -0.000001
# 3 -0.007772 -0.003799 0.008608 0.000000 -0.001852 0.000000
# 4 0.000000 0.000000 0.000000 0.016091 0.000000 0.004713
# 5 0.008918 -0.001403 -0.001852 0.000000 0.020968 0.000000
# 6 0.000000 -0.000001 0.000000 0.004713 0.000000 0.027716
#
#
# Mechanical properties :
#
#
# Convention : Reuss Voigt Hill
#
# Bulk Modulus (GPa) = 34.74606 70.10089 52.42347
# Shear Modulus (GPa) = 30.72967 44.83222 37.78095
#
# Velocity S-wave (km/s) = 3.57276 4.31539 3.96152
# Velocity P-wave (km/s) = 5.60825 7.34500 6.53458
#
# Compressibility (1/GPa) = 0.02878024
#
# Stress axis : x y z
#
# Youngs Moduli (GPa) = 26.18617 85.00611 116.16780
#
# Poissons Ratio (x) = 0.28217 0.90281
# Poissons Ratio (y) = 0.08692 0.44132
# Poissons Ratio (z) = 0.20351 0.32294
#
# Static dielectric constant tensor:
#      x y z
#    x 1.933090 0.000000 0.001400 
#    y 0.000000 1.953450 0.000000 
#    z 0.001400 0.000000 1.871170 
# 
# From -- ./inp_files/278762.got.cif
#   From: 2010.05.17/outbox.cif.g08.bks.cpg/sg15_140_cif.got.tgz:278762.got - 2010.06.03 18:47:42.
