data_PCOD9306742
_publ_section_title
;
Structure prediction by ZEFSAII (Michael W. Deem and Ramdas Pophale) SiO2 
 PCOD9306742
Probable space group: C 2/C
;
_chemical_formula_sum "Si O2"
_cell_formula_units_Z 60
_cell_length_a 9.396525
_cell_length_b 16.733605
_cell_length_c 16.846389
_cell_angle_alpha 90.000000
_cell_angle_beta 61.413873
_cell_angle_gamma 90.000000
_cell_volume 2325.985604
_symmetry_space_group_name_H-M "C 2/C"
_symmetry_group_IT_number 15
_symmetry_cell_setting 'monoclinic'
loop_
_space_group_symop_operation_xyz
x,y,z
-x,y,1/2-z
-x,-y,-z
x,-y,1/2+z
1/2+x,1/2+y,z
1/2-x,1/2+y,1/2-z
1/2-x,1/2-y,-z
1/2+x,1/2-y,1/2+z
loop_
_atom_site_type_symbol
_atom_site_label
_atom_site_fract_x
_atom_site_fract_y
_atom_site_fract_z
Si Si1 0.500000 0.764730 0.250000
Si Si2 0.054590 0.251185 0.544011
Si Si3 0.491920 0.001266 0.659263
Si Si4 0.965609 0.153135 0.411266
Si Si5 0.177589 0.159539 0.777700
Si Si6 0.672696 0.882186 0.418231
Si Si7 0.349775 0.531147 0.229653
Si Si8 0.170076 0.999417 0.003776
O O1 0.455469 0.712429 0.339643
O O2 0.656779 0.816975 0.224108
O O3 0.250000 0.250000 0.500000
O O4 0.000504 0.197770 0.483594
O O5 0.048924 0.341028 0.512415
O O6 0.953630 0.217020 0.644871
O O7 0.500000 0.019956 0.750000
O O8 0.441240 0.069957 0.611592
O O9 0.673314 0.978882 0.589375
O O10 0.330089 0.947573 0.692917
O O11 0.111750 0.094628 0.348015
O O12 0.822422 0.089673 0.464232
O O13 0.219914 0.170487 0.672645
O O14 0.801126 0.062219 0.931116
O O15 0.500000 0.540918 0.250000
O O16 0.351163 0.436464 0.206685
O O17 0.000000 0.000000 0.000000
#
# Coordination Sequence:
#
# PCOD9306742 Si02
#       8
#     4   8   8   8   8   8   8   8
#     4  12  28  54  78 122 160 218 284 340 430 502
#     4  12  30  49  76 120 164 212 278 344 427 497
#     4  11  27  46  81 122 164 214 281 340 422 509
#     4  12  27  49  83 117 159 212 281 348 405 504
#     4  11  29  50  83 111 168 222 273 340 429 510
#     4  11  27  52  79 119 166 224 278 345 431 502
#     4  11  26  49  84 117 159 220 276 337 416 501
#     4  12  28  53  82 124 165 220 287 350 422 510
#
# _framework density 25.795518000000001
#
# number of rings (size 3 to 8) (size 9 to 14) (size 15 to 20)
#    0.000    0.533    2.000    3.600   16.800    1.600 
#    0.000    1.333    0.000    0.000    0.000    0.000 
#    0.000    0.000    0.000    0.000    0.000    0.000 
#
# Total GULP energy -167651.891590 kJ/mol
# GULP energy per Si atom -5588.396386 kJ/mol
# Density = 2.573681 g / cm^3
# Si number density = 25.795518 Si / 1000 Ang^3
#
#
#
# Elastic Constant Matrix: (Units=GPa)
#
#
# Indices 1 2 3 4 5 6 
#
# 1 210.1006 48.0123 90.7579 0.0000 -9.7142 0.0000
# 2 48.0123 71.4900 28.2778 0.0000 4.5141 0.0000
# 3 90.7579 28.2778 157.1115 0.0000 -12.7632 0.0000
# 4 0.0000 0.0000 0.0000 41.1422 0.0000 5.8520
# 5 -9.7142 4.5141 -12.7632 0.0000 37.3099 0.0000
# 6 0.0000 0.0000 0.0000 5.8520 0.0000 34.3792
#
#
#
# Elastic Compliance Matrix: (Units=1/GPa)
#
#
# Indices 1 2 3 4 5 6 
#
# 1 0.007058 -0.003481 -0.003361 0.000000 0.001109 0.000000
# 2 -0.003481 0.017073 -0.001341 0.000000 -0.003431 0.000000
# 3 -0.003361 -0.001341 0.008732 0.000000 0.002274 0.000000
# 4 0.000000 0.000000 0.000000 0.024909 0.000000 -0.004240
# 5 0.001109 -0.003431 0.002274 0.000000 0.028284 0.000000
# 6 0.000000 0.000000 0.000000 -0.004240 0.000000 0.029809
#
#
# Mechanical properties :
#
#
# Convention : Reuss Voigt Hill
#
# Bulk Modulus (GPa) = 60.61128 85.86646 73.23887
# Shear Modulus (GPa) = 36.30307 40.67655 38.48981
#
# Velocity S-wave (km/s) = 3.75552 3.97531 3.86698
# Velocity P-wave (km/s) = 6.50793 7.37770 6.95642
#
# Compressibility (1/GPa) = 0.01649858
#
# Stress axis : x y z
#
# Youngs Moduli (GPa) = 141.68228 58.57320 114.51781
#
# Poissons Ratio (x) = 0.20389 0.38484
# Poissons Ratio (y) = 0.49318 0.15354
# Poissons Ratio (z) = 0.47613 0.07853
#
# Static dielectric constant tensor:
#      x y z
#    x 2.081360 0.000000 0.050400 
#    y 0.000000 2.160610 0.000000 
#    z 0.050400 0.000000 2.182240 
# 
# From -- ./inp_files/192542.got.cif
#   From: 2010.05.17/outbox.cif.g08.bks.cpg/sg15_97_cif.got.tgz:192542.got - 2010.06.03 18:47:42.
