data_PCOD9306224
_publ_section_title
;
Structure prediction by ZEFSAII (Michael W. Deem and Ramdas Pophale) SiO2 
 PCOD9306224
Probable space group: C 2/C
;
_chemical_formula_sum "Si O2"
_cell_formula_units_Z 40
_cell_length_a 18.942714
_cell_length_b 9.325915
_cell_length_c 11.865043
_cell_angle_alpha 90.000000
_cell_angle_beta 121.138822
_cell_angle_gamma 90.000000
_cell_volume 1794.050125
_symmetry_space_group_name_H-M "C 2/C"
_symmetry_group_IT_number 15
_symmetry_cell_setting 'monoclinic'
loop_
_space_group_symop_operation_xyz
x,y,z
-x,y,1/2-z
-x,-y,-z
x,-y,1/2+z
1/2+x,1/2+y,z
1/2-x,1/2+y,1/2-z
1/2-x,1/2-y,-z
1/2+x,1/2-y,1/2+z
loop_
_atom_site_type_symbol
_atom_site_label
_atom_site_fract_x
_atom_site_fract_y
_atom_site_fract_z
Si Si1 0.906441 0.042384 0.401354
Si Si2 0.175880 0.243901 0.596966
Si Si3 0.632105 0.238107 0.809132
Si Si4 0.434890 0.753869 0.612735
Si Si5 0.909334 0.571443 0.297972
O O1 0.901230 0.122024 0.279119
O O2 0.887241 0.155878 0.486130
O O3 0.851762 0.901155 0.363835
O O4 0.000000 0.000000 0.500000
O O5 0.271578 0.234143 0.646053
O O6 0.127033 0.255040 0.439074
O O7 0.151488 0.377351 0.654966
O O8 0.590233 0.095688 0.725934
O O9 0.500000 0.671188 0.750000
O O10 0.499291 0.862720 0.604556
O O11 0.383878 0.849141 0.659174
#
# Coordination Sequence:
#
# PCOD9306224 Si02
#       5
#     8   8   8   8   8
#     4  12  24  43  71 100 136 174 231 286 332 395
#     4  11  25  46  65  98 139 179 222 276 340 410
#     4  11  27  42  68  99 135 182 224 271 345 406
#     4   8  21  40  65  95 125 168 221 276 335 380
#     4   9  21  44  65  92 133 171 220 277 329 402
#
# _framework density 22.295919999999999
#
# number of rings (size 3 to 8) (size 9 to 14) (size 15 to 20)
#    1.200    0.400    2.000    1.200    8.400    4.000 
#    0.000    2.000    0.000    0.000    0.000    0.000 
#    0.000    0.000    0.000    0.000    0.000    0.000 
#
# Total GULP energy -111761.059220 kJ/mol
# GULP energy per Si atom -5588.052961 kJ/mol
# Density = 2.224517 g / cm^3
# Si number density = 22.295920 Si / 1000 Ang^3
#
#
#
# Elastic Constant Matrix: (Units=GPa)
#
#
# Indices 1 2 3 4 5 6 
#
# 1 42.0343 6.0765 1.2113 0.0000 -12.4830 0.0000
# 2 6.0765 102.2443 21.9629 0.0000 -4.0784 0.0000
# 3 1.2113 21.9629 57.5728 0.0000 -8.7927 0.0000
# 4 0.0000 0.0000 0.0000 35.2900 0.0000 -11.3073
# 5 -12.4830 -4.0784 -8.7927 0.0000 29.7224 0.0000
# 6 0.0000 0.0000 0.0000 -11.3073 0.0000 29.5375
#
#
#
# Elastic Compliance Matrix: (Units=1/GPa)
#
#
# Indices 1 2 3 4 5 6 
#
# 1 0.027487 -0.001553 0.001827 0.000000 0.011872 0.000000
# 2 -0.001553 0.010743 -0.004127 0.000000 -0.000399 0.000000
# 3 0.001827 -0.004127 0.019832 0.000000 0.006068 0.000000
# 4 0.000000 0.000000 0.000000 0.032298 0.000000 0.012364
# 5 0.011872 -0.000399 0.006068 0.000000 0.040371 0.000000
# 6 0.000000 0.000000 0.000000 0.012364 0.000000 0.038588
#
#
# Mechanical properties :
#
#
# Convention : Reuss Voigt Hill
#
# Bulk Modulus (GPa) = 19.85765 28.92808 24.39286
# Shear Modulus (GPa) = 25.79840 30.41671 28.10756
#
# Velocity S-wave (km/s) = 3.40529 3.69755 3.55443
# Velocity P-wave (km/s) = 4.93833 5.58856 5.27347
#
# Compressibility (1/GPa) = 0.05035843
#
# Stress axis : x y z
#
# Youngs Moduli (GPa) = 36.38021 93.08141 50.42409
#
# Poissons Ratio (x) = 0.14451 -0.09213
# Poissons Ratio (y) = 0.05648 0.20808
# Poissons Ratio (z) = -0.06647 0.38411
#
# Static dielectric constant tensor:
#      x y z
#    x 1.816620 0.000000 -0.011690 
#    y 0.000000 1.834720 0.000000 
#    z -0.011690 0.000000 1.855160 
# 
# From -- ./inp_files/109775.got.cif
#   From: 2010.05.17/outbox.cif.g08.bks.cpg/sg15_55_cif.got.tgz:109775.got - 2010.06.03 18:47:42.
