data_PCOD9306259
_publ_section_title
;
Structure prediction by ZEFSAII (Michael W. Deem and Ramdas Pophale) SiO2 
 PCOD9306259
Probable space group: C 2/C
;
_chemical_formula_sum "Si O2"
_cell_formula_units_Z 48
_cell_length_a 13.625903
_cell_length_b 14.232610
_cell_length_c 11.536285
_cell_angle_alpha 90.000000
_cell_angle_beta 103.255345
_cell_angle_gamma 90.000000
_cell_volume 2177.651428
_symmetry_space_group_name_H-M "C 2/C"
_symmetry_group_IT_number 15
_symmetry_cell_setting 'monoclinic'
loop_
_space_group_symop_operation_xyz
x,y,z
-x,y,1/2-z
-x,-y,-z
x,-y,1/2+z
1/2+x,1/2+y,z
1/2-x,1/2+y,1/2-z
1/2-x,1/2-y,-z
1/2+x,1/2-y,1/2+z
loop_
_atom_site_type_symbol
_atom_site_label
_atom_site_fract_x
_atom_site_fract_y
_atom_site_fract_z
Si Si1 0.770065 0.991273 0.717609
Si Si2 0.820080 0.836410 0.553773
Si Si3 0.500000 0.279136 0.250000
Si Si4 0.155134 0.676330 0.608840
Si Si5 0.500000 0.244885 0.750000
Si Si6 0.053716 0.931882 0.103553
Si Si7 0.681962 0.839672 0.850051
O O1 0.764973 0.918093 0.610647
O O2 0.713130 0.939454 0.807298
O O3 0.722046 0.090630 0.673725
O O4 0.886326 0.009655 0.783418
O O5 0.750000 0.750000 0.500000
O O6 0.861671 0.879118 0.446983
O O7 0.913847 0.803087 0.659018
O O8 0.483824 0.351091 0.139109
O O9 0.403937 0.214356 0.245117
O O10 0.058835 0.687949 0.665416
O O11 0.219639 0.772932 0.628656
O O12 0.138888 0.656000 0.468589
O O13 0.000000 0.000000 0.000000
#
# Coordination Sequence:
#
# PCOD9306259 Si02
#       7
#     8   8   4   8   4   8   8
#     4  12  24  47  70 104 140 188 234 297 353 424
#     4  12  25  44  69 103 141 184 234 295 352 416
#     4  12  24  46  68 104 140 186 234 292 364 422
#     4  11  25  46  72 103 142 188 237 289 355 426
#     4  12  24  48  72 106 144 192 234 298 356 420
#     4  12  25  39  67 105 136 176 238 293 351 424
#     4  11  25  46  72 101 145 187 231 295 356 419
#
# _framework density 22.042095
#
# number of rings (size 3 to 8) (size 9 to 14) (size 15 to 20)
#    0.000    0.333    3.333    6.000    4.667    0.667 
#    0.000    2.500    0.000    0.000    0.000    0.000 
#    0.000    0.000    0.000    0.000    0.000    0.000 
#
# Total GULP energy -134361.891208 kJ/mol
# GULP energy per Si atom -5598.412134 kJ/mol
# Density = 2.199193 g / cm^3
# Si number density = 22.042095 Si / 1000 Ang^3
#
#
#
# Elastic Constant Matrix: (Units=GPa)
#
#
# Indices 1 2 3 4 5 6 
#
# 1 79.6062 22.6829 18.0086 0.0000 -19.1408 0.0000
# 2 22.6829 96.3499 39.2205 0.0000 0.5190 0.0000
# 3 18.0086 39.2205 68.0244 0.0000 -7.8520 0.0000
# 4 0.0000 0.0000 0.0000 48.2007 0.0000 -5.3634
# 5 -19.1408 0.5190 -7.8520 0.0000 43.2646 0.0000
# 6 0.0000 0.0000 0.0000 -5.3634 0.0000 41.1080
#
#
#
# Elastic Compliance Matrix: (Units=1/GPa)
#
#
# Indices 1 2 3 4 5 6 
#
# 1 0.015347 -0.003008 -0.001574 0.000000 0.006540 0.000000
# 2 -0.003008 0.014263 -0.007763 0.000000 -0.002911 0.000000
# 3 -0.001574 -0.007763 0.019941 0.000000 0.003016 0.000000
# 4 0.000000 0.000000 0.000000 0.021052 0.000000 0.002747
# 5 0.006540 -0.002911 0.003016 0.000000 0.026589 0.000000
# 6 0.000000 0.000000 0.000000 0.002747 0.000000 0.024685
#
#
# Mechanical properties :
#
#
# Convention : Reuss Voigt Hill
#
# Bulk Modulus (GPa) = 40.22199 44.86717 42.54458
# Shear Modulus (GPa) = 32.28839 37.45256 34.87048
#
# Velocity S-wave (km/s) = 3.83149 4.12653 3.98174
# Velocity P-wave (km/s) = 6.15314 6.56535 6.36258
#
# Compressibility (1/GPa) = 0.02486202
#
# Stress axis : x y z
#
# Youngs Moduli (GPa) = 65.15729 70.11326 50.14706
#
# Poissons Ratio (x) = 0.21088 0.07893
# Poissons Ratio (y) = 0.19597 0.38930
# Poissons Ratio (z) = 0.10256 0.54429
#
# Static dielectric constant tensor:
#      x y z
#    x 1.807010 0.000000 -0.006780 
#    y 0.000000 1.730400 0.000000 
#    z -0.006780 0.000000 1.835020 
# 
# From -- ./inp_files/96562.got.cif
#   From: 2010.05.17/outbox.cif.g08.bks.cpg/sg15_49_cif.got.tgz:96562.got - 2010.06.03 18:47:42.
