data_PCOD9306322
_publ_section_title
;
Structure prediction by ZEFSAII (Michael W. Deem and Ramdas Pophale) SiO2 
 PCOD9306322
Probable space group: C 2/C
;
_chemical_formula_sum "Si O2"
_cell_formula_units_Z 40
_cell_length_a 8.349015
_cell_length_b 23.759620
_cell_length_c 8.568658
_cell_angle_alpha 90.000000
_cell_angle_beta 83.860691
_cell_angle_gamma 90.000000
_cell_volume 1690.011297
_symmetry_space_group_name_H-M "C 2/C"
_symmetry_group_IT_number 15
_symmetry_cell_setting 'monoclinic'
loop_
_space_group_symop_operation_xyz
x,y,z
-x,y,1/2-z
-x,-y,-z
x,-y,1/2+z
1/2+x,1/2+y,z
1/2-x,1/2+y,1/2-z
1/2-x,1/2-y,-z
1/2+x,1/2-y,1/2+z
loop_
_atom_site_type_symbol
_atom_site_label
_atom_site_fract_x
_atom_site_fract_y
_atom_site_fract_z
Si Si1 0.925041 0.619500 0.925238
Si Si2 0.846094 0.483559 0.659027
Si Si3 0.068288 0.271630 0.563475
Si Si4 0.129507 0.049616 0.462240
Si Si5 0.939436 0.841895 0.076488
O O1 0.745996 0.643083 0.916755
O O2 0.000000 0.609713 0.750000
O O3 0.897775 0.563689 0.029942
O O4 0.032602 0.667277 0.997243
O O5 0.763345 0.536101 0.580461
O O6 0.712009 0.457925 0.787386
O O7 0.000000 0.494087 0.750000
O O8 0.250000 0.250000 0.500000
O O9 0.000000 0.275567 0.750000
O O10 0.965392 0.219994 0.504006
O O11 0.045760 0.109451 0.487130
O O12 0.000000 0.000000 0.500000
O O13 0.000000 0.841233 0.250000
#
# Coordination Sequence:
#
# PCOD9306322 Si02
#       5
#     8   8   8   8   8
#     4  12  27  49  78 115 156 207 263 326 395 470
#     4  12  29  48  79 113 157 206 262 324 391 473
#     4  11  26  50  78 116 157 205 265 329 398 473
#     4  12  26  52  74 114 153 204 258 321 393 468
#     4  11  25  46  80 107 154 205 261 322 390 466
#
# _framework density 23.668479000000001
#
# number of rings (size 3 to 8) (size 9 to 14) (size 15 to 20)
#    0.000    0.400    2.000    6.000    8.400    0.800 
#    0.000    0.000    0.000    0.000    0.000    0.000 
#    0.000    0.000    0.000    0.000    0.000    0.000 
#
# Total GULP energy -112071.027471 kJ/mol
# GULP energy per Si atom -5603.551374 kJ/mol
# Density = 2.361461 g / cm^3
# Si number density = 23.668479 Si / 1000 Ang^3
#
#
#
# Elastic Constant Matrix: (Units=GPa)
#
#
# Indices 1 2 3 4 5 6 
#
# 1 141.7997 24.8601 43.8580 0.0000 -17.0587 0.0000
# 2 24.8601 141.3297 50.9301 0.0000 -17.6374 0.0000
# 3 43.8580 50.9301 151.8610 0.0000 -41.0277 0.0000
# 4 0.0000 0.0000 0.0000 89.7763 0.0000 -13.3946
# 5 -17.0587 -17.6374 -41.0277 0.0000 49.3596 0.0000
# 6 0.0000 0.0000 0.0000 -13.3946 0.0000 52.2014
#
#
#
# Elastic Compliance Matrix: (Units=1/GPa)
#
#
# Indices 1 2 3 4 5 6 
#
# 1 0.007832 -0.000609 -0.001787 0.000000 0.001004 0.000000
# 2 -0.000609 0.008121 -0.002348 0.000000 0.000740 0.000000
# 3 -0.001787 -0.002348 0.009665 0.000000 0.006577 0.000000
# 4 0.000000 0.000000 0.000000 0.011582 0.000000 0.002972
# 5 0.001004 0.000740 0.006577 0.000000 0.026338 0.000000
# 6 0.000000 0.000000 0.000000 0.002972 0.000000 0.019919
#
#
# Mechanical properties :
#
#
# Convention : Reuss Voigt Hill
#
# Bulk Modulus (GPa) = 61.98585 74.92075 68.45330
# Shear Modulus (GPa) = 50.85333 59.29029 55.07181
#
# Velocity S-wave (km/s) = 4.64029 5.01046 4.82892
# Velocity P-wave (km/s) = 7.41322 8.07440 7.75086
#
# Compressibility (1/GPa) = 0.01613271
#
# Stress axis : x y z
#
# Youngs Moduli (GPa) = 127.67649 123.13512 103.46224
#
# Poissons Ratio (x) = 0.07494 0.18484
# Poissons Ratio (y) = 0.07770 0.24292
# Poissons Ratio (z) = 0.22810 0.28912
#
# Static dielectric constant tensor:
#      x y z
#    x 1.940600 0.000000 0.003180 
#    y 0.000000 1.906140 0.000000 
#    z 0.003180 0.000000 1.905560 
# 
# From -- ./inp_files/23471.got.cif
#   From: 2010.05.17/outbox.cif.g08.bks.cpg/sg15_12_cif.got.tgz:23471.got - 2010.06.03 18:47:42.
