data_PCOD9306059
_publ_section_title
;
Structure prediction by ZEFSAII (Michael W. Deem and Ramdas Pophale) SiO2 
 PCOD9306059
Probable space group: C 2/C
;
_chemical_formula_sum "Si O2"
_cell_formula_units_Z 32
_cell_length_a 23.111554
_cell_length_b 4.955230
_cell_length_c 21.805920
_cell_angle_alpha 90.000000
_cell_angle_beta 150.298947
_cell_angle_gamma 90.000000
_cell_volume 1237.339291
_symmetry_space_group_name_H-M "C 2/C"
_symmetry_group_IT_number 15
_symmetry_cell_setting 'monoclinic'
loop_
_space_group_symop_operation_xyz
x,y,z
-x,y,1/2-z
-x,-y,-z
x,-y,1/2+z
1/2+x,1/2+y,z
1/2-x,1/2+y,1/2-z
1/2-x,1/2-y,-z
1/2+x,1/2-y,1/2+z
loop_
_atom_site_type_symbol
_atom_site_label
_atom_site_fract_x
_atom_site_fract_y
_atom_site_fract_z
Si Si1 0.672289 0.769014 0.170842
Si Si2 0.913313 0.670761 0.210275
Si Si3 0.533857 0.035960 0.933634
Si Si4 0.174513 0.933953 0.975402
O O1 0.780942 0.965053 0.287226
O O2 0.570036 0.814103 0.126167
O O3 0.616464 0.878461 0.056600
O O4 0.000000 0.471304 0.250000
O O5 0.974735 0.677807 0.332636
O O6 0.893406 0.882033 0.136209
O O7 0.779722 0.599123 0.103812
O O8 0.604687 0.254316 0.959096
O O9 0.250000 0.750000 0.000000
#
# Coordination Sequence:
#
# PCOD9306059 Si02
#       4
#     8   8   8   8
#     4  11  28  53  82 117 157 217 277 345 397 470
#     4  11  25  43  72 109 155 202 251 316 394 481
#     4  11  26  49  81 114 159 214 268 333 405 492
#     4  11  25  45  68 112 155 203 251 321 397 478
#
# _framework density 25.861944999999999
#
# number of rings (size 3 to 8) (size 9 to 14) (size 15 to 20)
#    0.000    1.000    2.500    1.500    7.000    8.000 
#    0.000    0.000    0.000    0.000    0.000    0.000 
#    0.000    0.000    0.000    0.000    0.000    0.000 
#
# Total GULP energy -89492.221663 kJ/mol
# GULP energy per Si atom -5593.263854 kJ/mol
# Density = 2.580308 g / cm^3
# Si number density = 25.861945 Si / 1000 Ang^3
#
#
#
# Elastic Constant Matrix: (Units=GPa)
#
#
# Indices 1 2 3 4 5 6 
#
# 1 196.0522 39.8189 60.9764 0.0006 -0.0250 -0.0015
# 2 39.8189 67.7948 24.2736 0.0052 -11.0721 -0.0055
# 3 60.9764 24.2736 186.1233 0.0010 -20.9908 0.0006
# 4 0.0006 0.0052 0.0010 16.6797 -0.0003 -42.7857
# 5 -0.0250 -11.0721 -20.9908 -0.0003 41.5094 -0.0015
# 6 -0.0015 -0.0055 0.0006 -42.7857 -0.0015 -106.2048
#
#
#
# Elastic Compliance Matrix: (Units=1/GPa)
#
#
# Indices 1 2 3 4 5 6 
#
# 1 0.006361 -0.003373 -0.001851 0.000001 -0.001832 0.000000
# 2 -0.003373 0.017698 -0.000712 -0.000004 0.004359 0.000001
# 3 -0.001851 -0.000712 0.006416 0.000000 0.003054 0.000000
# 4 0.000001 -0.000004 0.000000 0.029484 -0.000001 -0.011878
# 5 -0.001832 0.004359 0.003054 -0.000001 0.026797 0.000000
# 6 0.000000 0.000001 0.000000 -0.011878 0.000000 -0.004631
#
#
# Mechanical properties :
#
#
# Convention : Reuss Voigt Hill
#
# Bulk Modulus (GPa) = 53.74772 77.78978 65.76875
# Shear Modulus (GPa) = 49.90154 12.05697 30.97926
#
# Velocity S-wave (km/s) = 4.39741 2.16152 3.46478
# Velocity P-wave (km/s) = 6.82720 6.03106 6.44144
#
# Compressibility (1/GPa) = 0.01860544
#
# Stress axis : x y z
#
# Youngs Moduli (GPa) = 157.20691 56.50370 155.85330
#
# Poissons Ratio (x) = 0.19057 0.28844
# Poissons Ratio (y) = 0.53020 0.11091
# Poissons Ratio (z) = 0.29094 0.04021
#
# Static dielectric constant tensor:
#      x y z
#    x 2.873810 0.000000 1.925390 
#    y 0.000000 2.899540 0.000010 
#    z 1.925390 0.000010 6.218860 
# 
# From -- ./inp_files/115492.got.cif
#   From: 2010.05.17/outbox.cif.g08.bks.cpg/sg15_58_cif.got.tgz:115492.got - 2010.06.03 18:47:42.
