data_PCOD9306518
_publ_section_title
;
Structure prediction by ZEFSAII (Michael W. Deem and Ramdas Pophale) SiO2 
 PCOD9306518
Probable space group: C 2/C
;
_chemical_formula_sum "Si O2"
_cell_formula_units_Z 40
_cell_length_a 13.620878
_cell_length_b 4.933151
_cell_length_c 23.454231
_cell_angle_alpha 90.000000
_cell_angle_beta 104.245714
_cell_angle_gamma 90.000000
_cell_volume 1527.517574
_symmetry_space_group_name_H-M "C 2/C"
_symmetry_group_IT_number 15
_symmetry_cell_setting 'monoclinic'
loop_
_space_group_symop_operation_xyz
x,y,z
-x,y,1/2-z
-x,-y,-z
x,-y,1/2+z
1/2+x,1/2+y,z
1/2-x,1/2+y,1/2-z
1/2-x,1/2-y,-z
1/2+x,1/2-y,1/2+z
loop_
_atom_site_type_symbol
_atom_site_label
_atom_site_fract_x
_atom_site_fract_y
_atom_site_fract_z
Si Si1 0.310179 0.780244 0.832698
Si Si2 0.178617 0.421059 0.883542
Si Si3 0.064815 0.704459 0.048413
Si Si4 0.606838 0.595598 0.773580
Si Si5 0.374424 0.558071 0.051588
O O1 0.276014 0.505175 0.860198
O O2 0.378516 0.924152 0.890013
O O3 0.366609 0.736917 0.782019
O O4 0.203477 0.915922 0.802775
O O5 0.101083 0.302392 0.825546
O O6 0.134150 0.684418 0.908564
O O7 0.192388 0.182503 0.931655
O O8 0.144027 0.839757 0.015390
O O9 0.986291 0.925175 0.062100
O O10 0.000000 0.500000 0.000000
O O11 0.500000 0.448936 0.750000
#
# Coordination Sequence:
#
# PCOD9306518 Si02
#       5
#     8   8   8   8   8
#     4  12  28  52  84 128 166 222 290 345 422 514
#     4  12  25  51  78 121 163 215 281 344 412 503
#     4  11  26  51  85 125 172 219 282 352 414 517
#     4  12  28  54  84 124 170 228 280 357 420 501
#     4  11  25  50  79 123 163 221 267 345 428 485
#
# _framework density 26.186275999999999
#
# number of rings (size 3 to 8) (size 9 to 14) (size 15 to 20)
#    0.000    0.400    6.000    1.200    0.000    5.600 
#    7.200    0.000    0.000    0.000    0.000    0.000 
#    0.000    0.000    0.000    0.000    0.000    0.000 
#
# Total GULP energy -112128.543987 kJ/mol
# GULP energy per Si atom -5606.427199 kJ/mol
# Density = 2.612667 g / cm^3
# Si number density = 26.186276 Si / 1000 Ang^3
#
#
#
# Elastic Constant Matrix: (Units=GPa)
#
#
# Indices 1 2 3 4 5 6 
#
# 1 98.5404 32.5706 65.2412 0.0000 10.2634 0.0000
# 2 32.5706 133.2439 56.4379 0.0000 -6.7163 0.0000
# 3 65.2412 56.4379 213.2057 0.0000 2.1994 0.0000
# 4 0.0000 0.0000 0.0000 29.8540 0.0000 -3.1227
# 5 10.2634 -6.7163 2.1994 0.0000 56.0397 0.0000
# 6 0.0000 0.0000 0.0000 -3.1227 0.0000 46.1450
#
#
#
# Elastic Compliance Matrix: (Units=1/GPa)
#
#
# Indices 1 2 3 4 5 6 
#
# 1 0.013405 -0.001890 -0.003575 0.000000 -0.002541 0.000000
# 2 -0.001890 0.008788 -0.001763 0.000000 0.001469 0.000000
# 3 -0.003575 -0.001763 0.006249 0.000000 0.000198 0.000000
# 4 0.000000 0.000000 0.000000 0.033735 0.000000 0.002283
# 5 -0.002541 0.001469 0.000198 0.000000 0.018478 0.000000
# 6 0.000000 0.000000 0.000000 0.002283 0.000000 0.021825
#
#
# Mechanical properties :
#
#
# Convention : Reuss Voigt Hill
#
# Bulk Modulus (GPa) = 71.50837 83.72106 77.61472
# Shear Modulus (GPa) = 41.11882 45.79042 43.45462
#
# Velocity S-wave (km/s) = 3.96693 4.18621 4.07804
# Velocity P-wave (km/s) = 6.95334 7.44356 7.20262
#
# Compressibility (1/GPa) = 0.01398438
#
# Stress axis : x y z
#
# Youngs Moduli (GPa) = 74.60060 113.79305 160.02695
#
# Poissons Ratio (x) = 0.21512 0.57213
# Poissons Ratio (y) = 0.14103 0.28212
# Poissons Ratio (z) = 0.26671 0.20061
#
# Static dielectric constant tensor:
#      x y z
#    x 2.089100 0.000000 0.039230 
#    y 0.000000 2.105640 0.000000 
#    z 0.039230 0.000000 2.042900 
# 
# From -- ./inp_files/271980.got.cif
#   From: 2010.05.17/outbox.cif.g08.bks.cpg/sg15_136_cif.got.tgz:271980.got - 2010.06.03 18:47:42.
