data_PCOD9306269
_publ_section_title
;
Structure prediction by ZEFSAII (Michael W. Deem and Ramdas Pophale) SiO2 
 PCOD9306269
Probable space group: C 2/C
;
_chemical_formula_sum "Si O2"
_cell_formula_units_Z 44
_cell_length_a 12.761053
_cell_length_b 13.965558
_cell_length_c 11.797618
_cell_angle_alpha 90.000000
_cell_angle_beta 106.718101
_cell_angle_gamma 90.000000
_cell_volume 2013.645338
_symmetry_space_group_name_H-M "C 2/C"
_symmetry_group_IT_number 15
_symmetry_cell_setting 'monoclinic'
loop_
_space_group_symop_operation_xyz
x,y,z
-x,y,1/2-z
-x,-y,-z
x,-y,1/2+z
1/2+x,1/2+y,z
1/2-x,1/2+y,1/2-z
1/2-x,1/2-y,-z
1/2+x,1/2-y,1/2+z
loop_
_atom_site_type_symbol
_atom_site_label
_atom_site_fract_x
_atom_site_fract_y
_atom_site_fract_z
Si Si1 0.790996 0.902233 0.656884
Si Si2 0.896515 0.527283 0.544253
Si Si3 0.438283 0.753232 0.110862
Si Si4 0.000000 0.973049 0.250000
Si Si5 0.314952 0.146447 0.148125
Si Si6 0.586421 0.679471 0.950603
O O1 0.711202 0.973945 0.567381
O O2 0.839024 0.821358 0.589430
O O3 0.720669 0.852438 0.733052
O O4 0.894086 0.960829 0.738252
O O5 0.907588 0.636044 0.588756
O O6 0.878563 0.450605 0.637395
O O7 0.000000 0.500000 0.500000
O O8 0.500000 0.743373 0.250000
O O9 0.513400 0.722034 0.029076
O O10 0.028016 0.906763 0.366412
O O11 0.385403 0.236755 0.130007
O O12 0.201911 0.149199 0.041636
#
# Coordination Sequence:
#
# PCOD9306269 Si02
#       6
#     8   8   8   4   8   8
#     4  12  27  47  73 109 145 192 244 307 360 438
#     4  12  28  47  72 107 145 195 240 300 368 436
#     4  12  26  49  75 109 149 190 247 305 366 434
#     4  12  26  46  80 108 146 192 248 298 372 428
#     4  11  25  46  72 106 147 185 245 297 369 430
#     4  11  25  46  75 108 145 188 241 306 363 433
#
# _framework density 21.850918
#
# number of rings (size 3 to 8) (size 9 to 14) (size 15 to 20)
#    0.000    0.364    6.364    0.545    7.636    2.909 
#    0.000    0.000    0.000    0.000    0.000    0.000 
#    0.000    0.000    0.000    0.000    0.000    0.000 
#
# Total GULP energy -123222.897673 kJ/mol
# GULP energy per Si atom -5601.040803 kJ/mol
# Density = 2.180118 g / cm^3
# Si number density = 21.850918 Si / 1000 Ang^3
#
#
#
# Elastic Constant Matrix: (Units=GPa)
#
#
# Indices 1 2 3 4 5 6 
#
# 1 130.9266 55.0715 27.8308 0.0000 -24.3970 0.0000
# 2 55.0715 119.6759 7.6149 0.0000 -17.0406 0.0000
# 3 27.8308 7.6149 44.3250 0.0000 -12.4521 0.0000
# 4 0.0000 0.0000 0.0000 21.1783 0.0000 -32.0113
# 5 -24.3970 -17.0406 -12.4521 0.0000 48.7196 0.0000
# 6 0.0000 0.0000 0.0000 -32.0113 0.0000 -2.1619
#
#
#
# Elastic Compliance Matrix: (Units=1/GPa)
#
#
# Indices 1 2 3 4 5 6 
#
# 1 0.011153 -0.004407 -0.005505 0.000000 0.002637 0.000000
# 2 -0.004407 0.010555 0.001477 0.000000 0.001863 0.000000
# 3 -0.005505 0.001477 0.027078 0.000000 0.004681 0.000000
# 4 0.000000 0.000000 0.000000 0.002020 0.000000 -0.029903
# 5 0.002637 0.001863 0.004681 0.000000 0.023694 0.000000
# 6 0.000000 0.000000 0.000000 -0.029903 0.000000 -0.019783
#
#
# Mechanical properties :
#
#
# Convention : Reuss Voigt Hill
#
# Bulk Modulus (GPa) = 31.33158 52.88463 42.10811
# Shear Modulus (GPa) = 60.80917 27.17454 43.99186
#
# Velocity S-wave (km/s) = 5.28105 3.53035 4.49182
# Velocity P-wave (km/s) = 7.18025 6.39318 6.79812
#
# Compressibility (1/GPa) = 0.03191668
#
# Stress axis : x y z
#
# Youngs Moduli (GPa) = 89.66299 94.74260 36.92991
#
# Poissons Ratio (x) = 0.41749 0.20330
# Poissons Ratio (y) = 0.39510 -0.05454
# Poissons Ratio (z) = 0.49359 -0.13991
#
# Static dielectric constant tensor:
#      x y z
#    x 1.787740 0.000000 0.040850 
#    y 0.000000 1.765050 0.000000 
#    z 0.040850 0.000000 1.782310 
# 
# From -- ./inp_files/86050.got.cif
#   From: 2010.05.17/outbox.cif.g08.bks.cpg/sg15_44_cif.got.tgz:86050.got - 2010.06.03 18:47:42.
