data_PCOD9306511
_publ_section_title
;
Structure prediction by ZEFSAII (Michael W. Deem and Ramdas Pophale) SiO2 
 PCOD9306511
Probable space group: C 2/C
;
_chemical_formula_sum "Si O2"
_cell_formula_units_Z 56
_cell_length_a 10.741724
_cell_length_b 8.974950
_cell_length_c 27.843773
_cell_angle_alpha 90.000000
_cell_angle_beta 62.152794
_cell_angle_gamma 90.000000
_cell_volume 2373.465172
_symmetry_space_group_name_H-M "C 2/C"
_symmetry_group_IT_number 15
_symmetry_cell_setting 'monoclinic'
loop_
_space_group_symop_operation_xyz
x,y,z
-x,y,1/2-z
-x,-y,-z
x,-y,1/2+z
1/2+x,1/2+y,z
1/2-x,1/2+y,1/2-z
1/2-x,1/2-y,-z
1/2+x,1/2-y,1/2+z
loop_
_atom_site_type_symbol
_atom_site_label
_atom_site_fract_x
_atom_site_fract_y
_atom_site_fract_z
Si Si1 0.000000 0.854993 0.250000
Si Si2 0.274414 0.366404 0.360479
Si Si3 0.176026 0.923437 0.564294
Si Si4 0.500000 0.844074 0.250000
Si Si5 0.689651 0.714757 0.796639
Si Si6 0.774667 0.097736 0.554560
Si Si7 0.860118 0.939181 0.629655
Si Si8 0.017657 0.507156 0.350238
O O1 0.082269 0.923191 0.190443
O O2 0.132576 0.777769 0.252620
O O3 0.273589 0.437570 0.413246
O O4 0.252576 0.188844 0.362510
O O5 0.145830 0.423485 0.352285
O O6 0.183070 0.950140 0.506237
O O7 0.268329 0.776695 0.557343
O O8 0.017398 0.880365 0.608655
O O9 0.644927 0.748403 0.227197
O O10 0.500004 0.944624 0.298705
O O11 0.683572 0.548371 0.819449
O O12 0.576153 0.823652 0.841603
O O13 0.870433 0.040148 0.580217
O O14 0.621286 0.032055 0.595244
#
# Coordination Sequence:
#
# PCOD9306511 Si02
#       8
#     4   8   8   4   8   8   8   8
#     4  12  25  45  70 108 147 195 238 306 359 443
#     4  12  27  44  73 107 146 190 248 297 372 442
#     4  11  26  50  74 107 143 192 241 309 363 443
#     4  12  27  47  74 108 145 197 248 304 365 447
#     4  12  27  45  77 104 152 198 247 303 373 436
#     4  11  25  50  76 103 147 187 247 302 372 435
#     4  12  25  48  72 108 142 189 242 301 364 443
#     4  12  26  48  71 110 146 194 246 306 364 441
#
# _framework density 23.594194000000002
#
# number of rings (size 3 to 8) (size 9 to 14) (size 15 to 20)
#    0.000    0.286    5.714    2.571    2.000    1.714 
#    2.571    0.000    0.000    0.000    0.000    0.000 
#    0.000    0.000    0.000    0.000    0.000    0.000 
#
# Total GULP energy -156514.559539 kJ/mol
# GULP energy per Si atom -5589.805698 kJ/mol
# Density = 2.354049 g / cm^3
# Si number density = 23.594194 Si / 1000 Ang^3
#
#
#
# Elastic Constant Matrix: (Units=GPa)
#
#
# Indices 1 2 3 4 5 6 
#
# 1 111.6801 15.1717 7.8365 0.0000 -0.2597 0.0000
# 2 15.1717 51.9703 7.8044 0.0000 3.3367 0.0000
# 3 7.8365 7.8044 83.6682 0.0000 -6.5657 0.0000
# 4 0.0000 0.0000 0.0000 66.0399 0.0000 -88.9559
# 5 -0.2597 3.3367 -6.5657 0.0000 41.7689 0.0000
# 6 0.0000 0.0000 0.0000 -88.9559 0.0000 200.0264
#
#
#
# Elastic Compliance Matrix: (Units=1/GPa)
#
#
# Indices 1 2 3 4 5 6 
#
# 1 0.009358 -0.002650 -0.000616 0.000000 0.000173 0.000000
# 2 -0.002650 0.020411 -0.001807 0.000000 -0.001931 0.000000
# 3 -0.000616 -0.001807 0.012341 0.000000 0.002080 0.000000
# 4 0.000000 0.000000 0.000000 0.037765 0.000000 0.016795
# 5 0.000173 -0.001931 0.002080 0.000000 0.024424 0.000000
# 6 0.000000 0.000000 0.000000 0.016795 0.000000 0.012468
#
#
# Mechanical properties :
#
#
# Convention : Reuss Voigt Hill
#
# Bulk Modulus (GPa) = 31.28565 34.32710 32.80638
# Shear Modulus (GPa) = 36.34549 76.00078 56.17313
#
# Velocity S-wave (km/s) = 3.92910 5.68169 4.88464
# Velocity P-wave (km/s) = 5.82001 7.59096 6.76369
#
# Compressibility (1/GPa) = 0.03196353
#
# Stress axis : x y z
#
# Youngs Moduli (GPa) = 106.86253 48.99349 81.02764
#
# Poissons Ratio (x) = 0.12986 0.04988
# Poissons Ratio (y) = 0.28324 0.14643
# Poissons Ratio (z) = 0.06579 0.08854
#
# Static dielectric constant tensor:
#      x y z
#    x 1.902270 0.000000 -0.006740 
#    y 0.000000 1.967680 0.000000 
#    z -0.006740 0.000000 1.868980 
# 
# From -- ./inp_files/291557.got.cif
#   From: 2010.05.17/outbox.cif.g08.bks.cpg/sg15_146_cif.got.tgz:291557.got - 2010.06.03 18:47:42.
