data_PCOD9306131
_publ_section_title
;
Structure prediction by ZEFSAII (Michael W. Deem and Ramdas Pophale) SiO2 
 PCOD9306131
Probable space group: C 2/C
;
_chemical_formula_sum "Si O2"
_cell_formula_units_Z 44
_cell_length_a 17.728248
_cell_length_b 9.211024
_cell_length_c 12.187027
_cell_angle_alpha 90.000000
_cell_angle_beta 62.447402
_cell_angle_gamma 90.000000
_cell_volume 1764.382145
_symmetry_space_group_name_H-M "C 2/C"
_symmetry_group_IT_number 15
_symmetry_cell_setting 'monoclinic'
loop_
_space_group_symop_operation_xyz
x,y,z
-x,y,1/2-z
-x,-y,-z
x,-y,1/2+z
1/2+x,1/2+y,z
1/2-x,1/2+y,1/2-z
1/2-x,1/2-y,-z
1/2+x,1/2-y,1/2+z
loop_
_atom_site_type_symbol
_atom_site_label
_atom_site_fract_x
_atom_site_fract_y
_atom_site_fract_z
Si Si1 0.138366 0.984622 0.514609
Si Si2 0.592803 0.232176 0.151975
Si Si3 0.500000 0.688989 0.250000
Si Si4 0.039696 0.568179 0.580515
Si Si5 0.775986 0.596405 0.091716
Si Si6 0.211362 0.835951 0.265113
O O1 0.225605 0.936015 0.515424
O O2 0.146818 0.931444 0.384377
O O3 0.067421 0.911116 0.641339
O O4 0.126774 0.157719 0.536252
O O5 0.500000 0.286920 0.250000
O O6 0.574584 0.067529 0.128580
O O7 0.656927 0.248715 0.210843
O O8 0.523184 0.812022 0.325929
O O9 0.128102 0.646084 0.492498
O O10 0.000000 0.500000 0.500000
O O11 0.738853 0.723269 0.192217
O O12 0.771502 0.448761 0.163288
#
# Coordination Sequence:
#
# PCOD9306131 Si02
#       6
#     8   8   4   8   8   8
#     4  11  26  46  71 103 146 189 240 302 357 437
#     4  11  25  45  69 105 140 182 239 290 359 434
#     4  12  26  44  72 106 136 190 248 288 370 416
#     4  12  28  45  73 104 146 185 242 307 358 431
#     4  11  27  44  70 105 142 193 237 296 367 427
#     4  11  26  44  71 101 142 192 232 301 357 431
#
# _framework density 24.937909000000001
#
# number of rings (size 3 to 8) (size 9 to 14) (size 15 to 20)
#    0.000    0.727    3.636    1.636    7.636    3.636 
#    0.000    0.000    0.000    0.000    0.000    0.000 
#    0.000    0.000    0.000    0.000    0.000    0.000 
#
# Total GULP energy -123034.327884 kJ/mol
# GULP energy per Si atom -5592.469449 kJ/mol
# Density = 2.488115 g / cm^3
# Si number density = 24.937909 Si / 1000 Ang^3
#
#
#
# Elastic Constant Matrix: (Units=GPa)
#
#
# Indices 1 2 3 4 5 6 
#
# 1 34.8340 -0.6236 4.1654 0.0000 -15.4264 0.0000
# 2 -0.6236 113.2221 27.2948 0.0000 1.8052 0.0000
# 3 4.1654 27.2948 69.5866 0.0000 -1.0407 0.0000
# 4 0.0000 0.0000 0.0000 22.6011 0.0000 6.8062
# 5 -15.4264 1.8052 -1.0407 0.0000 20.9141 0.0000
# 6 0.0000 0.0000 0.0000 6.8062 0.0000 25.9486
#
#
#
# Elastic Compliance Matrix: (Units=1/GPa)
#
#
# Indices 1 2 3 4 5 6 
#
# 1 0.042945 0.000265 -0.002203 0.000000 0.031544 0.000000
# 2 0.000265 0.009779 -0.003864 0.000000 -0.000841 0.000000
# 3 -0.002203 -0.003864 0.016011 0.000000 -0.000495 0.000000
# 4 0.000000 0.000000 0.000000 0.048040 0.000000 -0.012601
# 5 0.031544 -0.000841 -0.000495 0.000000 0.071130 0.000000
# 6 0.000000 0.000000 0.000000 -0.012601 0.000000 0.041843
#
#
# Mechanical properties :
#
#
# Convention : Reuss Voigt Hill
#
# Bulk Modulus (GPa) = 17.50385 31.03510 24.26947
# Shear Modulus (GPa) = 19.20159 26.34648 22.77404
#
# Velocity S-wave (km/s) = 2.77785 3.25389 3.02525
# Velocity P-wave (km/s) = 4.16207 5.15645 4.68571
#
# Compressibility (1/GPa) = 0.05713030
#
# Stress axis : x y z
#
# Youngs Moduli (GPa) = 23.28547 102.26441 62.45840
#
# Poissons Ratio (x) = -0.02706 0.13758
# Poissons Ratio (y) = -0.00616 0.24134
# Poissons Ratio (z) = 0.05129 0.39515
#
# Static dielectric constant tensor:
#      x y z
#    x 1.878660 0.000000 -0.074770 
#    y 0.000000 2.027630 0.000000 
#    z -0.074770 0.000000 2.036590 
# 
# From -- ./inp_files/109954.got.cif
#   From: 2010.05.17/outbox.cif.g08.bks.cpg/sg15_55_cif.got.tgz:109954.got - 2010.06.03 18:47:42.
