data_PCOD9306872
_publ_section_title
;
Structure prediction by ZEFSAII (Michael W. Deem and Ramdas Pophale) SiO2 
 PCOD9306872
Probable space group: C 2/C
;
_chemical_formula_sum "Si O2"
_cell_formula_units_Z 32
_cell_length_a 7.115421
_cell_length_b 11.811138
_cell_length_c 14.378161
_cell_angle_alpha 90.000000
_cell_angle_beta 83.318489
_cell_angle_gamma 90.000000
_cell_volume 1200.151312
_symmetry_space_group_name_H-M "C 2/C"
_symmetry_group_IT_number 15
_symmetry_cell_setting 'monoclinic'
loop_
_space_group_symop_operation_xyz
x,y,z
-x,y,1/2-z
-x,-y,-z
x,-y,1/2+z
1/2+x,1/2+y,z
1/2-x,1/2+y,1/2-z
1/2-x,1/2-y,-z
1/2+x,1/2-y,1/2+z
loop_
_atom_site_type_symbol
_atom_site_label
_atom_site_fract_x
_atom_site_fract_y
_atom_site_fract_z
Si Si1 0.996200 0.320494 0.090170
Si Si2 0.440122 0.286890 0.105406
Si Si3 0.000000 0.821081 0.750000
Si Si4 0.289045 0.521160 0.835097
Si Si5 0.500000 0.910042 0.750000
O O1 0.220087 0.319908 0.100800
O O2 0.892505 0.262761 0.185976
O O3 0.887783 0.440279 0.090806
O O4 0.975778 0.246479 0.999460
O O5 0.553176 0.387260 0.148639
O O6 0.469723 0.174687 0.166003
O O7 0.900903 0.902815 0.830723
O O8 0.180121 0.493355 0.744024
#
# Coordination Sequence:
#
# PCOD9306872 Si02
#       5
#     8   8   4   8   4
#     4  11  27  54  77 115 160 198 259 329 384 458
#     4  11  27  54  77 115 160 198 259 329 384 458
#     4  12  26  48  74 116 152 204 256 316 386 464
#     4  12  27  44  76 108 153 208 251 314 389 456
#     4  12  26  48  74 116 152 204 256 316 386 464
#
# _framework density 26.663304
#
# number of rings (size 3 to 8) (size 9 to 14) (size 15 to 20)
#    0.000    0.500    2.500    3.750   10.500    2.000 
#    0.000    0.000    0.000    0.000    0.000    0.000 
#    0.000    0.000    0.000    0.000    0.000    0.000 
#
# Total GULP energy -89275.198032 kJ/mol
# GULP energy per Si atom -5579.699877 kJ/mol
# Density = 2.660262 g / cm^3
# Si number density = 26.663304 Si / 1000 Ang^3
#
#
#
# Elastic Constant Matrix: (Units=GPa)
#
#
# Indices 1 2 3 4 5 6 
#
# 1 190.9085 46.5024 17.4836 0.0000 24.3107 0.0000
# 2 46.5024 120.0925 46.4733 0.0000 5.2082 0.0000
# 3 17.4836 46.4733 144.0121 0.0000 1.3625 0.0000
# 4 0.0000 0.0000 0.0000 27.7123 0.0000 0.5321
# 5 24.3107 5.2082 1.3625 0.0000 39.1281 0.0000
# 6 0.0000 0.0000 0.0000 0.5321 0.0000 44.0022
#
#
#
# Elastic Compliance Matrix: (Units=1/GPa)
#
#
# Indices 1 2 3 4 5 6 
#
# 1 0.006245 -0.002266 0.000007 0.000000 -0.003579 0.000000
# 2 -0.002266 0.010390 -0.003079 0.000000 0.000132 0.000000
# 3 0.000007 -0.003079 0.007935 0.000000 0.000129 0.000000
# 4 0.000000 0.000000 0.000000 0.036093 0.000000 -0.000437
# 5 -0.003579 0.000132 0.000129 0.000000 0.027759 0.000000
# 6 0.000000 0.000000 0.000000 -0.000437 0.000000 0.022731
#
#
# Mechanical properties :
#
#
# Convention : Reuss Voigt Hill
#
# Bulk Modulus (GPa) = 71.96986 75.10353 73.53670
# Shear Modulus (GPa) = 39.53770 45.13876 42.33823
#
# Velocity S-wave (km/s) = 3.85496 4.11897 3.98915
# Velocity P-wave (km/s) = 6.84580 7.13090 6.98980
#
# Compressibility (1/GPa) = 0.01389471
#
# Stress axis : x y z
#
# Youngs Moduli (GPa) = 160.12544 96.24584 126.01683
#
# Poissons Ratio (x) = 0.21806 -0.00086
# Poissons Ratio (y) = 0.36279 0.38802
# Poissons Ratio (z) = -0.00109 0.29635
#
# Static dielectric constant tensor:
#      x y z
#    x 2.290560 0.000000 -0.070030 
#    y 0.000000 2.058310 0.000000 
#    z -0.070030 0.000000 1.987300 
# 
# From -- ./inp_files/131787.got.cif
#   From: 2010.05.17/outbox.cif.g08.bks.cpg/sg15_66_cif.got.tgz:131787.got - 2010.06.03 18:47:42.
