data_PCOD9306309
_publ_section_title
;
Structure prediction by ZEFSAII (Michael W. Deem and Ramdas Pophale) SiO2 
 PCOD9306309
Probable space group: C 2/C
;
_chemical_formula_sum "Si O2"
_cell_formula_units_Z 44
_cell_length_a 26.472274
_cell_length_b 13.538816
_cell_length_c 13.797453
_cell_angle_alpha 90.000000
_cell_angle_beta 159.524446
_cell_angle_gamma 90.000000
_cell_volume 1729.817279
_symmetry_space_group_name_H-M "C 2/C"
_symmetry_group_IT_number 15
_symmetry_cell_setting 'monoclinic'
loop_
_space_group_symop_operation_xyz
x,y,z
-x,y,1/2-z
-x,-y,-z
x,-y,1/2+z
1/2+x,1/2+y,z
1/2-x,1/2+y,1/2-z
1/2-x,1/2-y,-z
1/2+x,1/2-y,1/2+z
loop_
_atom_site_type_symbol
_atom_site_label
_atom_site_fract_x
_atom_site_fract_y
_atom_site_fract_z
Si Si1 0.244956 0.153467 0.697199
Si Si2 0.000000 0.012710 0.750000
Si Si3 0.020527 0.342029 0.557622
Si Si4 0.329577 0.854368 0.032189
Si Si5 0.004009 0.878921 0.462266
Si Si6 0.272040 0.934764 0.435515
O O1 0.176824 0.259022 0.546773
O O2 0.292499 0.150830 0.894462
O O3 0.134362 0.063058 0.485769
O O4 0.382801 0.137533 0.878037
O O5 0.994237 0.081158 0.644290
O O6 0.960960 0.347839 0.342335
O O7 0.066016 0.230193 0.661113
O O8 0.143651 0.416042 0.813570
O O9 0.169043 0.857393 0.794609
O O10 0.329005 0.964621 0.989077
O O11 0.896750 0.938544 0.340126
#
# Coordination Sequence:
#
# PCOD9306309 Si02
#       6
#     8   4   8   8   8   8
#     4  11  26  44  72 106 148 190 244 301 360 435
#     4  12  26  46  74 106 142 198 258 298 356 440
#     4  11  26  47  72 109 153 187 236 305 376 433
#     4  11  25  48  72 104 151 191 237 302 366 432
#     4  11  25  46  77 105 142 194 250 298 360 433
#     4  12  25  47  78 109 146 192 246 302 366 433
#
# _framework density 25.436211
#
# number of rings (size 3 to 8) (size 9 to 14) (size 15 to 20)
#    0.000    0.727    1.818    5.455   10.182    0.000 
#    3.273    0.000    0.000    0.000    0.000    0.000 
#    0.000    0.000    0.000    0.000    0.000    0.000 
#
# Total GULP energy -123236.914608 kJ/mol
# GULP energy per Si atom -5601.677937 kJ/mol
# Density = 2.537832 g / cm^3
# Si number density = 25.436211 Si / 1000 Ang^3
#
#
#
# Elastic Constant Matrix: (Units=GPa)
#
#
# Indices 1 2 3 4 5 6 
#
# 1 88.4710 31.9333 25.3018 0.0000 -9.7783 0.0000
# 2 31.9333 136.6080 43.0712 0.0000 -28.1357 0.0000
# 3 25.3018 43.0712 109.0641 0.0000 -18.8856 0.0000
# 4 0.0000 0.0000 0.0000 23.5881 0.0000 -8.8155
# 5 -9.7783 -28.1357 -18.8856 0.0000 45.0098 0.0000
# 6 0.0000 0.0000 0.0000 -8.8155 0.0000 42.4152
#
#
#
# Elastic Compliance Matrix: (Units=1/GPa)
#
#
# Indices 1 2 3 4 5 6 
#
# 1 0.012737 -0.002244 -0.001976 0.000000 0.000535 0.000000
# 2 -0.002244 0.009540 -0.002479 0.000000 0.004436 0.000000
# 3 -0.001976 -0.002479 0.011068 0.000000 0.002665 0.000000
# 4 0.000000 0.000000 0.000000 0.045965 0.000000 0.009553
# 5 0.000535 0.004436 0.002665 0.000000 0.026225 0.000000
# 6 0.000000 0.000000 0.000000 0.009553 0.000000 0.025562
#
#
# Mechanical properties :
#
#
# Convention : Reuss Voigt Hill
#
# Bulk Modulus (GPa) = 50.13241 59.41732 54.77486
# Shear Modulus (GPa) = 33.08112 37.79172 35.43642
#
# Velocity S-wave (km/s) = 3.61023 3.85872 3.73654
# Velocity P-wave (km/s) = 6.09346 6.57746 6.34008
#
# Compressibility (1/GPa) = 0.01994718
#
# Stress axis : x y z
#
# Youngs Moduli (GPa) = 78.50859 104.82231 90.35278
#
# Poissons Ratio (x) = 0.23525 0.17854
# Poissons Ratio (y) = 0.17619 0.22396
# Poissons Ratio (z) = 0.15513 0.25983
#
# Static dielectric constant tensor:
#      x y z
#    x 1.958640 0.000000 0.011420 
#    y 0.000000 2.089950 0.000000 
#    z 0.011420 0.000000 2.035140 
# 
# From -- ./inp_files/182362.got.cif
#   From: 2010.05.17/outbox.cif.g08.bks.cpg/sg15_92_cif.got.tgz:182362.got - 2010.06.03 18:47:42.
