data_PCOD9306830
_publ_section_title
;
Structure prediction by ZEFSAII (Michael W. Deem and Ramdas Pophale) SiO2 
 PCOD9306830
Probable space group: C 2/C
;
_chemical_formula_sum "Si O2"
_cell_formula_units_Z 48
_cell_length_a 25.354882
_cell_length_b 12.253681
_cell_length_c 14.039858
_cell_angle_alpha 90.000000
_cell_angle_beta 151.875291
_cell_angle_gamma 90.000000
_cell_volume 2056.237733
_symmetry_space_group_name_H-M "C 2/C"
_symmetry_group_IT_number 15
_symmetry_cell_setting 'monoclinic'
loop_
_space_group_symop_operation_xyz
x,y,z
-x,y,1/2-z
-x,-y,-z
x,-y,1/2+z
1/2+x,1/2+y,z
1/2-x,1/2+y,1/2-z
1/2-x,1/2-y,-z
1/2+x,1/2-y,1/2+z
loop_
_atom_site_type_symbol
_atom_site_label
_atom_site_fract_x
_atom_site_fract_y
_atom_site_fract_z
Si Si1 0.000000 0.468525 0.750000
Si Si2 0.917567 0.660583 0.938946
Si Si3 0.834502 0.215583 0.957077
Si Si4 0.664825 0.107500 0.892239
Si Si5 0.854247 0.270578 0.782666
Si Si6 0.000000 0.983441 0.750000
Si Si7 0.823801 0.925139 0.106316
O O1 0.097063 0.538646 0.859659
O O2 0.947799 0.401440 0.581719
O O3 0.798959 0.716127 0.769447
O O4 0.891103 0.595227 0.799923
O O5 0.029937 0.721990 0.089748
O O6 0.877170 0.279148 0.931537
O O7 0.844644 0.272773 0.076571
O O8 0.899882 0.100176 0.059695
O O9 0.782571 0.046501 0.067851
O O10 0.816210 0.149903 0.688803
O O11 0.764520 0.360783 0.603805
O O12 0.941363 0.057472 0.738168
#
# Coordination Sequence:
#
# PCOD9306830 Si02
#       7
#     4   8   8   8   8   4   8
#     4  12  25  43  76 104 142 194 251 303 374 442
#     4  12  26  47  74 109 149 195 252 310 372 450
#     4  12  28  46  77 111 150 199 250 309 380 447
#     4  12  25  48  74 108 148 196 249 311 370 453
#     4  11  27  49  71 112 151 197 253 311 373 450
#     4  12  27  49  74 110 148 202 251 305 380 448
#     4  11  27  48  75 106 156 197 253 310 378 448
#
# _framework density 23.343603999999999
#
# number of rings (size 3 to 8) (size 9 to 14) (size 15 to 20)
#    0.000    0.333    3.333    4.500    9.333    2.000 
#    0.000    0.000    0.000    0.000    0.000    0.000 
#    0.000    0.000    0.000    0.000    0.000    0.000 
#
# Total GULP energy -134041.961560 kJ/mol
# GULP energy per Si atom -5585.081732 kJ/mol
# Density = 2.329047 g / cm^3
# Si number density = 23.343604 Si / 1000 Ang^3
#
#
#
# Elastic Constant Matrix: (Units=GPa)
#
#
# Indices 1 2 3 4 5 6 
#
# 1 179.8009 38.8928 52.2083 0.0000 -3.5840 0.0000
# 2 38.8928 104.5400 7.8521 0.0000 5.5165 0.0000
# 3 52.2083 7.8521 103.1794 0.0000 -11.8953 0.0000
# 4 0.0000 0.0000 0.0000 15.5735 0.0000 2.3351
# 5 -3.5840 5.5165 -11.8953 0.0000 64.6657 0.0000
# 6 0.0000 0.0000 0.0000 2.3351 0.0000 55.5251
#
#
#
# Elastic Compliance Matrix: (Units=1/GPa)
#
#
# Indices 1 2 3 4 5 6 
#
# 1 0.007060 -0.002370 -0.003395 0.000000 -0.000031 0.000000
# 2 -0.002370 0.010477 0.000290 0.000000 -0.000972 0.000000
# 3 -0.003395 0.000290 0.011610 0.000000 0.001923 0.000000
# 4 0.000000 0.000000 0.000000 0.064619 0.000000 -0.002718
# 5 -0.000031 -0.000972 0.001923 0.000000 0.015899 0.000000
# 6 0.000000 0.000000 0.000000 -0.002718 0.000000 0.018124
#
#
# Mechanical properties :
#
#
# Convention : Reuss Voigt Hill
#
# Bulk Modulus (GPa) = 54.95953 65.04741 60.00347
# Shear Modulus (GPa) = 34.52940 46.39067 40.46004
#
# Velocity S-wave (km/s) = 3.85018 4.46275 4.16773
# Velocity P-wave (km/s) = 6.58483 7.38109 6.99430
#
# Compressibility (1/GPa) = 0.01819521
#
# Stress axis : x y z
#
# Youngs Moduli (GPa) = 141.65117 95.44833 86.13630
#
# Poissons Ratio (x) = 0.22619 0.29246
# Poissons Ratio (y) = 0.33568 -0.02496
# Poissons Ratio (z) = 0.48096 -0.02766
#
# Static dielectric constant tensor:
#      x y z
#    x 1.884650 0.000000 0.009690 
#    y 0.000000 1.971670 0.000000 
#    z 0.009690 0.000000 1.878810 
# 
# From -- ./inp_files/177927.got.cif
#   From: 2010.05.17/outbox.cif.g08.bks.cpg/sg15_89_cif.got.tgz:177927.got - 2010.06.03 18:47:42.
