data_PCOD9306823
_publ_section_title
;
Structure prediction by ZEFSAII (Michael W. Deem and Ramdas Pophale) SiO2 
 PCOD9306823
Probable space group: C 2/C
;
_chemical_formula_sum "Si O2"
_cell_formula_units_Z 36
_cell_length_a 26.875927
_cell_length_b 5.308397
_cell_length_c 9.210152
_cell_angle_alpha 90.000000
_cell_angle_beta 109.638824
_cell_angle_gamma 90.000000
_cell_volume 1237.559631
_symmetry_space_group_name_H-M "C 2/C"
_symmetry_group_IT_number 15
_symmetry_cell_setting 'monoclinic'
loop_
_space_group_symop_operation_xyz
x,y,z
-x,y,1/2-z
-x,-y,-z
x,-y,1/2+z
1/2+x,1/2+y,z
1/2-x,1/2+y,1/2-z
1/2-x,1/2-y,-z
1/2+x,1/2-y,1/2+z
loop_
_atom_site_type_symbol
_atom_site_label
_atom_site_fract_x
_atom_site_fract_y
_atom_site_fract_z
Si Si1 0.573343 0.999519 0.035004
Si Si2 0.591066 0.652950 0.327339
Si Si3 0.000000 0.215730 0.750000
Si Si4 0.299894 0.477094 0.173832
Si Si5 0.310763 0.028138 0.876480
O O1 0.582388 0.881280 0.202358
O O2 0.548454 0.447096 0.240447
O O3 0.629964 0.939687 0.010023
O O4 0.573129 0.283912 0.974168
O O5 0.524384 0.126262 0.405593
O O6 0.650847 0.550466 0.378924
O O7 0.311263 0.217357 0.271778
O O8 0.238626 0.486460 0.061515
O O9 0.299881 0.713022 0.283063
#
# Coordination Sequence:
#
# PCOD9306823 Si02
#       5
#     8   8   4   8   8
#     4  11  27  48  75 108 149 194 252 312 374 446
#     4  11  27  47  77 106 151 196 250 311 376 444
#     4  12  28  46  72 108 146 204 256 312 364 440
#     4   9  20  42  74 111 150 190 240 304 377 449
#     4   9  20  42  74 111 150 190 240 304 377 449
#
# _framework density 29.089507000000001
#
# number of rings (size 3 to 8) (size 9 to 14) (size 15 to 20)
#    0.000    1.778    0.000    1.333   12.444    4.444 
#    0.000    1.111    0.000    0.000    0.000    0.000 
#    0.000    0.000    0.000    0.000    0.000    0.000 
#
# Total GULP energy -100781.922696 kJ/mol
# GULP energy per Si atom -5598.995705 kJ/mol
# Density = 2.902330 g / cm^3
# Si number density = 29.089507 Si / 1000 Ang^3
#
#
#
# Elastic Constant Matrix: (Units=GPa)
#
#
# Indices 1 2 3 4 5 6 
#
# 1 130.2022 25.8470 56.6176 0.0000 2.2811 0.0000
# 2 25.8470 141.4207 55.9395 0.0000 -36.5472 0.0000
# 3 56.6176 55.9395 166.6827 0.0000 -12.5947 0.0000
# 4 0.0000 0.0000 0.0000 47.9411 0.0000 -19.5423
# 5 2.2811 -36.5472 -12.5947 0.0000 53.6735 0.0000
# 6 0.0000 0.0000 0.0000 -19.5423 0.0000 31.5406
#
#
#
# Elastic Compliance Matrix: (Units=1/GPa)
#
#
# Indices 1 2 3 4 5 6 
#
# 1 0.009174 -0.000969 -0.002922 0.000000 -0.001736 0.000000
# 2 -0.000969 0.009827 -0.002504 0.000000 0.006145 0.000000
# 3 -0.002922 -0.002504 0.007852 0.000000 0.000261 0.000000
# 4 0.000000 0.000000 0.000000 0.027907 0.000000 0.017291
# 5 -0.001736 0.006145 0.000261 0.000000 0.022950 0.000000
# 6 0.000000 0.000000 0.000000 0.017291 0.000000 0.042419
#
#
# Mechanical properties :
#
#
# Convention : Reuss Voigt Hill
#
# Bulk Modulus (GPa) = 71.11632 79.45709 75.28671
# Shear Modulus (GPa) = 36.33518 46.62447 41.47982
#
# Velocity S-wave (km/s) = 3.53807 4.00783 3.78026
# Velocity P-wave (km/s) = 6.41803 6.98505 6.70753
#
# Compressibility (1/GPa) = 0.01406147
#
# Stress axis : x y z
#
# Youngs Moduli (GPa) = 109.00629 101.76168 127.35388
#
# Poissons Ratio (x) = 0.09865 0.37211
# Poissons Ratio (y) = 0.10567 0.31894
# Poissons Ratio (z) = 0.31850 0.25485
#
# Static dielectric constant tensor:
#      x y z
#    x 2.328830 0.000000 0.014040 
#    y 0.000000 2.353300 0.000000 
#    z 0.014040 0.000000 2.234250 
# 
# From -- ./inp_files/120580.got.cif
#   From: 2010.05.17/outbox.cif.g08.bks.cpg/sg15_61_cif.got.tgz:120580.got - 2010.06.03 18:47:42.
