data_PCOD9306558
_publ_section_title
;
Structure prediction by ZEFSAII (Michael W. Deem and Ramdas Pophale) SiO2 
 PCOD9306558
Probable space group: C 2/C
;
_chemical_formula_sum "Si O2"
_cell_formula_units_Z 36
_cell_length_a 21.155248
_cell_length_b 7.694235
_cell_length_c 9.270552
_cell_angle_alpha 90.000000
_cell_angle_beta 113.108436
_cell_angle_gamma 90.000000
_cell_volume 1387.923206
_symmetry_space_group_name_H-M "C 2/C"
_symmetry_group_IT_number 15
_symmetry_cell_setting 'monoclinic'
loop_
_space_group_symop_operation_xyz
x,y,z
-x,y,1/2-z
-x,-y,-z
x,-y,1/2+z
1/2+x,1/2+y,z
1/2-x,1/2+y,1/2-z
1/2-x,1/2-y,-z
1/2+x,1/2-y,1/2+z
loop_
_atom_site_type_symbol
_atom_site_label
_atom_site_fract_x
_atom_site_fract_y
_atom_site_fract_z
Si Si1 0.667989 0.574367 0.342196
Si Si2 0.500000 0.284733 0.250000
Si Si3 0.964335 0.204100 0.419140
Si Si4 0.784253 0.206586 0.818800
Si Si5 0.913708 0.406754 0.901842
O O1 0.589073 0.598090 0.224402
O O2 0.710161 0.728793 0.300108
O O3 0.684689 0.590432 0.524470
O O4 0.701397 0.398686 0.312421
O O5 0.527820 0.384521 0.415428
O O6 0.558721 0.164841 0.228198
O O7 0.930169 0.391974 0.425924
O O8 0.040023 0.284059 0.449381
O O9 0.834614 0.371636 0.855872
#
# Coordination Sequence:
#
# PCOD9306558 Si02
#       5
#     8   4   8   8   8
#     4  11  26  44  63  91 124 163 208 257 311 368
#     4   8  18  36  62  98 120 166 204 252 296 374
#     4   9  20  37  65  91 127 162 205 250 302 362
#     4  11  26  44  63  91 124 163 208 257 311 368
#     4   9  20  37  65  91 127 162 205 250 302 362
#
# _framework density 25.938036
#
# number of rings (size 3 to 8) (size 9 to 14) (size 15 to 20)
#    1.333    0.889    0.000    1.333    6.222    2.667 
#    0.000    0.000    0.000    0.000    0.000    0.000 
#    0.000    0.000    0.000    0.000    0.000    0.000 
#
# Total GULP energy -100585.975523 kJ/mol
# GULP energy per Si atom -5588.109751 kJ/mol
# Density = 2.587900 g / cm^3
# Si number density = 25.938036 Si / 1000 Ang^3
#
#
#
# Elastic Constant Matrix: (Units=GPa)
#
#
# Indices 1 2 3 4 5 6 
#
# 1 88.9555 0.1385 34.4335 0.0000 8.2837 0.0000
# 2 0.1385 41.9830 -2.1561 0.0000 4.8089 0.0000
# 3 34.4335 -2.1561 51.6773 0.0000 -4.0650 0.0000
# 4 0.0000 0.0000 0.0000 28.1661 0.0000 -0.5778
# 5 8.2837 4.8089 -4.0650 0.0000 36.2822 0.0000
# 6 0.0000 0.0000 0.0000 -0.5778 0.0000 46.6438
#
#
#
# Elastic Compliance Matrix: (Units=1/GPa)
#
#
# Indices 1 2 3 4 5 6 
#
# 1 0.015961 -0.000061 -0.011021 0.000000 -0.004871 0.000000
# 2 -0.000061 0.024217 0.000807 0.000000 -0.003105 0.000000
# 3 -0.011021 0.000807 0.027157 0.000000 0.005452 0.000000
# 4 0.000000 0.000000 0.000000 0.035513 0.000000 0.000440
# 5 -0.004871 -0.003105 0.005452 0.000000 0.029696 0.000000
# 6 0.000000 0.000000 0.000000 0.000440 0.000000 0.021445
#
#
# Mechanical properties :
#
#
# Convention : Reuss Voigt Hill
#
# Bulk Modulus (GPa) = 21.37467 27.49417 24.43442
# Shear Modulus (GPa) = 26.29733 32.23176 29.26455
#
# Velocity S-wave (km/s) = 3.18756 3.52894 3.36258
# Velocity P-wave (km/s) = 4.66968 5.21800 4.95144
#
# Compressibility (1/GPa) = 0.04678436
#
# Stress axis : x y z
#
# Youngs Moduli (GPa) = 62.65136 41.29412 36.82312
#
# Poissons Ratio (x) = 0.00251 0.40583
# Poissons Ratio (y) = 0.00380 -0.02970
# Poissons Ratio (z) = 0.69048 -0.03331
#
# Static dielectric constant tensor:
#      x y z
#    x 1.989320 0.000000 0.039710 
#    y 0.000000 2.068170 0.000000 
#    z 0.039710 0.000000 2.045060 
# 
# From -- ./inp_files/60129.got.cif
#   From: 2010.05.17/outbox.cif.g08.bks.cpg/sg15_31_cif.got.tgz:60129.got - 2010.06.03 18:47:42.
