data_PCOD9306369
_publ_section_title
;
Structure prediction by ZEFSAII (Michael W. Deem and Ramdas Pophale) SiO2 
 PCOD9306369
Probable space group: C 2/C
;
_chemical_formula_sum "Si O2"
_cell_formula_units_Z 60
_cell_length_a 11.401482
_cell_length_b 29.176146
_cell_length_c 16.846738
_cell_angle_alpha 90.000000
_cell_angle_beta 150.233865
_cell_angle_gamma 90.000000
_cell_volume 2782.211673
_symmetry_space_group_name_H-M "C 2/C"
_symmetry_group_IT_number 15
_symmetry_cell_setting 'monoclinic'
loop_
_space_group_symop_operation_xyz
x,y,z
-x,y,1/2-z
-x,-y,-z
x,-y,1/2+z
1/2+x,1/2+y,z
1/2-x,1/2+y,1/2-z
1/2-x,1/2-y,-z
1/2+x,1/2-y,1/2+z
loop_
_atom_site_type_symbol
_atom_site_label
_atom_site_fract_x
_atom_site_fract_y
_atom_site_fract_z
Si Si1 0.888573 0.254183 0.344874
Si Si2 0.068909 0.548371 0.577211
Si Si3 0.192577 0.681999 0.931571
Si Si4 0.613389 0.223876 0.488400
Si Si5 0.835137 0.015875 0.333838
Si Si6 0.127092 0.911213 0.904541
Si Si7 0.757055 0.381715 0.450762
Si Si8 0.000000 0.574476 0.250000
O O1 0.776085 0.260032 0.364439
O O2 0.032535 0.300882 0.411165
O O3 0.086101 0.215438 0.449857
O O4 0.659382 0.239910 0.160368
O O5 0.287055 0.531349 0.757781
O O6 0.108181 0.584052 0.530085
O O7 0.000000 0.500000 0.500000
O O8 0.865095 0.564547 0.515832
O O9 0.000000 0.686590 0.750000
O O10 0.296395 0.631570 0.998238
O O11 0.750000 0.250000 0.500000
O O12 0.641047 0.169671 0.493002
O O13 0.629224 0.041998 0.261281
O O14 0.959069 0.052620 0.349090
O O15 0.000000 0.000000 0.500000
O O16 0.000000 0.893848 0.750000
O O17 0.500000 0.380214 0.250000
O O18 0.818008 0.397948 0.580091
#
# Coordination Sequence:
#
# PCOD9306369 Si02
#       8
#     8   8   8   8   8   8   8   4
#     4  11  25  47  76 101 151 187 243 305 384 450
#     4  12  25  48  73  99 146 193 244 304 374 440
#     4  11  26  46  73 108 140 189 243 312 369 442
#     4  12  27  48  74 111 148 200 245 306 385 463
#     4  12  27  45  73 105 146 191 245 302 370 447
#     4  12  27  44  73 105 139 187 243 303 370 439
#     4  12  28  48  76 109 151 199 259 315 378 462
#     4  12  26  48  74 112 148 198 246 310 378 450
#
# _framework density 21.565577000000001
#
# number of rings (size 3 to 8) (size 9 to 14) (size 15 to 20)
#    0.000    0.267    4.000    3.600   11.200    0.000 
#    2.400    0.000    0.000    0.000    0.000    0.000 
#    0.000    0.000    0.000    0.000    0.000    0.000 
#
# Total GULP energy -167230.623732 kJ/mol
# GULP energy per Si atom -5574.354124 kJ/mol
# Density = 2.151649 g / cm^3
# Si number density = 21.565577 Si / 1000 Ang^3
#
#
#
# Elastic Constant Matrix: (Units=GPa)
#
#
# Indices 1 2 3 4 5 6 
#
# 1 107.5952 25.4426 1.9153 0.0000 2.2361 0.0000
# 2 25.4426 82.2024 1.9176 0.0000 21.9888 0.0000
# 3 1.9153 1.9176 93.8532 0.0001 -3.7726 0.0000
# 4 0.0000 0.0000 0.0001 25.9202 0.0001 -2.1175
# 5 2.2361 21.9888 -3.7726 0.0001 34.7226 0.0000
# 6 0.0000 0.0000 0.0000 -2.1175 0.0000 25.9273
#
#
#
# Elastic Compliance Matrix: (Units=1/GPa)
#
#
# Indices 1 2 3 4 5 6 
#
# 1 0.010102 -0.003550 -0.000070 0.000000 0.001590 0.000000
# 2 -0.003550 0.015937 -0.000652 0.000000 -0.009934 0.000000
# 3 -0.000070 -0.000652 0.010733 0.000000 0.001584 0.000000
# 4 0.000000 0.000000 0.000000 0.038839 0.000000 0.003172
# 5 0.001590 -0.009934 0.001584 0.000000 0.035161 0.000000
# 6 0.000000 0.000000 0.000000 0.003172 0.000000 0.038828
#
#
# Mechanical properties :
#
#
# Convention : Reuss Voigt Hill
#
# Bulk Modulus (GPa) = 35.42748 38.02242 36.72495
# Shear Modulus (GPa) = 29.84114 34.27238 32.05676
#
# Velocity S-wave (km/s) = 3.72390 3.99082 3.85967
# Velocity P-wave (km/s) = 5.91214 6.23738 6.07693
#
# Compressibility (1/GPa) = 0.02822668
#
# Stress axis : x y z
#
# Youngs Moduli (GPa) = 98.99194 62.74847 93.16750
#
# Poissons Ratio (x) = 0.22278 0.00649
# Poissons Ratio (y) = 0.35146 0.06079
# Poissons Ratio (z) = 0.00690 0.04094
#
# Static dielectric constant tensor:
#      x y z
#    x 1.754420 0.000000 0.003640 
#    y 0.000000 1.665610 0.000000 
#    z 0.003640 0.000000 1.867000 
# 
# From -- ./inp_files/201280.got.cif
#   From: 2010.05.17/outbox.cif.g08.bks.cpg/sg15_101_cif.got.tgz:201280.got - 2010.06.03 18:47:42.
