data_PCOD9306366
_publ_section_title
;
Structure prediction by ZEFSAII (Michael W. Deem and Ramdas Pophale) SiO2 
 PCOD9306366
Probable space group: C 2/C
;
_chemical_formula_sum "Si O2"
_cell_formula_units_Z 40
_cell_length_a 18.042281
_cell_length_b 11.951264
_cell_length_c 18.407384
_cell_angle_alpha 90.000000
_cell_angle_beta 155.768406
_cell_angle_gamma 90.000000
_cell_volume 1629.041499
_symmetry_space_group_name_H-M "C 2/C"
_symmetry_group_IT_number 15
_symmetry_cell_setting 'monoclinic'
loop_
_space_group_symop_operation_xyz
x,y,z
-x,y,1/2-z
-x,-y,-z
x,-y,1/2+z
1/2+x,1/2+y,z
1/2-x,1/2+y,1/2-z
1/2-x,1/2-y,-z
1/2+x,1/2-y,1/2+z
loop_
_atom_site_type_symbol
_atom_site_label
_atom_site_fract_x
_atom_site_fract_y
_atom_site_fract_z
Si Si1 0.622482 0.596756 0.756965
Si Si2 0.455151 0.999616 0.628663
Si Si3 0.885529 0.881838 0.821626
Si Si4 0.347052 0.763466 0.008715
Si Si5 0.731549 0.654620 0.125914
O O1 0.656200 0.513366 0.719004
O O2 0.406730 0.614270 0.560273
O O3 0.700087 0.720788 0.826901
O O4 0.745595 0.529698 0.924916
O O5 0.500000 0.965887 0.750000
O O6 0.596510 0.926387 0.709097
O O7 0.483851 0.132310 0.645501
O O8 0.751093 0.812573 0.650067
O O9 0.878062 0.841289 0.896670
O O10 0.068917 0.852931 0.942577
O O11 0.250000 0.750000 0.000000
#
# Coordination Sequence:
#
# PCOD9306366 Si02
#       5
#     8   8   8   8   8
#     4  11  26  46  71 107 142 194 249 299 366 437
#     4  11  27  47  74 105 145 199 245 304 368 440
#     4  11  26  43  76 107 150 189 242 311 365 443
#     4  11  25  47  75 112 146 190 248 310 377 435
#     4  12  25  48  72 107 151 193 249 297 369 440
#
# _framework density 24.554317000000001
#
# number of rings (size 3 to 8) (size 9 to 14) (size 15 to 20)
#    0.000    0.800    2.000    3.600    8.400    3.200 
#    0.000    0.000    0.000    0.000    0.000    0.000 
#    0.000    0.000    0.000    0.000    0.000    0.000 
#
# Total GULP energy -111635.019393 kJ/mol
# GULP energy per Si atom -5581.750970 kJ/mol
# Density = 2.449843 g / cm^3
# Si number density = 24.554317 Si / 1000 Ang^3
#
#
#
# Elastic Constant Matrix: (Units=GPa)
#
#
# Indices 1 2 3 4 5 6 
#
# 1 94.2289 8.3562 9.2637 0.0009 -0.5683 0.0007
# 2 8.3562 124.3824 8.8018 0.0011 6.0979 0.0010
# 3 9.2637 8.8018 122.2118 0.0010 -6.1779 0.0012
# 4 0.0009 0.0011 0.0010 46.2713 0.0009 3.8645
# 5 -0.5683 6.0979 -6.1779 0.0009 19.0233 0.0006
# 6 0.0007 0.0010 0.0012 3.8645 0.0006 16.4748
#
#
#
# Elastic Compliance Matrix: (Units=1/GPa)
#
#
# Indices 1 2 3 4 5 6 
#
# 1 0.010749 -0.000684 -0.000751 0.000000 0.000296 0.000000
# 2 -0.000684 0.008277 -0.000691 0.000000 -0.002898 0.000000
# 3 -0.000751 -0.000691 0.008438 0.000000 0.002939 -0.000001
# 4 0.000000 0.000000 0.000000 0.022044 -0.000001 -0.005171
# 5 0.000296 -0.002898 0.002939 -0.000001 0.054459 -0.000002
# 6 0.000000 0.000000 -0.000001 -0.005171 -0.000002 0.061912
#
#
# Mechanical properties :
#
#
# Convention : Reuss Voigt Hill
#
# Bulk Modulus (GPa) = 43.07874 43.74072 43.40973
# Shear Modulus (GPa) = 28.11122 37.31397 32.71260
#
# Velocity S-wave (km/s) = 3.38725 3.90250 3.65397
# Velocity P-wave (km/s) = 5.73413 6.17726 5.95982
#
# Compressibility (1/GPa) = 0.02321331
#
# Stress axis : x y z
#
# Youngs Moduli (GPa) = 93.03500 120.82274 118.51518
#
# Poissons Ratio (x) = 0.08259 0.08895
# Poissons Ratio (y) = 0.06359 0.08187
# Poissons Ratio (z) = 0.06983 0.08346
#
# Static dielectric constant tensor:
#      x y z
#    x 1.932740 0.000000 0.075010 
#    y 0.000000 1.898860 0.000000 
#    z 0.075010 0.000000 2.062810 
# 
# From -- ./inp_files/210824.got.cif
#   From: 2010.05.17/outbox.cif.g08.bks.cpg/sg15_106_cif.got.tgz:210824.got - 2010.06.03 18:47:42.
