data_PCOD9306374
_publ_section_title
;
Structure prediction by ZEFSAII (Michael W. Deem and Ramdas Pophale) SiO2 
 PCOD9306374
Probable space group: C 2/C
;
_chemical_formula_sum "Si O2"
_cell_formula_units_Z 48
_cell_length_a 21.790018
_cell_length_b 4.907177
_cell_length_c 20.916059
_cell_angle_alpha 90.000000
_cell_angle_beta 126.244193
_cell_angle_gamma 90.000000
_cell_volume 1803.748494
_symmetry_space_group_name_H-M "C 2/C"
_symmetry_group_IT_number 15
_symmetry_cell_setting 'monoclinic'
loop_
_space_group_symop_operation_xyz
x,y,z
-x,y,1/2-z
-x,-y,-z
x,-y,1/2+z
1/2+x,1/2+y,z
1/2-x,1/2+y,1/2-z
1/2-x,1/2-y,-z
1/2+x,1/2-y,1/2+z
loop_
_atom_site_type_symbol
_atom_site_label
_atom_site_fract_x
_atom_site_fract_y
_atom_site_fract_z
Si Si1 0.935661 0.309130 0.339381
Si Si2 0.000000 0.564723 0.750000
Si Si3 0.293007 0.293912 0.431873
Si Si4 0.000000 0.500000 0.500000
Si Si5 0.074820 0.105677 0.948870
Si Si6 0.346964 0.991411 0.592550
Si Si7 0.724467 0.516594 0.270921
O O1 0.960325 0.507101 0.295389
O O2 0.861033 0.132687 0.278437
O O3 0.929600 0.443660 0.405012
O O4 0.004481 0.090666 0.391149
O O5 0.081560 0.646458 0.831566
O O6 0.370791 0.452393 0.467058
O O7 0.315587 0.136655 0.510253
O O8 0.224451 0.503956 0.404562
O O9 0.264271 0.090000 0.361446
O O10 0.045993 0.634859 0.469168
O O11 0.120087 0.206140 0.913841
O O12 0.732975 0.204297 0.256044
#
# Coordination Sequence:
#
# PCOD9306374 Si02
#       7
#     8   4   8   4   8   8   8
#     4  12  28  49  77 110 154 203 265 329 399 470
#     4  12  22  52  70 112 148 196 262 334 386 474
#     4  11  25  50  73 111 153 201 257 324 396 472
#     4  12  26  46  74 104 154 196 258 318 398 470
#     4  12  25  46  78 110 145 205 257 326 393 484
#     4  11  25  47  77 106 153 195 260 326 400 465
#     4  12  31  51  79 115 162 210 263 324 396 478
#
# _framework density 26.611249999999998
#
# number of rings (size 3 to 8) (size 9 to 14) (size 15 to 20)
#    0.000    0.333    5.000    2.000    9.333    0.667 
#    3.000    0.000    0.000    0.000    0.000    0.000 
#    0.000    0.000    0.000    0.000    0.000    0.000 
#
# Total GULP energy -133617.735664 kJ/mol
# GULP energy per Si atom -5567.405653 kJ/mol
# Density = 2.655068 g / cm^3
# Si number density = 26.611250 Si / 1000 Ang^3
#
#
#
# Elastic Constant Matrix: (Units=GPa)
#
#
# Indices 1 2 3 4 5 6 
#
# 1 68.1500 24.4374 64.9059 -0.0005 16.8403 0.0015
# 2 24.4374 77.5483 13.8789 -0.0036 5.3060 0.0000
# 3 64.9059 13.8789 191.9499 -0.0003 7.2070 0.0001
# 4 -0.0005 -0.0036 -0.0003 15.1501 -0.0003 0.8051
# 5 16.8403 5.3060 7.2070 -0.0003 70.6888 -0.0002
# 6 0.0015 0.0000 0.0001 0.8051 -0.0002 31.6625
#
#
#
# Elastic Compliance Matrix: (Units=1/GPa)
#
#
# Indices 1 2 3 4 5 6 
#
# 1 0.025882 -0.006372 -0.008109 -0.000001 -0.004861 -0.000001
# 2 -0.006372 0.014689 0.001081 0.000003 0.000305 0.000000
# 3 -0.008109 0.001081 0.007834 0.000000 0.001052 0.000000
# 4 -0.000001 0.000003 0.000000 0.066095 0.000000 -0.001681
# 5 -0.004861 0.000305 0.001052 0.000000 0.015174 0.000000
# 6 -0.000001 0.000000 0.000000 -0.001681 0.000000 0.031626
#
#
# Mechanical properties :
#
#
# Convention : Reuss Voigt Hill
#
# Bulk Modulus (GPa) = 46.28434 60.45473 53.36954
# Shear Modulus (GPa) = 25.60140 39.12870 32.36505
#
# Velocity S-wave (km/s) = 3.10506 3.83872 3.49121
# Velocity P-wave (km/s) = 5.50325 6.51266 6.02911
#
# Compressibility (1/GPa) = 0.02160558
#
# Stress axis : x y z
#
# Youngs Moduli (GPa) = 38.63645 68.07866 127.65118
#
# Poissons Ratio (x) = 0.43382 1.03507
# Poissons Ratio (y) = 0.24621 -0.13802
# Poissons Ratio (z) = 0.31329 -0.07361
#
# Static dielectric constant tensor:
#      x y z
#    x 2.158360 -0.000010 0.053960 
#    y -0.000010 2.215920 -0.000010 
#    z 0.053960 -0.000010 2.093460 
# 
# From -- ./inp_files/254487.got.cif
#   From: 2010.05.17/outbox.cif.g08.bks.cpg/sg15_128_cif.got.tgz:254487.got - 2010.06.03 18:47:42.
