data_PCOD9306090
_publ_section_title
;
Structure prediction by ZEFSAII (Michael W. Deem and Ramdas Pophale) SiO2 
 PCOD9306090
Probable space group: C 2/C
;
_chemical_formula_sum "Si O2"
_cell_formula_units_Z 32
_cell_length_a 14.136053
_cell_length_b 4.787383
_cell_length_c 18.683253
_cell_angle_alpha 90.000000
_cell_angle_beta 96.821088
_cell_angle_gamma 90.000000
_cell_volume 1255.434057
_symmetry_space_group_name_H-M "C 2/C"
_symmetry_group_IT_number 15
_symmetry_cell_setting 'monoclinic'
loop_
_space_group_symop_operation_xyz
x,y,z
-x,y,1/2-z
-x,-y,-z
x,-y,1/2+z
1/2+x,1/2+y,z
1/2-x,1/2+y,1/2-z
1/2-x,1/2-y,-z
1/2+x,1/2-y,1/2+z
loop_
_atom_site_type_symbol
_atom_site_label
_atom_site_fract_x
_atom_site_fract_y
_atom_site_fract_z
Si Si1 0.365118 0.309989 0.591122
Si Si2 0.316711 0.666630 0.245050
Si Si3 0.070984 0.942088 0.112709
Si Si4 0.158823 0.441544 0.045282
O O1 0.356592 0.223510 0.673510
O O2 0.461663 0.483707 0.593093
O O3 0.269215 0.484176 0.566478
O O4 0.367826 0.056376 0.535307
O O5 0.241681 0.417561 0.224443
O O6 0.393335 0.535852 0.305912
O O7 0.133207 0.126703 0.062636
O O8 0.096570 0.627065 0.095225
#
# Coordination Sequence:
#
# PCOD9306090 Si02
#       4
#     8   8   8   8
#     4  11  25  44  71  98 133 178 213 273 336 379
#     4  12  24  45  65  96 134 173 220 271 321 389
#     4  12  24  46  69  98 133 174 220 270 327 396
#     4  11  26  44  68 102 134 166 224 273 322 398
#
# _framework density 25.489193
#
# number of rings (size 3 to 8) (size 9 to 14) (size 15 to 20)
#    0.000    0.500    5.000    2.250    0.000   10.000 
#    0.000    5.000    0.000    0.000    0.000    0.000 
#    0.000    0.000    0.000    0.000    0.000    0.000 
#
# Total GULP energy -89868.093346 kJ/mol
# GULP energy per Si atom -5616.755834 kJ/mol
# Density = 2.543118 g / cm^3
# Si number density = 25.489193 Si / 1000 Ang^3
#
#
#
# Elastic Constant Matrix: (Units=GPa)
#
#
# Indices 1 2 3 4 5 6 
#
# 1 130.3438 -12.6206 25.4583 0.0000 17.2506 0.0000
# 2 -12.6206 61.0192 -6.6658 0.0000 7.6100 0.0000
# 3 25.4583 -6.6658 181.1706 0.0000 13.9328 0.0000
# 4 0.0000 0.0000 0.0000 27.8943 0.0000 -0.8635
# 5 17.2506 7.6100 13.9328 0.0000 32.7403 0.0000
# 6 0.0000 0.0000 0.0000 -0.8635 0.0000 30.7249
#
#
#
# Elastic Compliance Matrix: (Units=1/GPa)
#
#
# Indices 1 2 3 4 5 6 
#
# 1 0.008678 0.002308 -0.000767 0.000000 -0.004783 0.000000
# 2 0.002308 0.017652 0.000759 0.000000 -0.005642 0.000000
# 3 -0.000767 0.000759 0.005829 0.000000 -0.002253 0.000000
# 4 0.000000 0.000000 0.000000 0.035881 0.000000 0.001008
# 5 -0.004783 -0.005642 -0.002253 0.000000 0.035333 0.000000
# 6 0.000000 0.000000 0.000000 0.001008 0.000000 0.032575
#
#
# Mechanical properties :
#
#
# Convention : Reuss Voigt Hill
#
# Bulk Modulus (GPa) = 27.20442 42.76414 34.98428
# Shear Modulus (GPa) = 34.81865 42.69604 38.75734
#
# Velocity S-wave (km/s) = 3.69998 4.09720 3.90364
# Velocity P-wave (km/s) = 5.38044 6.26071 5.83719
#
# Compressibility (1/GPa) = 0.03675873
#
# Stress axis : x y z
#
# Youngs Moduli (GPa) = 115.23168 56.65042 171.56822
#
# Poissons Ratio (x) = -0.13073 0.13155
# Poissons Ratio (y) = -0.26591 -0.13024
# Poissons Ratio (z) = 0.08836 -0.04300
#
# Static dielectric constant tensor:
#      x y z
#    x 1.951570 0.000000 0.001420 
#    y 0.000000 1.940530 0.000000 
#    z 0.001420 0.000000 2.060330 
# 
# From -- ./inp_files/109028.got.cif
#   From: 2010.05.17/outbox.cif.g08.bks.cpg/sg15_55_cif.got.tgz:109028.got - 2010.06.03 18:47:42.
