data_PCOD9306820
_publ_section_title
;
Structure prediction by ZEFSAII (Michael W. Deem and Ramdas Pophale) SiO2 
 PCOD9306820
Probable space group: C 2/C
;
_chemical_formula_sum "Si O2"
_cell_formula_units_Z 40
_cell_length_a 9.690634
_cell_length_b 14.744591
_cell_length_c 13.014114
_cell_angle_alpha 90.000000
_cell_angle_beta 73.696817
_cell_angle_gamma 90.000000
_cell_volume 1784.742692
_symmetry_space_group_name_H-M "C 2/C"
_symmetry_group_IT_number 15
_symmetry_cell_setting 'monoclinic'
loop_
_space_group_symop_operation_xyz
x,y,z
-x,y,1/2-z
-x,-y,-z
x,-y,1/2+z
1/2+x,1/2+y,z
1/2-x,1/2+y,1/2-z
1/2-x,1/2-y,-z
1/2+x,1/2-y,1/2+z
loop_
_atom_site_type_symbol
_atom_site_label
_atom_site_fract_x
_atom_site_fract_y
_atom_site_fract_z
Si Si1 0.227142 0.984137 0.352877
Si Si2 0.500000 0.559655 0.250000
Si Si3 0.374206 0.175312 0.357246
Si Si4 0.411342 0.225197 0.566708
Si Si5 0.652868 0.657741 0.039544
Si Si6 0.500000 0.128376 0.750000
O O1 0.206456 0.927346 0.461854
O O2 0.356559 0.930443 0.271812
O O3 0.288932 0.083991 0.354418
O O4 0.085911 0.997622 0.313201
O O5 0.615467 0.622617 0.162944
O O6 0.500000 0.189718 0.250000
O O7 0.432844 0.166827 0.460716
O O8 0.255949 0.255418 0.379818
O O9 0.496282 0.317699 0.526430
O O10 0.490020 0.187892 0.650155
O O11 0.750000 0.750000 0.000000
#
# Coordination Sequence:
#
# PCOD9306820 Si02
#       6
#     8   4   8   8   8   4
#     4  12  28  45  76 112 149 198 249 310 379 441
#     4  12  29  50  74 109 158 196 254 311 380 450
#     4  11  27  48  73 109 151 194 248 314 375 445
#     4  11  27  47  74 107 151 193 257 298 384 454
#     4  12  27  47  75 106 147 199 249 308 373 449
#     4  12  27  48  74 113 142 202 248 307 376 450
#
# _framework density 22.412194
#
# number of rings (size 3 to 8) (size 9 to 14) (size 15 to 20)
#    0.000    0.400    5.000    1.200    8.400    2.400 
#    0.000    0.000    0.000    0.000    0.000    0.000 
#    0.000    0.000    0.000    0.000    0.000    0.000 
#
# Total GULP energy -111707.044268 kJ/mol
# GULP energy per Si atom -5585.352213 kJ/mol
# Density = 2.236118 g / cm^3
# Si number density = 22.412194 Si / 1000 Ang^3
#
#
#
# Elastic Constant Matrix: (Units=GPa)
#
#
# Indices 1 2 3 4 5 6 
#
# 1 87.6021 25.1293 62.5945 0.0000 -0.7129 0.0000
# 2 25.1293 53.4720 57.9002 0.0000 -4.0410 0.0000
# 3 62.5945 57.9002 159.1213 0.0000 -12.2195 0.0000
# 4 0.0000 0.0000 0.0000 16.8307 0.0000 8.2867
# 5 -0.7129 -4.0410 -12.2195 0.0000 48.8722 0.0000
# 6 0.0000 0.0000 0.0000 8.2867 0.0000 26.4654
#
#
#
# Elastic Compliance Matrix: (Units=1/GPa)
#
#
# Indices 1 2 3 4 5 6 
#
# 1 0.016009 -0.001145 -0.005985 0.000000 -0.001358 0.000000
# 2 -0.001145 0.030946 -0.010822 0.000000 -0.000164 0.000000
# 3 -0.005985 -0.010822 0.012746 0.000000 0.002205 0.000000
# 4 0.000000 0.000000 0.000000 0.070244 0.000000 -0.021995
# 5 -0.001358 -0.000164 0.002205 0.000000 0.020979 0.000000
# 6 0.000000 0.000000 0.000000 -0.021995 0.000000 0.044672
#
#
# Mechanical properties :
#
#
# Convention : Reuss Voigt Hill
#
# Bulk Modulus (GPa) = 42.02475 65.71594 53.87034
# Shear Modulus (GPa) = 20.88247 28.73842 24.81045
#
# Velocity S-wave (km/s) = 3.05576 3.58476 3.33078
# Velocity P-wave (km/s) = 5.58944 6.82050 6.23542
#
# Compressibility (1/GPa) = 0.02379550
#
# Stress axis : x y z
#
# Youngs Moduli (GPa) = 62.46338 32.31439 78.45431
#
# Poissons Ratio (x) = 0.03701 0.46956
# Poissons Ratio (y) = 0.07155 0.84907
# Poissons Ratio (z) = 0.37385 0.34972
#
# Static dielectric constant tensor:
#      x y z
#    x 1.858900 0.000000 -0.095370 
#    y 0.000000 1.873400 0.000000 
#    z -0.095370 0.000000 2.136160 
# 
# From -- ./inp_files/133112.got.cif
#   From: 2010.05.17/outbox.cif.g08.bks.cpg/sg15_67_cif.got.tgz:133112.got - 2010.06.03 18:47:42.
