data_PCOD9306432
_publ_section_title
;
Structure prediction by ZEFSAII (Michael W. Deem and Ramdas Pophale) SiO2 
 PCOD9306432
Probable space group: C 2/C
;
_chemical_formula_sum "Si O2"
_cell_formula_units_Z 32
_cell_length_a 8.121104
_cell_length_b 19.543608
_cell_length_c 8.703675
_cell_angle_alpha 90.000000
_cell_angle_beta 88.714042
_cell_angle_gamma 90.000000
_cell_volume 1381.061714
_symmetry_space_group_name_H-M "C 2/C"
_symmetry_group_IT_number 15
_symmetry_cell_setting 'monoclinic'
loop_
_space_group_symop_operation_xyz
x,y,z
-x,y,1/2-z
-x,-y,-z
x,-y,1/2+z
1/2+x,1/2+y,z
1/2-x,1/2+y,1/2-z
1/2-x,1/2-y,-z
1/2+x,1/2-y,1/2+z
loop_
_atom_site_type_symbol
_atom_site_label
_atom_site_fract_x
_atom_site_fract_y
_atom_site_fract_z
Si Si1 0.708273 0.322627 0.931110
Si Si2 0.818823 0.179643 0.430537
Si Si3 0.597806 0.942926 0.396966
Si Si4 0.879829 0.960291 0.889167
O O1 0.726977 0.317985 0.747883
O O2 0.512593 0.326847 0.964003
O O3 0.750000 0.250000 0.000000
O O4 0.820890 0.382425 0.001917
O O5 0.750000 0.250000 0.500000
O O6 0.774585 0.100928 0.470168
O O7 0.500000 0.916235 0.250000
O O8 0.500000 0.000000 0.500000
O O9 0.751444 0.985890 0.325998
O O10 0.000000 0.934920 0.750000
O O11 0.000000 0.000000 0.000000
#
# Coordination Sequence:
#
# PCOD9306432 Si02
#       4
#     8   8   8   8
#     4  11  26  48  69 108 148 189 256 310 378 461
#     4  11  25  48  75 103 144 197 249 315 380 454
#     4  12  27  47  77 114 155 200 253 318 388 464
#     4  12  23  48  76 107 146 194 254 314 381 453
#
# _framework density 23.170580000000001
#
# number of rings (size 3 to 8) (size 9 to 14) (size 15 to 20)
#    0.000    0.500    5.000    3.000    7.000    3.000 
#    0.000    0.000    0.000    0.000    0.000    0.000 
#    0.000    0.000    0.000    0.000    0.000    0.000 
#
# Total GULP energy -89314.123312 kJ/mol
# GULP energy per Si atom -5582.132707 kJ/mol
# Density = 2.311784 g / cm^3
# Si number density = 23.170580 Si / 1000 Ang^3
#
#
#
# Elastic Constant Matrix: (Units=GPa)
#
#
# Indices 1 2 3 4 5 6 
#
# 1 99.2595 71.2894 63.7673 0.0000 29.1698 0.0000
# 2 71.2894 216.2710 75.2423 0.0000 17.6110 0.0000
# 3 63.7673 75.2423 103.8026 0.0000 25.0164 0.0000
# 4 0.0000 0.0000 0.0000 51.8245 0.0000 6.7039
# 5 29.1698 17.6110 25.0164 0.0000 42.2720 0.0000
# 6 0.0000 0.0000 0.0000 6.7039 0.0000 67.7524
#
#
#
# Elastic Compliance Matrix: (Units=1/GPa)
#
#
# Indices 1 2 3 4 5 6 
#
# 1 0.019653 -0.003070 -0.008033 0.000000 -0.007528 0.000000
# 2 -0.003070 0.006663 -0.003249 0.000000 0.001265 0.000000
# 3 -0.008033 -0.003249 0.017800 0.000000 -0.003637 0.000000
# 4 0.000000 0.000000 0.000000 0.019546 0.000000 -0.001934
# 5 -0.007528 0.001265 -0.003637 0.000000 0.030477 0.000000
# 6 0.000000 0.000000 0.000000 -0.001934 0.000000 0.014951
#
#
# Mechanical properties :
#
#
# Convention : Reuss Voigt Hill
#
# Bulk Modulus (GPa) = 64.88565 93.32567 79.10566
# Shear Modulus (GPa) = 34.98200 46.30541 40.64371
#
# Velocity S-wave (km/s) = 3.88978 4.47526 4.19275
# Velocity P-wave (km/s) = 6.94536 8.18957 7.59299
#
# Compressibility (1/GPa) = 0.01541173
#
# Stress axis : x y z
#
# Youngs Moduli (GPa) = 50.88322 150.08084 56.18036
#
# Poissons Ratio (x) = 0.46080 0.45130
# Poissons Ratio (y) = 0.15623 0.18251
# Poissons Ratio (z) = 0.40875 0.48755
#
# Static dielectric constant tensor:
#      x y z
#    x 2.075560 0.000000 -0.087230 
#    y 0.000000 1.921040 0.000000 
#    z -0.087230 0.000000 1.799940 
# 
# From -- ./inp_files/22264.got.cif
#   From: 2010.05.17/outbox.cif.g08.bks.cpg/sg15_12_cif.got.tgz:22264.got - 2010.06.03 18:47:42.
