data_PCOD9306962
_publ_section_title
;
Structure prediction by ZEFSAII (Michael W. Deem and Ramdas Pophale) SiO2 
 PCOD9306962
Probable space group: C 2/C
;
_chemical_formula_sum "Si O2"
_cell_formula_units_Z 44
_cell_length_a 5.546352
_cell_length_b 20.765256
_cell_length_c 18.111903
_cell_angle_alpha 90.000000
_cell_angle_beta 107.584126
_cell_angle_gamma 90.000000
_cell_volume 1988.505213
_symmetry_space_group_name_H-M "C 2/C"
_symmetry_group_IT_number 15
_symmetry_cell_setting 'monoclinic'
loop_
_space_group_symop_operation_xyz
x,y,z
-x,y,1/2-z
-x,-y,-z
x,-y,1/2+z
1/2+x,1/2+y,z
1/2-x,1/2+y,1/2-z
1/2-x,1/2-y,-z
1/2+x,1/2-y,1/2+z
loop_
_atom_site_type_symbol
_atom_site_label
_atom_site_fract_x
_atom_site_fract_y
_atom_site_fract_z
Si Si1 0.207451 0.673716 0.996765
Si Si2 0.928222 0.009164 0.409942
Si Si3 0.747173 0.026515 0.185462
Si Si4 0.708617 0.860145 0.915514
Si Si5 0.000000 0.640196 0.250000
Si Si6 0.596201 0.899732 0.337111
O O1 0.499361 0.650316 0.035242
O O2 0.996901 0.656265 0.040419
O O3 0.250000 0.750000 0.000000
O O4 0.102186 0.646520 0.908673
O O5 0.708370 0.063582 0.392571
O O6 0.163969 0.039085 0.389006
O O7 0.859851 0.939910 0.368378
O O8 0.000000 0.000000 0.500000
O O9 0.688066 0.091450 0.225277
O O10 0.000000 0.004664 0.250000
O O11 0.580526 0.962591 0.171647
O O12 0.636875 0.824921 0.831233
O O13 0.500000 0.870541 0.250000
#
# Coordination Sequence:
#
# PCOD9306962 Si02
#       6
#     8   8   8   8   4   8
#     4  12  30  52  72  97 146 198 261 304 351 419
#     4  12  23  37  67 108 137 184 224 290 387 448
#     4  12  20  38  62 106 161 174 224 290 375 468
#     4  12  25  47  75 105 144 187 235 309 370 438
#     4  12  24  38  72 114 152 182 230 298 384 460
#     4  12  24  42  69 105 142 191 235 301 365 450
#
# _framework density 22.127174
#
# number of rings (size 3 to 8) (size 9 to 14) (size 15 to 20)
#    0.000    0.000    8.182    2.727    0.000    1.455 
#    3.273    0.000    0.000    0.000    0.000    0.000 
#    0.000    0.000    0.000    0.000    0.000    0.000 
#
# Total GULP energy -122519.401480 kJ/mol
# GULP energy per Si atom -5569.063704 kJ/mol
# Density = 2.207681 g / cm^3
# Si number density = 22.127174 Si / 1000 Ang^3
#
#
#
# Elastic Constant Matrix: (Units=GPa)
#
#
# Indices 1 2 3 4 5 6 
#
# 1 90.7322 -4.6807 42.8672 0.0000 -20.2415 0.0000
# 2 -4.6807 47.5965 1.7461 0.0000 -1.2138 0.0000
# 3 42.8672 1.7461 187.7383 0.0000 -7.3392 0.0000
# 4 0.0000 0.0000 0.0000 8.4956 0.0000 -3.1975
# 5 -20.2415 -1.2138 -7.3392 0.0000 53.1162 0.0000
# 6 0.0000 0.0000 0.0000 -3.1975 0.0000 -6.6105
#
#
#
# Elastic Compliance Matrix: (Units=1/GPa)
#
#
# Indices 1 2 3 4 5 6 
#
# 1 0.013552 0.001562 -0.002922 0.000000 0.004797 0.000000
# 2 0.001562 0.021208 -0.000515 0.000000 0.001009 0.000000
# 3 -0.002922 -0.000515 0.005987 0.000000 -0.000298 0.000000
# 4 0.000000 0.000000 0.000000 0.099580 0.000000 -0.048167
# 5 0.004797 0.001009 -0.000298 0.000000 0.020636 0.000000
# 6 0.000000 0.000000 0.000000 -0.048167 0.000000 -0.127977
#
#
# Mechanical properties :
#
#
# Convention : Reuss Voigt Hill
#
# Bulk Modulus (GPa) = 27.02714 45.10355 36.06535
# Shear Modulus (GPa) = 101.90023 30.07590 65.98806
#
# Velocity S-wave (km/s) = 6.79353 3.69077 5.46689
# Velocity P-wave (km/s) = 8.58936 6.21212 7.49558
#
# Compressibility (1/GPa) = 0.03699984
#
# Stress axis : x y z
#
# Youngs Moduli (GPa) = 73.78772 47.15158 167.03455
#
# Poissons Ratio (x) = -0.07366 0.48799
# Poissons Ratio (y) = -0.11528 0.08594
# Poissons Ratio (z) = 0.21557 0.02426
#
# Static dielectric constant tensor:
#      x y z
#    x 2.017900 0.000000 0.087850 
#    y 0.000000 1.827280 0.000000 
#    z 0.087850 0.000000 1.935580 
# 
# From -- ./inp_files/184935.got.cif
#   From: 2010.05.17/outbox.cif.g08.bks.cpg/sg15_93_cif.got.tgz:184935.got - 2010.06.03 18:47:42.
