data_PCOD9306538
_publ_section_title
;
Structure prediction by ZEFSAII (Michael W. Deem and Ramdas Pophale) SiO2 
 PCOD9306538
Probable space group: C 2/C
;
_chemical_formula_sum "Si O2"
_cell_formula_units_Z 36
_cell_length_a 9.896421
_cell_length_b 18.187289
_cell_length_c 8.758995
_cell_angle_alpha 90.000000
_cell_angle_beta 57.655652
_cell_angle_gamma 90.000000
_cell_volume 1331.922573
_symmetry_space_group_name_H-M "C 2/C"
_symmetry_group_IT_number 15
_symmetry_cell_setting 'monoclinic'
loop_
_space_group_symop_operation_xyz
x,y,z
-x,y,1/2-z
-x,-y,-z
x,-y,1/2+z
1/2+x,1/2+y,z
1/2-x,1/2+y,1/2-z
1/2-x,1/2-y,-z
1/2+x,1/2-y,1/2+z
loop_
_atom_site_type_symbol
_atom_site_label
_atom_site_fract_x
_atom_site_fract_y
_atom_site_fract_z
Si Si1 0.667815 0.627783 0.306816
Si Si2 0.847171 0.037562 0.475477
Si Si3 0.500000 0.901177 0.750000
Si Si4 0.662874 0.783195 0.202598
Si Si5 0.789007 0.423141 0.147318
O O1 0.711720 0.598025 0.111143
O O2 0.516356 0.572480 0.429028
O O3 0.827922 0.634826 0.310080
O O4 0.607850 0.710958 0.329062
O O5 0.723104 0.031054 0.688478
O O6 0.839180 0.962858 0.384229
O O7 0.553471 0.929842 0.550044
O O8 0.500000 0.822799 0.250000
O O9 0.745396 0.841163 0.267625
O O10 0.750000 0.750000 0.000000
#
# Coordination Sequence:
#
# PCOD9306538 Si02
#       5
#     8   8   4   8   8
#     4  11  25  52  83 121 166 219 280 340 419 500
#     4  11  26  52  80 115 166 227 269 339 417 507
#     4  12  30  48  76 128 166 216 278 362 402 480
#     4  12  23  51  86 121 161 227 274 343 423 506
#     4  12  28  49  82 123 171 217 284 346 415 495
#
# _framework density 27.028597999999999
#
# number of rings (size 3 to 8) (size 9 to 14) (size 15 to 20)
#    0.000    0.444    4.444    2.667    0.000   13.333 
#    2.000    2.222    0.000    0.000    0.000    0.000 
#    0.000    0.000    0.000    0.000    0.000    0.000 
#
# Total GULP energy -100402.783249 kJ/mol
# GULP energy per Si atom -5577.932403 kJ/mol
# Density = 2.696708 g / cm^3
# Si number density = 27.028598 Si / 1000 Ang^3
#
#
#
# Elastic Constant Matrix: (Units=GPa)
#
#
# Indices 1 2 3 4 5 6 
#
# 1 160.9303 65.5622 22.3582 0.0000 10.3966 0.0000
# 2 65.5622 173.7659 58.5938 0.0000 -0.1774 0.0000
# 3 22.3582 58.5938 225.1301 0.0000 -5.7892 0.0000
# 4 0.0000 0.0000 0.0000 33.7834 0.0000 -3.4841
# 5 10.3966 -0.1774 -5.7892 0.0000 53.4305 0.0000
# 6 0.0000 0.0000 0.0000 -3.4841 0.0000 36.1992
#
#
#
# Elastic Compliance Matrix: (Units=1/GPa)
#
#
# Indices 1 2 3 4 5 6 
#
# 1 0.007455 -0.002797 -0.000050 0.000000 -0.001465 0.000000
# 2 -0.002797 0.007360 -0.001628 0.000000 0.000392 0.000000
# 3 -0.000050 -0.001628 0.004884 0.000000 0.000534 0.000000
# 4 0.000000 0.000000 0.000000 0.029897 0.000000 0.002878
# 5 -0.001465 0.000392 0.000534 0.000000 0.019060 0.000000
# 6 0.000000 0.000000 0.000000 0.002878 0.000000 0.027902
#
#
# Mechanical properties :
#
#
# Convention : Reuss Voigt Hill
#
# Bulk Modulus (GPa) = 93.03294 94.76165 93.89730
# Shear Modulus (GPa) = 45.83331 52.23675 49.03503
#
# Velocity S-wave (km/s) = 4.12240 4.40096 4.26395
# Velocity P-wave (km/s) = 7.56001 7.80772 7.68486
#
# Compressibility (1/GPa) = 0.01074888
#
# Stress axis : x y z
#
# Youngs Moduli (GPa) = 134.13522 135.87751 204.74393
#
# Poissons Ratio (x) = 0.38012 0.01023
# Poissons Ratio (y) = 0.37524 0.33323
# Poissons Ratio (z) = 0.00670 0.22114
#
# Static dielectric constant tensor:
#      x y z
#    x 2.129790 0.000000 0.034780 
#    y 0.000000 2.230990 0.000000 
#    z 0.034780 0.000000 2.214880 
# 
# From -- ./inp_files/30106.got.cif
#   From: 2010.05.17/outbox.cif.g08.bks.cpg/sg15_16_cif.got.tgz:30106.got - 2010.06.03 18:47:42.
