data_PCOD9306856
_publ_section_title
;
Structure prediction by ZEFSAII (Michael W. Deem and Ramdas Pophale) SiO2 
 PCOD9306856
Probable space group: C 2/C
;
_chemical_formula_sum "Si O2"
_cell_formula_units_Z 56
_cell_length_a 15.179056
_cell_length_b 22.522442
_cell_length_c 14.392425
_cell_angle_alpha 90.000000
_cell_angle_beta 27.849204
_cell_angle_gamma 90.000000
_cell_volume 2298.512992
_symmetry_space_group_name_H-M "C 2/C"
_symmetry_group_IT_number 15
_symmetry_cell_setting 'monoclinic'
loop_
_space_group_symop_operation_xyz
x,y,z
-x,y,1/2-z
-x,-y,-z
x,-y,1/2+z
1/2+x,1/2+y,z
1/2-x,1/2+y,1/2-z
1/2-x,1/2-y,-z
1/2+x,1/2-y,1/2+z
loop_
_atom_site_type_symbol
_atom_site_label
_atom_site_fract_x
_atom_site_fract_y
_atom_site_fract_z
Si Si1 0.539436 0.957256 0.606800
Si Si2 0.780069 0.994032 0.226897
Si Si3 0.128631 0.165124 0.214196
Si Si4 0.513041 0.824051 0.875368
Si Si5 0.970844 0.700374 0.634509
Si Si6 0.429013 0.307213 0.415732
Si Si7 0.625999 0.365701 0.404724
O O1 0.500000 0.973529 0.750000
O O2 0.703442 0.995774 0.403943
O O3 0.580059 0.886653 0.563370
O O4 0.354803 0.968718 0.714811
O O5 0.757893 0.924494 0.223590
O O6 0.000000 0.000000 0.000000
O O7 0.000000 0.144953 0.250000
O O8 0.064303 0.231688 0.304930
O O9 0.069272 0.124991 0.357544
O O10 0.348300 0.171270 0.986144
O O11 0.420156 0.764464 0.921592
O O12 0.723886 0.828212 0.638427
O O13 0.516394 0.809810 0.982428
O O14 0.769183 0.670737 0.834998
O O15 0.500000 0.329061 0.250000
O O16 0.571938 0.329232 0.362877
#
# Coordination Sequence:
#
# PCOD9306856 Si02
#       7
#     8   8   8   8   8   8   8
#     4  11  27  50  77 110 144 191 252 313 368 433
#     4  11  27  52  77 102 143 196 248 306 370 434
#     4  12  25  42  67 103 142 194 240 290 357 430
#     4  12  22  43  68 105 153 191 233 299 361 443
#     4  12  22  41  68  97 145 184 231 288 355 430
#     4  12  25  38  67 111 153 196 236 287 364 452
#     4  12  25  45  70 103 144 188 236 298 361 432
#
# _framework density 24.363579000000001
#
# number of rings (size 3 to 8) (size 9 to 14) (size 15 to 20)
#    0.000    0.286    5.714    3.000    2.000    0.571 
#    5.143    0.000    0.000    0.000    0.000    0.000 
#    0.000    0.000    0.000    0.000    0.000    0.000 
#
# Total GULP energy -156761.713149 kJ/mol
# GULP energy per Si atom -5598.632612 kJ/mol
# Density = 2.430813 g / cm^3
# Si number density = 24.363579 Si / 1000 Ang^3
#
#
#
# Elastic Constant Matrix: (Units=GPa)
#
#
# Indices 1 2 3 4 5 6 
#
# 1 117.3928 10.8967 41.8172 -0.0268 18.4942 0.0162
# 2 10.8967 51.4790 9.8822 -0.0423 7.6131 0.0206
# 3 41.8172 9.8822 151.9591 -0.0180 -0.8746 0.0176
# 4 -0.0268 -0.0423 -0.0180 16.5341 0.0239 -0.8902
# 5 18.4942 7.6131 -0.8746 0.0239 45.5938 -0.0147
# 6 0.0162 0.0206 0.0176 -0.8902 -0.0147 17.9228
#
#
#
# Elastic Compliance Matrix: (Units=1/GPa)
#
#
# Indices 1 2 3 4 5 6 
#
# 1 0.010238 -0.001038 -0.002773 0.000016 -0.004033 -0.000008
# 2 -0.001038 0.020289 -0.001051 0.000052 -0.002987 -0.000021
# 3 -0.002773 -0.001051 0.007420 -0.000001 0.001443 -0.000002
# 4 0.000016 0.000052 -0.000001 0.060643 -0.000046 0.003012
# 5 -0.004033 -0.002987 0.001443 -0.000046 0.024095 0.000023
# 6 -0.000008 -0.000021 -0.000002 0.003012 0.000023 0.055945
#
#
# Mechanical properties :
#
#
# Convention : Reuss Voigt Hill
#
# Bulk Modulus (GPa) = 35.43268 49.55812 42.49540
# Shear Modulus (GPa) = 25.28293 33.22580 29.25437
#
# Velocity S-wave (km/s) = 3.22488 3.69690 3.46893
# Velocity P-wave (km/s) = 5.33305 6.21353 5.79005
#
# Compressibility (1/GPa) = 0.02822254
#
# Stress axis : x y z
#
# Youngs Moduli (GPa) = 97.67635 49.28864 134.76258
#
# Poissons Ratio (x) = 0.05118 0.37370
# Poissons Ratio (y) = 0.10143 0.14161
# Poissons Ratio (z) = 0.27086 0.05179
#
# Static dielectric constant tensor:
#      x y z
#    x 1.952670 -0.000020 0.013500 
#    y -0.000020 1.967730 0.000020 
#    z 0.013500 0.000020 1.966490 
# 
# From -- ./inp_files/156919.got.cif
#   From: 2010.05.17/outbox.cif.g08.bks.cpg/sg15_79_cif.got.tgz:156919.got - 2010.06.03 18:47:42.
