data_PCOD9306883
_publ_section_title
;
Structure prediction by ZEFSAII (Michael W. Deem and Ramdas Pophale) SiO2 
 PCOD9306883
Probable space group: C 2/C
;
_chemical_formula_sum "Si O2"
_cell_formula_units_Z 32
_cell_length_a 19.062222
_cell_length_b 5.305638
_cell_length_c 21.236980
_cell_angle_alpha 90.000000
_cell_angle_beta 149.296006
_cell_angle_gamma 90.000000
_cell_volume 1096.698212
_symmetry_space_group_name_H-M "C 2/C"
_symmetry_group_IT_number 15
_symmetry_cell_setting 'monoclinic'
loop_
_space_group_symop_operation_xyz
x,y,z
-x,y,1/2-z
-x,-y,-z
x,-y,1/2+z
1/2+x,1/2+y,z
1/2-x,1/2+y,1/2-z
1/2-x,1/2-y,-z
1/2+x,1/2-y,1/2+z
loop_
_atom_site_type_symbol
_atom_site_label
_atom_site_fract_x
_atom_site_fract_y
_atom_site_fract_z
Si Si1 0.304033 0.985580 0.891469
Si Si2 0.913483 0.821307 0.869239
Si Si3 0.250000 0.250000 0.500000
Si Si4 0.576204 0.311085 0.426974
Si Si5 0.000000 0.509998 0.250000
O O1 0.319963 0.214916 0.853471
O O2 0.187020 0.814271 0.769604
O O3 0.449125 0.844608 0.015001
O O4 0.299840 0.119847 0.957172
O O5 0.978452 0.100813 0.909144
O O6 0.363868 0.437190 0.554805
O O7 0.365136 0.151606 0.638659
O O8 0.494223 0.174655 0.308937
#
# Coordination Sequence:
#
# PCOD9306883 Si02
#       5
#     8   8   4   8   4
#     4  11  28  49  81 117 158 204 263 326 399 465
#     4  11  28  50  78 118 156 204 259 330 397 471
#     4  12  28  52  80 114 156 208 264 320 392 466
#     4  12  27  50  81 116 156 210 262 330 386 477
#     4  12  28  52  78 116 154 210 266 324 388 470
#
# _framework density 29.178491000000001
#
# number of rings (size 3 to 8) (size 9 to 14) (size 15 to 20)
#    0.000    0.500    0.000    5.250   10.500   10.000 
#    0.000    0.000    0.000    0.000    0.000    0.000 
#    0.000    0.000    0.000    0.000    0.000    0.000 
#
# Total GULP energy -89171.204242 kJ/mol
# GULP energy per Si atom -5573.200265 kJ/mol
# Density = 2.911208 g / cm^3
# Si number density = 29.178491 Si / 1000 Ang^3
#
#
#
# Elastic Constant Matrix: (Units=GPa)
#
#
# Indices 1 2 3 4 5 6 
#
# 1 86.1060 40.8830 52.2477 -0.0007 -26.1173 0.0010
# 2 40.8830 115.4313 95.7792 -0.0071 -13.0537 0.0101
# 3 52.2477 95.7792 293.6840 0.0020 -7.5579 -0.0030
# 4 -0.0007 -0.0071 0.0020 186.3284 0.0002 -125.8714
# 5 -26.1173 -13.0537 -7.5579 0.0002 51.9892 -0.0004
# 6 0.0010 0.0101 -0.0030 -125.8714 -0.0004 181.3336
#
#
#
# Elastic Compliance Matrix: (Units=1/GPa)
#
#
# Indices 1 2 3 4 5 6 
#
# 1 0.016484 -0.003774 -0.001519 0.000000 0.007113 0.000000
# 2 -0.003774 0.013055 -0.003564 0.000000 0.000864 -0.000001
# 3 -0.001519 -0.003564 0.004813 0.000000 -0.000958 0.000000
# 4 0.000000 0.000000 0.000000 0.010106 0.000000 0.007015
# 5 0.007113 0.000864 -0.000958 0.000000 0.022886 0.000000
# 6 0.000000 -0.000001 0.000000 0.007015 0.000000 0.010384
#
#
# Mechanical properties :
#
#
# Convention : Reuss Voigt Hill
#
# Bulk Modulus (GPa) = 60.10033 97.00457 78.55245
# Shear Modulus (GPa) = 49.51174 104.35101 76.93137
#
# Velocity S-wave (km/s) = 4.12376 5.98670 5.14033
# Velocity P-wave (km/s) = 6.58149 9.00583 7.88736
#
# Compressibility (1/GPa) = 0.01663884
#
# Stress axis : x y z
#
# Youngs Moduli (GPa) = 60.66335 76.60153 207.77634
#
# Poissons Ratio (x) = 0.28907 0.31559
# Poissons Ratio (y) = 0.22893 0.74049
# Poissons Ratio (z) = 0.09214 0.27300
#
# Static dielectric constant tensor:
#      x y z
#    x 2.200330 0.000000 0.085390 
#    y 0.000000 2.527600 0.000000 
#    z 0.085390 0.000000 2.183480 
# 
# From -- ./inp_files/124692.got.cif
#   From: 2010.05.17/outbox.cif.g08.bks.cpg/sg15_63_cif.got.tgz:124692.got - 2010.06.03 18:47:42.
