data_PCOD9306845
_publ_section_title
;
Structure prediction by ZEFSAII (Michael W. Deem and Ramdas Pophale) SiO2 
 PCOD9306845
Probable space group: C 2/C
;
_chemical_formula_sum "Si O2"
_cell_formula_units_Z 32
_cell_length_a 18.367844
_cell_length_b 4.923230
_cell_length_c 25.333041
_cell_angle_alpha 90.000000
_cell_angle_beta 146.346071
_cell_angle_gamma 90.000000
_cell_volume 1269.529463
_symmetry_space_group_name_H-M "C 2/C"
_symmetry_group_IT_number 15
_symmetry_cell_setting 'monoclinic'
loop_
_space_group_symop_operation_xyz
x,y,z
-x,y,1/2-z
-x,-y,-z
x,-y,1/2+z
1/2+x,1/2+y,z
1/2-x,1/2+y,1/2-z
1/2-x,1/2-y,-z
1/2+x,1/2-y,1/2+z
loop_
_atom_site_type_symbol
_atom_site_label
_atom_site_fract_x
_atom_site_fract_y
_atom_site_fract_z
Si Si1 0.275633 0.045144 0.379961
Si Si2 0.488364 0.397693 0.321794
Si Si3 0.842459 0.378084 0.101473
Si Si4 0.484696 0.698875 0.940679
O O1 0.153650 0.856479 0.290029
O O2 0.387894 0.891309 0.480677
O O3 0.229645 0.299256 0.387846
O O4 0.351660 0.138926 0.373354
O O5 0.530896 0.688371 0.326204
O O6 0.477991 0.419513 0.378488
O O7 0.600927 0.178587 0.374431
O O8 0.750000 0.250000 0.000000
O O9 0.500000 0.500000 0.000000
#
# Coordination Sequence:
#
# PCOD9306845 Si02
#       4
#     8   8   8   8
#     4  11  28  48  76 116 151 206 264 324 399 474
#     4  12  29  48  82 112 154 207 260 327 393 474
#     4  12  26  52  77 110 156 205 265 322 391 471
#     4  11  27  49  79 110 162 203 258 331 397 483
#
# _framework density 25.206188000000001
#
# number of rings (size 3 to 8) (size 9 to 14) (size 15 to 20)
#    0.000    0.500    2.500    3.000   14.000    2.000 
#    0.000    0.000    0.000    0.000    0.000    0.000 
#    0.000    0.000    0.000    0.000    0.000    0.000 
#
# Total GULP energy -89657.085765 kJ/mol
# GULP energy per Si atom -5603.567860 kJ/mol
# Density = 2.514882 g / cm^3
# Si number density = 25.206188 Si / 1000 Ang^3
#
#
#
# Elastic Constant Matrix: (Units=GPa)
#
#
# Indices 1 2 3 4 5 6 
#
# 1 153.4060 16.3796 61.3930 0.0043 -14.7502 0.0024
# 2 16.3796 68.3348 6.3925 0.0162 -3.3401 0.0300
# 3 61.3930 6.3925 108.3484 0.0027 8.0124 0.0042
# 4 0.0043 0.0162 0.0027 27.6800 0.0033 -0.5391
# 5 -14.7502 -3.3401 8.0124 0.0033 35.2313 0.0078
# 6 0.0024 0.0300 0.0042 -0.5391 0.0078 26.9315
#
#
#
# Elastic Compliance Matrix: (Units=1/GPa)
#
#
# Indices 1 2 3 4 5 6 
#
# 1 0.009416 -0.001483 -0.005624 -0.000001 0.005081 0.000000
# 2 -0.001483 0.015040 -0.000109 -0.000009 0.000830 -0.000017
# 3 -0.005624 -0.000109 0.012813 0.000000 -0.005279 0.000000
# 4 -0.000001 -0.000009 0.000000 0.036141 -0.000005 0.000723
# 5 0.005081 0.000830 -0.005279 -0.000005 0.031790 -0.000010
# 6 0.000000 -0.000017 0.000000 0.000723 -0.000010 0.037146
#
#
# Mechanical properties :
#
#
# Convention : Reuss Voigt Hill
#
# Bulk Modulus (GPa) = 43.78470 55.37992 49.58231
# Shear Modulus (GPa) = 30.41576 34.36350 32.38963
#
# Velocity S-wave (km/s) = 3.47750 3.69629 3.58856
# Velocity P-wave (km/s) = 5.79071 6.34312 6.07320
#
# Compressibility (1/GPa) = 0.02283903
#
# Stress axis : x y z
#
# Youngs Moduli (GPa) = 106.20207 66.48966 78.04742
#
# Poissons Ratio (x) = 0.09858 0.43891
# Poissons Ratio (y) = 0.15745 0.00848
# Poissons Ratio (z) = 0.59724 0.00722
#
# Static dielectric constant tensor:
#      x y z
#    x 2.073900 0.000020 -0.044300 
#    y 0.000020 2.000950 -0.000030 
#    z -0.044300 -0.000030 2.073630 
# 
# From -- ./inp_files/314980.got.cif
#   From: 2010.05.17/outbox.cif.g08.bks.cpg/sg15_158_cif.got.tgz:314980.got - 2010.06.03 18:47:42.
