data_PCOD9306770
_publ_section_title
;
Structure prediction by ZEFSAII (Michael W. Deem and Ramdas Pophale) SiO2 
 PCOD9306770
Probable space group: C 2/C
;
_chemical_formula_sum "Si O2"
_cell_formula_units_Z 44
_cell_length_a 14.734794
_cell_length_b 12.065043
_cell_length_c 13.665520
_cell_angle_alpha 90.000000
_cell_angle_beta 45.165219
_cell_angle_gamma 90.000000
_cell_volume 1722.791978
_symmetry_space_group_name_H-M "C 2/C"
_symmetry_group_IT_number 15
_symmetry_cell_setting 'monoclinic'
loop_
_space_group_symop_operation_xyz
x,y,z
-x,y,1/2-z
-x,-y,-z
x,-y,1/2+z
1/2+x,1/2+y,z
1/2-x,1/2+y,1/2-z
1/2-x,1/2-y,-z
1/2+x,1/2-y,1/2+z
loop_
_atom_site_type_symbol
_atom_site_label
_atom_site_fract_x
_atom_site_fract_y
_atom_site_fract_z
Si Si1 0.412215 0.035152 0.463712
Si Si2 0.000000 0.890237 0.250000
Si Si3 0.418134 0.552146 0.476181
Si Si4 0.843544 0.275484 0.520712
Si Si5 0.817167 0.567590 0.319307
Si Si6 0.268079 0.707390 0.797388
O O1 0.385501 0.903257 0.486299
O O2 0.436396 0.939418 0.654586
O O3 0.368854 0.071972 0.389153
O O4 0.332130 0.111602 0.598944
O O5 0.901511 0.824543 0.253794
O O6 0.924950 0.975347 0.376489
O O7 0.500000 0.500000 0.500000
O O8 0.451561 0.679287 0.428469
O O9 0.272296 0.538373 0.622230
O O10 0.750000 0.250000 0.500000
O O11 0.789551 0.246333 0.669494
O O12 0.729563 0.675531 0.373747
#
# Coordination Sequence:
#
# PCOD9306770 Si02
#       6
#     8   4   8   8   8   8
#     4  11  26  51  84 122 161 220 277 361 429 507
#     4  12  24  48  80 118 162 220 286 342 414 530
#     4  12  27  51  79 119 165 227 279 348 431 510
#     4  12  27  51  79 120 168 223 281 357 427 504
#     4  11  26  50  83 116 164 210 286 342 431 516
#     4  12  27  48  83 119 162 219 280 348 432 505
#
# _framework density 25.539939
#
# number of rings (size 3 to 8) (size 9 to 14) (size 15 to 20)
#    0.000    0.364    5.455    1.636    5.091    3.636 
#    6.545    0.000    0.000    0.000    0.000    0.000 
#    0.000    0.000    0.000    0.000    0.000    0.000 
#
# Total GULP energy -123088.817079 kJ/mol
# GULP energy per Si atom -5594.946231 kJ/mol
# Density = 2.548181 g / cm^3
# Si number density = 25.539939 Si / 1000 Ang^3
#
#
#
# Elastic Constant Matrix: (Units=GPa)
#
#
# Indices 1 2 3 4 5 6 
#
# 1 102.0659 16.7422 50.5600 0.0000 15.1552 0.0000
# 2 16.7422 197.7353 53.1753 0.0000 8.4282 0.0000
# 3 50.5600 53.1753 148.1071 0.0000 15.1706 0.0000
# 4 0.0000 0.0000 0.0000 33.6530 0.0000 10.6697
# 5 15.1552 8.4282 15.1706 0.0000 50.7130 0.0000
# 6 0.0000 0.0000 0.0000 10.6697 0.0000 42.2973
#
#
#
# Elastic Compliance Matrix: (Units=1/GPa)
#
#
# Indices 1 2 3 4 5 6 
#
# 1 0.012083 0.000136 -0.003922 0.000000 -0.002460 0.000000
# 2 0.000136 0.005605 -0.002021 0.000000 -0.000368 0.000000
# 3 -0.003922 -0.002021 0.008936 0.000000 -0.001165 0.000000
# 4 0.000000 0.000000 0.000000 0.032298 0.000000 -0.008147
# 5 -0.002460 -0.000368 -0.001165 0.000000 0.020864 0.000000
# 6 0.000000 0.000000 0.000000 -0.008147 0.000000 0.025697
#
#
# Mechanical properties :
#
#
# Convention : Reuss Voigt Hill
#
# Bulk Modulus (GPa) = 66.61967 76.54035 71.58001
# Shear Modulus (GPa) = 40.94993 47.16138 44.05566
#
# Velocity S-wave (km/s) = 4.00855 4.30184 4.15778
# Velocity P-wave (km/s) = 6.89680 7.39651 7.15102
#
# Compressibility (1/GPa) = 0.01501058
#
# Stress axis : x y z
#
# Youngs Moduli (GPa) = 82.75865 178.41370 111.90984
#
# Poissons Ratio (x) = -0.02435 0.43890
# Poissons Ratio (y) = -0.01129 0.22620
# Poissons Ratio (z) = 0.32457 0.36063
#
# Static dielectric constant tensor:
#      x y z
#    x 2.048250 0.000000 -0.049220 
#    y 0.000000 2.000610 0.000000 
#    z -0.049220 0.000000 1.893520 
# 
# From -- ./inp_files/103628.got.cif
#   From: 2010.05.17/outbox.cif.g08.bks.cpg/sg15_52_cif.got.tgz:103628.got - 2010.06.03 18:47:42.
