data_PCOD9306692
_publ_section_title
;
Structure prediction by ZEFSAII (Michael W. Deem and Ramdas Pophale) SiO2 
 PCOD9306692
Probable space group: C 2/C
;
_chemical_formula_sum "Si O2"
_cell_formula_units_Z 40
_cell_length_a 11.807421
_cell_length_b 19.586814
_cell_length_c 7.393467
_cell_angle_alpha 90.000000
_cell_angle_beta 83.583751
_cell_angle_gamma 90.000000
_cell_volume 1699.175065
_symmetry_space_group_name_H-M "C 2/C"
_symmetry_group_IT_number 15
_symmetry_cell_setting 'monoclinic'
loop_
_space_group_symop_operation_xyz
x,y,z
-x,y,1/2-z
-x,-y,-z
x,-y,1/2+z
1/2+x,1/2+y,z
1/2-x,1/2+y,1/2-z
1/2-x,1/2-y,-z
1/2+x,1/2-y,1/2+z
loop_
_atom_site_type_symbol
_atom_site_label
_atom_site_fract_x
_atom_site_fract_y
_atom_site_fract_z
Si Si1 0.095437 0.057737 0.515664
Si Si2 0.500000 0.671179 0.750000
Si Si3 0.729978 0.253307 0.220880
Si Si4 0.235359 0.516416 0.303332
Si Si5 0.500000 0.939462 0.250000
Si Si6 0.828207 0.359392 0.477914
O O1 0.197544 0.060785 0.355653
O O2 0.028948 0.126053 0.569642
O O3 0.171540 0.041869 0.677428
O O4 0.000000 0.000000 0.500000
O O5 0.393943 0.716510 0.729464
O O6 0.807644 0.309733 0.310106
O O7 0.717238 0.184571 0.343108
O O8 0.750000 0.250000 0.000000
O O9 0.232780 0.567153 0.477256
O O10 0.108636 0.486335 0.291040
O O11 0.455838 0.889658 0.419634
#
# Coordination Sequence:
#
# PCOD9306692 Si02
#       6
#     8   4   8   8   4   8
#     4  12  23  42  71 104 148 190 242 312 378 459
#     4  12  24  43  72 105 136 190 250 298 380 438
#     4  11  27  51  73 104 147 200 257 317 365 454
#     4  12  24  46  72 111 150 192 246 314 393 461
#     4  12  26  45  80 111 156 196 246 324 394 470
#     4  11  26  48  74 107 147 197 248 305 384 453
#
# _framework density 23.540832999999999
#
# number of rings (size 3 to 8) (size 9 to 14) (size 15 to 20)
#    0.000    0.400    4.000    4.200    2.800    0.800 
#    0.000    0.000    0.000    0.000    0.000    0.000 
#    0.000    0.000    0.000    0.000    0.000    0.000 
#
# Total GULP energy -111369.816426 kJ/mol
# GULP energy per Si atom -5568.490821 kJ/mol
# Density = 2.348725 g / cm^3
# Si number density = 23.540833 Si / 1000 Ang^3
#
#
#
# Elastic Constant Matrix: (Units=GPa)
#
#
# Indices 1 2 3 4 5 6 
#
# 1 151.9711 58.9276 42.1959 0.0000 -13.4996 0.0000
# 2 58.9276 99.9639 39.0904 0.0000 -5.8480 0.0000
# 3 42.1959 39.0904 141.0807 0.0000 0.1292 0.0000
# 4 0.0000 0.0000 0.0000 41.7489 0.0000 -15.2530
# 5 -13.4996 -5.8480 0.1292 0.0000 29.8742 0.0000
# 6 0.0000 0.0000 0.0000 -15.2530 0.0000 47.2918
#
#
#
# Elastic Compliance Matrix: (Units=1/GPa)
#
#
# Indices 1 2 3 4 5 6 
#
# 1 0.009039 -0.004579 -0.001438 0.000000 0.003194 0.000000
# 2 -0.004579 0.013687 -0.002423 0.000000 0.000621 0.000000
# 3 -0.001438 -0.002423 0.008191 0.000000 -0.001159 0.000000
# 4 0.000000 0.000000 0.000000 0.027152 0.000000 0.008757
# 5 0.003194 0.000621 -0.001159 0.000000 0.035044 0.000000
# 6 0.000000 0.000000 0.000000 0.008757 0.000000 0.023970
#
#
# Mechanical properties :
#
#
# Convention : Reuss Voigt Hill
#
# Bulk Modulus (GPa) = 71.24469 74.82707 73.03588
# Shear Modulus (GPa) = 36.06445 40.63644 38.35044
#
# Velocity S-wave (km/s) = 3.91832 4.15928 4.04059
# Velocity P-wave (km/s) = 7.12748 7.41088 7.27056
#
# Compressibility (1/GPa) = 0.01403613
#
# Stress axis : x y z
#
# Youngs Moduli (GPa) = 110.63552 73.06243 122.09115
#
# Poissons Ratio (x) = 0.33457 0.17551
# Poissons Ratio (y) = 0.50662 0.29587
# Poissons Ratio (z) = 0.15904 0.17705
#
# Static dielectric constant tensor:
#      x y z
#    x 4.698170 0.000000 2.424650 
#    y 0.000000 2.097080 0.000000 
#    z 2.424650 0.000000 4.168510 
# 
# From -- ./inp_files/30233.got.cif
#   From: 2010.05.17/outbox.cif.g08.bks.cpg/sg15_16_cif.got.tgz:30233.got - 2010.06.03 18:47:42.
