data_PCOD9306023
_publ_section_title
;
Structure prediction by ZEFSAII (Michael W. Deem and Ramdas Pophale) SiO2 
 PCOD9306023
Probable space group: C 2/C
;
_chemical_formula_sum "Si O2"
_cell_formula_units_Z 40
_cell_length_a 8.340674
_cell_length_b 19.220963
_cell_length_c 15.045486
_cell_angle_alpha 90.000000
_cell_angle_beta 52.658431
_cell_angle_gamma 90.000000
_cell_volume 1917.644077
_symmetry_space_group_name_H-M "C 2/C"
_symmetry_group_IT_number 15
_symmetry_cell_setting 'monoclinic'
loop_
_space_group_symop_operation_xyz
x,y,z
-x,y,1/2-z
-x,-y,-z
x,-y,1/2+z
1/2+x,1/2+y,z
1/2-x,1/2+y,1/2-z
1/2-x,1/2-y,-z
1/2+x,1/2-y,1/2+z
loop_
_atom_site_type_symbol
_atom_site_label
_atom_site_fract_x
_atom_site_fract_y
_atom_site_fract_z
Si Si1 0.216091 0.068938 0.151711
Si Si2 0.999665 0.823532 0.424312
Si Si3 0.747053 0.569768 0.752218
Si Si4 0.543088 0.167587 0.130770
Si Si5 0.803719 0.593133 0.923329
O O1 0.400240 0.113668 0.127786
O O2 0.000000 0.101533 0.250000
O O3 0.221035 0.994059 0.196454
O O4 0.237402 0.062655 0.038877
O O5 0.779154 0.844278 0.532166
O O6 0.002157 0.744662 0.391536
O O7 0.070175 0.874546 0.321489
O O8 0.167049 0.840517 0.443486
O O9 0.768651 0.544345 0.848404
O O10 0.957573 0.607307 0.657048
O O11 0.500000 0.164297 0.250000
#
# Coordination Sequence:
#
# PCOD9306023 Si02
#       5
#     8   8   8   8   8
#     4  12  26  40  66 102 137 183 225 286 336 402
#     4   9  22  47  69  96 137 183 223 281 345 408
#     4   9  22  43  68  99 133 179 226 277 339 408
#     4  11  25  42  68 102 140 176 230 286 339 401
#     4   9  21  45  67  98 130 180 230 271 339 403
#
# _framework density 20.858929
#
# number of rings (size 3 to 8) (size 9 to 14) (size 15 to 20)
#    1.200    0.800    0.000    1.800    2.800   10.400 
#    0.000    0.000    0.000    0.000    0.000    0.000 
#    0.000    0.000    0.000    0.000    0.000    0.000 
#
# Total GULP energy -111619.374832 kJ/mol
# GULP energy per Si atom -5580.968742 kJ/mol
# Density = 2.081145 g / cm^3
# Si number density = 20.858929 Si / 1000 Ang^3
#
#
#
# Elastic Constant Matrix: (Units=GPa)
#
#
# Indices 1 2 3 4 5 6 
#
# 1 107.8505 51.5008 78.7944 0.0000 -11.5397 0.0000
# 2 51.5008 83.7747 49.1516 0.0000 -18.9732 0.0000
# 3 78.7944 49.1516 170.1692 0.0000 -9.7838 0.0000
# 4 0.0000 0.0000 0.0000 23.7017 0.0000 4.1098
# 5 -11.5397 -18.9732 -9.7838 0.0000 33.8711 0.0000
# 6 0.0000 0.0000 0.0000 4.1098 0.0000 13.9850
#
#
#
# Elastic Compliance Matrix: (Units=1/GPa)
#
#
# Indices 1 2 3 4 5 6 
#
# 1 0.016810 -0.006899 -0.005780 0.000000 0.000193 0.000000
# 2 -0.006899 0.019026 -0.001854 0.000000 0.007771 0.000000
# 3 -0.005780 -0.001854 0.009066 0.000000 -0.000389 0.000000
# 4 0.000000 0.000000 0.000000 0.044456 0.000000 -0.013065
# 5 0.000193 0.007771 -0.000389 0.000000 0.033830 0.000000
# 6 0.000000 0.000000 0.000000 -0.013065 0.000000 0.075345
#
#
# Mechanical properties :
#
#
# Convention : Reuss Voigt Hill
#
# Bulk Modulus (GPa) = 63.14824 80.07645 71.61234
# Shear Modulus (GPa) = 21.47051 26.46806 23.96929
#
# Velocity S-wave (km/s) = 3.21178 3.56604 3.39354
# Velocity P-wave (km/s) = 6.64031 7.44502 7.05415
#
# Compressibility (1/GPa) = 0.01583576
#
# Stress axis : x y z
#
# Youngs Moduli (GPa) = 59.48899 52.55972 110.30374
#
# Poissons Ratio (x) = 0.36262 0.63752
# Poissons Ratio (y) = 0.41043 0.20451
# Poissons Ratio (z) = 0.34383 0.09745
#
# Static dielectric constant tensor:
#      x y z
#    x 1.799920 0.000000 0.000810 
#    y 0.000000 1.723100 0.000000 
#    z 0.000810 0.000000 1.740390 
# 
# From -- ./inp_files/135760.got.cif
#   From: 2010.05.17/outbox.cif.g08.bks.cpg/sg15_68_cif.got.tgz:135760.got - 2010.06.03 18:47:42.
