data_PCOD9306892
_publ_section_title
;
Structure prediction by ZEFSAII (Michael W. Deem and Ramdas Pophale) SiO2 
 PCOD9306892
Probable space group: C 2/C
;
_chemical_formula_sum "Si O2"
_cell_formula_units_Z 36
_cell_length_a 15.139435
_cell_length_b 5.123993
_cell_length_c 18.878889
_cell_angle_alpha 90.000000
_cell_angle_beta 115.353017
_cell_angle_gamma 90.000000
_cell_volume 1323.465207
_symmetry_space_group_name_H-M "C 2/C"
_symmetry_group_IT_number 15
_symmetry_cell_setting 'monoclinic'
loop_
_space_group_symop_operation_xyz
x,y,z
-x,y,1/2-z
-x,-y,-z
x,-y,1/2+z
1/2+x,1/2+y,z
1/2-x,1/2+y,1/2-z
1/2-x,1/2-y,-z
1/2+x,1/2-y,1/2+z
loop_
_atom_site_type_symbol
_atom_site_label
_atom_site_fract_x
_atom_site_fract_y
_atom_site_fract_z
Si Si1 0.863583 0.280617 0.594535
Si Si2 0.700518 0.251566 0.198549
Si Si3 0.475916 0.601771 0.372414
Si Si4 0.000000 0.533946 0.750000
Si Si5 0.154941 0.400167 0.058545
O O1 0.749808 0.272348 0.573169
O O2 0.885056 0.461056 0.533377
O O3 0.914004 0.008106 0.588300
O O4 0.916821 0.368770 0.683594
O O5 0.924486 0.243359 0.421777
O O6 0.961992 0.281244 0.299452
O O7 0.700252 0.137236 0.118919
O O8 0.411474 0.342853 0.334441
O O9 0.240734 0.511453 0.259179
#
# Coordination Sequence:
#
# PCOD9306892 Si02
#       5
#     8   8   8   4   8
#     4  11  29  52  80 125 171 225 285 354 430 513
#     4  12  28  49  86 124 165 220 280 346 427 503
#     4  12  28  47  85 121 168 225 286 352 429 514
#     4  12  30  50  80 124 166 218 286 350 424 522
#     4  11  28  53  82 122 173 225 283 356 430 511
#
# _framework density 27.201321
#
# number of rings (size 3 to 8) (size 9 to 14) (size 15 to 20)
#    0.000    0.444    2.222    2.667   12.444    5.333 
#    0.000    4.444    0.000    1.333    0.000    0.000 
#    0.000    0.000    0.000    0.000    0.000    0.000 
#
# Total GULP energy -100913.774332 kJ/mol
# GULP energy per Si atom -5606.320796 kJ/mol
# Density = 2.713941 g / cm^3
# Si number density = 27.201321 Si / 1000 Ang^3
#
#
#
# Elastic Constant Matrix: (Units=GPa)
#
#
# Indices 1 2 3 4 5 6 
#
# 1 165.2920 32.2799 35.9682 0.0000 -20.3798 0.0000
# 2 32.2799 140.0901 32.0820 -0.0001 -13.3033 -0.0002
# 3 35.9682 32.0820 141.5117 0.0000 -21.0788 0.0000
# 4 0.0000 -0.0001 0.0000 13.9153 0.0000 -20.2617
# 5 -20.3798 -13.3033 -21.0788 0.0000 46.8736 0.0000
# 6 0.0000 -0.0002 0.0000 -20.2617 0.0000 21.5834
#
#
#
# Elastic Compliance Matrix: (Units=1/GPa)
#
#
# Indices 1 2 3 4 5 6 
#
# 1 0.006777 -0.001095 -0.001159 0.000000 0.002114 0.000000
# 2 -0.001095 0.007802 -0.001320 0.000000 0.001144 0.000000
# 3 -0.001159 -0.001320 0.008070 0.000000 0.002750 0.000000
# 4 0.000000 0.000000 0.000000 -0.195859 0.000000 -0.183865
# 5 0.002114 0.001144 0.002750 0.000000 0.023815 0.000000
# 6 0.000000 0.000000 0.000000 -0.183865 0.000000 -0.126274
#
#
# Mechanical properties :
#
#
# Convention : Reuss Voigt Hill
#
# Bulk Modulus (GPa) = 64.51702 71.95043 68.23373
# Shear Modulus (GPa) = -18.98582 39.57871 10.29645
#
# Velocity S-wave (km/s) = -2.64479 3.81862 1.94769
# Velocity P-wave (km/s) = 3.80044 6.77872 5.49519
#
# Compressibility (1/GPa) = 0.01549979
#
# Stress axis : x y z
#
# Youngs Moduli (GPa) = 147.56399 128.17930 123.91407
#
# Poissons Ratio (x) = 0.14039 0.14364
# Poissons Ratio (y) = 0.16162 0.16355
# Poissons Ratio (z) = 0.17106 0.16918
#
# Static dielectric constant tensor:
#      x y z
#    x 2.162200 0.000000 0.022140 
#    y 0.000000 2.153820 0.000000 
#    z 0.022140 0.000000 2.122340 
# 
# From -- ./inp_files/175818.got.cif
#   From: 2010.05.17/outbox.cif.g08.bks.cpg/sg15_88_cif.got.tgz:175818.got - 2010.06.03 18:47:42.
