data_PCOD9306955
_publ_section_title
;
Structure prediction by ZEFSAII (Michael W. Deem and Ramdas Pophale) SiO2 
 PCOD9306955
Probable space group: C 2/C
;
_chemical_formula_sum "Si O2"
_cell_formula_units_Z 36
_cell_length_a 18.669107
_cell_length_b 9.228667
_cell_length_c 10.999114
_cell_angle_alpha 90.000000
_cell_angle_beta 81.465597
_cell_angle_gamma 90.000000
_cell_volume 1874.064046
_symmetry_space_group_name_H-M "C 2/C"
_symmetry_group_IT_number 15
_symmetry_cell_setting 'monoclinic'
loop_
_space_group_symop_operation_xyz
x,y,z
-x,y,1/2-z
-x,-y,-z
x,-y,1/2+z
1/2+x,1/2+y,z
1/2-x,1/2+y,1/2-z
1/2-x,1/2-y,-z
1/2+x,1/2-y,1/2+z
loop_
_atom_site_type_symbol
_atom_site_label
_atom_site_fract_x
_atom_site_fract_y
_atom_site_fract_z
Si Si1 0.165763 0.721322 0.037494
Si Si2 0.421887 0.060041 0.982151
Si Si3 0.565914 0.427111 0.910301
Si Si4 0.500000 0.808339 0.250000
Si Si5 0.419728 0.725463 0.706675
O O1 0.139104 0.720580 0.183043
O O2 0.250000 0.750000 0.000000
O O3 0.137002 0.567291 0.992796
O O4 0.123384 0.854861 0.985230
O O5 0.411227 0.189721 0.081217
O O6 0.437449 0.105611 0.838268
O O7 0.500000 0.000000 0.000000
O O8 0.535896 0.295033 0.839766
O O9 0.592392 0.555916 0.817199
O O10 0.500000 0.500000 0.000000
O O11 0.500000 0.744406 0.750000
#
# Coordination Sequence:
#
# PCOD9306955 Si02
#       5
#     8   8   8   4   8
#     4  12  28  45  64 100 144 172 218 288 345 388
#     4  12  22  39  70 100 128 177 226 274 325 401
#     4  12  21  42  71 100 128 182 225 277 325 402
#     4  12  20  36  74 104 126 166 246 274 318 394
#     4  12  22  41  71  99 129 175 232 272 326 405
#
# _framework density 19.209588
#
# number of rings (size 3 to 8) (size 9 to 14) (size 15 to 20)
#    0.000    0.000   10.000    1.333    0.000    1.778 
#    0.000    1.111    0.000    0.000    0.000    0.000 
#    0.000    0.000    0.000    0.000    0.000    0.000 
#
# Total GULP energy -100538.866622 kJ/mol
# GULP energy per Si atom -5585.492590 kJ/mol
# Density = 1.916587 g / cm^3
# Si number density = 19.209588 Si / 1000 Ang^3
#
#
#
# Elastic Constant Matrix: (Units=GPa)
#
#
# Indices 1 2 3 4 5 6 
#
# 1 115.9449 53.9847 47.7882 0.0000 -17.3434 0.0000
# 2 53.9847 114.8241 33.5089 0.0000 -6.0198 0.0000
# 3 47.7882 33.5089 104.1028 0.0000 -9.1396 0.0000
# 4 0.0000 0.0000 0.0000 52.9182 0.0000 7.0502
# 5 -17.3434 -6.0198 -9.1396 0.0000 21.9345 0.0000
# 6 0.0000 0.0000 0.0000 7.0502 0.0000 29.2083
#
#
#
# Elastic Compliance Matrix: (Units=1/GPa)
#
#
# Indices 1 2 3 4 5 6 
#
# 1 0.013730 -0.004863 -0.004050 0.000000 0.007834 0.000000
# 2 -0.004863 0.011376 -0.001550 0.000000 -0.001369 0.000000
# 3 -0.004050 -0.001550 0.012087 0.000000 0.001409 0.000000
# 4 0.000000 0.000000 0.000000 0.019525 0.000000 -0.004713
# 5 0.007834 -0.001369 0.001409 0.000000 0.051996 0.000000
# 6 0.000000 0.000000 0.000000 -0.004713 0.000000 0.035374
#
#
# Mechanical properties :
#
#
# Convention : Reuss Voigt Hill
#
# Bulk Modulus (GPa) = 61.46618 67.27060 64.36839
# Shear Modulus (GPa) = 29.33665 34.11820 31.72743
#
# Velocity S-wave (km/s) = 3.91216 4.21896 4.06845
# Velocity P-wave (km/s) = 7.24388 7.66995 7.45996
#
# Compressibility (1/GPa) = 0.01626911
#
# Stress axis : x y z
#
# Youngs Moduli (GPa) = 72.83419 87.90761 82.73078
#
# Poissons Ratio (x) = 0.42746 0.33503
# Poissons Ratio (y) = 0.35416 0.12820
# Poissons Ratio (z) = 0.29496 0.13622
#
# Static dielectric constant tensor:
#      x y z
#    x 1.622400 0.000000 0.094630 
#    y 0.000000 1.667670 0.000000 
#    z 0.094630 0.000000 1.888790 
# 
# From -- ./inp_files/102418.got.cif
#   From: 2010.05.17/outbox.cif.g08.bks.cpg/sg15_52_cif.got.tgz:102418.got - 2010.06.03 18:47:42.
