data_PCOD9306498
_publ_section_title
;
Structure prediction by ZEFSAII (Michael W. Deem and Ramdas Pophale) SiO2 
 PCOD9306498
Probable space group: C 2/C
;
_chemical_formula_sum "Si O2"
_cell_formula_units_Z 40
_cell_length_a 8.070498
_cell_length_b 25.457633
_cell_length_c 6.724920
_cell_angle_alpha 90.000000
_cell_angle_beta 95.818391
_cell_angle_gamma 90.000000
_cell_volume 1374.555580
_symmetry_space_group_name_H-M "C 2/C"
_symmetry_group_IT_number 15
_symmetry_cell_setting 'monoclinic'
loop_
_space_group_symop_operation_xyz
x,y,z
-x,y,1/2-z
-x,-y,-z
x,-y,1/2+z
1/2+x,1/2+y,z
1/2-x,1/2+y,1/2-z
1/2-x,1/2-y,-z
1/2+x,1/2-y,1/2+z
loop_
_atom_site_type_symbol
_atom_site_label
_atom_site_fract_x
_atom_site_fract_y
_atom_site_fract_z
Si Si1 0.832096 0.133316 0.185461
Si Si2 0.071710 0.230211 0.567313
Si Si3 0.701455 0.184676 0.572332
Si Si4 0.193764 0.077814 0.805625
Si Si5 0.306743 0.036962 0.241726
O O1 0.741723 0.166740 0.349067
O O2 0.714320 0.085017 0.102473
O O3 0.000000 0.100201 0.250000
O O4 0.920318 0.174305 0.047300
O O5 0.250000 0.250000 0.500000
O O6 0.136758 0.217081 0.814807
O O7 0.959804 0.279258 0.461879
O O8 0.701901 0.132166 0.705287
O O9 0.000000 0.091070 0.750000
O O10 0.219245 0.019073 0.728579
O O11 0.244608 0.065743 0.038402
O O12 0.500000 0.024380 0.250000
#
# Coordination Sequence:
#
# PCOD9306498 Si02
#       5
#     8   8   8   8   8
#     4  11  26  49  81 121 165 222 271 335 421 493
#     4  12  26  50  81 117 168 221 281 339 407 498
#     4  11  28  50  81 122 170 215 285 340 410 495
#     4  11  25  49  83 119 164 219 268 337 419 504
#     4  11  26  50  85 125 166 205 275 352 416 489
#
# _framework density 29.100311999999999
#
# number of rings (size 3 to 8) (size 9 to 14) (size 15 to 20)
#    0.000    0.800    2.000    3.000    5.600    5.600 
#    0.000    1.000    0.000    0.000    0.000    0.000 
#    0.000    0.000    0.000    0.000    0.000    0.000 
#
# Total GULP energy -111578.756173 kJ/mol
# GULP energy per Si atom -5578.937809 kJ/mol
# Density = 2.903408 g / cm^3
# Si number density = 29.100312 Si / 1000 Ang^3
#
#
#
# Elastic Constant Matrix: (Units=GPa)
#
#
# Indices 1 2 3 4 5 6 
#
# 1 162.7974 83.8106 26.8756 0.0000 42.3775 0.0000
# 2 83.8106 269.9727 64.7204 0.0000 6.4721 0.0000
# 3 26.8756 64.7204 131.4706 0.0000 -0.4141 0.0000
# 4 0.0000 0.0000 0.0000 73.7841 0.0000 7.8356
# 5 42.3775 6.4721 -0.4141 0.0000 34.0023 0.0000
# 6 0.0000 0.0000 0.0000 7.8356 0.0000 32.9952
#
#
#
# Elastic Compliance Matrix: (Units=1/GPa)
#
#
# Indices 1 2 3 4 5 6 
#
# 1 0.011375 -0.002990 -0.000896 0.000000 -0.013618 0.000000
# 2 -0.002990 0.005009 -0.001846 0.000000 0.002750 0.000000
# 3 -0.000896 -0.001846 0.008703 0.000000 0.001574 0.000000
# 4 0.000000 0.000000 0.000000 0.013904 0.000000 -0.003302
# 5 -0.013618 0.002750 0.001574 0.000000 0.045878 0.000000
# 6 0.000000 0.000000 0.000000 -0.003302 0.000000 0.031092
#
#
# Mechanical properties :
#
#
# Convention : Reuss Voigt Hill
#
# Bulk Modulus (GPa) = 73.40727 101.67267 87.53997
# Shear Modulus (GPa) = 37.88879 54.07858 45.98368
#
# Velocity S-wave (km/s) = 3.61225 4.31554 3.97946
# Velocity P-wave (km/s) = 6.53285 7.73604 7.15976
#
# Compressibility (1/GPa) = 0.01362263
#
# Stress axis : x y z
#
# Youngs Moduli (GPa) = 87.91392 199.64745 114.90098
#
# Poissons Ratio (x) = 0.59692 0.10299
# Poissons Ratio (y) = 0.26285 0.21209
# Poissons Ratio (z) = 0.07880 0.36853
#
# Static dielectric constant tensor:
#      x y z
#    x 2.369030 0.000000 -0.169880 
#    y 0.000000 2.552040 0.000000 
#    z -0.169880 0.000000 2.667770 
# 
# From -- ./inp_files/23726.got.cif
#   From: 2010.05.17/outbox.cif.g08.bks.cpg/sg15_12_cif.got.tgz:23726.got - 2010.06.03 18:47:42.
