data_PCOD9306891
_publ_section_title
;
Structure prediction by ZEFSAII (Michael W. Deem and Ramdas Pophale) SiO2 
 PCOD9306891
Probable space group: C 2/C
;
_chemical_formula_sum "Si O2"
_cell_formula_units_Z 36
_cell_length_a 11.208836
_cell_length_b 12.204950
_cell_length_c 21.613371
_cell_angle_alpha 90.000000
_cell_angle_beta 151.666040
_cell_angle_gamma 90.000000
_cell_volume 1403.317398
_symmetry_space_group_name_H-M "C 2/C"
_symmetry_group_IT_number 15
_symmetry_cell_setting 'monoclinic'
loop_
_space_group_symop_operation_xyz
x,y,z
-x,y,1/2-z
-x,-y,-z
x,-y,1/2+z
1/2+x,1/2+y,z
1/2-x,1/2+y,1/2-z
1/2-x,1/2-y,-z
1/2+x,1/2-y,1/2+z
loop_
_atom_site_type_symbol
_atom_site_label
_atom_site_fract_x
_atom_site_fract_y
_atom_site_fract_z
Si Si1 0.868560 0.549549 0.877965
Si Si2 0.651624 0.682941 0.257044
Si Si3 0.050461 0.149026 0.975889
Si Si4 0.842858 0.911180 0.513296
Si Si5 0.000000 0.240869 0.750000
O O1 0.707961 0.445494 0.786424
O O2 0.704401 0.656126 0.816342
O O3 0.000000 0.500000 0.000000
O O4 0.066425 0.576967 0.914911
O O5 0.500000 0.711540 0.250000
O O6 0.484700 0.678858 0.119617
O O7 0.903829 0.754577 0.373696
O O8 0.329038 0.184239 0.126567
O O9 0.888243 0.123190 0.963448
O O10 0.060606 0.037550 0.941782
#
# Coordination Sequence:
#
# PCOD9306891 Si02
#       5
#     8   8   8   8   4
#     4  12  23  48  74 115 157 202 264 319 379 468
#     4  12  25  48  78 113 155 208 258 321 387 466
#     4  11  29  52  77 120 157 207 262 323 405 462
#     4  11  28  53  77 114 163 205 263 327 387 476
#     4  12  24  48  78 114 160 202 262 324 388 474
#
# _framework density 25.653497999999999
#
# number of rings (size 3 to 8) (size 9 to 14) (size 15 to 20)
#    0.000    0.444    5.556    0.000    3.111    9.778 
#    4.000    0.000    0.000    0.000    0.000    0.000 
#    0.000    0.000    0.000    0.000    0.000    0.000 
#
# Total GULP energy -100886.927184 kJ/mol
# GULP energy per Si atom -5604.829288 kJ/mol
# Density = 2.559511 g / cm^3
# Si number density = 25.653498 Si / 1000 Ang^3
#
#
#
# Elastic Constant Matrix: (Units=GPa)
#
#
# Indices 1 2 3 4 5 6 
#
# 1 144.3296 34.6839 41.1123 0.0004 25.5155 0.0001
# 2 34.6839 151.4867 67.0350 -0.0004 -13.7263 0.0004
# 3 41.1123 67.0350 132.2034 -0.0027 -1.4547 0.0020
# 4 0.0004 -0.0004 -0.0027 53.9927 0.0011 13.7121
# 5 25.5155 -13.7263 -1.4547 0.0011 25.3182 0.0003
# 6 0.0001 0.0004 0.0020 13.7121 0.0003 -9.3605
#
#
#
# Elastic Compliance Matrix: (Units=1/GPa)
#
#
# Indices 1 2 3 4 5 6 
#
# 1 0.010180 -0.002495 -0.002029 0.000000 -0.011729 -0.000001
# 2 -0.002495 0.009635 -0.004027 0.000000 0.007507 0.000000
# 3 -0.002029 -0.004027 0.010242 0.000000 0.000451 0.000002
# 4 0.000000 0.000000 0.000000 0.013499 -0.000001 0.019775
# 5 -0.011729 0.007507 0.000451 -0.000001 0.055413 0.000000
# 6 -0.000001 0.000000 0.000002 0.019775 0.000000 -0.077864
#
#
# Mechanical properties :
#
#
# Convention : Reuss Voigt Hill
#
# Bulk Modulus (GPa) = 77.20047 79.29800 78.24924
# Shear Modulus (GPa) = 117.57667 33.00264 75.28965
#
# Velocity S-wave (km/s) = 6.77732 3.59064 5.42332
# Velocity P-wave (km/s) = 9.56042 6.94036 8.35375
#
# Compressibility (1/GPa) = 0.01295329
#
# Stress axis : x y z
#
# Youngs Moduli (GPa) = 98.23382 103.79175 97.63756
#
# Poissons Ratio (x) = 0.25900 0.19815
# Poissons Ratio (y) = 0.24513 0.39316
# Poissons Ratio (z) = 0.19936 0.41794
#
# Static dielectric constant tensor:
#      x y z
#    x 1.650630 -0.000010 -0.223550 
#    y -0.000010 2.191350 -0.000010 
#    z -0.223550 -0.000010 2.115730 
# 
# From -- ./inp_files/231668.got.cif
#   From: 2010.05.17/outbox.cif.g08.bks.cpg/sg15_116_cif.got.tgz:231668.got - 2010.06.03 18:47:42.
