data_PCOD9306983
_publ_section_title
;
Structure prediction by ZEFSAII (Michael W. Deem and Ramdas Pophale) SiO2 
 PCOD9306983
Probable space group: C 2/C
;
_chemical_formula_sum "Si O2"
_cell_formula_units_Z 28
_cell_length_a 8.197429
_cell_length_b 21.239012
_cell_length_c 11.407713
_cell_angle_alpha 90.000000
_cell_angle_beta 43.002442
_cell_angle_gamma 90.000000
_cell_volume 1354.608323
_symmetry_space_group_name_H-M "C 2/C"
_symmetry_group_IT_number 15
_symmetry_cell_setting 'monoclinic'
loop_
_space_group_symop_operation_xyz
x,y,z
-x,y,1/2-z
-x,-y,-z
x,-y,1/2+z
1/2+x,1/2+y,z
1/2-x,1/2+y,1/2-z
1/2-x,1/2-y,-z
1/2+x,1/2-y,1/2+z
loop_
_atom_site_type_symbol
_atom_site_label
_atom_site_fract_x
_atom_site_fract_y
_atom_site_fract_z
Si Si1 0.342461 0.837594 0.222073
Si Si2 0.780264 0.453686 0.081649
Si Si3 0.500000 0.115383 0.250000
Si Si4 0.857095 0.218235 0.062877
O O1 0.500000 0.855352 0.250000
O O2 0.315986 0.893239 0.144750
O O3 0.426956 0.774061 0.113132
O O4 0.082389 0.820470 0.404137
O O5 0.500000 0.474981 0.250000
O O6 0.000000 0.500000 0.000000
O O7 0.843566 0.427908 0.918381
O O8 0.679959 0.166625 0.213605
O O9 0.750000 0.250000 0.000000
#
# Coordination Sequence:
#
# PCOD9306983 Si02
#       4
#     8   8   4   8
#     4  12  24  41  69 111 146 177 233 301 360 425
#     4  12  28  49  73 102 141 198 246 291 352 428
#     4  12  24  44  80 100 136 186 240 284 358 428
#     4  12  20  41  73 104 140 182 229 287 362 430
#
# _framework density 20.670182
#
# number of rings (size 3 to 8) (size 9 to 14) (size 15 to 20)
#    0.000    0.000    8.571    0.857    2.000    3.429 
#    0.000    1.429    0.000    0.000    0.000    0.000 
#    0.000    0.000    0.000    0.000    0.000    0.000 
#
# Total GULP energy -78147.239102 kJ/mol
# GULP energy per Si atom -5581.945650 kJ/mol
# Density = 2.062314 g / cm^3
# Si number density = 20.670182 Si / 1000 Ang^3
#
#
#
# Elastic Constant Matrix: (Units=GPa)
#
#
# Indices 1 2 3 4 5 6 
#
# 1 67.1288 0.9733 28.9661 0.0000 -15.0553 0.0000
# 2 0.9733 75.0438 41.2821 0.0000 -30.4609 0.0000
# 3 28.9661 41.2821 141.7244 0.0000 -26.8271 0.0000
# 4 0.0000 0.0000 0.0000 11.1217 0.0000 -10.5066
# 5 -15.0553 -30.4609 -26.8271 0.0000 28.0671 0.0000
# 6 0.0000 0.0000 0.0000 -10.5066 0.0000 26.0860
#
#
#
# Elastic Compliance Matrix: (Units=1/GPa)
#
#
# Indices 1 2 3 4 5 6 
#
# 1 0.019915 0.008265 -0.003367 0.000000 0.016434 0.000000
# 2 0.008265 0.027994 -0.003972 0.000000 0.031018 0.000000
# 3 -0.003367 -0.003972 0.009454 0.000000 0.002919 0.000000
# 4 0.000000 0.000000 0.000000 0.145139 0.000000 0.058457
# 5 0.016434 0.031018 0.002919 0.000000 0.080898 0.000000
# 6 0.000000 0.000000 0.000000 0.058457 0.000000 0.061879
#
#
# Mechanical properties :
#
#
# Convention : Reuss Voigt Hill
#
# Bulk Modulus (GPa) = 16.88781 47.37112 32.12947
# Shear Modulus (GPa) = 13.76784 27.23333 20.50058
#
# Velocity S-wave (km/s) = 2.58364 3.63370 3.15269
# Velocity P-wave (km/s) = 4.13378 6.36965 5.36938
#
# Compressibility (1/GPa) = 0.05921432
#
# Stress axis : x y z
#
# Youngs Moduli (GPa) = 50.21225 35.72223 105.77940
#
# Poissons Ratio (x) = -0.29523 0.35615
# Poissons Ratio (y) = -0.41498 0.42014
# Poissons Ratio (z) = 0.16906 0.14188
#
# Static dielectric constant tensor:
#      x y z
#    x 1.714000 0.000000 -0.032060 
#    y 0.000000 1.753700 0.000000 
#    z -0.032060 0.000000 1.783370 
# 
# From -- ./inp_files/21625.got.cif
#   From: 2010.05.17/outbox.cif.g08.bks.cpg/sg15_11_cif.got.tgz:21625.got - 2010.06.03 18:47:42.
