data_PCOD9306806
_publ_section_title
;
Structure prediction by ZEFSAII (Michael W. Deem and Ramdas Pophale) SiO2 
 PCOD9306806
Probable space group: C 2/C
;
_chemical_formula_sum "Si O2"
_cell_formula_units_Z 44
_cell_length_a 6.776759
_cell_length_b 31.390923
_cell_length_c 10.032896
_cell_angle_alpha 90.000000
_cell_angle_beta 94.074964
_cell_angle_gamma 90.000000
_cell_volume 2128.889500
_symmetry_space_group_name_H-M "C 2/C"
_symmetry_group_IT_number 15
_symmetry_cell_setting 'monoclinic'
loop_
_space_group_symop_operation_xyz
x,y,z
-x,y,1/2-z
-x,-y,-z
x,-y,1/2+z
1/2+x,1/2+y,z
1/2-x,1/2+y,1/2-z
1/2-x,1/2-y,-z
1/2+x,1/2-y,1/2+z
loop_
_atom_site_type_symbol
_atom_site_label
_atom_site_fract_x
_atom_site_fract_y
_atom_site_fract_z
Si Si1 0.263608 0.820723 0.514285
Si Si2 0.081786 0.907566 0.401419
Si Si3 0.635429 0.013838 0.629098
Si Si4 0.676133 0.576429 0.358037
Si Si5 0.000000 0.364767 0.750000
Si Si6 0.037557 0.749328 0.912256
O O1 0.187165 0.863506 0.442550
O O2 0.355451 0.835355 0.658455
O O3 0.432323 0.795275 0.443510
O O4 0.085920 0.787828 0.527959
O O5 0.000000 0.905037 0.250000
O O6 0.908198 0.917102 0.498605
O O7 0.234599 0.946535 0.410977
O O8 0.500000 0.024211 0.750000
O O9 0.769381 0.972615 0.667400
O O10 0.500000 0.000000 0.500000
O O11 0.500000 0.589649 0.250000
O O12 0.867687 0.604947 0.337405
O O13 0.000000 0.754410 0.750000
O O14 0.250000 0.750000 0.000000
#
# Coordination Sequence:
#
# PCOD9306806 Si02
#       6
#     8   8   8   8   4   8
#     4  11  27  45  72 111 140 184 246 298 370 446
#     4  12  27  44  69 107 152 190 241 307 371 435
#     4  12  24  45  69 103 145 194 249 299 364 428
#     4  12  24  45  72 103 142 195 248 300 357 431
#     4  12  24  46  76 110 140 190 256 304 354 444
#     4  11  27  48  77 104 146 190 235 307 377 451
#
# _framework density 20.668053
#
# number of rings (size 3 to 8) (size 9 to 14) (size 15 to 20)
#    0.000    0.364    2.727    5.455    7.636    2.182 
#    0.000    0.000    0.000    0.000    0.000    0.000 
#    0.000    0.000    0.000    0.000    0.000    0.000 
#
# Total GULP energy -123102.455263 kJ/mol
# GULP energy per Si atom -5595.566148 kJ/mol
# Density = 2.062101 g / cm^3
# Si number density = 20.668053 Si / 1000 Ang^3
#
#
#
# Elastic Constant Matrix: (Units=GPa)
#
#
# Indices 1 2 3 4 5 6 
#
# 1 138.9960 46.3301 50.3232 0.0000 -4.5023 0.0000
# 2 46.3301 93.9132 -4.1207 0.0000 4.9693 0.0000
# 3 50.3232 -4.1207 111.0292 0.0000 -1.1960 0.0000
# 4 0.0000 0.0000 0.0000 27.8788 0.0000 -4.6787
# 5 -4.5023 4.9693 -1.1960 0.0000 45.1798 0.0000
# 6 0.0000 0.0000 0.0000 -4.6787 0.0000 3.4741
#
#
#
# Elastic Compliance Matrix: (Units=1/GPa)
#
#
# Indices 1 2 3 4 5 6 
#
# 1 0.011053 -0.005766 -0.005207 0.000000 0.001598 0.000000
# 2 -0.005766 0.013735 0.003101 0.000000 -0.002003 0.000000
# 3 -0.005207 0.003101 0.011476 0.000000 -0.000556 0.000000
# 4 0.000000 0.000000 0.000000 0.046344 0.000000 0.062412
# 5 0.001598 -0.002003 -0.000556 0.000000 0.022499 0.000000
# 6 0.000000 0.000000 0.000000 0.062412 0.000000 0.371895
#
#
# Mechanical properties :
#
#
# Convention : Reuss Voigt Hill
#
# Bulk Modulus (GPa) = 48.72906 58.77816 53.75361
# Shear Modulus (GPa) = 10.00835 32.06694 21.03765
#
# Velocity S-wave (km/s) = 2.20294 3.94321 3.19389
# Velocity P-wave (km/s) = 5.48623 7.01661 6.29808
#
# Compressibility (1/GPa) = 0.02052163
#
# Stress axis : x y z
#
# Youngs Moduli (GPa) = 90.47262 72.80853 87.14169
#
# Poissons Ratio (x) = 0.41980 0.45370
# Poissons Ratio (y) = 0.52165 -0.27027
# Poissons Ratio (z) = 0.47105 -0.22581
#
# Static dielectric constant tensor:
#      x y z
#    x 1.772690 0.000000 -0.001750 
#    y 0.000000 1.709610 0.000000 
#    z -0.001750 0.000000 1.730470 
# 
# From -- ./inp_files/73967.got.cif
#   From: 2010.05.17/outbox.cif.g08.bks.cpg/sg15_37_cif.got.tgz:73967.got - 2010.06.03 18:47:42.
