data_PCOD9306165
_publ_section_title
;
Structure prediction by ZEFSAII (Michael W. Deem and Ramdas Pophale) SiO2 
 PCOD9306165
Probable space group: C 2/C
;
_chemical_formula_sum "Si O2"
_cell_formula_units_Z 60
_cell_length_a 20.072929
_cell_length_b 6.509701
_cell_length_c 25.319044
_cell_angle_alpha 90.000000
_cell_angle_beta 56.472190
_cell_angle_gamma 90.000000
_cell_volume 2757.948084
_symmetry_space_group_name_H-M "C 2/C"
_symmetry_group_IT_number 15
_symmetry_cell_setting 'monoclinic'
loop_
_space_group_symop_operation_xyz
x,y,z
-x,y,1/2-z
-x,-y,-z
x,-y,1/2+z
1/2+x,1/2+y,z
1/2-x,1/2+y,1/2-z
1/2-x,1/2-y,-z
1/2+x,1/2-y,1/2+z
loop_
_atom_site_type_symbol
_atom_site_label
_atom_site_fract_x
_atom_site_fract_y
_atom_site_fract_z
Si Si1 0.500000 0.711750 0.250000
Si Si2 0.901158 0.102088 0.113366
Si Si3 0.783489 0.342288 0.931048
Si Si4 0.901490 0.103157 0.727314
Si Si5 0.191896 0.204827 0.922312
Si Si6 0.466584 0.942383 0.849161
Si Si7 0.764436 0.401132 0.151345
Si Si8 0.037035 0.381241 0.033509
O O1 0.568060 0.564167 0.243754
O O2 0.530646 0.857559 0.189387
O O3 0.846010 0.307201 0.138673
O O4 0.989640 0.168180 0.058766
O O5 0.903260 0.997246 0.169020
O O6 0.861474 0.952518 0.088261
O O7 0.751383 0.572085 0.932314
O O8 0.879239 0.340623 0.885062
O O9 0.749649 0.203900 0.898855
O O10 0.750000 0.250000 0.000000
O O11 0.810867 0.160967 0.780308
O O12 0.963126 0.291860 0.700538
O O13 0.231951 0.357412 0.862436
O O14 0.130282 0.339513 0.983608
O O15 0.478234 0.002037 0.905153
O O16 0.000000 0.500000 0.000000
#
# Coordination Sequence:
#
# PCOD9306165 Si02
#       8
#     4   8   8   8   8   8   8   8
#     4  12  24  48  68  98 136 180 234 282 344 420
#     4  11  26  44  69 106 136 186 234 285 355 422
#     4  11  26  44  69 102 138 180 234 284 355 418
#     4  12  27  44  73  99 140 184 235 289 350 420
#     4  11  25  45  72 100 144 182 229 297 348 426
#     4  12  27  46  71 104 140 185 232 295 350 420
#     4  11  25  46  67 102 137 183 233 289 349 415
#     4  12  24  46  75 104 145 184 236 291 360 424
#
# _framework density 21.755303999999999
#
# number of rings (size 3 to 8) (size 9 to 14) (size 15 to 20)
#    0.000    0.533    2.667    4.800    5.600    4.267 
#    0.000    0.000    0.000    0.000    0.000    0.000 
#    0.000    0.000    0.000    0.000    0.000    0.000 
#
# Total GULP energy -167975.409883 kJ/mol
# GULP energy per Si atom -5599.180329 kJ/mol
# Density = 2.170579 g / cm^3
# Si number density = 21.755304 Si / 1000 Ang^3
#
#
#
# Elastic Constant Matrix: (Units=GPa)
#
#
# Indices 1 2 3 4 5 6 
#
# 1 65.5739 14.0970 17.9783 0.0016 -8.1458 0.0064
# 2 14.0970 76.9066 19.1358 0.0530 -2.3424 -0.0118
# 3 17.9783 19.1358 90.8592 0.0061 -4.6885 -0.0060
# 4 0.0016 0.0530 0.0061 40.8267 -0.0022 2.5695
# 5 -8.1458 -2.3424 -4.6885 -0.0022 50.1431 0.0020
# 6 0.0064 -0.0118 -0.0060 2.5695 0.0020 38.2220
#
#
#
# Elastic Compliance Matrix: (Units=1/GPa)
#
#
# Indices 1 2 3 4 5 6 
#
# 1 0.016788 -0.002331 -0.002709 0.000003 0.002365 -0.000004
# 2 -0.002331 0.014053 -0.002496 -0.000018 0.000044 0.000006
# 3 -0.002709 -0.002496 0.012097 0.000001 0.000574 0.000001
# 4 0.000003 -0.000018 0.000001 0.024598 0.000001 -0.001654
# 5 0.002365 0.000044 0.000574 0.000001 0.020383 -0.000001
# 6 -0.000004 0.000006 0.000001 -0.001654 -0.000001 0.026274
#
#
# Mechanical properties :
#
#
# Convention : Reuss Voigt Hill
#
# Bulk Modulus (GPa) = 35.88660 37.30688 36.59674
# Shear Modulus (GPa) = 36.08735 37.98027 37.03381
#
# Velocity S-wave (km/s) = 4.07724 4.18280 4.13036
# Velocity P-wave (km/s) = 6.22065 6.36502 6.29325
#
# Compressibility (1/GPa) = 0.02786555
#
# Stress axis : x y z
#
# Youngs Moduli (GPa) = 59.56789 71.16168 82.66274
#
# Poissons Ratio (x) = 0.16589 0.22391
# Poissons Ratio (y) = 0.13886 0.20633
# Poissons Ratio (z) = 0.16136 0.17762
#
# Static dielectric constant tensor:
#      x y z
#    x 1.913140 -0.000940 -0.916340 
#    y -0.000940 1.815570 0.005740 
#    z -0.916340 0.005740 7.362600 
# 
# From -- ./inp_files/300114.got.cif
#   From: 2010.05.17/outbox.cif.g08.bks.cpg/sg15_151_cif.got.tgz:300114.got - 2010.06.03 18:47:42.
