data_PCOD9306353
_publ_section_title
;
Structure prediction by ZEFSAII (Michael W. Deem and Ramdas Pophale) SiO2 
 PCOD9306353
Probable space group: C 2/C
;
_chemical_formula_sum "Si O2"
_cell_formula_units_Z 40
_cell_length_a 12.517516
_cell_length_b 18.803216
_cell_length_c 14.188000
_cell_angle_alpha 90.000000
_cell_angle_beta 149.553709
_cell_angle_gamma 90.000000
_cell_volume 1692.187459
_symmetry_space_group_name_H-M "C 2/C"
_symmetry_group_IT_number 15
_symmetry_cell_setting 'monoclinic'
loop_
_space_group_symop_operation_xyz
x,y,z
-x,y,1/2-z
-x,-y,-z
x,-y,1/2+z
1/2+x,1/2+y,z
1/2-x,1/2+y,1/2-z
1/2-x,1/2-y,-z
1/2+x,1/2-y,1/2+z
loop_
_atom_site_type_symbol
_atom_site_label
_atom_site_fract_x
_atom_site_fract_y
_atom_site_fract_z
Si Si1 0.260708 0.669058 0.541115
Si Si2 0.183557 0.938991 0.575808
Si Si3 0.701201 0.756307 0.369816
Si Si4 0.234250 0.413925 0.312535
Si Si5 0.589999 0.126247 0.077808
O O1 0.500000 0.654512 0.750000
O O2 0.250000 0.750000 0.500000
O O3 0.221914 0.615594 0.426023
O O4 0.101145 0.657365 0.505117
O O5 0.273932 0.921099 0.748130
O O6 0.933700 0.926014 0.395301
O O7 0.242205 0.020246 0.598356
O O8 0.745548 0.836265 0.367488
O O9 0.923846 0.748315 0.621149
O O10 0.776966 0.691546 0.362109
O O11 0.017854 0.416039 0.089575
#
# Coordination Sequence:
#
# PCOD9306353 Si02
#       5
#     8   8   8   8   8
#     4  12  25  44  74 110 145 191 241 299 364 441
#     4  11  25  47  72 110 146 193 238 299 369 443
#     4  12  25  45  72 104 139 194 248 299 358 433
#     4  11  25  47  73 105 150 188 245 297 362 439
#     4  12  25  46  75 103 145 190 243 297 370 429
#
# _framework density 23.638043
#
# number of rings (size 3 to 8) (size 9 to 14) (size 15 to 20)
#    0.000    0.400    4.000    4.800    2.800    1.600 
#    3.600    1.000    0.000    0.000    0.000    0.000 
#    0.000    0.000    0.000    0.000    0.000    0.000 
#
# Total GULP energy -111917.356241 kJ/mol
# GULP energy per Si atom -5595.867812 kJ/mol
# Density = 2.358424 g / cm^3
# Si number density = 23.638043 Si / 1000 Ang^3
#
#
#
# Elastic Constant Matrix: (Units=GPa)
#
#
# Indices 1 2 3 4 5 6 
#
# 1 109.7153 54.3817 25.7506 0.0002 30.5910 0.0001
# 2 54.3817 178.6250 45.8361 0.0000 9.9564 0.0000
# 3 25.7506 45.8361 133.5841 0.0007 12.9970 0.0002
# 4 0.0002 0.0000 0.0007 38.2263 0.0003 1.0557
# 5 30.5910 9.9564 12.9970 0.0003 45.2373 0.0001
# 6 0.0001 0.0000 0.0002 1.0557 0.0001 30.0385
#
#
#
# Elastic Compliance Matrix: (Units=1/GPa)
#
#
# Indices 1 2 3 4 5 6 
#
# 1 0.013172 -0.003413 -0.000591 0.000000 -0.007986 0.000000
# 2 -0.003413 0.007049 -0.001887 0.000000 0.001299 0.000000
# 3 -0.000591 -0.001887 0.008403 0.000000 -0.001599 0.000000
# 4 0.000000 0.000000 0.000000 0.026185 0.000000 -0.000920
# 5 -0.007986 0.001299 -0.001599 0.000000 0.027680 0.000000
# 6 0.000000 0.000000 0.000000 -0.000920 0.000000 0.033323
#
#
# Mechanical properties :
#
#
# Convention : Reuss Voigt Hill
#
# Bulk Modulus (GPa) = 59.37792 74.87345 67.12569
# Shear Modulus (GPa) = 37.53507 42.43083 39.98295
#
# Velocity S-wave (km/s) = 3.98918 4.24137 4.11721
# Velocity P-wave (km/s) = 6.81119 7.46521 7.14568
#
# Compressibility (1/GPa) = 0.01684128
#
# Stress axis : x y z
#
# Youngs Moduli (GPa) = 75.92009 141.85674 119.00540
#
# Poissons Ratio (x) = 0.48420 0.07032
# Poissons Ratio (y) = 0.25914 0.22459
# Poissons Ratio (z) = 0.04486 0.26771
#
# Static dielectric constant tensor:
#      x y z
#    x 1.872300 0.000000 0.092630 
#    y 0.000000 1.779660 0.000000 
#    z 0.092630 0.000000 2.575760 
# 
# From -- ./inp_files/155369.got.cif
#   From: 2010.05.17/outbox.cif.g08.bks.cpg/sg15_78_cif.got.tgz:155369.got - 2010.06.03 18:47:42.
