data_PCOD9306637
_publ_section_title
;
Structure prediction by ZEFSAII (Michael W. Deem and Ramdas Pophale) SiO2 
 PCOD9306637
Probable space group: C 2/C
;
_chemical_formula_sum "Si O2"
_cell_formula_units_Z 40
_cell_length_a 16.309415
_cell_length_b 7.521793
_cell_length_c 19.347957
_cell_angle_alpha 90.000000
_cell_angle_beta 44.598368
_cell_angle_gamma 90.000000
_cell_volume 1666.533770
_symmetry_space_group_name_H-M "C 2/C"
_symmetry_group_IT_number 15
_symmetry_cell_setting 'monoclinic'
loop_
_space_group_symop_operation_xyz
x,y,z
-x,y,1/2-z
-x,-y,-z
x,-y,1/2+z
1/2+x,1/2+y,z
1/2-x,1/2+y,1/2-z
1/2-x,1/2-y,-z
1/2+x,1/2-y,1/2+z
loop_
_atom_site_type_symbol
_atom_site_label
_atom_site_fract_x
_atom_site_fract_y
_atom_site_fract_z
Si Si1 0.875395 0.046690 0.811426
Si Si2 0.621195 0.957301 0.713216
Si Si3 0.503994 0.703574 0.020138
Si Si4 0.313851 0.580399 0.490035
Si Si5 0.836187 0.508041 0.152036
O O1 0.894799 0.245012 0.773414
O O2 0.000000 0.956679 0.750000
O O3 0.789596 0.960527 0.807031
O O4 0.822674 0.052344 0.920295
O O5 0.500000 0.024051 0.750000
O O6 0.650276 0.010406 0.774213
O O7 0.733184 0.003361 0.599103
O O8 0.386413 0.819286 0.093631
O O9 0.500000 0.500000 0.000000
O O10 0.565928 0.668294 0.055958
O O11 0.585335 0.828523 0.923164
O O12 0.250000 0.750000 0.500000
#
# Coordination Sequence:
#
# PCOD9306637 Si02
#       5
#     8   8   8   8   8
#     4  11  27  47  76 106 151 200 258 307 383 451
#     4  11  27  46  75 110 155 198 252 314 380 452
#     4  11  26  46  82 109 150 200 255 314 384 447
#     4  12  25  47  72 107 149 198 252 311 376 447
#     4  11  26  51  75 113 155 196 256 319 375 455
#
# _framework density 24.001913999999999
#
# number of rings (size 3 to 8) (size 9 to 14) (size 15 to 20)
#    0.000    0.800    2.000    3.000   11.200    4.000 
#    0.000    0.000    0.000    0.000    0.000    0.000 
#    0.000    0.000    0.000    0.000    0.000    0.000 
#
# Total GULP energy -111796.402313 kJ/mol
# GULP energy per Si atom -5589.820116 kJ/mol
# Density = 2.394728 g / cm^3
# Si number density = 24.001914 Si / 1000 Ang^3
#
#
#
# Elastic Constant Matrix: (Units=GPa)
#
#
# Indices 1 2 3 4 5 6 
#
# 1 194.2455 25.3564 73.8613 0.0000 7.5214 0.0000
# 2 25.3564 117.7690 21.0363 0.0000 3.6541 0.0000
# 3 73.8613 21.0363 100.1036 0.0000 20.9397 0.0000
# 4 0.0000 0.0000 0.0000 16.0399 0.0000 -0.9786
# 5 7.5214 3.6541 20.9397 0.0000 37.1845 0.0000
# 6 0.0000 0.0000 0.0000 -0.9786 0.0000 24.5748
#
#
#
# Elastic Compliance Matrix: (Units=1/GPa)
#
#
# Indices 1 2 3 4 5 6 
#
# 1 0.007299 -0.000622 -0.005621 0.000000 0.001750 0.000000
# 2 -0.000622 0.008877 -0.001417 0.000000 0.000052 0.000000
# 3 -0.005621 -0.001417 0.016060 0.000000 -0.007767 0.000000
# 4 0.000000 0.000000 0.000000 0.062496 0.000000 0.002489
# 5 0.001750 0.000052 -0.007767 0.000000 0.030908 0.000000
# 6 0.000000 0.000000 0.000000 0.002489 0.000000 0.040791
#
#
# Mechanical properties :
#
#
# Convention : Reuss Voigt Hill
#
# Bulk Modulus (GPa) = 59.11891 72.51403 65.81647
# Shear Modulus (GPa) = 26.68244 35.01744 30.84994
#
# Velocity S-wave (km/s) = 3.33780 3.82376 3.58901
# Velocity P-wave (km/s) = 6.28800 7.05494 6.68248
#
# Compressibility (1/GPa) = 0.01691506
#
# Stress axis : x y z
#
# Youngs Moduli (GPa) = 137.00807 112.65507 62.26784
#
# Poissons Ratio (x) = 0.07005 0.35000
# Poissons Ratio (y) = 0.08519 0.08826
# Poissons Ratio (z) = 0.77010 0.15968
#
# Static dielectric constant tensor:
#      x y z
#    x 1.890130 0.000000 -0.041330 
#    y 0.000000 1.894600 0.000000 
#    z -0.041330 0.000000 1.902960 
# 
# From -- ./inp_files/202483.got.cif
#   From: 2010.05.17/outbox.cif.g08.bks.cpg/sg15_102_cif.got.tgz:202483.got - 2010.06.03 18:47:42.
