data_PCOD9306053
_publ_section_title
;
Structure prediction by ZEFSAII (Michael W. Deem and Ramdas Pophale) SiO2 
 PCOD9306053
Probable space group: C 2/C
;
_chemical_formula_sum "Si O2"
_cell_formula_units_Z 44
_cell_length_a 6.499820
_cell_length_b 26.088263
_cell_length_c 13.013165
_cell_angle_alpha 90.000000
_cell_angle_beta 116.881960
_cell_angle_gamma 90.000000
_cell_volume 1968.181026
_symmetry_space_group_name_H-M "C 2/C"
_symmetry_group_IT_number 15
_symmetry_cell_setting 'monoclinic'
loop_
_space_group_symop_operation_xyz
x,y,z
-x,y,1/2-z
-x,-y,-z
x,-y,1/2+z
1/2+x,1/2+y,z
1/2-x,1/2+y,1/2-z
1/2-x,1/2-y,-z
1/2+x,1/2-y,1/2+z
loop_
_atom_site_type_symbol
_atom_site_label
_atom_site_fract_x
_atom_site_fract_y
_atom_site_fract_z
Si Si1 0.905686 0.923111 0.961586
Si Si2 0.923947 0.388438 0.117682
Si Si3 0.234905 0.963887 0.365522
Si Si4 0.500000 0.972960 0.750000
Si Si5 0.509717 0.777683 0.444745
Si Si6 0.324802 0.185617 0.120585
O O1 0.735307 0.943081 0.833242
O O2 0.826627 0.863107 0.947585
O O3 0.854821 0.966086 0.038265
O O4 0.182692 0.913409 0.027661
O O5 0.950450 0.327732 0.114937
O O6 0.000000 0.403603 0.250000
O O7 0.122827 0.411609 0.092681
O O8 0.000000 0.958851 0.250000
O O9 0.406552 0.999095 0.335173
O O10 0.750000 0.750000 0.500000
O O11 0.451976 0.796178 0.546537
O O12 0.320745 0.734901 0.372693
O O13 0.500000 0.170463 0.250000
#
# Coordination Sequence:
#
# PCOD9306053 Si02
#       6
#     8   8   8   4   8   8
#     4  12  25  47  74 104 149 186 243 301 366 436
#     4  12  25  45  74 107 143 191 241 297 361 433
#     4  12  25  48  72 105 141 188 244 301 368 435
#     4  12  28  48  72 108 144 194 242 310 372 436
#     4  11  25  43  71 106 144 190 239 292 349 436
#     4  11  25  44  68 108 147 189 234 291 362 427
#
# _framework density 22.355668000000001
#
# number of rings (size 3 to 8) (size 9 to 14) (size 15 to 20)
#    0.000    0.364    7.273    0.545    2.545    5.091 
#    0.000    1.818    0.000    0.000    0.000    0.000 
#    0.000    0.000    0.000    0.000    0.000    0.000 
#
# Total GULP energy -122525.425512 kJ/mol
# GULP energy per Si atom -5569.337523 kJ/mol
# Density = 2.230479 g / cm^3
# Si number density = 22.355668 Si / 1000 Ang^3
#
#
#
# Elastic Constant Matrix: (Units=GPa)
#
#
# Indices 1 2 3 4 5 6 
#
# 1 94.8733 41.2891 36.0555 0.0000 30.0492 0.0000
# 2 41.2891 93.8134 28.3640 0.0000 7.9898 0.0000
# 3 36.0555 28.3640 108.7526 0.0000 30.1686 0.0000
# 4 0.0000 0.0000 0.0000 31.1288 0.0000 -0.0993
# 5 30.0492 7.9898 30.1686 0.0000 38.1084 0.0000
# 6 0.0000 0.0000 0.0000 -0.0993 0.0000 26.1940
#
#
#
# Elastic Compliance Matrix: (Units=1/GPa)
#
#
# Indices 1 2 3 4 5 6 
#
# 1 0.017331 -0.006378 -0.000849 0.000000 -0.011656 0.000000
# 2 -0.006378 0.013919 -0.002693 0.000000 0.004243 0.000000
# 3 -0.000849 -0.002693 0.012605 0.000000 -0.008745 0.000000
# 4 0.000000 0.000000 0.000000 0.032125 0.000000 0.000122
# 5 -0.011656 0.004243 -0.008745 0.000000 0.041466 0.000000
# 6 0.000000 0.000000 0.000000 0.000122 0.000000 0.038177
#
#
# Mechanical properties :
#
#
# Convention : Reuss Voigt Hill
#
# Bulk Modulus (GPa) = 41.63954 56.53960 49.08957
# Shear Modulus (GPa) = 27.25286 31.86827 29.56056
#
# Velocity S-wave (km/s) = 3.49529 3.77969 3.64027
# Velocity P-wave (km/s) = 5.91234 6.66288 6.29880
#
# Compressibility (1/GPa) = 0.02401564
#
# Stress axis : x y z
#
# Youngs Moduli (GPa) = 57.70120 71.84204 79.33548
#
# Poissons Ratio (x) = 0.45823 0.06733
# Poissons Ratio (y) = 0.36803 0.21363
# Poissons Ratio (z) = 0.04897 0.19345
#
# Static dielectric constant tensor:
#      x y z
#    x 1.657410 0.000000 -0.021430 
#    y 0.000000 1.944230 0.000000 
#    z -0.021430 0.000000 1.833900 
# 
# From -- ./inp_files/74016.got.cif
#   From: 2010.05.17/outbox.cif.g08.bks.cpg/sg15_38_cif.got.tgz:74016.got - 2010.06.03 18:47:42.
