data_PCOD9306705
_publ_section_title
;
Structure prediction by ZEFSAII (Michael W. Deem and Ramdas Pophale) SiO2 
 PCOD9306705
Probable space group: C 2/C
;
_chemical_formula_sum "Si O2"
_cell_formula_units_Z 32
_cell_length_a 7.399228
_cell_length_b 10.424887
_cell_length_c 23.475435
_cell_angle_alpha 90.000000
_cell_angle_beta 129.961021
_cell_angle_gamma 90.000000
_cell_volume 1387.947780
_symmetry_space_group_name_H-M "C 2/C"
_symmetry_group_IT_number 15
_symmetry_cell_setting 'monoclinic'
loop_
_space_group_symop_operation_xyz
x,y,z
-x,y,1/2-z
-x,-y,-z
x,-y,1/2+z
1/2+x,1/2+y,z
1/2-x,1/2+y,1/2-z
1/2-x,1/2-y,-z
1/2+x,1/2-y,1/2+z
loop_
_atom_site_type_symbol
_atom_site_label
_atom_site_fract_x
_atom_site_fract_y
_atom_site_fract_z
Si Si1 0.227626 0.756976 0.212183
Si Si2 0.555885 0.543961 0.193694
Si Si3 0.316026 0.864545 0.556881
Si Si4 0.347416 0.611882 0.036311
O O1 0.500000 0.782046 0.250000
O O2 0.254305 0.660170 0.270878
O O3 0.126701 0.898647 0.196911
O O4 0.055573 0.680570 0.134974
O O5 0.500000 0.541680 0.250000
O O6 0.370382 0.583722 0.107863
O O7 0.250000 0.750000 0.500000
O O8 0.110079 0.887605 0.562093
O O9 0.311154 0.999736 0.523027
O O10 0.250000 0.750000 0.000000
#
# Coordination Sequence:
#
# PCOD9306705 Si02
#       4
#     8   8   8   8
#     4  11  28  46  72 108 153 193 248 311 375 453
#     4  11  28  46  74 110 146 198 251 310 376 459
#     4  11  26  48  76 110 150 194 252 309 377 451
#     4  11  28  47  80 109 148 198 252 316 378 446
#
# _framework density 23.055622
#
# number of rings (size 3 to 8) (size 9 to 14) (size 15 to 20)
#    0.000    1.000    2.500    0.000   17.500    3.000 
#    0.000    0.000    0.000    0.000    0.000    0.000 
#    0.000    0.000    0.000    0.000    0.000    0.000 
#
# Total GULP energy -89303.988684 kJ/mol
# GULP energy per Si atom -5581.499293 kJ/mol
# Density = 2.300315 g / cm^3
# Si number density = 23.055622 Si / 1000 Ang^3
#
#
#
# Elastic Constant Matrix: (Units=GPa)
#
#
# Indices 1 2 3 4 5 6 
#
# 1 88.4881 21.5543 38.0397 0.0000 -5.7842 0.0000
# 2 21.5543 257.4430 100.7275 0.0000 -6.2712 0.0000
# 3 38.0397 100.7275 182.0625 0.0000 -0.5293 0.0000
# 4 0.0000 0.0000 0.0000 41.2007 0.0000 -20.8466
# 5 -5.7842 -6.2712 -0.5293 0.0000 26.4056 0.0000
# 6 0.0000 0.0000 0.0000 -20.8466 0.0000 -10.4549
#
#
#
# Elastic Compliance Matrix: (Units=1/GPa)
#
#
# Indices 1 2 3 4 5 6 
#
# 1 0.012607 0.000049 -0.002653 0.000000 0.002720 0.000000
# 2 0.000049 0.004991 -0.002768 0.000000 0.001141 0.000000
# 3 -0.002653 -0.002768 0.007575 0.000000 -0.001087 0.000000
# 4 0.000000 0.000000 0.000000 0.012082 0.000000 -0.024091
# 5 0.002720 0.001141 -0.001087 0.000000 0.038716 0.000000
# 6 0.000000 0.000000 0.000000 -0.024091 0.000000 -0.047613
#
#
# Mechanical properties :
#
#
# Convention : Reuss Voigt Hill
#
# Bulk Modulus (GPa) = 69.30695 94.29295 81.79995
# Shear Modulus (GPa) = 113.85860 35.94175 74.90018
#
# Velocity S-wave (km/s) = 7.03502 3.95259 5.70590
# Velocity P-wave (km/s) = 9.80381 7.86241 8.88629
#
# Compressibility (1/GPa) = 0.01442857
#
# Stress axis : x y z
#
# Youngs Moduli (GPa) = 79.31806 200.35343 132.00595
#
# Poissons Ratio (x) = -0.00978 0.35025
# Poissons Ratio (y) = -0.00387 0.36543
# Poissons Ratio (z) = 0.21045 0.55464
#
# Static dielectric constant tensor:
#      x y z
#    x 2.013260 0.000000 0.041090 
#    y 0.000000 1.901820 0.000000 
#    z 0.041090 0.000000 1.696240 
# 
# From -- ./inp_files/263398.got.cif
#   From: 2010.05.17/outbox.cif.g08.bks.cpg/sg15_132_cif.got.tgz:263398.got - 2010.06.03 18:47:42.
