data_PCOD9306852
_publ_section_title
;
Structure prediction by ZEFSAII (Michael W. Deem and Ramdas Pophale) SiO2 
 PCOD9306852
Probable space group: C 2/C
;
_chemical_formula_sum "Si O2"
_cell_formula_units_Z 40
_cell_length_a 17.901333
_cell_length_b 9.921301
_cell_length_c 21.632174
_cell_angle_alpha 90.000000
_cell_angle_beta 21.803730
_cell_angle_gamma 90.000000
_cell_volume 1427.016951
_symmetry_space_group_name_H-M "C 2/C"
_symmetry_group_IT_number 15
_symmetry_cell_setting 'monoclinic'
loop_
_space_group_symop_operation_xyz
x,y,z
-x,y,1/2-z
-x,-y,-z
x,-y,1/2+z
1/2+x,1/2+y,z
1/2-x,1/2+y,1/2-z
1/2-x,1/2-y,-z
1/2+x,1/2-y,1/2+z
loop_
_atom_site_type_symbol
_atom_site_label
_atom_site_fract_x
_atom_site_fract_y
_atom_site_fract_z
Si Si1 0.199861 0.804169 0.419151
Si Si2 0.212667 0.010081 0.161310
Si Si3 0.276125 0.841418 0.226737
Si Si4 0.048211 0.628651 0.320146
Si Si5 0.717170 0.434288 0.976787
O O1 0.326987 0.666994 0.321234
O O2 0.231082 0.884011 0.331126
O O3 0.245785 0.905015 0.439702
O O4 0.977606 0.745263 0.580287
O O5 0.998606 0.933379 0.323280
O O6 0.274714 0.971139 0.183646
O O7 0.403375 0.968352 0.973711
O O8 0.119747 0.739145 0.314734
O O9 0.878587 0.634302 0.396596
O O10 0.242000 0.621168 0.124042
#
# Coordination Sequence:
#
# PCOD9306852 Si02
#       5
#     8   8   8   8   8
#     4  12  25  45  78 116 154 203 273 331 398 472
#     4  12  26  48  79 113 158 209 267 330 400 478
#     4  12  25  45  78 116 155 203 265 337 396 471
#     4  11  27  50  74 112 160 210 266 323 401 483
#     4  11  27  50  74 111 159 213 263 327 400 479
#
# _framework density 28.030503
#
# number of rings (size 3 to 8) (size 9 to 14) (size 15 to 20)
#    0.000    0.400    4.000    3.600    2.800    3.200 
#    7.200    0.000    0.000    0.000    0.000    0.000 
#    0.000    0.000    0.000    0.000    0.000    0.000 
#
# Total GULP energy -111594.538865 kJ/mol
# GULP energy per Si atom -5579.726943 kJ/mol
# Density = 2.796670 g / cm^3
# Si number density = 28.030503 Si / 1000 Ang^3
#
#
#
# Elastic Constant Matrix: (Units=GPa)
#
#
# Indices 1 2 3 4 5 6 
#
# 1 98.6689 22.5022 51.4628 -0.0043 7.9632 -0.0002
# 2 22.5022 71.2937 36.3143 -0.0033 -7.4278 -0.0002
# 3 51.4628 36.3143 154.6367 0.0020 -16.7501 0.0116
# 4 -0.0043 -0.0033 0.0020 41.3272 -0.0029 -1.3741
# 5 7.9632 -7.4278 -16.7501 -0.0029 57.1830 -0.0045
# 6 -0.0002 -0.0002 0.0116 -1.3741 -0.0045 -15.2937
#
#
#
# Elastic Compliance Matrix: (Units=1/GPa)
#
#
# Indices 1 2 3 4 5 6 
#
# 1 0.013123 -0.002365 -0.004176 0.000001 -0.003358 -0.000002
# 2 -0.002365 0.016415 -0.002893 0.000001 0.001614 -0.000003
# 3 -0.004176 -0.002893 0.008839 -0.000001 0.002795 0.000006
# 4 0.000001 0.000001 -0.000001 0.024125 0.000001 -0.002168
# 5 -0.003358 0.001614 0.002795 0.000001 0.018984 -0.000004
# 6 -0.000002 -0.000003 0.000006 -0.002168 -0.000004 -0.065191
#
#
# Mechanical properties :
#
#
# Convention : Reuss Voigt Hill
#
# Bulk Modulus (GPa) = 51.25762 60.57310 55.91536
# Shear Modulus (GPa) = 120.00886 30.93129 75.47008
#
# Velocity S-wave (km/s) = 6.55031 3.32548 5.19449
# Velocity P-wave (km/s) = 8.69108 6.03338 7.48120
#
# Compressibility (1/GPa) = 0.01950929
#
# Stress axis : x y z
#
# Youngs Moduli (GPa) = 76.20107 60.92141 113.14110
#
# Poissons Ratio (x) = 0.14407 0.47245
# Poissons Ratio (y) = 0.18021 0.32730
# Poissons Ratio (z) = 0.31819 0.17624
#
# Static dielectric constant tensor:
#      x y z
#    x 2.133120 0.000010 -0.088520 
#    y 0.000010 2.301070 0.000030 
#    z -0.088520 0.000030 2.179880 
# 
# From -- ./inp_files/279955.got.cif
#   From: 2010.05.17/outbox.cif.g08.bks.cpg/sg15_140_cif.got.tgz:279955.got - 2010.06.03 18:47:42.
