data_PCOD9306394
_publ_section_title
;
Structure prediction by ZEFSAII (Michael W. Deem and Ramdas Pophale) SiO2 
 PCOD9306394
Probable space group: C 2/C
;
_chemical_formula_sum "Si O2"
_cell_formula_units_Z 52
_cell_length_a 17.876500
_cell_length_b 8.044340
_cell_length_c 16.318227
_cell_angle_alpha 90.000000
_cell_angle_beta 118.631094
_cell_angle_gamma 90.000000
_cell_volume 2059.697263
_symmetry_space_group_name_H-M "C 2/C"
_symmetry_group_IT_number 15
_symmetry_cell_setting 'monoclinic'
loop_
_space_group_symop_operation_xyz
x,y,z
-x,y,1/2-z
-x,-y,-z
x,-y,1/2+z
1/2+x,1/2+y,z
1/2-x,1/2+y,1/2-z
1/2-x,1/2-y,-z
1/2+x,1/2-y,1/2+z
loop_
_atom_site_type_symbol
_atom_site_label
_atom_site_fract_x
_atom_site_fract_y
_atom_site_fract_z
Si Si1 0.652899 0.696694 0.930669
Si Si2 0.562074 0.808647 0.464536
Si Si3 0.881903 0.360376 0.431337
Si Si4 0.270311 0.316963 0.756902
Si Si5 0.500000 0.293727 0.250000
Si Si6 0.822507 0.817398 0.600192
Si Si7 0.389190 0.364342 0.345587
O O1 0.585104 0.788609 0.834951
O O2 0.664190 0.513669 0.901431
O O3 0.750000 0.750000 0.000000
O O4 0.611030 0.716156 0.997610
O O5 0.464290 0.859382 0.417846
O O6 0.590709 0.755099 0.390607
O O7 0.577531 0.674072 0.545179
O O8 0.617500 0.969311 0.518717
O O9 0.800011 0.325231 0.335406
O O10 0.298274 0.274440 0.679362
O O11 0.325370 0.477938 0.811878
O O12 0.168392 0.299785 0.705265
O O13 0.458898 0.383729 0.309430
O O14 0.750000 0.750000 0.500000
#
# Coordination Sequence:
#
# PCOD9306394 Si02
#       7
#     8   8   8   8   4   8   8
#     4  12  26  48  78 112 154 203 264 326 399 466
#     4  11  25  48  70 103 156 190 250 317 386 463
#     4  11  26  47  70 108 148 199 250 324 387 458
#     4  12  27  46  77 110 150 199 257 321 398 463
#     4  12  26  48  80 118 154 202 266 328 382 484
#     4  12  26  47  74 109 151 200 254 323 393 470
#     4  12  25  49  75 109 152 198 257 324 393 470
#
# _framework density 25.246428000000002
#
# number of rings (size 3 to 8) (size 9 to 14) (size 15 to 20)
#    0.000    0.308    4.615    3.692    2.154    1.846 
#    8.308    0.000    0.000    1.846    0.000    0.000 
#    0.000    0.000    0.000    0.000    0.000    0.000 
#
# Total GULP energy -145382.511380 kJ/mol
# GULP energy per Si atom -5591.635053 kJ/mol
# Density = 2.518897 g / cm^3
# Si number density = 25.246428 Si / 1000 Ang^3
#
#
#
# Elastic Constant Matrix: (Units=GPa)
#
#
# Indices 1 2 3 4 5 6 
#
# 1 124.0337 31.2328 14.4600 0.0000 -21.8446 0.0000
# 2 31.2328 57.6500 9.0045 0.0000 -2.3228 0.0000
# 3 14.4600 9.0045 119.8893 0.0000 1.4782 0.0000
# 4 0.0000 0.0000 0.0000 23.9313 0.0000 2.6905
# 5 -21.8446 -2.3228 1.4782 0.0000 53.4737 0.0000
# 6 0.0000 0.0000 0.0000 2.6905 0.0000 34.3954
#
#
#
# Elastic Compliance Matrix: (Units=1/GPa)
#
#
# Indices 1 2 3 4 5 6 
#
# 1 0.010175 -0.005215 -0.000884 0.000000 0.003955 0.000000
# 2 -0.005215 0.020259 -0.000877 0.000000 -0.001226 0.000000
# 3 -0.000884 -0.000877 0.008521 0.000000 -0.000635 0.000000
# 4 0.000000 0.000000 0.000000 0.042157 0.000000 -0.003298
# 5 0.003955 -0.001226 -0.000635 0.000000 0.020281 0.000000
# 6 0.000000 0.000000 0.000000 -0.003298 0.000000 0.029332
#
#
# Mechanical properties :
#
#
# Convention : Reuss Voigt Hill
#
# Bulk Modulus (GPa) = 39.99702 45.66307 42.83005
# Shear Modulus (GPa) = 32.67712 38.81847 35.74780
#
# Velocity S-wave (km/s) = 3.60158 3.92546 3.76700
# Velocity P-wave (km/s) = 5.75953 6.21867 5.99350
#
# Compressibility (1/GPa) = 0.02500186
#
# Stress axis : x y z
#
# Youngs Moduli (GPa) = 98.27929 49.36071 117.35136
#
# Poissons Ratio (x) = 0.25742 0.10377
# Poissons Ratio (y) = 0.51253 0.10297
# Poissons Ratio (z) = 0.08691 0.04331
#
# Static dielectric constant tensor:
#      x y z
#    x 2.001820 0.000000 0.061150 
#    y 0.000000 2.059280 0.000000 
#    z 0.061150 0.000000 1.985070 
# 
# From -- ./inp_files/209722.got.cif
#   From: 2010.05.17/outbox.cif.g08.bks.cpg/sg15_105_cif.got.tgz:209722.got - 2010.06.03 18:47:42.
