data_PCOD9306758
_publ_section_title
;
Structure prediction by ZEFSAII (Michael W. Deem and Ramdas Pophale) SiO2 
 PCOD9306758
Probable space group: C 2/C
;
_chemical_formula_sum "Si O2"
_cell_formula_units_Z 24
_cell_length_a 18.852410
_cell_length_b 7.939431
_cell_length_c 7.262081
_cell_angle_alpha 90.000000
_cell_angle_beta 123.960155
_cell_angle_gamma 90.000000
_cell_volume 901.561006
_symmetry_space_group_name_H-M "C 2/C"
_symmetry_group_IT_number 15
_symmetry_cell_setting 'monoclinic'
loop_
_space_group_symop_operation_xyz
x,y,z
-x,y,1/2-z
-x,-y,-z
x,-y,1/2+z
1/2+x,1/2+y,z
1/2-x,1/2+y,1/2-z
1/2-x,1/2-y,-z
1/2+x,1/2-y,1/2+z
loop_
_atom_site_type_symbol
_atom_site_label
_atom_site_fract_x
_atom_site_fract_y
_atom_site_fract_z
Si Si1 0.872861 0.685870 0.658172
Si Si2 0.826507 0.690542 0.982143
Si Si3 0.458263 0.318411 0.445473
O O1 0.843875 0.507915 0.534523
O O2 0.888721 0.809484 0.510349
O O3 0.815406 0.732818 0.751017
O O4 0.967638 0.685781 0.891398
O O5 0.909689 0.778368 0.188731
O O6 0.750000 0.750000 0.000000
O O7 0.500000 0.500000 0.500000
#
# Coordination Sequence:
#
# PCOD9306758 Si02
#       3
#     8   8   8
#     4  11  26  50  77 109 158 202 263 320 382 465
#     4  12  27  49  79 112 158 209 256 321 400 459
#     4  11  27  49  79 115 149 206 267 318 390 466
#
# _framework density 26.620493
#
# number of rings (size 3 to 8) (size 9 to 14) (size 15 to 20)
#    0.000    0.667    3.333    2.000   14.000    4.000 
#    0.000    0.000    0.000    0.000    0.000    0.000 
#    0.000    0.000    0.000    0.000    0.000    0.000 
#
# Total GULP energy -67347.604758 kJ/mol
# GULP energy per Si atom -5612.300397 kJ/mol
# Density = 2.655990 g / cm^3
# Si number density = 26.620493 Si / 1000 Ang^3
#
#
#
# Elastic Constant Matrix: (Units=GPa)
#
#
# Indices 1 2 3 4 5 6 
#
# 1 197.0973 64.8299 35.7929 0.0000 -44.7439 0.0000
# 2 64.8299 165.2177 39.1027 0.0000 -15.3951 0.0000
# 3 35.7929 39.1027 137.2485 0.0000 -42.0699 0.0000
# 4 0.0000 0.0000 0.0000 29.7725 0.0000 3.1079
# 5 -44.7439 -15.3951 -42.0699 0.0000 71.9303 0.0000
# 6 0.0000 0.0000 0.0000 3.1079 0.0000 51.5450
#
#
#
# Elastic Compliance Matrix: (Units=1/GPa)
#
#
# Indices 1 2 3 4 5 6 
#
# 1 0.006649 -0.002276 0.000040 0.000000 0.003672 0.000000
# 2 -0.002276 0.007278 -0.001750 0.000000 -0.000882 0.000000
# 3 0.000040 -0.001750 0.009342 0.000000 0.005114 0.000000
# 4 0.000000 0.000000 0.000000 0.033801 0.000000 -0.002038
# 5 0.003672 -0.000882 0.005114 0.000000 0.018989 0.000000
# 6 0.000000 0.000000 0.000000 -0.002038 0.000000 0.019523
#
#
# Mechanical properties :
#
#
# Convention : Reuss Voigt Hill
#
# Bulk Modulus (GPa) = 65.37708 86.55716 75.96712
# Shear Modulus (GPa) = 46.01825 54.63875 50.32850
#
# Velocity S-wave (km/s) = 4.16225 4.53538 4.35281
# Velocity P-wave (km/s) = 6.90734 7.74674 7.33905
#
# Compressibility (1/GPa) = 0.01529588
#
# Stress axis : x y z
#
# Youngs Moduli (GPa) = 150.40628 137.40342 107.04545
#
# Poissons Ratio (x) = 0.31276 -0.00430
# Poissons Ratio (y) = 0.34236 0.18735
# Poissons Ratio (z) = -0.00605 0.24048
#
# Static dielectric constant tensor:
#      x y z
#    x 2.229920 0.000000 0.007000 
#    y 0.000000 1.980380 0.000000 
#    z 0.007000 0.000000 2.066570 
# 
# From -- ./inp_files/45301.got.cif
#   From: 2010.05.17/outbox.cif.g08.bks.cpg/sg15_23_cif.got.tgz:45301.got - 2010.06.03 18:47:42.
