data_PCOD9306240
_publ_section_title
;
Structure prediction by ZEFSAII (Michael W. Deem and Ramdas Pophale) SiO2 
 PCOD9306240
Probable space group: C 2/C
;
_chemical_formula_sum "Si O2"
_cell_formula_units_Z 40
_cell_length_a 22.427754
_cell_length_b 5.657669
_cell_length_c 25.855954
_cell_angle_alpha 90.000000
_cell_angle_beta 33.352560
_cell_angle_gamma 90.000000
_cell_volume 1803.765922
_symmetry_space_group_name_H-M "C 2/C"
_symmetry_group_IT_number 15
_symmetry_cell_setting 'monoclinic'
loop_
_space_group_symop_operation_xyz
x,y,z
-x,y,1/2-z
-x,-y,-z
x,-y,1/2+z
1/2+x,1/2+y,z
1/2-x,1/2+y,1/2-z
1/2-x,1/2-y,-z
1/2+x,1/2-y,1/2+z
loop_
_atom_site_type_symbol
_atom_site_label
_atom_site_fract_x
_atom_site_fract_y
_atom_site_fract_z
Si Si1 0.785213 0.712522 0.352002
Si Si2 0.872389 0.509249 0.598423
Si Si3 0.186183 0.341487 0.247909
Si Si4 0.468106 0.432839 0.719519
Si Si5 0.206656 0.999152 0.508285
O O1 0.684232 0.879628 0.411197
O O2 0.818131 0.599445 0.273726
O O3 0.889839 0.855170 0.295456
O O4 0.745310 0.516380 0.420978
O O5 0.849584 0.657403 0.667145
O O6 0.806507 0.266368 0.655317
O O7 0.000000 0.500000 0.500000
O O8 0.105721 0.197339 0.269030
O O9 0.500000 0.300139 0.750000
O O10 0.578256 0.501217 0.610867
O O11 0.250000 0.750000 0.500000
O O12 0.250000 0.250000 0.500000
#
# Coordination Sequence:
#
# PCOD9306240 Si02
#       5
#     8   8   8   8   8
#     4  11  26  45  72 104 147 193 250 306 380 445
#     4  11  26  45  71 104 145 193 255 310 380 448
#     4  11  25  46  70 103 143 195 246 311 374 450
#     4  11  25  46  73 105 146 192 240 313 376 447
#     4  12  28  48  75 111 151 199 256 305 376 456
#
# _framework density 22.175827000000002
#
# number of rings (size 3 to 8) (size 9 to 14) (size 15 to 20)
#    0.000    0.800    4.000    1.200   11.200    1.600 
#    0.000    0.000    0.000    0.000    0.000    0.000 
#    0.000    0.000    0.000    0.000    0.000    0.000 
#
# Total GULP energy -111719.512414 kJ/mol
# GULP energy per Si atom -5585.975621 kJ/mol
# Density = 2.212535 g / cm^3
# Si number density = 22.175827 Si / 1000 Ang^3
#
#
#
# Elastic Constant Matrix: (Units=GPa)
#
#
# Indices 1 2 3 4 5 6 
#
# 1 96.4733 24.6075 44.7777 -0.0464 -6.6169 0.1000
# 2 24.6075 66.2592 19.8182 -0.0023 -11.6998 -0.0613
# 3 44.7777 19.8182 132.6383 0.0635 -31.8450 -0.0214
# 4 -0.0464 -0.0023 0.0635 28.0270 0.0028 14.8255
# 5 -6.6169 -11.6998 -31.8450 0.0028 53.9077 -0.0783
# 6 0.1000 -0.0613 -0.0214 14.8255 -0.0783 31.0177
#
#
#
# Elastic Compliance Matrix: (Units=1/GPa)
#
#
# Indices 1 2 3 4 5 6 
#
# 1 0.013251 -0.003946 -0.004310 0.000083 -0.001776 -0.000098
# 2 -0.003946 0.017238 -0.000538 -0.000044 0.002939 0.000075
# 3 -0.004310 -0.000538 0.010394 -0.000066 0.005494 0.000065
# 4 0.000083 -0.000044 -0.000066 0.047754 -0.000074 -0.022825
# 5 -0.001776 0.002939 0.005494 -0.000074 0.022216 0.000107
# 6 -0.000098 0.000075 0.000065 -0.022825 0.000107 0.043150
#
#
# Mechanical properties :
#
#
# Convention : Reuss Voigt Hill
#
# Bulk Modulus (GPa) = 42.92822 52.64197 47.78509
# Shear Modulus (GPa) = 27.87760 36.33497 32.10628
#
# Velocity S-wave (km/s) = 3.54943 4.05222 3.80913
# Velocity P-wave (km/s) = 6.01648 6.75899 6.39852
#
# Compressibility (1/GPa) = 0.02329470
#
# Stress axis : x y z
#
# Youngs Moduli (GPa) = 75.46625 58.01303 96.20932
#
# Poissons Ratio (x) = 0.22890 0.41470
# Poissons Ratio (y) = 0.29776 0.05174
# Poissons Ratio (z) = 0.32529 0.03120
#
# Static dielectric constant tensor:
#      x y z
#    x 1.866620 -0.000140 0.054140 
#    y -0.000140 1.902570 0.000050 
#    z 0.054140 0.000050 1.774670 
# 
# From -- ./inp_files/301747.got.cif
#   From: 2010.05.17/outbox.cif.g08.bks.cpg/sg15_151_cif.got.tgz:301747.got - 2010.06.03 18:47:42.
