data_PCOD9306084
_publ_section_title
;
Structure prediction by ZEFSAII (Michael W. Deem and Ramdas Pophale) SiO2 
 PCOD9306084
Probable space group: C 2/C
;
_chemical_formula_sum "Si O2"
_cell_formula_units_Z 40
_cell_length_a 8.758993
_cell_length_b 22.410831
_cell_length_c 18.798017
_cell_angle_alpha 90.000000
_cell_angle_beta 149.773067
_cell_angle_gamma 90.000000
_cell_volume 1857.633171
_symmetry_space_group_name_H-M "C 2/C"
_symmetry_group_IT_number 15
_symmetry_cell_setting 'monoclinic'
loop_
_space_group_symop_operation_xyz
x,y,z
-x,y,1/2-z
-x,-y,-z
x,-y,1/2+z
1/2+x,1/2+y,z
1/2-x,1/2+y,1/2-z
1/2-x,1/2-y,-z
1/2+x,1/2-y,1/2+z
loop_
_atom_site_type_symbol
_atom_site_label
_atom_site_fract_x
_atom_site_fract_y
_atom_site_fract_z
Si Si1 0.341811 0.676915 0.362671
Si Si2 0.812854 0.382038 0.843275
Si Si3 0.636714 0.810803 0.100741
Si Si4 0.388821 0.891182 0.125295
Si Si5 0.837572 0.477973 0.610571
O O1 0.322558 0.662620 0.271340
O O2 0.462386 0.741805 0.433535
O O3 0.535413 0.625732 0.478446
O O4 0.000000 0.675014 0.250000
O O5 0.500000 0.410139 0.750000
O O6 0.047733 0.428023 0.899399
O O7 0.995378 0.344661 0.976079
O O8 0.532256 0.845331 0.128589
O O9 0.000000 0.811466 0.250000
O O10 0.500000 0.883953 0.250000
O O11 0.460487 0.958391 0.130850
O O12 0.500000 0.500000 0.500000
O O13 0.000000 0.463770 0.750000
#
# Coordination Sequence:
#
# PCOD9306084 Si02
#       5
#     8   8   8   8   8
#     4  11  25  46  71 102 143 192 239 287 373 433
#     4  12  26  46  75 107 145 188 245 304 358 429
#     4  11  28  43  69 109 142 187 238 306 359 418
#     4  11  25  44  71 100 142 187 237 299 357 431
#     4  11  26  47  73 101 142 198 238 291 365 439
#
# _framework density 21.532775999999998
#
# number of rings (size 3 to 8) (size 9 to 14) (size 15 to 20)
#    0.000    0.800    2.000    3.600   11.200    3.200 
#    0.000    0.000    0.000    0.000    0.000    0.000 
#    0.000    0.000    0.000    0.000    0.000    0.000 
#
# Total GULP energy -111665.483124 kJ/mol
# GULP energy per Si atom -5583.274156 kJ/mol
# Density = 2.148377 g / cm^3
# Si number density = 21.532776 Si / 1000 Ang^3
#
#
#
# Elastic Constant Matrix: (Units=GPa)
#
#
# Indices 1 2 3 4 5 6 
#
# 1 113.7118 60.7233 49.6629 -0.0014 9.6508 0.0003
# 2 60.7233 180.8732 58.0440 0.0024 -20.8637 0.0041
# 3 49.6629 58.0440 145.8466 -0.0445 -9.2363 0.0249
# 4 -0.0014 0.0024 -0.0445 29.1056 0.0049 -6.7108
# 5 9.6508 -20.8637 -9.2363 0.0049 39.1278 -0.0089
# 6 0.0003 0.0041 0.0249 -6.7108 -0.0089 10.8276
#
#
#
# Elastic Compliance Matrix: (Units=1/GPa)
#
#
# Indices 1 2 3 4 5 6 
#
# 1 0.012813 -0.003983 -0.003160 -0.000002 -0.006030 0.000002
# 2 -0.003983 0.007900 -0.001481 -0.000003 0.004845 0.000002
# 3 -0.003160 -0.001481 0.008650 0.000010 0.002032 -0.000011
# 4 -0.000002 -0.000003 0.000010 0.040086 0.000002 0.024845
# 5 -0.006030 0.004845 0.002032 0.000002 0.030108 0.000020
# 6 0.000002 0.000002 -0.000011 0.024845 0.000020 0.107755
#
#
# Mechanical properties :
#
#
# Convention : Reuss Voigt Hill
#
# Bulk Modulus (GPa) = 82.53517 86.36580 84.45048
# Shear Modulus (GPa) = 21.87237 33.94563 27.90900
#
# Velocity S-wave (km/s) = 3.19057 3.97478 3.60407
# Velocity P-wave (km/s) = 7.21015 7.82695 7.52487
#
# Compressibility (1/GPa) = 0.01211605
#
# Stress axis : x y z
#
# Youngs Moduli (GPa) = 78.04588 126.57995 115.60079
#
# Poissons Ratio (x) = 0.50420 0.36526
# Poissons Ratio (y) = 0.31087 0.17119
# Poissons Ratio (z) = 0.24660 0.18745
#
# Static dielectric constant tensor:
#      x y z
#    x 1.785320 0.000010 -0.091040 
#    y 0.000010 1.811300 0.000050 
#    z -0.091040 0.000050 1.233110 
# 
# From -- ./inp_files/23472.got.cif
#   From: 2010.05.17/outbox.cif.g08.bks.cpg/sg15_12_cif.got.tgz:23472.got - 2010.06.03 18:47:42.
