data_PCOD9306310
_publ_section_title
;
Structure prediction by ZEFSAII (Michael W. Deem and Ramdas Pophale) SiO2 
 PCOD9306310
Probable space group: C 2/C
;
_chemical_formula_sum "Si O2"
_cell_formula_units_Z 40
_cell_length_a 11.490716
_cell_length_b 27.803908
_cell_length_c 8.442361
_cell_angle_alpha 90.000000
_cell_angle_beta 137.007822
_cell_angle_gamma 90.000000
_cell_volume 1839.232336
_symmetry_space_group_name_H-M "C 2/C"
_symmetry_group_IT_number 15
_symmetry_cell_setting 'monoclinic'
loop_
_space_group_symop_operation_xyz
x,y,z
-x,y,1/2-z
-x,-y,-z
x,-y,1/2+z
1/2+x,1/2+y,z
1/2-x,1/2+y,1/2-z
1/2-x,1/2-y,-z
1/2+x,1/2-y,1/2+z
loop_
_atom_site_type_symbol
_atom_site_label
_atom_site_fract_x
_atom_site_fract_y
_atom_site_fract_z
Si Si1 0.685787 0.880562 0.728544
Si Si2 0.139077 0.782754 0.271189
Si Si3 0.493837 0.445671 0.932631
Si Si4 0.644573 0.786469 0.506360
Si Si5 0.205866 0.620760 0.630171
O O1 0.733487 0.830814 0.685473
O O2 0.484571 0.889869 0.498103
O O3 0.816598 0.920919 0.805197
O O4 0.699981 0.878049 0.932788
O O5 0.250000 0.750000 0.500000
O O6 0.065840 0.746530 0.067667
O O7 0.237998 0.824595 0.279077
O O8 0.000000 0.805307 0.250000
O O9 0.500000 0.444857 0.750000
O O10 0.500000 0.500000 0.000000
O O11 0.651410 0.415265 0.162551
O O12 0.750000 0.750000 0.500000
O O13 0.500000 0.807452 0.250000
#
# Coordination Sequence:
#
# PCOD9306310 Si02
#       5
#     8   8   8   8   8
#     4  11  25  48  73 107 150 194 245 308 369 443
#     4  12  23  41  66 102 146 205 251 292 357 441
#     4  12  29  51  80 111 145 188 244 310 378 445
#     4  12  27  40  63 105 153 195 250 302 363 433
#     4  11  25  46  77 107 146 197 248 303 372 443
#
# _framework density 21.748204999999999
#
# number of rings (size 3 to 8) (size 9 to 14) (size 15 to 20)
#    0.000    0.400    2.000    6.600    8.400    0.800 
#    0.000    0.000    0.000    0.000    0.000    0.000 
#    0.000    0.000    0.000    0.000    0.000    0.000 
#
# Total GULP energy -111918.275249 kJ/mol
# GULP energy per Si atom -5595.913762 kJ/mol
# Density = 2.169870 g / cm^3
# Si number density = 21.748205 Si / 1000 Ang^3
#
#
#
# Elastic Constant Matrix: (Units=GPa)
#
#
# Indices 1 2 3 4 5 6 
#
# 1 128.3362 65.2917 48.6497 0.0000 12.0498 0.0000
# 2 65.2917 177.2497 78.6195 0.0000 17.1000 0.0000
# 3 48.6497 78.6195 137.2190 0.0000 -0.2490 0.0000
# 4 0.0000 0.0000 0.0000 44.8249 0.0000 -5.7646
# 5 12.0498 17.1000 -0.2490 0.0000 47.1426 0.0000
# 6 0.0000 0.0000 0.0000 -5.7646 0.0000 35.5822
#
#
#
# Elastic Compliance Matrix: (Units=1/GPa)
#
#
# Indices 1 2 3 4 5 6 
#
# 1 0.010068 -0.002637 -0.002061 0.000000 -0.001628 0.000000
# 2 -0.002637 0.008634 -0.004016 0.000000 -0.002479 0.000000
# 3 -0.002061 -0.004016 0.010323 0.000000 0.002038 0.000000
# 4 0.000000 0.000000 0.000000 0.022784 0.000000 0.003691
# 5 -0.001628 -0.002479 0.002038 0.000000 0.022538 0.000000
# 6 0.000000 0.000000 0.000000 0.003691 0.000000 0.028702
#
#
# Mechanical properties :
#
#
# Convention : Reuss Voigt Hill
#
# Bulk Modulus (GPa) = 86.24233 91.99185 89.11709
# Shear Modulus (GPa) = 40.21111 42.19288 41.20199
#
# Velocity S-wave (km/s) = 4.30459 4.40939 4.35731
# Velocity P-wave (km/s) = 8.02789 8.26523 8.14743
#
# Compressibility (1/GPa) = 0.01159523
#
# Stress axis : x y z
#
# Youngs Moduli (GPa) = 99.32410 115.82451 96.86873
#
# Poissons Ratio (x) = 0.30546 0.19969
# Poissons Ratio (y) = 0.26194 0.38904
# Poissons Ratio (z) = 0.20475 0.46517
#
# Static dielectric constant tensor:
#      x y z
#    x 1.854760 0.000000 -0.012440 
#    y 0.000000 1.791110 0.000000 
#    z -0.012440 0.000000 1.858570 
# 
# From -- ./inp_files/35463.got.cif
#   From: 2010.05.17/outbox.cif.g08.bks.cpg/sg15_18_cif.got.tgz:35463.got - 2010.06.03 18:47:42.
