data_PCOD9306223
_publ_section_title
;
Structure prediction by ZEFSAII (Michael W. Deem and Ramdas Pophale) SiO2 
 PCOD9306223
Probable space group: C 2/C
;
_chemical_formula_sum "Si O2"
_cell_formula_units_Z 44
_cell_length_a 28.049009
_cell_length_b 5.172031
_cell_length_c 12.321013
_cell_angle_alpha 90.000000
_cell_angle_beta 99.165557
_cell_angle_gamma 90.000000
_cell_volume 1764.592253
_symmetry_space_group_name_H-M "C 2/C"
_symmetry_group_IT_number 15
_symmetry_cell_setting 'monoclinic'
loop_
_space_group_symop_operation_xyz
x,y,z
-x,y,1/2-z
-x,-y,-z
x,-y,1/2+z
1/2+x,1/2+y,z
1/2-x,1/2+y,1/2-z
1/2-x,1/2-y,-z
1/2+x,1/2-y,1/2+z
loop_
_atom_site_type_symbol
_atom_site_label
_atom_site_fract_x
_atom_site_fract_y
_atom_site_fract_z
Si Si1 0.319183 0.896992 0.704670
Si Si2 0.089627 0.397207 0.905214
Si Si3 0.864336 0.804650 0.429798
Si Si4 0.000000 0.416823 0.250000
Si Si5 0.452124 0.580154 0.416834
Si Si6 0.208838 0.085440 0.424392
O O1 0.368524 0.819230 0.660335
O O2 0.329899 0.857097 0.835740
O O3 0.282778 0.680455 0.640070
O O4 0.309364 0.194431 0.668363
O O5 0.038148 0.416588 0.829515
O O6 0.107765 0.666425 0.960996
O O7 0.080141 0.236451 0.009349
O O8 0.827163 0.977085 0.486942
O O9 0.911014 0.875540 0.372796
O O10 0.030172 0.241310 0.178457
O O11 0.500000 0.500000 0.500000
O O12 0.250000 0.250000 0.500000
#
# Coordination Sequence:
#
# PCOD9306223 Si02
#       6
#     8   8   8   4   8   8
#     4  11  26  44  78 101 144 187 226 296 369 420
#     4  11  25  46  62 102 141 189 244 296 346 418
#     4  11  26  45  68 102 142 183 236 298 353 425
#     4  12  26  40  68  96 144 204 246 294 354 418
#     4  12  26  42  65  97 142 188 249 292 349 418
#     4  11  26  50  75 108 139 178 236 296 366 445
#
# _framework density 24.934939
#
# number of rings (size 3 to 8) (size 9 to 14) (size 15 to 20)
#    0.000    0.727    3.636    2.182   12.727    1.455 
#    0.000    0.000    0.000    0.000    0.000    0.000 
#    0.000    0.000    0.000    0.000    0.000    0.000 
#
# Total GULP energy -122775.243340 kJ/mol
# GULP energy per Si atom -5580.692879 kJ/mol
# Density = 2.487819 g / cm^3
# Si number density = 24.934939 Si / 1000 Ang^3
#
#
#
# Elastic Constant Matrix: (Units=GPa)
#
#
# Indices 1 2 3 4 5 6 
#
# 1 64.5511 -6.1146 2.6334 0.0000 2.6441 0.0000
# 2 -6.1146 45.1253 1.0855 0.0000 -5.0681 0.0000
# 3 2.6334 1.0855 79.2822 0.0000 -1.0988 0.0000
# 4 0.0000 0.0000 0.0000 9.0106 0.0000 -0.5151
# 5 2.6441 -5.0681 -1.0988 0.0000 35.1187 0.0000
# 6 0.0000 0.0000 0.0000 -0.5151 0.0000 32.7151
#
#
#
# Elastic Compliance Matrix: (Units=1/GPa)
#
#
# Indices 1 2 3 4 5 6 
#
# 1 0.015746 0.002045 -0.000564 0.000000 -0.000908 0.000000
# 2 0.002045 0.022797 -0.000337 0.000000 0.003125 0.000000
# 3 -0.000564 -0.000337 0.012642 0.000000 0.000389 0.000000
# 4 0.000000 0.000000 0.000000 0.111080 0.000000 0.001749
# 5 -0.000908 0.003125 0.000389 0.000000 0.029006 0.000000
# 6 0.000000 0.000000 0.000000 0.001749 0.000000 0.030594
#
#
# Mechanical properties :
#
#
# Convention : Reuss Voigt Hill
#
# Bulk Modulus (GPa) = 18.70076 20.46303 19.58189
# Shear Modulus (GPa) = 21.06151 28.12585 24.59368
#
# Velocity S-wave (km/s) = 2.90945 3.36217 3.14397
# Velocity P-wave (km/s) = 4.33620 4.82666 4.58799
#
# Compressibility (1/GPa) = 0.05347377
#
# Stress axis : x y z
#
# Youngs Moduli (GPa) = 63.51016 43.86594 79.10200
#
# Poissons Ratio (x) = -0.08971 0.04458
# Poissons Ratio (y) = -0.12989 0.02664
# Poissons Ratio (z) = 0.03579 0.01477
#
# Static dielectric constant tensor:
#      x y z
#    x 2.068710 0.000000 -0.153510 
#    y 0.000000 1.984300 0.000000 
#    z -0.153510 0.000000 2.039580 
# 
# From -- ./inp_files/124978.got.cif
#   From: 2010.05.17/outbox.cif.g08.bks.cpg/sg15_63_cif.got.tgz:124978.got - 2010.06.03 18:47:42.
