data_PCOD9306672
_publ_section_title
;
Structure prediction by ZEFSAII (Michael W. Deem and Ramdas Pophale) SiO2 
 PCOD9306672
Probable space group: C 2/C
;
_chemical_formula_sum "Si O2"
_cell_formula_units_Z 36
_cell_length_a 5.167971
_cell_length_b 20.896861
_cell_length_c 13.953618
_cell_angle_alpha 90.000000
_cell_angle_beta 86.218932
_cell_angle_gamma 90.000000
_cell_volume 1503.632131
_symmetry_space_group_name_H-M "C 2/C"
_symmetry_group_IT_number 15
_symmetry_cell_setting 'monoclinic'
loop_
_space_group_symop_operation_xyz
x,y,z
-x,y,1/2-z
-x,-y,-z
x,-y,1/2+z
1/2+x,1/2+y,z
1/2-x,1/2+y,1/2-z
1/2-x,1/2-y,-z
1/2+x,1/2-y,1/2+z
loop_
_atom_site_type_symbol
_atom_site_label
_atom_site_fract_x
_atom_site_fract_y
_atom_site_fract_z
Si Si1 0.500000 0.867079 0.750000
Si Si2 0.500000 0.447989 0.750000
Si Si3 0.443876 0.211080 0.065642
Si Si4 0.717753 0.659718 0.598406
Si Si5 0.500000 0.917513 0.250000
Si Si6 0.923589 0.037409 0.596840
O O1 0.756516 0.907807 0.715538
O O2 0.618934 0.826469 0.835727
O O3 0.598949 0.497064 0.667045
O O4 0.632434 0.266890 0.101079
O O5 0.250000 0.250000 0.000000
O O6 0.574990 0.159673 0.992042
O O7 0.814966 0.631255 0.695855
O O8 0.493070 0.610914 0.576198
O O9 0.344906 0.956205 0.336689
O O10 0.000000 0.000000 0.500000
#
# Coordination Sequence:
#
# PCOD9306672 Si02
#       6
#     4   4   8   8   4   8
#     4  12  31  49  78 113 162 211 270 342 418 492
#     4  12  28  52  74 117 161 214 268 334 422 488
#     4  11  28  49  77 113 157 208 272 342 414 495
#     4  11  26  47  76 113 151 206 269 335 412 490
#     4  12  25  47  78 118 153 213 274 328 420 490
#     4  12  27  47  78 113 162 209 274 337 405 498
#
# _framework density 23.942025999999998
#
# number of rings (size 3 to 8) (size 9 to 14) (size 15 to 20)
#    0.000    0.444    2.222    3.333   18.667    0.889 
#    0.000    0.000    0.000    0.000    0.000    0.000 
#    0.000    0.000    0.000    0.000    0.000    0.000 
#
# Total GULP energy -100338.113398 kJ/mol
# GULP energy per Si atom -5574.339633 kJ/mol
# Density = 2.388753 g / cm^3
# Si number density = 23.942026 Si / 1000 Ang^3
#
#
#
# Elastic Constant Matrix: (Units=GPa)
#
#
# Indices 1 2 3 4 5 6 
#
# 1 108.0515 31.3905 36.9255 0.0000 -12.7210 0.0000
# 2 31.3905 85.6923 52.5876 0.0000 -10.3784 0.0000
# 3 36.9255 52.5876 147.9766 0.0000 -18.9141 0.0000
# 4 0.0000 0.0000 0.0000 50.1931 0.0000 -7.9193
# 5 -12.7210 -10.3784 -18.9141 0.0000 34.9960 0.0000
# 6 0.0000 0.0000 0.0000 -7.9193 0.0000 23.5443
#
#
#
# Elastic Compliance Matrix: (Units=1/GPa)
#
#
# Indices 1 2 3 4 5 6 
#
# 1 0.010829 -0.002825 -0.001399 0.000000 0.002343 0.000000
# 2 -0.002825 0.015753 -0.004756 0.000000 0.001074 0.000000
# 3 -0.001399 -0.004756 0.009187 0.000000 0.003046 0.000000
# 4 0.000000 0.000000 0.000000 0.021040 0.000000 0.007077
# 5 0.002343 0.001074 0.003046 0.000000 0.031391 0.000000
# 6 0.000000 0.000000 0.000000 0.007077 0.000000 0.044853
#
#
# Mechanical properties :
#
#
# Convention : Reuss Voigt Hill
#
# Bulk Modulus (GPa) = 56.15032 64.83640 60.49336
# Shear Modulus (GPa) = 31.85736 36.46781 34.16258
#
# Velocity S-wave (km/s) = 3.65170 3.90702 3.78151
# Velocity P-wave (km/s) = 6.42522 6.89147 6.66243
#
# Compressibility (1/GPa) = 0.01780934
#
# Stress axis : x y z
#
# Youngs Moduli (GPa) = 92.34146 63.47881 108.85531
#
# Poissons Ratio (x) = 0.17931 0.15230
# Poissons Ratio (y) = 0.26084 0.51773
# Poissons Ratio (z) = 0.12919 0.30192
#
# Static dielectric constant tensor:
#      x y z
#    x 1.848920 0.000000 0.085670 
#    y 0.000000 1.897820 0.000000 
#    z 0.085670 0.000000 2.037490 
# 
# From -- ./inp_files/72642.got.cif
#   From: 2010.05.17/outbox.cif.g08.bks.cpg/sg15_37_cif.got.tgz:72642.got - 2010.06.03 18:47:42.
