data_PCOD9306060
_publ_section_title
;
Structure prediction by ZEFSAII (Michael W. Deem and Ramdas Pophale) SiO2 
 PCOD9306060
Probable space group: C 2/C
;
_chemical_formula_sum "Si O2"
_cell_formula_units_Z 48
_cell_length_a 18.952182
_cell_length_b 11.722108
_cell_length_c 11.427892
_cell_angle_alpha 90.000000
_cell_angle_beta 114.805391
_cell_angle_gamma 90.000000
_cell_volume 2304.578916
_symmetry_space_group_name_H-M "C 2/C"
_symmetry_group_IT_number 15
_symmetry_cell_setting 'monoclinic'
loop_
_space_group_symop_operation_xyz
x,y,z
-x,y,1/2-z
-x,-y,-z
x,-y,1/2+z
1/2+x,1/2+y,z
1/2-x,1/2+y,1/2-z
1/2-x,1/2-y,-z
1/2+x,1/2-y,1/2+z
loop_
_atom_site_type_symbol
_atom_site_label
_atom_site_fract_x
_atom_site_fract_y
_atom_site_fract_z
Si Si1 0.921354 0.156207 0.767036
Si Si2 0.352690 0.582992 0.163699
Si Si3 0.685070 0.095394 0.936823
Si Si4 0.438234 0.736507 0.043360
Si Si5 0.883635 0.718346 0.833414
Si Si6 0.328124 0.825891 0.553852
O O1 0.934590 0.178902 0.913137
O O2 0.883639 0.269209 0.687699
O O3 0.000000 0.133671 0.750000
O O4 0.865932 0.048891 0.699867
O O5 0.359242 0.651629 0.289361
O O6 0.271887 0.614017 0.044805
O O7 0.417099 0.638438 0.122832
O O8 0.664285 0.145067 0.794565
O O9 0.679186 0.959427 0.928174
O O10 0.624643 0.162690 0.979093
O O11 0.523969 0.787235 0.122365
O O12 0.864439 0.685962 0.950786
O O13 0.250000 0.750000 0.500000
#
# Coordination Sequence:
#
# PCOD9306060 Si02
#       6
#     8   8   8   8   8   8
#     4  12  26  45  71 105 140 181 234 291 351 412
#     4  11  25  43  73 102 138 185 231 289 352 408
#     4  11  26  45  72 101 138 189 228 290 351 410
#     4  11  25  47  70 102 141 185 235 284 349 422
#     4  11  25  47  71 101 141 183 237 285 346 419
#     4  12  28  45  68 103 139 183 235 289 348 412
#
# _framework density 20.828099999999999
#
# number of rings (size 3 to 8) (size 9 to 14) (size 15 to 20)
#    0.000    0.667    3.333    5.000    9.333    3.333 
#    0.000    0.000    0.000    0.000    0.000    0.000 
#    0.000    0.000    0.000    0.000    0.000    0.000 
#
# Total GULP energy -134219.432848 kJ/mol
# GULP energy per Si atom -5592.476369 kJ/mol
# Density = 2.078069 g / cm^3
# Si number density = 20.828100 Si / 1000 Ang^3
#
#
#
# Elastic Constant Matrix: (Units=GPa)
#
#
# Indices 1 2 3 4 5 6 
#
# 1 52.2065 19.9333 -0.7429 0.0000 23.8556 0.0000
# 2 19.9333 117.8557 11.3800 0.0000 -0.6366 0.0000
# 3 -0.7429 11.3800 68.7694 0.0000 7.9352 0.0000
# 4 0.0000 0.0000 0.0000 26.2747 0.0000 10.0620
# 5 23.8556 -0.6366 7.9352 0.0000 35.6227 0.0000
# 6 0.0000 0.0000 0.0000 10.0620 0.0000 15.8938
#
#
#
# Elastic Compliance Matrix: (Units=1/GPa)
#
#
# Indices 1 2 3 4 5 6 
#
# 1 0.031515 -0.005821 0.003850 0.000000 -0.022067 0.000000
# 2 -0.005821 0.009706 -0.002195 0.000000 0.004561 0.000000
# 3 0.003850 -0.002195 0.015651 0.000000 -0.006104 0.000000
# 4 0.000000 0.000000 0.000000 0.050239 0.000000 -0.031805
# 5 -0.022067 0.004561 -0.006104 0.000000 0.044291 0.000000
# 6 0.000000 0.000000 0.000000 -0.031805 0.000000 0.083053
#
#
# Mechanical properties :
#
#
# Convention : Reuss Voigt Hill
#
# Bulk Modulus (GPa) = 20.60201 33.33026 26.96614
# Shear Modulus (GPa) = 19.30743 29.44232 24.37488
#
# Velocity S-wave (km/s) = 3.04795 3.76385 3.42466
# Velocity P-wave (km/s) = 4.72225 5.90982 5.34910
#
# Compressibility (1/GPa) = 0.04853895
#
# Stress axis : x y z
#
# Youngs Moduli (GPa) = 31.73043 103.02768 63.89564
#
# Poissons Ratio (x) = 0.59975 -0.24600
# Poissons Ratio (y) = 0.18471 0.14027
# Poissons Ratio (z) = -0.12216 0.22618
#
# Static dielectric constant tensor:
#      x y z
#    x 1.762900 0.000000 0.021580 
#    y 0.000000 1.664260 0.000000 
#    z 0.021580 0.000000 1.720250 
# 
# From -- ./inp_files/104251.got.cif
#   From: 2010.05.17/outbox.cif.g08.bks.cpg/sg15_53_cif.got.tgz:104251.got - 2010.06.03 18:47:42.
