data_PCOD9306384
_publ_section_title
;
Structure prediction by ZEFSAII (Michael W. Deem and Ramdas Pophale) SiO2 
 PCOD9306384
Probable space group: C 2/C
;
_chemical_formula_sum "Si O2"
_cell_formula_units_Z 40
_cell_length_a 15.367607
_cell_length_b 6.124792
_cell_length_c 19.584337
_cell_angle_alpha 90.000000
_cell_angle_beta 64.544301
_cell_angle_gamma 90.000000
_cell_volume 1664.388550
_symmetry_space_group_name_H-M "C 2/C"
_symmetry_group_IT_number 15
_symmetry_cell_setting 'monoclinic'
loop_
_space_group_symop_operation_xyz
x,y,z
-x,y,1/2-z
-x,-y,-z
x,-y,1/2+z
1/2+x,1/2+y,z
1/2-x,1/2+y,1/2-z
1/2-x,1/2-y,-z
1/2+x,1/2-y,1/2+z
loop_
_atom_site_type_symbol
_atom_site_label
_atom_site_fract_x
_atom_site_fract_y
_atom_site_fract_z
Si Si1 0.520618 0.471983 0.603667
Si Si2 0.224375 0.461085 0.842077
Si Si3 0.899142 0.338053 0.321478
Si Si4 0.112974 0.736794 0.263916
Si Si5 0.918937 0.309803 0.026456
O O1 0.584570 0.272161 0.610513
O O2 0.468194 0.598300 0.682969
O O3 0.575552 0.657560 0.541969
O O4 0.442462 0.359938 0.580131
O O5 0.297972 0.263414 0.831031
O O6 0.134449 0.410317 0.823128
O O7 0.290090 0.631118 0.780535
O O8 0.180864 0.569162 0.924424
O O9 0.896935 0.591301 0.300787
O O10 0.000000 0.276352 0.250000
O O11 0.000000 0.500000 0.000000
#
# Coordination Sequence:
#
# PCOD9306384 Si02
#       5
#     8   8   8   8   8
#     4  11  26  48  73 111 144 195 247 299 376 434
#     4  12  24  43  72 108 136 199 248 299 365 439
#     4  12  27  42  70 109 147 186 242 314 364 422
#     4  12  24  45  74 104 149 185 253 306 362 433
#     4  11  25  47  79 102 151 197 239 302 373 451
#
# _framework density 24.03285
#
# number of rings (size 3 to 8) (size 9 to 14) (size 15 to 20)
#    0.000    0.400    6.000    2.400    2.800    0.800 
#    0.000    2.000    0.000    0.000    0.000    0.000 
#    0.000    0.000    0.000    0.000    0.000    0.000 
#
# Total GULP energy -111708.370761 kJ/mol
# GULP energy per Si atom -5585.418538 kJ/mol
# Density = 2.397815 g / cm^3
# Si number density = 24.032850 Si / 1000 Ang^3
#
#
#
# Elastic Constant Matrix: (Units=GPa)
#
#
# Indices 1 2 3 4 5 6 
#
# 1 56.7450 23.1472 22.2058 0.0001 6.6405 0.0003
# 2 23.1472 87.7478 32.3243 0.0002 8.5317 0.0005
# 3 22.2058 32.3243 73.3433 0.0000 -5.0050 0.0000
# 4 0.0001 0.0002 0.0000 49.2927 -0.0001 7.2656
# 5 6.6405 8.5317 -5.0050 -0.0001 32.4729 -0.0001
# 6 0.0003 0.0005 0.0000 7.2656 -0.0001 50.1831
#
#
#
# Elastic Compliance Matrix: (Units=1/GPa)
#
#
# Indices 1 2 3 4 5 6 
#
# 1 0.021582 -0.003283 -0.005386 0.000000 -0.004381 0.000000
# 2 -0.003283 0.014803 -0.005811 0.000000 -0.004113 0.000000
# 3 -0.005386 -0.005811 0.018197 0.000000 0.005433 0.000000
# 4 0.000000 0.000000 0.000000 0.020729 0.000000 -0.003001
# 5 -0.004381 -0.004113 0.005433 0.000000 0.033609 0.000000
# 6 0.000000 0.000000 0.000000 -0.003001 0.000000 0.020362
#
#
# Mechanical properties :
#
#
# Convention : Reuss Voigt Hill
#
# Bulk Modulus (GPa) = 39.02916 41.46562 40.24739
# Shear Modulus (GPa) = 29.97907 35.73368 32.85638
#
# Velocity S-wave (km/s) = 3.53572 3.86018 3.70150
# Velocity P-wave (km/s) = 5.73965 6.09583 5.92042
#
# Compressibility (1/GPa) = 0.02562187
#
# Stress axis : x y z
#
# Youngs Moduli (GPa) = 46.33393 67.55468 54.95412
#
# Poissons Ratio (x) = 0.22179 0.29601
# Poissons Ratio (y) = 0.15212 0.31932
# Poissons Ratio (z) = 0.24958 0.39254
#
# Static dielectric constant tensor:
#      x y z
#    x 1.816630 0.000000 0.048210 
#    y 0.000000 1.950780 0.000000 
#    z 0.048210 0.000000 1.937670 
# 
# From -- ./inp_files/246199.got.cif
#   From: 2010.05.17/outbox.cif.g08.bks.cpg/sg15_124_cif.got.tgz:246199.got - 2010.06.03 18:47:42.
