data_PCOD9306261
_publ_section_title
;
Structure prediction by ZEFSAII (Michael W. Deem and Ramdas Pophale) SiO2 
 PCOD9306261
Probable space group: C 2/C
;
_chemical_formula_sum "Si O2"
_cell_formula_units_Z 32
_cell_length_a 17.931193
_cell_length_b 8.276967
_cell_length_c 8.790966
_cell_angle_alpha 90.000000
_cell_angle_beta 102.656077
_cell_angle_gamma 90.000000
_cell_volume 1273.018036
_symmetry_space_group_name_H-M "C 2/C"
_symmetry_group_IT_number 15
_symmetry_cell_setting 'monoclinic'
loop_
_space_group_symop_operation_xyz
x,y,z
-x,y,1/2-z
-x,-y,-z
x,-y,1/2+z
1/2+x,1/2+y,z
1/2-x,1/2+y,1/2-z
1/2-x,1/2-y,-z
1/2+x,1/2-y,1/2+z
loop_
_atom_site_type_symbol
_atom_site_label
_atom_site_fract_x
_atom_site_fract_y
_atom_site_fract_z
Si Si1 0.804516 0.356555 0.311830
Si Si2 0.550601 0.616958 0.418564
Si Si3 0.296246 0.480549 0.962353
Si Si4 0.555454 0.092487 0.136860
O O1 0.769567 0.428619 0.450955
O O2 0.740222 0.378356 0.155330
O O3 0.817936 0.171072 0.363072
O O4 0.876152 0.468407 0.294579
O O5 0.500000 0.667839 0.250000
O O6 0.500000 0.500000 0.500000
O O7 0.627974 0.524623 0.411221
O O8 0.579077 0.756862 0.544564
O O9 0.500000 0.143920 0.250000
O O10 0.500000 0.000000 0.000000
#
# Coordination Sequence:
#
# PCOD9306261 Si02
#       4
#     8   8   8   8
#     4  11  25  46  73 104 139 179 230 290 351 420
#     4  12  26  45  71 104 144 189 237 291 353 420
#     4  11  25  46  72 104 139 179 230 289 352 418
#     4  12  26  45  70 104 144 187 237 291 352 423
#
# _framework density 25.137114
#
# number of rings (size 3 to 8) (size 9 to 14) (size 15 to 20)
#    0.000    0.500    0.000    7.500    0.000   14.000 
#    0.000    2.500    0.000    0.000    0.000    0.000 
#    0.000    0.000    0.000    0.000    0.000    0.000 
#
# Total GULP energy -89651.388041 kJ/mol
# GULP energy per Si atom -5603.211753 kJ/mol
# Density = 2.507990 g / cm^3
# Si number density = 25.137114 Si / 1000 Ang^3
#
#
#
# Elastic Constant Matrix: (Units=GPa)
#
#
# Indices 1 2 3 4 5 6 
#
# 1 152.3328 47.8726 45.0817 0.0000 17.9229 0.0000
# 2 47.8726 63.5898 25.0863 0.0000 -5.3306 0.0000
# 3 45.0817 25.0863 125.8188 0.0000 2.6853 0.0000
# 4 0.0000 0.0000 0.0000 38.2410 0.0000 -0.3797
# 5 17.9229 -5.3306 2.6853 0.0000 49.0690 0.0000
# 6 0.0000 0.0000 0.0000 -0.3797 0.0000 29.6875
#
#
#
# Elastic Compliance Matrix: (Units=1/GPa)
#
#
# Indices 1 2 3 4 5 6 
#
# 1 0.009863 -0.006971 -0.002053 0.000000 -0.004247 0.000000
# 2 -0.006971 0.022202 -0.002037 0.000000 0.005070 0.000000
# 3 -0.002053 -0.002037 0.009089 0.000000 0.000031 0.000000
# 4 0.000000 0.000000 0.000000 0.026153 0.000000 0.000335
# 5 -0.004247 0.005070 0.000031 0.000000 0.022480 0.000000
# 6 0.000000 0.000000 0.000000 0.000335 0.000000 0.033689
#
#
# Mechanical properties :
#
#
# Convention : Reuss Voigt Hill
#
# Bulk Modulus (GPa) = 52.54530 64.20253 58.37392
# Shear Modulus (GPa) = 32.90710 38.31288 35.60999
#
# Velocity S-wave (km/s) = 3.62208 3.90828 3.76790
# Velocity P-wave (km/s) = 6.20012 6.77957 6.49631
#
# Compressibility (1/GPa) = 0.01903120
#
# Stress axis : x y z
#
# Youngs Moduli (GPa) = 101.39222 45.04003 110.02079
#
# Poissons Ratio (x) = 0.31397 0.22591
# Poissons Ratio (y) = 0.70680 0.22414
# Poissons Ratio (z) = 0.20819 0.09176
#
# Static dielectric constant tensor:
#      x y z
#    x 1.910780 0.000000 -0.105550 
#    y 0.000000 3.634000 0.000000 
#    z -0.105550 0.000000 2.145810 
# 
# From -- ./inp_files/53471.got.cif
#   From: 2010.05.17/outbox.cif.g08.bks.cpg/sg15_27_cif.got.tgz:53471.got - 2010.06.03 18:47:42.
