data_PCOD9306472
_publ_section_title
;
Structure prediction by ZEFSAII (Michael W. Deem and Ramdas Pophale) SiO2 
 PCOD9306472
Probable space group: C 2/C
;
_chemical_formula_sum "Si O2"
_cell_formula_units_Z 44
_cell_length_a 11.224367
_cell_length_b 8.798963
_cell_length_c 23.373047
_cell_angle_alpha 90.000000
_cell_angle_beta 56.383816
_cell_angle_gamma 90.000000
_cell_volume 1922.343932
_symmetry_space_group_name_H-M "C 2/C"
_symmetry_group_IT_number 15
_symmetry_cell_setting 'monoclinic'
loop_
_space_group_symop_operation_xyz
x,y,z
-x,y,1/2-z
-x,-y,-z
x,-y,1/2+z
1/2+x,1/2+y,z
1/2-x,1/2+y,1/2-z
1/2-x,1/2-y,-z
1/2+x,1/2-y,1/2+z
loop_
_atom_site_type_symbol
_atom_site_label
_atom_site_fract_x
_atom_site_fract_y
_atom_site_fract_z
Si Si1 0.339981 0.105510 0.780663
Si Si2 0.667914 0.587573 0.025705
Si Si3 0.000000 0.838577 0.250000
Si Si4 0.230360 0.541448 0.881301
Si Si5 0.889220 0.637635 0.175100
Si Si6 0.169217 0.893725 0.913750
O O1 0.500000 0.156826 0.750000
O O2 0.238174 0.246748 0.802035
O O3 0.353972 0.011619 0.719549
O O4 0.269882 0.987994 0.843884
O O5 0.706774 0.529470 0.077976
O O6 0.496065 0.589661 0.061983
O O7 0.750000 0.750000 0.000000
O O8 0.708253 0.468544 0.964580
O O9 0.862539 0.939936 0.301396
O O10 0.982045 0.734316 0.197048
O O11 0.098268 0.439022 0.891588
O O12 0.189405 0.714123 0.905832
#
# Coordination Sequence:
#
# PCOD9306472 Si02
#       6
#     8   8   4   8   8   8
#     4  12  24  42  70 104 142 184 233 296 360 430
#     4  11  27  48  75 104 143 195 243 295 352 428
#     4  12  24  44  68 106 148 182 230 300 366 424
#     4  12  26  44  73 105 144 187 236 294 362 423
#     4  12  24  40  66 104 141 187 228 287 360 427
#     4  11  25  49  71 105 143 187 242 292 356 431
#
# _framework density 22.888725000000001
#
# number of rings (size 3 to 8) (size 9 to 14) (size 15 to 20)
#    0.000    0.364    4.545    2.727    1.273    8.000 
#    0.000    0.000    0.000    0.000    0.000    0.000 
#    0.000    0.000    0.000    0.000    0.000    0.000 
#
# Total GULP energy -122766.190046 kJ/mol
# GULP energy per Si atom -5580.281366 kJ/mol
# Density = 2.283663 g / cm^3
# Si number density = 22.888725 Si / 1000 Ang^3
#
#
#
# Elastic Constant Matrix: (Units=GPa)
#
#
# Indices 1 2 3 4 5 6 
#
# 1 130.1638 -0.2169 -5.4057 0.0000 23.8384 0.0000
# 2 -0.2169 203.6344 108.4439 0.0000 -12.6540 0.0000
# 3 -5.4057 108.4439 175.0015 0.0000 -3.2705 0.0000
# 4 0.0000 0.0000 0.0000 40.0591 0.0000 16.3506
# 5 23.8384 -12.6540 -3.2705 0.0000 33.2543 0.0000
# 6 0.0000 0.0000 0.0000 16.3506 0.0000 61.7281
#
#
#
# Elastic Compliance Matrix: (Units=1/GPa)
#
#
# Indices 1 2 3 4 5 6 
#
# 1 0.008916 -0.000719 0.000598 0.000000 -0.006607 0.000000
# 2 -0.000719 0.007575 -0.004661 0.000000 0.002940 0.000000
# 3 0.000598 -0.004661 0.008596 0.000000 -0.001357 0.000000
# 4 0.000000 0.000000 0.000000 0.027989 0.000000 -0.007414
# 5 -0.006607 0.002940 -0.001357 0.000000 0.035792 0.000000
# 6 0.000000 0.000000 0.000000 -0.007414 0.000000 0.018164
#
#
# Mechanical properties :
#
#
# Convention : Reuss Voigt Hill
#
# Bulk Modulus (GPa) = 64.42828 79.38247 71.90537
# Shear Modulus (GPa) = 41.06032 54.07353 47.56692
#
# Velocity S-wave (km/s) = 4.24005 4.86578 4.56365
# Velocity P-wave (km/s) = 7.22359 8.14401 7.69757
#
# Compressibility (1/GPa) = 0.01552113
#
# Stress axis : x y z
#
# Youngs Moduli (GPa) = 112.15558 132.01277 116.33524
#
# Poissons Ratio (x) = 0.09496 -0.06953
# Poissons Ratio (y) = 0.08068 0.54228
# Poissons Ratio (z) = -0.06704 0.61535
#
# Static dielectric constant tensor:
#      x y z
#    x 1.826540 0.000000 -0.009520 
#    y 0.000000 1.808930 0.000000 
#    z -0.009520 0.000000 1.891810 
# 
# From -- ./inp_files/267976.got.cif
#   From: 2010.05.17/outbox.cif.g08.bks.cpg/sg15_134_cif.got.tgz:267976.got - 2010.06.03 18:47:42.
