data_PCOD9306071
_publ_section_title
;
Structure prediction by ZEFSAII (Michael W. Deem and Ramdas Pophale) SiO2 
 PCOD9306071
Probable space group: C 2/C
;
_chemical_formula_sum "Si O2"
_cell_formula_units_Z 44
_cell_length_a 7.950029
_cell_length_b 7.104170
_cell_length_c 30.350898
_cell_angle_alpha 90.000000
_cell_angle_beta 79.026265
_cell_angle_gamma 90.000000
_cell_volume 1682.824518
_symmetry_space_group_name_H-M "C 2/C"
_symmetry_group_IT_number 15
_symmetry_cell_setting 'monoclinic'
loop_
_space_group_symop_operation_xyz
x,y,z
-x,y,1/2-z
-x,-y,-z
x,-y,1/2+z
1/2+x,1/2+y,z
1/2-x,1/2+y,1/2-z
1/2-x,1/2-y,-z
1/2+x,1/2-y,1/2+z
loop_
_atom_site_type_symbol
_atom_site_label
_atom_site_fract_x
_atom_site_fract_y
_atom_site_fract_z
Si Si1 0.500945 0.488749 0.125522
Si Si2 0.353702 0.448085 0.545322
Si Si3 0.536334 0.908569 0.841710
Si Si4 0.141059 0.507482 0.933833
Si Si5 0.250000 0.250000 0.000000
Si Si6 0.417584 0.263531 0.801387
O O1 0.356074 0.482745 0.095920
O O2 0.548473 0.292430 0.145432
O O3 0.656635 0.540203 0.085976
O O4 0.474947 0.633168 0.165781
O O5 0.500000 0.500000 0.500000
O O6 0.353073 0.222538 0.549110
O O7 0.199939 0.560102 0.530804
O O8 0.726579 0.849888 0.814532
O O9 0.560008 0.994705 0.889344
O O10 0.435441 0.045188 0.814139
O O11 0.119629 0.329442 0.966911
O O12 0.500000 0.295376 0.750000
#
# Coordination Sequence:
#
# PCOD9306071 Si02
#       6
#     8   8   8   8   4   8
#     4  11  25  45  72 102 147 194 244 316 377 454
#     4  12  25  42  65  98 142 192 248 302 366 445
#     4  11  26  48  78 108 150 196 241 320 385 458
#     4  11  25  44  66 102 144 191 253 303 372 449
#     4  12  24  40  62  98 136 198 238 296 364 436
#     4  11  28  50  79 112 147 191 258 308 396 466
#
# _framework density 26.146518
#
# number of rings (size 3 to 8) (size 9 to 14) (size 15 to 20)
#    0.000    0.727    5.455    0.545    5.091    2.909 
#    0.000    0.000    0.000    0.000    0.000    0.000 
#    0.000    0.000    0.000    0.000    0.000    0.000 
#
# Total GULP energy -122557.629566 kJ/mol
# GULP energy per Si atom -5570.801344 kJ/mol
# Density = 2.608701 g / cm^3
# Si number density = 26.146518 Si / 1000 Ang^3
#
#
#
# Elastic Constant Matrix: (Units=GPa)
#
#
# Indices 1 2 3 4 5 6 
#
# 1 39.9632 3.3807 25.2499 0.0000 -18.2116 0.0000
# 2 3.3807 170.8368 55.8866 0.0000 -7.9181 0.0000
# 3 25.2499 55.8866 128.8829 0.0000 -27.3473 0.0000
# 4 0.0000 0.0000 0.0000 42.0547 0.0000 0.9327
# 5 -18.2116 -7.9181 -27.3473 0.0000 29.1440 0.0000
# 6 0.0000 0.0000 0.0000 0.9327 0.0000 37.5883
#
#
#
# Elastic Compliance Matrix: (Units=1/GPa)
#
#
# Indices 1 2 3 4 5 6 
#
# 1 0.036051 0.001334 -0.003476 0.000000 0.019628 0.000000
# 2 0.001334 0.006902 -0.003345 0.000000 -0.000431 0.000000
# 3 -0.003476 -0.003345 0.011533 0.000000 0.007741 0.000000
# 4 0.000000 0.000000 0.000000 0.023792 0.000000 -0.000590
# 5 0.019628 -0.000431 0.007741 0.000000 0.053724 0.000000
# 6 0.000000 0.000000 0.000000 -0.000590 0.000000 0.026619
#
#
# Mechanical properties :
#
#
# Convention : Reuss Voigt Hill
#
# Bulk Modulus (GPa) = 22.98327 56.52415 39.75371
# Shear Modulus (GPa) = 27.15907 38.76846 32.96376
#
# Velocity S-wave (km/s) = 3.22642 3.85481 3.55453
# Velocity P-wave (km/s) = 4.76330 6.44034 5.66423
#
# Compressibility (1/GPa) = 0.04350991
#
# Stress axis : x y z
#
# Youngs Moduli (GPa) = 27.73814 144.89482 86.70622
#
# Poissons Ratio (x) = -0.19323 0.30142
# Poissons Ratio (y) = -0.03699 0.29006
# Poissons Ratio (z) = 0.09643 0.48472
#
# Static dielectric constant tensor:
#      x y z
#    x 2.185190 0.000000 -0.068010 
#    y 0.000000 2.452530 0.000000 
#    z -0.068010 0.000000 2.027040 
# 
# From -- ./inp_files/309420.got.cif
#   From: 2010.05.17/outbox.cif.g08.bks.cpg/sg15_155_cif.got.tgz:309420.got - 2010.06.03 18:47:42.
