data_PCOD9306997
_publ_section_title
;
Structure prediction by ZEFSAII (Michael W. Deem and Ramdas Pophale) SiO2 
 PCOD9306997
Probable space group: C 2/C
;
_chemical_formula_sum "Si O2"
_cell_formula_units_Z 44
_cell_length_a 11.545721
_cell_length_b 9.444424
_cell_length_c 15.438469
_cell_angle_alpha 90.000000
_cell_angle_beta 107.734808
_cell_angle_gamma 90.000000
_cell_volume 1603.448739
_symmetry_space_group_name_H-M "C 2/C"
_symmetry_group_IT_number 15
_symmetry_cell_setting 'monoclinic'
loop_
_space_group_symop_operation_xyz
x,y,z
-x,y,1/2-z
-x,-y,-z
x,-y,1/2+z
1/2+x,1/2+y,z
1/2-x,1/2+y,1/2-z
1/2-x,1/2-y,-z
1/2+x,1/2-y,1/2+z
loop_
_atom_site_type_symbol
_atom_site_label
_atom_site_fract_x
_atom_site_fract_y
_atom_site_fract_z
Si Si1 0.608300 0.114769 0.512608
Si Si2 0.830972 0.487177 0.301761
Si Si3 0.393696 0.646383 0.160968
Si Si4 0.734681 0.915771 0.410787
Si Si5 0.000000 0.323247 0.750000
Si Si6 0.484250 0.372624 0.392146
O O1 0.926351 0.241343 0.543587
O O2 0.500000 0.000000 0.500000
O O3 0.656942 0.133429 0.622254
O O4 0.703418 0.033133 0.473655
O O5 0.726462 0.590307 0.316081
O O6 0.796480 0.458214 0.195218
O O7 0.962526 0.560604 0.315455
O O8 0.500000 0.698107 0.250000
O O9 0.344430 0.775053 0.092258
O O10 0.453514 0.515587 0.124752
O O11 0.877193 0.893134 0.434807
O O12 0.068792 0.200268 0.708245
#
# Coordination Sequence:
#
# PCOD9306997 Si02
#       6
#     8   8   8   8   4   8
#     4  12  27  49  83 119 159 219 277 330 406 488
#     4  12  25  49  82 117 156 218 273 328 409 485
#     4  12  27  46  80 120 156 209 277 329 411 481
#     4  12  27  52  82 111 167 215 267 342 403 484
#     4  12  20  48  78 106 152 212 256 330 404 472
#     4  12  25  51  80 112 162 211 270 339 406 477
#
# _framework density 27.440852
#
# number of rings (size 3 to 8) (size 9 to 14) (size 15 to 20)
#    0.000    0.000    8.182    0.000    3.818    3.636 
#    0.000    3.636    4.000    0.000    0.000    0.000 
#    0.000    0.000    0.000    0.000    0.000    0.000 
#
# Total GULP energy -122951.895289 kJ/mol
# GULP energy per Si atom -5588.722513 kJ/mol
# Density = 2.737840 g / cm^3
# Si number density = 27.440852 Si / 1000 Ang^3
#
#
#
# Elastic Constant Matrix: (Units=GPa)
#
#
# Indices 1 2 3 4 5 6 
#
# 1 164.7321 67.8733 36.4424 0.0000 -24.9075 0.0000
# 2 67.8733 122.4517 39.3453 0.0000 -12.5593 0.0000
# 3 36.4424 39.3453 130.2464 0.0000 -26.9317 0.0000
# 4 0.0000 0.0000 0.0000 26.3957 0.0000 -15.8817
# 5 -24.9075 -12.5593 -26.9317 0.0000 38.2519 0.0000
# 6 0.0000 0.0000 0.0000 -15.8817 0.0000 52.3375
#
#
#
# Elastic Compliance Matrix: (Units=1/GPa)
#
#
# Indices 1 2 3 4 5 6 
#
# 1 0.008455 -0.004191 -0.000288 0.000000 0.003927 0.000000
# 2 -0.004191 0.011171 -0.002350 0.000000 -0.000716 0.000000
# 3 -0.000288 -0.002350 0.009679 0.000000 0.005856 0.000000
# 4 0.000000 0.000000 0.000000 0.046347 0.000000 0.014064
# 5 0.003927 -0.000716 0.005856 0.000000 0.032587 0.000000
# 6 0.000000 0.000000 0.000000 0.014064 0.000000 0.023374
#
#
# Mechanical properties :
#
#
# Convention : Reuss Voigt Hill
#
# Bulk Modulus (GPa) = 63.90827 78.30581 71.10704
# Shear Modulus (GPa) = 33.22561 41.64830 37.43696
#
# Velocity S-wave (km/s) = 3.48344 3.90006 3.69762
# Velocity P-wave (km/s) = 6.28643 6.99133 6.64823
#
# Compressibility (1/GPa) = 0.01564743
#
# Stress axis : x y z
#
# Youngs Moduli (GPa) = 118.27825 89.51536 103.31723
#
# Poissons Ratio (x) = 0.37517 0.02971
# Poissons Ratio (y) = 0.49572 0.24279
# Poissons Ratio (z) = 0.03401 0.21036
#
# Static dielectric constant tensor:
#      x y z
#    x 2.093890 0.000000 0.169330 
#    y 0.000000 2.126210 0.000000 
#    z 0.169330 0.000000 2.298470 
# 
# From -- ./inp_files/230264.got.cif
#   From: 2010.05.17/outbox.cif.g08.bks.cpg/sg15_116_cif.got.tgz:230264.got - 2010.06.03 18:47:42.
