data_PCOD9306361
_publ_section_title
;
Structure prediction by ZEFSAII (Michael W. Deem and Ramdas Pophale) SiO2 
 PCOD9306361
Probable space group: C 2/C
;
_chemical_formula_sum "Si O2"
_cell_formula_units_Z 40
_cell_length_a 21.280079
_cell_length_b 14.319265
_cell_length_c 14.010298
_cell_angle_alpha 90.000000
_cell_angle_beta 156.944960
_cell_angle_gamma 90.000000
_cell_volume 1671.863777
_symmetry_space_group_name_H-M "C 2/C"
_symmetry_group_IT_number 15
_symmetry_cell_setting 'monoclinic'
loop_
_space_group_symop_operation_xyz
x,y,z
-x,y,1/2-z
-x,-y,-z
x,-y,1/2+z
1/2+x,1/2+y,z
1/2-x,1/2+y,1/2-z
1/2-x,1/2-y,-z
1/2+x,1/2-y,1/2+z
loop_
_atom_site_type_symbol
_atom_site_label
_atom_site_fract_x
_atom_site_fract_y
_atom_site_fract_z
Si Si1 0.675181 0.636790 0.538051
Si Si2 0.202178 0.713167 0.329387
Si Si3 0.864603 0.485786 0.687832
Si Si4 0.741001 0.989620 0.169021
Si Si5 0.132174 0.804281 0.630804
O O1 0.500000 0.631159 0.250000
O O2 0.791672 0.577300 0.632978
O O3 0.687618 0.585019 0.657758
O O4 0.735337 0.742457 0.630177
O O5 0.250000 0.750000 0.500000
O O6 0.160432 0.603757 0.280340
O O7 0.338876 0.721388 0.440453
O O8 0.269698 0.963232 0.457197
O O9 0.052731 0.499729 0.932560
O O10 0.460480 0.732637 0.923706
O O11 0.835095 0.086880 0.309989
#
# Coordination Sequence:
#
# PCOD9306361 Si02
#       5
#     8   8   8   8   8
#     4  12  27  45  70 108 152 187 243 303 364 442
#     4  12  26  46  78 108 143 194 252 307 362 434
#     4  11  25  49  76  97 152 197 243 298 377 432
#     4  11  25  47  74 104 141 197 244 299 363 439
#     4  12  27  46  74 110 149 187 251 301 369 438
#
# _framework density 23.925395000000002
#
# number of rings (size 3 to 8) (size 9 to 14) (size 15 to 20)
#    0.000    0.400    4.000    3.600   11.200    1.600 
#    0.000    0.000    0.000    0.000    0.000    0.000 
#    0.000    0.000    0.000    0.000    0.000    0.000 
#
# Total GULP energy -112212.432826 kJ/mol
# GULP energy per Si atom -5610.621641 kJ/mol
# Density = 2.387094 g / cm^3
# Si number density = 23.925395 Si / 1000 Ang^3
#
#
#
# Elastic Constant Matrix: (Units=GPa)
#
#
# Indices 1 2 3 4 5 6 
#
# 1 85.9967 -0.7967 13.9605 0.0000 -5.0159 0.0000
# 2 -0.7967 70.0237 16.0925 0.0000 9.6262 0.0000
# 3 13.9605 16.0925 120.5467 0.0000 -17.6890 0.0000
# 4 0.0000 0.0000 0.0000 68.4623 0.0000 -22.9085
# 5 -5.0159 9.6262 -17.6890 0.0000 35.1108 0.0000
# 6 0.0000 0.0000 0.0000 -22.9085 0.0000 46.1407
#
#
#
# Elastic Compliance Matrix: (Units=1/GPa)
#
#
# Indices 1 2 3 4 5 6 
#
# 1 0.011895 0.000294 -0.001273 0.000000 0.000977 0.000000
# 2 0.000294 0.015766 -0.002988 0.000000 -0.005786 0.000000
# 3 -0.001273 -0.002988 0.009649 0.000000 0.005498 0.000000
# 4 0.000000 0.000000 0.000000 0.017517 0.000000 0.008697
# 5 0.000977 -0.005786 0.005498 0.000000 0.032977 0.000000
# 6 0.000000 0.000000 0.000000 0.008697 0.000000 0.025991
#
#
# Mechanical properties :
#
#
# Convention : Reuss Voigt Hill
#
# Bulk Modulus (GPa) = 34.04284 37.23110 35.63697
# Shear Modulus (GPa) = 38.01679 46.43016 42.22347
#
# Velocity S-wave (km/s) = 3.99052 4.41003 4.20551
# Velocity P-wave (km/s) = 5.95751 6.44409 6.20557
#
# Compressibility (1/GPa) = 0.02937476
#
# Stress axis : x y z
#
# Youngs Moduli (GPa) = 84.07049 63.42668 103.64120
#
# Poissons Ratio (x) = -0.01862 0.13197
# Poissons Ratio (y) = -0.02468 0.30965
# Poissons Ratio (z) = 0.10705 0.18950
#
# Static dielectric constant tensor:
#      x y z
#    x 1.923080 0.000000 -0.033160 
#    y 0.000000 1.864120 0.000000 
#    z -0.033160 0.000000 1.866960 
# 
# From -- ./inp_files/225047.got.cif
#   From: 2010.05.17/outbox.cif.g08.bks.cpg/sg15_113_cif.got.tgz:225047.got - 2010.06.03 18:47:42.
