data_PCOD9306841
_publ_section_title
;
Structure prediction by ZEFSAII (Michael W. Deem and Ramdas Pophale) SiO2 
 PCOD9306841
Probable space group: C 2/C
;
_chemical_formula_sum "Si O2"
_cell_formula_units_Z 48
_cell_length_a 8.540629
_cell_length_b 25.642414
_cell_length_c 14.854978
_cell_angle_alpha 90.000000
_cell_angle_beta 141.342202
_cell_angle_gamma 90.000000
_cell_volume 2032.215656
_symmetry_space_group_name_H-M "C 2/C"
_symmetry_group_IT_number 15
_symmetry_cell_setting 'monoclinic'
loop_
_space_group_symop_operation_xyz
x,y,z
-x,y,1/2-z
-x,-y,-z
x,-y,1/2+z
1/2+x,1/2+y,z
1/2-x,1/2+y,1/2-z
1/2-x,1/2-y,-z
1/2+x,1/2-y,1/2+z
loop_
_atom_site_type_symbol
_atom_site_label
_atom_site_fract_x
_atom_site_fract_y
_atom_site_fract_z
Si Si1 0.676034 0.712329 0.206999
Si Si2 0.280953 0.063635 0.906134
Si Si3 0.000000 0.696640 0.750000
Si Si4 0.000000 0.773622 0.250000
Si Si5 0.453107 0.624445 0.012926
Si Si6 0.303658 0.837969 0.517709
Si Si7 0.633078 0.977050 0.405920
O O1 0.539758 0.761214 0.189301
O O2 0.755986 0.736877 0.147393
O O3 0.953397 0.698517 0.366107
O O4 0.524535 0.658988 0.132461
O O5 0.428047 0.046145 0.883187
O O6 0.000000 0.073034 0.750000
O O7 0.396319 0.116925 0.992439
O O8 0.273914 0.024333 0.988687
O O9 0.230095 0.658168 0.869364
O O10 0.068237 0.809856 0.364542
O O11 0.349433 0.566487 0.984384
O O12 0.694991 0.631673 0.056714
O O13 0.500000 0.989937 0.250000
#
# Coordination Sequence:
#
# PCOD9306841 Si02
#       7
#     8   8   4   4   8   8   8
#     4  12  26  43  69 105 148 194 239 295 355 435
#     4  11  27  49  76 108 142 192 243 306 377 437
#     4  12  26  42  66 108 146 192 240 292 364 424
#     4  12  22  44  68 100 146 190 242 288 350 436
#     4  12  25  45  71 104 143 190 241 300 363 430
#     4  12  25  44  73 103 142 191 244 297 363 431
#     4  11  27  49  77 107 145 187 246 310 370 439
#
# _framework density 23.619541000000002
#
# number of rings (size 3 to 8) (size 9 to 14) (size 15 to 20)
#    0.000    0.333    5.000    3.000    4.667    6.667 
#    0.000    0.000    0.000    0.000    0.000    0.000 
#    0.000    0.000    0.000    0.000    0.000    0.000 
#
# Total GULP energy -133954.486088 kJ/mol
# GULP energy per Si atom -5581.436920 kJ/mol
# Density = 2.356578 g / cm^3
# Si number density = 23.619541 Si / 1000 Ang^3
#
#
#
# Elastic Constant Matrix: (Units=GPa)
#
#
# Indices 1 2 3 4 5 6 
#
# 1 42.7300 10.0722 -0.2532 0.0000 -19.1602 0.0000
# 2 10.0722 63.3715 16.0835 0.0000 -18.6966 0.0000
# 3 -0.2532 16.0835 70.5375 0.0000 -11.7411 0.0000
# 4 0.0000 0.0000 0.0000 -94.1792 0.0000 -207.9216
# 5 -19.1602 -18.6966 -11.7411 0.0000 27.2225 0.0000
# 6 0.0000 0.0000 0.0000 -207.9216 0.0000 -367.9705
#
#
#
# Elastic Compliance Matrix: (Units=1/GPa)
#
#
# Indices 1 2 3 4 5 6 
#
# 1 0.035648 0.001471 0.004457 0.000000 0.028023 0.000000
# 2 0.001471 0.020243 -0.002288 0.000000 0.013951 0.000000
# 3 0.004457 -0.002288 0.016133 0.000000 0.008524 0.000000
# 4 0.000000 0.000000 0.000000 0.042906 0.000000 -0.024244
# 5 0.028023 0.013951 0.008524 0.000000 0.069716 0.000000
# 6 0.000000 0.000000 0.000000 -0.024244 0.000000 0.010981
#
#
# Mechanical properties :
#
#
# Convention : Reuss Voigt Hill
#
# Bulk Modulus (GPa) = 12.60983 25.38268 18.99626
# Shear Modulus (GPa) = 23.27926 -76.93636 -26.82855
#
# Velocity S-wave (km/s) = 3.14282 -5.71348 -3.37391
# Velocity P-wave (km/s) = 4.30350 5.72323 2.66789
#
# Compressibility (1/GPa) = 0.07930320
#
# Stress axis : x y z
#
# Youngs Moduli (GPa) = 28.05209 49.39971 61.98311
#
# Poissons Ratio (x) = -0.07264 -0.27626
# Poissons Ratio (y) = -0.04125 0.14183
# Poissons Ratio (z) = -0.12503 0.11304
#
# Static dielectric constant tensor:
#      x y z
#    x 2.209310 0.000000 -0.188740 
#    y 0.000000 1.886370 0.000000 
#    z -0.188740 0.000000 1.973110 
# 
# From -- ./inp_files/139089.got.cif
#   From: 2010.05.17/outbox.cif.g08.bks.cpg/sg15_70_cif.got.tgz:139089.got - 2010.06.03 18:47:42.
