data_PCOD9306455
_publ_section_title
;
Structure prediction by ZEFSAII (Michael W. Deem and Ramdas Pophale) SiO2 
 PCOD9306455
Probable space group: C 2/C
;
_chemical_formula_sum "Si O2"
_cell_formula_units_Z 36
_cell_length_a 12.489585
_cell_length_b 6.611358
_cell_length_c 18.201886
_cell_angle_alpha 90.000000
_cell_angle_beta 62.585577
_cell_angle_gamma 90.000000
_cell_volume 1334.200360
_symmetry_space_group_name_H-M "C 2/C"
_symmetry_group_IT_number 15
_symmetry_cell_setting 'monoclinic'
loop_
_space_group_symop_operation_xyz
x,y,z
-x,y,1/2-z
-x,-y,-z
x,-y,1/2+z
1/2+x,1/2+y,z
1/2-x,1/2+y,1/2-z
1/2-x,1/2-y,-z
1/2+x,1/2-y,1/2+z
loop_
_atom_site_type_symbol
_atom_site_label
_atom_site_fract_x
_atom_site_fract_y
_atom_site_fract_z
Si Si1 0.372690 0.852848 0.484564
Si Si2 0.771879 0.610902 0.649872
Si Si3 0.439387 0.446233 0.614915
Si Si4 0.000000 0.037471 0.250000
Si Si5 0.462828 0.100627 0.175711
O O1 0.250000 0.750000 0.500000
O O2 0.339606 0.991551 0.563733
O O3 0.462260 0.661749 0.468823
O O4 0.432622 0.999254 0.406056
O O5 0.813837 0.843728 0.631425
O O6 0.630204 0.569372 0.692787
O O7 0.834349 0.507686 0.700830
O O8 0.445881 0.676444 0.641417
O O9 0.474854 0.345189 0.683323
O O10 0.500000 0.096101 0.250000
#
# Coordination Sequence:
#
# PCOD9306455 Si02
#       5
#     8   8   8   4   8
#     4  11  25  50  80 123 175 220 278 353 423 506
#     4  11  28  50  82 118 172 222 278 355 426 503
#     4  11  25  48  78 115 166 210 285 339 417 501
#     4  12  26  50  78 124 156 220 280 344 422 500
#     4  11  26  49  85 128 163 230 284 346 430 506
#
# _framework density 26.982455000000002
#
# number of rings (size 3 to 8) (size 9 to 14) (size 15 to 20)
#    0.000    0.889    3.333    2.667    9.333    4.444 
#    4.000    1.111    0.000    1.333    0.000    1.556 
#    0.000    0.000    0.000    0.000    0.000    0.000 
#
# Total GULP energy -100613.886284 kJ/mol
# GULP energy per Si atom -5589.660349 kJ/mol
# Density = 2.692104 g / cm^3
# Si number density = 26.982455 Si / 1000 Ang^3
#
#
#
# Elastic Constant Matrix: (Units=GPa)
#
#
# Indices 1 2 3 4 5 6 
#
# 1 165.7131 69.6368 59.7748 0.0000 -25.3755 0.0000
# 2 69.6368 192.0252 69.2011 0.0000 -19.1076 -0.0001
# 3 59.7748 69.2011 148.4879 0.0000 -32.8244 0.0000
# 4 0.0000 0.0000 0.0000 47.4589 0.0000 -10.8974
# 5 -25.3755 -19.1076 -32.8244 0.0000 49.6714 0.0000
# 6 0.0000 -0.0001 0.0000 -10.8974 0.0000 16.7199
#
#
#
# Elastic Compliance Matrix: (Units=1/GPa)
#
#
# Indices 1 2 3 4 5 6 
#
# 1 0.007826 -0.001997 -0.001763 0.000000 0.002065 0.000000
# 2 -0.001997 0.006782 -0.002349 0.000000 0.000037 0.000000
# 3 -0.001763 -0.002349 0.009533 0.000000 0.004495 0.000000
# 4 0.000000 0.000000 0.000000 0.024779 0.000000 0.016150
# 5 0.002065 0.000037 0.004495 0.000000 0.024172 0.000000
# 6 0.000000 0.000000 0.000000 0.016150 0.000000 0.070335
#
#
# Mechanical properties :
#
#
# Convention : Reuss Voigt Hill
#
# Bulk Modulus (GPa) = 83.87527 100.38352 92.12940
# Shear Modulus (GPa) = 31.32472 43.27761 37.30116
#
# Velocity S-wave (km/s) = 3.41094 4.00924 3.72213
# Velocity P-wave (km/s) = 6.83120 7.66264 7.25883
#
# Compressibility (1/GPa) = 0.01192247
#
# Stress axis : x y z
#
# Youngs Moduli (GPa) = 127.77987 147.45085 104.90328
#
# Poissons Ratio (x) = 0.29449 0.18497
# Poissons Ratio (y) = 0.25520 0.24637
# Poissons Ratio (z) = 0.22531 0.34630
#
# Static dielectric constant tensor:
#      x y z
#    x 2.097840 0.000000 0.099000 
#    y 0.000000 2.318790 0.000000 
#    z 0.099000 0.000000 2.153360 
# 
# From -- ./inp_files/229757.got.cif
#   From: 2010.05.17/outbox.cif.g08.bks.cpg/sg15_115_cif.got.tgz:229757.got - 2010.06.03 18:47:42.
