data_PCOD9306489
_publ_section_title
;
Structure prediction by ZEFSAII (Michael W. Deem and Ramdas Pophale) SiO2 
 PCOD9306489
Probable space group: C 2/C
;
_chemical_formula_sum "Si O2"
_cell_formula_units_Z 48
_cell_length_a 13.272344
_cell_length_b 25.967599
_cell_length_c 12.070357
_cell_angle_alpha 90.000000
_cell_angle_beta 33.313374
_cell_angle_gamma 90.000000
_cell_volume 2284.779124
_symmetry_space_group_name_H-M "C 2/C"
_symmetry_group_IT_number 15
_symmetry_cell_setting 'monoclinic'
loop_
_space_group_symop_operation_xyz
x,y,z
-x,y,1/2-z
-x,-y,-z
x,-y,1/2+z
1/2+x,1/2+y,z
1/2-x,1/2+y,1/2-z
1/2-x,1/2-y,-z
1/2+x,1/2-y,1/2+z
loop_
_atom_site_type_symbol
_atom_site_label
_atom_site_fract_x
_atom_site_fract_y
_atom_site_fract_z
Si Si1 0.750004 0.801172 0.212884
Si Si2 0.203190 0.078902 0.531510
Si Si3 0.607260 0.303118 0.759462
Si Si4 0.474147 0.947577 0.591778
Si Si5 0.061100 0.373380 0.082104
Si Si6 0.297840 0.190779 0.482751
O O1 0.730216 0.740640 0.204063
O O2 0.590971 0.828781 0.290143
O O3 0.717840 0.812043 0.370694
O O4 0.949541 0.819014 0.990135
O O5 0.348568 0.065962 0.495752
O O6 0.297974 0.055024 0.335154
O O7 0.193102 0.141446 0.528779
O O8 0.000000 0.060289 0.750000
O O9 0.500000 0.282346 0.750000
O O10 0.738270 0.348525 0.598815
O O11 0.451339 0.905472 0.517655
O O12 0.500000 0.000000 0.500000
O O13 0.000000 0.402620 0.250000
O O14 0.500000 0.182872 0.250000
O O15 0.250000 0.250000 0.500000
#
# Coordination Sequence:
#
# PCOD9306489 Si02
#       6
#     8   8   8   8   8   8
#     4  12  23  39  64  93 141 185 234 277 346 420
#     4  11  25  49  77 112 148 182 241 307 363 437
#     4  12  24  39  61  97 137 190 231 280 339 415
#     4  11  27  51  78 102 139 189 239 301 372 420
#     4  12  25  43  67  99 139 183 239 294 348 422
#     4  12  24  42  65 107 147 194 235 284 360 441
#
# _framework density 21.008595
#
# number of rings (size 3 to 8) (size 9 to 14) (size 15 to 20)
#    0.000    0.333    6.667    2.500    7.000    0.667 
#    0.000    0.833    0.000    0.000    0.000    0.000 
#    0.000    0.000    0.000    0.000    0.000    0.000 
#
# Total GULP energy -134185.342597 kJ/mol
# GULP energy per Si atom -5591.055942 kJ/mol
# Density = 2.096078 g / cm^3
# Si number density = 21.008595 Si / 1000 Ang^3
#
#
#
# Elastic Constant Matrix: (Units=GPa)
#
#
# Indices 1 2 3 4 5 6 
#
# 1 65.6010 17.9773 72.9447 0.0000 18.1364 0.0001
# 2 17.9773 75.4457 34.5097 0.0000 3.1542 0.0000
# 3 72.9447 34.5097 232.8935 -0.0002 6.8699 0.0001
# 4 0.0000 0.0000 -0.0002 15.1384 0.0000 4.3794
# 5 18.1364 3.1542 6.8699 0.0000 47.5895 -0.0001
# 6 0.0001 0.0000 0.0001 4.3794 -0.0001 17.2607
#
#
#
# Elastic Compliance Matrix: (Units=1/GPa)
#
#
# Indices 1 2 3 4 5 6 
#
# 1 0.027196 -0.002497 -0.007881 0.000000 -0.009061 0.000000
# 2 -0.002497 0.014467 -0.001367 0.000000 0.000190 0.000000
# 3 -0.007881 -0.001367 0.006903 0.000000 0.002098 0.000000
# 4 0.000000 0.000000 0.000000 0.071290 0.000000 -0.018088
# 5 -0.009061 0.000190 0.002098 0.000000 0.024151 0.000000
# 6 0.000000 0.000000 0.000000 -0.018088 0.000000 0.062525
#
#
# Mechanical properties :
#
#
# Convention : Reuss Voigt Hill
#
# Bulk Modulus (GPa) = 39.87841 69.42261 54.65051
# Shear Modulus (GPa) = 20.97495 32.56496 26.76995
#
# Velocity S-wave (km/s) = 3.16317 3.94137 3.57352
# Velocity P-wave (km/s) = 5.68894 7.33684 6.56480
#
# Compressibility (1/GPa) = 0.02507623
#
# Stress axis : x y z
#
# Youngs Moduli (GPa) = 36.77004 69.12306 144.86661
#
# Poissons Ratio (x) = 0.17258 1.14167
# Poissons Ratio (y) = 0.09180 0.19808
# Poissons Ratio (z) = 0.28978 0.09451
#
# Static dielectric constant tensor:
#      x y z
#    x 1.744420 0.000000 0.015330 
#    y 0.000000 1.801140 0.000000 
#    z 0.015330 0.000000 1.741140 
# 
# From -- ./inp_files/101238.got.cif
#   From: 2010.05.17/outbox.cif.g08.bks.cpg/sg15_51_cif.got.tgz:101238.got - 2010.06.03 18:47:42.
