data_PCOD9306299
_publ_section_title
;
Structure prediction by ZEFSAII (Michael W. Deem and Ramdas Pophale) SiO2 
 PCOD9306299
Probable space group: C 2/C
;
_chemical_formula_sum "Si O2"
_cell_formula_units_Z 52
_cell_length_a 13.944153
_cell_length_b 16.578523
_cell_length_c 15.020314
_cell_angle_alpha 90.000000
_cell_angle_beta 141.168928
_cell_angle_gamma 90.000000
_cell_volume 2177.222364
_symmetry_space_group_name_H-M "C 2/C"
_symmetry_group_IT_number 15
_symmetry_cell_setting 'monoclinic'
loop_
_space_group_symop_operation_xyz
x,y,z
-x,y,1/2-z
-x,-y,-z
x,-y,1/2+z
1/2+x,1/2+y,z
1/2-x,1/2+y,1/2-z
1/2-x,1/2-y,-z
1/2+x,1/2-y,1/2+z
loop_
_atom_site_type_symbol
_atom_site_label
_atom_site_fract_x
_atom_site_fract_y
_atom_site_fract_z
Si Si1 0.962063 0.967964 0.115730
Si Si2 0.000000 0.674503 0.250000
Si Si3 0.684643 0.079057 0.497677
Si Si4 0.289559 0.239806 0.897091
Si Si5 0.688409 0.408055 0.123542
Si Si6 0.027060 0.565839 0.941314
Si Si7 0.124526 0.268418 0.605266
O O1 0.000000 0.977767 0.250000
O O2 0.092627 0.935686 0.143168
O O3 0.815399 0.909124 0.018213
O O4 0.894310 0.044893 0.015906
O O5 0.977532 0.612906 0.152951
O O6 0.850196 0.728032 0.146204
O O7 0.500000 0.000000 0.500000
O O8 0.662022 0.983948 0.491146
O O9 0.278480 0.142011 0.897001
O O10 0.466886 0.255658 0.042218
O O11 0.253216 0.276494 0.773909
O O12 0.868664 0.425898 0.272064
O O13 0.671801 0.313274 0.090615
O O14 0.085949 0.651916 0.020824
#
# Coordination Sequence:
#
# PCOD9306299 Si02
#       7
#     8   4   8   8   8   8   8
#     4  11  25  46  75 105 151 190 247 306 370 434
#     4  12  24  38  66 100 144 184 236 298 376 446
#     4  12  25  42  68 105 143 192 241 298 373 440
#     4  12  24  40  66 105 142 187 233 304 372 442
#     4  11  26  48  73 111 145 197 246 304 366 444
#     4  12  23  45  71 103 147 196 243 298 373 438
#     4  12  24  43  69 101 144 189 245 294 366 432
#
# _framework density 23.883641999999998
#
# number of rings (size 3 to 8) (size 9 to 14) (size 15 to 20)
#    0.000    0.308    4.615    4.154    3.231    4.923 
#    0.000    0.769    1.692    0.000    0.000    0.000 
#    0.000    0.000    0.000    0.000    0.000    0.000 
#
# Total GULP energy -145008.878121 kJ/mol
# GULP energy per Si atom -5577.264543 kJ/mol
# Density = 2.382928 g / cm^3
# Si number density = 23.883642 Si / 1000 Ang^3
#
#
#
# Elastic Constant Matrix: (Units=GPa)
#
#
# Indices 1 2 3 4 5 6 
#
# 1 69.6128 22.1627 21.8400 0.0003 6.6463 0.0002
# 2 22.1627 171.0036 63.6338 0.0003 -0.5671 0.0003
# 3 21.8400 63.6338 116.8466 0.0001 -5.1897 0.0003
# 4 0.0003 0.0003 0.0001 41.5591 0.0003 5.6322
# 5 6.6463 -0.5671 -5.1897 0.0003 33.6961 0.0003
# 6 0.0002 0.0003 0.0003 5.6322 0.0003 33.6067
#
#
#
# Elastic Compliance Matrix: (Units=1/GPa)
#
#
# Indices 1 2 3 4 5 6 
#
# 1 0.015848 -0.001135 -0.002501 0.000000 -0.003530 0.000000
# 2 -0.001135 0.007424 -0.003841 0.000000 -0.000243 0.000000
# 3 -0.002501 -0.003841 0.011213 0.000000 0.002156 0.000000
# 4 0.000000 0.000000 0.000000 0.024621 0.000000 -0.004126
# 5 -0.003530 -0.000243 0.002156 0.000000 0.030701 0.000000
# 6 0.000000 0.000000 0.000000 -0.004126 0.000000 0.030448
#
#
# Mechanical properties :
#
#
# Convention : Reuss Voigt Hill
#
# Bulk Modulus (GPa) = 51.20206 63.63734 57.41970
# Shear Modulus (GPa) = 35.28075 38.42748 36.85411
#
# Velocity S-wave (km/s) = 3.84760 4.01552 3.93245
# Velocity P-wave (km/s) = 6.42054 6.94275 6.68674
#
# Compressibility (1/GPa) = 0.01953046
#
# Stress axis : x y z
#
# Youngs Moduli (GPa) = 63.09864 134.70510 89.17863
#
# Poissons Ratio (x) = 0.15290 0.22302
# Poissons Ratio (y) = 0.07162 0.34258
# Poissons Ratio (z) = 0.15780 0.51747
#
# Static dielectric constant tensor:
#      x y z
#    x 2.165640 0.000000 -0.071940 
#    y 0.000000 1.928580 0.000000 
#    z -0.071940 0.000000 1.955520 
# 
# From -- ./inp_files/147228.got.cif
#   From: 2010.05.17/outbox.cif.g08.bks.cpg/sg15_74_cif.got.tgz:147228.got - 2010.06.03 18:47:42.
