data_PCOD9306904
_publ_section_title
;
Structure prediction by ZEFSAII (Michael W. Deem and Ramdas Pophale) SiO2 
 PCOD9306904
Probable space group: C 2/C
;
_chemical_formula_sum "Si O2"
_cell_formula_units_Z 24
_cell_length_a 7.480107
_cell_length_b 13.215885
_cell_length_c 8.578542
_cell_angle_alpha 90.000000
_cell_angle_beta 66.976499
_cell_angle_gamma 90.000000
_cell_volume 780.491125
_symmetry_space_group_name_H-M "C 2/C"
_symmetry_group_IT_number 15
_symmetry_cell_setting 'monoclinic'
loop_
_space_group_symop_operation_xyz
x,y,z
-x,y,1/2-z
-x,-y,-z
x,-y,1/2+z
1/2+x,1/2+y,z
1/2-x,1/2+y,1/2-z
1/2-x,1/2-y,-z
1/2+x,1/2-y,1/2+z
loop_
_atom_site_type_symbol
_atom_site_label
_atom_site_fract_x
_atom_site_fract_y
_atom_site_fract_z
Si Si1 0.202007 0.179922 0.862366
Si Si2 0.938141 0.352744 0.972264
Si Si3 0.686269 0.449278 0.794316
O O1 0.016629 0.246116 0.887520
O O2 0.151471 0.061209 0.875287
O O3 0.250000 0.250000 0.000000
O O4 0.636100 0.171236 0.828597
O O5 0.122646 0.430340 0.883102
O O6 0.768171 0.390207 0.916645
O O7 0.500000 0.420083 0.750000
#
# Coordination Sequence:
#
# PCOD9306904 Si02
#       3
#     8   8   8
#     4  12  30  60 106 149 204 275 341 423 518 614
#     4  11  30  64 102 148 208 264 345 424 505 613
#     4  11  30  60 105 151 204 271 347 422 512 613
#
# _framework density 30.749866999999998
#
# number of rings (size 3 to 8) (size 9 to 14) (size 15 to 20)
#    0.000    0.667    0.000    2.000   18.667    9.333 
#    6.000    5.000    7.333    0.000    0.000    0.000 
#    0.000    0.000    0.000    0.000    0.000    0.000 
#
# Total GULP energy -67046.303964 kJ/mol
# GULP energy per Si atom -5587.191997 kJ/mol
# Density = 3.067988 g / cm^3
# Si number density = 30.749867 Si / 1000 Ang^3
#
#
#
# Elastic Constant Matrix: (Units=GPa)
#
#
# Indices 1 2 3 4 5 6 
#
# 1 279.8277 141.9278 178.8951 0.0000 23.4573 0.0000
# 2 141.9278 290.2956 104.9722 0.0000 16.4783 0.0000
# 3 178.8951 104.9722 291.7800 0.0000 5.8664 0.0000
# 4 0.0000 0.0000 0.0000 79.2814 0.0000 -18.5614
# 5 23.4573 16.4783 5.8664 0.0000 79.1698 0.0000
# 6 0.0000 0.0000 0.0000 -18.5614 0.0000 97.9798
#
#
#
# Elastic Compliance Matrix: (Units=1/GPa)
#
#
# Indices 1 2 3 4 5 6 
#
# 1 0.006980 -0.002066 -0.003509 0.000000 -0.001378 0.000000
# 2 -0.002066 0.004613 -0.000387 0.000000 -0.000319 0.000000
# 3 -0.003509 -0.000387 0.005704 0.000000 0.000697 0.000000
# 4 0.000000 0.000000 0.000000 0.013199 0.000000 0.002500
# 5 -0.001378 -0.000319 0.000697 0.000000 0.013054 0.000000
# 6 0.000000 0.000000 0.000000 0.002500 0.000000 0.010680
#
#
# Mechanical properties :
#
#
# Convention : Reuss Voigt Hill
#
# Bulk Modulus (GPa) = 186.06881 190.38818 188.22850
# Shear Modulus (GPa) = 73.59236 80.36008 76.97622
#
# Velocity S-wave (km/s) = 4.89740 5.11764 5.00873
# Velocity P-wave (km/s) = 9.62399 9.84732 9.73630
#
# Compressibility (1/GPa) = 0.00537436
#
# Stress axis : x y z
#
# Youngs Moduli (GPa) = 143.26829 216.79973 175.33014
#
# Poissons Ratio (x) = 0.44781 0.61518
# Poissons Ratio (y) = 0.29593 0.06778
# Poissons Ratio (z) = 0.50268 0.08381
#
# Static dielectric constant tensor:
#      x y z
#    x 2.724210 0.000000 -0.005920 
#    y 0.000000 2.466700 0.000000 
#    z -0.005920 0.000000 2.650690 
# 
# From -- ./inp_files/131350.got.cif
#   From: 2010.05.17/outbox.cif.g08.bks.cpg/sg15_66_cif.got.tgz:131350.got - 2010.06.03 18:47:42.
