data_PCOD9306663
_publ_section_title
;
Structure prediction by ZEFSAII (Michael W. Deem and Ramdas Pophale) SiO2 
 PCOD9306663
Probable space group: C 2/C
;
_chemical_formula_sum "Si O2"
_cell_formula_units_Z 36
_cell_length_a 26.508512
_cell_length_b 10.351105
_cell_length_c 4.831017
_cell_angle_alpha 90.000000
_cell_angle_beta 80.938680
_cell_angle_gamma 90.000000
_cell_volume 1309.051357
_symmetry_space_group_name_H-M "C 2/C"
_symmetry_group_IT_number 15
_symmetry_cell_setting 'monoclinic'
loop_
_space_group_symop_operation_xyz
x,y,z
-x,y,1/2-z
-x,-y,-z
x,-y,1/2+z
1/2+x,1/2+y,z
1/2-x,1/2+y,1/2-z
1/2-x,1/2-y,-z
1/2+x,1/2-y,1/2+z
loop_
_atom_site_type_symbol
_atom_site_label
_atom_site_fract_x
_atom_site_fract_y
_atom_site_fract_z
Si Si1 0.901055 0.086001 0.015076
Si Si2 0.833562 0.711224 0.898457
Si Si3 0.236369 0.914830 0.232859
Si Si4 0.500000 0.709083 0.750000
Si Si5 0.067527 0.585992 0.511794
O O1 0.868502 0.202367 0.165800
O O2 0.890596 0.961851 0.215311
O O3 0.960262 0.126135 0.963290
O O4 0.793669 0.628973 0.753546
O O5 0.799883 0.801906 0.126855
O O6 0.873199 0.626310 0.040371
O O7 0.227725 0.043163 0.426423
O O8 0.465035 0.797132 0.581170
O O9 0.057142 0.538635 0.830342
#
# Coordination Sequence:
#
# PCOD9306663 Si02
#       5
#     8   8   8   4   8
#     4  12  27  47  73 107 146 194 247 304 367 437
#     4  11  26  47  76 108 150 195 248 305 372 442
#     4  11  26  47  74 110 148 192 244 304 370 444
#     4  12  28  50  76 110 152 198 252 310 372 442
#     4  12  27  47  73 107 146 194 247 304 367 437
#
# _framework density 27.500829
#
# number of rings (size 3 to 8) (size 9 to 14) (size 15 to 20)
#    0.000    0.444    0.000    6.667    0.000   16.889 
#    0.000    0.000    0.000    0.000    0.000    0.000 
#    0.000    0.000    0.000    0.000    0.000    0.000 
#
# Total GULP energy -101320.389186 kJ/mol
# GULP energy per Si atom -5628.910510 kJ/mol
# Density = 2.743824 g / cm^3
# Si number density = 27.500829 Si / 1000 Ang^3
#
#
#
# Elastic Constant Matrix: (Units=GPa)
#
#
# Indices 1 2 3 4 5 6 
#
# 1 139.6226 22.2696 47.0648 0.0000 -2.5387 0.0000
# 2 22.2696 66.2841 33.8846 0.0000 -5.4782 0.0000
# 3 47.0648 33.8846 103.3932 0.0000 -1.4789 0.0000
# 4 0.0000 0.0000 0.0000 22.7998 0.0000 -4.7691
# 5 -2.5387 -5.4782 -1.4789 0.0000 47.7946 0.0000
# 6 0.0000 0.0000 0.0000 -4.7691 0.0000 79.5595
#
#
#
# Elastic Compliance Matrix: (Units=1/GPa)
#
#
# Indices 1 2 3 4 5 6 
#
# 1 0.008524 -0.001037 -0.003537 0.000000 0.000224 0.000000
# 2 -0.001037 0.018422 -0.005538 0.000000 0.001885 0.000000
# 3 -0.003537 -0.005538 0.013091 0.000000 -0.000418 0.000000
# 4 0.000000 0.000000 0.000000 0.044417 0.000000 0.002663
# 5 0.000224 0.001885 -0.000418 0.000000 0.021138 0.000000
# 6 0.000000 0.000000 0.000000 0.002663 0.000000 0.012729
#
#
# Mechanical properties :
#
#
# Convention : Reuss Voigt Hill
#
# Bulk Modulus (GPa) = 50.47445 57.30424 53.88935
# Shear Modulus (GPa) = 34.44726 43.76951 39.10839
#
# Velocity S-wave (km/s) = 3.54303 3.99378 3.77514
# Velocity P-wave (km/s) = 5.92715 6.49227 6.21613
#
# Compressibility (1/GPa) = 0.01981200
#
# Stress axis : x y z
#
# Youngs Moduli (GPa) = 117.31660 54.28293 76.38870
#
# Poissons Ratio (x) = 0.05630 0.27019
# Poissons Ratio (y) = 0.12167 0.42306
# Poissons Ratio (z) = 0.41495 0.30063
#
# Static dielectric constant tensor:
#      x y z
#    x 2.127670 0.000000 -0.033030 
#    y 0.000000 2.067740 0.000000 
#    z -0.033030 0.000000 2.048850 
# 
# From -- ./inp_files/14869.got.cif
#   From: 2010.05.17/outbox.cif.g08.bks.cpg/sg15_8_cif.got.tgz:14869.got - 2010.06.03 18:47:42.
