data_PCOD9306221
_publ_section_title
;
Structure prediction by ZEFSAII (Michael W. Deem and Ramdas Pophale) SiO2 
 PCOD9306221
Probable space group: C 2/C
;
_chemical_formula_sum "Si O2"
_cell_formula_units_Z 32
_cell_length_a 5.123279
_cell_length_b 19.431720
_cell_length_c 14.311292
_cell_angle_alpha 90.000000
_cell_angle_beta 96.876823
_cell_angle_gamma 90.000000
_cell_volume 1414.498284
_symmetry_space_group_name_H-M "C 2/C"
_symmetry_group_IT_number 15
_symmetry_cell_setting 'monoclinic'
loop_
_space_group_symop_operation_xyz
x,y,z
-x,y,1/2-z
-x,-y,-z
x,-y,1/2+z
1/2+x,1/2+y,z
1/2-x,1/2+y,1/2-z
1/2-x,1/2-y,-z
1/2+x,1/2-y,1/2+z
loop_
_atom_site_type_symbol
_atom_site_label
_atom_site_fract_x
_atom_site_fract_y
_atom_site_fract_z
Si Si1 0.500000 0.275125 0.750000
Si Si2 0.983657 0.284596 0.451967
Si Si3 0.112631 0.968725 0.650378
Si Si4 0.180395 0.434951 0.484191
Si Si5 0.000000 0.368785 0.750000
O O1 0.547104 0.232018 0.658669
O O2 0.240347 0.322150 0.725082
O O3 0.750000 0.250000 0.500000
O O4 0.250000 0.250000 0.500000
O O5 0.017117 0.365737 0.468220
O O6 0.366259 0.919563 0.669618
O O7 0.000000 0.975671 0.750000
O O8 0.906154 0.932473 0.572360
O O9 0.183123 0.041745 0.607307
O O10 0.000000 0.500000 0.500000
#
# Coordination Sequence:
#
# PCOD9306221 Si02
#       5
#     4   8   8   8   4
#     4  12  28  47  80 109 162 208 264 318 412 467
#     4  12  30  51  78 114 162 204 260 328 393 478
#     4  11  25  45  82 111 158 204 267 322 395 471
#     4  11  28  48  77 120 155 203 265 329 395 469
#     4  12  24  47  78 115 146 212 260 316 392 489
#
# _framework density 22.622862999999999
#
# number of rings (size 3 to 8) (size 9 to 14) (size 15 to 20)
#    0.000    0.500    1.250    4.500   17.500    3.000 
#    2.250    0.000    0.000    0.000    0.000    0.000 
#    0.000    0.000    0.000    0.000    0.000    0.000 
#
# Total GULP energy -89699.080460 kJ/mol
# GULP energy per Si atom -5606.192529 kJ/mol
# Density = 2.257137 g / cm^3
# Si number density = 22.622863 Si / 1000 Ang^3
#
#
#
# Elastic Constant Matrix: (Units=GPa)
#
#
# Indices 1 2 3 4 5 6 
#
# 1 176.1364 84.7360 74.1654 0.0000 5.9738 0.0000
# 2 84.7360 193.8007 93.9448 0.0000 -4.4293 0.0000
# 3 74.1654 93.9448 204.1007 0.0000 -9.5498 0.0000
# 4 0.0000 0.0000 0.0000 39.1215 0.0000 -1.6502
# 5 5.9738 -4.4293 -9.5498 0.0000 47.3071 0.0000
# 6 0.0000 0.0000 0.0000 -1.6502 0.0000 44.0860
#
#
#
# Elastic Compliance Matrix: (Units=1/GPa)
#
#
# Indices 1 2 3 4 5 6 
#
# 1 0.007676 -0.002580 -0.001674 0.000000 -0.001549 0.000000
# 2 -0.002580 0.007509 -0.002494 0.000000 0.000525 0.000000
# 3 -0.001674 -0.002494 0.006718 0.000000 0.001334 0.000000
# 4 0.000000 0.000000 0.000000 0.025602 0.000000 0.000958
# 5 -0.001549 0.000525 0.001334 0.000000 0.021653 0.000000
# 6 0.000000 0.000000 0.000000 0.000958 0.000000 0.022719
#
#
# Mechanical properties :
#
#
# Convention : Reuss Voigt Hill
#
# Bulk Modulus (GPa) = 118.95417 119.97004 119.46210
# Shear Modulus (GPa) = 46.22093 47.51569 46.86831
#
# Velocity S-wave (km/s) = 4.52498 4.58792 4.55656
# Velocity P-wave (km/s) = 8.94405 9.01171 8.97795
#
# Compressibility (1/GPa) = 0.00840660
#
# Stress axis : x y z
#
# Youngs Moduli (GPa) = 130.27382 133.17145 148.84508
#
# Poissons Ratio (x) = 0.34359 0.24920
# Poissons Ratio (y) = 0.33612 0.37125
# Poissons Ratio (z) = 0.21811 0.33216
#
# Static dielectric constant tensor:
#      x y z
#    x 1.871440 0.000000 -0.049500 
#    y 0.000000 1.806460 0.000000 
#    z -0.049500 0.000000 1.881790 
# 
# From -- ./inp_files/128349.got.cif
#   From: 2010.05.17/outbox.cif.g08.bks.cpg/sg15_65_cif.got.tgz:128349.got - 2010.06.03 18:47:42.
