data_PCOD9306175
_publ_section_title
;
Structure prediction by ZEFSAII (Michael W. Deem and Ramdas Pophale) SiO2 
 PCOD9306175
Probable space group: C 2/C
;
_chemical_formula_sum "Si O2"
_cell_formula_units_Z 44
_cell_length_a 14.964339
_cell_length_b 17.072145
_cell_length_c 9.216813
_cell_angle_alpha 90.000000
_cell_angle_beta 62.064707
_cell_angle_gamma 90.000000
_cell_volume 2080.279860
_symmetry_space_group_name_H-M "C 2/C"
_symmetry_group_IT_number 15
_symmetry_cell_setting 'monoclinic'
loop_
_space_group_symop_operation_xyz
x,y,z
-x,y,1/2-z
-x,-y,-z
x,-y,1/2+z
1/2+x,1/2+y,z
1/2-x,1/2+y,1/2-z
1/2-x,1/2-y,-z
1/2+x,1/2-y,1/2+z
loop_
_atom_site_type_symbol
_atom_site_label
_atom_site_fract_x
_atom_site_fract_y
_atom_site_fract_z
Si Si1 0.064282 0.056755 0.055995
Si Si2 0.749168 0.045599 0.015106
Si Si3 0.854888 0.208647 0.914350
Si Si4 0.391011 0.980414 0.154920
Si Si5 0.000000 0.649593 0.750000
Si Si6 0.536971 0.268490 0.468878
O O1 0.000000 0.055797 0.250000
O O2 0.066420 0.145524 0.000555
O O3 0.177236 0.026004 0.999279
O O4 0.000000 0.000000 0.000000
O O5 0.662593 0.047303 0.205954
O O6 0.828176 0.116843 0.939350
O O7 0.687628 0.037983 0.912963
O O8 0.905480 0.238644 0.727653
O O9 0.921130 0.229670 0.003544
O O10 0.750000 0.250000 0.000000
O O11 0.416490 0.907374 0.240947
O O12 0.500000 0.000000 0.000000
O O13 0.046322 0.704069 0.587386
#
# Coordination Sequence:
#
# PCOD9306175 Si02
#       6
#     8   8   8   8   4   8
#     4  12  23  44  73 106 146 186 239 303 366 439
#     4  12  25  44  75 107 143 194 250 301 374 444
#     4  11  25  45  72 106 147 193 244 295 373 450
#     4  12  26  48  72 106 141 196 250 310 363 440
#     4  12  26  50  72 100 156 188 244 304 372 428
#     4  11  25  47  71 110 148 191 234 310 373 433
#
# _framework density 21.150998000000001
#
# number of rings (size 3 to 8) (size 9 to 14) (size 15 to 20)
#    0.000    0.364    4.545    4.364    2.545    0.000 
#    0.000    2.727    0.000    0.000    0.000    0.000 
#    0.000    0.000    0.000    0.000    0.000    0.000 
#
# Total GULP energy -122960.608824 kJ/mol
# GULP energy per Si atom -5589.118583 kJ/mol
# Density = 2.110286 g / cm^3
# Si number density = 21.150998 Si / 1000 Ang^3
#
#
#
# Elastic Constant Matrix: (Units=GPa)
#
#
# Indices 1 2 3 4 5 6 
#
# 1 155.9619 38.7653 32.6823 0.0000 11.1325 0.0000
# 2 38.7653 73.2608 17.5420 0.0000 10.9125 0.0000
# 3 32.6823 17.5420 93.1734 0.0000 10.5077 0.0000
# 4 0.0000 0.0000 0.0000 35.4453 0.0000 6.6315
# 5 11.1325 10.9125 10.5077 0.0000 40.3722 0.0000
# 6 0.0000 0.0000 0.0000 6.6315 0.0000 43.7757
#
#
#
# Elastic Compliance Matrix: (Units=1/GPa)
#
#
# Indices 1 2 3 4 5 6 
#
# 1 0.007751 -0.003528 -0.001979 0.000000 -0.000669 0.000000
# 2 -0.003528 0.016329 -0.001493 0.000000 -0.003052 0.000000
# 3 -0.001979 -0.001493 0.011952 0.000000 -0.002161 0.000000
# 4 0.000000 0.000000 0.000000 0.029035 0.000000 -0.004399
# 5 -0.000669 -0.003052 -0.002161 0.000000 0.026341 0.000000
# 6 0.000000 0.000000 0.000000 -0.004399 0.000000 0.023510
#
#
# Mechanical properties :
#
#
# Convention : Reuss Voigt Hill
#
# Bulk Modulus (GPa) = 45.38831 55.59728 50.49280
# Shear Modulus (GPa) = 36.69399 39.47906 38.08652
#
# Velocity S-wave (km/s) = 4.16968 4.32503 4.24806
# Velocity P-wave (km/s) = 6.68487 7.16129 6.92718
#
# Compressibility (1/GPa) = 0.02203210
#
# Stress axis : x y z
#
# Youngs Moduli (GPa) = 129.01220 61.24188 83.67014
#
# Poissons Ratio (x) = 0.21606 0.16560
# Poissons Ratio (y) = 0.45515 0.12488
# Poissons Ratio (z) = 0.25535 0.09141
#
# Static dielectric constant tensor:
#      x y z
#    x 1.730880 0.000000 -0.028030 
#    y 0.000000 1.131900 0.000000 
#    z -0.028030 0.000000 1.788720 
# 
# From -- ./inp_files/39040.got.cif
#   From: 2010.05.17/outbox.cif.g08.bks.cpg/sg15_20_cif.got.tgz:39040.got - 2010.06.03 18:47:42.
