data_PCOD9306936
_publ_section_title
;
Structure prediction by ZEFSAII (Michael W. Deem and Ramdas Pophale) SiO2 
 PCOD9306936
Probable space group: C 2/C
;
_chemical_formula_sum "Si O2"
_cell_formula_units_Z 36
_cell_length_a 11.457524
_cell_length_b 8.230858
_cell_length_c 14.171164
_cell_angle_alpha 90.000000
_cell_angle_beta 77.783033
_cell_angle_gamma 90.000000
_cell_volume 1306.149775
_symmetry_space_group_name_H-M "C 2/C"
_symmetry_group_IT_number 15
_symmetry_cell_setting 'monoclinic'
loop_
_space_group_symop_operation_xyz
x,y,z
-x,y,1/2-z
-x,-y,-z
x,-y,1/2+z
1/2+x,1/2+y,z
1/2-x,1/2+y,1/2-z
1/2-x,1/2-y,-z
1/2+x,1/2-y,1/2+z
loop_
_atom_site_type_symbol
_atom_site_label
_atom_site_fract_x
_atom_site_fract_y
_atom_site_fract_z
Si Si1 0.380973 0.525854 0.899271
Si Si2 0.250023 0.800493 0.729585
Si Si3 0.500000 0.215132 0.250000
Si Si4 0.211418 0.589261 0.564958
Si Si5 0.472496 0.778393 0.141510
O O1 0.316375 0.436111 0.821432
O O2 0.450823 0.676216 0.844734
O O3 0.477359 0.388196 0.911755
O O4 0.283019 0.547484 0.997322
O O5 0.379582 0.866427 0.734743
O O6 0.258230 0.642146 0.659710
O O7 0.169536 0.740961 0.831137
O O8 0.250000 0.750000 0.500000
O O9 0.066450 0.585738 0.588599
O O10 0.500000 0.778861 0.250000
#
# Coordination Sequence:
#
# PCOD9306936 Si02
#       5
#     8   8   4   8   8
#     4   9  16  33  52  73  96 131 166 199 244 288
#     4   9  17  29  48  76 101 124 167 203 234 297
#     4  12  20  28  54  74  98 136 156 198 256 284
#     4   7  13  27  53  71  92 132 163 198 244 279
#     4   7  11  27  49  66  93 124 157 198 234 274
#
# _framework density 27.561924999999999
#
# number of rings (size 3 to 8) (size 9 to 14) (size 15 to 20)
#    0.000    4.444    3.333    0.000    0.000    0.889 
#    0.000    1.111   12.222   12.000    0.000    0.000 
#    0.000    0.000    0.000    0.000    0.000    0.000 
#
# Total GULP energy -100529.198752 kJ/mol
# GULP energy per Si atom -5584.955486 kJ/mol
# Density = 2.749919 g / cm^3
# Si number density = 27.561925 Si / 1000 Ang^3
#
#
#
# Elastic Constant Matrix: (Units=GPa)
#
#
# Indices 1 2 3 4 5 6 
#
# 1 191.4345 29.7557 55.5375 0.0000 -43.3664 0.0000
# 2 29.7557 66.2872 35.7128 0.0000 -4.6614 0.0000
# 3 55.5375 35.7128 143.6602 0.0000 -44.2409 0.0000
# 4 0.0000 0.0000 0.0000 26.3837 0.0000 -0.8322
# 5 -43.3664 -4.6614 -44.2409 0.0000 50.6870 0.0000
# 6 0.0000 0.0000 0.0000 -0.8322 0.0000 39.4682
#
#
#
# Elastic Compliance Matrix: (Units=1/GPa)
#
#
# Indices 1 2 3 4 5 6 
#
# 1 0.006948 -0.002521 -0.000410 0.000000 0.005354 0.000000
# 2 -0.002521 0.018669 -0.005199 0.000000 -0.004978 0.000000
# 3 -0.000410 -0.005199 0.011155 0.000000 0.008907 0.000000
# 4 0.000000 0.000000 0.000000 0.037927 0.000000 0.000800
# 5 0.005354 -0.004978 0.008907 0.000000 0.031626 0.000000
# 6 0.000000 0.000000 0.000000 0.000800 0.000000 0.025354
#
#
# Mechanical properties :
#
#
# Convention : Reuss Voigt Hill
#
# Bulk Modulus (GPa) = 48.75724 71.48820 60.12272
# Shear Modulus (GPa) = 32.30458 41.99951 37.15205
#
# Velocity S-wave (km/s) = 3.42727 3.90785 3.67542
# Velocity P-wave (km/s) = 5.77841 6.80848 6.31448
#
# Compressibility (1/GPa) = 0.02050978
#
# Stress axis : x y z
#
# Youngs Moduli (GPa) = 143.93642 53.56561 89.64573
#
# Poissons Ratio (x) = 0.13505 0.03678
# Poissons Ratio (y) = 0.36288 0.46610
# Poissons Ratio (z) = 0.05905 0.27851
#
# Static dielectric constant tensor:
#      x y z
#    x 2.224830 0.000000 -0.006130 
#    y 0.000000 2.228440 0.000000 
#    z -0.006130 0.000000 2.175110 
# 
# From -- ./inp_files/195379.got.cif
#   From: 2010.05.17/outbox.cif.g08.bks.cpg/sg15_98_cif.got.tgz:195379.got - 2010.06.03 18:47:42.
