data_PCOD9306508
_publ_section_title
;
Structure prediction by ZEFSAII (Michael W. Deem and Ramdas Pophale) SiO2 
 PCOD9306508
Probable space group: C 2/C
;
_chemical_formula_sum "Si O2"
_cell_formula_units_Z 52
_cell_length_a 6.689776
_cell_length_b 27.266389
_cell_length_c 16.734498
_cell_angle_alpha 90.000000
_cell_angle_beta 121.945383
_cell_angle_gamma 90.000000
_cell_volume 2590.185037
_symmetry_space_group_name_H-M "C 2/C"
_symmetry_group_IT_number 15
_symmetry_cell_setting 'monoclinic'
loop_
_space_group_symop_operation_xyz
x,y,z
-x,y,1/2-z
-x,-y,-z
x,-y,1/2+z
1/2+x,1/2+y,z
1/2-x,1/2+y,1/2-z
1/2-x,1/2-y,-z
1/2+x,1/2-y,1/2+z
loop_
_atom_site_type_symbol
_atom_site_label
_atom_site_fract_x
_atom_site_fract_y
_atom_site_fract_z
Si Si1 0.962995 0.781216 0.009232
Si Si2 0.131920 0.514099 0.197959
Si Si3 0.885544 0.792142 0.637628
Si Si4 0.339480 0.900689 0.908942
Si Si5 0.000000 0.066197 0.750000
Si Si6 0.802492 0.958590 0.464783
Si Si7 0.614033 0.613245 0.933844
O O1 0.196565 0.750741 0.081020
O O2 0.948120 0.832209 0.052923
O O3 0.957480 0.790315 0.911376
O O4 0.750000 0.750000 0.000000
O O5 0.218768 0.564224 0.177517
O O6 0.324458 0.472525 0.254210
O O7 0.000000 0.527403 0.250000
O O8 0.942559 0.486087 0.102578
O O9 0.759750 0.845594 0.613988
O O10 0.000000 0.785030 0.750000
O O11 0.225948 0.929849 0.958794
O O12 0.624883 0.898943 0.977407
O O13 0.120963 0.100179 0.841662
O O14 0.899789 0.918642 0.423763
O O15 0.000000 0.000000 0.500000
#
# Coordination Sequence:
#
# PCOD9306508 Si02
#       7
#     8   8   8   8   4   8   8
#     4  11  25  50  75 102 142 183 236 299 364 418
#     4  12  26  40  63 102 141 185 237 287 341 423
#     4  11  27  48  74 108 142 181 238 295 354 432
#     4  12  25  43  70 100 140 186 231 289 358 415
#     4  12  26  42  64 104 140 186 244 290 348 424
#     4  12  23  42  65  94 136 186 229 282 350 413
#     4  12  24  44  71  97 136 190 234 292 357 423
#
# _framework density 20.075785
#
# number of rings (size 3 to 8) (size 9 to 14) (size 15 to 20)
#    0.000    0.308    7.692    1.385    1.077    3.077 
#    2.769    0.000    0.000    0.000    0.000    0.000 
#    0.000    0.000    0.000    0.000    0.000    0.000 
#
# Total GULP energy -145169.415344 kJ/mol
# GULP energy per Si atom -5583.439052 kJ/mol
# Density = 2.003009 g / cm^3
# Si number density = 20.075785 Si / 1000 Ang^3
#
#
#
# Elastic Constant Matrix: (Units=GPa)
#
#
# Indices 1 2 3 4 5 6 
#
# 1 93.4174 41.4214 31.3807 0.0000 -20.0999 0.0000
# 2 41.4214 155.1490 43.7690 0.0000 -14.9929 0.0000
# 3 31.3807 43.7690 94.4050 0.0000 -23.0621 0.0000
# 4 0.0000 0.0000 0.0000 39.4351 0.0000 -6.0453
# 5 -20.0999 -14.9929 -23.0621 0.0000 38.6957 0.0000
# 6 0.0000 0.0000 0.0000 -6.0453 0.0000 43.2071
#
#
#
# Elastic Compliance Matrix: (Units=1/GPa)
#
#
# Indices 1 2 3 4 5 6 
#
# 1 0.013594 -0.002556 -0.002166 0.000000 0.004780 0.000000
# 2 -0.002556 0.007927 -0.002808 0.000000 0.000070 0.000000
# 3 -0.002166 -0.002808 0.014131 0.000000 0.006209 0.000000
# 4 0.000000 0.000000 0.000000 0.025914 0.000000 0.003626
# 5 0.004780 0.000070 0.006209 0.000000 0.032053 0.000000
# 6 0.000000 0.000000 0.000000 0.003626 0.000000 0.023652
#
#
# Mechanical properties :
#
#
# Convention : Reuss Voigt Hill
#
# Bulk Modulus (GPa) = 48.56430 64.01263 56.28847
# Shear Modulus (GPa) = 35.92053 39.36093 37.64073
#
# Velocity S-wave (km/s) = 4.23454 4.43269 4.33475
# Velocity P-wave (km/s) = 6.93912 7.62581 7.29056
#
# Compressibility (1/GPa) = 0.02059126
#
# Stress axis : x y z
#
# Youngs Moduli (GPa) = 73.56088 126.15214 70.76430
#
# Poissons Ratio (x) = 0.32250 0.15326
# Poissons Ratio (y) = 0.18805 0.19873
# Poissons Ratio (z) = 0.15932 0.35428
#
# Static dielectric constant tensor:
#      x y z
#    x 1.622790 0.000000 -0.036220 
#    y 0.000000 1.472670 0.000000 
#    z -0.036220 0.000000 1.760550 
# 
# From -- ./inp_files/186276.got.cif
#   From: 2010.05.17/outbox.cif.g08.bks.cpg/sg15_94_cif.got.tgz:186276.got - 2010.06.03 18:47:42.
