data_PCOD9306527
_publ_section_title
;
Structure prediction by ZEFSAII (Michael W. Deem and Ramdas Pophale) SiO2 
 PCOD9306527
Probable space group: C 2/C
;
_chemical_formula_sum "Si O2"
_cell_formula_units_Z 32
_cell_length_a 13.014289
_cell_length_b 5.610620
_cell_length_c 17.349869
_cell_angle_alpha 90.000000
_cell_angle_beta 82.623057
_cell_angle_gamma 90.000000
_cell_volume 1256.370843
_symmetry_space_group_name_H-M "C 2/C"
_symmetry_group_IT_number 15
_symmetry_cell_setting 'monoclinic'
loop_
_space_group_symop_operation_xyz
x,y,z
-x,y,1/2-z
-x,-y,-z
x,-y,1/2+z
1/2+x,1/2+y,z
1/2-x,1/2+y,1/2-z
1/2-x,1/2-y,-z
1/2+x,1/2-y,1/2+z
loop_
_atom_site_type_symbol
_atom_site_label
_atom_site_fract_x
_atom_site_fract_y
_atom_site_fract_z
Si Si1 0.109841 0.270999 0.429087
Si Si2 0.440329 0.623661 0.336598
Si Si3 0.191614 0.546030 0.555437
Si Si4 0.750415 0.587058 0.704788
O O1 0.108247 0.413569 0.508876
O O2 0.147273 0.447137 0.357284
O O3 0.017659 0.115317 0.402303
O O4 0.212247 0.112963 0.429410
O O5 0.500000 0.646912 0.250000
O O6 0.368814 0.845911 0.366991
O O7 0.356525 0.415618 0.334144
O O8 0.250000 0.750000 0.500000
O O9 0.741110 0.344236 0.755440
#
# Coordination Sequence:
#
# PCOD9306527 Si02
#       4
#     8   8   8   8
#     4  11  26  49  77 111 158 207 260 321 393 465
#     4  12  26  46  76 116 145 212 258 322 391 470
#     4  11  25  51  75 109 162 204 258 327 386 468
#     4  12  26  52  75 114 164 201 257 329 389 464
#
# _framework density 25.470186999999999
#
# number of rings (size 3 to 8) (size 9 to 14) (size 15 to 20)
#    0.000    0.500    5.000    2.250    0.000    1.000 
#   18.000    0.000    0.000    0.000    0.000    0.000 
#    0.000    0.000    0.000    0.000    0.000    0.000 
#
# Total GULP energy -89487.552954 kJ/mol
# GULP energy per Si atom -5592.972060 kJ/mol
# Density = 2.541222 g / cm^3
# Si number density = 25.470187 Si / 1000 Ang^3
#
#
#
# Elastic Constant Matrix: (Units=GPa)
#
#
# Indices 1 2 3 4 5 6 
#
# 1 120.4285 24.9859 -2.0930 0.0000 45.5304 0.0000
# 2 24.9859 82.6537 30.0274 0.0000 8.6327 0.0000
# 3 -2.0930 30.0274 58.5526 0.0000 20.8535 0.0000
# 4 0.0000 0.0000 0.0000 38.6215 0.0000 3.5214
# 5 45.5304 8.6327 20.8535 0.0000 59.3281 0.0000
# 6 0.0000 0.0000 0.0000 3.5214 0.0000 31.8970
#
#
#
# Elastic Compliance Matrix: (Units=1/GPa)
#
#
# Indices 1 2 3 4 5 6 
#
# 1 0.014813 -0.006152 0.008475 0.000000 -0.013452 0.000000
# 2 -0.006152 0.017442 -0.011365 0.000000 0.006178 0.000000
# 3 0.008475 -0.011365 0.028506 0.000000 -0.014870 0.000000
# 4 0.000000 0.000000 0.000000 0.026156 0.000000 -0.002888
# 5 -0.013452 0.006178 -0.014870 0.000000 0.031507 0.000000
# 6 0.000000 0.000000 0.000000 -0.002888 0.000000 0.031670
#
#
# Mechanical properties :
#
#
# Convention : Reuss Voigt Hill
#
# Bulk Modulus (GPa) = 23.43138 40.83060 32.13099
# Shear Modulus (GPa) = 27.41202 39.88363 33.64782
#
# Velocity S-wave (km/s) = 3.28417 3.96143 3.63859
# Velocity P-wave (km/s) = 4.85804 6.08190 5.50409
#
# Compressibility (1/GPa) = 0.04267781
#
# Stress axis : x y z
#
# Youngs Moduli (GPa) = 67.50770 57.33332 35.08057
#
# Poissons Ratio (x) = 0.35271 -0.29732
# Poissons Ratio (y) = 0.41530 0.39868
# Poissons Ratio (z) = -0.57215 0.65158
#
# Static dielectric constant tensor:
#      x y z
#    x 2.010520 0.000000 0.044770 
#    y 0.000000 2.050690 0.000000 
#    z 0.044770 0.000000 2.123000 
# 
# From -- ./inp_files/201725.got.cif
#   From: 2010.05.17/outbox.cif.g08.bks.cpg/sg15_101_cif.got.tgz:201725.got - 2010.06.03 18:47:42.
