data_PCOD9306302
_publ_section_title
;
Structure prediction by ZEFSAII (Michael W. Deem and Ramdas Pophale) SiO2 
 PCOD9306302
Probable space group: C 2/C
;
_chemical_formula_sum "Si O2"
_cell_formula_units_Z 44
_cell_length_a 13.373199
_cell_length_b 26.428583
_cell_length_c 15.365427
_cell_angle_alpha 90.000000
_cell_angle_beta 160.875644
_cell_angle_gamma 90.000000
_cell_volume 1779.195380
_symmetry_space_group_name_H-M "C 2/C"
_symmetry_group_IT_number 15
_symmetry_cell_setting 'monoclinic'
loop_
_space_group_symop_operation_xyz
x,y,z
-x,y,1/2-z
-x,-y,-z
x,-y,1/2+z
1/2+x,1/2+y,z
1/2-x,1/2+y,1/2-z
1/2-x,1/2-y,-z
1/2+x,1/2-y,1/2+z
loop_
_atom_site_type_symbol
_atom_site_label
_atom_site_fract_x
_atom_site_fract_y
_atom_site_fract_z
Si Si1 0.500000 0.714028 0.750000
Si Si2 0.000000 0.385328 0.250000
Si Si3 0.751516 0.064906 0.799149
Si Si4 0.500000 0.680142 0.250000
Si Si5 0.158792 0.781285 0.692875
Si Si6 0.427508 0.964521 0.791074
Si Si7 0.607902 0.134959 0.527643
O O1 0.250000 0.750000 0.500000
O O2 0.352796 0.675709 0.698463
O O3 0.241667 0.416919 0.391094
O O4 0.201052 0.352878 0.482526
O O5 0.648139 0.111091 0.654943
O O6 0.523322 0.016545 0.615149
O O7 0.075772 0.048569 0.025550
O O8 0.466805 0.710491 0.312697
O O9 0.927971 0.758196 0.434403
O O10 0.292809 0.833885 0.768469
O O11 0.500000 0.973514 0.750000
O O12 0.608305 0.914553 0.967598
#
# Coordination Sequence:
#
# PCOD9306302 Si02
#       7
#     4   4   8   4   8   8   8
#     4  12  30  52  80 118 154 208 270 332 396 466
#     4  12  24  47  75 114 152 205 244 323 372 476
#     4  11  25  46  75 114 153 206 261 315 402 470
#     4  12  24  45  73 102 150 193 254 295 394 440
#     4  12  26  44  70 104 145 195 250 313 376 457
#     4  11  25  47  76 112 154 202 263 325 395 475
#     4  12  26  47  76 104 153 201 257 321 395 465
#
# _framework density 24.73028
#
# number of rings (size 3 to 8) (size 9 to 14) (size 15 to 20)
#    0.000    0.364    2.727    5.455    6.364    0.000 
#    0.000    0.000    0.000    0.000    0.000    0.000 
#    0.000    0.000    0.000    0.000    0.000    0.000 
#
# Total GULP energy -123191.977641 kJ/mol
# GULP energy per Si atom -5599.635347 kJ/mol
# Density = 2.467399 g / cm^3
# Si number density = 24.730280 Si / 1000 Ang^3
#
#
#
# Elastic Constant Matrix: (Units=GPa)
#
#
# Indices 1 2 3 4 5 6 
#
# 1 168.5303 69.5675 36.6122 0.0145 10.9568 -0.0068
# 2 69.5675 162.9738 49.2260 0.0217 5.5422 -0.0078
# 3 36.6122 49.2260 80.4629 0.1387 4.9183 -0.0341
# 4 0.0145 0.0217 0.1387 2.1389 0.0336 19.6974
# 5 10.9568 5.5422 4.9183 0.0336 29.2858 -0.0108
# 6 -0.0068 -0.0078 -0.0341 19.6974 -0.0108 68.0661
#
#
#
# Elastic Compliance Matrix: (Units=1/GPa)
#
#
# Indices 1 2 3 4 5 6 
#
# 1 0.007518 -0.002630 -0.001687 -0.000074 -0.002032 0.000021
# 2 -0.002630 0.008460 -0.003982 -0.000121 0.000052 0.000034
# 3 -0.001687 -0.003982 0.015707 0.000608 -0.001254 -0.000169
# 4 -0.000074 -0.000121 0.000608 -0.280770 0.000301 0.081252
# 5 -0.002032 0.000052 -0.001254 0.000301 0.035107 -0.000082
# 6 0.000021 0.000034 -0.000169 0.081252 -0.000082 -0.008822
#
#
# Mechanical properties :
#
#
# Convention : Reuss Voigt Hill
#
# Bulk Modulus (GPa) = 66.28494 80.30873 73.29684
# Shear Modulus (GPa) = -24.85425 37.00224 6.07399
#
# Velocity S-wave (km/s) = -3.17363 3.87231 1.56889
# Velocity P-wave (km/s) = 3.66498 7.24827 5.74323
#
# Compressibility (1/GPa) = 0.01508638
#
# Stress axis : x y z
#
# Youngs Moduli (GPa) = 133.01193 118.20792 63.66504
#
# Poissons Ratio (x) = 0.31094 0.10742
# Poissons Ratio (y) = 0.34988 0.25348
# Poissons Ratio (z) = 0.22443 0.47065
#
# Static dielectric constant tensor:
#      x y z
#    x 1.958010 0.000000 0.029870 
#    y 0.000000 1.992940 0.000010 
#    z 0.029870 0.000010 1.940600 
# 
# From -- ./inp_files/207401.got.cif
#   From: 2010.05.17/outbox.cif.g08.bks.cpg/sg15_104_cif.got.tgz:207401.got - 2010.06.03 18:47:42.
