data_PCOD9306707
_publ_section_title
;
Structure prediction by ZEFSAII (Michael W. Deem and Ramdas Pophale) SiO2 
 PCOD9306707
Probable space group: C 2/C
;
_chemical_formula_sum "Si O2"
_cell_formula_units_Z 44
_cell_length_a 14.065779
_cell_length_b 5.267648
_cell_length_c 23.371957
_cell_angle_alpha 90.000000
_cell_angle_beta 87.144102
_cell_angle_gamma 90.000000
_cell_volume 1729.561014
_symmetry_space_group_name_H-M "C 2/C"
_symmetry_group_IT_number 15
_symmetry_cell_setting 'monoclinic'
loop_
_space_group_symop_operation_xyz
x,y,z
-x,y,1/2-z
-x,-y,-z
x,-y,1/2+z
1/2+x,1/2+y,z
1/2-x,1/2+y,1/2-z
1/2-x,1/2-y,-z
1/2+x,1/2-y,1/2+z
loop_
_atom_site_type_symbol
_atom_site_label
_atom_site_fract_x
_atom_site_fract_y
_atom_site_fract_z
Si Si1 0.351688 0.030636 0.025819
Si Si2 0.643983 0.629032 0.304663
Si Si3 0.000000 0.253588 0.750000
Si Si4 0.646145 0.944011 0.194007
Si Si5 0.343411 0.361621 0.918877
Si Si6 0.056141 0.046518 0.428467
O O1 0.249397 0.984439 0.058974
O O2 0.393070 0.285410 0.055003
O O3 0.416400 0.786156 0.032816
O O4 0.338680 0.112408 0.960238
O O5 0.587115 0.411648 0.271797
O O6 0.641133 0.856238 0.260048
O O7 0.754343 0.585441 0.314809
O O8 0.590664 0.642703 0.365761
O O9 0.952049 0.401457 0.805065
O O10 0.652964 0.722615 0.147117
O O11 0.443578 0.488740 0.929277
#
# Coordination Sequence:
#
# PCOD9306707 Si02
#       6
#     8   8   4   8   8   8
#     4  11  28  50  75 114 146 202 250 310 363 448
#     4  12  27  46  75 110 142 197 244 309 372 447
#     4  12  26  48  76 100 150 190 250 296 394 428
#     4  12  26  48  73 108 148 192 245 313 363 454
#     4  11  26  48  77 107 152 198 252 305 378 434
#     4  12  27  49  79 108 154 192 254 307 373 441
#
# _framework density 25.439979999999998
#
# number of rings (size 3 to 8) (size 9 to 14) (size 15 to 20)
#    0.000    0.364    3.636    3.818    7.636    5.818 
#    3.273    0.000    0.000    0.000    0.000    0.000 
#    0.000    0.000    0.000    0.000    0.000    0.000 
#
# Total GULP energy -123328.233868 kJ/mol
# GULP energy per Si atom -5605.828812 kJ/mol
# Density = 2.538208 g / cm^3
# Si number density = 25.439980 Si / 1000 Ang^3
#
#
#
# Elastic Constant Matrix: (Units=GPa)
#
#
# Indices 1 2 3 4 5 6 
#
# 1 149.5660 9.8268 -4.0002 0.0000 -21.2152 0.0000
# 2 9.8268 56.1482 5.5853 0.0000 9.8699 0.0000
# 3 -4.0002 5.5853 125.8820 0.0000 -18.7947 0.0000
# 4 0.0000 0.0000 0.0000 21.3695 0.0000 -6.1169
# 5 -21.2152 9.8699 -18.7947 0.0000 41.2288 0.0000
# 6 0.0000 0.0000 0.0000 -6.1169 0.0000 15.1822
#
#
#
# Elastic Compliance Matrix: (Units=1/GPa)
#
#
# Indices 1 2 3 4 5 6 
#
# 1 0.007566 -0.002299 0.001079 0.000000 0.004936 0.000000
# 2 -0.002299 0.019596 -0.001952 0.000000 -0.006764 0.000000
# 3 0.001079 -0.001952 0.008818 0.000000 0.005043 0.000000
# 4 0.000000 0.000000 0.000000 0.052896 0.000000 0.021312
# 5 0.004936 -0.006764 0.005043 0.000000 0.030713 0.000000
# 6 0.000000 0.000000 0.000000 0.021312 0.000000 0.074453
#
#
# Mechanical properties :
#
#
# Convention : Reuss Voigt Hill
#
# Bulk Modulus (GPa) = 33.74387 39.37998 36.56193
# Shear Modulus (GPa) = 23.77963 36.90172 30.34068
#
# Velocity S-wave (km/s) = 3.06066 3.81273 3.45721
# Velocity P-wave (km/s) = 5.07771 5.90726 5.50812
#
# Compressibility (1/GPa) = 0.02963501
#
# Stress axis : x y z
#
# Youngs Moduli (GPa) = 132.16932 51.03173 113.40772
#
# Poissons Ratio (x) = 0.11733 -0.12241
# Poissons Ratio (y) = 0.30388 0.22142
# Poissons Ratio (z) = -0.14266 0.09964
#
# Static dielectric constant tensor:
#      x y z
#    x 1.936900 0.000000 0.014720 
#    y 0.000000 2.054050 0.000000 
#    z 0.014720 0.000000 1.982360 
# 
# From -- ./inp_files/271880.got.cif
#   From: 2010.05.17/outbox.cif.g08.bks.cpg/sg15_136_cif.got.tgz:271880.got - 2010.06.03 18:47:42.
