data_PCOD9306105
_publ_section_title
;
Structure prediction by ZEFSAII (Michael W. Deem and Ramdas Pophale) SiO2 
 PCOD9306105
Probable space group: C 2/C
;
_chemical_formula_sum "Si O2"
_cell_formula_units_Z 48
_cell_length_a 21.650426
_cell_length_b 7.236276
_cell_length_c 13.752122
_cell_angle_alpha 90.000000
_cell_angle_beta 120.849657
_cell_angle_gamma 90.000000
_cell_volume 1849.692675
_symmetry_space_group_name_H-M "C 2/C"
_symmetry_group_IT_number 15
_symmetry_cell_setting 'monoclinic'
loop_
_space_group_symop_operation_xyz
x,y,z
-x,y,1/2-z
-x,-y,-z
x,-y,1/2+z
1/2+x,1/2+y,z
1/2-x,1/2+y,1/2-z
1/2-x,1/2-y,-z
1/2+x,1/2-y,1/2+z
loop_
_atom_site_type_symbol
_atom_site_label
_atom_site_fract_x
_atom_site_fract_y
_atom_site_fract_z
Si Si1 0.418303 0.814869 0.479268
Si Si2 0.000487 0.227809 0.151767
Si Si3 0.136009 0.095177 0.552709
Si Si4 0.057178 0.185248 0.690617
Si Si5 0.214281 0.413205 0.661784
Si Si6 0.205561 0.239505 0.863265
O O1 0.460162 0.813623 0.409285
O O2 0.373429 0.623718 0.453350
O O3 0.483901 0.796338 0.609412
O O4 0.358666 0.974138 0.425001
O O5 0.000000 0.340958 0.250000
O O6 0.037724 0.027291 0.195338
O O7 0.917799 0.175160 0.069759
O O8 0.097801 0.167723 0.620324
O O9 0.222830 0.037021 0.831988
O O10 0.119954 0.257785 0.811314
O O11 0.221519 0.374291 0.783475
O O12 0.208586 0.212464 0.607338
O O13 0.250000 0.250000 0.000000
#
# Coordination Sequence:
#
# PCOD9306105 Si02
#       6
#     8   8   8   8   8   8
#     4   9  19  40  70  95 128 187 229 297 360 414
#     4   9  17  31  60 100 129 166 225 289 355 419
#     4   8  18  37  60  90 125 168 231 270 353 413
#     4   8  18  39  61  90 137 171 233 290 344 412
#     4  11  25  44  73  94 147 190 233 303 357 415
#     4  11  27  47  68 108 144 195 250 286 364 454
#
# _framework density 25.950258000000002
#
# number of rings (size 3 to 8) (size 9 to 14) (size 15 to 20)
#    0.000    2.667    0.000    2.000    7.000   10.000 
#    3.000    0.833    0.000    9.000    0.000    0.000 
#    0.000    0.000    0.000    0.000    0.000    0.000 
#
# Total GULP energy -134052.058006 kJ/mol
# GULP energy per Si atom -5585.502417 kJ/mol
# Density = 2.589119 g / cm^3
# Si number density = 25.950258 Si / 1000 Ang^3
#
#
#
# Elastic Constant Matrix: (Units=GPa)
#
#
# Indices 1 2 3 4 5 6 
#
# 1 77.8599 25.3969 59.4865 0.0000 7.6951 0.0000
# 2 25.3969 145.2660 57.3880 0.0000 18.8349 0.0000
# 3 59.4865 57.3880 201.4448 0.0000 32.9832 0.0000
# 4 0.0000 0.0000 0.0000 13.6260 0.0000 28.2155
# 5 7.6951 18.8349 32.9832 0.0000 46.4111 0.0000
# 6 0.0000 0.0000 0.0000 28.2155 0.0000 38.9030
#
#
#
# Elastic Compliance Matrix: (Units=1/GPa)
#
#
# Indices 1 2 3 4 5 6 
#
# 1 0.016789 -0.001182 -0.004803 0.000000 0.001109 0.000000
# 2 -0.001182 0.007973 -0.001612 0.000000 -0.001894 0.000000
# 3 -0.004803 -0.001612 0.007474 0.000000 -0.003861 0.000000
# 4 0.000000 0.000000 0.000000 -0.146239 0.000000 0.106064
# 5 0.001109 -0.001894 -0.003861 0.000000 0.024875 0.000000
# 6 0.000000 0.000000 0.000000 0.106064 0.000000 -0.051221
#
#
# Mechanical properties :
#
#
# Convention : Reuss Voigt Hill
#
# Bulk Modulus (GPa) = 58.67754 78.79039 68.73397
# Shear Modulus (GPa) = -41.84981 38.60797 -1.62092
#
# Velocity S-wave (km/s) = -4.02019 3.86134 -0.79119
# Velocity P-wave (km/s) = 1.05422 7.09281 5.07047
#
# Compressibility (1/GPa) = 0.01704230
#
# Stress axis : x y z
#
# Youngs Moduli (GPa) = 59.56377 125.42280 133.80022
#
# Poissons Ratio (x) = 0.14821 0.64260
# Poissons Ratio (y) = 0.07038 0.21573
# Poissons Ratio (z) = 0.28606 0.20222
#
# Static dielectric constant tensor:
#      x y z
#    x 2.076500 0.000000 0.035160 
#    y 0.000000 2.061470 0.000000 
#    z 0.035160 0.000000 2.173530 
# 
# From -- ./inp_files/180918.got.cif
#   From: 2010.05.17/outbox.cif.g08.bks.cpg/sg15_91_cif.got.tgz:180918.got - 2010.06.03 18:47:42.
