data_PCOD9306395
_publ_section_title
;
Structure prediction by ZEFSAII (Michael W. Deem and Ramdas Pophale) SiO2 
 PCOD9306395
Probable space group: C 2/C
;
_chemical_formula_sum "Si O2"
_cell_formula_units_Z 60
_cell_length_a 19.445391
_cell_length_b 16.241430
_cell_length_c 11.608038
_cell_angle_alpha 90.000000
_cell_angle_beta 134.195241
_cell_angle_gamma 90.000000
_cell_volume 2628.450778
_symmetry_space_group_name_H-M "C 2/C"
_symmetry_group_IT_number 15
_symmetry_cell_setting 'monoclinic'
loop_
_space_group_symop_operation_xyz
x,y,z
-x,y,1/2-z
-x,-y,-z
x,-y,1/2+z
1/2+x,1/2+y,z
1/2-x,1/2+y,1/2-z
1/2-x,1/2-y,-z
1/2+x,1/2-y,1/2+z
loop_
_atom_site_type_symbol
_atom_site_label
_atom_site_fract_x
_atom_site_fract_y
_atom_site_fract_z
Si Si1 0.195252 0.042856 0.176307
Si Si2 0.369417 0.631648 0.856023
Si Si3 0.901193 0.489851 0.456498
Si Si4 0.113723 0.836483 0.388762
Si Si5 0.176990 0.699030 0.621599
Si Si6 0.641305 0.757428 0.328912
Si Si7 0.945991 0.904096 0.790415
Si Si8 0.500000 0.100434 0.750000
O O1 0.141559 0.058948 0.236748
O O2 0.171193 0.948081 0.127409
O O3 0.310275 0.042947 0.306223
O O4 0.150473 0.100937 0.028382
O O5 0.360718 0.629307 0.707319
O O6 0.290458 0.701148 0.785628
O O7 0.477678 0.628533 0.025675
O O8 0.865813 0.394669 0.430082
O O9 0.930356 0.536723 0.605173
O O10 0.000000 0.500000 0.500000
O O11 0.155388 0.748313 0.479687
O O12 0.000000 0.827084 0.250000
O O13 0.134140 0.745172 0.681862
O O14 0.750000 0.750000 0.500000
O O15 0.594916 0.674732 0.323000
O O16 0.577459 0.836790 0.284563
O O17 0.000000 0.954011 0.750000
#
# Coordination Sequence:
#
# PCOD9306395 Si02
#       8
#     8   8   8   8   8   8   8   4
#     4  11  26  45  73 108 146 191 245 307 375 449
#     4  11  26  44  71 108 142 193 247 299 383 447
#     4  11  26  49  72 105 144 199 251 307 369 448
#     4  12  25  47  73 106 153 194 244 310 375 454
#     4  11  25  48  70 104 147 194 250 305 374 448
#     4  12  24  44  70 107 143 187 248 308 373 446
#     4  12  24  43  72 107 144 191 238 311 378 451
#     4  12  26  44  76 104 142 196 250 308 374 440
#
# _framework density 22.827134999999998
#
# number of rings (size 3 to 8) (size 9 to 14) (size 15 to 20)
#    0.000    0.533    4.667    2.400    2.800    2.133 
#    2.400    0.000    0.000    0.000    0.000    0.000 
#    0.000    0.000    0.000    0.000    0.000    0.000 
#
# Total GULP energy -167246.051356 kJ/mol
# GULP energy per Si atom -5574.868379 kJ/mol
# Density = 2.277518 g / cm^3
# Si number density = 22.827135 Si / 1000 Ang^3
#
#
#
# Elastic Constant Matrix: (Units=GPa)
#
#
# Indices 1 2 3 4 5 6 
#
# 1 100.4984 5.0974 34.8951 0.0000 11.7384 0.0000
# 2 5.0974 69.4109 39.6712 0.0000 6.8869 0.0000
# 3 34.8951 39.6712 135.5823 0.0000 28.2632 0.0000
# 4 0.0000 0.0000 0.0000 5.6812 0.0000 -10.1011
# 5 11.7384 6.8869 28.2632 0.0000 50.9855 0.0000
# 6 0.0000 0.0000 0.0000 -10.1011 0.0000 23.2541
#
#
#
# Elastic Compliance Matrix: (Units=1/GPa)
#
#
# Indices 1 2 3 4 5 6 
#
# 1 0.011032 0.000950 -0.002896 0.000000 -0.001063 0.000000
# 2 0.000950 0.017395 -0.005426 0.000000 0.000439 0.000000
# 3 -0.002896 -0.005426 0.010647 0.000000 -0.004502 0.000000
# 4 0.000000 0.000000 0.000000 0.773118 0.000000 0.335828
# 5 -0.001063 0.000439 -0.004502 0.000000 0.022295 0.000000
# 6 0.000000 0.000000 0.000000 0.335828 0.000000 0.188881
#
#
# Mechanical properties :
#
#
# Convention : Reuss Voigt Hill
#
# Bulk Modulus (GPa) = 41.09971 51.64653 46.37312
# Shear Modulus (GPa) = 4.77911 31.03936 17.90924
#
# Velocity S-wave (km/s) = 1.44850 3.69149 2.80404
# Velocity P-wave (km/s) = 4.56524 6.39090 5.55360
#
# Compressibility (1/GPa) = 0.02433107
#
# Stress axis : x y z
#
# Youngs Moduli (GPa) = 90.64679 57.48889 93.92271
#
# Poissons Ratio (x) = -0.05464 0.27198
# Poissons Ratio (y) = -0.08615 0.50961
# Poissons Ratio (z) = 0.26249 0.31193
#
# Static dielectric constant tensor:
#      x y z
#    x 2.107450 0.000000 0.159750 
#    y 0.000000 1.857760 0.000000 
#    z 0.159750 0.000000 2.009470 
# 
# From -- ./inp_files/113817.got.cif
#   From: 2010.05.17/outbox.cif.g08.bks.cpg/sg15_57_cif.got.tgz:113817.got - 2010.06.03 18:47:42.
