data_PCOD9306954
_publ_section_title
;
Structure prediction by ZEFSAII (Michael W. Deem and Ramdas Pophale) SiO2 
 PCOD9306954
Probable space group: C 2/C
;
_chemical_formula_sum "Si O2"
_cell_formula_units_Z 44
_cell_length_a 20.005318
_cell_length_b 6.688061
_cell_length_c 16.335030
_cell_angle_alpha 90.000000
_cell_angle_beta 97.201150
_cell_angle_gamma 90.000000
_cell_volume 2168.335125
_symmetry_space_group_name_H-M "C 2/C"
_symmetry_group_IT_number 15
_symmetry_cell_setting 'monoclinic'
loop_
_space_group_symop_operation_xyz
x,y,z
-x,y,1/2-z
-x,-y,-z
x,-y,1/2+z
1/2+x,1/2+y,z
1/2-x,1/2+y,1/2-z
1/2-x,1/2-y,-z
1/2+x,1/2-y,1/2+z
loop_
_atom_site_type_symbol
_atom_site_label
_atom_site_fract_x
_atom_site_fract_y
_atom_site_fract_z
Si Si1 0.423360 0.076135 0.491250
Si Si2 0.828226 0.200420 0.517239
Si Si3 0.500000 0.046988 0.250000
Si Si4 0.983812 0.187204 0.137407
Si Si5 0.111198 0.117196 0.797089
Si Si6 0.385430 0.429759 0.382632
O O1 0.429853 0.245222 0.561731
O O2 0.399444 0.201417 0.409713
O O3 0.500000 0.000000 0.500000
O O4 0.374578 0.894323 0.505180
O O5 0.750000 0.250000 0.500000
O O6 0.846029 0.137211 0.613390
O O7 0.844765 0.041097 0.447858
O O8 0.436665 0.187445 0.219794
O O9 0.512930 0.892357 0.178329
O O10 0.042461 0.045328 0.111996
O O11 0.940012 0.065068 0.195486
O O12 0.144648 0.073888 0.714035
#
# Coordination Sequence:
#
# PCOD9306954 Si02
#       6
#     8   8   4   8   8   8
#     4  12  23  41  75 101 133 183 232 292 363 417
#     4  12  29  50  66  99 148 194 242 289 358 433
#     4  12  20  36  70 108 140 176 226 298 370 410
#     4  12  21  38  69 109 144 174 227 306 361 408
#     4  12  24  43  67 104 146 176 235 301 350 422
#     4  12  24  42  70 103 140 179 236 292 356 423
#
# _framework density 20.292065999999998
#
# number of rings (size 3 to 8) (size 9 to 14) (size 15 to 20)
#    0.000    0.000    9.091    2.727    0.000    0.727 
#    3.273    0.000    0.000    0.000    0.000    0.000 
#    0.000    0.000    0.000    0.000    0.000    0.000 
#
# Total GULP energy -122868.116128 kJ/mol
# GULP energy per Si atom -5584.914369 kJ/mol
# Density = 2.024588 g / cm^3
# Si number density = 20.292066 Si / 1000 Ang^3
#
#
#
# Elastic Constant Matrix: (Units=GPa)
#
#
# Indices 1 2 3 4 5 6 
#
# 1 105.0573 33.3301 60.6738 0.0000 5.3353 0.0000
# 2 33.3301 89.6193 54.8636 0.0000 -5.7088 0.0000
# 3 60.6738 54.8636 186.5395 0.0000 -0.1168 0.0000
# 4 0.0000 0.0000 0.0000 53.2586 0.0000 -7.0152
# 5 5.3353 -5.7088 -0.1168 0.0000 23.5295 0.0000
# 6 0.0000 0.0000 0.0000 -7.0152 0.0000 13.3516
#
#
#
# Elastic Compliance Matrix: (Units=1/GPa)
#
#
# Indices 1 2 3 4 5 6 
#
# 1 0.012470 -0.002902 -0.003205 0.000000 -0.003548 0.000000
# 2 -0.002902 0.014542 -0.003331 0.000000 0.004170 0.000000
# 3 -0.003205 -0.003331 0.007383 0.000000 -0.000045 0.000000
# 4 0.000000 0.000000 0.000000 0.020172 0.000000 0.010599
# 5 -0.003548 0.004170 -0.000045 0.000000 0.044316 0.000000
# 6 0.000000 0.000000 0.000000 0.010599 0.000000 0.080466
#
#
# Mechanical properties :
#
#
# Convention : Reuss Voigt Hill
#
# Bulk Modulus (GPa) = 64.43028 75.43901 69.93464
# Shear Modulus (GPa) = 24.58245 33.51787 29.05016
#
# Velocity S-wave (km/s) = 3.48434 4.06861 3.78776
# Velocity P-wave (km/s) = 6.92877 7.70252 7.32587
#
# Compressibility (1/GPa) = 0.01552065
#
# Stress axis : x y z
#
# Youngs Moduli (GPa) = 80.19055 68.76614 135.45125
#
# Poissons Ratio (x) = 0.19955 0.43410
# Poissons Ratio (y) = 0.23270 0.45113
# Poissons Ratio (z) = 0.25700 0.22903
#
# Static dielectric constant tensor:
#      x y z
#    x 1.603640 0.000000 0.033280 
#    y 0.000000 1.660110 0.000000 
#    z 0.033280 0.000000 1.841630 
# 
# From -- ./inp_files/212930.got.cif
#   From: 2010.05.17/outbox.cif.g08.bks.cpg/sg15_107_cif.got.tgz:212930.got - 2010.06.03 18:47:42.
