data_PCOD9306045
_publ_section_title
;
Structure prediction by ZEFSAII (Michael W. Deem and Ramdas Pophale) SiO2 
 PCOD9306045
Probable space group: C 2/C
;
_chemical_formula_sum "Si O2"
_cell_formula_units_Z 52
_cell_length_a 33.899106
_cell_length_b 12.705620
_cell_length_c 9.463844
_cell_angle_alpha 90.000000
_cell_angle_beta 31.841505
_cell_angle_gamma 90.000000
_cell_volume 2150.467370
_symmetry_space_group_name_H-M "C 2/C"
_symmetry_group_IT_number 15
_symmetry_cell_setting 'monoclinic'
loop_
_space_group_symop_operation_xyz
x,y,z
-x,y,1/2-z
-x,-y,-z
x,-y,1/2+z
1/2+x,1/2+y,z
1/2-x,1/2+y,1/2-z
1/2-x,1/2-y,-z
1/2+x,1/2-y,1/2+z
loop_
_atom_site_type_symbol
_atom_site_label
_atom_site_fract_x
_atom_site_fract_y
_atom_site_fract_z
Si Si1 0.000000 0.196317 0.250000
Si Si2 0.917140 0.526617 0.558838
Si Si3 0.409958 0.854892 0.363955
Si Si4 0.416445 0.392947 0.447997
Si Si5 0.181511 0.694357 0.788782
Si Si6 0.373661 0.444303 0.281744
Si Si7 0.249458 0.726075 0.165466
O O1 0.973730 0.268991 0.198440
O O2 0.930525 0.126855 0.515440
O O3 0.903020 0.410507 0.538622
O O4 0.920880 0.554718 0.713142
O O5 0.850822 0.593510 0.689595
O O6 0.000000 0.555822 0.250000
O O7 0.336335 0.794415 0.537495
O O8 0.500000 0.390582 0.250000
O O9 0.386165 0.277854 0.506607
O O10 0.410260 0.459374 0.323107
O O11 0.365321 0.448611 0.721463
O O12 0.250000 0.750000 0.500000
O O13 0.211499 0.685784 0.857218
O O14 0.297566 0.380451 0.538198
O O15 0.250000 0.750000 0.000000
#
# Coordination Sequence:
#
# PCOD9306045 Si02
#       7
#     4   8   8   8   8   8   8
#     4  12  26  46  70 106 140 180 242 280 358 414
#     4  12  28  47  75 104 142 188 239 302 351 422
#     4  12  28  46  74 104 143 187 241 291 357 422
#     4  11  25  43  69 102 136 179 229 280 352 405
#     4  11  26  46  67 104 139 187 237 282 353 416
#     4  11  26  42  72 100 138 178 229 288 342 426
#     4  11  25  45  68 101 142 189 224 292 350 415
#
# _framework density 24.180789999999998
#
# number of rings (size 3 to 8) (size 9 to 14) (size 15 to 20)
#    0.000    0.615    4.615    1.385   10.769    1.231 
#    0.000    0.000    0.000    0.000    0.000    0.000 
#    0.000    0.000    0.000    0.000    0.000    0.000 
#
# Total GULP energy -145567.369333 kJ/mol
# GULP energy per Si atom -5598.744974 kJ/mol
# Density = 2.412575 g / cm^3
# Si number density = 24.180790 Si / 1000 Ang^3
#
#
#
# Elastic Constant Matrix: (Units=GPa)
#
#
# Indices 1 2 3 4 5 6 
#
# 1 158.1759 16.2647 26.1305 0.0000 -2.7464 0.0000
# 2 16.2647 41.0673 -6.6239 0.0000 -10.1609 0.0000
# 3 26.1305 -6.6239 35.7201 0.0000 -6.9898 0.0000
# 4 0.0000 0.0000 0.0000 23.2596 0.0000 4.2926
# 5 -2.7464 -10.1609 -6.9898 0.0000 47.9106 0.0000
# 6 0.0000 0.0000 0.0000 4.2926 0.0000 35.3085
#
#
#
# Elastic Compliance Matrix: (Units=1/GPa)
#
#
# Indices 1 2 3 4 5 6 
#
# 1 0.007922 -0.004642 -0.006959 0.000000 -0.001546 0.000000
# 2 -0.004642 0.029734 0.010388 0.000000 0.007555 0.000000
# 3 -0.006959 0.010388 0.036405 0.000000 0.007115 0.000000
# 4 0.000000 0.000000 0.000000 0.043980 0.000000 -0.005347
# 5 -0.001546 0.007555 0.007115 0.000000 0.023424 0.000000
# 6 0.000000 0.000000 0.000000 -0.005347 0.000000 0.028972
#
#
# Mechanical properties :
#
#
# Convention : Reuss Voigt Hill
#
# Bulk Modulus (GPa) = 13.95960 34.05621 24.00790
# Shear Modulus (GPa) = 25.41420 34.57520 29.99470
#
# Velocity S-wave (km/s) = 3.24544 3.78545 3.52580
# Velocity P-wave (km/s) = 4.45302 5.76375 5.15025
#
# Compressibility (1/GPa) = 0.07163531
#
# Stress axis : x y z
#
# Youngs Moduli (GPa) = 126.22796 33.63176 27.46890
#
# Poissons Ratio (x) = 0.15613 0.19115
# Poissons Ratio (y) = 0.58600 -0.28536
# Poissons Ratio (z) = 0.87838 -0.34938
#
# Static dielectric constant tensor:
#      x y z
#    x 1.903630 0.000000 0.045350 
#    y 0.000000 1.919500 0.000000 
#    z 0.045350 0.000000 1.903540 
# 
# From -- ./inp_files/70092.got.cif
#   From: 2010.05.17/outbox.cif.g08.bks.cpg/sg15_36_cif.got.tgz:70092.got - 2010.06.03 18:47:42.
