data_PCOD9306022
_publ_section_title
;
Structure prediction by ZEFSAII (Michael W. Deem and Ramdas Pophale) SiO2 
 PCOD9306022
Probable space group: C 2/C
;
_chemical_formula_sum "Si O2"
_cell_formula_units_Z 40
_cell_length_a 9.062045
_cell_length_b 10.524828
_cell_length_c 20.710827
_cell_angle_alpha 90.000000
_cell_angle_beta 104.873827
_cell_angle_gamma 90.000000
_cell_volume 1909.139100
_symmetry_space_group_name_H-M "C 2/C"
_symmetry_group_IT_number 15
_symmetry_cell_setting 'monoclinic'
loop_
_space_group_symop_operation_xyz
x,y,z
-x,y,1/2-z
-x,-y,-z
x,-y,1/2+z
1/2+x,1/2+y,z
1/2-x,1/2+y,1/2-z
1/2-x,1/2-y,-z
1/2+x,1/2-y,1/2+z
loop_
_atom_site_type_symbol
_atom_site_label
_atom_site_fract_x
_atom_site_fract_y
_atom_site_fract_z
Si Si1 0.859477 0.348493 0.283254
Si Si2 0.866259 0.066585 0.288120
Si Si3 0.921811 0.299197 0.530857
Si Si4 0.581213 0.439443 0.073289
Si Si5 0.572556 0.909145 0.425016
O O1 0.792019 0.206617 0.279979
O O2 0.745819 0.454831 0.245563
O O3 0.000000 0.342215 0.250000
O O4 0.939290 0.385990 0.358894
O O5 0.000000 0.067379 0.250000
O O6 0.922105 0.035940 0.367084
O O7 0.750000 0.250000 0.500000
O O8 0.925364 0.441327 0.557789
O O9 0.993115 0.188907 0.582037
O O10 0.026399 0.316776 0.478690
O O11 0.754395 0.393547 0.079568
O O12 0.500000 0.500000 0.000000
#
# Coordination Sequence:
#
# PCOD9306022 Si02
#       5
#     8   8   8   8   8
#     4  11  25  47  68  99 137 182 235 277 355 415
#     4  11  28  44  70 104 139 182 231 292 343 422
#     4  11  25  42  67 107 136 177 233 285 351 417
#     4  12  24  45  72  99 140 185 233 285 354 413
#     4  11  25  43  69  99 139 182 227 292 345 421
#
# _framework density 20.951851000000001
#
# number of rings (size 3 to 8) (size 9 to 14) (size 15 to 20)
#    0.000    0.800    4.000    1.800    5.600    0.800 
#    0.000    0.000    0.000    0.000    0.000    0.000 
#    0.000    0.000    0.000    0.000    0.000    0.000 
#
# Total GULP energy -111703.779290 kJ/mol
# GULP energy per Si atom -5585.188964 kJ/mol
# Density = 2.090416 g / cm^3
# Si number density = 20.951851 Si / 1000 Ang^3
#
#
#
# Elastic Constant Matrix: (Units=GPa)
#
#
# Indices 1 2 3 4 5 6 
#
# 1 82.9134 40.3782 18.3689 0.0000 3.2244 0.0000
# 2 40.3782 170.7265 41.9962 0.0000 22.8034 0.0000
# 3 18.3689 41.9962 89.3930 0.0000 16.4592 0.0000
# 4 0.0000 0.0000 0.0000 35.4407 0.0000 16.8456
# 5 3.2244 22.8034 16.4592 0.0000 22.8249 0.0000
# 6 0.0000 0.0000 0.0000 16.8456 0.0000 38.5797
#
#
#
# Elastic Compliance Matrix: (Units=1/GPa)
#
#
# Indices 1 2 3 4 5 6 
#
# 1 0.013916 -0.003179 -0.001832 0.000000 0.002531 0.000000
# 2 -0.003179 0.007893 -0.001944 0.000000 -0.006035 0.000000
# 3 -0.001832 -0.001944 0.013919 0.000000 -0.007836 0.000000
# 4 0.000000 0.000000 0.000000 0.035606 0.000000 -0.015547
# 5 0.002531 -0.006035 -0.007836 0.000000 0.055135 0.000000
# 6 0.000000 0.000000 0.000000 -0.015547 0.000000 0.032709
#
#
# Mechanical properties :
#
#
# Convention : Reuss Voigt Hill
#
# Bulk Modulus (GPa) = 45.83141 60.50217 53.16679
# Shear Modulus (GPa) = 27.72219 35.52168 31.62194
#
# Velocity S-wave (km/s) = 3.64144 4.12199 3.88914
# Velocity P-wave (km/s) = 6.29303 7.18288 6.75263
#
# Compressibility (1/GPa) = 0.02181910
#
# Stress axis : x y z
#
# Youngs Moduli (GPa) = 71.85840 126.68877 71.84365
#
# Poissons Ratio (x) = 0.40270 0.13164
# Poissons Ratio (y) = 0.22841 0.13966
# Poissons Ratio (z) = 0.13166 0.24627
#
# Static dielectric constant tensor:
#      x y z
#    x 1.713110 0.000000 -0.057210 
#    y 0.000000 1.752300 0.000000 
#    z -0.057210 0.000000 1.793970 
# 
# From -- ./inp_files/229950.got.cif
#   From: 2010.05.17/outbox.cif.g08.bks.cpg/sg15_115_cif.got.tgz:229950.got - 2010.06.03 18:47:42.
