data_PCOD9306365
_publ_section_title
;
Structure prediction by ZEFSAII (Michael W. Deem and Ramdas Pophale) SiO2 
 PCOD9306365
Probable space group: C 2/C
;
_chemical_formula_sum "Si O2"
_cell_formula_units_Z 24
_cell_length_a 7.628475
_cell_length_b 27.860742
_cell_length_c 9.235319
_cell_angle_alpha 90.000000
_cell_angle_beta 33.955380
_cell_angle_gamma 90.000000
_cell_volume 1096.332060
_symmetry_space_group_name_H-M "C 2/C"
_symmetry_group_IT_number 15
_symmetry_cell_setting 'monoclinic'
loop_
_space_group_symop_operation_xyz
x,y,z
-x,y,1/2-z
-x,-y,-z
x,-y,1/2+z
1/2+x,1/2+y,z
1/2-x,1/2+y,1/2-z
1/2-x,1/2-y,-z
1/2+x,1/2-y,1/2+z
loop_
_atom_site_type_symbol
_atom_site_label
_atom_site_fract_x
_atom_site_fract_y
_atom_site_fract_z
Si Si1 0.627273 0.954509 0.498786
Si Si2 0.500000 0.784090 0.750000
Si Si3 0.500000 0.215805 0.750000
Si Si4 0.844650 0.348619 0.090871
O O1 0.556338 0.903913 0.468346
O O2 0.000000 0.959065 0.250000
O O3 0.500000 0.000000 0.500000
O O4 0.500000 0.952092 0.750000
O O5 0.414492 0.820342 0.679483
O O6 0.750000 0.750000 0.500000
O O7 0.657857 0.181253 0.760663
O O8 0.750000 0.250000 0.500000
O O9 0.500000 0.347918 0.250000
#
# Coordination Sequence:
#
# PCOD9306365 Si02
#       4
#     8   4   4   8
#     4  11  25  47  75 107 141 186 237 297 367 426
#     4  12  22  38  69  96 131 182 226 280 336 410
#     4  12  30  44  67 110 141 184 242 290 348 418
#     4  11  26  48  73 101 143 189 237 288 357 424
#
# _framework density 21.891179999999999
#
# number of rings (size 3 to 8) (size 9 to 14) (size 15 to 20)
#    0.000    0.667    3.333    3.000    7.000    0.000 
#    3.000    0.000    0.000    0.000    0.000    0.000 
#    0.000    0.000    0.000    0.000    0.000    0.000 
#
# Total GULP energy -67135.094021 kJ/mol
# GULP energy per Si atom -5594.591168 kJ/mol
# Density = 2.184135 g / cm^3
# Si number density = 21.891180 Si / 1000 Ang^3
#
#
#
# Elastic Constant Matrix: (Units=GPa)
#
#
# Indices 1 2 3 4 5 6 
#
# 1 102.2751 82.8924 49.0564 0.0000 21.8173 0.0000
# 2 82.8924 265.5358 82.4980 0.0000 14.0074 0.0000
# 3 49.0564 82.4980 182.3262 0.0000 5.6736 0.0000
# 4 0.0000 0.0000 0.0000 17.3618 0.0000 13.6643
# 5 21.8173 14.0074 5.6736 0.0000 32.7511 0.0000
# 6 0.0000 0.0000 0.0000 13.6643 0.0000 51.5362
#
#
#
# Elastic Compliance Matrix: (Units=1/GPa)
#
#
# Indices 1 2 3 4 5 6 
#
# 1 0.015714 -0.003755 -0.002266 0.000000 -0.008470 0.000000
# 2 -0.003755 0.005358 -0.001428 0.000000 0.000457 0.000000
# 3 -0.002266 -0.001428 0.006711 0.000000 0.000957 0.000000
# 4 0.000000 0.000000 0.000000 0.072786 0.000000 -0.019298
# 5 -0.008470 0.000457 0.000957 0.000000 0.035814 0.000000
# 6 0.000000 0.000000 0.000000 -0.019298 0.000000 0.024521
#
#
# Mechanical properties :
#
#
# Convention : Reuss Voigt Hill
#
# Bulk Modulus (GPa) = 77.60667 108.78119 93.19393
# Shear Modulus (GPa) = 27.76301 42.70917 35.23609
#
# Velocity S-wave (km/s) = 3.56508 4.42178 4.01634
# Velocity P-wave (km/s) = 7.24393 8.71029 8.01073
#
# Compressibility (1/GPa) = 0.01288549
#
# Stress axis : x y z
#
# Youngs Moduli (GPa) = 63.63663 186.64649 149.01681
#
# Poissons Ratio (x) = 0.70083 0.33760
# Poissons Ratio (y) = 0.23895 0.21282
# Poissons Ratio (z) = 0.14417 0.26657
#
# Static dielectric constant tensor:
#      x y z
#    x 1.822170 0.000000 -0.039510 
#    y 0.000000 1.824270 0.000000 
#    z -0.039510 0.000000 1.823230 
# 
# From -- ./inp_files/25241.got.cif
#   From: 2010.05.17/outbox.cif.g08.bks.cpg/sg15_13_cif.got.tgz:25241.got - 2010.06.03 18:47:42.
