data_PCOD9306559
_publ_section_title
;
Structure prediction by ZEFSAII (Michael W. Deem and Ramdas Pophale) SiO2 
 PCOD9306559
Probable space group: C 2/C
;
_chemical_formula_sum "Si O2"
_cell_formula_units_Z 48
_cell_length_a 5.166427
_cell_length_b 13.135003
_cell_length_c 31.165179
_cell_angle_alpha 90.000000
_cell_angle_beta 116.289699
_cell_angle_gamma 90.000000
_cell_volume 1896.148734
_symmetry_space_group_name_H-M "C 2/C"
_symmetry_group_IT_number 15
_symmetry_cell_setting 'monoclinic'
loop_
_space_group_symop_operation_xyz
x,y,z
-x,y,1/2-z
-x,-y,-z
x,-y,1/2+z
1/2+x,1/2+y,z
1/2-x,1/2+y,1/2-z
1/2-x,1/2-y,-z
1/2+x,1/2-y,1/2+z
loop_
_atom_site_type_symbol
_atom_site_label
_atom_site_fract_x
_atom_site_fract_y
_atom_site_fract_z
Si Si1 0.196044 0.452768 0.346616
Si Si2 0.920538 0.809110 0.435707
Si Si3 0.708776 0.598864 0.392960
Si Si4 0.000000 0.261629 0.750000
Si Si5 0.763233 0.394940 0.801764
Si Si6 0.000000 0.369118 0.250000
Si Si7 0.999600 0.421804 0.039228
O O1 0.264709 0.361272 0.383152
O O2 0.395964 0.547272 0.376724
O O3 0.872440 0.492939 0.320367
O O4 0.223609 0.426117 0.298048
O O5 0.255357 0.836543 0.452127
O O6 0.824484 0.691660 0.430329
O O7 0.794890 0.868460 0.467815
O O8 0.712330 0.644804 0.345435
O O9 0.907000 0.499190 0.415639
O O10 0.999329 0.332254 0.707664
O O11 0.291104 0.197925 0.764658
O O12 0.500000 0.398406 0.750000
O O13 0.000000 0.500000 0.000000
#
# Coordination Sequence:
#
# PCOD9306559 Si02
#       7
#     8   8   8   4   8   4   8
#     4  11  26  44  69 101 148 191 248 304 359 428
#     4  11  26  46  77 109 145 194 238 298 379 437
#     4  11  26  47  75 106 153 192 245 309 367 438
#     4  12  27  42  65 100 134 190 251 300 353 432
#     4  12  24  46  68 103 147 195 248 307 352 425
#     4  12  27  44  67 102 146 196 253 298 359 422
#     4  11  26  50  77 114 149 186 246 308 373 455
#
# _framework density 25.314471000000001
#
# number of rings (size 3 to 8) (size 9 to 14) (size 15 to 20)
#    0.000    0.667    2.500    4.000    8.167    1.333 
#    0.000    0.000    0.000    0.000    0.000    0.000 
#    0.000    0.000    0.000    0.000    0.000    0.000 
#
# Total GULP energy -134131.688248 kJ/mol
# GULP energy per Si atom -5588.820344 kJ/mol
# Density = 2.525685 g / cm^3
# Si number density = 25.314471 Si / 1000 Ang^3
#
#
#
# Elastic Constant Matrix: (Units=GPa)
#
#
# Indices 1 2 3 4 5 6 
#
# 1 111.1267 36.6708 12.2685 0.0000 -12.7723 0.0000
# 2 36.6708 106.2927 6.7471 0.0000 10.5911 0.0000
# 3 12.2685 6.7471 75.7247 0.0000 -13.9216 0.0000
# 4 0.0000 0.0000 0.0000 32.4222 0.0000 2.2512
# 5 -12.7723 10.5911 -13.9216 0.0000 31.2914 0.0000
# 6 0.0000 0.0000 0.0000 2.2512 0.0000 37.3114
#
#
#
# Elastic Compliance Matrix: (Units=1/GPa)
#
#
# Indices 1 2 3 4 5 6 
#
# 1 0.011174 -0.004423 -0.000329 0.000000 0.005911 0.000000
# 2 -0.004423 0.011670 -0.001504 0.000000 -0.006424 0.000000
# 3 -0.000329 -0.001504 0.014661 0.000000 0.006897 0.000000
# 4 0.000000 0.000000 0.000000 0.030973 0.000000 -0.001869
# 5 0.005911 -0.006424 0.006897 0.000000 0.039614 0.000000
# 6 0.000000 0.000000 0.000000 -0.001869 0.000000 0.026914
#
#
# Mechanical properties :
#
#
# Convention : Reuss Voigt Hill
#
# Bulk Modulus (GPa) = 40.01416 44.94636 42.48026
# Shear Modulus (GPa) = 32.08214 36.03550 34.05882
#
# Velocity S-wave (km/s) = 3.56384 3.77704 3.67199
# Velocity P-wave (km/s) = 5.72501 6.06755 5.89877
#
# Compressibility (1/GPa) = 0.02499115
#
# Stress axis : x y z
#
# Youngs Moduli (GPa) = 89.49225 85.69279 68.20721
#
# Poissons Ratio (x) = 0.37903 0.02247
# Poissons Ratio (y) = 0.39584 0.10260
# Poissons Ratio (z) = 0.02948 0.12890
#
# Static dielectric constant tensor:
#      x y z
#    x 2.056330 0.000000 -0.096740 
#    y 0.000000 2.055600 0.000000 
#    z -0.096740 0.000000 2.186920 
# 
# From -- ./inp_files/305504.got.cif
#   From: 2010.05.17/outbox.cif.g08.bks.cpg/sg15_153_cif.got.tgz:305504.got - 2010.06.03 18:47:42.
