data_PCOD9306698
_publ_section_title
;
Structure prediction by ZEFSAII (Michael W. Deem and Ramdas Pophale) SiO2 
 PCOD9306698
Probable space group: C 2/C
;
_chemical_formula_sum "Si O2"
_cell_formula_units_Z 32
_cell_length_a 22.791451
_cell_length_b 9.685090
_cell_length_c 12.817115
_cell_angle_alpha 90.000000
_cell_angle_beta 151.818321
_cell_angle_gamma 90.000000
_cell_volume 1336.150243
_symmetry_space_group_name_H-M "C 2/C"
_symmetry_group_IT_number 15
_symmetry_cell_setting 'monoclinic'
loop_
_space_group_symop_operation_xyz
x,y,z
-x,y,1/2-z
-x,-y,-z
x,-y,1/2+z
1/2+x,1/2+y,z
1/2-x,1/2+y,1/2-z
1/2-x,1/2-y,-z
1/2+x,1/2-y,1/2+z
loop_
_atom_site_type_symbol
_atom_site_label
_atom_site_fract_x
_atom_site_fract_y
_atom_site_fract_z
Si Si1 0.211719 0.457516 0.984574
Si Si2 0.414921 0.367268 0.887672
Si Si3 0.211906 0.178279 0.104486
Si Si4 0.484617 0.135702 0.607090
O O1 0.288091 0.400961 0.005277
O O2 0.070116 0.498647 0.737082
O O3 0.281147 0.593987 0.130736
O O4 0.218235 0.339193 0.082467
O O5 0.396085 0.343035 0.980997
O O6 0.466571 0.239394 0.904488
O O7 0.500000 0.500000 0.000000
O O8 0.339472 0.123822 0.356018
O O9 0.500000 0.189715 0.750000
#
# Coordination Sequence:
#
# PCOD9306698 Si02
#       4
#     8   8   8   8
#     4  11  26  48  75 109 147 200 247 315 378 455
#     4  12  27  46  75 107 153 200 245 315 383 451
#     4  11  27  49  72 112 149 190 260 312 379 456
#     4  12  26  46  77 106 147 202 250 311 382 451
#
# _framework density 23.949401000000002
#
# number of rings (size 3 to 8) (size 9 to 14) (size 15 to 20)
#    0.000    0.500    5.000    1.500    7.000    2.000 
#    0.000    0.000    0.000    0.000    0.000    0.000 
#    0.000    0.000    0.000    0.000    0.000    0.000 
#
# Total GULP energy -89614.737244 kJ/mol
# GULP energy per Si atom -5600.921078 kJ/mol
# Density = 2.389489 g / cm^3
# Si number density = 23.949401 Si / 1000 Ang^3
#
#
#
# Elastic Constant Matrix: (Units=GPa)
#
#
# Indices 1 2 3 4 5 6 
#
# 1 226.7042 39.7544 12.5640 0.0000 5.1280 0.0000
# 2 39.7544 36.3211 4.2513 0.0000 11.4677 0.0000
# 3 12.5640 4.2513 66.4993 0.0000 7.7292 0.0000
# 4 0.0000 0.0000 0.0000 41.4199 0.0000 1.8207
# 5 5.1280 11.4677 7.7292 0.0000 28.9169 0.0000
# 6 0.0000 0.0000 0.0000 1.8207 0.0000 34.8877
#
#
#
# Elastic Compliance Matrix: (Units=1/GPa)
#
#
# Indices 1 2 3 4 5 6 
#
# 1 0.005570 -0.006581 -0.000847 0.000000 0.001848 0.000000
# 2 -0.006581 0.039270 0.000420 0.000000 -0.014519 0.000000
# 3 -0.000847 0.000420 0.015659 0.000000 -0.004202 0.000000
# 4 0.000000 0.000000 0.000000 0.024198 0.000000 -0.001263
# 5 0.001848 -0.014519 -0.004202 0.000000 0.041135 0.000000
# 6 0.000000 0.000000 0.000000 -0.001263 0.000000 0.028729
#
#
# Mechanical properties :
#
#
# Convention : Reuss Voigt Hill
#
# Bulk Modulus (GPa) = 21.51225 49.18486 35.34855
# Shear Modulus (GPa) = 27.16321 39.24190 33.20255
#
# Velocity S-wave (km/s) = 3.37143 4.05227 3.72743
# Velocity P-wave (km/s) = 4.91500 6.51737 5.77206
#
# Compressibility (1/GPa) = 0.04648515
#
# Stress axis : x y z
#
# Youngs Moduli (GPa) = 179.52632 25.46445 63.86009
#
# Poissons Ratio (x) = 0.16759 0.05406
# Poissons Ratio (y) = 1.18151 -0.02685
# Poissons Ratio (z) = 0.15197 -0.01071
#
# Static dielectric constant tensor:
#      x y z
#    x 1.906830 0.000000 0.010310 
#    y 0.000000 1.851610 0.000000 
#    z 0.010310 0.000000 1.965420 
# 
# From -- ./inp_files/84561.got.cif
#   From: 2010.05.17/outbox.cif.g08.bks.cpg/sg15_43_cif.got.tgz:84561.got - 2010.06.03 18:47:42.
