data_PCOD9306932
_publ_section_title
;
Structure prediction by ZEFSAII (Michael W. Deem and Ramdas Pophale) SiO2 
 PCOD9306932
Probable space group: C 2/C
;
_chemical_formula_sum "Si O2"
_cell_formula_units_Z 48
_cell_length_a 23.240576
_cell_length_b 12.849980
_cell_length_c 17.897482
_cell_angle_alpha 90.000000
_cell_angle_beta 155.926963
_cell_angle_gamma 90.000000
_cell_volume 2180.197689
_symmetry_space_group_name_H-M "C 2/C"
_symmetry_group_IT_number 15
_symmetry_cell_setting 'monoclinic'
loop_
_space_group_symop_operation_xyz
x,y,z
-x,y,1/2-z
-x,-y,-z
x,-y,1/2+z
1/2+x,1/2+y,z
1/2-x,1/2+y,1/2-z
1/2-x,1/2-y,-z
1/2+x,1/2-y,1/2+z
loop_
_atom_site_type_symbol
_atom_site_label
_atom_site_fract_x
_atom_site_fract_y
_atom_site_fract_z
Si Si1 0.500000 0.781087 0.750000
Si Si2 0.042842 0.355916 0.417249
Si Si3 0.803520 0.538802 0.987858
Si Si4 0.921055 0.181964 0.805330
Si Si5 0.000000 0.177859 0.250000
Si Si6 0.238672 0.530417 0.896175
Si Si7 0.744075 0.658286 0.194599
O O1 0.399315 0.860313 0.586643
O O2 0.423358 0.710647 0.720011
O O3 0.119600 0.437588 0.452376
O O4 0.989255 0.255706 0.307934
O O5 0.160156 0.337877 0.618671
O O6 0.904375 0.406785 0.289275
O O7 0.651922 0.568731 0.774203
O O8 0.791912 0.530441 0.063126
O O9 0.826051 0.265192 0.735486
O O10 0.082994 0.187110 0.021957
O O11 0.132757 0.105676 0.428327
O O12 0.266538 0.452138 0.861336
#
# Coordination Sequence:
#
# PCOD9306932 Si02
#       7
#     4   8   8   8   4   8   8
#     4  12  19  43  70 104 134 184 231 277 364 440
#     4  12  27  46  74 100 142 195 244 298 360 424
#     4  12  22  43  74 100 138 185 238 289 359 433
#     4  12  25  43  72 109 147 182 230 296 371 436
#     4  12  27  47  74 100 140 200 251 293 350 444
#     4  12  24  47  72 103 143 188 250 295 356 428
#     4  12  28  44  72 113 147 187 236 304 365 429
#
# _framework density 22.016352000000001
#
# number of rings (size 3 to 8) (size 9 to 14) (size 15 to 20)
#    0.000    0.000    6.667    3.500    2.333    2.000 
#    0.000    0.000    0.000    0.000    0.000    0.000 
#    0.000    0.000    0.000    0.000    0.000    0.000 
#
# Total GULP energy -134218.705072 kJ/mol
# GULP energy per Si atom -5592.446045 kJ/mol
# Density = 2.196624 g / cm^3
# Si number density = 22.016352 Si / 1000 Ang^3
#
#
#
# Elastic Constant Matrix: (Units=GPa)
#
#
# Indices 1 2 3 4 5 6 
#
# 1 34.9902 14.8815 18.5875 0.0000 -6.9115 0.0000
# 2 14.8815 76.8379 39.5783 0.0000 4.9715 0.0000
# 3 18.5875 39.5783 175.4450 0.0000 9.6478 0.0000
# 4 0.0000 0.0000 0.0000 26.6928 0.0000 -2.4879
# 5 -6.9115 4.9715 9.6478 0.0000 39.0393 0.0000
# 6 0.0000 0.0000 0.0000 -2.4879 0.0000 -9.8820
#
#
#
# Elastic Compliance Matrix: (Units=1/GPa)
#
#
# Indices 1 2 3 4 5 6 
#
# 1 0.033884 -0.005637 -0.002725 0.000000 0.007390 0.000000
# 2 -0.005637 0.015707 -0.002820 0.000000 -0.002301 0.000000
# 3 -0.002725 -0.002820 0.006723 0.000000 -0.001785 0.000000
# 4 0.000000 0.000000 0.000000 0.036604 0.000000 -0.009216
# 5 0.007390 -0.002301 -0.001785 0.000000 0.027658 0.000000
# 6 0.000000 0.000000 0.000000 -0.009216 0.000000 -0.098874
#
#
# Mechanical properties :
#
#
# Convention : Reuss Voigt Hill
#
# Bulk Modulus (GPa) = 29.45390 48.15198 38.80294
# Shear Modulus (GPa) = 90.28242 25.45175 57.86709
#
# Velocity S-wave (km/s) = 6.41062 3.40375 5.13232
# Velocity P-wave (km/s) = 8.25844 6.11276 7.26525
#
# Compressibility (1/GPa) = 0.03395136
#
# Stress axis : x y z
#
# Youngs Moduli (GPa) = 29.51246 63.66409 148.75081
#
# Poissons Ratio (x) = 0.35889 0.40528
# Poissons Ratio (y) = 0.16637 0.41942
# Poissons Ratio (z) = 0.08041 0.17951
#
# Static dielectric constant tensor:
#      x y z
#    x 1.797150 0.000000 0.015500 
#    y 0.000000 1.821850 0.000000 
#    z 0.015500 0.000000 1.873550 
# 
# From -- ./inp_files/257605.got.cif
#   From: 2010.05.17/outbox.cif.g08.bks.cpg/sg15_129_cif.got.tgz:257605.got - 2010.06.03 18:47:42.
