data_PCOD9306702
_publ_section_title
;
Structure prediction by ZEFSAII (Michael W. Deem and Ramdas Pophale) SiO2 
 PCOD9306702
Probable space group: C 2/C
;
_chemical_formula_sum "Si O2"
_cell_formula_units_Z 36
_cell_length_a 9.343793
_cell_length_b 22.317824
_cell_length_c 8.234070
_cell_angle_alpha 90.000000
_cell_angle_beta 68.887623
_cell_angle_gamma 90.000000
_cell_volume 1601.818901
_symmetry_space_group_name_H-M "C 2/C"
_symmetry_group_IT_number 15
_symmetry_cell_setting 'monoclinic'
loop_
_space_group_symop_operation_xyz
x,y,z
-x,y,1/2-z
-x,-y,-z
x,-y,1/2+z
1/2+x,1/2+y,z
1/2-x,1/2+y,1/2-z
1/2-x,1/2-y,-z
1/2+x,1/2-y,1/2+z
loop_
_atom_site_type_symbol
_atom_site_label
_atom_site_fract_x
_atom_site_fract_y
_atom_site_fract_z
Si Si1 0.458896 0.371867 0.951428
Si Si2 0.241979 0.067182 0.465463
Si Si3 0.679473 0.065172 0.691826
Si Si4 0.000000 0.341968 0.750000
Si Si5 0.930790 0.736417 0.954544
O O1 0.500000 0.384961 0.750000
O O2 0.566400 0.414780 0.011776
O O3 0.497396 0.302695 0.966743
O O4 0.282374 0.387220 0.054284
O O5 0.279308 0.069676 0.638144
O O6 0.352200 0.115337 0.333260
O O7 0.278769 0.001107 0.386811
O O8 0.500000 0.074820 0.750000
O O9 0.970633 0.304153 0.595431
O O10 0.000000 0.717318 0.750000
O O11 0.750000 0.750000 0.000000
#
# Coordination Sequence:
#
# PCOD9306702 Si02
#       5
#     8   8   8   4   8
#     4  11  26  48  76 108 152 194 248 312 377 446
#     4  12  27  47  74 112 150 197 251 311 374 450
#     4  12  27  47  77 108 149 197 249 310 381 443
#     4  12  28  46  80 112 154 200 260 306 374 456
#     4  11  28  49  76 111 152 200 252 313 377 444
#
# _framework density 22.474453
#
# number of rings (size 3 to 8) (size 9 to 14) (size 15 to 20)
#    0.000    0.444    1.111    6.000   12.444    1.778 
#    0.000    0.000    0.000    0.000    0.000    0.000 
#    0.000    0.000    0.000    0.000    0.000    0.000 
#
# Total GULP energy -100874.025181 kJ/mol
# GULP energy per Si atom -5604.112510 kJ/mol
# Density = 2.242330 g / cm^3
# Si number density = 22.474453 Si / 1000 Ang^3
#
#
#
# Elastic Constant Matrix: (Units=GPa)
#
#
# Indices 1 2 3 4 5 6 
#
# 1 39.1280 6.4568 9.3690 0.0000 -10.3211 0.0000
# 2 6.4568 108.8348 50.7644 0.0000 11.9136 0.0000
# 3 9.3690 50.7644 146.6889 0.0000 8.5042 0.0000
# 4 0.0000 0.0000 0.0000 64.2138 0.0000 2.9808
# 5 -10.3211 11.9136 8.5042 0.0000 38.0086 0.0000
# 6 0.0000 0.0000 0.0000 2.9808 0.0000 37.9850
#
#
#
# Elastic Compliance Matrix: (Units=1/GPa)
#
#
# Indices 1 2 3 4 5 6 
#
# 1 0.028568 -0.001863 -0.001685 0.000000 0.008719 0.000000
# 2 -0.001863 0.011342 -0.003618 0.000000 -0.003252 0.000000
# 3 -0.001685 -0.003618 0.008244 0.000000 -0.001168 0.000000
# 4 0.000000 0.000000 0.000000 0.015630 0.000000 -0.001227
# 5 0.008719 -0.003252 -0.001168 0.000000 0.029958 0.000000
# 6 0.000000 0.000000 0.000000 -0.001227 0.000000 0.026422
#
#
# Mechanical properties :
#
#
# Convention : Reuss Voigt Hill
#
# Bulk Modulus (GPa) = 29.56626 47.53690 38.55158
# Shear Modulus (GPa) = 34.30036 43.24559 38.77297
#
# Velocity S-wave (km/s) = 3.91089 4.39134 4.15806
# Velocity P-wave (km/s) = 5.79461 6.84904 6.34377
#
# Compressibility (1/GPa) = 0.03382233
#
# Stress axis : x y z
#
# Youngs Moduli (GPa) = 35.00431 88.16698 121.29340
#
# Poissons Ratio (x) = 0.16427 0.20442
# Poissons Ratio (y) = 0.06522 0.43880
# Poissons Ratio (z) = 0.05899 0.31896
#
# Static dielectric constant tensor:
#      x y z
#    x 1.889110 0.000000 -0.040770 
#    y 0.000000 1.687740 0.000000 
#    z -0.040770 0.000000 1.800530 
# 
# From -- ./inp_files/23318.got.cif
#   From: 2010.05.17/outbox.cif.g08.bks.cpg/sg15_12_cif.got.tgz:23318.got - 2010.06.03 18:47:42.
