data_PCOD9306357
_publ_section_title
;
Structure prediction by ZEFSAII (Michael W. Deem and Ramdas Pophale) SiO2 
 PCOD9306357
Probable space group: C 2/C
;
_chemical_formula_sum "Si O2"
_cell_formula_units_Z 40
_cell_length_a 13.183379
_cell_length_b 18.232413
_cell_length_c 12.358847
_cell_angle_alpha 90.000000
_cell_angle_beta 143.894123
_cell_angle_gamma 90.000000
_cell_volume 1750.531696
_symmetry_space_group_name_H-M "C 2/C"
_symmetry_group_IT_number 15
_symmetry_cell_setting 'monoclinic'
loop_
_space_group_symop_operation_xyz
x,y,z
-x,y,1/2-z
-x,-y,-z
x,-y,1/2+z
1/2+x,1/2+y,z
1/2-x,1/2+y,1/2-z
1/2-x,1/2-y,-z
1/2+x,1/2-y,1/2+z
loop_
_atom_site_type_symbol
_atom_site_label
_atom_site_fract_x
_atom_site_fract_y
_atom_site_fract_z
Si Si1 0.769172 0.773591 0.279089
Si Si2 0.924610 0.669390 0.564385
Si Si3 0.372608 0.443547 0.739784
Si Si4 0.503523 0.403715 0.091766
Si Si5 0.696109 0.823412 0.888931
O O1 0.818440 0.742932 0.439892
O O2 0.592525 0.817956 0.134275
O O3 0.776446 0.701826 0.211243
O O4 0.900337 0.827037 0.333345
O O5 0.805417 0.598947 0.436785
O O6 0.000000 0.665763 0.750000
O O7 0.500000 0.425378 0.750000
O O8 0.377573 0.531224 0.761236
O O9 0.453780 0.419257 0.924133
O O10 0.331747 0.389706 0.014263
O O11 0.500000 0.841608 0.750000
O O12 0.750000 0.750000 0.000000
#
# Coordination Sequence:
#
# PCOD9306357 Si02
#       5
#     8   8   8   8   8
#     4  12  23  43  70 113 145 186 254 308 369 435
#     4  12  24  43  75 109 154 197 248 306 376 451
#     4  11  26  49  69 101 152 203 245 299 380 448
#     4  11  25  47  73 106 152 192 247 314 365 458
#     4  12  23  41  73 111 143 185 240 305 385 436
#
# _framework density 22.850200000000001
#
# number of rings (size 3 to 8) (size 9 to 14) (size 15 to 20)
#    0.000    0.400    6.000    1.800    2.800    2.400 
#    0.000    5.000    0.000    0.000    0.000    0.000 
#    0.000    0.000    0.000    0.000    0.000    0.000 
#
# Total GULP energy -111727.561231 kJ/mol
# GULP energy per Si atom -5586.378062 kJ/mol
# Density = 2.279819 g / cm^3
# Si number density = 22.850200 Si / 1000 Ang^3
#
#
#
# Elastic Constant Matrix: (Units=GPa)
#
#
# Indices 1 2 3 4 5 6 
#
# 1 126.7457 40.7823 62.3464 0.0000 6.0116 0.0000
# 2 40.7823 110.3310 57.4900 0.0000 11.1325 0.0000
# 3 62.3464 57.4900 130.3757 0.0000 6.5198 0.0000
# 4 0.0000 0.0000 0.0000 12.2368 0.0000 -6.2825
# 5 6.0116 11.1325 6.5198 0.0000 46.8069 0.0000
# 6 0.0000 0.0000 0.0000 -6.2825 0.0000 35.6640
#
#
#
# Elastic Compliance Matrix: (Units=1/GPa)
#
#
# Indices 1 2 3 4 5 6 
#
# 1 0.010549 -0.001614 -0.004314 0.000000 -0.000370 0.000000
# 2 -0.001614 0.012221 -0.004514 0.000000 -0.002071 0.000000
# 3 -0.004314 -0.004514 0.011724 0.000000 -0.000005 0.000000
# 4 0.000000 0.000000 0.000000 0.089847 0.000000 0.015827
# 5 -0.000370 -0.002071 -0.000005 0.000000 0.021905 0.000000
# 6 0.000000 0.000000 0.000000 0.015827 0.000000 0.030828
#
#
# Mechanical properties :
#
#
# Convention : Reuss Voigt Hill
#
# Bulk Modulus (GPa) = 73.47503 76.52109 74.99806
# Shear Modulus (GPa) = 24.69215 32.73046 28.71130
#
# Velocity S-wave (km/s) = 3.29083 3.78880 3.54856
# Velocity P-wave (km/s) = 6.83113 7.25954 7.04859
#
# Compressibility (1/GPa) = 0.01361007
#
# Stress axis : x y z
#
# Youngs Moduli (GPa) = 94.79661 81.82637 85.29572
#
# Poissons Ratio (x) = 0.13205 0.36800
# Poissons Ratio (y) = 0.15298 0.38499
# Poissons Ratio (z) = 0.40899 0.36934
#
# Static dielectric constant tensor:
#      x y z
#    x 1.888750 0.000000 -0.047600 
#    y 0.000000 1.865940 0.000000 
#    z -0.047600 0.000000 1.993500 
# 
# From -- ./inp_files/89861.got.cif
#   From: 2010.05.17/outbox.cif.g08.bks.cpg/sg15_45_cif.got.tgz:89861.got - 2010.06.03 18:47:42.
