data_PCOD9306393
_publ_section_title
;
Structure prediction by ZEFSAII (Michael W. Deem and Ramdas Pophale) SiO2 
 PCOD9306393
Probable space group: C 2/C
;
_chemical_formula_sum "Si O2"
_cell_formula_units_Z 40
_cell_length_a 9.616305
_cell_length_b 24.674200
_cell_length_c 8.189345
_cell_angle_alpha 90.000000
_cell_angle_beta 113.501830
_cell_angle_gamma 90.000000
_cell_volume 1781.936534
_symmetry_space_group_name_H-M "C 2/C"
_symmetry_group_IT_number 15
_symmetry_cell_setting 'monoclinic'
loop_
_space_group_symop_operation_xyz
x,y,z
-x,y,1/2-z
-x,-y,-z
x,-y,1/2+z
1/2+x,1/2+y,z
1/2-x,1/2+y,1/2-z
1/2-x,1/2-y,-z
1/2+x,1/2-y,1/2+z
loop_
_atom_site_type_symbol
_atom_site_label
_atom_site_fract_x
_atom_site_fract_y
_atom_site_fract_z
Si Si1 0.381317 0.018417 0.580182
Si Si2 0.784921 0.913851 0.016165
Si Si3 0.167163 0.801823 0.891749
Si Si4 0.127316 0.090245 0.568080
Si Si5 0.672895 0.199254 0.370918
O O1 0.500000 0.050365 0.750000
O O2 0.317770 0.960395 0.610543
O O3 0.500000 0.000000 0.500000
O O4 0.227398 0.052992 0.493341
O O5 0.819533 0.925471 0.223820
O O6 0.945059 0.913957 0.994541
O O7 0.701405 0.856036 0.982205
O O8 0.254857 0.816594 0.768712
O O9 0.000000 0.788385 0.750000
O O10 0.250000 0.750000 0.000000
O O11 0.159682 0.848862 0.023019
O O12 0.500000 0.212835 0.250000
O O13 0.750000 0.250000 0.500000
#
# Coordination Sequence:
#
# PCOD9306393 Si02
#       5
#     8   8   8   8   8
#     4  12  26  46  71 106 143 184 240 296 362 424
#     4  11  25  48  70 101 143 189 239 290 356 427
#     4  12  26  47  72 107 143 184 237 290 354 426
#     4  11  26  46  72 102 142 189 235 295 357 424
#     4  12  27  45  74 105 143 187 235 293 354 424
#
# _framework density 22.447489000000001
#
# number of rings (size 3 to 8) (size 9 to 14) (size 15 to 20)
#    0.000    0.400    4.000    3.600    8.400    0.800 
#    3.600    0.000    0.000    0.000    0.000    0.000 
#    0.000    0.000    0.000    0.000    0.000    0.000 
#
# Total GULP energy -111627.255658 kJ/mol
# GULP energy per Si atom -5581.362783 kJ/mol
# Density = 2.239640 g / cm^3
# Si number density = 22.447489 Si / 1000 Ang^3
#
#
#
# Elastic Constant Matrix: (Units=GPa)
#
#
# Indices 1 2 3 4 5 6 
#
# 1 178.1373 50.9094 35.9070 0.0000 6.2880 0.0000
# 2 50.9094 130.3266 3.2103 0.0000 21.1868 0.0000
# 3 35.9070 3.2103 51.7776 0.0000 5.2342 0.0000
# 4 0.0000 0.0000 0.0000 38.8001 0.0000 -1.1815
# 5 6.2880 21.1868 5.2342 0.0000 43.4208 0.0000
# 6 0.0000 0.0000 0.0000 -1.1815 0.0000 42.1334
#
#
#
# Elastic Compliance Matrix: (Units=1/GPa)
#
#
# Indices 1 2 3 4 5 6 
#
# 1 0.007443 -0.002940 -0.005077 0.000000 0.000969 0.000000
# 2 -0.002940 0.009496 0.001899 0.000000 -0.004437 0.000000
# 3 -0.005077 0.001899 0.023017 0.000000 -0.002966 0.000000
# 4 0.000000 0.000000 0.000000 0.025795 0.000000 0.000723
# 5 0.000969 -0.004437 -0.002966 0.000000 0.025412 0.000000
# 6 0.000000 0.000000 0.000000 0.000723 0.000000 0.023754
#
#
# Mechanical properties :
#
#
# Convention : Reuss Voigt Hill
#
# Bulk Modulus (GPa) = 36.07751 60.03276 48.05514
# Shear Modulus (GPa) = 36.65842 42.88515 39.77178
#
# Velocity S-wave (km/s) = 4.04552 4.37563 4.21381
# Velocity P-wave (km/s) = 6.15861 7.23394 6.71782
#
# Compressibility (1/GPa) = 0.02771810
#
# Stress axis : x y z
#
# Youngs Moduli (GPa) = 134.35316 105.30840 43.44709
#
# Poissons Ratio (x) = 0.30960 0.22059
# Poissons Ratio (y) = 0.39498 -0.08248
# Poissons Ratio (z) = 0.68215 -0.19993
#
# Static dielectric constant tensor:
#      x y z
#    x 1.563730 0.000000 0.108140 
#    y 0.000000 1.797880 0.000000 
#    z 0.108140 0.000000 1.888530 
# 
# From -- ./inp_files/23739.got.cif
#   From: 2010.05.17/outbox.cif.g08.bks.cpg/sg15_12_cif.got.tgz:23739.got - 2010.06.03 18:47:42.
