data_PCOD9306775
_publ_section_title
;
Structure prediction by ZEFSAII (Michael W. Deem and Ramdas Pophale) SiO2 
 PCOD9306775
Probable space group: C 2/C
;
_chemical_formula_sum "Si O2"
_cell_formula_units_Z 44
_cell_length_a 22.996479
_cell_length_b 6.520251
_cell_length_c 13.165380
_cell_angle_alpha 90.000000
_cell_angle_beta 109.877651
_cell_angle_gamma 90.000000
_cell_volume 1856.441624
_symmetry_space_group_name_H-M "C 2/C"
_symmetry_group_IT_number 15
_symmetry_cell_setting 'monoclinic'
loop_
_space_group_symop_operation_xyz
x,y,z
-x,y,1/2-z
-x,-y,-z
x,-y,1/2+z
1/2+x,1/2+y,z
1/2-x,1/2+y,1/2-z
1/2-x,1/2-y,-z
1/2+x,1/2-y,1/2+z
loop_
_atom_site_type_symbol
_atom_site_label
_atom_site_fract_x
_atom_site_fract_y
_atom_site_fract_z
Si Si1 0.000000 0.754569 0.250000
Si Si2 0.800771 0.289002 0.164229
Si Si3 0.367728 0.184161 0.902461
Si Si4 0.482560 0.598564 0.383332
Si Si5 0.794908 0.941537 0.007569
Si Si6 0.413832 0.922522 0.097580
O O1 0.043077 0.610727 0.343084
O O2 0.036522 0.911142 0.199641
O O3 0.811040 0.312848 0.290075
O O4 0.738899 0.395971 0.086534
O O5 0.857732 0.401556 0.141912
O O6 0.804773 0.060906 0.119047
O O7 0.426609 0.248427 0.871282
O O8 0.353229 0.349403 0.982404
O O9 0.384020 0.975323 0.970639
O O10 0.500000 0.500000 0.500000
O O11 0.541549 0.725968 0.378381
O O12 0.750000 0.750000 0.000000
#
# Coordination Sequence:
#
# PCOD9306775 Si02
#       6
#     4   8   8   8   8   8
#     4  12  26  46  72 102 152 192 222 302 348 434
#     4  11  27  46  74 100 143 186 236 300 354 430
#     4  12  26  45  75 103 141 191 236 299 361 426
#     4  12  26  45  71 108 145 188 239 286 364 433
#     4  11  26  51  67 103 140 184 243 295 358 425
#     4  12  26  48  70 110 146 184 246 293 359 438
#
# _framework density 23.701256999999998
#
# number of rings (size 3 to 8) (size 9 to 14) (size 15 to 20)
#    0.000    0.364    3.636    4.364    7.636    0.000 
#    0.000    0.000    0.000    0.000    0.000    0.000 
#    0.000    0.000    0.000    0.000    0.000    0.000 
#
# Total GULP energy -123229.534558 kJ/mol
# GULP energy per Si atom -5601.342480 kJ/mol
# Density = 2.364731 g / cm^3
# Si number density = 23.701257 Si / 1000 Ang^3
#
#
#
# Elastic Constant Matrix: (Units=GPa)
#
#
# Indices 1 2 3 4 5 6 
#
# 1 65.0147 7.1869 -18.5963 0.0000 -1.2468 0.0000
# 2 7.1869 89.7138 32.5725 0.0000 4.0182 0.0000
# 3 -18.5963 32.5725 123.9480 0.0000 13.1578 0.0000
# 4 0.0000 0.0000 0.0000 35.3781 0.0000 -11.2527
# 5 -1.2468 4.0182 13.1578 0.0000 26.8278 0.0000
# 6 0.0000 0.0000 0.0000 -11.2527 0.0000 39.9636
#
#
#
# Elastic Compliance Matrix: (Units=1/GPa)
#
#
# Indices 1 2 3 4 5 6 
#
# 1 0.016553 -0.002460 0.003174 0.000000 -0.000419 0.000000
# 2 -0.002460 0.012690 -0.003682 0.000000 -0.000209 0.000000
# 3 0.003174 -0.003682 0.009956 0.000000 -0.004184 0.000000
# 4 0.000000 0.000000 0.000000 0.031047 0.000000 0.008742
# 5 -0.000419 -0.000209 -0.004184 0.000000 0.039339 0.000000
# 6 0.000000 0.000000 0.000000 0.008742 0.000000 0.027484
#
#
# Mechanical properties :
#
#
# Convention : Reuss Voigt Hill
#
# Bulk Modulus (GPa) = 30.06203 35.66695 32.86449
# Shear Modulus (GPa) = 32.44855 37.60146 35.02500
#
# Velocity S-wave (km/s) = 3.70410 3.98738 3.84835
# Velocity P-wave (km/s) = 5.56822 6.02330 5.80023
#
# Compressibility (1/GPa) = 0.03326455
#
# Stress axis : x y z
#
# Youngs Moduli (GPa) = 60.41196 78.80428 100.44385
#
# Poissons Ratio (x) = 0.19384 -0.31885
# Poissons Ratio (y) = 0.14860 0.36979
# Poissons Ratio (z) = -0.19177 0.29012
#
# Static dielectric constant tensor:
#      x y z
#    x 1.917560 0.000000 0.056490 
#    y 0.000000 1.877230 0.000000 
#    z 0.056490 0.000000 1.955770 
# 
# From -- ./inp_files/175517.got.cif
#   From: 2010.05.17/outbox.cif.g08.bks.cpg/sg15_88_cif.got.tgz:175517.got - 2010.06.03 18:47:42.
