data_PCOD9306314
_publ_section_title
;
Structure prediction by ZEFSAII (Michael W. Deem and Ramdas Pophale) SiO2 
 PCOD9306314
Probable space group: C 2/C
;
_chemical_formula_sum "Si O2"
_cell_formula_units_Z 40
_cell_length_a 17.187878
_cell_length_b 8.846341
_cell_length_c 9.709595
_cell_angle_alpha 90.000000
_cell_angle_beta 83.687239
_cell_angle_gamma 90.000000
_cell_volume 1467.390453
_symmetry_space_group_name_H-M "C 2/C"
_symmetry_group_IT_number 15
_symmetry_cell_setting 'monoclinic'
loop_
_space_group_symop_operation_xyz
x,y,z
-x,y,1/2-z
-x,-y,-z
x,-y,1/2+z
1/2+x,1/2+y,z
1/2-x,1/2+y,1/2-z
1/2-x,1/2-y,-z
1/2+x,1/2-y,1/2+z
loop_
_atom_site_type_symbol
_atom_site_label
_atom_site_fract_x
_atom_site_fract_y
_atom_site_fract_z
Si Si1 0.696165 0.334790 0.868134
Si Si2 0.869303 0.670990 0.009516
Si Si3 0.322237 0.368826 0.254329
Si Si4 0.923910 0.986998 0.922292
Si Si5 0.909068 0.567889 0.730060
O O1 0.714022 0.463861 0.748296
O O2 0.775492 0.240091 0.865931
O O3 0.632888 0.206910 0.838890
O O4 0.648698 0.440935 0.980949
O O5 0.812712 0.776327 0.113181
O O6 0.907084 0.573569 0.125292
O O7 0.859938 0.555454 0.883982
O O8 0.913734 0.806605 0.918969
O O9 0.410574 0.415995 0.284519
O O10 0.000000 0.000000 0.000000
O O11 0.000000 0.585709 0.750000
#
# Coordination Sequence:
#
# PCOD9306314 Si02
#       5
#     8   8   8   8   8
#     4  11  25  46  77 112 156 212 263 343 398 490
#     4  11  27  46  76 113 157 212 259 340 398 495
#     4  11  25  49  74 115 157 207 272 327 415 481
#     4  11  25  48  80 114 159 214 273 336 410 485
#     4  12  26  48  73 116 159 210 271 330 410 484
#
# _framework density 27.259274000000001
#
# number of rings (size 3 to 8) (size 9 to 14) (size 15 to 20)
#    0.000    0.800    2.000    3.600    5.600    2.400 
#   10.800    0.000    0.000    0.000    0.000    0.000 
#    0.000    0.000    0.000    0.000    0.000    0.000 
#
# Total GULP energy -111443.772001 kJ/mol
# GULP energy per Si atom -5572.188600 kJ/mol
# Density = 2.719723 g / cm^3
# Si number density = 27.259274 Si / 1000 Ang^3
#
#
#
# Elastic Constant Matrix: (Units=GPa)
#
#
# Indices 1 2 3 4 5 6 
#
# 1 123.4488 76.5469 21.6535 0.0000 22.4222 0.0000
# 2 76.5469 190.7074 43.7816 0.0000 12.0109 0.0000
# 3 21.6535 43.7816 109.2378 0.0000 3.2066 0.0000
# 4 0.0000 0.0000 0.0000 30.4606 0.0000 21.0910
# 5 22.4222 12.0109 3.2066 0.0000 27.3334 0.0000
# 6 0.0000 0.0000 0.0000 21.0910 0.0000 33.6019
#
#
#
# Elastic Compliance Matrix: (Units=1/GPa)
#
#
# Indices 1 2 3 4 5 6 
#
# 1 0.012357 -0.004337 -0.000471 0.000000 -0.008176 0.000000
# 2 -0.004337 0.007441 -0.002139 0.000000 0.000539 0.000000
# 3 -0.000471 -0.002139 0.010101 0.000000 0.000141 0.000000
# 4 0.000000 0.000000 0.000000 0.058064 0.000000 -0.036445
# 5 -0.008176 0.000539 0.000141 0.000000 0.043039 0.000000
# 6 0.000000 0.000000 0.000000 -0.036445 0.000000 0.052636
#
#
# Mechanical properties :
#
#
# Convention : Reuss Voigt Hill
#
# Bulk Modulus (GPa) = 62.47691 78.59532 70.53611
# Shear Modulus (GPa) = 24.64659 37.03995 30.84327
#
# Velocity S-wave (km/s) = 3.01018 3.69019 3.36739
# Velocity P-wave (km/s) = 5.92037 6.85943 6.40713
#
# Compressibility (1/GPa) = 0.01600591
#
# Stress axis : x y z
#
# Youngs Moduli (GPa) = 80.92296 134.38223 99.00254
#
# Poissons Ratio (x) = 0.58281 0.04666
# Poissons Ratio (y) = 0.35096 0.21173
# Poissons Ratio (z) = 0.03814 0.28739
#
# Static dielectric constant tensor:
#      x y z
#    x 2.178110 0.000000 -0.027040 
#    y 0.000000 2.070930 0.000000 
#    z -0.027040 0.000000 2.616320 
# 
# From -- ./inp_files/102699.got.cif
#   From: 2010.05.17/outbox.cif.g08.bks.cpg/sg15_52_cif.got.tgz:102699.got - 2010.06.03 18:47:42.
