data_PCOD9306768
_publ_section_title
;
Structure prediction by ZEFSAII (Michael W. Deem and Ramdas Pophale) SiO2 
 PCOD9306768
Probable space group: C 2/C
;
_chemical_formula_sum "Si O2"
_cell_formula_units_Z 40
_cell_length_a 14.709855
_cell_length_b 13.931298
_cell_length_c 7.953392
_cell_angle_alpha 90.000000
_cell_angle_beta 70.754620
_cell_angle_gamma 90.000000
_cell_volume 1538.783556
_symmetry_space_group_name_H-M "C 2/C"
_symmetry_group_IT_number 15
_symmetry_cell_setting 'monoclinic'
loop_
_space_group_symop_operation_xyz
x,y,z
-x,y,1/2-z
-x,-y,-z
x,-y,1/2+z
1/2+x,1/2+y,z
1/2-x,1/2+y,1/2-z
1/2-x,1/2-y,-z
1/2+x,1/2-y,1/2+z
loop_
_atom_site_type_symbol
_atom_site_label
_atom_site_fract_x
_atom_site_fract_y
_atom_site_fract_z
Si Si1 0.439309 0.579914 0.126712
Si Si2 0.318996 0.156821 0.939712
Si Si3 0.261335 0.979671 0.163188
Si Si4 0.514461 0.774370 0.974368
Si Si5 0.662248 0.177165 0.089668
O O1 0.500000 0.608170 0.250000
O O2 0.343372 0.526262 0.244386
O O3 0.500000 0.500000 0.000000
O O4 0.449123 0.677452 0.014387
O O5 0.423990 0.201410 0.897969
O O6 0.318823 0.077765 0.090182
O O7 0.250000 0.250000 0.000000
O O8 0.286932 0.097213 0.794047
O O9 0.276649 0.921025 0.978488
O O10 0.429875 0.847332 0.976078
O O11 0.599598 0.776873 0.781430
O O12 0.750000 0.250000 0.000000
#
# Coordination Sequence:
#
# PCOD9306768 Si02
#       5
#     8   8   8   8   8
#     4  12  27  46  77 124 166 224 292 361 431 514
#     4  12  27  52  79 128 169 225 289 361 437 525
#     4  12  28  48  86 117 174 229 285 357 445 519
#     4  11  28  48  82 118 171 223 286 357 431 519
#     4  11  26  50  82 120 169 224 290 354 435 522
#
# _framework density 25.99456
#
# number of rings (size 3 to 8) (size 9 to 14) (size 15 to 20)
#    0.000    0.400    0.000    7.200   16.800    0.800 
#    0.000    0.000    0.000    0.000    0.000    0.000 
#    0.000    0.000    0.000    0.000    0.000    0.000 
#
# Total GULP energy -111421.775081 kJ/mol
# GULP energy per Si atom -5571.088754 kJ/mol
# Density = 2.593540 g / cm^3
# Si number density = 25.994560 Si / 1000 Ang^3
#
#
#
# Elastic Constant Matrix: (Units=GPa)
#
#
# Indices 1 2 3 4 5 6 
#
# 1 171.3421 44.1232 63.3718 0.0000 -28.1793 0.0000
# 2 44.1232 164.7040 72.6242 0.0000 -21.2210 0.0000
# 3 63.3718 72.6242 141.4991 0.0000 -37.5936 0.0000
# 4 0.0000 0.0000 0.0000 61.8160 0.0000 -7.7214
# 5 -28.1793 -21.2210 -37.5936 0.0000 68.0740 0.0000
# 6 0.0000 0.0000 0.0000 -7.7214 0.0000 47.0124
#
#
#
# Elastic Compliance Matrix: (Units=1/GPa)
#
#
# Indices 1 2 3 4 5 6 
#
# 1 0.007155 -0.000630 -0.002515 0.000000 0.001376 0.000000
# 2 -0.000630 0.007907 -0.003739 0.000000 0.000139 0.000000
# 3 -0.002515 -0.003739 0.011164 0.000000 0.003959 0.000000
# 4 0.000000 0.000000 0.000000 0.016516 0.000000 0.002713
# 5 0.001376 0.000139 0.003959 0.000000 0.017489 0.000000
# 6 0.000000 0.000000 0.000000 0.002713 0.000000 0.021717
#
#
# Mechanical properties :
#
#
# Convention : Reuss Voigt Hill
#
# Bulk Modulus (GPa) = 80.27412 93.08705 86.68058
# Shear Modulus (GPa) = 50.06503 55.20886 52.63694
#
# Velocity S-wave (km/s) = 4.39336 4.61354 4.50479
# Velocity P-wave (km/s) = 7.52885 8.01671 7.77661
#
# Compressibility (1/GPa) = 0.01245731
#
# Stress axis : x y z
#
# Youngs Moduli (GPa) = 139.75677 126.47118 89.56983
#
# Poissons Ratio (x) = 0.07973 0.22530
# Poissons Ratio (y) = 0.08811 0.33490
# Poissons Ratio (z) = 0.35154 0.47287
#
# Static dielectric constant tensor:
#      x y z
#    x 2.029380 0.000000 0.069150 
#    y 0.000000 1.935720 0.000000 
#    z 0.069150 0.000000 2.174270 
# 
# From -- ./inp_files/46922.got.cif
#   From: 2010.05.17/outbox.cif.g08.bks.cpg/sg15_24_cif.got.tgz:46922.got - 2010.06.03 18:47:42.
