data_PCOD9306250
_publ_section_title
;
Structure prediction by ZEFSAII (Michael W. Deem and Ramdas Pophale) SiO2 
 PCOD9306250
Probable space group: C 2/C
;
_chemical_formula_sum "Si O2"
_cell_formula_units_Z 56
_cell_length_a 29.530755
_cell_length_b 10.709791
_cell_length_c 9.047955
_cell_angle_alpha 90.000000
_cell_angle_beta 60.548400
_cell_angle_gamma 90.000000
_cell_volume 2491.782390
_symmetry_space_group_name_H-M "C 2/C"
_symmetry_group_IT_number 15
_symmetry_cell_setting 'monoclinic'
loop_
_space_group_symop_operation_xyz
x,y,z
-x,y,1/2-z
-x,-y,-z
x,-y,1/2+z
1/2+x,1/2+y,z
1/2-x,1/2+y,1/2-z
1/2-x,1/2-y,-z
1/2+x,1/2-y,1/2+z
loop_
_atom_site_type_symbol
_atom_site_label
_atom_site_fract_x
_atom_site_fract_y
_atom_site_fract_z
Si Si1 0.355103 0.077514 0.738998
Si Si2 0.429755 0.762514 0.277378
Si Si3 0.537281 0.997567 0.580204
Si Si4 0.200032 0.615229 0.965514
Si Si5 0.473657 0.384455 0.453349
Si Si6 0.813357 0.103764 0.904458
Si Si7 0.880010 0.957842 0.023930
O O1 0.373265 0.195176 0.806342
O O2 0.310439 0.095611 0.690501
O O3 0.407389 0.050330 0.562541
O O4 0.339916 0.966069 0.872810
O O5 0.448521 0.875375 0.352003
O O6 0.419949 0.636657 0.382926
O O7 0.468470 0.728129 0.079973
O O8 0.500000 0.920530 0.750000
O O9 0.500000 0.000000 0.500000
O O10 0.257347 0.574175 0.924430
O O11 0.191973 0.760634 0.013604
O O12 0.500000 0.366569 0.250000
O O13 0.500000 0.500000 0.500000
O O14 0.414101 0.423692 0.517295
O O15 0.854976 0.106869 0.705752
O O16 0.835191 0.004454 0.986023
#
# Coordination Sequence:
#
# PCOD9306250 Si02
#       7
#     8   8   8   8   8   8   8
#     4  12  24  47  71 104 140 184 239 298 355 425
#     4  12  26  44  75 104 148 185 241 294 364 427
#     4  12  25  45  70 103 141 188 232 290 353 427
#     4  11  25  46  71 104 137 190 238 298 358 427
#     4  12  25  44  71 107 147 193 238 293 357 429
#     4  11  25  46  72 101 143 184 241 295 362 426
#     4  12  24  47  70 106 142 187 234 302 357 427
#
# _framework density 22.473873000000001
#
# number of rings (size 3 to 8) (size 9 to 14) (size 15 to 20)
#    0.000    0.286    5.714    2.571    2.000    0.571 
#    5.143    1.429    0.000    0.000    0.000    0.000 
#    0.000    0.000    0.000    0.000    0.000    0.000 
#
# Total GULP energy -156569.675141 kJ/mol
# GULP energy per Si atom -5591.774112 kJ/mol
# Density = 2.242272 g / cm^3
# Si number density = 22.473873 Si / 1000 Ang^3
#
#
#
# Elastic Constant Matrix: (Units=GPa)
#
#
# Indices 1 2 3 4 5 6 
#
# 1 118.3774 17.2701 -6.3106 0.0000 25.2341 0.0000
# 2 17.2701 74.4263 6.5196 0.0000 13.4325 0.0000
# 3 -6.3106 6.5196 83.6999 0.0000 10.8863 0.0000
# 4 0.0000 0.0000 0.0000 27.8712 0.0000 5.9144
# 5 25.2341 13.4325 10.8863 0.0000 46.6224 0.0000
# 6 0.0000 0.0000 0.0000 5.9144 0.0000 37.0560
#
#
#
# Elastic Compliance Matrix: (Units=1/GPa)
#
#
# Indices 1 2 3 4 5 6 
#
# 1 0.009870 -0.001473 0.001545 0.000000 -0.005279 0.000000
# 2 -0.001473 0.014421 -0.000823 0.000000 -0.003166 0.000000
# 3 0.001545 -0.000823 0.012588 0.000000 -0.003539 0.000000
# 4 0.000000 0.000000 0.000000 0.037137 0.000000 -0.005927
# 5 -0.005279 -0.003166 -0.003539 0.000000 0.026044 0.000000
# 6 0.000000 0.000000 0.000000 -0.005927 0.000000 0.027932
#
#
# Mechanical properties :
#
#
# Convention : Reuss Voigt Hill
#
# Bulk Modulus (GPa) = 28.26505 34.60685 31.43595
# Shear Modulus (GPa) = 35.38901 39.57822 37.48361
#
# Velocity S-wave (km/s) = 3.97252 4.20107 4.08839
# Velocity P-wave (km/s) = 5.80046 6.24213 6.02534
#
# Compressibility (1/GPa) = 0.03537939
#
# Stress axis : x y z
#
# Youngs Moduli (GPa) = 101.31647 69.34191 79.43872
#
# Poissons Ratio (x) = 0.10214 -0.12277
# Poissons Ratio (y) = 0.14924 0.06535
# Poissons Ratio (z) = -0.15658 0.05704
#
# Static dielectric constant tensor:
#      x y z
#    x 1.844730 0.000000 -0.002560 
#    y 0.000000 1.821560 0.000000 
#    z -0.002560 0.000000 1.915190 
# 
# From -- ./inp_files/69313.got.cif
#   From: 2010.05.17/outbox.cif.g08.bks.cpg/sg15_35_cif.got.tgz:69313.got - 2010.06.03 18:47:42.
