data_PCOD9306645
_publ_section_title
;
Structure prediction by ZEFSAII (Michael W. Deem and Ramdas Pophale) SiO2 
 PCOD9306645
Probable space group: C 2/C
;
_chemical_formula_sum "Si O2"
_cell_formula_units_Z 52
_cell_length_a 14.805995
_cell_length_b 11.858509
_cell_length_c 13.756438
_cell_angle_alpha 90.000000
_cell_angle_beta 68.701541
_cell_angle_gamma 90.000000
_cell_volume 2250.350889
_symmetry_space_group_name_H-M "C 2/C"
_symmetry_group_IT_number 15
_symmetry_cell_setting 'monoclinic'
loop_
_space_group_symop_operation_xyz
x,y,z
-x,y,1/2-z
-x,-y,-z
x,-y,1/2+z
1/2+x,1/2+y,z
1/2-x,1/2+y,1/2-z
1/2-x,1/2-y,-z
1/2+x,1/2-y,1/2+z
loop_
_atom_site_type_symbol
_atom_site_label
_atom_site_fract_x
_atom_site_fract_y
_atom_site_fract_z
Si Si1 0.613229 0.957026 0.968999
Si Si2 0.998707 0.974821 0.366142
Si Si3 0.668237 0.046564 0.671348
Si Si4 0.500000 0.120452 0.250000
Si Si5 0.785246 0.671895 0.664165
Si Si6 0.597293 0.256302 0.346166
Si Si7 0.359378 0.402935 0.571566
O O1 0.631119 0.837629 0.908109
O O2 0.685306 0.054609 0.899775
O O3 0.637060 0.935058 0.072627
O O4 0.500000 0.000000 0.000000
O O5 0.063858 0.877864 0.392812
O O6 0.000000 0.966653 0.250000
O O7 0.895414 0.951395 0.454397
O O8 0.054392 0.083950 0.383070
O O9 0.673154 0.151858 0.742250
O O10 0.588267 0.959145 0.739652
O O11 0.768064 0.978145 0.638352
O O12 0.498167 0.203471 0.341171
O O13 0.675916 0.713358 0.731910
O O14 0.830392 0.772788 0.584685
#
# Coordination Sequence:
#
# PCOD9306645 Si02
#       7
#     8   8   8   4   8   8   8
#     4  12  26  45  72 107 146 194 251 306 371 442
#     4  11  26  48  71 102 149 196 242 306 368 445
#     4  12  25  45  75 108 144 196 245 301 368 442
#     4  12  22  44  72 106 144 190 242 298 362 434
#     4  12  25  46  73 105 147 184 245 313 363 443
#     4  12  24  43  71 104 144 187 247 307 362 438
#     4  11  26  47  71 109 145 194 249 296 377 440
#
# _framework density 23.107506999999998
#
# number of rings (size 3 to 8) (size 9 to 14) (size 15 to 20)
#    0.000    0.308    6.923    0.923    2.154    1.231 
#    9.692    0.000    0.000    0.000    0.000    0.000 
#    0.000    0.000    0.000    0.000    0.000    0.000 
#
# Total GULP energy -145112.881804 kJ/mol
# GULP energy per Si atom -5581.264685 kJ/mol
# Density = 2.305491 g / cm^3
# Si number density = 23.107507 Si / 1000 Ang^3
#
#
#
# Elastic Constant Matrix: (Units=GPa)
#
#
# Indices 1 2 3 4 5 6 
#
# 1 81.2709 6.3117 27.4182 0.0000 -4.9614 0.0000
# 2 6.3117 23.8984 -8.7923 0.0000 -8.2471 0.0000
# 3 27.4182 -8.7923 107.6813 0.0000 3.1260 0.0000
# 4 0.0000 0.0000 0.0000 33.6040 0.0000 -1.6659
# 5 -4.9614 -8.2471 3.1260 0.0000 51.1913 0.0000
# 6 0.0000 0.0000 0.0000 -1.6659 0.0000 21.2141
#
#
#
# Elastic Compliance Matrix: (Units=1/GPa)
#
#
# Indices 1 2 3 4 5 6 
#
# 1 0.014090 -0.004915 -0.004013 0.000000 0.000819 0.000000
# 2 -0.004915 0.047313 0.004916 0.000000 0.006846 0.000000
# 3 -0.004013 0.004916 0.010717 0.000000 -0.000251 0.000000
# 4 0.000000 0.000000 0.000000 0.029875 0.000000 0.002346
# 5 0.000819 0.006846 -0.000251 0.000000 0.020732 0.000000
# 6 0.000000 0.000000 0.000000 0.002346 0.000000 0.047323
#
#
# Mechanical properties :
#
#
# Convention : Reuss Voigt Hill
#
# Bulk Modulus (GPa) = 15.60156 29.19176 22.39666
# Shear Modulus (GPa) = 25.07041 33.72942 29.39992
#
# Velocity S-wave (km/s) = 3.29743 3.82471 3.57082
# Velocity P-wave (km/s) = 4.61126 5.67142 5.16860
#
# Compressibility (1/GPa) = 0.06409616
#
# Stress axis : x y z
#
# Youngs Moduli (GPa) = 70.97237 21.13595 93.30901
#
# Poissons Ratio (x) = 0.10388 0.37442
# Poissons Ratio (y) = 0.34883 -0.45870
# Poissons Ratio (z) = 0.28479 -0.10390
#
# Static dielectric constant tensor:
#      x y z
#    x 1.911670 0.000000 0.006370 
#    y 0.000000 1.906100 0.000000 
#    z 0.006370 0.000000 1.962950 
# 
# From -- ./inp_files/152530.got.cif
#   From: 2010.05.17/outbox.cif.g08.bks.cpg/sg15_77_cif.got.tgz:152530.got - 2010.06.03 18:47:42.
