data_PCOD9306697
_publ_section_title
;
Structure prediction by ZEFSAII (Michael W. Deem and Ramdas Pophale) SiO2 
 PCOD9306697
Probable space group: C 2/C
;
_chemical_formula_sum "Si O2"
_cell_formula_units_Z 56
_cell_length_a 13.845568
_cell_length_b 20.525887
_cell_length_c 16.165953
_cell_angle_alpha 90.000000
_cell_angle_beta 148.374380
_cell_angle_gamma 90.000000
_cell_volume 2409.068403
_symmetry_space_group_name_H-M "C 2/C"
_symmetry_group_IT_number 15
_symmetry_cell_setting 'monoclinic'
loop_
_space_group_symop_operation_xyz
x,y,z
-x,y,1/2-z
-x,-y,-z
x,-y,1/2+z
1/2+x,1/2+y,z
1/2-x,1/2+y,1/2-z
1/2-x,1/2-y,-z
1/2+x,1/2-y,1/2+z
loop_
_atom_site_type_symbol
_atom_site_label
_atom_site_fract_x
_atom_site_fract_y
_atom_site_fract_z
Si Si1 0.875934 0.315470 0.228116
Si Si2 0.818759 0.987848 0.971275
Si Si3 0.839028 0.915133 0.347549
Si Si4 0.666269 0.660527 0.812907
Si Si5 0.441803 0.200729 0.338366
Si Si6 0.500000 0.427908 0.750000
Si Si7 0.709916 0.179930 0.093747
Si Si8 0.000000 0.599960 0.250000
O O1 0.688954 0.351204 0.117110
O O2 0.820264 0.245579 0.153540
O O3 0.000000 0.350876 0.250000
O O4 0.012383 0.314514 0.405341
O O5 0.657229 0.948228 0.898055
O O6 0.747472 0.031399 0.841341
O O7 0.959259 0.939491 0.027402
O O8 0.930096 0.029978 0.120327
O O9 0.768679 0.893975 0.205469
O O10 0.500000 0.636670 0.750000
O O11 0.589738 0.724754 0.710085
O O12 0.842613 0.686739 0.989858
O O13 0.327600 0.183568 0.336356
O O14 0.394491 0.148781 0.233773
O O15 0.669849 0.381557 0.846282
#
# Coordination Sequence:
#
# PCOD9306697 Si02
#       8
#     8   8   8   8   8   4   8   4
#     4  12  25  45  76 110 151 184 238 308 376 434
#     4  11  30  50  75 102 152 211 242 308 349 452
#     4  11  26  48  75 107 146 199 246 293 372 439
#     4  12  25  45  76 110 151 184 238 308 376 434
#     4  12  26  45  74 114 146 189 237 310 375 444
#     4  12  30  50  74 108 148 196 262 294 374 440
#     4  12  26  45  74 114 146 189 237 310 375 444
#     4  12  30  50  74 108 148 196 262 294 374 440
#
# _framework density 23.245501000000001
#
# number of rings (size 3 to 8) (size 9 to 14) (size 15 to 20)
#    0.000    0.286    4.286    2.571   14.000    0.000 
#    0.000    2.143    0.000    0.000    0.000    0.000 
#    0.000    0.000    0.000    0.000    0.000    0.000 
#
# Total GULP energy -156500.012202 kJ/mol
# GULP energy per Si atom -5589.286150 kJ/mol
# Density = 2.319259 g / cm^3
# Si number density = 23.245501 Si / 1000 Ang^3
#
#
#
# Elastic Constant Matrix: (Units=GPa)
#
#
# Indices 1 2 3 4 5 6 
#
# 1 113.3392 35.4819 5.7307 -0.0001 0.0955 0.0006
# 2 35.4819 86.5384 33.8384 0.0000 -0.1651 -0.0002
# 3 5.7307 33.8384 56.1082 -0.0019 -2.5939 -0.0017
# 4 -0.0001 0.0000 -0.0019 12.6525 -0.0007 -8.9572
# 5 0.0955 -0.1651 -2.5939 -0.0007 33.6598 -0.0005
# 6 0.0006 -0.0002 -0.0017 -8.9572 -0.0005 25.5970
#
#
#
# Elastic Compliance Matrix: (Units=1/GPa)
#
#
# Indices 1 2 3 4 5 6 
#
# 1 0.010284 -0.004982 0.001959 0.000000 0.000097 0.000000
# 2 -0.004982 0.017549 -0.010106 -0.000003 -0.000679 -0.000001
# 3 0.001959 -0.010106 0.023800 0.000006 0.001779 0.000004
# 4 0.000000 -0.000003 0.000006 0.105063 0.000003 0.036765
# 5 0.000097 -0.000679 0.001779 0.000003 0.029843 0.000002
# 6 0.000000 -0.000001 0.000004 0.036765 0.000002 0.051932
#
#
# Mechanical properties :
#
#
# Convention : Reuss Voigt Hill
#
# Bulk Modulus (GPa) = 39.41126 45.12087 42.26606
# Shear Modulus (GPa) = 18.30255 26.44419 22.37337
#
# Velocity S-wave (km/s) = 2.80904 3.37650 3.10575
# Velocity P-wave (km/s) = 5.24520 5.88674 5.57520
#
# Compressibility (1/GPa) = 0.02537346
#
# Stress axis : x y z
#
# Youngs Moduli (GPa) = 97.24152 56.98418 42.01732
#
# Poissons Ratio (x) = 0.28391 -0.08231
# Poissons Ratio (y) = 0.48448 0.42463
# Poissons Ratio (z) = -0.19049 0.57588
#
# Static dielectric constant tensor:
#      x y z
#    x 1.909540 0.000000 -0.036960 
#    y 0.000000 1.909230 0.000000 
#    z -0.036960 0.000000 1.891360 
# 
# From -- ./inp_files/207014.got.cif
#   From: 2010.05.17/outbox.cif.g08.bks.cpg/sg15_104_cif.got.tgz:207014.got - 2010.06.03 18:47:42.
