data_PCOD9306627
_publ_section_title
;
Structure prediction by ZEFSAII (Michael W. Deem and Ramdas Pophale) SiO2 
 PCOD9306627
Probable space group: C 2/C
;
_chemical_formula_sum "Si O2"
_cell_formula_units_Z 52
_cell_length_a 11.090873
_cell_length_b 9.013846
_cell_length_c 19.887945
_cell_angle_alpha 90.000000
_cell_angle_beta 104.978526
_cell_angle_gamma 90.000000
_cell_volume 1920.671694
_symmetry_space_group_name_H-M "C 2/C"
_symmetry_group_IT_number 15
_symmetry_cell_setting 'monoclinic'
loop_
_space_group_symop_operation_xyz
x,y,z
-x,y,1/2-z
-x,-y,-z
x,-y,1/2+z
1/2+x,1/2+y,z
1/2-x,1/2+y,1/2-z
1/2-x,1/2-y,-z
1/2+x,1/2-y,1/2+z
loop_
_atom_site_type_symbol
_atom_site_label
_atom_site_fract_x
_atom_site_fract_y
_atom_site_fract_z
Si Si1 0.803095 0.779150 0.700349
Si Si2 0.500000 0.469359 0.250000
Si Si3 0.423488 0.369227 0.387830
Si Si4 0.513189 0.053805 0.593983
Si Si5 0.950321 0.136518 0.041778
Si Si6 0.206321 0.419649 0.998852
Si Si7 0.627105 0.041588 0.246310
O O1 0.693244 0.740756 0.632843
O O2 0.856465 0.614038 0.714188
O O3 0.896596 0.915268 0.705199
O O4 0.736065 0.838700 0.759480
O O5 0.462604 0.383368 0.314123
O O6 0.434800 0.542526 0.410548
O O7 0.609482 0.050434 0.423896
O O8 0.448197 0.214754 0.583674
O O9 0.611413 0.052065 0.546799
O O10 0.600806 0.016260 0.668047
O O11 0.979548 0.182037 0.968611
O O12 0.822755 0.036886 0.023034
O O13 0.250000 0.250000 0.000000
O O14 0.500000 0.113734 0.250000
#
# Coordination Sequence:
#
# PCOD9306627 Si02
#       7
#     8   4   8   8   8   8   8
#     4  12  28  49  76 113 154 202 260 315 394 462
#     4  12  26  50  78 114 158 202 260 326 384 468
#     4  11  27  48  78 116 149 206 257 311 392 459
#     4  11  28  48  73 118 150 196 267 311 385 465
#     4  11  26  50  80 108 160 205 253 320 389 460
#     4  11  26  46  75 111 150 200 248 315 379 458
#     4  12  30  49  78 113 154 204 257 325 389 468
#
# _framework density 27.07386
#
# number of rings (size 3 to 8) (size 9 to 14) (size 15 to 20)
#    0.000    0.615    2.308    3.231   11.846    1.231 
#    0.000    3.846    0.000    0.000    0.000    0.000 
#    0.000    0.000    0.000    0.000    0.000    0.000 
#
# Total GULP energy -144994.513627 kJ/mol
# GULP energy per Si atom -5576.712063 kJ/mol
# Density = 2.701224 g / cm^3
# Si number density = 27.073860 Si / 1000 Ang^3
#
#
#
# Elastic Constant Matrix: (Units=GPa)
#
#
# Indices 1 2 3 4 5 6 
#
# 1 131.5037 63.5963 15.2855 0.0000 -7.5318 0.0000
# 2 63.5963 169.3472 41.1331 0.0000 7.2035 0.0000
# 3 15.2855 41.1331 151.1412 0.0000 -6.3456 0.0000
# 4 0.0000 0.0000 0.0000 30.0174 0.0000 5.5741
# 5 -7.5318 7.2035 -6.3456 0.0000 22.0267 0.0000
# 6 0.0000 0.0000 0.0000 5.5741 0.0000 85.1845
#
#
#
# Elastic Compliance Matrix: (Units=1/GPa)
#
#
# Indices 1 2 3 4 5 6 
#
# 1 0.009739 -0.003925 0.000280 0.000000 0.004695 0.000000
# 2 -0.003925 0.008055 -0.001986 0.000000 -0.004549 0.000000
# 3 0.000280 -0.001986 0.007247 0.000000 0.002833 0.000000
# 4 0.000000 0.000000 0.000000 0.033724 0.000000 -0.002207
# 5 0.004695 -0.004549 0.002833 0.000000 0.049308 0.000000
# 6 0.000000 0.000000 0.000000 -0.002207 0.000000 0.011884
#
#
# Mechanical properties :
#
#
# Convention : Reuss Voigt Hill
#
# Bulk Modulus (GPa) = 72.57153 76.89131 74.73142
# Shear Modulus (GPa) = 36.81559 49.57755 43.19657
#
# Velocity S-wave (km/s) = 3.69157 4.28389 3.99871
# Velocity P-wave (km/s) = 6.71070 7.27538 6.99874
#
# Compressibility (1/GPa) = 0.01377951
#
# Stress axis : x y z
#
# Youngs Moduli (GPa) = 102.68159 124.14706 137.97929
#
# Poissons Ratio (x) = 0.48729 -0.03869
# Poissons Ratio (y) = 0.40304 0.27405
# Poissons Ratio (z) = -0.02879 0.24658
#
# Static dielectric constant tensor:
#      x y z
#    x 2.213050 0.000000 -0.078340 
#    y 0.000000 2.151170 0.000000 
#    z -0.078340 0.000000 2.174660 
# 
# From -- ./inp_files/291231.got.cif
#   From: 2010.05.17/outbox.cif.g08.bks.cpg/sg15_146_cif.got.tgz:291231.got - 2010.06.03 18:47:42.
