data_PCOD9306685
_publ_section_title
;
Structure prediction by ZEFSAII (Michael W. Deem and Ramdas Pophale) SiO2 
 PCOD9306685
Probable space group: C 2/C
;
_chemical_formula_sum "Si O2"
_cell_formula_units_Z 36
_cell_length_a 6.589228
_cell_length_b 21.776282
_cell_length_c 11.897737
_cell_angle_alpha 90.000000
_cell_angle_beta 96.935274
_cell_angle_gamma 90.000000
_cell_volume 1694.701837
_symmetry_space_group_name_H-M "C 2/C"
_symmetry_group_IT_number 15
_symmetry_cell_setting 'monoclinic'
loop_
_space_group_symop_operation_xyz
x,y,z
-x,y,1/2-z
-x,-y,-z
x,-y,1/2+z
1/2+x,1/2+y,z
1/2-x,1/2+y,1/2-z
1/2-x,1/2-y,-z
1/2+x,1/2-y,1/2+z
loop_
_atom_site_type_symbol
_atom_site_label
_atom_site_fract_x
_atom_site_fract_y
_atom_site_fract_z
Si Si1 0.500000 0.252393 0.750000
Si Si2 0.648076 0.844295 0.652802
Si Si3 0.487912 0.581315 0.616441
Si Si4 0.711864 0.034676 0.041282
Si Si5 0.677655 0.811981 0.052095
O O1 0.337220 0.297789 0.678855
O O2 0.382767 0.207846 0.827282
O O3 0.500000 0.835953 0.750000
O O4 0.706562 0.915470 0.641001
O O5 0.518119 0.832175 0.532082
O O6 0.500000 0.592163 0.750000
O O7 0.697328 0.569998 0.562157
O O8 0.363911 0.518942 0.587827
O O9 0.353912 0.637072 0.557923
O O10 0.500000 0.000000 0.000000
O O11 0.750000 0.750000 0.000000
#
# Coordination Sequence:
#
# PCOD9306685 Si02
#       5
#     4   8   8   8   8
#     4  12  28  46  78 102 148 194 240 306 362 446
#     4  12  27  47  75 102 143 192 244 299 365 433
#     4  11  28  45  73 107 146 186 240 303 362 430
#     4  11  26  48  71 103 144 187 244 296 358 431
#     4  12  26  48  71 108 147 188 243 298 369 429
#
# _framework density 21.242673
#
# number of rings (size 3 to 8) (size 9 to 14) (size 15 to 20)
#    0.000    0.444    4.444    2.000   10.889    0.000 
#    0.000    0.000    0.000    0.000    0.000    0.000 
#    0.000    0.000    0.000    0.000    0.000    0.000 
#
# Total GULP energy -100677.594533 kJ/mol
# GULP energy per Si atom -5593.199696 kJ/mol
# Density = 2.119432 g / cm^3
# Si number density = 21.242673 Si / 1000 Ang^3
#
#
#
# Elastic Constant Matrix: (Units=GPa)
#
#
# Indices 1 2 3 4 5 6 
#
# 1 112.9986 45.7417 27.8898 0.0000 1.9960 0.0000
# 2 45.7417 131.4779 18.5977 0.0000 2.9090 0.0000
# 3 27.8898 18.5977 66.1447 0.0000 7.0011 0.0000
# 4 0.0000 0.0000 0.0000 43.6827 0.0000 -5.4938
# 5 1.9960 2.9090 7.0011 0.0000 34.4260 0.0000
# 6 0.0000 0.0000 0.0000 -5.4938 0.0000 23.5274
#
#
#
# Elastic Compliance Matrix: (Units=1/GPa)
#
#
# Indices 1 2 3 4 5 6 
#
# 1 0.011134 -0.003345 -0.003797 0.000000 0.000409 0.000000
# 2 -0.003345 0.008928 -0.001063 0.000000 -0.000344 0.000000
# 3 -0.003797 -0.001063 0.017359 0.000000 -0.003220 0.000000
# 4 0.000000 0.000000 0.000000 0.023585 0.000000 0.005507
# 5 0.000409 -0.000344 -0.003220 0.000000 0.029708 0.000000
# 6 0.000000 0.000000 0.000000 0.005507 0.000000 0.043790
#
#
# Mechanical properties :
#
#
# Convention : Reuss Voigt Hill
#
# Bulk Modulus (GPa) = 47.59839 55.00886 51.30362
# Shear Modulus (GPa) = 31.66191 34.88668 33.27429
#
# Velocity S-wave (km/s) = 3.86487 4.05692 3.96206
# Velocity P-wave (km/s) = 6.50937 6.92072 6.71820
#
# Compressibility (1/GPa) = 0.02100911
#
# Stress axis : x y z
#
# Youngs Moduli (GPa) = 89.81578 112.01048 57.60615
#
# Poissons Ratio (x) = 0.37473 0.21875
# Poissons Ratio (y) = 0.30047 0.06124
# Poissons Ratio (z) = 0.34106 0.11908
#
# Static dielectric constant tensor:
#      x y z
#    x 1.959150 0.000000 -0.004850 
#    y 0.000000 1.945150 0.000000 
#    z -0.004850 0.000000 1.741880 
# 
# From -- ./inp_files/72430.got.cif
#   From: 2010.05.17/outbox.cif.g08.bks.cpg/sg15_37_cif.got.tgz:72430.got - 2010.06.03 18:47:42.
