data_PCOD9306666
_publ_section_title
;
Structure prediction by ZEFSAII (Michael W. Deem and Ramdas Pophale) SiO2 
 PCOD9306666
Probable space group: C 2/C
;
_chemical_formula_sum "Si O2"
_cell_formula_units_Z 52
_cell_length_a 11.190950
_cell_length_b 8.303641
_cell_length_c 23.515673
_cell_angle_alpha 90.000000
_cell_angle_beta 60.363791
_cell_angle_gamma 90.000000
_cell_volume 1899.345432
_symmetry_space_group_name_H-M "C 2/C"
_symmetry_group_IT_number 15
_symmetry_cell_setting 'monoclinic'
loop_
_space_group_symop_operation_xyz
x,y,z
-x,y,1/2-z
-x,-y,-z
x,-y,1/2+z
1/2+x,1/2+y,z
1/2-x,1/2+y,1/2-z
1/2-x,1/2-y,-z
1/2+x,1/2-y,1/2+z
loop_
_atom_site_type_symbol
_atom_site_label
_atom_site_fract_x
_atom_site_fract_y
_atom_site_fract_z
Si Si1 0.493746 0.459035 0.159347
Si Si2 0.845066 0.338704 0.522524
Si Si3 0.964383 0.618074 0.323980
Si Si4 0.344146 0.172516 0.575375
Si Si5 0.500000 0.694179 0.250000
Si Si6 0.672514 0.485647 0.409664
Si Si7 0.699046 0.890425 0.286776
O O1 0.565516 0.286579 0.138729
O O2 0.565533 0.583601 0.184997
O O3 0.442245 0.520664 0.111321
O O4 0.347434 0.425395 0.226203
O O5 0.750000 0.250000 0.500000
O O6 0.790812 0.512166 0.556037
O O7 0.856382 0.197160 0.566337
O O8 0.993038 0.366992 0.459693
O O9 0.834977 0.498333 0.356333
O O10 0.000000 0.649441 0.250000
O O11 0.103088 0.546066 0.317560
O O12 0.338040 0.352143 0.549232
O O13 0.292841 0.188033 0.653021
O O14 0.611880 0.791486 0.260289
#
# Coordination Sequence:
#
# PCOD9306666 Si02
#       7
#     8   8   8   8   4   8   8
#     4  12  25  42  68 105 151 191 240 297 373 460
#     4  11  27  50  76 104 139 195 259 310 375 436
#     4  12  23  41  65 100 145 194 241 288 371 450
#     4  11  26  47  75 105 142 194 249 315 371 435
#     4  12  24  38  68 102 138 194 232 280 370 450
#     4  12  25  48  71 107 152 190 241 318 370 442
#     4  12  23  44  69 103 150 189 243 302 366 449
#
# _framework density 27.377851
#
# number of rings (size 3 to 8) (size 9 to 14) (size 15 to 20)
#    0.000    0.308    4.615    4.154    0.000    5.538 
#    0.000    0.000    0.000    0.000    0.000    0.000 
#    0.000    0.000    0.000    0.000    0.000    0.000 
#
# Total GULP energy -145670.134683 kJ/mol
# GULP energy per Si atom -5602.697488 kJ/mol
# Density = 2.731554 g / cm^3
# Si number density = 27.377851 Si / 1000 Ang^3
#
#
#
# Elastic Constant Matrix: (Units=GPa)
#
#
# Indices 1 2 3 4 5 6 
#
# 1 103.9731 25.0333 9.2164 0.0000 18.6781 0.0000
# 2 25.0333 168.1339 22.3298 0.0000 25.4419 0.0000
# 3 9.2164 22.3298 60.8700 0.0000 -10.6130 0.0000
# 4 0.0000 0.0000 0.0000 36.1708 0.0000 -2.1481
# 5 18.6781 25.4419 -10.6130 0.0000 38.5712 0.0000
# 6 0.0000 0.0000 0.0000 -2.1481 0.0000 62.0256
#
#
#
# Elastic Compliance Matrix: (Units=1/GPa)
#
#
# Indices 1 2 3 4 5 6 
#
# 1 0.010970 -0.000438 -0.002496 0.000000 -0.005710 0.000000
# 2 -0.000438 0.007343 -0.003608 0.000000 -0.005624 0.000000
# 3 -0.002496 -0.003608 0.019701 0.000000 0.009009 0.000000
# 4 0.000000 0.000000 0.000000 0.027704 0.000000 0.000959
# 5 -0.005710 -0.005624 0.009009 0.000000 0.034880 0.000000
# 6 0.000000 0.000000 0.000000 0.000959 0.000000 0.016156
#
#
# Mechanical properties :
#
#
# Convention : Reuss Voigt Hill
#
# Bulk Modulus (GPa) = 40.11173 49.57066 44.84119
# Shear Modulus (GPa) = 36.19311 45.78002 40.98656
#
# Velocity S-wave (km/s) = 3.63986 4.09364 3.87340
# Velocity P-wave (km/s) = 5.68750 6.36311 6.03477
#
# Compressibility (1/GPa) = 0.02493036
#
# Stress axis : x y z
#
# Youngs Moduli (GPa) = 91.15453 136.18253 50.75921
#
# Poissons Ratio (x) = 0.05961 0.12670
# Poissons Ratio (y) = 0.03990 0.18315
# Poissons Ratio (z) = 0.22753 0.49136
#
# Static dielectric constant tensor:
#      x y z
#    x 2.351740 0.000000 0.073180 
#    y 0.000000 2.395810 0.000000 
#    z 0.073180 0.000000 2.229690 
# 
# From -- ./inp_files/291473.got.cif
#   From: 2010.05.17/outbox.cif.g08.bks.cpg/sg15_146_cif.got.tgz:291473.got - 2010.06.03 18:47:42.
