data_PCOD9306535
_publ_section_title
;
Structure prediction by ZEFSAII (Michael W. Deem and Ramdas Pophale) SiO2 
 PCOD9306535
Probable space group: C 2/C
;
_chemical_formula_sum "Si O2"
_cell_formula_units_Z 48
_cell_length_a 15.079518
_cell_length_b 25.568936
_cell_length_c 11.904719
_cell_angle_alpha 90.000000
_cell_angle_beta 152.779417
_cell_angle_gamma 90.000000
_cell_volume 2099.577731
_symmetry_space_group_name_H-M "C 2/C"
_symmetry_group_IT_number 15
_symmetry_cell_setting 'monoclinic'
loop_
_space_group_symop_operation_xyz
x,y,z
-x,y,1/2-z
-x,-y,-z
x,-y,1/2+z
1/2+x,1/2+y,z
1/2-x,1/2+y,1/2-z
1/2-x,1/2-y,-z
1/2+x,1/2-y,1/2+z
loop_
_atom_site_type_symbol
_atom_site_label
_atom_site_fract_x
_atom_site_fract_y
_atom_site_fract_z
Si Si1 0.200815 0.418033 0.930026
Si Si2 0.826270 0.805585 0.132240
Si Si3 0.415019 0.379237 0.546957
Si Si4 0.463928 0.446597 0.027187
Si Si5 0.536354 0.180151 0.656833
Si Si6 0.887483 0.792771 0.838835
O O1 0.000000 0.440702 0.750000
O O2 0.196955 0.356667 0.966647
O O3 0.267274 0.431410 0.876015
O O4 0.368800 0.443245 0.192882
O O5 0.000000 0.822201 0.250000
O O6 0.935540 0.795782 0.372799
O O7 0.750000 0.750000 0.000000
O O8 0.500000 0.409804 0.750000
O O9 0.482908 0.404405 0.507603
O O10 0.186708 0.366134 0.296063
O O11 0.540223 0.326111 0.684323
O O12 0.500000 0.500000 0.000000
O O13 0.500000 0.180710 0.750000
O O14 0.320578 0.183322 0.358973
O O15 0.637192 0.233249 0.727268
#
# Coordination Sequence:
#
# PCOD9306535 Si02
#       6
#     8   8   8   8   8   8
#     4  11  25  52  80 113 149 192 249 313 382 453
#     4  12  24  42  66 108 150 198 246 302 372 453
#     4  12  25  44  69 107 145 191 250 305 368 445
#     4  11  27  52  79 106 145 191 246 318 382 437
#     4  12  24  40  64 101 148 202 247 296 360 443
#     4  12  23  41  64  98 150 201 246 294 365 440
#
# _framework density 22.861740000000001
#
# number of rings (size 3 to 8) (size 9 to 14) (size 15 to 20)
#    0.000    0.333    6.667    2.500    2.333    4.667 
#    0.000    0.833    0.000    0.000    0.000    0.000 
#    0.000    0.000    0.000    0.000    0.000    0.000 
#
# Total GULP energy -133815.130525 kJ/mol
# GULP energy per Si atom -5575.630439 kJ/mol
# Density = 2.280971 g / cm^3
# Si number density = 22.861740 Si / 1000 Ang^3
#
#
#
# Elastic Constant Matrix: (Units=GPa)
#
#
# Indices 1 2 3 4 5 6 
#
# 1 184.1933 36.3902 75.6590 0.0000 8.3085 0.0000
# 2 36.3902 92.2699 37.9291 0.0000 -2.5283 0.0000
# 3 75.6590 37.9291 97.9885 0.0000 29.8562 0.0000
# 4 0.0000 0.0000 0.0000 -3.5151 0.0000 2.7948
# 5 8.3085 -2.5283 29.8562 0.0000 47.5385 0.0000
# 6 0.0000 0.0000 0.0000 2.7948 0.0000 22.9108
#
#
#
# Elastic Compliance Matrix: (Units=1/GPa)
#
#
# Indices 1 2 3 4 5 6 
#
# 1 0.008328 -0.000196 -0.007306 0.000000 0.003122 0.000000
# 2 -0.000196 0.013811 -0.006714 0.000000 0.004985 0.000000
# 3 -0.007306 -0.006714 0.022463 0.000000 -0.013188 0.000000
# 4 0.000000 0.000000 0.000000 -0.259333 0.000000 0.031635
# 5 0.003122 0.004985 -0.013188 0.000000 0.029038 0.000000
# 6 0.000000 0.000000 0.000000 0.031635 0.000000 0.039788
#
#
# Mechanical properties :
#
#
# Convention : Reuss Voigt Hill
#
# Bulk Modulus (GPa) = 61.83618 74.93425 68.38522
# Shear Modulus (GPa) = -44.60978 28.35173 -8.12903
#
# Velocity S-wave (km/s) = -4.42213 3.52538 -1.88771
# Velocity P-wave (km/s) = 1.01636 7.02989 5.02257
#
# Compressibility (1/GPa) = 0.01617176
#
# Stress axis : x y z
#
# Youngs Moduli (GPa) = 120.08037 72.40358 44.51722
#
# Poissons Ratio (x) = 0.01417 0.32523
# Poissons Ratio (y) = 0.02350 0.29889
# Poissons Ratio (z) = 0.87726 0.48612
#
# Static dielectric constant tensor:
#      x y z
#    x 1.910520 0.000000 0.025070 
#    y 0.000000 1.688510 0.000000 
#    z 0.025070 0.000000 1.754400 
# 
# From -- ./inp_files/101408.got.cif
#   From: 2010.05.17/outbox.cif.g08.bks.cpg/sg15_51_cif.got.tgz:101408.got - 2010.06.03 18:47:42.
