data_PCOD9306589
_publ_section_title
;
Structure prediction by ZEFSAII (Michael W. Deem and Ramdas Pophale) SiO2 
 PCOD9306589
Probable space group: C 2/C
;
_chemical_formula_sum "Si O2"
_cell_formula_units_Z 48
_cell_length_a 11.832421
_cell_length_b 27.997687
_cell_length_c 6.814186
_cell_angle_alpha 90.000000
_cell_angle_beta 119.285243
_cell_angle_gamma 90.000000
_cell_volume 1968.899223
_symmetry_space_group_name_H-M "C 2/C"
_symmetry_group_IT_number 15
_symmetry_cell_setting 'monoclinic'
loop_
_space_group_symop_operation_xyz
x,y,z
-x,y,1/2-z
-x,-y,-z
x,-y,1/2+z
1/2+x,1/2+y,z
1/2-x,1/2+y,1/2-z
1/2-x,1/2-y,-z
1/2+x,1/2-y,1/2+z
loop_
_atom_site_type_symbol
_atom_site_label
_atom_site_fract_x
_atom_site_fract_y
_atom_site_fract_z
Si Si1 0.741841 0.595564 0.356317
Si Si2 0.858920 0.671737 0.164086
Si Si3 0.660873 0.351780 0.177235
Si Si4 0.365404 0.447031 0.098530
Si Si5 0.602056 0.995026 0.459145
Si Si6 0.888419 0.752998 0.502834
O O1 0.786827 0.636476 0.248189
O O2 0.690144 0.621705 0.500860
O O3 0.857097 0.560534 0.513857
O O4 0.647657 0.563478 0.143776
O O5 0.877699 0.720349 0.300469
O O6 0.000000 0.650214 0.250000
O O7 0.781522 0.672832 0.894807
O O8 0.622700 0.395846 0.282390
O O9 0.575452 0.306213 0.043709
O O10 0.500000 0.473820 0.250000
O O11 0.232807 0.471548 0.062553
O O12 0.565759 0.002380 0.179205
O O13 0.750000 0.750000 0.500000
O O14 0.000000 0.737026 0.750000
#
# Coordination Sequence:
#
# PCOD9306589 Si02
#       6
#     8   8   8   8   8   8
#     4  11  26  46  75 109 154 197 259 316 386 457
#     4  11  26  45  76 113 152 195 256 317 380 454
#     4  11  26  47  75 108 150 204 252 314 383 463
#     4  11  28  48  72 111 152 205 261 318 387 457
#     4  12  25  47  75 109 151 203 259 318 385 452
#     4  12  26  48  77 110 152 200 252 312 385 455
#
# _framework density 24.379104999999999
#
# number of rings (size 3 to 8) (size 9 to 14) (size 15 to 20)
#    0.000    0.667    3.333    2.500    9.333    1.333 
#    0.000    0.000    0.000    0.000    0.000    0.000 
#    0.000    0.000    0.000    0.000    0.000    0.000 
#
# Total GULP energy -134158.826503 kJ/mol
# GULP energy per Si atom -5589.951104 kJ/mol
# Density = 2.432362 g / cm^3
# Si number density = 24.379105 Si / 1000 Ang^3
#
#
#
# Elastic Constant Matrix: (Units=GPa)
#
#
# Indices 1 2 3 4 5 6 
#
# 1 122.0074 30.6071 86.2923 0.0000 12.7868 0.0000
# 2 30.6071 117.1511 30.2190 0.0000 -9.2692 0.0000
# 3 86.2923 30.2190 167.2992 0.0000 -15.7511 0.0000
# 4 0.0000 0.0000 0.0000 55.0628 0.0000 -22.9153
# 5 12.7868 -9.2692 -15.7511 0.0000 36.6116 0.0000
# 6 0.0000 0.0000 0.0000 -22.9153 0.0000 49.2843
#
#
#
# Elastic Compliance Matrix: (Units=1/GPa)
#
#
# Indices 1 2 3 4 5 6 
#
# 1 0.016172 -0.002757 -0.008797 0.000000 -0.010131 0.000000
# 2 -0.002757 0.009518 0.000021 0.000000 0.003382 0.000000
# 3 -0.008797 0.000021 0.011257 0.000000 0.007921 0.000000
# 4 0.000000 0.000000 0.000000 0.022518 0.000000 0.010470
# 5 -0.010131 0.003382 0.007921 0.000000 0.035116 0.000000
# 6 0.000000 0.000000 0.000000 0.010470 0.000000 0.025159
#
#
# Mechanical properties :
#
#
# Convention : Reuss Voigt Hill
#
# Bulk Modulus (GPa) = 72.04273 77.85495 74.94884
# Shear Modulus (GPa) = 33.91383 45.48101 39.69742
#
# Velocity S-wave (km/s) = 3.73379 4.32391 4.03964
# Velocity P-wave (km/s) = 6.94287 7.54538 7.25039
#
# Compressibility (1/GPa) = 0.01388065
#
# Stress axis : x y z
#
# Youngs Moduli (GPa) = 61.83711 105.05890 88.83669
#
# Poissons Ratio (x) = 0.28969 0.78149
# Poissons Ratio (y) = 0.17051 -0.00190
# Poissons Ratio (z) = 0.54398 -0.00225
#
# Static dielectric constant tensor:
#      x y z
#    x 1.986590 0.000000 0.014570 
#    y 0.000000 1.901960 0.000000 
#    z 0.014570 0.000000 2.061710 
# 
# From -- ./inp_files/9166.got.cif
#   From: 2010.05.17/outbox.cif.g08.bks.cpg/sg15_5_cif.got.tgz:9166.got - 2010.06.03 18:47:42.
