data_PCOD9306871
_publ_section_title
;
Structure prediction by ZEFSAII (Michael W. Deem and Ramdas Pophale) SiO2 
 PCOD9306871
Probable space group: C 2/C
;
_chemical_formula_sum "Si O2"
_cell_formula_units_Z 32
_cell_length_a 28.859887
_cell_length_b 7.640106
_cell_length_c 9.604191
_cell_angle_alpha 90.000000
_cell_angle_beta 146.564582
_cell_angle_gamma 90.000000
_cell_volume 1166.819828
_symmetry_space_group_name_H-M "C 2/C"
_symmetry_group_IT_number 15
_symmetry_cell_setting 'monoclinic'
loop_
_space_group_symop_operation_xyz
x,y,z
-x,y,1/2-z
-x,-y,-z
x,-y,1/2+z
1/2+x,1/2+y,z
1/2-x,1/2+y,1/2-z
1/2-x,1/2-y,-z
1/2+x,1/2-y,1/2+z
loop_
_atom_site_type_symbol
_atom_site_label
_atom_site_fract_x
_atom_site_fract_y
_atom_site_fract_z
Si Si1 0.236929 0.400902 0.579890
Si Si2 0.080230 0.984358 0.353586
Si Si3 0.829100 0.333948 0.776340
Si Si4 0.519066 0.797180 0.505662
O O1 0.250000 0.250000 0.500000
O O2 0.199942 0.366908 0.639931
O O3 0.167195 0.500104 0.316326
O O4 0.328366 0.491829 0.842606
O O5 0.081417 0.801997 0.270299
O O6 0.000000 0.956105 0.250000
O O7 0.057192 0.151843 0.196630
O O8 0.750000 0.250000 0.500000
O O9 0.924723 0.276878 0.994267
O O10 0.500000 0.000000 0.500000
#
# Coordination Sequence:
#
# PCOD9306871 Si02
#       4
#     8   8   8   8
#     4  12  29  52  87 122 172 226 292 371 450 521
#     4  11  27  53  81 124 177 228 288 364 439 518
#     4  12  26  52  80 123 166 221 297 360 430 534
#     4  11  28  52  86 122 176 229 293 355 442 531
#
# _framework density 27.424970999999999
#
# number of rings (size 3 to 8) (size 9 to 14) (size 15 to 20)
#    0.000    0.500    2.500    3.000    7.000    5.000 
#    0.000    0.000    0.000    0.000    0.000    0.000 
#    0.000    0.000    0.000    0.000    0.000    0.000 
#
# Total GULP energy -89290.075334 kJ/mol
# GULP energy per Si atom -5580.629708 kJ/mol
# Density = 2.736255 g / cm^3
# Si number density = 27.424971 Si / 1000 Ang^3
#
#
#
# Elastic Constant Matrix: (Units=GPa)
#
#
# Indices 1 2 3 4 5 6 
#
# 1 239.0871 50.7682 74.0327 0.0000 -1.4901 0.0000
# 2 50.7682 121.4886 49.5181 0.0000 4.5495 0.0000
# 3 74.0327 49.5181 177.5254 0.0000 6.3483 0.0000
# 4 0.0000 0.0000 0.0000 60.0307 0.0000 5.6669
# 5 -1.4901 4.5495 6.3483 0.0000 69.0915 0.0000
# 6 0.0000 0.0000 0.0000 5.6669 0.0000 34.1849
#
#
#
# Elastic Compliance Matrix: (Units=1/GPa)
#
#
# Indices 1 2 3 4 5 6 
#
# 1 0.005014 -0.001412 -0.001710 0.000000 0.000358 0.000000
# 2 -0.001412 0.009694 -0.002098 0.000000 -0.000476 0.000000
# 3 -0.001710 -0.002098 0.006951 0.000000 -0.000537 0.000000
# 4 0.000000 0.000000 0.000000 0.016923 0.000000 -0.002805
# 5 0.000358 -0.000476 -0.000537 0.000000 0.014562 0.000000
# 6 0.000000 0.000000 0.000000 -0.002805 0.000000 0.029718
#
#
# Mechanical properties :
#
#
# Convention : Reuss Voigt Hill
#
# Bulk Modulus (GPa) = 89.13598 98.52656 93.83127
# Shear Modulus (GPa) = 51.52437 56.91354 54.21896
#
# Velocity S-wave (km/s) = 4.33914 4.56043 4.45116
# Velocity P-wave (km/s) = 7.59451 7.98335 7.79135
#
# Compressibility (1/GPa) = 0.01121881
#
# Stress axis : x y z
#
# Youngs Moduli (GPa) = 199.43827 103.15394 143.87165
#
# Poissons Ratio (x) = 0.14562 0.24603
# Poissons Ratio (y) = 0.28155 0.30189
# Poissons Ratio (z) = 0.34105 0.21645
#
# Static dielectric constant tensor:
#      x y z
#    x 3.103750 0.000000 0.472800 
#    y 0.000000 2.121970 0.000000 
#    z 0.472800 0.000000 2.201720 
# 
# From -- ./inp_files/64645.got.cif
#   From: 2010.05.17/outbox.cif.g08.bks.cpg/sg15_33_cif.got.tgz:64645.got - 2010.06.03 18:47:42.
