data_PCOD9306417
_publ_section_title
;
Structure prediction by ZEFSAII (Michael W. Deem and Ramdas Pophale) SiO2 
 PCOD9306417
Probable space group: C 2/C
;
_chemical_formula_sum "Si O2"
_cell_formula_units_Z 44
_cell_length_a 4.871668
_cell_length_b 13.920065
_cell_length_c 25.792795
_cell_angle_alpha 90.000000
_cell_angle_beta 71.240321
_cell_angle_gamma 90.000000
_cell_volume 1656.190837
_symmetry_space_group_name_H-M "C 2/C"
_symmetry_group_IT_number 15
_symmetry_cell_setting 'monoclinic'
loop_
_space_group_symop_operation_xyz
x,y,z
-x,y,1/2-z
-x,-y,-z
x,-y,1/2+z
1/2+x,1/2+y,z
1/2-x,1/2+y,1/2-z
1/2-x,1/2-y,-z
1/2+x,1/2-y,1/2+z
loop_
_atom_site_type_symbol
_atom_site_label
_atom_site_fract_x
_atom_site_fract_y
_atom_site_fract_z
Si Si1 0.124966 0.666640 0.472451
Si Si2 0.741256 0.084723 0.326909
Si Si3 0.125290 0.034449 0.396022
Si Si4 0.000000 0.541917 0.750000
Si Si5 0.371083 0.664159 0.921876
Si Si6 0.082674 0.794807 0.305010
O O1 0.250000 0.750000 0.500000
O O2 0.389966 0.597516 0.441676
O O3 0.880873 0.625159 0.525332
O O4 0.979699 0.733516 0.436836
O O5 0.020629 0.057909 0.343450
O O6 0.735520 0.196108 0.312330
O O7 0.459389 0.062619 0.379705
O O8 0.681027 0.021692 0.279561
O O9 0.096781 0.922989 0.411264
O O10 0.201320 0.615868 0.706438
O O11 0.329149 0.683089 0.862596
O O12 0.000000 0.785231 0.250000
#
# Coordination Sequence:
#
# PCOD9306417 Si02
#       6
#     8   8   8   4   8   8
#     4  11  26  45  78 109 157 201 264 321 391 463
#     4  12  28  50  79 117 156 203 267 321 387 473
#     4  12  27  50  79 111 159 204 259 325 390 467
#     4  12  28  48  78 114 154 214 254 330 388 468
#     4  11  25  48  72 115 149 207 256 321 390 465
#     4  12  26  48  80 109 158 206 257 324 393 458
#
# _framework density 26.566987999999998
#
# number of rings (size 3 to 8) (size 9 to 14) (size 15 to 20)
#    0.000    0.364    4.545    2.727    7.636    2.182 
#    0.000    0.000    0.000    0.000    0.000    0.000 
#    0.000    0.000    0.000    0.000    0.000    0.000 
#
# Total GULP energy -123316.499518 kJ/mol
# GULP energy per Si atom -5605.295433 kJ/mol
# Density = 2.650652 g / cm^3
# Si number density = 26.566988 Si / 1000 Ang^3
#
#
#
# Elastic Constant Matrix: (Units=GPa)
#
#
# Indices 1 2 3 4 5 6 
#
# 1 49.3845 -5.1883 0.9471 0.0000 -0.4480 0.0000
# 2 -5.1883 139.8101 27.3561 0.0000 -12.2194 0.0000
# 3 0.9471 27.3561 161.9495 0.0000 -13.5112 0.0000
# 4 0.0000 0.0000 0.0000 53.6263 0.0000 -10.9278
# 5 -0.4480 -12.2194 -13.5112 0.0000 42.8648 0.0000
# 6 0.0000 0.0000 0.0000 -10.9278 0.0000 15.3991
#
#
#
# Elastic Compliance Matrix: (Units=1/GPa)
#
#
# Indices 1 2 3 4 5 6 
#
# 1 0.020345 0.000833 -0.000228 0.000000 0.000378 0.000000
# 2 0.000833 0.007563 -0.001132 0.000000 0.001808 0.000000
# 3 -0.000228 -0.001132 0.006511 0.000000 0.001727 0.000000
# 4 0.000000 0.000000 0.000000 0.021800 0.000000 0.015470
# 5 0.000378 0.001808 0.001727 0.000000 0.024393 0.000000
# 6 0.000000 0.000000 0.000000 0.015470 0.000000 0.075917
#
#
# Mechanical properties :
#
#
# Convention : Reuss Voigt Hill
#
# Bulk Modulus (GPa) = 29.97165 44.15264 37.06214
# Shear Modulus (GPa) = 29.63761 44.24664 36.94212
#
# Velocity S-wave (km/s) = 3.34365 4.08545 3.73302
# Velocity P-wave (km/s) = 5.11984 6.23779 5.70626
#
# Compressibility (1/GPa) = 0.03336486
#
# Stress axis : x y z
#
# Youngs Moduli (GPa) = 49.15322 132.22472 153.57788
#
# Poissons Ratio (x) = -0.11010 0.03503
# Poissons Ratio (y) = -0.04093 0.17378
# Poissons Ratio (z) = 0.01121 0.14962
#
# Static dielectric constant tensor:
#      x y z
#    x 1.809940 0.000000 0.335460 
#    y 0.000000 2.234320 0.000000 
#    z 0.335460 0.000000 1.758450 
# 
# From -- ./inp_files/260344.got.cif
#   From: 2010.05.17/outbox.cif.g08.bks.cpg/sg15_131_cif.got.tgz:260344.got - 2010.06.03 18:47:42.
