data_PCOD9306633
_publ_section_title
;
Structure prediction by ZEFSAII (Michael W. Deem and Ramdas Pophale) SiO2 
 PCOD9306633
Probable space group: C 2/C
;
_chemical_formula_sum "Si O2"
_cell_formula_units_Z 56
_cell_length_a 10.718922
_cell_length_b 20.892138
_cell_length_c 9.686891
_cell_angle_alpha 90.000000
_cell_angle_beta 104.744355
_cell_angle_gamma 90.000000
_cell_volume 2097.861331
_symmetry_space_group_name_H-M "C 2/C"
_symmetry_group_IT_number 15
_symmetry_cell_setting 'monoclinic'
loop_
_space_group_symop_operation_xyz
x,y,z
-x,y,1/2-z
-x,-y,-z
x,-y,1/2+z
1/2+x,1/2+y,z
1/2-x,1/2+y,1/2-z
1/2-x,1/2-y,-z
1/2+x,1/2-y,1/2+z
loop_
_atom_site_type_symbol
_atom_site_label
_atom_site_fract_x
_atom_site_fract_y
_atom_site_fract_z
Si Si1 0.443967 0.214668 0.871497
Si Si2 0.055466 0.094265 0.412607
Si Si3 0.217555 0.012033 0.845947
Si Si4 0.890396 0.285804 0.831676
Si Si5 0.811150 0.162412 0.403009
Si Si6 0.288267 0.357271 0.307449
Si Si7 0.862000 0.444852 0.635203
O O1 0.176909 0.080174 0.771216
O O2 0.140559 0.210476 0.694164
O O3 0.364696 0.266191 0.942422
O O4 0.356686 0.159668 0.780478
O O5 0.175574 0.124932 0.526096
O O6 0.000000 0.116984 0.250000
O O7 0.931135 0.115892 0.465116
O O8 0.101121 0.022657 0.393191
O O9 0.335517 0.014528 0.989697
O O10 0.264559 0.970088 0.727649
O O11 0.759229 0.323822 0.763214
O O12 0.941096 0.303768 0.995934
O O13 0.000000 0.299911 0.750000
O O14 0.690926 0.124223 0.433422
O O15 0.000000 0.251996 0.250000
O O16 0.000000 0.444833 0.750000
#
# Coordination Sequence:
#
# PCOD9306633 Si02
#       7
#     8   8   8   8   8   8   8
#     4  11  27  48  80 114 156 203 262 329 391 472
#     4  12  25  50  79 112 159 198 264 319 395 470
#     4  12  28  50  80 113 158 212 262 331 389 469
#     4  11  27  48  78 114 157 206 263 324 401 467
#     4  11  26  46  77 113 153 202 258 322 398 458
#     4  11  28  48  76 119 155 205 263 328 393 471
#     4  12  28  50  77 111 156 209 266 321 395 470
#
# _framework density 26.693852
#
# number of rings (size 3 to 8) (size 9 to 14) (size 15 to 20)
#    0.000    0.571    4.286    1.286    8.000    5.714 
#    0.000    0.000    0.000    0.000    0.000    0.000 
#    0.000    0.000    0.000    0.000    0.000    0.000 
#
# Total GULP energy -156335.152449 kJ/mol
# GULP energy per Si atom -5583.398302 kJ/mol
# Density = 2.663310 g / cm^3
# Si number density = 26.693852 Si / 1000 Ang^3
#
#
#
# Elastic Constant Matrix: (Units=GPa)
#
#
# Indices 1 2 3 4 5 6 
#
# 1 81.5942 54.0496 38.1524 0.0000 29.4931 0.0000
# 2 54.0496 143.4564 45.5033 0.0000 9.4240 0.0000
# 3 38.1524 45.5033 177.5209 0.0000 36.0093 0.0000
# 4 0.0000 0.0000 0.0000 32.2622 0.0000 7.6288
# 5 29.4931 9.4240 36.0093 0.0000 54.1575 0.0000
# 6 0.0000 0.0000 0.0000 7.6288 0.0000 32.6767
#
#
#
# Elastic Compliance Matrix: (Units=1/GPa)
#
#
# Indices 1 2 3 4 5 6 
#
# 1 0.020625 -0.006914 -0.000724 0.000000 -0.009548 0.000000
# 2 -0.006914 0.009906 -0.001696 0.000000 0.003169 0.000000
# 3 -0.000724 -0.001696 0.007032 0.000000 -0.003986 0.000000
# 4 0.000000 0.000000 0.000000 0.032807 0.000000 -0.007659
# 5 -0.009548 0.003169 -0.003986 0.000000 0.025763 0.000000
# 6 0.000000 0.000000 0.000000 -0.007659 0.000000 0.032391
#
#
# Mechanical properties :
#
#
# Convention : Reuss Voigt Hill
#
# Bulk Modulus (GPa) = 52.92341 75.33133 64.12737
# Shear Modulus (GPa) = 32.57528 41.47702 37.02615
#
# Velocity S-wave (km/s) = 3.49711 3.94611 3.72837
# Velocity P-wave (km/s) = 6.01461 7.00315 6.52762
#
# Compressibility (1/GPa) = 0.01889523
#
# Stress axis : x y z
#
# Youngs Moduli (GPa) = 48.48382 100.95360 142.20676
#
# Poissons Ratio (x) = 0.69801 0.10292
# Poissons Ratio (y) = 0.33523 0.24118
# Poissons Ratio (z) = 0.03509 0.17121
#
# Static dielectric constant tensor:
#      x y z
#    x 2.305990 0.000000 -0.108530 
#    y 0.000000 2.122180 0.000000 
#    z -0.108530 0.000000 2.099680 
# 
# From -- ./inp_files/89661.got.cif
#   From: 2010.05.17/outbox.cif.g08.bks.cpg/sg15_45_cif.got.tgz:89661.got - 2010.06.03 18:47:42.
