data_PCOD9306836
_publ_section_title
;
Structure prediction by ZEFSAII (Michael W. Deem and Ramdas Pophale) SiO2 
 PCOD9306836
Probable space group: C 2/C
;
_chemical_formula_sum "Si O2"
_cell_formula_units_Z 40
_cell_length_a 26.944359
_cell_length_b 5.121394
_cell_length_c 13.584135
_cell_angle_alpha 90.000000
_cell_angle_beta 61.055944
_cell_angle_gamma 90.000000
_cell_volume 1640.370973
_symmetry_space_group_name_H-M "C 2/C"
_symmetry_group_IT_number 15
_symmetry_cell_setting 'monoclinic'
loop_
_space_group_symop_operation_xyz
x,y,z
-x,y,1/2-z
-x,-y,-z
x,-y,1/2+z
1/2+x,1/2+y,z
1/2-x,1/2+y,1/2-z
1/2-x,1/2-y,-z
1/2+x,1/2-y,1/2+z
loop_
_atom_site_type_symbol
_atom_site_label
_atom_site_fract_x
_atom_site_fract_y
_atom_site_fract_z
Si Si1 0.278116 0.539128 0.898362
Si Si2 0.622661 0.540605 0.344157
Si Si3 0.332623 0.792930 0.517510
Si Si4 0.069638 0.568679 0.020445
Si Si5 0.998051 0.921797 0.636939
O O1 0.327803 0.571573 0.772190
O O2 0.223987 0.432674 0.889757
O O3 0.383703 0.012128 0.943381
O O4 0.308846 0.341041 0.943419
O O5 0.536304 0.325306 0.082605
O O6 0.610229 0.844343 0.389581
O O7 0.563663 0.499833 0.343211
O O8 0.250000 0.250000 0.500000
O O9 0.361019 0.597781 0.568147
O O10 0.025504 0.328926 0.055368
O O11 0.000000 0.855743 0.750000
#
# Coordination Sequence:
#
# PCOD9306836 Si02
#       5
#     8   8   8   8   8
#     4  11  28  52  80 120 162 216 273 337 408 489
#     4  12  28  47  83 116 164 214 273 339 406 482
#     4  11  27  48  80 115 164 207 275 333 408 478
#     4  12  26  52  76 120 160 214 269 337 403 488
#     4  12  28  50  81 120 167 215 269 333 414 488
#
# _framework density 24.384727999999999
#
# number of rings (size 3 to 8) (size 9 to 14) (size 15 to 20)
#    0.000    0.400    2.000    4.200   11.200    1.600 
#    0.000    0.000    0.000    0.000    0.000    0.000 
#    0.000    0.000    0.000    0.000    0.000    0.000 
#
# Total GULP energy -111609.224213 kJ/mol
# GULP energy per Si atom -5580.461211 kJ/mol
# Density = 2.432923 g / cm^3
# Si number density = 24.384728 Si / 1000 Ang^3
#
#
#
# Elastic Constant Matrix: (Units=GPa)
#
#
# Indices 1 2 3 4 5 6 
#
# 1 208.3633 53.4511 42.7456 0.0000 -28.1737 0.0000
# 2 53.4511 125.0218 40.2877 0.0001 -21.5719 0.0000
# 3 42.7456 40.2877 92.8235 0.0000 -11.1565 0.0000
# 4 0.0000 0.0001 0.0000 22.9076 0.0000 -7.7895
# 5 -28.1737 -21.5719 -11.1565 0.0000 43.6267 0.0000
# 6 0.0000 0.0000 0.0000 -7.7895 0.0000 51.2388
#
#
#
# Elastic Compliance Matrix: (Units=1/GPa)
#
#
# Indices 1 2 3 4 5 6 
#
# 1 0.005898 -0.001507 -0.001748 0.000000 0.002617 0.000000
# 2 -0.001507 0.010294 -0.003383 0.000000 0.003252 0.000000
# 3 -0.001748 -0.003383 0.013113 0.000000 0.000552 0.000000
# 4 0.000000 0.000000 0.000000 0.046033 0.000000 0.006998
# 5 0.002617 0.003252 0.000552 0.000000 0.026361 0.000000
# 6 0.000000 0.000000 0.000000 0.006998 0.000000 0.020580
#
#
# Mechanical properties :
#
#
# Convention : Reuss Voigt Hill
#
# Bulk Modulus (GPa) = 62.38445 77.68636 70.03541
# Shear Modulus (GPa) = 35.48669 42.86959 39.17814
#
# Velocity S-wave (km/s) = 3.81896 4.19746 4.01267
# Velocity P-wave (km/s) = 6.71453 7.44442 7.08887
#
# Compressibility (1/GPa) = 0.01602963
#
# Stress axis : x y z
#
# Youngs Moduli (GPa) = 169.54141 97.14238 76.26272
#
# Poissons Ratio (x) = 0.14640 0.13327
# Poissons Ratio (y) = 0.25550 0.25800
# Poissons Ratio (z) = 0.29628 0.32864
#
# Static dielectric constant tensor:
#      x y z
#    x 1.938290 0.000000 -0.047200 
#    y 0.000000 2.054090 0.000000 
#    z -0.047200 0.000000 2.062290 
# 
# From -- ./inp_files/179581.got.cif
#   From: 2010.05.17/outbox.cif.g08.bks.cpg/sg15_90_cif.got.tgz:179581.got - 2010.06.03 18:47:42.
