data_PCOD9306573
_publ_section_title
;
Structure prediction by ZEFSAII (Michael W. Deem and Ramdas Pophale) SiO2 
 PCOD9306573
Probable space group: C 2/C
;
_chemical_formula_sum "Si O2"
_cell_formula_units_Z 56
_cell_length_a 24.827283
_cell_length_b 4.963943
_cell_length_c 19.133989
_cell_angle_alpha 90.000000
_cell_angle_beta 110.350142
_cell_angle_gamma 90.000000
_cell_volume 2210.915434
_symmetry_space_group_name_H-M "C 2/C"
_symmetry_group_IT_number 15
_symmetry_cell_setting 'monoclinic'
loop_
_space_group_symop_operation_xyz
x,y,z
-x,y,1/2-z
-x,-y,-z
x,-y,1/2+z
1/2+x,1/2+y,z
1/2-x,1/2+y,1/2-z
1/2-x,1/2-y,-z
1/2+x,1/2-y,1/2+z
loop_
_atom_site_type_symbol
_atom_site_label
_atom_site_fract_x
_atom_site_fract_y
_atom_site_fract_z
Si Si1 0.940871 0.546178 0.697908
Si Si2 0.155324 0.231899 0.926873
Si Si3 0.951953 0.732765 0.413324
Si Si4 0.896873 0.237621 0.320798
Si Si5 0.943037 0.901215 0.566669
Si Si6 0.278460 0.054185 0.292309
Si Si7 0.768792 0.554471 0.445907
O O1 0.889395 0.360648 0.647149
O O2 0.915546 0.727550 0.748967
O O3 0.958863 0.730277 0.641281
O O4 0.000000 0.405947 0.750000
O O5 0.121860 0.987088 0.946648
O O6 0.215191 0.152852 0.918425
O O7 0.173774 0.416362 0.000108
O O8 0.937955 0.432537 0.384641
O O9 0.946667 0.760731 0.493775
O O10 0.907427 0.938605 0.354922
O O11 0.014543 0.842315 0.419467
O O12 0.835162 0.377988 0.302413
O O13 0.269916 0.323023 0.242707
O O14 0.277132 0.157184 0.371689
O O15 0.750000 0.750000 0.500000
#
# Coordination Sequence:
#
# PCOD9306573 Si02
#       7
#     8   8   8   8   8   8   8
#     4  12  26  46  75 114 153 207 252 323 380 477
#     4  11  26  45  78 109 153 200 267 322 382 467
#     4  11  27  48  74 112 152 204 252 322 378 481
#     4  12  27  49  76 108 157 200 257 315 402 452
#     4  11  26  44  77 108 153 198 259 308 396 454
#     4  12  29  49  78 112 156 201 258 330 395 461
#     4  11  27  49  78 111 151 205 269 321 392 466
#
# _framework density 25.328873000000002
#
# number of rings (size 3 to 8) (size 9 to 14) (size 15 to 20)
#    0.000    0.571    1.429    4.286   16.000    1.714 
#    0.000    0.000    0.000    0.000    0.000    0.000 
#    0.000    0.000    0.000    0.000    0.000    0.000 
#
# Total GULP energy -157012.831846 kJ/mol
# GULP energy per Si atom -5607.601137 kJ/mol
# Density = 2.527122 g / cm^3
# Si number density = 25.328873 Si / 1000 Ang^3
#
#
#
# Elastic Constant Matrix: (Units=GPa)
#
#
# Indices 1 2 3 4 5 6 
#
# 1 92.2517 10.8105 50.4980 0.0001 14.6714 0.0000
# 2 10.8105 67.1846 30.9613 -0.0006 6.4499 0.0002
# 3 50.4980 30.9613 171.8158 -0.0001 -13.6334 0.0000
# 4 0.0001 -0.0006 -0.0001 41.9029 0.0000 8.2723
# 5 14.6714 6.4499 -13.6334 0.0000 49.8081 0.0000
# 6 0.0000 0.0002 0.0000 8.2723 0.0000 38.4620
#
#
#
# Elastic Compliance Matrix: (Units=1/GPa)
#
#
# Indices 1 2 3 4 5 6 
#
# 1 0.014245 0.000405 -0.004699 0.000000 -0.005534 0.000000
# 2 0.000405 0.016684 -0.003380 0.000000 -0.003205 0.000000
# 3 -0.004699 -0.003380 0.008131 0.000000 0.004047 0.000000
# 4 0.000000 0.000000 0.000000 0.024923 0.000000 -0.005360
# 5 -0.005534 -0.003205 0.004047 0.000000 0.023230 0.000000
# 6 0.000000 0.000000 0.000000 -0.005360 0.000000 0.027153
#
#
# Mechanical properties :
#
#
# Convention : Reuss Voigt Hill
#
# Bulk Modulus (GPa) = 42.17134 57.31019 49.74077
# Shear Modulus (GPa) = 36.33244 41.96676 39.14960
#
# Velocity S-wave (km/s) = 3.79149 4.07489 3.93574
# Velocity P-wave (km/s) = 5.98773 6.69441 6.35091
#
# Compressibility (1/GPa) = 0.02371279
#
# Stress axis : x y z
#
# Youngs Moduli (GPa) = 70.20158 59.93602 122.98083
#
# Poissons Ratio (x) = -0.02425 0.57785
# Poissons Ratio (y) = -0.02840 0.41564
# Poissons Ratio (z) = 0.32985 0.20257
#
# Static dielectric constant tensor:
#      x y z
#    x 2.047550 0.000000 0.059140 
#    y 0.000000 2.020780 0.000000 
#    z 0.059140 0.000000 1.957970 
# 
# From -- ./inp_files/221304.got.cif
#   From: 2010.05.17/outbox.cif.g08.bks.cpg/sg15_111_cif.got.tgz:221304.got - 2010.06.03 18:47:42.
