data_PCOD9306510
_publ_section_title
;
Structure prediction by ZEFSAII (Michael W. Deem and Ramdas Pophale) SiO2 
 PCOD9306510
Probable space group: C 2/C
;
_chemical_formula_sum "Si O2"
_cell_formula_units_Z 36
_cell_length_a 9.914650
_cell_length_b 22.363469
_cell_length_c 10.478588
_cell_angle_alpha 90.000000
_cell_angle_beta 145.846697
_cell_angle_gamma 90.000000
_cell_volume 1304.363921
_symmetry_space_group_name_H-M "C 2/C"
_symmetry_group_IT_number 15
_symmetry_cell_setting 'monoclinic'
loop_
_space_group_symop_operation_xyz
x,y,z
-x,y,1/2-z
-x,-y,-z
x,-y,1/2+z
1/2+x,1/2+y,z
1/2-x,1/2+y,1/2-z
1/2-x,1/2-y,-z
1/2+x,1/2-y,1/2+z
loop_
_atom_site_type_symbol
_atom_site_label
_atom_site_fract_x
_atom_site_fract_y
_atom_site_fract_z
Si Si1 0.368620 0.724600 0.832553
Si Si2 0.744468 0.607757 0.392694
Si Si3 0.211103 0.521231 0.575926
Si Si4 0.604720 0.596801 0.995273
Si Si5 0.000000 0.700365 0.750000
O O1 0.457941 0.658307 0.866414
O O2 0.139734 0.744431 0.561868
O O3 0.235611 0.730276 0.867525
O O4 0.500000 0.637055 0.250000
O O5 0.747624 0.542560 0.460816
O O6 0.946060 0.652007 0.595116
O O7 0.728351 0.601318 0.228775
O O8 0.220666 0.574783 0.481545
O O9 0.000000 0.500000 0.500000
O O10 0.589440 0.455924 0.169005
#
# Coordination Sequence:
#
# PCOD9306510 Si02
#       5
#     8   8   8   8   4
#     4  12  27  49  78 119 167 230 297 357 422 494
#     4  12  24  45  76 119 169 208 270 335 429 514
#     4  11  26  47  81 116 161 217 276 343 434 526
#     4  11  25  50  75 117 168 217 277 355 422 504
#     4  12  26  46  78 120 168 226 282 356 416 508
#
# _framework density 27.599658000000002
#
# number of rings (size 3 to 8) (size 9 to 14) (size 15 to 20)
#    0.000    0.444    4.444    4.000    0.000    0.889 
#    0.000    8.889    0.000    0.000    0.000    0.000 
#    0.000    0.000    0.000    0.000    0.000    0.000 
#
# Total GULP energy -100401.435760 kJ/mol
# GULP energy per Si atom -5577.857542 kJ/mol
# Density = 2.753684 g / cm^3
# Si number density = 27.599658 Si / 1000 Ang^3
#
#
#
# Elastic Constant Matrix: (Units=GPa)
#
#
# Indices 1 2 3 4 5 6 
#
# 1 187.1167 35.7222 62.1988 0.0000 -2.1797 0.0000
# 2 35.7222 175.1390 67.6770 0.0000 17.6205 0.0000
# 3 62.1988 67.6770 170.0451 0.0000 4.4554 0.0000
# 4 0.0000 0.0000 0.0000 18.9020 0.0000 -13.1307
# 5 -2.1797 17.6205 4.4554 0.0000 58.5776 0.0000
# 6 0.0000 0.0000 0.0000 -13.1307 0.0000 25.9252
#
#
#
# Elastic Compliance Matrix: (Units=1/GPa)
#
#
# Indices 1 2 3 4 5 6 
#
# 1 0.006131 -0.000511 -0.002053 0.000000 0.000538 0.000000
# 2 -0.000511 0.006992 -0.002545 0.000000 -0.001929 0.000000
# 3 -0.002053 -0.002545 0.007642 0.000000 0.000108 0.000000
# 4 0.000000 0.000000 0.000000 0.081622 0.000000 0.041340
# 5 0.000538 -0.001929 0.000108 0.000000 0.017663 0.000000
# 6 0.000000 0.000000 0.000000 0.041340 0.000000 0.059511
#
#
# Mechanical properties :
#
#
# Convention : Reuss Voigt Hill
#
# Bulk Modulus (GPa) = 94.82940 95.94408 95.38674
# Shear Modulus (GPa) = 25.86738 45.12782 35.49760
#
# Velocity S-wave (km/s) = 3.06475 4.04801 3.59020
# Velocity P-wave (km/s) = 6.85252 7.52906 7.19874
#
# Compressibility (1/GPa) = 0.01054525
#
# Stress axis : x y z
#
# Youngs Moduli (GPa) = 163.11693 143.03064 130.85831
#
# Poissons Ratio (x) = 0.07312 0.26866
# Poissons Ratio (y) = 0.08339 0.33304
# Poissons Ratio (z) = 0.33489 0.36402
#
# Static dielectric constant tensor:
#      x y z
#    x 2.255420 0.000000 0.139670 
#    y 0.000000 2.169300 0.000000 
#    z 0.139670 0.000000 2.524050 
# 
# From -- ./inp_files/91425.got.cif
#   From: 2010.05.17/outbox.cif.g08.bks.cpg/sg15_46_cif.got.tgz:91425.got - 2010.06.03 18:47:42.
