data_PCOD9306920
_publ_section_title
;
Structure prediction by ZEFSAII (Michael W. Deem and Ramdas Pophale) SiO2 
 PCOD9306920
Probable space group: C 2/C
;
_chemical_formula_sum "Si O2"
_cell_formula_units_Z 52
_cell_length_a 14.556746
_cell_length_b 16.416336
_cell_length_c 11.345227
_cell_angle_alpha 90.000000
_cell_angle_beta 129.010546
_cell_angle_gamma 90.000000
_cell_volume 2106.646066
_symmetry_space_group_name_H-M "C 2/C"
_symmetry_group_IT_number 15
_symmetry_cell_setting 'monoclinic'
loop_
_space_group_symop_operation_xyz
x,y,z
-x,y,1/2-z
-x,-y,-z
x,-y,1/2+z
1/2+x,1/2+y,z
1/2-x,1/2+y,1/2-z
1/2-x,1/2-y,-z
1/2+x,1/2-y,1/2+z
loop_
_atom_site_type_symbol
_atom_site_label
_atom_site_fract_x
_atom_site_fract_y
_atom_site_fract_z
Si Si1 0.000000 0.374513 0.250000
Si Si2 0.866960 0.924715 0.595730
Si Si3 0.308568 0.802676 0.944798
Si Si4 0.295555 0.598389 0.613597
Si Si5 0.123518 0.481727 0.164553
Si Si6 0.243045 0.149105 0.159258
Si Si7 0.476741 0.597268 0.956696
O O1 0.905036 0.430615 0.240416
O O2 0.061360 0.321898 0.401902
O O3 0.772543 0.883359 0.603579
O O4 0.880639 0.883022 0.480132
O O5 0.000000 0.917394 0.750000
O O6 0.833130 0.018832 0.567724
O O7 0.294661 0.785538 0.794865
O O8 0.250000 0.750000 0.000000
O O9 0.201156 0.569065 0.634219
O O10 0.247073 0.658431 0.474234
O O11 0.412849 0.616483 0.783152
O O12 0.185836 0.565937 0.251530
O O13 0.000000 0.500000 0.000000
O O14 0.102161 0.140905 0.068569
O O15 0.500000 0.500000 0.000000
#
# Coordination Sequence:
#
# PCOD9306920 Si02
#       7
#     4   8   8   8   8   8   8
#     4  12  26  44  66  96 134 172 232 276 346 404
#     4  12  19  36  60  92 132 171 214 268 331 391
#     4  12  27  44  63  88 126 179 232 277 317 399
#     4  12  21  33  61 100 138 167 206 273 349 415
#     4  12  21  38  61  93 134 174 211 277 347 409
#     4  12  22  37  58  94 135 177 222 271 344 396
#     4  12  19  31  59  94 136 169 203 263 340 403
#
# _framework density 24.683785
#
# number of rings (size 3 to 8) (size 9 to 14) (size 15 to 20)
#    0.000    0.000    9.231    3.231    1.077    0.000 
#    0.000    0.000    0.000    3.692    0.000    0.000 
#    0.000    0.000    0.000    0.000    0.000    0.000 
#
# Total GULP energy -145442.794731 kJ/mol
# GULP energy per Si atom -5593.953643 kJ/mol
# Density = 2.462760 g / cm^3
# Si number density = 24.683785 Si / 1000 Ang^3
#
#
#
# Elastic Constant Matrix: (Units=GPa)
#
#
# Indices 1 2 3 4 5 6 
#
# 1 114.6284 5.1447 37.2350 0.0000 -13.7986 0.0000
# 2 5.1447 51.7343 27.6846 0.0000 -8.1033 0.0000
# 3 37.2350 27.6846 225.4271 0.0000 -10.4730 0.0000
# 4 0.0000 0.0000 0.0000 -0.0171 0.0000 -12.6669
# 5 -13.7986 -8.1033 -10.4730 0.0000 53.7952 0.0000
# 6 0.0000 0.0000 0.0000 -12.6669 0.0000 28.7798
#
#
#
# Elastic Compliance Matrix: (Units=1/GPa)
#
#
# Indices 1 2 3 4 5 6 
#
# 1 0.009458 0.000194 -0.001485 0.000000 0.002166 0.000000
# 2 0.000194 0.021073 -0.002493 0.000000 0.002739 0.000000
# 3 -0.001485 -0.002493 0.004998 0.000000 0.000216 0.000000
# 4 0.000000 0.000000 0.000000 -0.178820 0.000000 -0.078704
# 5 0.002166 0.002739 0.000216 0.000000 0.019599 0.000000
# 6 0.000000 0.000000 0.000000 -0.078704 0.000000 0.000107
#
#
# Mechanical properties :
#
#
# Convention : Reuss Voigt Hill
#
# Bulk Modulus (GPa) = 35.76534 59.10203 47.43368
# Shear Modulus (GPa) = -46.86196 37.95995 -4.45100
#
# Velocity S-wave (km/s) = -4.36190 3.92580 -1.34429
# Velocity P-wave (km/s) = 3.29353 6.67419 4.10472
#
# Compressibility (1/GPa) = 0.02796003
#
# Stress axis : x y z
#
# Youngs Moduli (GPa) = 105.72596 47.45367 200.09736
#
# Poissons Ratio (x) = -0.00919 0.29723
# Poissons Ratio (y) = -0.02047 0.49879
# Poissons Ratio (z) = 0.15705 0.11829
#
# Static dielectric constant tensor:
#      x y z
#    x 2.016020 0.000000 -0.057600 
#    y 0.000000 2.091320 0.000000 
#    z -0.057600 0.000000 2.048290 
# 
# From -- ./inp_files/99858.got.cif
#   From: 2010.05.17/outbox.cif.g08.bks.cpg/sg15_50_cif.got.tgz:99858.got - 2010.06.03 18:47:42.
