data_PCOD9306109
_publ_section_title
;
Structure prediction by ZEFSAII (Michael W. Deem and Ramdas Pophale) SiO2 
 PCOD9306109
Probable space group: C 2/C
;
_chemical_formula_sum "Si O2"
_cell_formula_units_Z 48
_cell_length_a 20.147996
_cell_length_b 10.598899
_cell_length_c 26.055306
_cell_angle_alpha 90.000000
_cell_angle_beta 157.960342
_cell_angle_gamma 90.000000
_cell_volume 2087.889361
_symmetry_space_group_name_H-M "C 2/C"
_symmetry_group_IT_number 15
_symmetry_cell_setting 'monoclinic'
loop_
_space_group_symop_operation_xyz
x,y,z
-x,y,1/2-z
-x,-y,-z
x,-y,1/2+z
1/2+x,1/2+y,z
1/2-x,1/2+y,1/2-z
1/2-x,1/2-y,-z
1/2+x,1/2-y,1/2+z
loop_
_atom_site_type_symbol
_atom_site_label
_atom_site_fract_x
_atom_site_fract_y
_atom_site_fract_z
Si Si1 0.950169 0.383706 0.853996
Si Si2 0.303349 0.510068 0.589160
Si Si3 0.955257 0.890231 0.100182
Si Si4 0.161019 0.517662 0.330154
Si Si5 0.313584 0.245221 0.458322
Si Si6 0.683031 0.360646 0.756123
O O1 0.961361 0.246007 0.836501
O O2 0.889643 0.478571 0.765747
O O3 0.821723 0.376055 0.809823
O O4 0.147375 0.427705 0.009881
O O5 0.500000 0.528764 0.750000
O O6 0.310935 0.579483 0.540318
O O7 0.265159 0.360819 0.560198
O O8 0.095417 0.002877 0.203400
O O9 0.839929 0.901759 0.965790
O O10 0.211371 0.377854 0.385694
O O11 0.000000 0.564862 0.250000
O O12 0.517150 0.274193 0.618586
O O13 0.275964 0.190958 0.374174
#
# Coordination Sequence:
#
# PCOD9306109 Si02
#       6
#     8   8   8   8   8   8
#     4  12  29  46  75 107 158 193 248 307 383 452
#     4  12  25  46  75 108 146 195 246 309 367 442
#     4  11  27  45  71 112 147 194 253 300 379 450
#     4  11  25  44  75 106 143 192 244 314 374 428
#     4  11  26  48  77 109 151 189 260 309 370 450
#     4  11  28  47  76 111 149 205 245 314 378 446
#
# _framework density 22.989726000000001
#
# number of rings (size 3 to 8) (size 9 to 14) (size 15 to 20)
#    0.000    0.667    3.333    2.000    9.333    3.333 
#    0.000    0.000    0.000    0.000    0.000    0.000 
#    0.000    0.000    0.000    0.000    0.000    0.000 
#
# Total GULP energy -134338.067597 kJ/mol
# GULP energy per Si atom -5597.419483 kJ/mol
# Density = 2.293740 g / cm^3
# Si number density = 22.989726 Si / 1000 Ang^3
#
#
#
# Elastic Constant Matrix: (Units=GPa)
#
#
# Indices 1 2 3 4 5 6 
#
# 1 77.6142 -1.9073 35.3870 -0.0016 7.0778 -0.0003
# 2 -1.9073 74.3401 29.9414 -0.0100 -7.5060 -0.0029
# 3 35.3870 29.9414 119.6246 -0.0151 4.6408 -0.0035
# 4 -0.0016 -0.0100 -0.0151 18.0178 -0.0035 -9.0728
# 5 7.0778 -7.5060 4.6408 -0.0035 26.5082 -0.0002
# 6 -0.0003 -0.0029 -0.0035 -9.0728 -0.0002 23.9990
#
#
#
# Elastic Compliance Matrix: (Units=1/GPa)
#
#
# Indices 1 2 3 4 5 6 
#
# 1 0.015462 0.002147 -0.005009 -0.000003 -0.002643 -0.000001
# 2 0.002147 0.015925 -0.004806 0.000008 0.004777 0.000004
# 3 -0.005009 -0.004806 0.011121 0.000008 -0.001971 0.000004
# 4 -0.000003 0.000008 0.000008 0.068551 0.000011 0.025916
# 5 -0.002643 0.004777 -0.001971 0.000011 0.040128 0.000005
# 6 -0.000001 0.000004 0.000004 0.025916 0.000005 0.051466
#
#
# Mechanical properties :
#
#
# Convention : Reuss Voigt Hill
#
# Bulk Modulus (GPa) = 36.80357 44.26901 40.53629
# Shear Modulus (GPa) = 22.02209 27.58217 24.80213
#
# Velocity S-wave (km/s) = 3.09837 3.46751 3.28813
# Velocity P-wave (km/s) = 5.37060 5.94385 5.66448
#
# Compressibility (1/GPa) = 0.02717127
#
# Stress axis : x y z
#
# Youngs Moduli (GPa) = 64.67588 62.79433 89.92301
#
# Poissons Ratio (x) = -0.13483 0.45040
# Poissons Ratio (y) = -0.13887 0.43221
# Poissons Ratio (z) = 0.32394 0.30182
#
# Static dielectric constant tensor:
#      x y z
#    x 1.882290 0.000000 -0.085410 
#    y 0.000000 1.853560 0.000000 
#    z -0.085410 0.000000 1.901150 
# 
# From -- ./inp_files/300968.got.cif
#   From: 2010.05.17/outbox.cif.g08.bks.cpg/sg15_151_cif.got.tgz:300968.got - 2010.06.03 18:47:42.
