data_PCOD9306802
_publ_section_title
;
Structure prediction by ZEFSAII (Michael W. Deem and Ramdas Pophale) SiO2 
 PCOD9306802
Probable space group: C 2/C
;
_chemical_formula_sum "Si O2"
_cell_formula_units_Z 40
_cell_length_a 13.291150
_cell_length_b 17.768202
_cell_length_c 18.552860
_cell_angle_alpha 90.000000
_cell_angle_beta 23.772743
_cell_angle_gamma 90.000000
_cell_volume 1766.202366
_symmetry_space_group_name_H-M "C 2/C"
_symmetry_group_IT_number 15
_symmetry_cell_setting 'monoclinic'
loop_
_space_group_symop_operation_xyz
x,y,z
-x,y,1/2-z
-x,-y,-z
x,-y,1/2+z
1/2+x,1/2+y,z
1/2-x,1/2+y,1/2-z
1/2-x,1/2-y,-z
1/2+x,1/2-y,1/2+z
loop_
_atom_site_type_symbol
_atom_site_label
_atom_site_fract_x
_atom_site_fract_y
_atom_site_fract_z
Si Si1 0.847473 0.630439 0.925036
Si Si2 0.901576 0.828008 0.394617
Si Si3 0.427326 0.796438 0.089117
Si Si4 0.473338 0.966686 0.852223
Si Si5 0.301782 0.641744 0.221848
O O1 0.910710 0.549890 0.920501
O O2 0.000000 0.642260 0.750000
O O3 0.923460 0.691675 0.934559
O O4 0.556470 0.628152 0.097279
O O5 0.750000 0.750000 0.500000
O O6 0.732102 0.901176 0.510824
O O7 0.000000 0.825842 0.250000
O O8 0.153594 0.833359 0.276050
O O9 0.362326 0.708174 0.125189
O O10 0.589453 0.828611 0.916735
O O11 0.500000 0.979335 0.750000
O O12 0.704835 0.930980 0.743067
#
# Coordination Sequence:
#
# PCOD9306802 Si02
#       5
#     8   8   8   8   8
#     4  11  28  47  70 101 141 188 230 284 350 417
#     4  12  23  42  67 105 138 179 232 285 347 406
#     4  12  25  45  73 102 140 181 233 290 341 412
#     4  11  27  44  70 103 141 183 228 288 348 415
#     4  12  26  47  72 104 139 184 234 287 347 414
#
# _framework density 22.647462000000001
#
# number of rings (size 3 to 8) (size 9 to 14) (size 15 to 20)
#    0.000    0.400    4.000    3.000    8.400    4.000 
#    0.000    0.000    0.000    0.000    0.000    0.000 
#    0.000    0.000    0.000    0.000    0.000    0.000 
#
# Total GULP energy -111893.435722 kJ/mol
# GULP energy per Si atom -5594.671786 kJ/mol
# Density = 2.259591 g / cm^3
# Si number density = 22.647462 Si / 1000 Ang^3
#
#
#
# Elastic Constant Matrix: (Units=GPa)
#
#
# Indices 1 2 3 4 5 6 
#
# 1 78.2362 -13.7034 20.7305 -0.0162 -27.7827 -0.0103
# 2 -13.7034 69.5635 3.8412 0.0077 -2.6425 -0.0418
# 3 20.7305 3.8412 88.4606 -0.0555 -23.2760 -0.0470
# 4 -0.0162 0.0077 -0.0555 13.4554 -0.0462 -5.1956
# 5 -27.7827 -2.6425 -23.2760 -0.0462 53.7027 0.0184
# 6 -0.0103 -0.0418 -0.0470 -5.1956 0.0184 37.6561
#
#
#
# Elastic Compliance Matrix: (Units=1/GPa)
#
#
# Indices 1 2 3 4 5 6 
#
# 1 0.016809 0.003726 -0.001992 0.000040 0.008016 0.000008
# 2 0.003726 0.015247 -0.000938 0.000006 0.002271 0.000016
# 3 -0.001992 -0.000938 0.013013 0.000076 0.004564 0.000023
# 4 0.000040 0.000006 0.000076 0.078503 0.000118 0.010831
# 5 0.008016 0.002271 0.004564 0.000118 0.024858 0.000015
# 6 0.000008 0.000016 0.000023 0.010831 0.000015 0.028051
#
#
# Mechanical properties :
#
#
# Convention : Reuss Voigt Hill
#
# Bulk Modulus (GPa) = 21.43082 28.66633 25.04857
# Shear Modulus (GPa) = 26.25483 35.98897 31.12190
#
# Velocity S-wave (km/s) = 3.40852 3.99067 3.71103
# Velocity P-wave (km/s) = 4.99740 5.82401 5.42647
#
# Compressibility (1/GPa) = 0.04666178
#
# Stress axis : x y z
#
# Youngs Moduli (GPa) = 59.49297 65.58520 76.84770
#
# Poissons Ratio (x) = -0.24435 0.15305
# Poissons Ratio (y) = -0.22165 0.07205
# Poissons Ratio (z) = 0.11849 0.06149
#
# Static dielectric constant tensor:
#      x y z
#    x 1.866920 -0.000020 -0.029100 
#    y -0.000020 1.762010 0.000030 
#    z -0.029100 0.000030 1.819590 
# 
# From -- ./inp_files/38943.got.cif
#   From: 2010.05.17/outbox.cif.g08.bks.cpg/sg15_20_cif.got.tgz:38943.got - 2010.06.03 18:47:42.
