data_PCOD9306728
_publ_section_title
;
Structure prediction by ZEFSAII (Michael W. Deem and Ramdas Pophale) SiO2 
 PCOD9306728
Probable space group: C 2/C
;
_chemical_formula_sum "Si O2"
_cell_formula_units_Z 40
_cell_length_a 18.398877
_cell_length_b 8.242065
_cell_length_c 11.625273
_cell_angle_alpha 90.000000
_cell_angle_beta 86.332090
_cell_angle_gamma 90.000000
_cell_volume 1759.300364
_symmetry_space_group_name_H-M "C 2/C"
_symmetry_group_IT_number 15
_symmetry_cell_setting 'monoclinic'
loop_
_space_group_symop_operation_xyz
x,y,z
-x,y,1/2-z
-x,-y,-z
x,-y,1/2+z
1/2+x,1/2+y,z
1/2-x,1/2+y,1/2-z
1/2-x,1/2-y,-z
1/2+x,1/2-y,1/2+z
loop_
_atom_site_type_symbol
_atom_site_label
_atom_site_fract_x
_atom_site_fract_y
_atom_site_fract_z
Si Si1 0.504511 0.887808 0.118216
Si Si2 0.688990 0.314960 0.347365
Si Si3 0.074979 0.070794 0.445128
Si Si4 0.819717 0.756740 0.412232
Si Si5 0.657412 0.100986 0.551172
O O1 0.500000 0.960798 0.250000
O O2 0.445783 0.742213 0.112698
O O3 0.585722 0.809804 0.103806
O O4 0.500000 0.000000 0.000000
O O5 0.624204 0.446417 0.366762
O O6 0.703506 0.282208 0.214461
O O7 0.665273 0.153165 0.418072
O O8 0.764981 0.367124 0.397757
O O9 0.126464 0.107320 0.548473
O O10 0.000000 0.000000 0.500000
O O11 0.750000 0.750000 0.500000
O O12 0.858643 0.585262 0.422615
#
# Coordination Sequence:
#
# PCOD9306728 Si02
#       5
#     8   8   8   8   8
#     4  12  29  47  79 112 155 202 260 320 394 463
#     4  11  28  47  78 111 156 196 261 317 386 464
#     4  12  27  49  74 117 154 203 257 325 395 459
#     4  12  28  46  79 111 154 201 255 317 393 465
#     4  11  26  49  74 109 150 201 252 316 382 462
#
# _framework density 22.736312999999999
#
# number of rings (size 3 to 8) (size 9 to 14) (size 15 to 20)
#    0.000    0.400    6.000    0.000   11.200    0.000 
#    0.000    0.000    0.000    0.000    0.000    0.000 
#    0.000    0.000    0.000    0.000    0.000    0.000 
#
# Total GULP energy -111725.209968 kJ/mol
# GULP energy per Si atom -5586.260498 kJ/mol
# Density = 2.268456 g / cm^3
# Si number density = 22.736313 Si / 1000 Ang^3
#
#
#
# Elastic Constant Matrix: (Units=GPa)
#
#
# Indices 1 2 3 4 5 6 
#
# 1 137.5778 10.2872 53.5902 0.0000 -8.4056 0.0000
# 2 10.2872 70.4074 45.8215 0.0000 9.6019 0.0000
# 3 53.5902 45.8215 205.8787 0.0000 -0.8807 0.0000
# 4 0.0000 0.0000 0.0000 23.6933 0.0000 1.4582
# 5 -8.4056 9.6019 -0.8807 0.0000 21.0579 0.0000
# 6 0.0000 0.0000 0.0000 1.4582 0.0000 32.2679
#
#
#
# Elastic Compliance Matrix: (Units=1/GPa)
#
#
# Indices 1 2 3 4 5 6 
#
# 1 0.008308 -0.000323 -0.002076 0.000000 0.003377 0.000000
# 2 -0.000323 0.017982 -0.003954 0.000000 -0.008494 0.000000
# 3 -0.002076 -0.003954 0.006283 0.000000 0.001237 0.000000
# 4 0.000000 0.000000 0.000000 0.042324 0.000000 -0.001913
# 5 0.003377 -0.008494 0.001237 0.000000 0.052761 0.000000
# 6 0.000000 0.000000 0.000000 -0.001913 0.000000 0.031077
#
#
# Mechanical properties :
#
#
# Convention : Reuss Voigt Hill
#
# Bulk Modulus (GPa) = 50.33844 70.36240 60.35042
# Shear Modulus (GPa) = 28.07985 35.68150 31.88067
#
# Velocity S-wave (km/s) = 3.51810 3.96581 3.74865
# Velocity P-wave (km/s) = 6.22020 7.21003 6.73333
#
# Compressibility (1/GPa) = 0.01986553
#
# Stress axis : x y z
#
# Youngs Moduli (GPa) = 120.36885 55.61065 159.15811
#
# Poissons Ratio (x) = 0.01797 0.33044
# Poissons Ratio (y) = 0.03890 0.62938
# Poissons Ratio (z) = 0.24990 0.21991
#
# Static dielectric constant tensor:
#      x y z
#    x 1.925340 0.000000 -0.032770 
#    y 0.000000 1.855250 0.000000 
#    z -0.032770 0.000000 1.821050 
# 
# From -- ./inp_files/102696.got.cif
#   From: 2010.05.17/outbox.cif.g08.bks.cpg/sg15_52_cif.got.tgz:102696.got - 2010.06.03 18:47:42.
