data_PCOD9306747
_publ_section_title
;
Structure prediction by ZEFSAII (Michael W. Deem and Ramdas Pophale) SiO2 
 PCOD9306747
Probable space group: C 2/C
;
_chemical_formula_sum "Si O2"
_cell_formula_units_Z 56
_cell_length_a 11.377958
_cell_length_b 8.496331
_cell_length_c 28.797030
_cell_angle_alpha 90.000000
_cell_angle_beta 111.525230
_cell_angle_gamma 90.000000
_cell_volume 2589.679211
_symmetry_space_group_name_H-M "C 2/C"
_symmetry_group_IT_number 15
_symmetry_cell_setting 'monoclinic'
loop_
_space_group_symop_operation_xyz
x,y,z
-x,y,1/2-z
-x,-y,-z
x,-y,1/2+z
1/2+x,1/2+y,z
1/2-x,1/2+y,1/2-z
1/2-x,1/2-y,-z
1/2+x,1/2-y,1/2+z
loop_
_atom_site_type_symbol
_atom_site_label
_atom_site_fract_x
_atom_site_fract_y
_atom_site_fract_z
Si Si1 0.554537 0.160666 0.530902
Si Si2 0.155308 0.792406 0.944939
Si Si3 0.471981 0.619777 0.560680
Si Si4 0.252981 0.895842 0.127297
Si Si5 0.849372 0.747479 0.735324
Si Si6 0.852833 0.878594 0.219797
Si Si7 0.818780 0.255051 0.614084
O O1 0.469736 0.192558 0.563410
O O2 0.531644 0.297720 0.489533
O O3 0.696997 0.188689 0.568369
O O4 0.500000 0.000000 0.500000
O O5 0.207012 0.740440 0.902992
O O6 0.120373 0.972773 0.947119
O O7 0.250000 0.750000 0.000000
O O8 0.609984 0.564472 0.593623
O O9 0.432142 0.741170 0.594293
O O10 0.277246 0.833368 0.181965
O O11 0.317313 0.063249 0.128533
O O12 0.763106 0.700698 0.767733
O O13 0.000000 0.702753 0.750000
O O14 0.847403 0.936317 0.730779
O O15 0.832138 0.846939 0.162367
O O16 0.000000 0.825157 0.250000
#
# Coordination Sequence:
#
# PCOD9306747 Si02
#       7
#     8   8   8   8   8   8   8
#     4  12  25  43  68 103 142 184 235 284 342 419
#     4  12  23  43  70  97 142 189 230 283 343 408
#     4  12  25  46  67 100 145 183 232 287 344 414
#     4  12  26  45  71 104 138 187 232 290 358 417
#     4  11  27  47  76 104 140 183 238 298 360 431
#     4  11  26  50  72 105 143 183 237 299 361 425
#     4  12  26  44  72 102 141 184 233 286 350 421
#
# _framework density 21.624300000000002
#
# number of rings (size 3 to 8) (size 9 to 14) (size 15 to 20)
#    0.000    0.286    2.857    6.000    4.000    5.714 
#    0.000    0.000    0.000    0.000    0.000    0.000 
#    0.000    0.000    0.000    0.000    0.000    0.000 
#
# Total GULP energy -156461.584665 kJ/mol
# GULP energy per Si atom -5587.913738 kJ/mol
# Density = 2.157508 g / cm^3
# Si number density = 21.624300 Si / 1000 Ang^3
#
#
#
# Elastic Constant Matrix: (Units=GPa)
#
#
# Indices 1 2 3 4 5 6 
#
# 1 60.9374 10.8843 4.0360 0.0000 -15.3058 0.0000
# 2 10.8843 12.7321 -24.7035 0.0000 56.4609 0.0000
# 3 4.0360 -24.7035 74.6734 0.0000 12.1391 0.0000
# 4 0.0000 0.0000 0.0000 -14.8660 0.0000 21.4150
# 5 -15.3058 56.4609 12.1391 0.0000 -7.2605 0.0000
# 6 0.0000 0.0000 0.0000 21.4150 0.0000 20.9252
#
#
#
# Elastic Compliance Matrix: (Units=1/GPa)
#
#
# Indices 1 2 3 4 5 6 
#
# 1 0.014917 0.003437 0.000863 0.000000 -0.003273 0.000000
# 2 0.003437 0.003288 -0.001633 0.000000 0.015593 0.000000
# 3 0.000863 -0.001633 0.011924 0.000000 0.005419 0.000000
# 4 0.000000 0.000000 0.000000 -0.027187 0.000000 0.027823
# 5 -0.003273 0.015593 0.005419 0.000000 -0.000514 0.000000
# 6 0.000000 0.000000 0.000000 0.027823 0.000000 0.019315
#
#
# Mechanical properties :
#
#
# Convention : Reuss Voigt Hill
#
# Bulk Modulus (GPa) = 28.19768 14.30849 21.25308
# Shear Modulus (GPa) = 177.12513 10.30149 93.71331
#
# Velocity S-wave (km/s) = 9.06025 2.18499 6.59023
# Velocity P-wave (km/s) = 11.06882 3.60511 8.23151
#
# Compressibility (1/GPa) = 0.03546392
#
# Stress axis : x y z
#
# Youngs Moduli (GPa) = 67.03749 304.13501 83.86520
#
# Poissons Ratio (x) = -1.04542 -0.07238
# Poissons Ratio (y) = -0.23043 0.13694
# Poissons Ratio (z) = -0.05785 0.49661
#
# Static dielectric constant tensor:
#      x y z
#    x 1.939130 0.000000 -0.046950 
#    y 0.000000 1.697870 0.000000 
#    z -0.046950 0.000000 1.754660 
# 
# From -- ./inp_files/291631.got.cif
#   From: 2010.05.17/outbox.cif.g08.bks.cpg/sg15_146_cif.got.tgz:291631.got - 2010.06.03 18:47:42.
