data_PCOD9306136
_publ_section_title
;
Structure prediction by ZEFSAII (Michael W. Deem and Ramdas Pophale) SiO2 
 PCOD9306136
Probable space group: C 2/C
;
_chemical_formula_sum "Si O2"
_cell_formula_units_Z 48
_cell_length_a 8.684272
_cell_length_b 18.318858
_cell_length_c 28.059582
_cell_angle_alpha 90.000000
_cell_angle_beta 151.730234
_cell_angle_gamma 90.000000
_cell_volume 2114.201037
_symmetry_space_group_name_H-M "C 2/C"
_symmetry_group_IT_number 15
_symmetry_cell_setting 'monoclinic'
loop_
_space_group_symop_operation_xyz
x,y,z
-x,y,1/2-z
-x,-y,-z
x,-y,1/2+z
1/2+x,1/2+y,z
1/2-x,1/2+y,1/2-z
1/2-x,1/2-y,-z
1/2+x,1/2-y,1/2+z
loop_
_atom_site_type_symbol
_atom_site_label
_atom_site_fract_x
_atom_site_fract_y
_atom_site_fract_z
Si Si1 0.162738 0.981705 0.932296
Si Si2 0.308686 0.783508 0.088055
Si Si3 0.251163 0.982755 0.774890
Si Si4 0.127598 0.924590 0.512799
Si Si5 0.289265 0.867961 0.240187
Si Si6 0.472055 0.842441 0.450086
O O1 0.904007 0.967318 0.819696
O O2 0.268761 0.907803 0.987690
O O3 0.500000 0.000000 0.000000
O O4 0.106771 0.049845 0.951957
O O5 0.569465 0.792712 0.200740
O O6 0.507344 0.797126 0.093240
O O7 0.048180 0.848400 0.026006
O O8 0.119560 0.708038 0.031711
O O9 0.514992 0.925408 0.865617
O O10 0.000000 0.988481 0.750000
O O11 0.379442 0.065230 0.800619
O O12 0.000000 0.000000 0.500000
O O13 0.500000 0.881253 0.250000
O O14 0.896209 0.864959 0.137125
#
# Coordination Sequence:
#
# PCOD9306136 Si02
#       6
#     8   8   8   8   8   8
#     4  12  23  42  70 101 136 180 230 287 343 408
#     4  11  25  45  69  97 138 182 226 286 345 422
#     4  12  24  40  70  98 135 181 232 283 342 411
#     4  12  23  42  68 104 134 173 235 289 337 410
#     4  12  24  41  68  99 130 180 227 280 350 412
#     4  11  25  46  68  96 139 181 227 282 352 417
#
# _framework density 22.703612
#
# number of rings (size 3 to 8) (size 9 to 14) (size 15 to 20)
#    0.000    0.333    6.667    2.500    0.000    2.000 
#    0.000    3.333    0.000    0.000    0.000    0.000 
#    0.000    0.000    0.000    0.000    0.000    0.000 
#
# Total GULP energy -133857.433821 kJ/mol
# GULP energy per Si atom -5577.393076 kJ/mol
# Density = 2.265194 g / cm^3
# Si number density = 22.703612 Si / 1000 Ang^3
#
#
#
# Elastic Constant Matrix: (Units=GPa)
#
#
# Indices 1 2 3 4 5 6 
#
# 1 85.0462 -7.8946 25.1303 -0.0020 5.1238 -0.0038
# 2 -7.8946 58.2326 21.1279 -0.0010 12.0395 -0.0037
# 3 25.1303 21.1279 131.5214 0.0027 -4.9050 -0.0080
# 4 -0.0020 -0.0010 0.0027 42.1350 -0.0040 -8.1124
# 5 5.1238 12.0395 -4.9050 -0.0040 28.5783 -0.0032
# 6 -0.0038 -0.0037 -0.0080 -8.1124 -0.0032 29.0015
#
#
#
# Elastic Compliance Matrix: (Units=1/GPa)
#
#
# Indices 1 2 3 4 5 6 
#
# 1 0.013412 0.004012 -0.003381 0.000001 -0.004675 0.000001
# 2 0.004012 0.021590 -0.004630 0.000000 -0.010609 0.000001
# 3 -0.003381 -0.004630 0.009147 0.000000 0.004127 0.000002
# 4 0.000001 0.000000 0.000000 0.025084 0.000004 0.007017
# 5 -0.004675 -0.010609 0.004127 0.000004 0.041007 0.000005
# 6 0.000001 0.000001 0.000002 0.007017 0.000005 0.036444
#
#
# Mechanical properties :
#
#
# Convention : Reuss Voigt Hill
#
# Bulk Modulus (GPa) = 27.66402 39.05860 33.36131
# Shear Modulus (GPa) = 29.98796 35.70541 32.84668
#
# Velocity S-wave (km/s) = 3.63829 3.97000 3.80776
# Velocity P-wave (km/s) = 5.46450 6.18511 5.83594
#
# Compressibility (1/GPa) = 0.03614803
#
# Stress axis : x y z
#
# Youngs Moduli (GPa) = 74.56285 46.31815 109.32356
#
# Poissons Ratio (x) = -0.18581 0.36966
# Poissons Ratio (y) = -0.29911 0.50621
# Poissons Ratio (z) = 0.25212 0.21447
#
# Static dielectric constant tensor:
#      x y z
#    x 1.861540 0.000000 0.082270 
#    y 0.000000 1.915280 0.000020 
#    z 0.082270 0.000020 1.765990 
# 
# From -- ./inp_files/308838.got.cif
#   From: 2010.05.17/outbox.cif.g08.bks.cpg/sg15_155_cif.got.tgz:308838.got - 2010.06.03 18:47:42.
