data_PCOD9306986
_publ_section_title
;
Structure prediction by ZEFSAII (Michael W. Deem and Ramdas Pophale) SiO2 
 PCOD9306986
Probable space group: C 2/C
;
_chemical_formula_sum "Si O2"
_cell_formula_units_Z 52
_cell_length_a 13.578929
_cell_length_b 20.628319
_cell_length_c 11.522839
_cell_angle_alpha 90.000000
_cell_angle_beta 126.721486
_cell_angle_gamma 90.000000
_cell_volume 2587.142017
_symmetry_space_group_name_H-M "C 2/C"
_symmetry_group_IT_number 15
_symmetry_cell_setting 'monoclinic'
loop_
_space_group_symop_operation_xyz
x,y,z
-x,y,1/2-z
-x,-y,-z
x,-y,1/2+z
1/2+x,1/2+y,z
1/2-x,1/2+y,1/2-z
1/2-x,1/2-y,-z
1/2+x,1/2-y,1/2+z
loop_
_atom_site_type_symbol
_atom_site_label
_atom_site_fract_x
_atom_site_fract_y
_atom_site_fract_z
Si Si1 0.135100 0.582627 0.000420
Si Si2 0.216413 0.182351 0.543618
Si Si3 0.794355 0.645502 0.208058
Si Si4 0.375375 0.063879 0.081514
Si Si5 0.963330 0.208696 0.472596
Si Si6 0.500000 0.244720 0.250000
Si Si7 0.402309 0.149691 0.873186
O O1 0.151168 0.607515 0.143591
O O2 0.233253 0.623972 0.998489
O O3 0.146172 0.506746 0.985888
O O4 0.995324 0.602607 0.872434
O O5 0.250000 0.250000 0.500000
O O6 0.289296 0.172628 0.715801
O O7 0.074477 0.177675 0.479592
O O8 0.772800 0.590454 0.096521
O O9 0.888059 0.697874 0.215023
O O10 0.668884 0.680682 0.153443
O O11 0.500000 0.064150 0.250000
O O12 0.374953 0.114211 0.974495
O O13 0.970184 0.211036 0.617563
O O14 0.973569 0.284188 0.447922
#
# Coordination Sequence:
#
# PCOD9306986 Si02
#       7
#     8   8   8   8   8   4   8
#     4  12  25  43  70 100 135 180 228 284 345 402
#     4  12  26  44  66 104 141 180 228 279 350 415
#     4  12  24  44  68 103 136 175 226 282 344 406
#     4  12  24  43  70 103 136 172 234 291 341 397
#     4  12  25  40  69 100 138 175 219 278 347 408
#     4  12  20  44  66 106 134 168 222 286 344 402
#     4  12  23  41  71 101 135 174 227 290 341 402
#
# _framework density 20.099398999999998
#
# number of rings (size 3 to 8) (size 9 to 14) (size 15 to 20)
#    0.000    0.000    6.923    4.154    4.308    1.846 
#    0.000    0.769    3.385    0.000    0.000    0.000 
#    0.000    0.000    0.000    0.000    0.000    0.000 
#
# Total GULP energy -145207.309637 kJ/mol
# GULP energy per Si atom -5584.896524 kJ/mol
# Density = 2.005365 g / cm^3
# Si number density = 20.099399 Si / 1000 Ang^3
#
#
#
# Elastic Constant Matrix: (Units=GPa)
#
#
# Indices 1 2 3 4 5 6 
#
# 1 112.1660 15.5599 28.6511 0.0000 7.5254 0.0000
# 2 15.5599 71.5241 17.7161 0.0000 5.5990 0.0000
# 3 28.6511 17.7161 80.5322 0.0000 -14.8828 0.0000
# 4 0.0000 0.0000 0.0000 33.0572 0.0000 -7.1140
# 5 7.5254 5.5990 -14.8828 0.0000 33.8114 0.0000
# 6 0.0000 0.0000 0.0000 -7.1140 0.0000 25.2265
#
#
#
# Elastic Compliance Matrix: (Units=1/GPa)
#
#
# Indices 1 2 3 4 5 6 
#
# 1 0.010395 -0.000893 -0.004247 0.000000 -0.004035 0.000000
# 2 -0.000893 0.015440 -0.003826 0.000000 -0.004042 0.000000
# 3 -0.004247 -0.003826 0.016396 0.000000 0.008796 0.000000
# 4 0.000000 0.000000 0.000000 0.032205 0.000000 0.009082
# 5 -0.004035 -0.004042 0.008796 0.000000 0.035015 0.000000
# 6 0.000000 0.000000 0.000000 0.009082 0.000000 0.042202
#
#
# Mechanical properties :
#
#
# Convention : Reuss Voigt Hill
#
# Bulk Modulus (GPa) = 41.15697 43.11961 42.13829
# Shear Modulus (GPa) = 28.13980 31.90536 30.02258
#
# Velocity S-wave (km/s) = 3.74576 3.98851 3.86904
# Velocity P-wave (km/s) = 6.26329 6.53535 6.40076
#
# Compressibility (1/GPa) = 0.02429722
#
# Stress axis : x y z
#
# Youngs Moduli (GPa) = 96.20029 64.76833 60.99194
#
# Poissons Ratio (x) = 0.05787 0.25906
# Poissons Ratio (y) = 0.08595 0.23333
# Poissons Ratio (z) = 0.40860 0.24778
#
# Static dielectric constant tensor:
#      x y z
#    x 1.708530 0.000000 -0.002100 
#    y 0.000000 1.683260 0.000000 
#    z -0.002100 0.000000 1.774140 
# 
# From -- ./inp_files/89724.got.cif
#   From: 2010.05.17/outbox.cif.g08.bks.cpg/sg15_45_cif.got.tgz:89724.got - 2010.06.03 18:47:42.
