data_PCOD9306695
_publ_section_title
;
Structure prediction by ZEFSAII (Michael W. Deem and Ramdas Pophale) SiO2 
 PCOD9306695
Probable space group: C 2/C
;
_chemical_formula_sum "Si O2"
_cell_formula_units_Z 48
_cell_length_a 22.957777
_cell_length_b 8.311308
_cell_length_c 11.788898
_cell_angle_alpha 90.000000
_cell_angle_beta 110.292598
_cell_angle_gamma 90.000000
_cell_volume 2109.816002
_symmetry_space_group_name_H-M "C 2/C"
_symmetry_group_IT_number 15
_symmetry_cell_setting 'monoclinic'
loop_
_space_group_symop_operation_xyz
x,y,z
-x,y,1/2-z
-x,-y,-z
x,-y,1/2+z
1/2+x,1/2+y,z
1/2-x,1/2+y,1/2-z
1/2-x,1/2-y,-z
1/2+x,1/2-y,1/2+z
loop_
_atom_site_type_symbol
_atom_site_label
_atom_site_fract_x
_atom_site_fract_y
_atom_site_fract_z
Si Si1 0.776393 0.087359 0.639722
Si Si2 0.107659 0.721128 0.333263
Si Si3 0.683210 0.281409 0.721624
Si Si4 0.422815 0.298853 0.446103
Si Si5 0.334116 0.106612 0.554706
Si Si6 0.058032 0.817529 0.523086
O O1 0.829618 0.173004 0.603136
O O2 0.739330 0.222314 0.682704
O O3 0.809848 0.970148 0.751442
O O4 0.725853 0.978492 0.541395
O O5 0.091720 0.740465 0.190963
O O6 0.121737 0.538654 0.375843
O O7 0.058065 0.788066 0.388440
O O8 0.685533 0.199916 0.845905
O O9 0.618341 0.235997 0.619019
O O10 0.371267 0.224740 0.494876
O O11 0.493449 0.251737 0.528164
O O12 0.430208 0.492513 0.451040
#
# Coordination Sequence:
#
# PCOD9306695 Si02
#       6
#     8   8   8   8   8   8
#     4  12  25  43  71 103 147 180 235 287 359 426
#     4  12  25  47  73 105 142 186 230 294 351 421
#     4  12  25  44  69 105 135 190 230 292 353 420
#     4  11  26  50  72 102 139 189 239 290 346 422
#     4  12  26  44  70 106 143 183 232 289 360 417
#     4  11  26  48  74  99 138 187 244 286 350 417
#
# _framework density 22.750800000000002
#
# number of rings (size 3 to 8) (size 9 to 14) (size 15 to 20)
#    0.000    0.333    3.333    5.500    2.333    1.333 
#    3.000    0.000    0.000    0.000    0.000    0.000 
#    0.000    0.000    0.000    0.000    0.000    0.000 
#
# Total GULP energy -134369.004025 kJ/mol
# GULP energy per Si atom -5598.708501 kJ/mol
# Density = 2.269902 g / cm^3
# Si number density = 22.750800 Si / 1000 Ang^3
#
#
#
# Elastic Constant Matrix: (Units=GPa)
#
#
# Indices 1 2 3 4 5 6 
#
# 1 74.9561 1.1017 -9.4291 0.0000 5.7610 0.0000
# 2 1.1017 54.2225 10.9364 0.0000 7.0530 0.0000
# 3 -9.4291 10.9364 56.7484 0.0000 2.2357 0.0000
# 4 0.0000 0.0000 0.0000 9.4535 0.0000 -23.6505
# 5 5.7610 7.0530 2.2357 0.0000 23.4170 0.0000
# 6 0.0000 0.0000 0.0000 -23.6505 0.0000 11.3702
#
#
#
# Elastic Compliance Matrix: (Units=1/GPa)
#
#
# Indices 1 2 3 4 5 6 
#
# 1 0.013937 -0.000327 0.002519 0.000000 -0.003571 0.000000
# 2 -0.000327 0.019914 -0.003673 0.000000 -0.005567 0.000000
# 3 0.002519 -0.003673 0.018800 0.000000 -0.001308 0.000000
# 4 0.000000 0.000000 0.000000 -0.025163 0.000000 -0.052341
# 5 -0.003571 -0.005567 -0.001308 0.000000 0.045384 0.000000
# 6 0.000000 0.000000 0.000000 -0.052341 0.000000 -0.020922
#
#
# Mechanical properties :
#
#
# Convention : Reuss Voigt Hill
#
# Bulk Modulus (GPa) = 20.12452 21.23835 20.68144
# Shear Modulus (GPa) = 69.95525 21.06934 45.51230
#
# Velocity S-wave (km/s) = 5.55115 3.04648 4.47751
# Velocity P-wave (km/s) = 7.06766 4.66156 5.98674
#
# Compressibility (1/GPa) = 0.04969062
#
# Stress axis : x y z
#
# Youngs Moduli (GPa) = 71.74968 50.21577 53.19258
#
# Poissons Ratio (x) = 0.01641 -0.13402
# Poissons Ratio (y) = 0.02345 0.19537
# Poissons Ratio (z) = -0.18077 0.18443
#
# Static dielectric constant tensor:
#      x y z
#    x 1.835540 0.000000 0.063630 
#    y 0.000000 1.852270 0.000000 
#    z 0.063630 0.000000 1.843050 
# 
# From -- ./inp_files/116802.got.cif
#   From: 2010.05.17/outbox.cif.g08.bks.cpg/sg15_59_cif.got.tgz:116802.got - 2010.06.03 18:47:42.
