data_PCOD9306330
_publ_section_title
;
Structure prediction by ZEFSAII (Michael W. Deem and Ramdas Pophale) SiO2 
 PCOD9306330
Probable space group: C 2/C
;
_chemical_formula_sum "Si O2"
_cell_formula_units_Z 32
_cell_length_a 6.372158
_cell_length_b 18.536578
_cell_length_c 12.885302
_cell_angle_alpha 90.000000
_cell_angle_beta 77.002881
_cell_angle_gamma 90.000000
_cell_volume 1482.994958
_symmetry_space_group_name_H-M "C 2/C"
_symmetry_group_IT_number 15
_symmetry_cell_setting 'monoclinic'
loop_
_space_group_symop_operation_xyz
x,y,z
-x,y,1/2-z
-x,-y,-z
x,-y,1/2+z
1/2+x,1/2+y,z
1/2-x,1/2+y,1/2-z
1/2-x,1/2-y,-z
1/2+x,1/2-y,1/2+z
loop_
_atom_site_type_symbol
_atom_site_label
_atom_site_fract_x
_atom_site_fract_y
_atom_site_fract_z
Si Si1 0.835059 0.775107 0.881393
Si Si2 0.087212 0.069395 0.855641
Si Si3 0.623609 0.401509 0.908101
Si Si4 0.000000 0.318142 0.750000
Si Si5 0.500000 0.157718 0.750000
O O1 0.645787 0.774431 0.816639
O O2 0.026741 0.717981 0.837094
O O3 0.932809 0.854964 0.876651
O O4 0.750000 0.750000 0.000000
O O5 0.315720 0.109069 0.820273
O O6 0.000000 0.076902 0.750000
O O7 0.116274 0.985159 0.878347
O O8 0.931235 0.101369 0.962504
O O9 0.841858 0.366603 0.839729
#
# Coordination Sequence:
#
# PCOD9306330 Si02
#       5
#     8   8   8   4   4
#     4  12  26  45  69 105 144 181 243 294 348 429
#     4  11  26  44  71 102 141 186 237 293 355 426
#     4  11  25  47  69 102 143 186 239 293 352 432
#     4  12  25  44  74  95 140 194 226 290 369 406
#     4  12  25  44  70 103 140 180 236 300 341 422
#
# _framework density 21.577953999999998
#
# number of rings (size 3 to 8) (size 9 to 14) (size 15 to 20)
#    0.000    0.500    5.000    2.250    5.250    1.000 
#    0.000    6.250    0.000    0.000    0.000    0.000 
#    0.000    0.000    0.000    0.000    0.000    0.000 
#
# Total GULP energy -89216.195409 kJ/mol
# GULP energy per Si atom -5576.012213 kJ/mol
# Density = 2.152884 g / cm^3
# Si number density = 21.577954 Si / 1000 Ang^3
#
#
#
# Elastic Constant Matrix: (Units=GPa)
#
#
# Indices 1 2 3 4 5 6 
#
# 1 86.5256 39.9801 74.5625 0.0000 -5.0193 0.0000
# 2 39.9801 119.5598 54.3760 0.0000 -9.3184 0.0000
# 3 74.5625 54.3760 212.3985 0.0000 -20.9969 0.0000
# 4 0.0000 0.0000 0.0000 47.3966 0.0000 -11.7045
# 5 -5.0193 -9.3184 -20.9969 0.0000 45.0237 0.0000
# 6 0.0000 0.0000 0.0000 -11.7045 0.0000 34.7118
#
#
#
# Elastic Compliance Matrix: (Units=1/GPa)
#
#
# Indices 1 2 3 4 5 6 
#
# 1 0.017860 -0.003581 -0.005482 0.000000 -0.001307 0.000000
# 2 -0.003581 0.010217 -0.001246 0.000000 0.001134 0.000000
# 3 -0.005482 -0.001246 0.007198 0.000000 0.002488 0.000000
# 4 0.000000 0.000000 0.000000 0.023015 0.000000 0.007760
# 5 -0.001307 0.001134 0.002488 0.000000 0.023460 0.000000
# 6 0.000000 0.000000 0.000000 0.007760 0.000000 0.031425
#
#
# Mechanical properties :
#
#
# Convention : Reuss Voigt Hill
#
# Bulk Modulus (GPa) = 68.23344 84.03569 76.13457
# Shear Modulus (GPa) = 36.05443 42.06411 39.05927
#
# Velocity S-wave (km/s) = 4.09209 4.41999 4.25920
# Velocity P-wave (km/s) = 7.34965 8.06710 7.71672
#
# Compressibility (1/GPa) = 0.01465557
#
# Stress axis : x y z
#
# Youngs Moduli (GPa) = 55.98978 97.87910 138.93329
#
# Poissons Ratio (x) = 0.35049 0.76168
# Poissons Ratio (y) = 0.20049 0.17316
# Poissons Ratio (z) = 0.30695 0.12200
#
# Static dielectric constant tensor:
#      x y z
#    x 1.818740 0.000000 -0.044440 
#    y 0.000000 1.788630 0.000000 
#    z -0.044440 0.000000 1.897170 
# 
# From -- ./inp_files/71918.got.cif
#   From: 2010.05.17/outbox.cif.g08.bks.cpg/sg15_36_cif.got.tgz:71918.got - 2010.06.03 18:47:42.
