data_PCOD9306011
_publ_section_title
;
Structure prediction by ZEFSAII (Michael W. Deem and Ramdas Pophale) SiO2 
 PCOD9306011
Probable space group: C 2/C
;
_chemical_formula_sum "Si O2"
_cell_formula_units_Z 60
_cell_length_a 16.929441
_cell_length_b 19.812177
_cell_length_c 9.168616
_cell_angle_alpha 90.000000
_cell_angle_beta 56.921775
_cell_angle_gamma 90.000000
_cell_volume 2576.821713
_symmetry_space_group_name_H-M "C 2/C"
_symmetry_group_IT_number 15
_symmetry_cell_setting 'monoclinic'
loop_
_space_group_symop_operation_xyz
x,y,z
-x,y,1/2-z
-x,-y,-z
x,-y,1/2+z
1/2+x,1/2+y,z
1/2-x,1/2+y,1/2-z
1/2-x,1/2-y,-z
1/2+x,1/2-y,1/2+z
loop_
_atom_site_type_symbol
_atom_site_label
_atom_site_fract_x
_atom_site_fract_y
_atom_site_fract_z
Si Si1 0.827454 0.239079 0.725682
Si Si2 0.763193 0.977150 0.554770
Si Si3 0.601360 0.285132 0.670632
Si Si4 0.000000 0.215514 0.750000
Si Si5 0.046786 0.641395 0.852422
Si Si6 0.839390 0.156624 0.109111
Si Si7 0.747645 0.090430 0.764673
Si Si8 0.448614 0.056074 0.149185
O O1 0.854064 0.239717 0.525858
O O2 0.916513 0.249833 0.741460
O O3 0.744843 0.291508 0.849265
O O4 0.793193 0.160716 0.771607
O O5 0.821801 0.918434 0.572726
O O6 0.757150 0.961517 0.389446
O O7 0.657792 0.964038 0.719454
O O8 0.791686 0.051282 0.581692
O O9 0.500000 0.318680 0.750000
O O10 0.577056 0.217527 0.787726
O O11 0.659565 0.332962 0.717653
O O12 0.061540 0.177255 0.564709
O O13 0.141094 0.608274 0.822843
O O14 0.000000 0.614015 0.750000
O O15 0.964707 0.626037 0.049363
O O16 0.500000 0.060590 0.250000
O O17 0.500000 0.000000 0.000000
#
# Coordination Sequence:
#
# PCOD9306011 Si02
#       8
#     8   8   8   4   8   8   8   8
#     4  12  27  51  80 109 152 196 256 313 384 451
#     4  12  28  44  73 109 148 200 249 307 378 446
#     4  11  25  47  75 113 147 198 246 312 376 448
#     4  12  26  50  78 108 154 186 260 326 372 450
#     4  11  25  41  68 107 150 197 247 293 373 451
#     4  12  27  49  79 113 145 200 251 313 384 445
#     4  12  27  48  70 106 149 197 252 313 373 449
#     4  12  23  42  66 100 152 197 240 295 367 453
#
# _framework density 23.284499
#
# number of rings (size 3 to 8) (size 9 to 14) (size 15 to 20)
#    0.000    0.267    6.667    1.200    7.467    0.000 
#    2.400    0.667    2.933    0.000    0.000    0.000 
#    0.000    0.000    0.000    0.000    0.000    0.000 
#
# Total GULP energy -167762.447866 kJ/mol
# GULP energy per Si atom -5592.081596 kJ/mol
# Density = 2.323150 g / cm^3
# Si number density = 23.284499 Si / 1000 Ang^3
#
#
#
# Elastic Constant Matrix: (Units=GPa)
#
#
# Indices 1 2 3 4 5 6 
#
# 1 119.6900 19.6270 14.4661 0.0000 19.9443 0.0000
# 2 19.6270 67.0876 18.2929 0.0000 11.0872 0.0000
# 3 14.4661 18.2929 100.1964 0.0000 12.5283 0.0000
# 4 0.0000 0.0000 0.0000 33.0341 0.0000 1.6963
# 5 19.9443 11.0872 12.5283 0.0000 49.7907 0.0000
# 6 0.0000 0.0000 0.0000 1.6963 0.0000 11.1524
#
#
#
# Elastic Compliance Matrix: (Units=1/GPa)
#
#
# Indices 1 2 3 4 5 6 
#
# 1 0.009279 -0.002042 -0.000577 0.000000 -0.003117 0.000000
# 2 -0.002042 0.016542 -0.002444 0.000000 -0.002251 0.000000
# 3 -0.000577 -0.002444 0.010751 0.000000 -0.001930 0.000000
# 4 0.000000 0.000000 0.000000 0.030510 0.000000 -0.004641
# 5 -0.003117 -0.002251 -0.001930 0.000000 0.022319 0.000000
# 6 0.000000 0.000000 0.000000 -0.004641 0.000000 0.090373
#
#
# Mechanical properties :
#
#
# Convention : Reuss Voigt Hill
#
# Bulk Modulus (GPa) = 37.81343 43.52735 40.67039
# Shear Modulus (GPa) = 25.16167 34.43464 29.79816
#
# Velocity S-wave (km/s) = 3.29084 3.84977 3.58123
# Velocity P-wave (km/s) = 5.54207 6.20446 5.88259
#
# Compressibility (1/GPa) = 0.02644563
#
# Stress axis : x y z
#
# Youngs Moduli (GPa) = 107.77120 60.45360 93.01303
#
# Poissons Ratio (x) = 0.12346 0.05368
# Poissons Ratio (y) = 0.22009 0.22730
# Poissons Ratio (z) = 0.06220 0.14773
#
# Static dielectric constant tensor:
#      x y z
#    x 1.691850 0.000000 0.205820 
#    y 0.000000 1.961250 0.000000 
#    z 0.205820 0.000000 1.756560 
# 
# From -- ./inp_files/50642.got.cif
#   From: 2010.05.17/outbox.cif.g08.bks.cpg/sg15_26_cif.got.tgz:50642.got - 2010.06.03 18:47:42.
