data_PCOD9306618
_publ_section_title
;
Structure prediction by ZEFSAII (Michael W. Deem and Ramdas Pophale) SiO2 
 PCOD9306618
Probable space group: C 2/C
;
_chemical_formula_sum "Si O2"
_cell_formula_units_Z 40
_cell_length_a 11.349420
_cell_length_b 18.679841
_cell_length_c 16.516345
_cell_angle_alpha 90.000000
_cell_angle_beta 31.285132
_cell_angle_gamma 90.000000
_cell_volume 1818.347606
_symmetry_space_group_name_H-M "C 2/C"
_symmetry_group_IT_number 15
_symmetry_cell_setting 'monoclinic'
loop_
_space_group_symop_operation_xyz
x,y,z
-x,y,1/2-z
-x,-y,-z
x,-y,1/2+z
1/2+x,1/2+y,z
1/2-x,1/2+y,1/2-z
1/2-x,1/2-y,-z
1/2+x,1/2-y,1/2+z
loop_
_atom_site_type_symbol
_atom_site_label
_atom_site_fract_x
_atom_site_fract_y
_atom_site_fract_z
Si Si1 0.479058 0.654278 0.633156
Si Si2 0.966662 0.422991 0.116542
Si Si3 0.736600 0.802387 0.687013
Si Si4 0.596667 0.913824 0.539799
Si Si5 0.621699 0.323250 0.591827
O O1 0.275350 0.607981 0.713032
O O2 0.358997 0.722022 0.746930
O O3 0.640229 0.688425 0.470447
O O4 0.641682 0.603697 0.591847
O O5 0.010113 0.506121 0.108197
O O6 0.953073 0.407075 0.027253
O O7 0.183758 0.382693 0.024697
O O8 0.541006 0.857996 0.824821
O O9 0.926783 0.823527 0.640332
O O10 0.500000 0.325279 0.750000
O O11 0.750000 0.250000 0.500000
#
# Coordination Sequence:
#
# PCOD9306618 Si02
#       5
#     8   8   8   8   8
#     4  12  26  47  73 106 142 185 238 295 350 420
#     4  11  26  46  73 103 140 188 234 285 356 421
#     4  12  25  46  74 105 141 184 239 294 354 414
#     4  11  26  47  71 102 142 189 231 289 352 424
#     4  12  24  45  70 100 137 183 236 291 349 422
#
# _framework density 21.997996000000001
#
# number of rings (size 3 to 8) (size 9 to 14) (size 15 to 20)
#    0.000    0.400    4.000    4.200    2.800    2.400 
#    3.600    0.000    0.000    0.000    0.000    0.000 
#    0.000    0.000    0.000    0.000    0.000    0.000 
#
# Total GULP energy -111906.064316 kJ/mol
# GULP energy per Si atom -5595.303216 kJ/mol
# Density = 2.194793 g / cm^3
# Si number density = 21.997996 Si / 1000 Ang^3
#
#
#
# Elastic Constant Matrix: (Units=GPa)
#
#
# Indices 1 2 3 4 5 6 
#
# 1 121.5469 31.2747 44.3397 0.0719 -37.3937 -0.0076
# 2 31.2747 165.0304 59.0342 0.0271 -26.0062 0.0185
# 3 44.3397 59.0342 119.0551 -0.0920 -33.3747 0.0335
# 4 0.0719 0.0271 -0.0920 14.8932 -0.0500 -11.6853
# 5 -37.3937 -26.0062 -33.3747 -0.0500 44.3181 -0.0004
# 6 -0.0076 0.0185 0.0335 -11.6853 -0.0004 33.5485
#
#
#
# Elastic Compliance Matrix: (Units=1/GPa)
#
#
# Indices 1 2 3 4 5 6 
#
# 1 0.011473 -0.000218 -0.001885 -0.000049 0.008133 -0.000012
# 2 -0.000218 0.007512 -0.003118 -0.000036 0.001876 -0.000014
# 3 -0.001885 -0.003118 0.012282 0.000140 0.005829 0.000038
# 4 -0.000049 -0.000036 0.000140 0.092397 0.000147 0.032183
# 5 0.008133 0.001876 0.005829 0.000147 0.034917 0.000047
# 6 -0.000012 -0.000014 0.000038 0.032183 0.000047 0.041017
#
#
# Mechanical properties :
#
#
# Convention : Reuss Voigt Hill
#
# Bulk Modulus (GPa) = 48.01945 74.99220 61.50583
# Shear Modulus (GPa) = 23.04353 36.61755 29.83054
#
# Velocity S-wave (km/s) = 3.24007 4.08436 3.68646
# Velocity P-wave (km/s) = 5.98947 7.51047 6.79268
#
# Compressibility (1/GPa) = 0.02082490
#
# Stress axis : x y z
#
# Youngs Moduli (GPa) = 87.16005 133.12580 81.42327
#
# Poissons Ratio (x) = 0.02908 0.15346
# Poissons Ratio (y) = 0.01904 0.25384
# Poissons Ratio (z) = 0.16428 0.41503
#
# Static dielectric constant tensor:
#      x y z
#    x 1.713030 0.000280 0.100790 
#    y 0.000280 1.796100 -0.000230 
#    z 0.100790 -0.000230 1.727750 
# 
# From -- ./inp_files/89894.got.cif
#   From: 2010.05.17/outbox.cif.g08.bks.cpg/sg15_45_cif.got.tgz:89894.got - 2010.06.03 18:47:42.
