data_PCOD9306809
_publ_section_title
;
Structure prediction by ZEFSAII (Michael W. Deem and Ramdas Pophale) SiO2 
 PCOD9306809
Probable space group: C 2/C
;
_chemical_formula_sum "Si O2"
_cell_formula_units_Z 40
_cell_length_a 21.329098
_cell_length_b 11.076977
_cell_length_c 15.928252
_cell_angle_alpha 90.000000
_cell_angle_beta 24.955855
_cell_angle_gamma 90.000000
_cell_volume 1587.785450
_symmetry_space_group_name_H-M "C 2/C"
_symmetry_group_IT_number 15
_symmetry_cell_setting 'monoclinic'
loop_
_space_group_symop_operation_xyz
x,y,z
-x,y,1/2-z
-x,-y,-z
x,-y,1/2+z
1/2+x,1/2+y,z
1/2-x,1/2+y,1/2-z
1/2-x,1/2-y,-z
1/2+x,1/2-y,1/2+z
loop_
_atom_site_type_symbol
_atom_site_label
_atom_site_fract_x
_atom_site_fract_y
_atom_site_fract_z
Si Si1 0.388064 0.372454 0.059879
Si Si2 0.707194 0.276577 0.648087
Si Si3 0.888720 0.357008 0.776725
Si Si4 0.076070 0.112998 0.573096
Si Si5 0.319158 0.954373 0.046157
O O1 0.281864 0.323537 0.115473
O O2 0.532975 0.288950 0.880358
O O3 0.292889 0.382326 0.259013
O O4 0.434331 0.509600 0.982727
O O5 0.750000 0.250000 0.500000
O O6 0.771607 0.408814 0.590433
O O7 0.480740 0.953942 0.894178
O O8 0.751320 0.135931 0.114200
O O9 0.982932 0.232738 0.664648
O O10 0.831465 0.387629 0.940827
O O11 0.000000 0.062751 0.750000
#
# Coordination Sequence:
#
# PCOD9306809 Si02
#       5
#     8   8   8   8   8
#     4  12  30  47  81 114 157 200 270 322 389 460
#     4  12  28  53  79 113 162 212 256 323 401 474
#     4  11  27  45  81 104 158 194 262 311 401 459
#     4  12  25  48  76 113 145 205 254 320 389 464
#     4  11  27  48  78 112 152 204 261 326 381 465
#
# _framework density 25.192322000000001
#
# number of rings (size 3 to 8) (size 9 to 14) (size 15 to 20)
#    0.000    0.400    2.000    5.400   14.000    4.000 
#    0.000    0.000    0.000    0.000    0.000    0.000 
#    0.000    0.000    0.000    0.000    0.000    0.000 
#
# Total GULP energy -112272.531536 kJ/mol
# GULP energy per Si atom -5613.626577 kJ/mol
# Density = 2.513498 g / cm^3
# Si number density = 25.192322 Si / 1000 Ang^3
#
#
#
# Elastic Constant Matrix: (Units=GPa)
#
#
# Indices 1 2 3 4 5 6 
#
# 1 94.3418 35.8789 61.9280 0.0000 -12.2176 0.0000
# 2 35.8789 78.0161 36.3332 0.0000 13.5497 0.0000
# 3 61.9280 36.3332 184.2145 0.0000 -7.8885 0.0000
# 4 0.0000 0.0000 0.0000 27.5531 0.0000 -8.6175
# 5 -12.2176 13.5497 -7.8885 0.0000 56.4861 0.0000
# 6 0.0000 0.0000 0.0000 -8.6175 0.0000 45.7202
#
#
#
# Elastic Compliance Matrix: (Units=1/GPa)
#
#
# Indices 1 2 3 4 5 6 
#
# 1 0.016238 -0.006379 -0.004009 0.000000 0.004483 0.000000
# 2 -0.006379 0.017479 -0.001551 0.000000 -0.005789 0.000000
# 3 -0.004009 -0.001551 0.007103 0.000000 0.000497 0.000000
# 4 0.000000 0.000000 0.000000 0.038567 0.000000 0.007269
# 5 0.004483 -0.005789 0.000497 0.000000 0.020131 0.000000
# 6 0.000000 0.000000 0.000000 0.007269 0.000000 0.023242
#
#
# Mechanical properties :
#
#
# Convention : Reuss Voigt Hill
#
# Bulk Modulus (GPa) = 59.02182 69.42807 64.22495
# Shear Modulus (GPa) = 32.83304 40.78070 36.80687
#
# Velocity S-wave (km/s) = 3.61404 4.02777 3.82650
# Velocity P-wave (km/s) = 6.39487 7.01780 6.71357
#
# Compressibility (1/GPa) = 0.01694289
#
# Stress axis : x y z
#
# Youngs Moduli (GPa) = 61.58542 57.21032 140.78215
#
# Poissons Ratio (x) = 0.36496 0.56433
# Poissons Ratio (y) = 0.39287 0.21834
# Poissons Ratio (z) = 0.24687 0.08873
#
# Static dielectric constant tensor:
#      x y z
#    x 2.010960 0.000000 -0.027030 
#    y 0.000000 1.976730 0.000000 
#    z -0.027030 0.000000 1.998980 
# 
# From -- ./inp_files/256950.got.cif
#   From: 2010.05.17/outbox.cif.g08.bks.cpg/sg15_129_cif.got.tgz:256950.got - 2010.06.03 18:47:42.
