data_PCOD9306727
_publ_section_title
;
Structure prediction by ZEFSAII (Michael W. Deem and Ramdas Pophale) SiO2 
 PCOD9306727
Probable space group: C 2/C
;
_chemical_formula_sum "Si O2"
_cell_formula_units_Z 32
_cell_length_a 12.462794
_cell_length_b 11.009843
_cell_length_c 12.819196
_cell_angle_alpha 90.000000
_cell_angle_beta 51.531040
_cell_angle_gamma 90.000000
_cell_volume 1377.173781
_symmetry_space_group_name_H-M "C 2/C"
_symmetry_group_IT_number 15
_symmetry_cell_setting 'monoclinic'
loop_
_space_group_symop_operation_xyz
x,y,z
-x,y,1/2-z
-x,-y,-z
x,-y,1/2+z
1/2+x,1/2+y,z
1/2-x,1/2+y,1/2-z
1/2-x,1/2-y,-z
1/2+x,1/2-y,1/2+z
loop_
_atom_site_type_symbol
_atom_site_label
_atom_site_fract_x
_atom_site_fract_y
_atom_site_fract_z
Si Si1 0.509278 0.133559 0.123982
Si Si2 0.606942 0.305049 0.614256
Si Si3 0.233441 0.501033 0.349235
Si Si4 0.552216 0.373920 0.422065
O O1 0.500000 0.098398 0.250000
O O2 0.366741 0.092157 0.154232
O O3 0.525609 0.279747 0.105047
O O4 0.634420 0.068449 0.989432
O O5 0.500000 0.234024 0.750000
O O6 0.750000 0.250000 0.500000
O O7 0.650063 0.424593 0.656149
O O8 0.546403 0.306656 0.536102
O O9 0.308713 0.410395 0.222834
O O10 0.500000 0.500000 0.500000
#
# Coordination Sequence:
#
# PCOD9306727 Si02
#       4
#     8   8   8   8
#     4  11  27  48  75 106 142 191 241 305 362 436
#     4  12  26  47  75 106 145 191 241 296 359 432
#     4  11  26  49  74 105 142 189 243 299 367 431
#     4  12  27  44  72 105 144 186 240 294 361 427
#
# _framework density 23.235993000000001
#
# number of rings (size 3 to 8) (size 9 to 14) (size 15 to 20)
#    0.000    0.500    5.000    1.500   10.500    2.000 
#    0.000    0.000    0.000    0.000    0.000    0.000 
#    0.000    0.000    0.000    0.000    0.000    0.000 
#
# Total GULP energy -89224.018397 kJ/mol
# GULP energy per Si atom -5576.501150 kJ/mol
# Density = 2.318311 g / cm^3
# Si number density = 23.235993 Si / 1000 Ang^3
#
#
#
# Elastic Constant Matrix: (Units=GPa)
#
#
# Indices 1 2 3 4 5 6 
#
# 1 45.8116 5.3978 40.3726 0.0000 2.9782 0.0000
# 2 5.3978 60.6445 32.1738 0.0000 -1.0051 0.0000
# 3 40.3726 32.1738 232.5635 0.0000 4.1761 0.0000
# 4 0.0000 0.0000 0.0000 37.9529 0.0000 -11.7712
# 5 2.9782 -1.0051 4.1761 0.0000 39.7009 0.0000
# 6 0.0000 0.0000 0.0000 -11.7712 0.0000 16.9603
#
#
#
# Elastic Compliance Matrix: (Units=1/GPa)
#
#
# Indices 1 2 3 4 5 6 
#
# 1 0.025857 0.000045 -0.004469 0.000000 -0.001468 0.000000
# 2 0.000045 0.017816 -0.002485 0.000000 0.000709 0.000000
# 3 -0.004469 -0.002485 0.005425 0.000000 -0.000298 0.000000
# 4 0.000000 0.000000 0.000000 0.033576 0.000000 0.023303
# 5 -0.001468 0.000709 -0.000298 0.000000 0.025348 0.000000
# 6 0.000000 0.000000 0.000000 0.023303 0.000000 0.075135
#
#
# Mechanical properties :
#
#
# Convention : Reuss Voigt Hill
#
# Bulk Modulus (GPa) = 28.34498 54.98975 41.66737
# Shear Modulus (GPa) = 23.95397 36.32783 30.14090
#
# Velocity S-wave (km/s) = 3.21425 3.95831 3.60552
# Velocity P-wave (km/s) = 5.09906 6.67893 5.94174
#
# Compressibility (1/GPa) = 0.03527961
#
# Stress axis : x y z
#
# Youngs Moduli (GPa) = 38.67467 56.13001 184.33851
#
# Poissons Ratio (x) = -0.00252 0.82372
# Poissons Ratio (y) = -0.00174 0.45812
# Poissons Ratio (z) = 0.17282 0.13950
#
# Static dielectric constant tensor:
#      x y z
#    x 1.909060 0.000000 -0.054370 
#    y 0.000000 1.861970 0.000000 
#    z -0.054370 0.000000 1.846340 
# 
# From -- ./inp_files/94167.got.cif
#   From: 2010.05.17/outbox.cif.g08.bks.cpg/sg15_48_cif.got.tgz:94167.got - 2010.06.03 18:47:42.
