data_PCOD9306712
_publ_section_title
;
Structure prediction by ZEFSAII (Michael W. Deem and Ramdas Pophale) SiO2 
 PCOD9306712
Probable space group: C 2/C
;
_chemical_formula_sum "Si O2"
_cell_formula_units_Z 24
_cell_length_a 13.497913
_cell_length_b 7.169465
_cell_length_c 26.493593
_cell_angle_alpha 90.000000
_cell_angle_beta 22.043750
_cell_angle_gamma 90.000000
_cell_volume 962.253582
_symmetry_space_group_name_H-M "C 2/C"
_symmetry_group_IT_number 15
_symmetry_cell_setting 'monoclinic'
loop_
_space_group_symop_operation_xyz
x,y,z
-x,y,1/2-z
-x,-y,-z
x,-y,1/2+z
1/2+x,1/2+y,z
1/2-x,1/2+y,1/2-z
1/2-x,1/2-y,-z
1/2+x,1/2-y,1/2+z
loop_
_atom_site_type_symbol
_atom_site_label
_atom_site_fract_x
_atom_site_fract_y
_atom_site_fract_z
Si Si1 0.354174 0.522656 0.015419
Si Si2 0.463482 0.672831 0.668490
Si Si3 0.068950 0.595830 0.521573
O O1 0.078728 0.636182 0.138634
O O2 0.500000 0.500000 0.000000
O O3 0.548111 0.642355 0.886499
O O4 0.316023 0.303591 0.025099
O O5 0.701687 0.532394 0.566199
O O6 0.202407 0.607415 0.819305
O O7 0.000000 0.500000 0.500000
#
# Coordination Sequence:
#
# PCOD9306712 Si02
#       3
#     8   8   8
#     4  11  26  48  77 111 156 207 259 322 395 474
#     4  11  28  50  77 120 155 207 266 327 403 473
#     4  12  26  50  78 117 159 205 266 331 398 480
#
# _framework density 24.941451000000001
#
# number of rings (size 3 to 8) (size 9 to 14) (size 15 to 20)
#    0.000    0.667    3.333    2.000    9.333    2.667 
#    6.000    0.000    0.000    0.000    0.000    0.000 
#    0.000    0.000    0.000    0.000    0.000    0.000 
#
# Total GULP energy -67000.609812 kJ/mol
# GULP energy per Si atom -5583.384151 kJ/mol
# Density = 2.488468 g / cm^3
# Si number density = 24.941451 Si / 1000 Ang^3
#
#
#
# Elastic Constant Matrix: (Units=GPa)
#
#
# Indices 1 2 3 4 5 6 
#
# 1 168.0935 69.2394 42.6298 -0.2674 9.1872 0.2286
# 2 69.2394 217.6210 75.0776 0.0002 -11.8470 0.0019
# 3 42.6298 75.0776 170.6431 -0.3584 -15.2322 0.0722
# 4 -0.2674 0.0002 -0.3584 27.6066 -0.1130 -2.8772
# 5 9.1872 -11.8470 -15.2322 -0.1130 24.7873 0.1309
# 6 0.2286 0.0019 0.0722 -2.8772 0.1309 45.2670
#
#
#
# Elastic Compliance Matrix: (Units=1/GPa)
#
#
# Indices 1 2 3 4 5 6 
#
# 1 0.007422 -0.002158 -0.001314 0.000034 -0.004590 -0.000020
# 2 -0.002158 0.006078 -0.001909 -0.000035 0.002531 0.000004
# 3 -0.001314 -0.001909 0.007397 0.000099 0.004120 -0.000011
# 4 0.000034 -0.000035 0.000099 0.036467 0.000186 0.002317
# 5 -0.004590 0.002531 0.004120 0.000186 0.045788 -0.000104
# 6 -0.000020 0.000004 -0.000011 0.002317 -0.000104 0.022239
#
#
# Mechanical properties :
#
#
# Convention : Reuss Voigt Hill
#
# Bulk Modulus (GPa) = 98.67899 103.36124 101.02012
# Shear Modulus (GPa) = 35.83414 44.15957 39.99686
#
# Velocity S-wave (km/s) = 3.79453 4.21233 4.00888
# Velocity P-wave (km/s) = 7.67125 8.07402 7.87521
#
# Compressibility (1/GPa) = 0.01013387
#
# Stress axis : x y z
#
# Youngs Moduli (GPa) = 134.73076 164.52264 135.19764
#
# Poissons Ratio (x) = 0.35502 0.17771
# Poissons Ratio (y) = 0.29073 0.25813
# Poissons Ratio (z) = 0.17709 0.31411
#
# Static dielectric constant tensor:
#      x y z
#    x 2.724200 0.006770 0.290170 
#    y 0.006770 2.112360 0.002640 
#    z 0.290170 0.002640 2.030560 
# 
# From -- ./inp_files/140937.got.cif
#   From: 2010.05.17/outbox.cif.g08.bks.cpg/sg15_71_cif.got.tgz:140937.got - 2010.06.03 18:47:42.
