data_PCOD9306100
_publ_section_title
;
Structure prediction by ZEFSAII (Michael W. Deem and Ramdas Pophale) SiO2 
 PCOD9306100
Probable space group: C 2/C
;
_chemical_formula_sum "Si O2"
_cell_formula_units_Z 44
_cell_length_a 17.165157
_cell_length_b 10.089836
_cell_length_c 11.348611
_cell_angle_alpha 90.000000
_cell_angle_beta 74.811583
_cell_angle_gamma 90.000000
_cell_volume 1896.850827
_symmetry_space_group_name_H-M "C 2/C"
_symmetry_group_IT_number 15
_symmetry_cell_setting 'monoclinic'
loop_
_space_group_symop_operation_xyz
x,y,z
-x,y,1/2-z
-x,-y,-z
x,-y,1/2+z
1/2+x,1/2+y,z
1/2-x,1/2+y,1/2-z
1/2-x,1/2-y,-z
1/2+x,1/2-y,1/2+z
loop_
_atom_site_type_symbol
_atom_site_label
_atom_site_fract_x
_atom_site_fract_y
_atom_site_fract_z
Si Si1 0.097313 0.910042 0.551687
Si Si2 0.570584 0.295700 0.130231
Si Si3 0.500000 0.795449 0.250000
Si Si4 0.080592 0.425551 0.430105
Si Si5 0.754451 0.584202 0.141956
Si Si6 0.180542 0.848921 0.295046
O O1 0.049275 0.799545 0.642593
O O2 0.106430 0.867217 0.413569
O O3 0.059565 0.053544 0.590129
O O4 0.189326 0.920090 0.563491
O O5 0.500000 0.254750 0.250000
O O6 0.649536 0.298984 0.181502
O O7 0.585039 0.200491 0.014607
O O8 0.562962 0.880141 0.302948
O O9 0.158079 0.519708 0.416783
O O10 0.000000 0.500000 0.500000
O O11 0.762916 0.735630 0.176480
O O12 0.719113 0.491897 0.259399
#
# Coordination Sequence:
#
# PCOD9306100 Si02
#       6
#     8   8   4   8   8   8
#     4  11  25  45  76 106 148 193 244 310 368 446
#     4  11  25  44  73 106 142 188 245 304 373 440
#     4  12  26  48  76 112 144 196 256 310 374 440
#     4  12  29  46  75 105 149 195 249 311 370 446
#     4  11  26  46  71 110 148 194 243 305 374 445
#     4  11  26  44  74 104 147 193 241 303 366 446
#
# _framework density 23.196342000000001
#
# number of rings (size 3 to 8) (size 9 to 14) (size 15 to 20)
#    0.000    0.727    0.909    4.909   14.000    2.909 
#    0.000    0.000    0.000    0.000    0.000    0.000 
#    0.000    0.000    0.000    0.000    0.000    0.000 
#
# Total GULP energy -123228.048396 kJ/mol
# GULP energy per Si atom -5601.274927 kJ/mol
# Density = 2.314355 g / cm^3
# Si number density = 23.196342 Si / 1000 Ang^3
#
#
#
# Elastic Constant Matrix: (Units=GPa)
#
#
# Indices 1 2 3 4 5 6 
#
# 1 108.8059 13.6282 16.5437 0.0000 8.0689 0.0000
# 2 13.6282 71.4825 22.0341 0.0000 11.8505 0.0000
# 3 16.5437 22.0341 86.5549 0.0000 8.8231 0.0000
# 4 0.0000 0.0000 0.0000 21.6413 0.0000 -18.7697
# 5 8.0689 11.8505 8.8231 0.0000 33.0889 0.0000
# 6 0.0000 0.0000 0.0000 -18.7697 0.0000 14.4673
#
#
#
# Elastic Compliance Matrix: (Units=1/GPa)
#
#
# Indices 1 2 3 4 5 6 
#
# 1 0.009663 -0.001152 -0.001393 0.000000 -0.001572 0.000000
# 2 -0.001152 0.016008 -0.003391 0.000000 -0.004548 0.000000
# 3 -0.001393 -0.003391 0.012875 0.000000 -0.001879 0.000000
# 4 0.000000 0.000000 0.000000 -0.368948 0.000000 -0.478669
# 5 -0.001572 -0.004548 -0.001879 0.000000 0.032735 0.000000
# 6 0.000000 0.000000 0.000000 -0.478669 0.000000 -0.551899
#
#
# Mechanical properties :
#
#
# Convention : Reuss Voigt Hill
#
# Bulk Modulus (GPa) = 37.49191 41.25057 39.37124
# Shear Modulus (GPa) = -6.03281 28.14866 11.05792
#
# Velocity S-wave (km/s) = -1.61444 3.48731 2.18574
# Velocity P-wave (km/s) = 3.56689 5.83411 4.83527
#
# Compressibility (1/GPa) = 0.02667242
#
# Stress axis : x y z
#
# Youngs Moduli (GPa) = 103.48261 62.46698 77.67269
#
# Poissons Ratio (x) = 0.07197 0.10823
# Poissons Ratio (y) = 0.11923 0.26342
# Poissons Ratio (z) = 0.14420 0.21185
#
# Static dielectric constant tensor:
#      x y z
#    x 1.883340 0.000000 0.012590 
#    y 0.000000 1.825270 0.000000 
#    z 0.012590 0.000000 1.860250 
# 
# From -- ./inp_files/109953.got.cif
#   From: 2010.05.17/outbox.cif.g08.bks.cpg/sg15_55_cif.got.tgz:109953.got - 2010.06.03 18:47:42.
