data_PCOD9306963
_publ_section_title
;
Structure prediction by ZEFSAII (Michael W. Deem and Ramdas Pophale) SiO2 
 PCOD9306963
Probable space group: C 2/C
;
_chemical_formula_sum "Si O2"
_cell_formula_units_Z 52
_cell_length_a 11.639782
_cell_length_b 21.549693
_cell_length_c 11.013383
_cell_angle_alpha 90.000000
_cell_angle_beta 130.319419
_cell_angle_gamma 90.000000
_cell_volume 2106.286853
_symmetry_space_group_name_H-M "C 2/C"
_symmetry_group_IT_number 15
_symmetry_cell_setting 'monoclinic'
loop_
_space_group_symop_operation_xyz
x,y,z
-x,y,1/2-z
-x,-y,-z
x,-y,1/2+z
1/2+x,1/2+y,z
1/2-x,1/2+y,1/2-z
1/2-x,1/2-y,-z
1/2+x,1/2-y,1/2+z
loop_
_atom_site_type_symbol
_atom_site_label
_atom_site_fract_x
_atom_site_fract_y
_atom_site_fract_z
Si Si1 0.129711 0.802817 0.931160
Si Si2 0.704535 0.016318 0.528320
Si Si3 0.968414 0.355847 0.587234
Si Si4 0.724560 0.396731 0.802708
Si Si5 0.000000 0.582706 0.750000
Si Si6 0.971671 0.065074 0.543640
Si Si7 0.249684 0.649463 0.753653
O O1 0.169396 0.868739 0.892972
O O2 0.000000 0.781275 0.750000
O O3 0.250000 0.750000 0.000000
O O4 0.144056 0.810160 0.086119
O O5 0.589588 0.072800 0.465802
O O6 0.846624 0.046256 0.556917
O O7 0.746205 0.970445 0.667092
O O8 0.616458 0.964717 0.390175
O O9 0.834013 0.321741 0.421322
O O10 0.000000 0.341113 0.750000
O O11 0.128911 0.357303 0.631354
O O12 0.606004 0.391290 0.612256
O O13 0.106503 0.623783 0.734460
O O14 0.128778 0.095520 0.694130
O O15 0.000000 0.000000 0.500000
#
# Coordination Sequence:
#
# PCOD9306963 Si02
#       7
#     8   8   8   8   4   8   8
#     4  12  28  49  78 109 132 173 237 308 382 417
#     4  12  23  37  62 101 146 200 234 268 341 434
#     4  12  25  41  65 100 145 202 239 263 339 431
#     4  12  24  44  67 101 154 180 236 304 346 423
#     4  12  20  38  62  96 144 190 234 278 346 406
#     4  12  23  39  60 100 144 196 231 283 354 420
#     4  12  25  43  68 100 142 184 231 302 353 418
#
# _framework density 24.687995000000001
#
# number of rings (size 3 to 8) (size 9 to 14) (size 15 to 20)
#    0.000    0.000    8.462    1.385    3.231    1.846 
#    0.000    0.000    0.000    0.923    4.000    0.000 
#    0.000    0.000    0.000    0.000    0.000    0.000 
#
# Total GULP energy -145115.313785 kJ/mol
# GULP energy per Si atom -5581.358223 kJ/mol
# Density = 2.463180 g / cm^3
# Si number density = 24.687995 Si / 1000 Ang^3
#
#
#
# Elastic Constant Matrix: (Units=GPa)
#
#
# Indices 1 2 3 4 5 6 
#
# 1 61.9370 -8.5339 40.8831 0.0000 19.0377 0.0000
# 2 -8.5339 24.0808 14.6635 0.0000 7.2076 0.0000
# 3 40.8831 14.6635 259.1478 0.0000 8.9808 0.0000
# 4 0.0000 0.0000 0.0000 -6.8279 0.0000 -3.1270
# 5 19.0377 7.2076 8.9808 0.0000 39.1345 0.0000
# 6 0.0000 0.0000 0.0000 -3.1270 0.0000 23.5275
#
#
#
# Elastic Compliance Matrix: (Units=1/GPa)
#
#
# Indices 1 2 3 4 5 6 
#
# 1 0.025800 0.016216 -0.004485 0.000000 -0.014508 0.000000
# 2 0.016216 0.055452 -0.005109 0.000000 -0.016929 0.000000
# 3 -0.004485 -0.005109 0.004785 0.000000 0.002025 0.000000
# 4 0.000000 0.000000 0.000000 -0.138054 0.000000 -0.018349
# 5 -0.014508 -0.016929 0.002025 0.000000 0.035264 0.000000
# 6 0.000000 0.000000 0.000000 -0.018349 0.000000 0.040065
#
#
# Mechanical properties :
#
#
# Convention : Reuss Voigt Hill
#
# Bulk Modulus (GPa) = 10.07239 48.79901 29.43570
# Shear Modulus (GPa) = 115.84544 31.04368 73.44456
#
# Velocity S-wave (km/s) = 6.85753 3.54989 5.46019
# Velocity P-wave (km/s) = 8.17249 6.05074 7.19031
#
# Compressibility (1/GPa) = 0.09928134
#
# Stress axis : x y z
#
# Youngs Moduli (GPa) = 38.76030 18.03362 208.97409
#
# Poissons Ratio (x) = -0.29244 0.93724
# Poissons Ratio (y) = -0.62856 1.06771
# Poissons Ratio (z) = 0.17384 0.09214
#
# Static dielectric constant tensor:
#      x y z
#    x 2.453410 0.000000 0.565330 
#    y 0.000000 1.968090 0.000000 
#    z 0.565330 0.000000 3.323110 
# 
# From -- ./inp_files/91325.got.cif
#   From: 2010.05.17/outbox.cif.g08.bks.cpg/sg15_46_cif.got.tgz:91325.got - 2010.06.03 18:47:42.
