data_PCOD9306317
_publ_section_title
;
Structure prediction by ZEFSAII (Michael W. Deem and Ramdas Pophale) SiO2 
 PCOD9306317
Probable space group: C 2/C
;
_chemical_formula_sum "Si O2"
_cell_formula_units_Z 48
_cell_length_a 12.395894
_cell_length_b 26.789324
_cell_length_c 9.685610
_cell_angle_alpha 90.000000
_cell_angle_beta 142.735250
_cell_angle_gamma 90.000000
_cell_volume 1947.511075
_symmetry_space_group_name_H-M "C 2/C"
_symmetry_group_IT_number 15
_symmetry_cell_setting 'monoclinic'
loop_
_space_group_symop_operation_xyz
x,y,z
-x,y,1/2-z
-x,-y,-z
x,-y,1/2+z
1/2+x,1/2+y,z
1/2-x,1/2+y,1/2-z
1/2-x,1/2-y,-z
1/2+x,1/2-y,1/2+z
loop_
_atom_site_type_symbol
_atom_site_label
_atom_site_fract_x
_atom_site_fract_y
_atom_site_fract_z
Si Si1 0.141569 0.690572 0.011935
Si Si2 0.500000 0.557262 0.750000
Si Si3 0.998795 0.413037 0.460798
Si Si4 0.657399 0.008018 0.311662
Si Si5 0.647960 0.368104 0.185593
Si Si6 0.883432 0.755779 0.237773
Si Si7 0.500000 0.665077 0.250000
O O1 0.119450 0.719331 0.133581
O O2 0.339464 0.695936 0.154590
O O3 0.107207 0.631485 0.002858
O O4 0.000000 0.704383 0.750000
O O5 0.335950 0.521301 0.566486
O O6 0.469883 0.593068 0.849546
O O7 0.132029 0.454666 0.657329
O O8 0.869837 0.449965 0.244288
O O9 0.854567 0.384669 0.410286
O O10 0.500000 0.024414 0.250000
O O11 0.620868 0.313208 0.220514
O O12 0.589834 0.364913 0.967180
O O13 0.124840 0.749217 0.440946
#
# Coordination Sequence:
#
# PCOD9306317 Si02
#       7
#     8   4   8   8   8   8   4
#     4  12  27  52  82 114 165 214 270 338 406 482
#     4  12  26  51  82 116 162 208 272 339 400 476
#     4  11  25  49  76 116 159 213 261 337 406 478
#     4  11  25  46  78 112 157 206 273 328 410 481
#     4  12  26  49  77 117 160 213 266 333 406 482
#     4  12  28  49  79 118 159 212 274 330 403 488
#     4  12  28  47  76 116 160 210 270 323 410 484
#
# _framework density 24.646843000000001
#
# number of rings (size 3 to 8) (size 9 to 14) (size 15 to 20)
#    0.000    0.333    4.167    3.500    3.500    2.667 
#    0.000    0.000    0.000    0.000    0.000    0.000 
#    0.000    0.000    0.000    0.000    0.000    0.000 
#
# Total GULP energy -134201.427180 kJ/mol
# GULP energy per Si atom -5591.726133 kJ/mol
# Density = 2.459075 g / cm^3
# Si number density = 24.646843 Si / 1000 Ang^3
#
#
#
# Elastic Constant Matrix: (Units=GPa)
#
#
# Indices 1 2 3 4 5 6 
#
# 1 159.9417 63.7766 55.6150 0.0000 5.7571 0.0000
# 2 63.7766 184.1325 71.2014 0.0000 -2.9079 0.0000
# 3 55.6150 71.2014 130.8043 0.0000 -3.1351 0.0000
# 4 0.0000 0.0000 0.0000 25.8138 0.0000 17.5272
# 5 5.7571 -2.9079 -3.1351 0.0000 52.4561 0.0000
# 6 0.0000 0.0000 0.0000 17.5272 0.0000 37.5178
#
#
#
# Elastic Compliance Matrix: (Units=1/GPa)
#
#
# Indices 1 2 3 4 5 6 
#
# 1 0.007841 -0.001816 -0.002372 0.000000 -0.001103 0.000000
# 2 -0.001816 0.007301 -0.003192 0.000000 0.000413 0.000000
# 3 -0.002372 -0.003192 0.010408 0.000000 0.000705 0.000000
# 4 0.000000 0.000000 0.000000 0.056736 0.000000 -0.026505
# 5 -0.001103 0.000413 0.000705 0.000000 0.019250 0.000000
# 6 0.000000 0.000000 0.000000 -0.026505 0.000000 0.039036
#
#
# Mechanical properties :
#
#
# Convention : Reuss Voigt Hill
#
# Bulk Modulus (GPa) = 92.67890 95.11827 93.89859
# Shear Modulus (GPa) = 31.46101 42.10990 36.78545
#
# Velocity S-wave (km/s) = 3.57665 4.13792 3.86748
# Velocity P-wave (km/s) = 7.39871 7.84258 7.62388
#
# Compressibility (1/GPa) = 0.01078994
#
# Stress axis : x y z
#
# Youngs Moduli (GPa) = 127.53798 136.97281 96.08219
#
# Poissons Ratio (x) = 0.24876 0.22787
# Poissons Ratio (y) = 0.23162 0.30669
# Poissons Ratio (z) = 0.30247 0.43721
#
# Static dielectric constant tensor:
#      x y z
#    x 1.691720 0.000000 -0.582980 
#    y 0.000000 1.885510 0.000000 
#    z -0.582980 0.000000 1.096230 
# 
# From -- ./inp_files/101431.got.cif
#   From: 2010.05.17/outbox.cif.g08.bks.cpg/sg15_51_cif.got.tgz:101431.got - 2010.06.03 18:47:42.
