data_PCOD9306130
_publ_section_title
;
Structure prediction by ZEFSAII (Michael W. Deem and Ramdas Pophale) SiO2 
 PCOD9306130
Probable space group: C 2/C
;
_chemical_formula_sum "Si O2"
_cell_formula_units_Z 40
_cell_length_a 18.521405
_cell_length_b 4.980000
_cell_length_c 21.824716
_cell_angle_alpha 90.000000
_cell_angle_beta 127.352707
_cell_angle_gamma 90.000000
_cell_volume 1600.195117
_symmetry_space_group_name_H-M "C 2/C"
_symmetry_group_IT_number 15
_symmetry_cell_setting 'monoclinic'
loop_
_space_group_symop_operation_xyz
x,y,z
-x,y,1/2-z
-x,-y,-z
x,-y,1/2+z
1/2+x,1/2+y,z
1/2-x,1/2+y,1/2-z
1/2-x,1/2-y,-z
1/2+x,1/2-y,1/2+z
loop_
_atom_site_type_symbol
_atom_site_label
_atom_site_fract_x
_atom_site_fract_y
_atom_site_fract_z
Si Si1 0.832361 0.935127 0.019091
Si Si2 0.787396 0.536208 0.806615
Si Si3 0.209433 0.200573 0.379085
Si Si4 0.451166 0.270132 0.782571
Si Si5 0.522586 0.212170 0.126426
O O1 0.925017 0.788400 0.047509
O O2 0.844428 0.107939 0.087873
O O3 0.750000 0.750000 0.000000
O O4 0.792227 0.122262 0.945765
O O5 0.762749 0.814579 0.761797
O O6 0.749527 0.532156 0.856378
O O7 0.892989 0.438088 0.863035
O O8 0.141111 0.338923 0.296279
O O9 0.500000 0.401594 0.750000
O O10 0.442847 0.507204 0.827413
O O11 0.499821 0.008401 0.833465
#
# Coordination Sequence:
#
# PCOD9306130 Si02
#       5
#     8   8   8   8   8
#     4  11  27  46  70 103 149 186 238 294 368 422
#     4  12  25  45  73 107 142 185 242 298 354 424
#     4  11  25  45  69 102 143 188 230 299 355 423
#     4  12  23  41  73 104 135 183 248 289 345 415
#     4  12  25  44  71 107 138 186 239 296 353 425
#
# _framework density 24.996950999999999
#
# number of rings (size 3 to 8) (size 9 to 14) (size 15 to 20)
#    0.000    0.400    6.000    1.800    8.400    0.800 
#    0.000    1.000    0.000    0.000    0.000    0.000 
#    0.000    0.000    0.000    0.000    0.000    0.000 
#
# Total GULP energy -111744.667304 kJ/mol
# GULP energy per Si atom -5587.233365 kJ/mol
# Density = 2.494006 g / cm^3
# Si number density = 24.996951 Si / 1000 Ang^3
#
#
#
# Elastic Constant Matrix: (Units=GPa)
#
#
# Indices 1 2 3 4 5 6 
#
# 1 79.2886 -8.4597 -2.3572 0.0007 21.8287 -0.0006
# 2 -8.4597 111.9360 25.4432 0.0016 3.2184 -0.0009
# 3 -2.3572 25.4432 95.6057 0.0003 20.8766 -0.0010
# 4 0.0007 0.0016 0.0003 34.3612 -0.0001 13.7810
# 5 21.8287 3.2184 20.8766 -0.0001 43.1253 0.0001
# 6 -0.0006 -0.0009 -0.0010 13.7810 0.0001 36.8656
#
#
#
# Elastic Compliance Matrix: (Units=1/GPa)
#
#
# Indices 1 2 3 4 5 6 
#
# 1 0.015178 0.000936 0.002033 -0.000001 -0.008736 0.000001
# 2 0.000936 0.009579 -0.002535 -0.000001 0.000038 0.000000
# 3 0.002033 -0.002535 0.012711 0.000000 -0.006993 0.000000
# 4 -0.000001 -0.000001 0.000000 0.034235 0.000001 -0.012798
# 5 -0.008736 0.000038 -0.006993 0.000001 0.030993 -0.000001
# 6 0.000001 0.000000 0.000000 -0.012798 -0.000001 0.031910
#
#
# Mechanical properties :
#
#
# Convention : Reuss Voigt Hill
#
# Bulk Modulus (GPa) = 26.08436 35.12032 30.60234
# Shear Modulus (GPa) = 34.12587 41.01735 37.57161
#
# Velocity S-wave (km/s) = 3.69887 4.05519 3.88112
# Velocity P-wave (km/s) = 5.35723 6.00054 5.68798
#
# Compressibility (1/GPa) = 0.03833716
#
# Stress axis : x y z
#
# Youngs Moduli (GPa) = 65.88630 104.39005 78.67004
#
# Poissons Ratio (x) = -0.09773 -0.15992
# Poissons Ratio (y) = -0.06168 0.19940
# Poissons Ratio (z) = -0.13393 0.26459
#
# Static dielectric constant tensor:
#      x y z
#    x 2.114270 0.000000 0.090280 
#    y 0.000000 1.956970 0.000000 
#    z 0.090280 0.000000 2.024480 
# 
# From -- ./inp_files/212596.got.cif
#   From: 2010.05.17/outbox.cif.g08.bks.cpg/sg15_107_cif.got.tgz:212596.got - 2010.06.03 18:47:42.
