data_PCOD9306194
_publ_section_title
;
Structure prediction by ZEFSAII (Michael W. Deem and Ramdas Pophale) SiO2 
 PCOD9306194
Probable space group: C 2/C
;
_chemical_formula_sum "Si O2"
_cell_formula_units_Z 24
_cell_length_a 8.464013
_cell_length_b 12.514270
_cell_length_c 8.358286
_cell_angle_alpha 90.000000
_cell_angle_beta 88.644402
_cell_angle_gamma 90.000000
_cell_volume 885.069764
_symmetry_space_group_name_H-M "C 2/C"
_symmetry_group_IT_number 15
_symmetry_cell_setting 'monoclinic'
loop_
_space_group_symop_operation_xyz
x,y,z
-x,y,1/2-z
-x,-y,-z
x,-y,1/2+z
1/2+x,1/2+y,z
1/2-x,1/2+y,1/2-z
1/2-x,1/2-y,-z
1/2+x,1/2-y,1/2+z
loop_
_atom_site_type_symbol
_atom_site_label
_atom_site_fract_x
_atom_site_fract_y
_atom_site_fract_z
Si Si1 0.622752 0.907832 0.443799
Si Si2 0.848823 0.995740 0.670463
Si Si3 0.073550 0.224131 0.932594
O O1 0.755573 0.908629 0.575530
O O2 0.535636 0.795857 0.450687
O O3 0.500000 0.000000 0.500000
O O4 0.717330 0.947778 0.287084
O O5 0.000000 0.946976 0.750000
O O6 0.919437 0.096324 0.572639
O O7 0.000000 0.249447 0.750000
O O8 0.250000 0.250000 0.000000
#
# Coordination Sequence:
#
# PCOD9306194 Si02
#       3
#     8   8   8
#     4  12  24  47  79 110 156 208 259 327 393 467
#     4  11  26  47  76 114 154 206 266 320 395 471
#     4  11  25  45  74 112 156 198 260 319 388 464
#
# _framework density 27.116508
#
# number of rings (size 3 to 8) (size 9 to 14) (size 15 to 20)
#    0.000    0.667    3.333    4.000    0.000    5.333 
#    0.000    3.333    0.000    0.000    0.000    0.000 
#    0.000    0.000    0.000    0.000    0.000    0.000 
#
# Total GULP energy -67120.774389 kJ/mol
# GULP energy per Si atom -5593.397866 kJ/mol
# Density = 2.705479 g / cm^3
# Si number density = 27.116508 Si / 1000 Ang^3
#
#
#
# Elastic Constant Matrix: (Units=GPa)
#
#
# Indices 1 2 3 4 5 6 
#
# 1 218.3966 72.3440 70.2832 0.0000 23.9794 0.0000
# 2 72.3440 114.7073 22.7330 0.0000 -7.5286 0.0000
# 3 70.2832 22.7330 132.5677 0.0000 2.6485 0.0000
# 4 0.0000 0.0000 0.0000 29.3998 0.0000 2.6607
# 5 23.9794 -7.5286 2.6485 0.0000 77.1617 0.0000
# 6 0.0000 0.0000 0.0000 2.6607 0.0000 67.6333
#
#
#
# Elastic Compliance Matrix: (Units=1/GPa)
#
#
# Indices 1 2 3 4 5 6 
#
# 1 0.007201 -0.004101 -0.003064 0.000000 -0.002533 0.000000
# 2 -0.004101 0.011428 0.000167 0.000000 0.002384 0.000000
# 3 -0.003064 0.000167 0.009126 0.000000 0.000655 0.000000
# 4 0.000000 0.000000 0.000000 0.034135 0.000000 -0.001343
# 5 -0.002533 0.002384 0.000655 0.000000 0.013957 0.000000
# 6 0.000000 0.000000 0.000000 -0.001343 0.000000 0.014838
#
#
# Mechanical properties :
#
#
# Convention : Reuss Voigt Hill
#
# Bulk Modulus (GPa) = 72.68015 88.48803 80.58409
# Shear Modulus (GPa) = 45.75895 54.85973 50.30934
#
# Velocity S-wave (km/s) = 4.11237 4.50278 4.31200
# Velocity P-wave (km/s) = 7.02922 7.72896 7.38738
#
# Compressibility (1/GPa) = 0.01375892
#
# Stress axis : x y z
#
# Youngs Moduli (GPa) = 138.86181 87.50808 109.57564
#
# Poissons Ratio (x) = 0.35885 0.33575
# Poissons Ratio (y) = 0.56944 -0.01828
# Poissons Ratio (z) = 0.42549 -0.01460
#
# Static dielectric constant tensor:
#      x y z
#    x 2.381070 0.000000 -0.005930 
#    y 0.000000 1.974800 0.000000 
#    z -0.005930 0.000000 2.355350 
# 
# From -- ./inp_files/21094.got.cif
#   From: 2010.05.17/outbox.cif.g08.bks.cpg/sg15_11_cif.got.tgz:21094.got - 2010.06.03 18:47:42.
