data_PCOD9306382
_publ_section_title
;
Structure prediction by ZEFSAII (Michael W. Deem and Ramdas Pophale) SiO2 
 PCOD9306382
Probable space group: C 2/C
;
_chemical_formula_sum "Si O2"
_cell_formula_units_Z 32
_cell_length_a 19.500709
_cell_length_b 4.790684
_cell_length_c 16.012149
_cell_angle_alpha 90.000000
_cell_angle_beta 116.030156
_cell_angle_gamma 90.000000
_cell_volume 1344.145173
_symmetry_space_group_name_H-M "C 2/C"
_symmetry_group_IT_number 15
_symmetry_cell_setting 'monoclinic'
loop_
_space_group_symop_operation_xyz
x,y,z
-x,y,1/2-z
-x,-y,-z
x,-y,1/2+z
1/2+x,1/2+y,z
1/2-x,1/2+y,1/2-z
1/2-x,1/2-y,-z
1/2+x,1/2-y,1/2+z
loop_
_atom_site_type_symbol
_atom_site_label
_atom_site_fract_x
_atom_site_fract_y
_atom_site_fract_z
Si Si1 0.912837 0.569282 0.562295
Si Si2 0.557357 0.703454 0.080429
Si Si3 0.205364 0.109881 0.252760
Si Si4 0.676857 0.592482 0.922699
O O1 0.909818 0.424143 0.469218
O O2 0.887268 0.331917 0.612664
O O3 0.000962 0.655314 0.617159
O O4 0.857271 0.835084 0.541880
O O5 0.500000 0.500000 0.000000
O O6 0.271896 0.931177 0.245269
O O7 0.197458 0.025523 0.343968
O O8 0.127057 0.056215 0.162254
O O9 0.750000 0.750000 0.000000
#
# Coordination Sequence:
#
# PCOD9306382 Si02
#       4
#     8   8   8   8
#     4  11  25  47  78 108 146 200 254 303 386 445
#     4  11  26  49  79 106 152 202 247 312 384 451
#     4  12  30  49  75 112 153 196 260 310 376 453
#     4  12  26  47  77 111 154 197 248 315 382 446
#
# _framework density 23.806954000000001
#
# number of rings (size 3 to 8) (size 9 to 14) (size 15 to 20)
#    0.000    0.500    2.500    3.750   10.500    1.000 
#    4.500    0.000    0.000    0.000    0.000    0.000 
#    0.000    0.000    0.000    0.000    0.000    0.000 
#
# Total GULP energy -89676.616524 kJ/mol
# GULP energy per Si atom -5604.788533 kJ/mol
# Density = 2.375277 g / cm^3
# Si number density = 23.806954 Si / 1000 Ang^3
#
#
#
# Elastic Constant Matrix: (Units=GPa)
#
#
# Indices 1 2 3 4 5 6 
#
# 1 114.9658 35.6765 66.4696 0.0001 -7.2670 -0.0001
# 2 35.6765 119.0743 28.9690 0.0005 -11.8649 -0.0001
# 3 66.4696 28.9690 95.8983 0.0003 -0.8724 -0.0002
# 4 0.0001 0.0005 0.0003 35.7288 -0.0002 -17.4657
# 5 -7.2670 -11.8649 -0.8724 -0.0002 47.5326 0.0001
# 6 -0.0001 -0.0001 -0.0002 -17.4657 0.0001 57.0308
#
#
#
# Elastic Compliance Matrix: (Units=1/GPa)
#
#
# Indices 1 2 3 4 5 6 
#
# 1 0.015118 -0.001965 -0.009871 0.000000 0.001640 0.000000
# 2 -0.001965 0.009558 -0.001507 0.000000 0.002058 0.000000
# 3 -0.009871 -0.001507 0.017710 0.000000 -0.001560 0.000000
# 4 0.000000 0.000000 0.000000 0.032916 0.000000 0.010081
# 5 0.001640 0.002058 -0.001560 0.000000 0.021774 0.000000
# 6 0.000000 0.000000 0.000000 0.010081 0.000000 0.020622
#
#
# Mechanical properties :
#
#
# Convention : Reuss Voigt Hill
#
# Bulk Modulus (GPa) = 63.68335 65.79651 64.73993
# Shear Modulus (GPa) = 33.41850 41.31335 37.36592
#
# Velocity S-wave (km/s) = 3.75070 4.17027 3.96604
# Velocity P-wave (km/s) = 6.75018 7.13342 6.94445
#
# Compressibility (1/GPa) = 0.01570269
#
# Stress axis : x y z
#
# Youngs Moduli (GPa) = 66.14418 104.61926 56.46470
#
# Poissons Ratio (x) = 0.20558 0.55734
# Poissons Ratio (y) = 0.12997 0.08508
# Poissons Ratio (z) = 0.65288 0.15763
#
# Static dielectric constant tensor:
#      x y z
#    x 1.916080 0.000000 -0.032950 
#    y 0.000000 1.940010 0.000000 
#    z -0.032950 0.000000 1.868530 
# 
# From -- ./inp_files/170141.got.cif
#   From: 2010.05.17/outbox.cif.g08.bks.cpg/sg15_86_cif.got.tgz:170141.got - 2010.06.03 18:47:42.
