data_PCOD9306247
_publ_section_title
;
Structure prediction by ZEFSAII (Michael W. Deem and Ramdas Pophale) SiO2 
 PCOD9306247
Probable space group: C 2/C
;
_chemical_formula_sum "Si O2"
_cell_formula_units_Z 24
_cell_length_a 10.489914
_cell_length_b 13.547491
_cell_length_c 13.298150
_cell_angle_alpha 90.000000
_cell_angle_beta 148.328941
_cell_angle_gamma 90.000000
_cell_volume 992.238166
_symmetry_space_group_name_H-M "C 2/C"
_symmetry_group_IT_number 15
_symmetry_cell_setting 'monoclinic'
loop_
_space_group_symop_operation_xyz
x,y,z
-x,y,1/2-z
-x,-y,-z
x,-y,1/2+z
1/2+x,1/2+y,z
1/2-x,1/2+y,1/2-z
1/2-x,1/2-y,-z
1/2+x,1/2-y,1/2+z
loop_
_atom_site_type_symbol
_atom_site_label
_atom_site_fract_x
_atom_site_fract_y
_atom_site_fract_z
Si Si1 0.761627 0.346816 0.648088
Si Si2 0.747648 0.091192 0.125274
Si Si3 0.262460 0.374513 0.203203
O O1 0.767097 0.375646 0.768444
O O2 0.506548 0.381394 0.431344
O O3 0.764243 0.227608 0.644241
O O4 0.000000 0.384008 0.750000
O O5 0.000000 0.128140 0.250000
O O6 0.751156 0.972309 0.128188
O O7 0.492242 0.125420 0.906563
#
# Coordination Sequence:
#
# PCOD9306247 Si02
#       3
#     8   8   8
#     4  12  25  45  74 101 132 181 233 275 329 407
#     4  11  27  46  69 100 140 179 220 284 341 398
#     4  11  25  46  71 100 137 180 227 276 338 402
#
# _framework density 24.187742
#
# number of rings (size 3 to 8) (size 9 to 14) (size 15 to 20)
#    0.000    0.667    3.333    3.000    9.333    2.667 
#    0.000    0.000    0.000    0.000    0.000    0.000 
#    0.000    0.000    0.000    0.000    0.000    0.000 
#
# Total GULP energy -67205.318986 kJ/mol
# GULP energy per Si atom -5600.443249 kJ/mol
# Density = 2.413269 g / cm^3
# Si number density = 24.187742 Si / 1000 Ang^3
#
#
#
# Elastic Constant Matrix: (Units=GPa)
#
#
# Indices 1 2 3 4 5 6 
#
# 1 185.0485 17.0929 89.0981 0.0021 54.0421 0.0010
# 2 17.0929 74.7058 20.7661 0.0008 2.6064 -0.0005
# 3 89.0981 20.7661 225.7459 0.0067 60.1007 0.0039
# 4 0.0021 0.0008 0.0067 34.0338 0.0033 10.7490
# 5 54.0421 2.6064 60.1007 0.0033 55.3726 0.0011
# 6 0.0010 -0.0005 0.0039 10.7490 0.0011 12.9608
#
#
#
# Elastic Compliance Matrix: (Units=1/GPa)
#
#
# Indices 1 2 3 4 5 6 
#
# 1 0.008012 -0.001230 -0.001382 0.000000 -0.006261 0.000000
# 2 -0.001230 0.013967 -0.001327 -0.000001 0.001984 0.000001
# 3 -0.001382 -0.001327 0.006640 0.000000 -0.005796 -0.000001
# 4 0.000000 -0.000001 0.000000 0.039810 -0.000002 -0.033017
# 5 -0.006261 0.001984 -0.005796 -0.000002 0.030368 0.000001
# 6 0.000000 0.000001 -0.000001 -0.033017 0.000001 0.104538
#
#
# Mechanical properties :
#
#
# Convention : Reuss Voigt Hill
#
# Bulk Modulus (GPa) = 48.21723 82.15716 65.18719
# Shear Modulus (GPa) = 22.92228 44.37630 33.64929
#
# Velocity S-wave (km/s) = 3.08178 4.28794 3.73389
# Velocity P-wave (km/s) = 5.71323 7.65215 6.75265
#
# Compressibility (1/GPa) = 0.02073948
#
# Stress axis : x y z
#
# Youngs Moduli (GPa) = 124.81950 71.59663 150.59263
#
# Poissons Ratio (x) = 0.08810 0.20810
# Poissons Ratio (y) = 0.15359 0.19990
# Poissons Ratio (z) = 0.17249 0.09504
#
# Static dielectric constant tensor:
#      x y z
#    x 1.981390 0.000000 0.035610 
#    y 0.000000 1.946760 -0.000010 
#    z 0.035610 -0.000010 1.985820 
# 
# From -- ./inp_files/21105.got.cif
#   From: 2010.05.17/outbox.cif.g08.bks.cpg/sg15_11_cif.got.tgz:21105.got - 2010.06.03 18:47:42.
