data_PCOD9306440
_publ_section_title
;
Structure prediction by ZEFSAII (Michael W. Deem and Ramdas Pophale) SiO2 
 PCOD9306440
Probable space group: C 2/C
;
_chemical_formula_sum "Si O2"
_cell_formula_units_Z 40
_cell_length_a 8.180602
_cell_length_b 13.805137
_cell_length_c 26.689735
_cell_angle_alpha 90.000000
_cell_angle_beta 30.534878
_cell_angle_gamma 90.000000
_cell_volume 1531.396398
_symmetry_space_group_name_H-M "C 2/C"
_symmetry_group_IT_number 15
_symmetry_cell_setting 'monoclinic'
loop_
_space_group_symop_operation_xyz
x,y,z
-x,y,1/2-z
-x,-y,-z
x,-y,1/2+z
1/2+x,1/2+y,z
1/2-x,1/2+y,1/2-z
1/2-x,1/2-y,-z
1/2+x,1/2-y,1/2+z
loop_
_atom_site_type_symbol
_atom_site_label
_atom_site_fract_x
_atom_site_fract_y
_atom_site_fract_z
Si Si1 0.291620 0.977949 0.603856
Si Si2 0.546649 0.779740 0.505641
Si Si3 0.367067 0.900844 0.396393
Si Si4 0.062835 0.439094 0.791461
Si Si5 0.423195 0.720067 0.710557
O O1 0.315745 0.860267 0.590918
O O2 0.500000 0.000000 0.500000
O O3 0.456664 0.039426 0.605350
O O4 0.908130 0.989743 0.708481
O O5 0.750000 0.750000 0.500000
O O6 0.376847 0.685116 0.525558
O O7 0.790511 0.821186 0.399198
O O8 0.271591 0.994281 0.388702
O O9 0.593739 0.838691 0.298172
O O10 0.089429 0.330753 0.804990
O O11 0.000000 0.429243 0.750000
O O12 0.500000 0.720042 0.750000
#
# Coordination Sequence:
#
# PCOD9306440 Si02
#       5
#     8   8   8   8   8
#     4  12  27  49  78 113 155 212 280 339 413 501
#     4  12  29  48  79 119 164 216 283 349 416 502
#     4  12  27  49  80 112 163 215 271 341 421 491
#     4  11  26  47  75 111 157 210 270 339 414 491
#     4  11  25  48  76 111 157 213 272 338 421 495
#
# _framework density 26.119951
#
# number of rings (size 3 to 8) (size 9 to 14) (size 15 to 20)
#    0.000    0.400    2.000    5.400   11.200    3.200 
#    0.000    0.000    0.000    0.000    0.000    0.000 
#    0.000    0.000    0.000    0.000    0.000    0.000 
#
# Total GULP energy -111625.010569 kJ/mol
# GULP energy per Si atom -5581.250528 kJ/mol
# Density = 2.606050 g / cm^3
# Si number density = 26.119951 Si / 1000 Ang^3
#
#
#
# Elastic Constant Matrix: (Units=GPa)
#
#
# Indices 1 2 3 4 5 6 
#
# 1 60.5605 13.0301 14.0219 -0.0006 15.1898 -0.0007
# 2 13.0301 143.6114 29.3989 -0.0068 3.2637 -0.0022
# 3 14.0219 29.3989 145.9748 0.2057 19.1161 -0.0884
# 4 -0.0006 -0.0068 0.2057 60.3904 -0.0247 5.1750
# 5 15.1898 3.2637 19.1161 -0.0247 39.3085 -0.0051
# 6 -0.0007 -0.0022 -0.0884 5.1750 -0.0051 43.3228
#
#
#
# Elastic Compliance Matrix: (Units=1/GPa)
#
#
# Indices 1 2 3 4 5 6 
#
# 1 0.018664 -0.001412 -0.000619 0.000000 -0.006794 -0.000002
# 2 -0.001412 0.007370 -0.001431 0.000006 0.000630 -0.000003
# 3 -0.000619 -0.001431 0.007638 -0.000029 -0.003356 0.000019
# 4 0.000000 0.000006 -0.000029 0.016730 0.000024 -0.001999
# 5 -0.006794 0.000630 -0.003356 0.000024 0.029645 -0.000006
# 6 -0.000002 -0.000003 0.000019 -0.001999 -0.000006 0.023321
#
#
# Mechanical properties :
#
#
# Convention : Reuss Voigt Hill
#
# Bulk Modulus (GPa) = 37.38710 51.44981 44.41846
# Shear Modulus (GPa) = 41.94350 48.18406 45.06378
#
# Velocity S-wave (km/s) = 4.01159 4.29968 4.15813
# Velocity P-wave (km/s) = 5.98347 6.66258 6.33213
#
# Compressibility (1/GPa) = 0.02674719
#
# Stress axis : x y z
#
# Youngs Moduli (GPa) = 53.58027 135.68455 130.92881
#
# Poissons Ratio (x) = 0.19163 0.08100
# Poissons Ratio (y) = 0.07567 0.18738
# Poissons Ratio (z) = 0.03315 0.19418
#
# Static dielectric constant tensor:
#      x y z
#    x 2.044780 -0.000020 -0.036450 
#    y -0.000020 2.259340 0.000000 
#    z -0.036450 0.000000 2.166940 
# 
# From -- ./inp_files/308163.got.cif
#   From: 2010.05.17/outbox.cif.g08.bks.cpg/sg15_155_cif.got.tgz:308163.got - 2010.06.03 18:47:42.
