data_PCOD9306067
_publ_section_title
;
Structure prediction by ZEFSAII (Michael W. Deem and Ramdas Pophale) SiO2 
 PCOD9306067
Probable space group: C 2/C
;
_chemical_formula_sum "Si O2"
_cell_formula_units_Z 48
_cell_length_a 14.651212
_cell_length_b 14.508866
_cell_length_c 30.209386
_cell_angle_alpha 90.000000
_cell_angle_beta 161.367217
_cell_angle_gamma 90.000000
_cell_volume 2051.737898
_symmetry_space_group_name_H-M "C 2/C"
_symmetry_group_IT_number 15
_symmetry_cell_setting 'monoclinic'
loop_
_space_group_symop_operation_xyz
x,y,z
-x,y,1/2-z
-x,-y,-z
x,-y,1/2+z
1/2+x,1/2+y,z
1/2-x,1/2+y,1/2-z
1/2-x,1/2-y,-z
1/2+x,1/2-y,1/2+z
loop_
_atom_site_type_symbol
_atom_site_label
_atom_site_fract_x
_atom_site_fract_y
_atom_site_fract_z
Si Si1 0.284063 0.984818 0.471927
Si Si2 0.201448 0.898389 0.301336
Si Si3 0.497395 0.544748 0.071104
Si Si4 0.982297 0.720161 0.070270
Si Si5 0.911441 0.228895 0.341404
Si Si6 0.817186 0.870665 0.394764
O O1 0.420982 0.884396 0.529841
O O2 0.970524 0.974173 0.306765
O O3 0.491156 0.059523 0.545453
O O4 0.242283 0.011555 0.504212
O O5 0.254417 0.808076 0.296837
O O6 0.000000 0.879175 0.250000
O O7 0.652293 0.628419 0.167409
O O8 0.668306 0.454504 0.134064
O O9 0.387046 0.588988 0.974845
O O10 0.286030 0.730287 0.234558
O O11 0.974151 0.790562 0.025786
O O12 0.750000 0.750000 0.000000
O O13 0.250000 0.250000 0.500000
O O14 0.500000 0.832842 0.250000
#
# Coordination Sequence:
#
# PCOD9306067 Si02
#       6
#     8   8   8   8   8   8
#     4  12  26  50  77 106 150 202 249 307 392 451
#     4  12  28  48  75 109 150 193 262 311 374 463
#     4  11  25  43  75 106 144 196 249 305 375 447
#     4  12  25  45  75 106 151 197 240 310 379 445
#     4  12  25  45  75 106 148 198 253 301 385 453
#     4  11  26  44  69 111 150 185 252 313 366 444
#
# _framework density 23.394801000000001
#
# number of rings (size 3 to 8) (size 9 to 14) (size 15 to 20)
#    0.000    0.333    5.000    2.500    7.000    1.333 
#    0.000    0.000    0.000    0.000    0.000    0.000 
#    0.000    0.000    0.000    0.000    0.000    0.000 
#
# Total GULP energy -134419.115515 kJ/mol
# GULP energy per Si atom -5600.796480 kJ/mol
# Density = 2.334155 g / cm^3
# Si number density = 23.394801 Si / 1000 Ang^3
#
#
#
# Elastic Constant Matrix: (Units=GPa)
#
#
# Indices 1 2 3 4 5 6 
#
# 1 117.6818 31.9342 19.9200 -0.0001 11.2841 0.0077
# 2 31.9342 118.7905 4.7272 0.0142 3.1670 0.0147
# 3 19.9200 4.7272 69.4493 0.0759 6.1509 0.0764
# 4 -0.0001 0.0142 0.0759 31.2232 0.0137 -7.4443
# 5 11.2841 3.1670 6.1509 0.0137 28.6496 -0.0153
# 6 0.0077 0.0147 0.0764 -7.4443 -0.0153 38.5525
#
#
#
# Elastic Compliance Matrix: (Units=1/GPa)
#
#
# Indices 1 2 3 4 5 6 
#
# 1 0.009871 -0.002476 -0.002388 0.000009 -0.003101 0.000004
# 2 -0.002476 0.009081 0.000096 -0.000005 -0.000049 -0.000004
# 3 -0.002388 0.000096 0.015286 -0.000046 -0.002352 -0.000040
# 4 0.000009 -0.000005 -0.000046 0.033573 -0.000006 0.006483
# 5 -0.003101 -0.000049 -0.002352 -0.000006 0.036636 0.000019
# 6 0.000004 -0.000004 -0.000040 0.006483 0.000019 0.027191
#
#
# Mechanical properties :
#
#
# Convention : Reuss Voigt Hill
#
# Bulk Modulus (GPa) = 40.48108 46.56495 43.52302
# Shear Modulus (GPa) = 33.46550 36.30774 34.88662
#
# Velocity S-wave (km/s) = 3.78625 3.94376 3.86581
# Velocity P-wave (km/s) = 6.03782 6.37847 6.21048
#
# Compressibility (1/GPa) = 0.02470290
#
# Stress axis : x y z
#
# Youngs Moduli (GPa) = 101.30731 110.11699 65.42028
#
# Poissons Ratio (x) = 0.27264 0.15623
# Poissons Ratio (y) = 0.25082 -0.00631
# Poissons Ratio (z) = 0.24193 -0.01061
#
# Static dielectric constant tensor:
#      x y z
#    x 1.873710 0.000010 -0.015070 
#    y 0.000010 1.861670 -0.000010 
#    z -0.015070 -0.000010 1.915330 
# 
# From -- ./inp_files/314119.got.cif
#   From: 2010.05.17/outbox.cif.g08.bks.cpg/sg15_158_cif.got.tgz:314119.got - 2010.06.03 18:47:42.
