data_PCOD9306029
_publ_section_title
;
Structure prediction by ZEFSAII (Michael W. Deem and Ramdas Pophale) SiO2 
 PCOD9306029
Probable space group: C 2/C
;
_chemical_formula_sum "Si O2"
_cell_formula_units_Z 32
_cell_length_a 15.471604
_cell_length_b 16.444401
_cell_length_c 10.595046
_cell_angle_alpha 90.000000
_cell_angle_beta 148.431344
_cell_angle_gamma 90.000000
_cell_volume 1411.202797
_symmetry_space_group_name_H-M "C 2/C"
_symmetry_group_IT_number 15
_symmetry_cell_setting 'monoclinic'
loop_
_space_group_symop_operation_xyz
x,y,z
-x,y,1/2-z
-x,-y,-z
x,-y,1/2+z
1/2+x,1/2+y,z
1/2-x,1/2+y,1/2-z
1/2-x,1/2-y,-z
1/2+x,1/2-y,1/2+z
loop_
_atom_site_type_symbol
_atom_site_label
_atom_site_fract_x
_atom_site_fract_y
_atom_site_fract_z
Si Si1 0.645740 0.979812 0.316185
Si Si2 0.586935 0.861693 0.594002
Si Si3 0.832849 0.951381 0.289141
Si Si4 0.533779 0.303542 0.441236
O O1 0.764821 0.956476 0.346671
O O2 0.577879 0.068308 0.189569
O O3 0.729909 0.002118 0.552642
O O4 0.513790 0.907242 0.140719
O O5 0.491779 0.782113 0.522071
O O6 0.779891 0.839268 0.809818
O O7 0.889311 0.862268 0.314647
O O8 0.000000 0.000000 0.500000
O O9 0.500000 0.295040 0.250000
#
# Coordination Sequence:
#
# PCOD9306029 Si02
#       4
#     8   8   8   8
#     4  11  26  45  73 106 150 191 237 305 367 443
#     4  11  25  42  70 109 144 187 245 304 365 417
#     4  12  23  48  75 106 145 189 246 297 368 441
#     4  12  23  44  72 112 142 197 252 309 351 445
#
# _framework density 22.675692000000002
#
# number of rings (size 3 to 8) (size 9 to 14) (size 15 to 20)
#    0.000    0.500    5.000    3.000    3.500    3.000 
#    0.000    1.250    5.500    0.000    0.000    0.000 
#    0.000    0.000    0.000    0.000    0.000    0.000 
#
# Total GULP energy -89395.879595 kJ/mol
# GULP energy per Si atom -5587.242475 kJ/mol
# Density = 2.262408 g / cm^3
# Si number density = 22.675692 Si / 1000 Ang^3
#
#
#
# Elastic Constant Matrix: (Units=GPa)
#
#
# Indices 1 2 3 4 5 6 
#
# 1 170.4584 66.7971 66.2781 0.0000 8.9273 0.0000
# 2 66.7971 198.5215 67.1665 0.0000 5.7548 0.0000
# 3 66.2781 67.1665 94.2613 0.0000 23.5274 0.0000
# 4 0.0000 0.0000 0.0000 32.0626 0.0000 21.3124
# 5 8.9273 5.7548 23.5274 0.0000 29.3003 0.0000
# 6 0.0000 0.0000 0.0000 21.3124 0.0000 20.0894
#
#
#
# Elastic Compliance Matrix: (Units=1/GPa)
#
#
# Indices 1 2 3 4 5 6 
#
# 1 0.008360 -0.000919 -0.005794 0.000000 0.002286 0.000000
# 2 -0.000919 0.006974 -0.005067 0.000000 0.002979 0.000000
# 3 -0.005794 -0.005067 0.022017 0.000000 -0.014918 0.000000
# 4 0.000000 0.000000 0.000000 0.105790 0.000000 -0.112230
# 5 0.002286 0.002979 -0.014918 0.000000 0.044827 0.000000
# 6 0.000000 0.000000 0.000000 -0.112230 0.000000 0.168840
#
#
# Mechanical properties :
#
#
# Convention : Reuss Voigt Hill
#
# Bulk Modulus (GPa) = 72.50837 95.96938 84.23887
# Shear Modulus (GPa) = 12.98823 33.82378 23.40600
#
# Velocity S-wave (km/s) = 2.39588 3.86635 3.21628
# Velocity P-wave (km/s) = 6.30074 7.89595 7.14302
#
# Compressibility (1/GPa) = 0.01379151
#
# Stress axis : x y z
#
# Youngs Moduli (GPa) = 119.62300 143.38075 45.41998
#
# Poissons Ratio (x) = 0.13175 0.26315
# Poissons Ratio (y) = 0.10992 0.23015
# Poissons Ratio (z) = 0.69305 0.72653
#
# Static dielectric constant tensor:
#      x y z
#    x 1.930350 0.000000 0.037390 
#    y 0.000000 1.918420 0.000000 
#    z 0.037390 0.000000 1.957070 
# 
# From -- ./inp_files/85306.got.cif
#   From: 2010.05.17/outbox.cif.g08.bks.cpg/sg15_43_cif.got.tgz:85306.got - 2010.06.03 18:47:42.
