data_PCOD9306346
_publ_section_title
;
Structure prediction by ZEFSAII (Michael W. Deem and Ramdas Pophale) SiO2 
 PCOD9306346
Probable space group: C 2/C
;
_chemical_formula_sum "Si O2"
_cell_formula_units_Z 36
_cell_length_a 12.876392
_cell_length_b 20.443745
_cell_length_c 10.804493
_cell_angle_alpha 90.000000
_cell_angle_beta 145.346312
_cell_angle_gamma 90.000000
_cell_volume 1617.250140
_symmetry_space_group_name_H-M "C 2/C"
_symmetry_group_IT_number 15
_symmetry_cell_setting 'monoclinic'
loop_
_space_group_symop_operation_xyz
x,y,z
-x,y,1/2-z
-x,-y,-z
x,-y,1/2+z
1/2+x,1/2+y,z
1/2-x,1/2+y,1/2-z
1/2-x,1/2-y,-z
1/2+x,1/2-y,1/2+z
loop_
_atom_site_type_symbol
_atom_site_label
_atom_site_fract_x
_atom_site_fract_y
_atom_site_fract_z
Si Si1 0.500000 0.621383 0.250000
Si Si2 0.463284 0.902834 0.557729
Si Si3 0.758138 0.198709 0.393583
Si Si4 0.351070 0.044241 0.505820
Si Si5 0.631614 0.315562 0.131350
O O1 0.658768 0.574979 0.352475
O O2 0.575875 0.664172 0.438717
O O3 0.618483 0.859771 0.777885
O O4 0.582780 0.932563 0.562646
O O5 0.304520 0.857055 0.347059
O O6 0.363118 0.965508 0.519246
O O7 0.750000 0.250000 0.500000
O O8 0.686549 0.239994 0.204876
O O9 0.959024 0.174839 0.554292
O O10 0.500000 0.068660 0.750000
#
# Coordination Sequence:
#
# PCOD9306346 Si02
#       5
#     4   8   8   8   8
#     4  12  26  48  74 110 144 188 256 298 370 438
#     4  11  26  47  72 106 148 190 245 300 372 444
#     4  12  27  48  71 109 149 193 244 301 375 439
#     4  11  25  47  72 104 146 193 241 305 370 437
#     4  12  26  45  74 107 144 191 245 305 365 441
#
# _framework density 22.260007000000002
#
# number of rings (size 3 to 8) (size 9 to 14) (size 15 to 20)
#    0.000    0.444    6.667    0.667    3.111    3.556 
#    2.000    0.000    0.000    0.000    0.000    0.000 
#    0.000    0.000    0.000    0.000    0.000    0.000 
#
# Total GULP energy -100720.828619 kJ/mol
# GULP energy per Si atom -5595.601590 kJ/mol
# Density = 2.220934 g / cm^3
# Si number density = 22.260007 Si / 1000 Ang^3
#
#
#
# Elastic Constant Matrix: (Units=GPa)
#
#
# Indices 1 2 3 4 5 6 
#
# 1 112.4684 46.3218 38.1444 0.0000 19.6879 0.0000
# 2 46.3218 109.5302 30.3994 0.0000 10.9100 0.0000
# 3 38.1444 30.3994 96.4194 0.0000 15.4268 0.0000
# 4 0.0000 0.0000 0.0000 13.3206 0.0000 -18.3572
# 5 19.6879 10.9100 15.4268 0.0000 49.8215 0.0000
# 6 0.0000 0.0000 0.0000 -18.3572 0.0000 -12.5494
#
#
#
# Elastic Compliance Matrix: (Units=1/GPa)
#
#
# Indices 1 2 3 4 5 6 
#
# 1 0.012079 -0.003966 -0.003055 0.000000 -0.002959 0.000000
# 2 -0.003966 0.011385 -0.001970 0.000000 -0.000316 0.000000
# 3 -0.003055 -0.001970 0.012561 0.000000 -0.002251 0.000000
# 4 0.000000 0.000000 0.000000 0.024892 0.000000 -0.036412
# 5 -0.002959 -0.000316 -0.002251 0.000000 0.022007 0.000000
# 6 0.000000 0.000000 0.000000 -0.036412 0.000000 -0.026422
#
#
# Mechanical properties :
#
#
# Convention : Reuss Voigt Hill
#
# Bulk Modulus (GPa) = 55.42021 60.90547 58.16284
# Shear Modulus (GPa) = 62.11305 23.68871 42.90088
#
# Velocity S-wave (km/s) = 5.28810 3.26572 4.39482
# Velocity P-wave (km/s) = 7.88899 6.45292 7.20682
#
# Compressibility (1/GPa) = 0.01804396
#
# Stress axis : x y z
#
# Youngs Moduli (GPa) = 82.79043 87.83229 79.61072
#
# Poissons Ratio (x) = 0.34832 0.24319
# Poissons Ratio (y) = 0.32832 0.15685
# Poissons Ratio (z) = 0.25290 0.17305
#
# Static dielectric constant tensor:
#      x y z
#    x 1.874070 0.000000 -0.063070 
#    y 0.000000 1.802130 0.000000 
#    z -0.063070 0.000000 1.845930 
# 
# From -- ./inp_files/99925.got.cif
#   From: 2010.05.17/outbox.cif.g08.bks.cpg/sg15_50_cif.got.tgz:99925.got - 2010.06.03 18:47:42.
