data_PCOD9306739
_publ_section_title
;
Structure prediction by ZEFSAII (Michael W. Deem and Ramdas Pophale) SiO2 
 PCOD9306739
Probable space group: C 2/C
;
_chemical_formula_sum "Si O2"
_cell_formula_units_Z 52
_cell_length_a 5.170184
_cell_length_b 15.131905
_cell_length_c 27.975868
_cell_angle_alpha 90.000000
_cell_angle_beta 73.653162
_cell_angle_gamma 90.000000
_cell_volume 2100.208159
_symmetry_space_group_name_H-M "C 2/C"
_symmetry_group_IT_number 15
_symmetry_cell_setting 'monoclinic'
loop_
_space_group_symop_operation_xyz
x,y,z
-x,y,1/2-z
-x,-y,-z
x,-y,1/2+z
1/2+x,1/2+y,z
1/2-x,1/2+y,1/2-z
1/2-x,1/2-y,-z
1/2+x,1/2-y,1/2+z
loop_
_atom_site_type_symbol
_atom_site_label
_atom_site_fract_x
_atom_site_fract_y
_atom_site_fract_z
Si Si1 0.244464 0.454689 0.831230
Si Si2 0.500000 0.955449 0.250000
Si Si3 0.458698 0.899455 0.937962
Si Si4 0.500000 0.655835 0.250000
Si Si5 0.990926 0.869672 0.167950
Si Si6 0.199582 0.593346 0.522111
Si Si7 0.500000 0.736561 0.750000
Si Si8 0.368318 0.696191 0.937907
O O1 0.124281 0.486541 0.786600
O O2 0.494602 0.397013 0.800093
O O3 0.356815 0.540358 0.851913
O O4 0.048912 0.408923 0.878490
O O5 0.723284 0.898001 0.210516
O O6 0.338598 0.800718 0.949312
O O7 0.305360 0.990911 0.960128
O O8 0.703323 0.902647 0.964110
O O9 0.224750 0.708946 0.265455
O O10 0.979848 0.814135 0.120909
O O11 0.150176 0.818859 0.201240
O O12 0.915967 0.643663 0.548943
O O13 0.433342 0.646795 0.535782
#
# Coordination Sequence:
#
# PCOD9306739 Si02
#       8
#     8   4   8   4   8   8   4   8
#     4  12  24  47  68 108 141 199 244 308 367 447
#     4  12  22  46  76  96 158 194 246 306 378 426
#     4  11  26  49  79 110 153 198 253 309 380 446
#     4  12  26  44  67 103 144 186 246 300 366 446
#     4  12  25  44  73  99 149 195 245 305 373 437
#     4  11  27  52  77 112 154 195 249 316 379 443
#     4  12  26  44  67 105 144 190 244 302 370 442
#     4  12  27  50  78 112 150 197 253 310 377 449
#
# _framework density 24.759450999999999
#
# number of rings (size 3 to 8) (size 9 to 14) (size 15 to 20)
#    0.000    0.308    4.615    3.692    0.000    4.923 
#    8.308    0.000    0.000    0.000    0.000    0.000 
#    0.000    0.000    0.000    0.000    0.000    0.000 
#
# Total GULP energy -145484.488729 kJ/mol
# GULP energy per Si atom -5595.557259 kJ/mol
# Density = 2.470310 g / cm^3
# Si number density = 24.759451 Si / 1000 Ang^3
#
#
#
# Elastic Constant Matrix: (Units=GPa)
#
#
# Indices 1 2 3 4 5 6 
#
# 1 102.2264 51.1628 42.3775 0.0000 -6.3412 0.0000
# 2 51.1628 189.7939 48.1440 0.0000 -5.8561 0.0000
# 3 42.3775 48.1440 158.1029 0.0000 6.2950 0.0000
# 4 0.0000 0.0000 0.0000 -3.3930 0.0000 -17.3003
# 5 -6.3412 -5.8561 6.2950 0.0000 15.1992 0.0000
# 6 0.0000 0.0000 0.0000 -17.3003 0.0000 18.9017
#
#
#
# Elastic Compliance Matrix: (Units=1/GPa)
#
#
# Indices 1 2 3 4 5 6 
#
# 1 0.012537 -0.002497 -0.002816 0.000000 0.005434 0.000000
# 2 -0.002497 0.006342 -0.001340 0.000000 0.001957 0.000000
# 3 -0.002816 -0.001340 0.007682 0.000000 -0.004873 0.000000
# 4 0.000000 0.000000 0.000000 -0.052009 0.000000 -0.047602
# 5 0.005434 0.001957 -0.004873 0.000000 0.070832 0.000000
# 6 0.000000 0.000000 0.000000 -0.047602 0.000000 0.009336
#
#
# Mechanical properties :
#
#
# Convention : Reuss Voigt Hill
#
# Bulk Modulus (GPa) = 75.44910 81.49912 78.47411
# Shear Modulus (GPa) = 69.01747 26.70416 47.86081
#
# Velocity S-wave (km/s) = 5.28542 3.28768 4.40140
# Velocity P-wave (km/s) = 8.23326 6.88474 7.58901
#
# Compressibility (1/GPa) = 0.01325397
#
# Stress axis : x y z
#
# Youngs Moduli (GPa) = 79.76584 157.67028 130.17737
#
# Poissons Ratio (x) = 0.39378 0.36660
# Poissons Ratio (y) = 0.19921 0.17441
# Poissons Ratio (z) = 0.22463 0.21125
#
# Static dielectric constant tensor:
#      x y z
#    x 2.127080 0.000000 -0.100260 
#    y 0.000000 2.133330 0.000000 
#    z -0.100260 0.000000 1.949230 
# 
# From -- ./inp_files/305371.got.cif
#   From: 2010.05.17/outbox.cif.g08.bks.cpg/sg15_153_cif.got.tgz:305371.got - 2010.06.03 18:47:42.
