data_PCOD9306832
_publ_section_title
;
Structure prediction by ZEFSAII (Michael W. Deem and Ramdas Pophale) SiO2 
 PCOD9306832
Probable space group: C 2/C
;
_chemical_formula_sum "Si O2"
_cell_formula_units_Z 32
_cell_length_a 14.925619
_cell_length_b 11.132404
_cell_length_c 7.950216
_cell_angle_alpha 90.000000
_cell_angle_beta 80.947580
_cell_angle_gamma 90.000000
_cell_volume 1304.538940
_symmetry_space_group_name_H-M "C 2/C"
_symmetry_group_IT_number 15
_symmetry_cell_setting 'monoclinic'
loop_
_space_group_symop_operation_xyz
x,y,z
-x,y,1/2-z
-x,-y,-z
x,-y,1/2+z
1/2+x,1/2+y,z
1/2-x,1/2+y,1/2-z
1/2-x,1/2-y,-z
1/2+x,1/2-y,1/2+z
loop_
_atom_site_type_symbol
_atom_site_label
_atom_site_fract_x
_atom_site_fract_y
_atom_site_fract_z
Si Si1 0.660700 0.192691 0.752166
Si Si2 0.894961 0.528453 0.045795
Si Si3 0.630773 0.747205 0.779335
Si Si4 0.965445 0.862169 0.511217
O O1 0.637446 0.112577 0.596529
O O2 0.764404 0.231581 0.710228
O O3 0.654777 0.096663 0.906304
O O4 0.591349 0.302209 0.818033
O O5 0.884815 0.610544 0.216774
O O6 0.000000 0.500000 0.000000
O O7 0.600493 0.670036 0.626795
O O8 0.558764 0.705266 0.941260
O O9 0.000000 0.000000 0.500000
#
# Coordination Sequence:
#
# PCOD9306832 Si02
#       4
#     8   8   8   8
#     4  12  27  48  82 112 155 200 257 312 383 451
#     4  12  26  48  80 112 152 198 258 319 372 448
#     4  11  27  48  76 113 150 201 258 303 384 446
#     4  11  27  49  77 111 160 197 249 316 383 450
#
# _framework density 24.529738999999999
#
# number of rings (size 3 to 8) (size 9 to 14) (size 15 to 20)
#    0.000    0.500    2.500    3.750   10.500    4.000 
#    0.000    0.000    0.000    0.000    0.000    0.000 
#    0.000    0.000    0.000    0.000    0.000    0.000 
#
# Total GULP energy -89485.439405 kJ/mol
# GULP energy per Si atom -5592.839963 kJ/mol
# Density = 2.447391 g / cm^3
# Si number density = 24.529739 Si / 1000 Ang^3
#
#
#
# Elastic Constant Matrix: (Units=GPa)
#
#
# Indices 1 2 3 4 5 6 
#
# 1 226.3611 69.2505 36.1937 0.0000 -17.4275 0.0000
# 2 69.2505 172.7768 18.2206 0.0000 12.1644 0.0000
# 3 36.1937 18.2206 112.8010 0.0000 17.4517 0.0000
# 4 0.0000 0.0000 0.0000 38.3545 0.0000 -9.6969
# 5 -17.4275 12.1644 17.4517 0.0000 20.0883 0.0000
# 6 0.0000 0.0000 0.0000 -9.6969 0.0000 38.7329
#
#
#
# Elastic Compliance Matrix: (Units=1/GPa)
#
#
# Indices 1 2 3 4 5 6 
#
# 1 0.006693 -0.003077 -0.003278 0.000000 0.010517 0.000000
# 2 -0.003077 0.007483 0.001031 0.000000 -0.008097 0.000000
# 3 -0.003278 0.001031 0.011884 0.000000 -0.013792 0.000000
# 4 0.000000 0.000000 0.000000 0.027834 0.000000 0.006968
# 5 0.010517 -0.008097 -0.013792 0.000000 0.075790 0.000000
# 6 0.000000 0.000000 0.000000 0.006968 0.000000 0.027562
#
#
# Mechanical properties :
#
#
# Convention : Reuss Voigt Hill
#
# Bulk Modulus (GPa) = 64.88242 84.36316 74.62279
# Shear Modulus (GPa) = 28.89654 45.32006 37.10830
#
# Velocity S-wave (km/s) = 3.43595 4.30298 3.89368
# Velocity P-wave (km/s) = 6.49992 7.69119 7.12051
#
# Compressibility (1/GPa) = 0.01541250
#
# Stress axis : x y z
#
# Youngs Moduli (GPa) = 149.40944 133.64381 84.14613
#
# Poissons Ratio (x) = 0.41128 0.27580
# Poissons Ratio (y) = 0.45980 -0.08680
# Poissons Ratio (z) = 0.48971 -0.13785
#
# Static dielectric constant tensor:
#      x y z
#    x 1.972890 0.000000 -0.102880 
#    y 0.000000 2.039660 0.000000 
#    z -0.102880 0.000000 2.312180 
# 
# From -- ./inp_files/36576.got.cif
#   From: 2010.05.17/outbox.cif.g08.bks.cpg/sg15_19_cif.got.tgz:36576.got - 2010.06.03 18:47:42.
