data_PCOD9306280
_publ_section_title
;
Structure prediction by ZEFSAII (Michael W. Deem and Ramdas Pophale) SiO2 
 PCOD9306280
Probable space group: C 2/C
;
_chemical_formula_sum "Si O2"
_cell_formula_units_Z 40
_cell_length_a 12.015749
_cell_length_b 17.700379
_cell_length_c 9.430272
_cell_angle_alpha 90.000000
_cell_angle_beta 51.398599
_cell_angle_gamma 90.000000
_cell_volume 1567.434906
_symmetry_space_group_name_H-M "C 2/C"
_symmetry_group_IT_number 15
_symmetry_cell_setting 'monoclinic'
loop_
_space_group_symop_operation_xyz
x,y,z
-x,y,1/2-z
-x,-y,-z
x,-y,1/2+z
1/2+x,1/2+y,z
1/2-x,1/2+y,1/2-z
1/2-x,1/2-y,-z
1/2+x,1/2-y,1/2+z
loop_
_atom_site_type_symbol
_atom_site_label
_atom_site_fract_x
_atom_site_fract_y
_atom_site_fract_z
Si Si1 0.638947 0.164664 0.467659
Si Si2 0.221738 0.106554 0.866805
Si Si3 0.878004 0.544833 0.248665
Si Si4 0.706058 0.335230 0.062894
Si Si5 0.452483 0.316231 0.580939
O O1 0.327927 0.143623 0.896548
O O2 0.582906 0.091606 0.424067
O O3 0.535088 0.236299 0.530823
O O4 0.796707 0.183104 0.276477
O O5 0.220872 0.147286 0.716088
O O6 0.062586 0.121285 0.050952
O O7 0.263638 0.019963 0.810001
O O8 0.814745 0.608127 0.401857
O O9 0.000000 0.510394 0.250000
O O10 0.750000 0.250000 0.000000
O O11 0.570849 0.339277 0.065099
#
# Coordination Sequence:
#
# PCOD9306280 Si02
#       5
#     8   8   8   8   8
#     4  11  26  48  76 109 147 192 250 306 365 439
#     4  12  25  43  71 107 144 190 244 302 364 434
#     4  11  26  47  72 107 151 197 243 301 374 445
#     4  11  25  46  73 104 146 194 244 301 367 439
#     4  11  25  47  73 106 149 196 245 305 370 438
#
# _framework density 25.519400000000001
#
# number of rings (size 3 to 8) (size 9 to 14) (size 15 to 20)
#    0.000    0.800    0.000    6.600    0.000   11.200 
#    0.000    8.000    0.000    0.000    0.000    0.000 
#    0.000    0.000    0.000    0.000    0.000    0.000 
#
# Total GULP energy -112030.105128 kJ/mol
# GULP energy per Si atom -5601.505256 kJ/mol
# Density = 2.546132 g / cm^3
# Si number density = 25.519400 Si / 1000 Ang^3
#
#
#
# Elastic Constant Matrix: (Units=GPa)
#
#
# Indices 1 2 3 4 5 6 
#
# 1 182.7690 16.2170 56.9730 0.0000 26.9794 0.0000
# 2 16.2170 115.1091 47.9392 0.0000 3.7736 0.0000
# 3 56.9730 47.9392 84.4097 0.0000 9.5707 0.0000
# 4 0.0000 0.0000 0.0000 17.5810 0.0000 -0.6500
# 5 26.9794 3.7736 9.5707 0.0000 64.4207 0.0000
# 6 0.0000 0.0000 0.0000 -0.6500 0.0000 54.4284
#
#
#
# Elastic Compliance Matrix: (Units=1/GPa)
#
#
# Indices 1 2 3 4 5 6 
#
# 1 0.007413 0.001317 -0.005483 0.000000 -0.002367 0.000000
# 2 0.001317 0.011618 -0.007473 0.000000 -0.000122 0.000000
# 3 -0.005483 -0.007473 0.019816 0.000000 -0.000210 0.000000
# 4 0.000000 0.000000 0.000000 0.056905 0.000000 0.000680
# 5 -0.002367 -0.000122 -0.000210 0.000000 0.016553 0.000000
# 6 0.000000 0.000000 0.000000 0.000680 0.000000 0.018381
#
#
# Mechanical properties :
#
#
# Convention : Reuss Voigt Hill
#
# Bulk Modulus (GPa) = 64.23375 69.39402 66.81388
# Shear Modulus (GPa) = 31.41607 44.69660 38.05634
#
# Velocity S-wave (km/s) = 3.51246 4.18960 3.86589
# Velocity P-wave (km/s) = 6.45562 7.11726 6.79450
#
# Compressibility (1/GPa) = 0.01556814
#
# Stress axis : x y z
#
# Youngs Moduli (GPa) = 134.89552 86.07109 50.46448
#
# Poissons Ratio (x) = -0.11333 0.27669
# Poissons Ratio (y) = -0.17761 0.37714
# Poissons Ratio (z) = 0.73963 0.64324
#
# Static dielectric constant tensor:
#      x y z
#    x 2.074960 0.000000 -0.045880 
#    y 0.000000 1.931160 0.000000 
#    z -0.045880 0.000000 2.124670 
# 
# From -- ./inp_files/145399.got.cif
#   From: 2010.05.17/outbox.cif.g08.bks.cpg/sg15_73_cif.got.tgz:145399.got - 2010.06.03 18:47:42.
