data_PCOD9306774
_publ_section_title
;
Structure prediction by ZEFSAII (Michael W. Deem and Ramdas Pophale) SiO2 
 PCOD9306774
Probable space group: C 2/C
;
_chemical_formula_sum "Si O2"
_cell_formula_units_Z 56
_cell_length_a 22.530996
_cell_length_b 10.359663
_cell_length_c 19.281730
_cell_angle_alpha 90.000000
_cell_angle_beta 153.764373
_cell_angle_gamma 90.000000
_cell_volume 1989.559173
_symmetry_space_group_name_H-M "C 2/C"
_symmetry_group_IT_number 15
_symmetry_cell_setting 'monoclinic'
loop_
_space_group_symop_operation_xyz
x,y,z
-x,y,1/2-z
-x,-y,-z
x,-y,1/2+z
1/2+x,1/2+y,z
1/2-x,1/2+y,1/2-z
1/2-x,1/2-y,-z
1/2+x,1/2-y,1/2+z
loop_
_atom_site_type_symbol
_atom_site_label
_atom_site_fract_x
_atom_site_fract_y
_atom_site_fract_z
Si Si1 0.154920 0.973160 0.228699
Si Si2 0.707512 0.032126 0.492285
Si Si3 0.182576 0.114207 0.508680
Si Si4 0.955281 0.746475 0.843906
Si Si5 0.352810 0.110148 0.343472
Si Si6 0.532938 0.106629 0.187166
Si Si7 0.100583 0.852032 0.504108
O O1 0.272587 0.991888 0.295991
O O2 0.111919 0.119460 0.201302
O O3 0.202361 0.913097 0.351866
O O4 0.021785 0.892699 0.073887
O O5 0.653387 0.111628 0.368977
O O6 0.571161 0.002309 0.391467
O O7 0.791097 0.919003 0.543781
O O8 0.063642 0.212396 0.399269
O O9 0.326945 0.161923 0.687454
O O10 0.140002 0.982280 0.504359
O O11 0.048734 0.679947 0.000388
O O12 0.227785 0.193491 0.182137
O O13 0.570223 0.919973 0.647087
O O14 0.452058 0.240636 0.100944
#
# Coordination Sequence:
#
# PCOD9306774 Si02
#       7
#     8   8   8   8   8   8   8
#     4  11  27  50  82 117 163 219 288 346 428 506
#     4  11  28  53  79 120 160 226 273 351 422 507
#     4  11  26  53  82 124 166 223 282 348 431 503
#     4  11  26  50  86 125 166 217 285 355 420 508
#     4  12  25  52  78 122 164 227 270 366 415 510
#     4  11  28  48  77 118 168 214 287 340 425 508
#     4  11  27  50  82 118 164 222 278 351 424 510
#
# _framework density 28.146941000000002
#
# number of rings (size 3 to 8) (size 9 to 14) (size 15 to 20)
#    0.000    0.857    2.857    1.286    6.000    9.714 
#    2.571    0.000    0.000    0.000    0.000    0.000 
#    0.000    0.000    0.000    0.000    0.000    0.000 
#
# Total GULP energy -157030.434299 kJ/mol
# GULP energy per Si atom -5608.229796 kJ/mol
# Density = 2.808288 g / cm^3
# Si number density = 28.146941 Si / 1000 Ang^3
#
#
#
# Elastic Constant Matrix: (Units=GPa)
#
#
# Indices 1 2 3 4 5 6 
#
# 1 242.9050 58.0000 83.0231 0.0000 14.2523 0.0000
# 2 58.0000 138.1949 58.1186 0.0000 5.0683 0.0000
# 3 83.0231 58.1186 176.4534 0.0000 3.2581 0.0000
# 4 0.0000 0.0000 0.0000 49.4559 0.0000 8.0073
# 5 14.2523 5.0683 3.2581 0.0000 59.7377 0.0000
# 6 0.0000 0.0000 0.0000 8.0073 0.0000 43.2602
#
#
#
# Elastic Compliance Matrix: (Units=1/GPa)
#
#
# Indices 1 2 3 4 5 6 
#
# 1 0.005164 -0.001296 -0.001984 0.000000 -0.001014 0.000000
# 2 -0.001296 0.008744 -0.002265 0.000000 -0.000309 0.000000
# 3 -0.001984 -0.002265 0.007342 0.000000 0.000265 0.000000
# 4 0.000000 0.000000 0.000000 0.020845 0.000000 -0.003858
# 5 -0.001014 -0.000309 0.000265 0.000000 0.016994 0.000000
# 6 0.000000 0.000000 0.000000 -0.003858 0.000000 0.023830
#
#
# Mechanical properties :
#
#
# Convention : Reuss Voigt Hill
#
# Bulk Modulus (GPa) = 98.42023 106.20407 102.31215
# Shear Modulus (GPa) = 51.33822 54.38486 52.86154
#
# Velocity S-wave (km/s) = 4.27539 4.40042 4.33836
# Velocity P-wave (km/s) = 7.70808 7.97698 7.84368
#
# Compressibility (1/GPa) = 0.01016051
#
# Stress axis : x y z
#
# Youngs Moduli (GPa) = 193.65333 114.36868 136.20641
#
# Poissons Ratio (x) = 0.14818 0.27026
# Poissons Ratio (y) = 0.25090 0.30845
# Poissons Ratio (z) = 0.38425 0.25900
#
# Static dielectric constant tensor:
#      x y z
#    x 2.175350 0.000000 0.042850 
#    y 0.000000 2.235500 0.000000 
#    z 0.042850 0.000000 2.204050 
# 
# From -- ./inp_files/284634.got.cif
#   From: 2010.05.17/outbox.cif.g08.bks.cpg/sg15_143_cif.got.tgz:284634.got - 2010.06.03 18:47:42.
