data_PCOD9306491
_publ_section_title
;
Structure prediction by ZEFSAII (Michael W. Deem and Ramdas Pophale) SiO2 
 PCOD9306491
Probable space group: C 2/C
;
_chemical_formula_sum "Si O2"
_cell_formula_units_Z 60
_cell_length_a 23.181534
_cell_length_b 5.196946
_cell_length_c 19.409632
_cell_angle_alpha 90.000000
_cell_angle_beta 96.257571
_cell_angle_gamma 90.000000
_cell_volume 2324.408136
_symmetry_space_group_name_H-M "C 2/C"
_symmetry_group_IT_number 15
_symmetry_cell_setting 'monoclinic'
loop_
_space_group_symop_operation_xyz
x,y,z
-x,y,1/2-z
-x,-y,-z
x,-y,1/2+z
1/2+x,1/2+y,z
1/2-x,1/2+y,1/2-z
1/2-x,1/2-y,-z
1/2+x,1/2-y,1/2+z
loop_
_atom_site_type_symbol
_atom_site_label
_atom_site_fract_x
_atom_site_fract_y
_atom_site_fract_z
Si Si1 0.999936 0.710936 0.641848
Si Si2 0.813545 0.739994 0.240998
Si Si3 0.889146 0.251973 0.540744
Si Si4 0.500000 0.500000 0.500000
Si Si5 0.572045 0.307723 0.173270
Si Si6 0.257024 0.383775 0.635662
Si Si7 0.368469 0.090957 0.654859
Si Si8 0.854760 0.240212 0.958252
O O1 0.933047 0.690108 0.655650
O O2 0.037378 0.462149 0.670822
O O3 0.006130 0.765281 0.560529
O O4 0.027959 0.963461 0.677315
O O5 0.874125 0.871456 0.269427
O O6 0.773686 0.752835 0.302751
O O7 0.841419 0.463495 0.226271
O O8 0.775195 0.847765 0.173350
O O9 0.872120 0.315988 0.616329
O O10 0.883230 0.531406 0.505413
O O11 0.953621 0.144846 0.543565
O O12 0.852175 0.034289 0.496253
O O13 0.601263 0.311084 0.100164
O O14 0.316099 0.256332 0.616740
O O15 0.206670 0.355472 0.573334
#
# Coordination Sequence:
#
# PCOD9306491 Si02
#       8
#     8   8   8   4   8   8   8   8
#     4  12  27  47  78 116 159 205 250 333 377 490
#     4  11  27  52  81 108 155 213 264 335 386 480
#     4  12  27  46  78 114 162 201 252 332 382 484
#     4  12  24  50  78 110 166 206 258 296 422 468
#     4  11  25  50  78 114 155 205 270 309 401 460
#     4  11  27  51  83 106 156 211 270 326 395 471
#     4  12  30  48  74 121 154 207 264 321 412 451
#     4  11  25  49  78 117 151 208 266 314 393 467
#
# _framework density 25.813023999999999
#
# number of rings (size 3 to 8) (size 9 to 14) (size 15 to 20)
#    0.000    0.533    4.000    1.600    9.333    3.200 
#    0.000    0.000    0.000    0.000    0.000    0.000 
#    0.000    0.000    0.000    0.000    0.000    0.000 
#
# Total GULP energy -167320.376851 kJ/mol
# GULP energy per Si atom -5577.345895 kJ/mol
# Density = 2.575427 g / cm^3
# Si number density = 25.813024 Si / 1000 Ang^3
#
#
#
# Elastic Constant Matrix: (Units=GPa)
#
#
# Indices 1 2 3 4 5 6 
#
# 1 174.7298 36.5714 11.6101 0.0000 -9.4226 0.0000
# 2 36.5714 117.0744 7.5348 0.0000 12.8698 0.0000
# 3 11.6101 7.5348 41.0385 0.0000 -9.8439 0.0000
# 4 0.0000 0.0000 0.0000 18.0916 0.0000 4.3015
# 5 -9.4226 12.8698 -9.8439 0.0000 19.4624 0.0000
# 6 0.0000 0.0000 0.0000 4.3015 0.0000 50.3776
#
#
#
# Elastic Compliance Matrix: (Units=1/GPa)
#
#
# Indices 1 2 3 4 5 6 
#
# 1 0.006526 -0.002541 -0.000249 0.000000 0.004713 0.000000
# 2 -0.002541 0.010689 -0.003681 0.000000 -0.010160 0.000000
# 3 -0.000249 -0.003681 0.029213 0.000000 0.017089 0.000000
# 4 0.000000 0.000000 0.000000 0.056420 0.000000 -0.004817
# 5 0.004713 -0.010160 0.017089 0.000000 0.069025 0.000000
# 6 0.000000 0.000000 0.000000 -0.004817 0.000000 0.020261
#
#
# Mechanical properties :
#
#
# Convention : Reuss Voigt Hill
#
# Bulk Modulus (GPa) = 29.86292 49.36393 39.61342
# Shear Modulus (GPa) = 23.12279 36.06140 29.59210
#
# Velocity S-wave (km/s) = 2.99621 3.74173 3.38953
# Velocity P-wave (km/s) = 4.85425 6.15082 5.54059
#
# Compressibility (1/GPa) = 0.03348634
#
# Stress axis : x y z
#
# Youngs Moduli (GPa) = 153.24287 93.55448 34.23151
#
# Poissons Ratio (x) = 0.23768 0.00853
# Poissons Ratio (y) = 0.38932 0.12600
# Poissons Ratio (z) = 0.03817 0.34436
#
# Static dielectric constant tensor:
#      x y z
#    x 2.054000 0.000000 0.126620 
#    y 0.000000 2.031070 0.000000 
#    z 0.126620 0.000000 2.204040 
# 
# From -- ./inp_files/254368.got.cif
#   From: 2010.05.17/outbox.cif.g08.bks.cpg/sg15_128_cif.got.tgz:254368.got - 2010.06.03 18:47:42.
