data_PCOD9306289
_publ_section_title
;
Structure prediction by ZEFSAII (Michael W. Deem and Ramdas Pophale) SiO2 
 PCOD9306289
Probable space group: C 2/C
;
_chemical_formula_sum "Si O2"
_cell_formula_units_Z 32
_cell_length_a 12.283911
_cell_length_b 6.612292
_cell_length_c 26.152422
_cell_angle_alpha 90.000000
_cell_angle_beta 141.866583
_cell_angle_gamma 90.000000
_cell_volume 1311.698019
_symmetry_space_group_name_H-M "C 2/C"
_symmetry_group_IT_number 15
_symmetry_cell_setting 'monoclinic'
loop_
_space_group_symop_operation_xyz
x,y,z
-x,y,1/2-z
-x,-y,-z
x,-y,1/2+z
1/2+x,1/2+y,z
1/2-x,1/2+y,1/2-z
1/2-x,1/2-y,-z
1/2+x,1/2-y,1/2+z
loop_
_atom_site_type_symbol
_atom_site_label
_atom_site_fract_x
_atom_site_fract_y
_atom_site_fract_z
Si Si1 0.549051 0.382810 0.712370
Si Si2 0.013200 0.261439 0.008804
Si Si3 0.053615 0.767709 0.132035
Si Si4 0.702590 0.974803 0.411879
O O1 0.500000 0.470938 0.750000
O O2 0.246358 0.321000 0.715141
O O3 0.515704 0.543982 0.655150
O O4 0.432656 0.179306 0.664471
O O5 0.952890 0.188181 0.930146
O O6 0.862115 0.170039 0.988892
O O7 0.000000 0.500000 0.000000
O O8 0.202923 0.156693 0.085671
O O9 0.907099 0.595993 0.086896
#
# Coordination Sequence:
#
# PCOD9306289 Si02
#       4
#     8   8   8   8
#     4  12  26  46  70 108 147 191 251 299 363 442
#     4  11  26  48  74 110 145 189 247 305 361 442
#     4  12  26  46  74 105 148 194 239 304 366 431
#     4  11  25  46  74 106 142 192 241 297 369 431
#
# _framework density 24.395861
#
# number of rings (size 3 to 8) (size 9 to 14) (size 15 to 20)
#    0.000    0.500    5.000    2.250    0.000    9.000 
#    0.000    0.000    0.000    0.000    0.000    0.000 
#    0.000    0.000    0.000    0.000    0.000    0.000 
#
# Total GULP energy -89480.921412 kJ/mol
# GULP energy per Si atom -5592.557588 kJ/mol
# Density = 2.434034 g / cm^3
# Si number density = 24.395861 Si / 1000 Ang^3
#
#
#
# Elastic Constant Matrix: (Units=GPa)
#
#
# Indices 1 2 3 4 5 6 
#
# 1 117.9106 60.2574 38.8137 0.0000 22.9851 0.0000
# 2 60.2574 173.6953 48.2807 0.0000 13.2258 0.0000
# 3 38.8137 48.2807 64.7102 0.0000 5.9243 0.0000
# 4 0.0000 0.0000 0.0000 43.5487 0.0000 3.0137
# 5 22.9851 13.2258 5.9243 0.0000 63.1597 0.0000
# 6 0.0000 0.0000 0.0000 3.0137 0.0000 31.6712
#
#
#
# Elastic Compliance Matrix: (Units=1/GPa)
#
#
# Indices 1 2 3 4 5 6 
#
# 1 0.012104 -0.002534 -0.005058 0.000000 -0.003400 0.000000
# 2 -0.002534 0.007860 -0.004315 0.000000 -0.000319 0.000000
# 3 -0.005058 -0.004315 0.021642 0.000000 0.000714 0.000000
# 4 0.000000 0.000000 0.000000 0.023115 0.000000 -0.002200
# 5 -0.003400 -0.000319 0.000714 0.000000 0.017070 0.000000
# 6 0.000000 0.000000 0.000000 -0.002200 0.000000 0.031784
#
#
# Mechanical properties :
#
#
# Convention : Reuss Voigt Hill
#
# Bulk Modulus (GPa) = 56.20920 72.33554 64.27237
# Shear Modulus (GPa) = 34.88721 41.60687 38.24704
#
# Velocity S-wave (km/s) = 3.78570 4.13424 3.96380
# Velocity P-wave (km/s) = 6.49609 7.24599 6.88126
#
# Compressibility (1/GPa) = 0.01779068
#
# Stress axis : x y z
#
# Youngs Moduli (GPa) = 82.61880 127.22456 46.20747
#
# Poissons Ratio (x) = 0.32241 0.23371
# Poissons Ratio (y) = 0.20937 0.19940
# Poissons Ratio (z) = 0.41788 0.54901
#
# Static dielectric constant tensor:
#      x y z
#    x 1.953570 0.000000 0.027870 
#    y 0.000000 1.964820 0.000000 
#    z 0.027870 0.000000 1.962770 
# 
# From -- ./inp_files/309373.got.cif
#   From: 2010.05.17/outbox.cif.g08.bks.cpg/sg15_155_cif.got.tgz:309373.got - 2010.06.03 18:47:42.
