data_PCOD9306225
_publ_section_title
;
Structure prediction by ZEFSAII (Michael W. Deem and Ramdas Pophale) SiO2 
 PCOD9306225
Probable space group: C 2/C
;
_chemical_formula_sum "Si O2"
_cell_formula_units_Z 44
_cell_length_a 6.673404
_cell_length_b 26.540448
_cell_length_c 14.857447
_cell_angle_alpha 90.000000
_cell_angle_beta 46.822314
_cell_angle_gamma 90.000000
_cell_volume 1918.966808
_symmetry_space_group_name_H-M "C 2/C"
_symmetry_group_IT_number 15
_symmetry_cell_setting 'monoclinic'
loop_
_space_group_symop_operation_xyz
x,y,z
-x,y,1/2-z
-x,-y,-z
x,-y,1/2+z
1/2+x,1/2+y,z
1/2-x,1/2+y,1/2-z
1/2-x,1/2-y,-z
1/2+x,1/2-y,1/2+z
loop_
_atom_site_type_symbol
_atom_site_label
_atom_site_fract_x
_atom_site_fract_y
_atom_site_fract_z
Si Si1 0.000000 0.268815 0.250000
Si Si2 0.074622 0.345479 0.077631
Si Si3 0.770070 0.972587 0.454635
Si Si4 0.519148 0.791891 0.585487
Si Si5 0.000000 0.638777 0.250000
Si Si6 0.049597 0.928514 0.913466
Si Si7 0.000000 0.109068 0.750000
O O1 0.857497 0.302377 0.371054
O O2 0.755757 0.233578 0.289889
O O3 0.761473 0.359561 0.202291
O O4 0.280559 0.393681 0.017368
O O5 0.055464 0.321271 0.983799
O O6 0.783828 0.947716 0.549425
O O7 0.867923 0.927164 0.363719
O O8 0.500000 0.000000 0.500000
O O9 0.978310 0.019170 0.389163
O O10 0.750000 0.750000 0.500000
O O11 0.619313 0.829953 0.630932
O O12 0.250096 0.605052 0.207467
#
# Coordination Sequence:
#
# PCOD9306225 Si02
#       7
#     4   8   8   8   4   8   4
#     4  12  24  42  70  96 134 184 224 290 364 404
#     4  12  24  44  69 102 139 180 241 288 348 434
#     4  11  25  46  67 102 142 179 230 288 339 422
#     4  12  25  45  68 100 140 179 237 295 355 420
#     4  12  26  43  71 100 138 188 233 285 354 420
#     4  11  26  44  68 102 141 180 233 283 347 415
#     4  12  24  41  73  94 136 184 221 279 356 396
#
# _framework density 22.929006000000001
#
# number of rings (size 3 to 8) (size 9 to 14) (size 15 to 20)
#    0.000    0.364    1.818    7.091    2.545    0.000 
#    0.000    0.000    0.000    0.000    0.000    0.000 
#    0.000    0.000    0.000    0.000    0.000    0.000 
#
# Total GULP energy -123013.932752 kJ/mol
# GULP energy per Si atom -5591.542398 kJ/mol
# Density = 2.287682 g / cm^3
# Si number density = 22.929006 Si / 1000 Ang^3
#
#
#
# Elastic Constant Matrix: (Units=GPa)
#
#
# Indices 1 2 3 4 5 6 
#
# 1 81.2315 22.4873 10.6731 0.0000 -5.0310 0.0000
# 2 22.4873 91.9018 8.4002 0.0000 -1.2501 0.0000
# 3 10.6731 8.4002 32.4743 0.0000 -5.7457 0.0000
# 4 0.0000 0.0000 0.0000 74.8284 0.0000 -30.1598
# 5 -5.0310 -1.2501 -5.7457 0.0000 53.3461 0.0000
# 6 0.0000 0.0000 0.0000 -30.1598 0.0000 49.2229
#
#
#
# Elastic Compliance Matrix: (Units=1/GPa)
#
#
# Indices 1 2 3 4 5 6 
#
# 1 0.013663 -0.003006 -0.003565 0.000000 0.000834 0.000000
# 2 -0.003006 0.011806 -0.002107 0.000000 -0.000234 0.000000
# 3 -0.003565 -0.002107 0.033072 0.000000 0.003177 0.000000
# 4 0.000000 0.000000 0.000000 0.017747 0.000000 0.010874
# 5 0.000834 -0.000234 0.003177 0.000000 0.019161 0.000000
# 6 0.000000 0.000000 0.000000 0.010874 0.000000 0.026978
#
#
# Mechanical properties :
#
#
# Convention : Reuss Voigt Hill
#
# Bulk Modulus (GPa) = 24.28114 32.08098 28.18106
# Shear Modulus (GPa) = 32.57072 46.41595 39.49334
#
# Velocity S-wave (km/s) = 3.77305 4.50414 4.15470
# Velocity P-wave (km/s) = 5.44002 6.40871 5.94413
#
# Compressibility (1/GPa) = 0.04118423
#
# Stress axis : x y z
#
# Youngs Moduli (GPa) = 73.19192 84.70179 30.23662
#
# Poissons Ratio (x) = 0.25460 0.10780
# Poissons Ratio (y) = 0.22001 0.06372
# Poissons Ratio (z) = 0.26095 0.17850
#
# Static dielectric constant tensor:
#      x y z
#    x 0.439550 0.000000 -0.827260 
#    y 0.000000 1.799670 0.000000 
#    z -0.827260 0.000000 1.407930 
# 
# From -- ./inp_files/130020.got.cif
#   From: 2010.05.17/outbox.cif.g08.bks.cpg/sg15_66_cif.got.tgz:130020.got - 2010.06.03 18:47:42.
