data_PCOD9306534
_publ_section_title
;
Structure prediction by ZEFSAII (Michael W. Deem and Ramdas Pophale) SiO2 
 PCOD9306534
Probable space group: C 2/C
;
_chemical_formula_sum "Si O2"
_cell_formula_units_Z 56
_cell_length_a 6.748885
_cell_length_b 12.710760
_cell_length_c 27.824406
_cell_angle_alpha 90.000000
_cell_angle_beta 90.407300
_cell_angle_gamma 90.000000
_cell_volume 2386.813441
_symmetry_space_group_name_H-M "C 2/C"
_symmetry_group_IT_number 15
_symmetry_cell_setting 'monoclinic'
loop_
_space_group_symop_operation_xyz
x,y,z
-x,y,1/2-z
-x,-y,-z
x,-y,1/2+z
1/2+x,1/2+y,z
1/2-x,1/2+y,1/2-z
1/2-x,1/2-y,-z
1/2+x,1/2-y,1/2+z
loop_
_atom_site_type_symbol
_atom_site_label
_atom_site_fract_x
_atom_site_fract_y
_atom_site_fract_z
Si Si1 0.664307 0.307799 0.208220
Si Si2 0.484696 0.665746 0.604048
Si Si3 0.538217 0.134022 0.040205
Si Si4 0.306815 0.531273 0.968876
Si Si5 0.370725 0.967311 0.702663
Si Si6 0.012378 0.874536 0.802541
Si Si7 0.706628 0.002229 0.126410
O O1 0.500000 0.293363 0.250000
O O2 0.565079 0.297444 0.155510
O O3 0.756732 0.423856 0.212692
O O4 0.849955 0.226657 0.206671
O O5 0.490505 0.754503 0.563447
O O6 0.620899 0.572355 0.582512
O O7 0.270416 0.614377 0.611823
O O8 0.336343 0.069088 0.033064
O O9 0.666565 0.070608 0.079680
O O10 0.671783 0.122699 0.992937
O O11 0.500000 0.500000 0.000000
O O12 0.500000 0.939635 0.750000
O O13 0.517068 0.992118 0.659624
O O14 0.220789 0.874276 0.686335
O O15 0.000000 0.926425 0.750000
O O16 0.119986 0.946538 0.841393
#
# Coordination Sequence:
#
# PCOD9306534 Si02
#       7
#     8   8   8   8   8   8   8
#     4  12  27  48  73 114 153 200 263 311 380 464
#     4  12  25  50  78 112 157 200 252 319 390 454
#     4  11  26  48  77 113 150 195 254 319 386 464
#     4  11  25  52  79 111 155 196 257 320 394 472
#     4  12  25  46  71 103 152 206 257 311 379 449
#     4  12  26  46  73 100 152 206 248 317 374 440
#     4  12  25  46  73 112 149 196 262 311 380 470
#
# _framework density 23.462244999999999
#
# number of rings (size 3 to 8) (size 9 to 14) (size 15 to 20)
#    0.000    0.286    5.714    3.000    2.000    1.714 
#    5.143    0.000    0.000    0.000    0.000    0.000 
#    0.000    0.000    0.000    0.000    0.000    0.000 
#
# Total GULP energy -156755.500807 kJ/mol
# GULP energy per Si atom -5598.410743 kJ/mol
# Density = 2.340884 g / cm^3
# Si number density = 23.462245 Si / 1000 Ang^3
#
#
#
# Elastic Constant Matrix: (Units=GPa)
#
#
# Indices 1 2 3 4 5 6 
#
# 1 145.7209 47.8947 50.1362 0.0000 -21.0107 0.0000
# 2 47.8947 80.1003 14.0852 0.0000 -12.4407 0.0000
# 3 50.1362 14.0852 100.0189 0.0000 -25.2114 0.0000
# 4 0.0000 0.0000 0.0000 54.1894 0.0000 7.7762
# 5 -21.0107 -12.4407 -25.2114 0.0000 49.2814 0.0000
# 6 0.0000 0.0000 0.0000 7.7762 0.0000 51.8778
#
#
#
# Elastic Compliance Matrix: (Units=1/GPa)
#
#
# Indices 1 2 3 4 5 6 
#
# 1 0.010110 -0.005183 -0.004111 0.000000 0.000899 0.000000
# 2 -0.005183 0.015767 0.000946 0.000000 0.002255 0.000000
# 3 -0.004111 0.000946 0.013253 0.000000 0.005266 0.000000
# 4 0.000000 0.000000 0.000000 0.018859 0.000000 -0.002827
# 5 0.000899 0.002255 0.005266 0.000000 0.023938 0.000000
# 6 0.000000 0.000000 0.000000 -0.002827 0.000000 0.019700
#
#
# Mechanical properties :
#
#
# Convention : Reuss Voigt Hill
#
# Bulk Modulus (GPa) = 44.57572 61.11915 52.84744
# Shear Modulus (GPa) = 39.74510 45.31798 42.53154
#
# Velocity S-wave (km/s) = 4.12029 4.39968 4.26228
# Velocity P-wave (km/s) = 6.45569 7.20529 6.84076
#
# Compressibility (1/GPa) = 0.02243373
#
# Stress axis : x y z
#
# Youngs Moduli (GPa) = 98.91259 63.42353 75.45338
#
# Poissons Ratio (x) = 0.32869 0.31022
# Poissons Ratio (y) = 0.51262 -0.07136
# Poissons Ratio (z) = 0.40667 -0.05998
#
# Static dielectric constant tensor:
#      x y z
#    x 1.849400 0.000000 0.109490 
#    y 0.000000 1.897210 0.000000 
#    z 0.109490 0.000000 1.730550 
# 
# From -- ./inp_files/305397.got.cif
#   From: 2010.05.17/outbox.cif.g08.bks.cpg/sg15_153_cif.got.tgz:305397.got - 2010.06.03 18:47:42.
