data_PCOD9306429
_publ_section_title
;
Structure prediction by ZEFSAII (Michael W. Deem and Ramdas Pophale) SiO2 
 PCOD9306429
Probable space group: C 2/C
;
_chemical_formula_sum "Si O2"
_cell_formula_units_Z 28
_cell_length_a 13.131894
_cell_length_b 5.522969
_cell_length_c 18.578777
_cell_angle_alpha 90.000000
_cell_angle_beta 126.527142
_cell_angle_gamma 90.000000
_cell_volume 1082.788187
_symmetry_space_group_name_H-M "C 2/C"
_symmetry_group_IT_number 15
_symmetry_cell_setting 'monoclinic'
loop_
_space_group_symop_operation_xyz
x,y,z
-x,y,1/2-z
-x,-y,-z
x,-y,1/2+z
1/2+x,1/2+y,z
1/2-x,1/2+y,1/2-z
1/2-x,1/2-y,-z
1/2+x,1/2-y,1/2+z
loop_
_atom_site_type_symbol
_atom_site_label
_atom_site_fract_x
_atom_site_fract_y
_atom_site_fract_z
Si Si1 0.500000 0.706407 0.250000
Si Si2 0.378647 0.155075 0.971958
Si Si3 0.708047 0.469535 0.268413
Si Si4 0.285508 0.047858 0.572544
O O1 0.561061 0.539264 0.214405
O O2 0.613235 0.869558 0.326817
O O3 0.343486 0.439531 0.947680
O O4 0.268101 0.048724 0.873741
O O5 0.500000 0.000000 0.000000
O O6 0.360967 0.130206 0.050166
O O7 0.730011 0.206672 0.242714
O O8 0.250000 0.250000 0.500000
#
# Coordination Sequence:
#
# PCOD9306429 Si02
#       4
#     4   8   8   8
#     4  12  26  50  80 106 168 198 276 340 402 484
#     4  11  26  46  76 110 161 202 271 334 406 488
#     4  12  28  47  76 116 153 213 269 327 414 482
#     4  11  25  48  74 115 149 215 264 336 410 477
#
# _framework density 25.859166999999999
#
# number of rings (size 3 to 8) (size 9 to 14) (size 15 to 20)
#    0.000    0.571    2.857    3.429    4.000    5.714 
#    0.000    0.000    0.000    0.000    0.000    0.000 
#    0.000    0.000    0.000    0.000    0.000    0.000 
#
# Total GULP energy -78191.111466 kJ/mol
# GULP energy per Si atom -5585.079390 kJ/mol
# Density = 2.580031 g / cm^3
# Si number density = 25.859167 Si / 1000 Ang^3
#
#
#
# Elastic Constant Matrix: (Units=GPa)
#
#
# Indices 1 2 3 4 5 6 
#
# 1 119.7210 57.4458 7.3658 0.0000 8.3796 0.0000
# 2 57.4458 153.2814 44.7036 0.0000 6.6912 0.0000
# 3 7.3658 44.7036 106.5551 0.0000 -2.1663 0.0000
# 4 0.0000 0.0000 0.0000 47.1772 0.0000 -11.5178
# 5 8.3796 6.6912 -2.1663 0.0000 40.8102 0.0000
# 6 0.0000 0.0000 0.0000 -11.5178 0.0000 55.7508
#
#
#
# Elastic Compliance Matrix: (Units=1/GPa)
#
#
# Indices 1 2 3 4 5 6 
#
# 1 0.010362 -0.004107 0.000978 0.000000 -0.001402 0.000000
# 2 -0.004107 0.009141 -0.003568 0.000000 -0.000845 0.000000
# 3 0.000978 -0.003568 0.010834 0.000000 0.000959 0.000000
# 4 0.000000 0.000000 0.000000 0.022323 0.000000 0.004612
# 5 -0.001402 -0.000845 0.000959 0.000000 0.024981 0.000000
# 6 0.000000 0.000000 0.000000 0.004612 0.000000 0.018890
#
#
# Mechanical properties :
#
#
# Convention : Reuss Voigt Hill
#
# Bulk Modulus (GPa) = 59.02560 66.50979 62.76769
# Shear Modulus (GPa) = 43.26356 46.75045 45.00700
#
# Velocity S-wave (km/s) = 4.09473 4.25654 4.17642
# Velocity P-wave (km/s) = 6.72540 7.06635 6.89798
#
# Compressibility (1/GPa) = 0.01694180
#
# Stress axis : x y z
#
# Youngs Moduli (GPa) = 96.51068 109.39978 92.30514
#
# Poissons Ratio (x) = 0.44935 -0.09031
# Poissons Ratio (y) = 0.39641 0.32936
# Poissons Ratio (z) = -0.09443 0.39035
#
# Static dielectric constant tensor:
#      x y z
#    x 2.120850 0.000000 -0.029610 
#    y 0.000000 2.336820 0.000000 
#    z -0.029610 0.000000 2.015060 
# 
# From -- ./inp_files/241194.got.cif
#   From: 2010.05.17/outbox.cif.g08.bks.cpg/sg15_121_cif.got.tgz:241194.got - 2010.06.03 18:47:42.
