data_PCOD9306789
_publ_section_title
;
Structure prediction by ZEFSAII (Michael W. Deem and Ramdas Pophale) SiO2 
 PCOD9306789
Probable space group: C 2/C
;
_chemical_formula_sum "Si O2"
_cell_formula_units_Z 56
_cell_length_a 12.122565
_cell_length_b 7.679241
_cell_length_c 30.846708
_cell_angle_alpha 90.000000
_cell_angle_beta 120.440763
_cell_angle_gamma 90.000000
_cell_volume 2475.746670
_symmetry_space_group_name_H-M "C 2/C"
_symmetry_group_IT_number 15
_symmetry_cell_setting 'monoclinic'
loop_
_space_group_symop_operation_xyz
x,y,z
-x,y,1/2-z
-x,-y,-z
x,-y,1/2+z
1/2+x,1/2+y,z
1/2-x,1/2+y,1/2-z
1/2-x,1/2-y,-z
1/2+x,1/2-y,1/2+z
loop_
_atom_site_type_symbol
_atom_site_label
_atom_site_fract_x
_atom_site_fract_y
_atom_site_fract_z
Si Si1 0.677051 0.850702 0.614292
Si Si2 0.950760 0.702875 0.690587
Si Si3 0.264037 0.122478 0.949258
Si Si4 0.959012 0.126669 0.531086
Si Si5 0.146774 0.320496 0.852851
Si Si6 0.619237 0.251465 0.191049
Si Si7 0.303390 0.361446 0.803941
O O1 0.822849 0.810730 0.656124
O O2 0.590092 0.690702 0.579434
O O3 0.614323 0.879374 0.649208
O O4 0.686497 0.990051 0.577551
O O5 0.911013 0.508403 0.669264
O O6 0.000000 0.707330 0.750000
O O7 0.065390 0.777505 0.684930
O O8 0.147791 0.050587 0.956375
O O9 0.202950 0.286331 0.911204
O O10 0.382935 0.201494 0.999201
O O11 0.000000 0.000000 0.500000
O O12 0.253989 0.283888 0.838887
O O13 0.023366 0.199064 0.823127
O O14 0.683787 0.431083 0.189338
O O15 0.698119 0.173624 0.246148
#
# Coordination Sequence:
#
# PCOD9306789 Si02
#       7
#     8   8   8   8   8   8   8
#     4  12  25  48  72 106 147 184 236 295 353 427
#     4  12  25  45  69 103 151 195 238 289 349 420
#     4  11  27  46  77 109 136 186 237 297 370 426
#     4  11  26  52  76 102 141 177 240 306 366 436
#     4  12  25  45  70 106 142 188 242 290 352 423
#     4  12  25  45  69 102 150 192 242 290 347 426
#     4  12  26  44  67 101 148 196 239 290 347 417
#
# _framework density 22.619437999999999
#
# number of rings (size 3 to 8) (size 9 to 14) (size 15 to 20)
#    0.000    0.286    4.286    4.286    4.000    1.714 
#    0.000    0.000    0.000    0.000    0.000    0.000 
#    0.000    0.000    0.000    0.000    0.000    0.000 
#
# Total GULP energy -156620.983850 kJ/mol
# GULP energy per Si atom -5593.606566 kJ/mol
# Density = 2.256796 g / cm^3
# Si number density = 22.619438 Si / 1000 Ang^3
#
#
#
# Elastic Constant Matrix: (Units=GPa)
#
#
# Indices 1 2 3 4 5 6 
#
# 1 143.7411 29.7707 20.8247 0.0000 -20.1046 0.0000
# 2 29.7707 42.6978 24.6113 0.0000 -11.7243 0.0000
# 3 20.8247 24.6113 73.8761 0.0000 -0.9566 0.0000
# 4 0.0000 0.0000 0.0000 29.6596 0.0000 -6.2357
# 5 -20.1046 -11.7243 -0.9566 0.0000 45.1793 0.0000
# 6 0.0000 0.0000 0.0000 -6.2357 0.0000 34.3757
#
#
#
# Elastic Compliance Matrix: (Units=1/GPa)
#
#
# Indices 1 2 3 4 5 6 
#
# 1 0.008395 -0.004733 -0.000758 0.000000 0.002492 0.000000
# 2 -0.004733 0.034295 -0.010006 0.000000 0.006582 0.000000
# 3 -0.000758 -0.010006 0.017050 0.000000 -0.002573 0.000000
# 4 0.000000 0.000000 0.000000 0.035053 0.000000 0.006359
# 5 0.002492 0.006582 -0.002573 0.000000 0.024896 0.000000
# 6 0.000000 0.000000 0.000000 0.006359 0.000000 0.030244
#
#
# Mechanical properties :
#
#
# Convention : Reuss Voigt Hill
#
# Bulk Modulus (GPa) = 34.78517 45.63648 40.21083
# Shear Modulus (GPa) = 26.24560 34.18347 30.21454
#
# Velocity S-wave (km/s) = 3.41003 3.89169 3.65879
# Velocity P-wave (km/s) = 5.56024 6.35714 5.97200
#
# Compressibility (1/GPa) = 0.02874788
#
# Stress axis : x y z
#
# Youngs Moduli (GPa) = 119.11232 29.15875 58.65182
#
# Poissons Ratio (x) = 0.13800 0.04443
# Poissons Ratio (y) = 0.56373 0.58686
# Poissons Ratio (z) = 0.09024 0.29176
#
# Static dielectric constant tensor:
#      x y z
#    x 1.931650 0.000000 0.007070 
#    y 0.000000 1.919240 0.000000 
#    z 0.007070 0.000000 1.811050 
# 
# From -- ./inp_files/310372.got.cif
#   From: 2010.05.17/outbox.cif.g08.bks.cpg/sg15_156_cif.got.tgz:310372.got - 2010.06.03 18:47:42.
