data_PCOD9306494
_publ_section_title
;
Structure prediction by ZEFSAII (Michael W. Deem and Ramdas Pophale) SiO2 
 PCOD9306494
Probable space group: C 2/C
;
_chemical_formula_sum "Si O2"
_cell_formula_units_Z 36
_cell_length_a 15.757773
_cell_length_b 7.102883
_cell_length_c 12.616711
_cell_angle_alpha 90.000000
_cell_angle_beta 117.797581
_cell_angle_gamma 90.000000
_cell_volume 1249.173946
_symmetry_space_group_name_H-M "C 2/C"
_symmetry_group_IT_number 15
_symmetry_cell_setting 'monoclinic'
loop_
_space_group_symop_operation_xyz
x,y,z
-x,y,1/2-z
-x,-y,-z
x,-y,1/2+z
1/2+x,1/2+y,z
1/2-x,1/2+y,1/2-z
1/2-x,1/2-y,-z
1/2+x,1/2-y,1/2+z
loop_
_atom_site_type_symbol
_atom_site_label
_atom_site_fract_x
_atom_site_fract_y
_atom_site_fract_z
Si Si1 0.292638 0.157637 0.285783
Si Si2 0.391847 0.230041 0.912658
Si Si3 0.426758 0.217383 0.614093
Si Si4 0.750000 0.750000 0.500000
Si Si5 0.609920 0.374406 0.351691
O O1 0.145225 0.471973 0.151601
O O2 0.289141 0.264309 0.395510
O O3 0.334407 0.271898 0.209612
O O4 0.387642 0.275983 0.033513
O O5 0.497512 0.750563 0.058659
O O6 0.319397 0.369415 0.810421
O O7 0.336156 0.915068 0.067430
O O8 0.500000 0.175316 0.750000
O O9 0.360074 0.405581 0.604047
O O10 0.500000 0.394814 0.250000
#
# Coordination Sequence:
#
# PCOD9306494 Si02
#       5
#     8   8   8   4   8
#     4  12  29  48  83 124 167 221 275 345 416 501
#     4  12  28  50  84 121 169 219 283 347 417 497
#     4  11  25  49  80 119 162 224 271 347 417 497
#     4  12  26  48  82 112 178 210 272 342 408 498
#     4  11  27  50  79 115 166 220 282 338 423 497
#
# _framework density 28.819044000000002
#
# number of rings (size 3 to 8) (size 9 to 14) (size 15 to 20)
#    0.000    0.444    2.222    4.000    9.333    4.444 
#    0.000    0.000    0.000    0.000    0.000    0.000 
#    0.000    0.000    0.000    0.000    0.000    0.000 
#
# Total GULP energy -100612.157749 kJ/mol
# GULP energy per Si atom -5589.564319 kJ/mol
# Density = 2.875345 g / cm^3
# Si number density = 28.819044 Si / 1000 Ang^3
#
#
#
# Elastic Constant Matrix: (Units=GPa)
#
#
# Indices 1 2 3 4 5 6 
#
# 1 269.8609 75.9585 110.3790 0.0000 -6.1492 0.0000
# 2 75.9585 143.2202 54.9734 0.0000 -23.0398 0.0000
# 3 110.3790 54.9734 202.8406 0.0000 -10.5762 0.0000
# 4 0.0000 0.0000 0.0000 41.1277 0.0000 -11.9328
# 5 -6.1492 -23.0398 -10.5762 0.0000 99.5663 0.0000
# 6 0.0000 0.0000 0.0000 -11.9328 0.0000 22.1135
#
#
#
# Elastic Compliance Matrix: (Units=1/GPa)
#
#
# Indices 1 2 3 4 5 6 
#
# 1 0.005187 -0.001919 -0.002322 0.000000 -0.000370 0.000000
# 2 -0.001919 0.008761 -0.001237 0.000000 0.001777 0.000000
# 3 -0.002322 -0.001237 0.006543 0.000000 0.000265 0.000000
# 4 0.000000 0.000000 0.000000 0.028828 0.000000 0.015556
# 5 -0.000370 0.001777 0.000265 0.000000 0.010460 0.000000
# 6 0.000000 0.000000 0.000000 0.015556 0.000000 0.053616
#
#
# Mechanical properties :
#
#
# Convention : Reuss Voigt Hill
#
# Bulk Modulus (GPa) = 104.88952 122.06040 113.47496
# Shear Modulus (GPa) = 39.20671 57.53553 48.37112
#
# Velocity S-wave (km/s) = 3.69242 4.47300 4.10133
# Velocity P-wave (km/s) = 7.39280 8.31403 7.86691
#
# Compressibility (1/GPa) = 0.00953384
#
# Stress axis : x y z
#
# Youngs Moduli (GPa) = 192.78625 114.14120 152.84575
#
# Poissons Ratio (x) = 0.21909 0.35487
# Poissons Ratio (y) = 0.37004 0.18911
# Poissons Ratio (z) = 0.44760 0.14122
#
# Static dielectric constant tensor:
#      x y z
#    x 2.351320 0.000000 0.455450 
#    y 0.000000 2.503670 0.000000 
#    z 0.455450 0.000000 3.251610 
# 
# From -- ./inp_files/275522.got.cif
#   From: 2010.05.17/outbox.cif.g08.bks.cpg/sg15_138_cif.got.tgz:275522.got - 2010.06.03 18:47:42.
