data_PCOD9306422
_publ_section_title
;
Structure prediction by ZEFSAII (Michael W. Deem and Ramdas Pophale) SiO2 
 PCOD9306422
Probable space group: C 2/C
;
_chemical_formula_sum "Si O2"
_cell_formula_units_Z 64
_cell_length_a 14.751782
_cell_length_b 14.353558
_cell_length_c 15.023616
_cell_angle_alpha 90.000000
_cell_angle_beta 129.493939
_cell_angle_gamma 90.000000
_cell_volume 2454.835820
_symmetry_space_group_name_H-M "C 2/C"
_symmetry_group_IT_number 15
_symmetry_cell_setting 'monoclinic'
loop_
_space_group_symop_operation_xyz
x,y,z
-x,y,1/2-z
-x,-y,-z
x,-y,1/2+z
1/2+x,1/2+y,z
1/2-x,1/2+y,1/2-z
1/2-x,1/2-y,-z
1/2+x,1/2-y,1/2+z
loop_
_atom_site_type_symbol
_atom_site_label
_atom_site_fract_x
_atom_site_fract_y
_atom_site_fract_z
Si Si1 0.801003 0.902030 0.568290
Si Si2 0.044941 0.842737 0.377911
Si Si3 0.013317 0.654546 0.467502
Si Si4 0.637800 0.499737 0.208124
Si Si5 0.709266 0.142855 0.270752
Si Si6 0.692654 0.169445 0.723558
Si Si7 0.383776 0.212802 0.633139
Si Si8 0.797775 0.583887 0.048581
O O1 0.683248 0.839410 0.486719
O O2 0.897771 0.821268 0.614098
O O3 0.839936 0.958340 0.679730
O O4 0.761233 0.982822 0.477073
O O5 0.981394 0.939745 0.367779
O O6 0.000000 0.824460 0.250000
O O7 0.015950 0.757760 0.425356
O O8 0.184829 0.852254 0.460213
O O9 0.064493 0.659298 0.598738
O O10 0.107557 0.593212 0.470142
O O11 0.882710 0.619076 0.364763
O O12 0.668018 0.587471 0.164736
O O13 0.737340 0.425112 0.245062
O O14 0.741673 0.250531 0.290618
O O15 0.649430 0.114100 0.324921
O O16 0.694899 0.206086 0.825816
O O17 0.500000 0.171706 0.750000
#
# Coordination Sequence:
#
# PCOD9306422 Si02
#       8
#     8   8   8   8   8   8   8   8
#     4  11  25  48  73 108 152 194 252 310 369 462
#     4  12  23  42  75 109 151 194 242 312 383 456
#     4  12  26  45  78 109 154 195 244 324 392 447
#     4  12  26  47  74 110 152 199 253 312 383 450
#     4  12  27  46  72 110 155 196 257 314 378 462
#     4  12  25  48  72 111 148 195 255 312 381 453
#     4  11  28  49  78 105 151 205 256 308 378 449
#     4  12  25  45  75 112 148 193 254 307 387 456
#
# _framework density 26.070989999999998
#
# number of rings (size 3 to 8) (size 9 to 14) (size 15 to 20)
#    0.000    0.250    6.250    2.250    3.500    3.000 
#    2.250    0.000    0.000    0.000    0.000    0.000 
#    0.000    0.000    0.000    0.000    0.000    0.000 
#
# Total GULP energy -179106.822620 kJ/mol
# GULP energy per Si atom -5597.088207 kJ/mol
# Density = 2.601165 g / cm^3
# Si number density = 26.070990 Si / 1000 Ang^3
#
#
#
# Elastic Constant Matrix: (Units=GPa)
#
#
# Indices 1 2 3 4 5 6 
#
# 1 53.1943 3.6144 27.4812 0.0000 -1.3569 0.0000
# 2 3.6144 105.6069 9.2555 0.0000 -2.4270 0.0000
# 3 27.4812 9.2555 142.5642 0.0000 2.6991 0.0000
# 4 0.0000 0.0000 0.0000 39.5859 0.0000 -3.3963
# 5 -1.3569 -2.4270 2.6991 0.0000 45.8246 0.0000
# 6 0.0000 0.0000 0.0000 -3.3963 0.0000 26.6621
#
#
#
# Elastic Compliance Matrix: (Units=1/GPa)
#
#
# Indices 1 2 3 4 5 6 
#
# 1 0.020924 -0.000344 -0.004027 0.000000 0.000839 0.000000
# 2 -0.000344 0.009542 -0.000563 0.000000 0.000528 0.000000
# 3 -0.004027 -0.000563 0.007839 0.000000 -0.000611 0.000000
# 4 0.000000 0.000000 0.000000 0.025541 0.000000 0.003253
# 5 0.000839 0.000528 -0.000611 0.000000 0.021911 0.000000
# 6 0.000000 0.000000 0.000000 0.003253 0.000000 0.037921
#
#
# Mechanical properties :
#
#
# Convention : Reuss Voigt Hill
#
# Bulk Modulus (GPa) = 35.16536 42.45196 38.80866
# Shear Modulus (GPa) = 34.95886 39.81547 37.38716
#
# Velocity S-wave (km/s) = 3.66582 3.91217 3.79100
# Velocity P-wave (km/s) = 5.60671 6.06015 5.83783
#
# Compressibility (1/GPa) = 0.02843708
#
# Stress axis : x y z
#
# Youngs Moduli (GPa) = 47.79156 104.79592 127.57110
#
# Poissons Ratio (x) = 0.03604 0.51373
# Poissons Ratio (y) = 0.01644 0.07185
# Poissons Ratio (z) = 0.19246 0.05902
#
# Static dielectric constant tensor:
#      x y z
#    x 2.083550 0.000000 -0.003260 
#    y 0.000000 2.045070 0.000000 
#    z -0.003260 0.000000 2.022760 
# 
# From -- ./inp_files/211403.got.cif
#   From: 2010.05.17/outbox.cif.g08.bks.cpg/sg15_106_cif.got.tgz:211403.got - 2010.06.03 18:47:42.
