data_PCOD9306405
_publ_section_title
;
Structure prediction by ZEFSAII (Michael W. Deem and Ramdas Pophale) SiO2 
 PCOD9306405
Probable space group: C 2/C
;
_chemical_formula_sum "Si O2"
_cell_formula_units_Z 44
_cell_length_a 21.310396
_cell_length_b 9.614625
_cell_length_c 9.945268
_cell_angle_alpha 90.000000
_cell_angle_beta 122.316476
_cell_angle_gamma 90.000000
_cell_volume 1722.077314
_symmetry_space_group_name_H-M "C 2/C"
_symmetry_group_IT_number 15
_symmetry_cell_setting 'monoclinic'
loop_
_space_group_symop_operation_xyz
x,y,z
-x,y,1/2-z
-x,-y,-z
x,-y,1/2+z
1/2+x,1/2+y,z
1/2-x,1/2+y,1/2-z
1/2-x,1/2-y,-z
1/2+x,1/2-y,1/2+z
loop_
_atom_site_type_symbol
_atom_site_label
_atom_site_fract_x
_atom_site_fract_y
_atom_site_fract_z
Si Si1 0.000000 0.900160 0.750000
Si Si2 0.599248 0.927449 0.935259
Si Si3 0.878859 0.770438 0.796364
Si Si4 0.276776 0.020966 0.589406
Si Si5 0.871289 0.959166 0.432744
Si Si6 0.393494 0.847915 0.852103
O O1 0.054227 0.804145 0.725889
O O2 0.051007 0.991422 0.905502
O O3 0.687896 0.954424 0.004300
O O4 0.570707 0.889166 0.752293
O O5 0.593641 0.805907 0.036779
O O6 0.573278 0.065333 0.985064
O O7 0.849013 0.919085 0.807614
O O8 0.821165 0.664697 0.663567
O O9 0.310893 0.909962 0.734523
O O10 0.192235 0.047180 0.527180
O O11 0.885731 0.813230 0.375410
#
# Coordination Sequence:
#
# PCOD9306405 Si02
#       6
#     4   8   8   8   8   8
#     4  12  30  44  68 106 156 202 236 286 374 452
#     4   9  21  45  72 110 146 179 245 303 367 422
#     4  11  25  48  71 106 146 192 247 302 360 440
#     4   9  22  45  80 106 139 183 248 312 363 414
#     4  12  25  45  76 108 149 192 241 302 367 439
#     4   9  21  43  73 110 142 184 238 306 361 422
#
# _framework density 25.550538
#
# number of rings (size 3 to 8) (size 9 to 14) (size 15 to 20)
#    1.091    0.727    0.000    2.727    2.545    6.545 
#    0.000    8.182    0.000    0.000    0.000    0.000 
#    0.000    0.000    0.000    0.000    0.000    0.000 
#
# Total GULP energy -123029.551244 kJ/mol
# GULP energy per Si atom -5592.252329 kJ/mol
# Density = 2.549238 g / cm^3
# Si number density = 25.550538 Si / 1000 Ang^3
#
#
#
# Elastic Constant Matrix: (Units=GPa)
#
#
# Indices 1 2 3 4 5 6 
#
# 1 134.6620 16.7044 25.4576 0.0000 -17.9341 0.0000
# 2 16.7044 121.3580 -14.6829 0.0000 -9.5197 0.0000
# 3 25.4576 -14.6829 39.7845 0.0000 -15.3330 0.0000
# 4 0.0000 0.0000 0.0000 9.4583 0.0000 -5.3839
# 5 -17.9341 -9.5197 -15.3330 0.0000 52.1601 0.0000
# 6 0.0000 0.0000 0.0000 -5.3839 0.0000 26.3683
#
#
#
# Elastic Compliance Matrix: (Units=1/GPa)
#
#
# Indices 1 2 3 4 5 6 
#
# 1 0.008929 -0.001886 -0.006044 0.000000 0.000949 0.000000
# 2 -0.001886 0.009411 0.005742 0.000000 0.002757 0.000000
# 3 -0.006044 0.005742 0.034651 0.000000 0.009156 0.000000
# 4 0.000000 0.000000 0.000000 0.119631 0.000000 0.024426
# 5 0.000949 0.002757 0.009156 0.000000 0.022693 0.000000
# 6 0.000000 0.000000 0.000000 0.024426 0.000000 0.042912
#
#
# Mechanical properties :
#
#
# Convention : Reuss Voigt Hill
#
# Bulk Modulus (GPa) = 20.56923 38.97365 29.77144
# Shear Modulus (GPa) = 19.31958 35.48573 27.40265
#
# Velocity S-wave (km/s) = 2.75277 3.73076 3.27844
# Velocity P-wave (km/s) = 4.26281 5.81763 5.09982
#
# Compressibility (1/GPa) = 0.04861631
#
# Stress axis : x y z
#
# Youngs Moduli (GPa) = 111.99630 106.26209 28.85952
#
# Poissons Ratio (x) = 0.20038 0.17441
# Poissons Ratio (y) = 0.21120 -0.16572
# Poissons Ratio (z) = 0.67686 -0.61020
#
# Static dielectric constant tensor:
#      x y z
#    x 2.018170 0.000000 0.021450 
#    y 0.000000 1.946490 0.000000 
#    z 0.021450 0.000000 2.047430 
# 
# From -- ./inp_files/117021.got.cif
#   From: 2010.05.17/outbox.cif.g08.bks.cpg/sg15_59_cif.got.tgz:117021.got - 2010.06.03 18:47:42.
