data_PCOD9306981
_publ_section_title
;
Structure prediction by ZEFSAII (Michael W. Deem and Ramdas Pophale) SiO2 
 PCOD9306981
Probable space group: C 2/C
;
_chemical_formula_sum "Si O2"
_cell_formula_units_Z 36
_cell_length_a 7.713836
_cell_length_b 20.507888
_cell_length_c 12.033060
_cell_angle_alpha 90.000000
_cell_angle_beta 67.686552
_cell_angle_gamma 90.000000
_cell_volume 1761.026074
_symmetry_space_group_name_H-M "C 2/C"
_symmetry_group_IT_number 15
_symmetry_cell_setting 'monoclinic'
loop_
_space_group_symop_operation_xyz
x,y,z
-x,y,1/2-z
-x,-y,-z
x,-y,1/2+z
1/2+x,1/2+y,z
1/2-x,1/2+y,1/2-z
1/2-x,1/2-y,-z
1/2+x,1/2-y,1/2+z
loop_
_atom_site_type_symbol
_atom_site_label
_atom_site_fract_x
_atom_site_fract_y
_atom_site_fract_z
Si Si1 0.177576 0.279587 0.898286
Si Si2 0.281003 0.172419 0.522227
Si Si3 0.477397 0.423227 0.993938
Si Si4 0.500000 0.366231 0.750000
Si Si5 0.277071 0.848357 0.279796
O O1 0.327262 0.316707 0.786458
O O2 0.145443 0.213123 0.841396
O O3 0.250000 0.250000 0.000000
O O4 0.005386 0.327796 0.953274
O O5 0.250000 0.250000 0.500000
O O6 0.155307 0.122954 0.481612
O O7 0.252358 0.147006 0.654698
O O8 0.451344 0.407028 0.870695
O O9 0.500000 0.500000 0.000000
O O10 0.306719 0.402356 0.116991
O O11 0.500000 0.837394 0.250000
#
# Coordination Sequence:
#
# PCOD9306981 Si02
#       5
#     8   8   8   4   8
#     4  12  20  41  71 110 138 177 235 301 374 424
#     4  12  24  42  74 108 139 185 247 302 363 436
#     4  12  29  47  67 104 145 199 245 300 366 449
#     4  12  24  46  68  94 148 180 232 304 360 434
#     4  12  23  44  72 103 146 186 236 306 374 435
#
# _framework density 20.442626000000001
#
# number of rings (size 3 to 8) (size 9 to 14) (size 15 to 20)
#    0.000    0.000    7.778    2.000    3.111    2.667 
#    4.000    2.222    0.000    0.000    0.000    0.000 
#    0.000    0.000    0.000    0.000    0.000    0.000 
#
# Total GULP energy -100322.432427 kJ/mol
# GULP energy per Si atom -5573.468468 kJ/mol
# Density = 2.039610 g / cm^3
# Si number density = 20.442626 Si / 1000 Ang^3
#
#
#
# Elastic Constant Matrix: (Units=GPa)
#
#
# Indices 1 2 3 4 5 6 
#
# 1 73.7971 21.3971 22.5745 0.0000 -13.1137 0.0000
# 2 21.3971 133.7117 33.9978 0.0000 -10.6141 0.0000
# 3 22.5745 33.9978 118.4091 0.0000 -14.7170 0.0000
# 4 0.0000 0.0000 0.0000 7.0064 0.0000 -3.0017
# 5 -13.1137 -10.6141 -14.7170 0.0000 43.3921 0.0000
# 6 0.0000 0.0000 0.0000 -3.0017 0.0000 23.5308
#
#
#
# Elastic Compliance Matrix: (Units=1/GPa)
#
#
# Indices 1 2 3 4 5 6 
#
# 1 0.015269 -0.001655 -0.001997 0.000000 0.003532 0.000000
# 2 -0.001655 0.008312 -0.001963 0.000000 0.000867 0.000000
# 3 -0.001997 -0.001963 0.009662 0.000000 0.002193 0.000000
# 4 0.000000 0.000000 0.000000 0.150977 0.000000 0.019260
# 5 0.003532 0.000867 0.002193 0.000000 0.025069 0.000000
# 6 0.000000 0.000000 0.000000 0.019260 0.000000 0.044954
#
#
# Mechanical properties :
#
#
# Convention : Reuss Voigt Hill
#
# Bulk Modulus (GPa) = 45.42832 53.53964 49.48398
# Shear Modulus (GPa) = 18.32767 31.31577 24.82172
#
# Velocity S-wave (km/s) = 2.99748 3.91818 3.48834
# Velocity P-wave (km/s) = 5.85239 6.83495 6.36266
#
# Compressibility (1/GPa) = 0.02201270
#
# Stress axis : x y z
#
# Youngs Moduli (GPa) = 65.49166 120.31319 103.49567
#
# Poissons Ratio (x) = 0.19916 0.20665
# Poissons Ratio (y) = 0.10841 0.20317
# Poissons Ratio (z) = 0.13077 0.23619
#
# Static dielectric constant tensor:
#      x y z
#    x 1.787780 0.000000 0.004630 
#    y 0.000000 2.297370 0.000000 
#    z 0.004630 0.000000 1.859010 
# 
# From -- ./inp_files/76570.got.cif
#   From: 2010.05.17/outbox.cif.g08.bks.cpg/sg15_39_cif.got.tgz:76570.got - 2010.06.03 18:47:42.
