data_PCOD9306368
_publ_section_title
;
Structure prediction by ZEFSAII (Michael W. Deem and Ramdas Pophale) SiO2 
 PCOD9306368
Probable space group: C 2/C
;
_chemical_formula_sum "Si O2"
_cell_formula_units_Z 44
_cell_length_a 21.422828
_cell_length_b 15.810980
_cell_length_c 7.088376
_cell_angle_alpha 90.000000
_cell_angle_beta 50.273282
_cell_angle_gamma 90.000000
_cell_volume 1846.571181
_symmetry_space_group_name_H-M "C 2/C"
_symmetry_group_IT_number 15
_symmetry_cell_setting 'monoclinic'
loop_
_space_group_symop_operation_xyz
x,y,z
-x,y,1/2-z
-x,-y,-z
x,-y,1/2+z
1/2+x,1/2+y,z
1/2-x,1/2+y,1/2-z
1/2-x,1/2-y,-z
1/2+x,1/2-y,1/2+z
loop_
_atom_site_type_symbol
_atom_site_label
_atom_site_fract_x
_atom_site_fract_y
_atom_site_fract_z
Si Si1 0.000000 0.809651 0.750000
Si Si2 0.284596 0.996622 0.659658
Si Si3 0.094920 0.479514 0.320566
Si Si4 0.561208 0.792544 0.465375
Si Si5 0.708752 0.684867 0.331992
Si Si6 0.321195 0.661758 0.667163
O O1 0.995167 0.748890 0.581245
O O2 0.086071 0.855703 0.569907
O O3 0.387522 0.997847 0.461888
O O4 0.232559 0.081520 0.780180
O O5 0.307951 0.013986 0.364596
O O6 0.236154 0.909027 0.725213
O O7 0.101802 0.377786 0.315351
O O8 0.000000 0.500000 0.500000
O O9 0.628961 0.724841 0.392787
O O10 0.500000 0.816028 0.750000
O O11 0.686153 0.678457 0.596101
O O12 0.781704 0.752284 0.160229
#
# Coordination Sequence:
#
# PCOD9306368 Si02
#       6
#     4   8   8   8   8   8
#     4  12  28  44  78 106 140 198 256 298 366 438
#     4  12  25  47  71 107 146 197 249 299 373 445
#     4  12  27  42  71 109 150 189 240 306 377 444
#     4  12  26  48  73 110 148 192 243 310 367 438
#     4  11  25  47  75  99 151 198 240 307 377 435
#     4  11  25  48  71 108 146 197 253 304 365 451
#
# _framework density 23.827947999999999
#
# number of rings (size 3 to 8) (size 9 to 14) (size 15 to 20)
#    0.000    0.364    5.455    2.727    7.636    1.455 
#    1.636    1.818    0.000    0.000    0.000    0.000 
#    0.000    0.000    0.000    0.000    0.000    0.000 
#
# Total GULP energy -122911.778213 kJ/mol
# GULP energy per Si atom -5586.899010 kJ/mol
# Density = 2.377371 g / cm^3
# Si number density = 23.827948 Si / 1000 Ang^3
#
#
#
# Elastic Constant Matrix: (Units=GPa)
#
#
# Indices 1 2 3 4 5 6 
#
# 1 156.1687 56.2947 33.9406 0.0000 -1.0275 0.0000
# 2 56.2947 157.0340 33.0378 0.0000 -17.5308 0.0000
# 3 33.9406 33.0378 159.3755 0.0000 -6.7460 0.0000
# 4 0.0000 0.0000 0.0000 43.8037 0.0000 0.8740
# 5 -1.0275 -17.5308 -6.7460 0.0000 50.5183 0.0000
# 6 0.0000 0.0000 0.0000 0.8740 0.0000 9.5866
#
#
#
# Elastic Compliance Matrix: (Units=1/GPa)
#
#
# Indices 1 2 3 4 5 6 
#
# 1 0.007569 -0.002578 -0.001115 0.000000 -0.000890 0.000000
# 2 -0.002578 0.007774 -0.000956 0.000000 0.002518 0.000000
# 3 -0.001115 -0.000956 0.006733 0.000000 0.000545 0.000000
# 4 0.000000 0.000000 0.000000 0.022871 0.000000 -0.002085
# 5 -0.000890 0.002518 0.000545 0.000000 0.020723 0.000000
# 6 0.000000 0.000000 0.000000 -0.002085 0.000000 0.104502
#
#
# Mechanical properties :
#
#
# Convention : Reuss Voigt Hill
#
# Bulk Modulus (GPa) = 78.25788 79.90271 79.08029
# Shear Modulus (GPa) = 27.21366 44.06872 35.64119
#
# Velocity S-wave (km/s) = 3.38315 4.30519 3.87172
# Velocity P-wave (km/s) = 6.94083 7.63668 7.29706
#
# Compressibility (1/GPa) = 0.01277827
#
# Stress axis : x y z
#
# Youngs Moduli (GPa) = 132.11435 128.62572 148.51778
#
# Poissons Ratio (x) = 0.33162 0.16562
# Poissons Ratio (y) = 0.34061 0.14198
# Poissons Ratio (z) = 0.14733 0.12297
#
# Static dielectric constant tensor:
#      x y z
#    x 2.370360 0.000000 0.383610 
#    y 0.000000 1.777810 0.000000 
#    z 0.383610 0.000000 2.547550 
# 
# From -- ./inp_files/66090.got.cif
#   From: 2010.05.17/outbox.cif.g08.bks.cpg/sg15_34_cif.got.tgz:66090.got - 2010.06.03 18:47:42.
