data_PCOD9306677
_publ_section_title
;
Structure prediction by ZEFSAII (Michael W. Deem and Ramdas Pophale) SiO2 
 PCOD9306677
Probable space group: C 2/C
;
_chemical_formula_sum "Si O2"
_cell_formula_units_Z 56
_cell_length_a 25.696530
_cell_length_b 5.107917
_cell_length_c 17.294616
_cell_angle_alpha 90.000000
_cell_angle_beta 75.520533
_cell_angle_gamma 90.000000
_cell_volume 2197.915788
_symmetry_space_group_name_H-M "C 2/C"
_symmetry_group_IT_number 15
_symmetry_cell_setting 'monoclinic'
loop_
_space_group_symop_operation_xyz
x,y,z
-x,y,1/2-z
-x,-y,-z
x,-y,1/2+z
1/2+x,1/2+y,z
1/2-x,1/2+y,1/2-z
1/2-x,1/2-y,-z
1/2+x,1/2-y,1/2+z
loop_
_atom_site_type_symbol
_atom_site_label
_atom_site_fract_x
_atom_site_fract_y
_atom_site_fract_z
Si Si1 0.292080 0.013651 0.899138
Si Si2 0.884915 0.300822 0.266595
Si Si3 0.529338 0.695043 0.547027
Si Si4 0.249279 0.349015 0.303980
Si Si5 0.582731 0.944790 0.905111
Si Si6 0.439877 0.307666 0.302128
Si Si7 0.681850 0.182486 0.442589
O O1 0.326524 0.182866 0.826250
O O2 0.229920 0.105385 0.929871
O O3 0.291225 0.735581 0.855925
O O4 0.318618 0.047786 0.972961
O O5 0.892180 0.412802 0.178155
O O6 0.919017 0.511233 0.304567
O O7 0.905977 0.007380 0.263250
O O8 0.500000 0.500000 0.500000
O O9 0.569362 0.867297 0.481753
O O10 0.559952 0.589086 0.610045
O O11 0.476986 0.853346 0.597335
O O12 0.262275 0.574290 0.236225
O O13 0.297716 0.971463 0.127378
O O14 0.624528 0.736770 0.927373
O O15 0.500000 0.322044 0.250000
#
# Coordination Sequence:
#
# PCOD9306677 Si02
#       7
#     8   8   8   8   8   8   8
#     4  11  27  49  79 111 156 208 261 314 387 468
#     4  12  28  48  80 114 151 201 256 314 386 457
#     4  11  26  47  78 111 156 198 259 317 395 461
#     4  12  25  48  76 108 150 201 255 318 379 453
#     4  11  26  48  76 117 152 205 256 324 388 462
#     4  12  26  49  78 110 152 197 252 316 381 458
#     4  11  26  50  76 112 159 204 263 319 388 462
#
# _framework density 25.478684999999999
#
# number of rings (size 3 to 8) (size 9 to 14) (size 15 to 20)
#    0.000    0.571    2.857    3.429    8.000    1.143 
#    2.571    0.000    0.000    0.000    0.000    0.000 
#    0.000    0.000    0.000    0.000    0.000    0.000 
#
# Total GULP energy -156653.111477 kJ/mol
# GULP energy per Si atom -5594.753981 kJ/mol
# Density = 2.542069 g / cm^3
# Si number density = 25.478685 Si / 1000 Ang^3
#
#
#
# Elastic Constant Matrix: (Units=GPa)
#
#
# Indices 1 2 3 4 5 6 
#
# 1 69.7867 -1.1016 19.7029 0.0000 5.9343 0.0000
# 2 -1.1016 76.9434 4.0544 0.0000 -5.7781 0.0000
# 3 19.7029 4.0544 147.3345 0.0000 19.2253 0.0000
# 4 0.0000 0.0000 0.0000 30.8408 0.0000 10.3089
# 5 5.9343 -5.7781 19.2253 0.0000 36.5339 0.0000
# 6 0.0000 0.0000 0.0000 10.3089 0.0000 55.3999
#
#
#
# Elastic Compliance Matrix: (Units=1/GPa)
#
#
# Indices 1 2 3 4 5 6 
#
# 1 0.014969 0.000202 -0.001819 0.000000 -0.001442 0.000000
# 2 0.000202 0.013219 -0.000708 0.000000 0.002430 0.000000
# 3 -0.001819 -0.000708 0.007544 0.000000 -0.003786 0.000000
# 4 0.000000 0.000000 0.000000 0.034575 0.000000 -0.006434
# 5 -0.001442 0.002430 -0.003786 0.000000 0.029983 0.000000
# 6 0.000000 0.000000 0.000000 -0.006434 0.000000 0.019248
#
#
# Mechanical properties :
#
#
# Convention : Reuss Voigt Hill
#
# Bulk Modulus (GPa) = 32.17314 37.70845 34.94079
# Shear Modulus (GPa) = 37.16115 42.64886 39.90500
#
# Velocity S-wave (km/s) = 3.82320 4.09577 3.96183
# Velocity P-wave (km/s) = 5.66957 6.09912 5.88826
#
# Compressibility (1/GPa) = 0.03108183
#
# Stress axis : x y z
#
# Youngs Moduli (GPa) = 66.80562 75.64709 132.55381
#
# Poissons Ratio (x) = -0.01527 0.24113
# Poissons Ratio (y) = -0.01349 0.09384
# Poissons Ratio (z) = 0.12153 0.05355
#
# Static dielectric constant tensor:
#      x y z
#    x 2.126320 0.000000 0.011660 
#    y 0.000000 2.123920 0.000000 
#    z 0.011660 0.000000 2.002800 
# 
# From -- ./inp_files/221188.got.cif
#   From: 2010.05.17/outbox.cif.g08.bks.cpg/sg15_111_cif.got.tgz:221188.got - 2010.06.03 18:47:42.
