data_PCOD9306273
_publ_section_title
;
Structure prediction by ZEFSAII (Michael W. Deem and Ramdas Pophale) SiO2 
 PCOD9306273
Probable space group: C 2/C
;
_chemical_formula_sum "Si O2"
_cell_formula_units_Z 36
_cell_length_a 31.679595
_cell_length_b 9.045243
_cell_length_c 7.242013
_cell_angle_alpha 90.000000
_cell_angle_beta 47.218166
_cell_angle_gamma 90.000000
_cell_volume 1523.080378
_symmetry_space_group_name_H-M "C 2/C"
_symmetry_group_IT_number 15
_symmetry_cell_setting 'monoclinic'
loop_
_space_group_symop_operation_xyz
x,y,z
-x,y,1/2-z
-x,-y,-z
x,-y,1/2+z
1/2+x,1/2+y,z
1/2-x,1/2+y,1/2-z
1/2-x,1/2-y,-z
1/2+x,1/2-y,1/2+z
loop_
_atom_site_type_symbol
_atom_site_label
_atom_site_fract_x
_atom_site_fract_y
_atom_site_fract_z
Si Si1 0.605266 0.336171 0.390800
Si Si2 0.519167 0.833197 0.985744
Si Si3 0.186458 0.211980 0.964356
Si Si4 0.000000 0.926342 0.250000
Si Si5 0.706951 0.596142 0.310218
O O1 0.586065 0.196450 0.320595
O O2 0.627292 0.277747 0.524663
O O3 0.557148 0.468265 0.562843
O O4 0.656526 0.396009 0.111130
O O5 0.500000 0.804651 0.250000
O O6 0.500948 0.694116 0.913617
O O7 0.500000 0.000000 0.000000
O O8 0.231612 0.342255 0.814495
O O9 0.216650 0.077491 0.767433
O O10 0.185036 0.173916 0.187011
#
# Coordination Sequence:
#
# PCOD9306273 Si02
#       5
#     8   8   8   4   8
#     4  12  26  48  77 110 146 201 253 306 367 456
#     4  12  28  51  70 107 159 197 247 316 376 446
#     4  11  25  46  72 108 146 190 245 307 370 441
#     4  12  28  46  80 112 146 202 258 308 376 450
#     4  11  25  46  72 110 147 186 248 306 374 440
#
# _framework density 23.636310999999999
#
# number of rings (size 3 to 8) (size 9 to 14) (size 15 to 20)
#    0.000    0.444    4.444    2.667    3.111    0.000 
#    4.000    0.000    0.000    0.000    0.000    0.000 
#    0.000    0.000    0.000    0.000    0.000    0.000 
#
# Total GULP energy -100269.284451 kJ/mol
# GULP energy per Si atom -5570.515803 kJ/mol
# Density = 2.358251 g / cm^3
# Si number density = 23.636311 Si / 1000 Ang^3
#
#
#
# Elastic Constant Matrix: (Units=GPa)
#
#
# Indices 1 2 3 4 5 6 
#
# 1 180.8915 69.7596 45.3484 0.0000 11.6392 0.0000
# 2 69.7596 123.9557 29.2196 0.0000 -1.9345 0.0000
# 3 45.3484 29.2196 103.0250 0.0000 17.6770 0.0000
# 4 0.0000 0.0000 0.0000 16.9209 0.0000 -12.4053
# 5 11.6392 -1.9345 17.6770 0.0000 37.3909 0.0000
# 6 0.0000 0.0000 0.0000 -12.4053 0.0000 41.5160
#
#
#
# Elastic Compliance Matrix: (Units=1/GPa)
#
#
# Indices 1 2 3 4 5 6 
#
# 1 0.007611 -0.003842 -0.001981 0.000000 -0.001632 0.000000
# 2 -0.003842 0.010691 -0.001786 0.000000 0.002593 0.000000
# 3 -0.001981 -0.001786 0.011965 0.000000 -0.005133 0.000000
# 4 0.000000 0.000000 0.000000 0.075676 0.000000 0.022613
# 5 -0.001632 0.002593 -0.005133 0.000000 0.029813 0.000000
# 6 0.000000 0.000000 0.000000 0.022613 0.000000 0.030844
#
#
# Mechanical properties :
#
#
# Convention : Reuss Voigt Hill
#
# Bulk Modulus (GPa) = 66.44327 77.39194 71.91760
# Shear Modulus (GPa) = 26.76149 36.73521 31.74835
#
# Velocity S-wave (km/s) = 3.36850 3.94659 3.66895
# Velocity P-wave (km/s) = 6.58033 7.31993 6.95996
#
# Compressibility (1/GPa) = 0.01505043
#
# Stress axis : x y z
#
# Youngs Moduli (GPa) = 131.38217 93.53552 83.57437
#
# Poissons Ratio (x) = 0.35937 0.16553
# Poissons Ratio (y) = 0.50478 0.14926
# Poissons Ratio (z) = 0.26022 0.16705
#
# Static dielectric constant tensor:
#      x y z
#    x 3.221630 0.000000 -1.214960 
#    y 0.000000 2.077700 0.000000 
#    z -1.214960 0.000000 3.252370 
# 
# From -- ./inp_files/64484.got.cif
#   From: 2010.05.17/outbox.cif.g08.bks.cpg/sg15_33_cif.got.tgz:64484.got - 2010.06.03 18:47:42.
