data_PCOD9306312
_publ_section_title
;
Structure prediction by ZEFSAII (Michael W. Deem and Ramdas Pophale) SiO2 
 PCOD9306312
Probable space group: C 2/C
;
_chemical_formula_sum "Si O2"
_cell_formula_units_Z 44
_cell_length_a 20.644306
_cell_length_b 8.751154
_cell_length_c 11.133158
_cell_angle_alpha 90.000000
_cell_angle_beta 65.208153
_cell_angle_gamma 90.000000
_cell_volume 1825.962863
_symmetry_space_group_name_H-M "C 2/C"
_symmetry_group_IT_number 15
_symmetry_cell_setting 'monoclinic'
loop_
_space_group_symop_operation_xyz
x,y,z
-x,y,1/2-z
-x,-y,-z
x,-y,1/2+z
1/2+x,1/2+y,z
1/2-x,1/2+y,1/2-z
1/2-x,1/2-y,-z
1/2+x,1/2-y,1/2+z
loop_
_atom_site_type_symbol
_atom_site_label
_atom_site_fract_x
_atom_site_fract_y
_atom_site_fract_z
Si Si1 0.622376 0.768759 0.250406
Si Si2 0.622472 0.109425 0.017973
Si Si3 0.326155 0.281689 0.291381
Si Si4 0.960352 0.955551 0.155329
Si Si5 0.000000 0.492290 0.250000
Si Si6 0.240284 0.401412 0.863295
O O1 0.631381 0.816041 0.381886
O O2 0.581240 0.608898 0.275292
O O3 0.566272 0.892680 0.245467
O O4 0.702075 0.726384 0.141288
O O5 0.656878 0.218966 0.090641
O O6 0.539432 0.086833 0.115053
O O7 0.666891 0.950761 0.984446
O O8 0.402056 0.325088 0.173271
O O9 0.282010 0.438026 0.327447
O O10 0.285419 0.154616 0.247251
O O11 0.000000 0.913598 0.250000
O O12 0.000000 0.000000 0.000000
#
# Coordination Sequence:
#
# PCOD9306312 Si02
#       6
#     8   8   8   8   4   8
#     4  11  25  48  70 108 151 196 265 313 386 462
#     4  12  26  47  79 106 157 200 256 323 396 470
#     4  11  26  48  75 114 148 202 257 320 396 459
#     4  11  25  46  77 108 155 203 256 324 394 467
#     4  12  28  46  74 114 152 202 254 318 400 466
#     4  11  25  48  76 107 150 197 259 317 386 468
#
# _framework density 24.096876000000002
#
# number of rings (size 3 to 8) (size 9 to 14) (size 15 to 20)
#    0.000    0.727    2.727    3.273    6.364    0.727 
#    3.273    0.000    0.000    0.000    0.000    0.000 
#    0.000    0.000    0.000    0.000    0.000    0.000 
#
# Total GULP energy -122972.547306 kJ/mol
# GULP energy per Si atom -5589.661241 kJ/mol
# Density = 2.404203 g / cm^3
# Si number density = 24.096876 Si / 1000 Ang^3
#
#
#
# Elastic Constant Matrix: (Units=GPa)
#
#
# Indices 1 2 3 4 5 6 
#
# 1 136.3448 36.1858 71.3172 0.0000 -6.1183 0.0000
# 2 36.1858 66.6355 37.5172 0.0000 13.0790 0.0000
# 3 71.3172 37.5172 121.6645 0.0000 -25.5990 0.0000
# 4 0.0000 0.0000 0.0000 22.5674 0.0000 7.7731
# 5 -6.1183 13.0790 -25.5990 0.0000 47.8230 0.0000
# 6 0.0000 0.0000 0.0000 7.7731 0.0000 47.1550
#
#
#
# Elastic Compliance Matrix: (Units=1/GPa)
#
#
# Indices 1 2 3 4 5 6 
#
# 1 0.011046 -0.002422 -0.005963 0.000000 -0.001116 0.000000
# 2 -0.002422 0.022902 -0.007917 0.000000 -0.010811 0.000000
# 3 -0.005963 -0.007917 0.016285 0.000000 0.010120 0.000000
# 4 0.000000 0.000000 0.000000 0.046979 0.000000 -0.007744
# 5 -0.001116 -0.010811 0.010120 0.000000 0.029141 0.000000
# 6 0.000000 0.000000 0.000000 -0.007744 0.000000 0.022483
#
#
# Mechanical properties :
#
#
# Convention : Reuss Voigt Hill
#
# Bulk Modulus (GPa) = 56.72518 68.29837 62.51177
# Shear Modulus (GPa) = 26.69270 35.48405 31.08837
#
# Velocity S-wave (km/s) = 3.33186 3.84156 3.59575
# Velocity P-wave (km/s) = 6.19623 6.93408 6.57552
#
# Compressibility (1/GPa) = 0.01762886
#
# Stress axis : x y z
#
# Youngs Moduli (GPa) = 90.52970 43.66479 61.40519
#
# Poissons Ratio (x) = 0.10576 0.36616
# Poissons Ratio (y) = 0.21927 0.48615
# Poissons Ratio (z) = 0.53983 0.34570
#
# Static dielectric constant tensor:
#      x y z
#    x 2.027240 0.000000 0.040580 
#    y 0.000000 2.081810 0.000000 
#    z 0.040580 0.000000 1.984010 
# 
# From -- ./inp_files/109966.got.cif
#   From: 2010.05.17/outbox.cif.g08.bks.cpg/sg15_55_cif.got.tgz:109966.got - 2010.06.03 18:47:42.
