data_PCOD9306620
_publ_section_title
;
Structure prediction by ZEFSAII (Michael W. Deem and Ramdas Pophale) SiO2 
 PCOD9306620
Probable space group: C 2/C
;
_chemical_formula_sum "Si O2"
_cell_formula_units_Z 32
_cell_length_a 9.293744
_cell_length_b 18.378732
_cell_length_c 14.370308
_cell_angle_alpha 90.000000
_cell_angle_beta 145.777822
_cell_angle_gamma 90.000000
_cell_volume 1380.448875
_symmetry_space_group_name_H-M "C 2/C"
_symmetry_group_IT_number 15
_symmetry_cell_setting 'monoclinic'
loop_
_space_group_symop_operation_xyz
x,y,z
-x,y,1/2-z
-x,-y,-z
x,-y,1/2+z
1/2+x,1/2+y,z
1/2-x,1/2+y,1/2-z
1/2-x,1/2-y,-z
1/2+x,1/2-y,1/2+z
loop_
_atom_site_type_symbol
_atom_site_label
_atom_site_fract_x
_atom_site_fract_y
_atom_site_fract_z
Si Si1 0.876381 0.451729 0.585451
Si Si2 0.497126 0.801841 0.144360
Si Si3 0.724239 0.083388 0.101263
Si Si4 0.953876 0.813121 0.117807
O O1 0.746364 0.513412 0.450840
O O2 0.673561 0.386087 0.493665
O O3 0.000000 0.474686 0.750000
O O4 0.111341 0.429674 0.642693
O O5 0.500000 0.831480 0.250000
O O6 0.787388 0.776824 0.284174
O O7 0.250000 0.750000 0.000000
O O8 0.470931 0.865601 0.056298
O O9 0.000000 0.120406 0.250000
O O10 0.000000 0.830995 0.250000
O O11 0.750000 0.750000 0.000000
#
# Coordination Sequence:
#
# PCOD9306620 Si02
#       4
#     8   8   8   8
#     4  11  26  47  74 106 142 190 239 292 359 426
#     4  12  27  46  71 105 145 188 238 296 355 419
#     4  11  26  46  74 105 146 186 238 297 356 427
#     4  12  25  46  72 103 143 189 238 291 352 426
#
# _framework density 23.180865000000001
#
# number of rings (size 3 to 8) (size 9 to 14) (size 15 to 20)
#    0.000    0.500    2.500    4.500   10.500    1.000 
#    0.000    0.000    0.000    0.000    0.000    0.000 
#    0.000    0.000    0.000    0.000    0.000    0.000 
#
# Total GULP energy -89400.184411 kJ/mol
# GULP energy per Si atom -5587.511526 kJ/mol
# Density = 2.312810 g / cm^3
# Si number density = 23.180865 Si / 1000 Ang^3
#
#
#
# Elastic Constant Matrix: (Units=GPa)
#
#
# Indices 1 2 3 4 5 6 
#
# 1 138.5504 3.9813 57.0905 0.0015 -7.2228 0.0005
# 2 3.9813 69.6574 18.3183 0.0035 10.5699 0.0012
# 3 57.0905 18.3183 117.9911 0.0160 17.9321 0.0054
# 4 0.0015 0.0035 0.0160 22.1168 0.0035 5.7456
# 5 -7.2228 10.5699 17.9321 0.0035 63.7178 0.0010
# 6 0.0005 0.0012 0.0054 5.7456 0.0010 21.4125
#
#
#
# Elastic Compliance Matrix: (Units=1/GPa)
#
#
# Indices 1 2 3 4 5 6 
#
# 1 0.009376 0.000406 -0.004963 0.000002 0.002392 0.000000
# 2 0.000406 0.015211 -0.002279 0.000000 -0.001836 0.000000
# 3 -0.004963 -0.002279 0.011762 -0.000007 -0.003495 -0.000001
# 4 0.000002 0.000000 -0.000007 0.048602 0.000000 -0.013041
# 5 0.002392 -0.001836 -0.003495 0.000000 0.017253 0.000000
# 6 0.000000 0.000000 -0.000001 -0.013041 0.000000 0.050201
#
#
# Mechanical properties :
#
#
# Convention : Reuss Voigt Hill
#
# Bulk Modulus (GPa) = 44.09912 53.88657 48.99284
# Shear Modulus (GPa) = 28.79600 37.90336 33.34968
#
# Velocity S-wave (km/s) = 3.52835 4.04804 3.79710
# Velocity P-wave (km/s) = 5.97196 6.71904 6.35648
#
# Compressibility (1/GPa) = 0.02267619
#
# Stress axis : x y z
#
# Youngs Moduli (GPa) = 106.65880 65.74338 85.02276
#
# Poissons Ratio (x) = -0.02671 0.42198
# Poissons Ratio (y) = -0.04334 0.19377
# Poissons Ratio (z) = 0.52936 0.14983
#
# Static dielectric constant tensor:
#      x y z
#    x 1.865140 0.000010 -0.006600 
#    y 0.000010 1.982600 0.000000 
#    z -0.006600 0.000000 1.833220 
# 
# From -- ./inp_files/137671.got.cif
#   From: 2010.05.17/outbox.cif.g08.bks.cpg/sg15_69_cif.got.tgz:137671.got - 2010.06.03 18:47:42.
