data_PCOD9306271
_publ_section_title
;
Structure prediction by ZEFSAII (Michael W. Deem and Ramdas Pophale) SiO2 
 PCOD9306271
Probable space group: C 2/C
;
_chemical_formula_sum "Si O2"
_cell_formula_units_Z 32
_cell_length_a 8.689833
_cell_length_b 33.090906
_cell_length_c 5.378109
_cell_angle_alpha 90.000000
_cell_angle_beta 120.077426
_cell_angle_gamma 90.000000
_cell_volume 1338.261414
_symmetry_space_group_name_H-M "C 2/C"
_symmetry_group_IT_number 15
_symmetry_cell_setting 'monoclinic'
loop_
_space_group_symop_operation_xyz
x,y,z
-x,y,1/2-z
-x,-y,-z
x,-y,1/2+z
1/2+x,1/2+y,z
1/2-x,1/2+y,1/2-z
1/2-x,1/2-y,-z
1/2+x,1/2-y,1/2+z
loop_
_atom_site_type_symbol
_atom_site_label
_atom_site_fract_x
_atom_site_fract_y
_atom_site_fract_z
Si Si1 0.191732 0.611233 0.769833
Si Si2 0.214679 0.518986 0.887231
Si Si3 0.250954 0.776124 0.750080
Si Si4 0.500000 0.664470 0.250000
Si Si5 0.500000 0.162295 0.250000
O O1 0.243780 0.564379 0.814539
O O2 0.000000 0.613036 0.750000
O O3 0.151711 0.632834 0.476343
O O4 0.342132 0.636992 0.023560
O O5 0.282679 0.489977 0.720896
O O6 0.000000 0.513608 0.750000
O O7 0.250000 0.750000 0.500000
O O8 0.418049 0.806737 0.882719
O O9 0.080075 0.805117 0.611945
O O10 0.250000 0.750000 0.000000
#
# Coordination Sequence:
#
# PCOD9306271 Si02
#       5
#     8   8   8   4   4
#     4  11  25  46  72 107 149 189 245 304 360 437
#     4   9  20  38  67 102 142 192 238 288 359 432
#     4  12  27  48  73 106 143 190 246 302 369 445
#     4  12  26  50  76 108 142 198 242 302 376 434
#     4  12  26  46  72 104 148 188 240 310 364 426
#
# _framework density 23.911619999999999
#
# number of rings (size 3 to 8) (size 9 to 14) (size 15 to 20)
#    0.000    1.000    2.500    3.000    8.750    3.000 
#    0.000    1.250    0.000    0.000    0.000    0.000 
#    0.000    0.000    0.000    0.000    0.000    0.000 
#
# Total GULP energy -89548.820969 kJ/mol
# GULP energy per Si atom -5596.801311 kJ/mol
# Density = 2.385720 g / cm^3
# Si number density = 23.911620 Si / 1000 Ang^3
#
#
#
# Elastic Constant Matrix: (Units=GPa)
#
#
# Indices 1 2 3 4 5 6 
#
# 1 67.0503 49.8550 31.2769 0.0000 -2.8830 0.0000
# 2 49.8550 165.8723 78.4043 0.0000 -19.8792 0.0000
# 3 31.2769 78.4043 146.7526 0.0000 -15.8075 0.0000
# 4 0.0000 0.0000 0.0000 39.9476 0.0000 -12.3622
# 5 -2.8830 -19.8792 -15.8075 0.0000 41.1686 0.0000
# 6 0.0000 0.0000 0.0000 -12.3622 0.0000 36.6810
#
#
#
# Elastic Compliance Matrix: (Units=1/GPa)
#
#
# Indices 1 2 3 4 5 6 
#
# 1 0.019532 -0.005388 -0.001478 0.000000 -0.001801 0.000000
# 2 -0.005388 0.009773 -0.003761 0.000000 0.002898 0.000000
# 3 -0.001478 -0.003761 0.009317 0.000000 0.001658 0.000000
# 4 0.000000 0.000000 0.000000 0.027948 0.000000 0.009419
# 5 -0.001801 0.002898 0.001658 0.000000 0.026200 0.000000
# 6 0.000000 0.000000 0.000000 0.009419 0.000000 0.030436
#
#
# Mechanical properties :
#
#
# Convention : Reuss Voigt Hill
#
# Bulk Modulus (GPa) = 57.57605 77.63863 67.60734
# Shear Modulus (GPa) = 33.27773 38.23538 35.75656
#
# Velocity S-wave (km/s) = 3.73459 4.00312 3.87119
# Velocity P-wave (km/s) = 6.53661 7.34208 6.95102
#
# Compressibility (1/GPa) = 0.01736833
#
# Stress axis : x y z
#
# Youngs Moduli (GPa) = 51.19693 102.32131 107.32815
#
# Poissons Ratio (x) = 0.55129 0.15868
# Poissons Ratio (y) = 0.27584 0.40366
# Poissons Ratio (z) = 0.07569 0.38483
#
# Static dielectric constant tensor:
#      x y z
#    x 1.917660 0.000000 -0.047420 
#    y 0.000000 1.875900 0.000000 
#    z -0.047420 0.000000 1.890920 
# 
# From -- ./inp_files/2722.got.cif
#   From: 2010.05.17/outbox.cif.g08.bks.cpg/sg15_2_cif.got.tgz:2722.got - 2010.06.03 18:47:42.
