data_PCOD9306825
_publ_section_title
;
Structure prediction by ZEFSAII (Michael W. Deem and Ramdas Pophale) SiO2 
 PCOD9306825
Probable space group: C 2/C
;
_chemical_formula_sum "Si O2"
_cell_formula_units_Z 24
_cell_length_a 8.098996
_cell_length_b 26.092703
_cell_length_c 9.435127
_cell_angle_alpha 90.000000
_cell_angle_beta 32.986416
_cell_angle_gamma 90.000000
_cell_volume 1085.545864
_symmetry_space_group_name_H-M "C 2/C"
_symmetry_group_IT_number 15
_symmetry_cell_setting 'monoclinic'
loop_
_space_group_symop_operation_xyz
x,y,z
-x,y,1/2-z
-x,-y,-z
x,-y,1/2+z
1/2+x,1/2+y,z
1/2-x,1/2+y,1/2-z
1/2-x,1/2-y,-z
1/2+x,1/2-y,1/2+z
loop_
_atom_site_type_symbol
_atom_site_label
_atom_site_fract_x
_atom_site_fract_y
_atom_site_fract_z
Si Si1 0.500000 0.211349 0.750000
Si Si2 0.197716 0.351642 0.868411
Si Si3 0.500000 0.214836 0.250000
Si Si4 0.201612 0.968250 0.743635
O O1 0.442254 0.171516 0.660843
O O2 0.750000 0.250000 0.500000
O O3 0.500000 0.348590 0.750000
O O4 0.192107 0.409502 0.813042
O O5 0.167843 0.317132 0.751474
O O6 0.250000 0.250000 0.500000
O O7 0.000000 0.966190 0.750000
O O8 0.500000 0.000000 0.500000
O O9 0.000000 0.000000 0.000000
#
# Coordination Sequence:
#
# PCOD9306825 Si02
#       4
#     4   8   4   8
#     4  12  24  42  75 104 141 194 242 300 364 438
#     4  11  28  49  77 107 151 197 250 306 378 446
#     4  12  30  46  71 112 147 194 248 304 372 444
#     4  11  27  47  77 110 148 196 250 313 382 446
#
# _framework density 22.108694
#
# number of rings (size 3 to 8) (size 9 to 14) (size 15 to 20)
#    0.000    0.667    1.667    3.000   18.667    0.000 
#    0.000    0.000    0.000    0.000    0.000    0.000 
#    0.000    0.000    0.000    0.000    0.000    0.000 
#
# Total GULP energy -66952.482250 kJ/mol
# GULP energy per Si atom -5579.373521 kJ/mol
# Density = 2.205837 g / cm^3
# Si number density = 22.108694 Si / 1000 Ang^3
#
#
#
# Elastic Constant Matrix: (Units=GPa)
#
#
# Indices 1 2 3 4 5 6 
#
# 1 105.5386 69.5372 45.8117 0.0000 10.9314 0.0000
# 2 69.5372 253.5916 125.7846 0.0000 12.8197 0.0000
# 3 45.8117 125.7846 208.3780 0.0000 8.0415 0.0000
# 4 0.0000 0.0000 0.0000 31.1950 0.0000 10.6908
# 5 10.9314 12.8197 8.0415 0.0000 50.9979 0.0000
# 6 0.0000 0.0000 0.0000 10.6908 0.0000 49.6507
#
#
#
# Elastic Compliance Matrix: (Units=1/GPa)
#
#
# Indices 1 2 3 4 5 6 
#
# 1 0.011829 -0.002712 -0.000898 0.000000 -0.001712 0.000000
# 2 -0.002712 0.006290 -0.003182 0.000000 -0.000498 0.000000
# 3 -0.000898 -0.003182 0.006921 0.000000 -0.000099 0.000000
# 4 0.000000 0.000000 0.000000 0.034610 0.000000 -0.007452
# 5 -0.001712 -0.000498 -0.000099 0.000000 0.020117 0.000000
# 6 0.000000 0.000000 0.000000 -0.007452 0.000000 0.021745
#
#
# Mechanical properties :
#
#
# Convention : Reuss Voigt Hill
#
# Bulk Modulus (GPa) = 87.27623 116.64172 101.95897
# Shear Modulus (GPa) = 42.04739 48.12704 45.08722
#
# Velocity S-wave (km/s) = 4.36575 4.67072 4.52081
# Velocity P-wave (km/s) = 8.06069 9.05320 8.57132
#
# Compressibility (1/GPa) = 0.01145787
#
# Stress axis : x y z
#
# Youngs Moduli (GPa) = 84.53840 158.97559 144.49498
#
# Poissons Ratio (x) = 0.43112 0.12969
# Poissons Ratio (y) = 0.22926 0.45973
# Poissons Ratio (z) = 0.07588 0.50580
#
# Static dielectric constant tensor:
#      x y z
#    x 1.785500 0.000000 -0.032350 
#    y 0.000000 1.912610 0.000000 
#    z -0.032350 0.000000 1.848020 
# 
# From -- ./inp_files/22739.got.cif
#   From: 2010.05.17/outbox.cif.g08.bks.cpg/sg15_12_cif.got.tgz:22739.got - 2010.06.03 18:47:42.
