data_PCOD9306142
_publ_section_title
;
Structure prediction by ZEFSAII (Michael W. Deem and Ramdas Pophale) SiO2 
 PCOD9306142
Probable space group: C 2/C
;
_chemical_formula_sum "Si O2"
_cell_formula_units_Z 44
_cell_length_a 15.926968
_cell_length_b 17.588072
_cell_length_c 9.252768
_cell_angle_alpha 90.000000
_cell_angle_beta 55.213794
_cell_angle_gamma 90.000000
_cell_volume 2128.716098
_symmetry_space_group_name_H-M "C 2/C"
_symmetry_group_IT_number 15
_symmetry_cell_setting 'monoclinic'
loop_
_space_group_symop_operation_xyz
x,y,z
-x,y,1/2-z
-x,-y,-z
x,-y,1/2+z
1/2+x,1/2+y,z
1/2-x,1/2+y,1/2-z
1/2-x,1/2-y,-z
1/2+x,1/2-y,1/2+z
loop_
_atom_site_type_symbol
_atom_site_label
_atom_site_fract_x
_atom_site_fract_y
_atom_site_fract_z
Si Si1 0.500040 0.211465 0.001401
Si Si2 0.397515 0.455693 0.044946
Si Si3 0.154122 0.696213 0.099579
Si Si4 0.258021 0.457748 0.454845
Si Si5 0.565731 0.949679 0.044496
Si Si6 0.500000 0.671020 0.250000
O O1 0.445969 0.138423 0.984246
O O2 0.531386 0.272397 0.849656
O O3 0.598495 0.190954 0.999592
O O4 0.419426 0.232058 0.206560
O O5 0.331583 0.432396 0.250334
O O6 0.500000 0.500000 0.000000
O O7 0.328721 0.509563 0.011864
O O8 0.425466 0.385931 0.910785
O O9 0.250000 0.750000 0.000000
O O10 0.191338 0.610249 0.088607
O O11 0.178959 0.519145 0.465055
O O12 0.500000 0.960191 0.250000
O O13 0.500000 0.000000 0.000000
#
# Coordination Sequence:
#
# PCOD9306142 Si02
#       6
#     8   8   8   8   8   4
#     4  11  25  46  70 106 145 189 230 306 365 422
#     4  12  26  48  70 107 143 192 245 299 358 436
#     4  11  25  45  70 104 144 190 242 290 367 439
#     4  12  25  44  77 107 140 193 245 299 368 433
#     4  12  23  44  70 106 143 181 236 296 361 430
#     4  12  26  48  72 100 152 186 236 298 364 422
#
# _framework density 20.669736
#
# number of rings (size 3 to 8) (size 9 to 14) (size 15 to 20)
#    0.000    0.364    4.545    4.364    2.545    1.455 
#    0.000    2.727    0.000    0.000    0.000    0.000 
#    0.000    0.000    0.000    0.000    0.000    0.000 
#
# Total GULP energy -122794.351440 kJ/mol
# GULP energy per Si atom -5581.561429 kJ/mol
# Density = 2.062269 g / cm^3
# Si number density = 20.669736 Si / 1000 Ang^3
#
#
#
# Elastic Constant Matrix: (Units=GPa)
#
#
# Indices 1 2 3 4 5 6 
#
# 1 150.8093 52.0052 18.6759 0.0000 4.1474 0.0000
# 2 52.0052 90.5579 11.0956 0.0000 5.5825 0.0000
# 3 18.6759 11.0956 113.7908 0.0000 13.3326 0.0000
# 4 0.0000 0.0000 0.0000 44.6464 0.0000 4.6070
# 5 4.1474 5.5825 13.3326 0.0000 34.9134 0.0000
# 6 0.0000 0.0000 0.0000 4.6070 0.0000 29.0222
#
#
#
# Elastic Compliance Matrix: (Units=1/GPa)
#
#
# Indices 1 2 3 4 5 6 
#
# 1 0.008362 -0.004695 -0.000928 0.000000 0.000112 0.000000
# 2 -0.004695 0.013882 -0.000406 0.000000 -0.001507 0.000000
# 3 -0.000928 -0.000406 0.009379 0.000000 -0.003406 0.000000
# 4 0.000000 0.000000 0.000000 0.022771 0.000000 -0.003615
# 5 0.000112 -0.001507 -0.003406 0.000000 0.030171 0.000000
# 6 0.000000 0.000000 0.000000 -0.003615 0.000000 0.035030
#
#
# Mechanical properties :
#
#
# Convention : Reuss Voigt Hill
#
# Bulk Modulus (GPa) = 51.11441 57.63458 54.37450
# Shear Modulus (GPa) = 36.18607 39.94180 38.06394
#
# Velocity S-wave (km/s) = 4.18865 4.40065 4.29596
# Velocity P-wave (km/s) = 6.94088 7.33247 7.13936
#
# Compressibility (1/GPa) = 0.01956396
#
# Stress axis : x y z
#
# Youngs Moduli (GPa) = 119.59152 72.03737 106.62042
#
# Poissons Ratio (x) = 0.33823 0.09891
# Poissons Ratio (y) = 0.56151 0.04334
# Poissons Ratio (z) = 0.11094 0.02928
#
# Static dielectric constant tensor:
#      x y z
#    x 1.677770 0.000000 0.007850 
#    y 0.000000 1.772050 0.000000 
#    z 0.007850 0.000000 1.742880 
# 
# From -- ./inp_files/39530.got.cif
#   From: 2010.05.17/outbox.cif.g08.bks.cpg/sg15_20_cif.got.tgz:39530.got - 2010.06.03 18:47:42.
