data_PCOD9306509
_publ_section_title
;
Structure prediction by ZEFSAII (Michael W. Deem and Ramdas Pophale) SiO2 
 PCOD9306509
Probable space group: C 2/C
;
_chemical_formula_sum "Si O2"
_cell_formula_units_Z 36
_cell_length_a 5.274371
_cell_length_b 20.177333
_cell_length_c 13.414963
_cell_angle_alpha 90.000000
_cell_angle_beta 108.903350
_cell_angle_gamma 90.000000
_cell_volume 1350.658458
_symmetry_space_group_name_H-M "C 2/C"
_symmetry_group_IT_number 15
_symmetry_cell_setting 'monoclinic'
loop_
_space_group_symop_operation_xyz
x,y,z
-x,y,1/2-z
-x,-y,-z
x,-y,1/2+z
1/2+x,1/2+y,z
1/2-x,1/2+y,1/2-z
1/2-x,1/2-y,-z
1/2+x,1/2-y,1/2+z
loop_
_atom_site_type_symbol
_atom_site_label
_atom_site_fract_x
_atom_site_fract_y
_atom_site_fract_z
Si Si1 0.197302 0.189871 0.680283
Si Si2 0.000000 0.618337 0.250000
Si Si3 0.965776 0.694662 0.054121
Si Si4 0.750107 0.914719 0.463813
Si Si5 0.884481 0.011263 0.327510
O O1 0.500000 0.171475 0.750000
O O2 0.087084 0.135244 0.588127
O O3 0.000000 0.196584 0.750000
O O4 0.216097 0.259338 0.621665
O O5 0.115907 0.659584 0.354580
O O6 0.235487 0.569590 0.250271
O O7 0.750000 0.750000 0.000000
O O8 0.043751 0.636397 0.988121
O O9 0.908009 0.954789 0.569028
O O10 0.681158 0.971355 0.374093
O O11 0.000000 0.968699 0.250000
#
# Coordination Sequence:
#
# PCOD9306509 Si02
#       5
#     8   4   8   8   8
#     4  12  27  47  79 117 162 210 271 342 418 501
#     4  12  26  46  80 108 162 206 270 334 418 492
#     4  12  26  49  77 119 158 215 274 342 423 495
#     4  11  26  47  80 111 162 207 276 334 413 497
#     4  11  25  50  75 115 156 213 268 335 408 494
#
# _framework density 26.653665
#
# number of rings (size 3 to 8) (size 9 to 14) (size 15 to 20)
#    0.000    0.444    3.333    4.000    4.667    0.889 
#    4.000    0.000    0.000    0.000    0.000    0.000 
#    0.000    0.000    0.000    0.000    0.000    0.000 
#
# Total GULP energy -100620.153423 kJ/mol
# GULP energy per Si atom -5590.008524 kJ/mol
# Density = 2.659300 g / cm^3
# Si number density = 26.653665 Si / 1000 Ang^3
#
#
#
# Elastic Constant Matrix: (Units=GPa)
#
#
# Indices 1 2 3 4 5 6 
#
# 1 119.7153 45.9804 74.2045 0.0000 -13.5815 0.0000
# 2 45.9804 135.4898 79.4587 0.0000 -14.3888 0.0000
# 3 74.2045 79.4587 184.7312 0.0000 -30.2232 0.0000
# 4 0.0000 0.0000 0.0000 45.9920 0.0000 -12.1011
# 5 -13.5815 -14.3888 -30.2232 0.0000 37.1224 0.0000
# 6 0.0000 0.0000 0.0000 -12.1011 0.0000 39.6874
#
#
#
# Elastic Compliance Matrix: (Units=1/GPa)
#
#
# Indices 1 2 3 4 5 6 
#
# 1 0.011376 -0.001573 -0.003821 0.000000 0.000442 0.000000
# 2 -0.001573 0.010094 -0.003650 0.000000 0.000365 0.000000
# 3 -0.003821 -0.003650 0.009296 0.000000 0.004756 0.000000
# 4 0.000000 0.000000 0.000000 0.023639 0.000000 0.007208
# 5 0.000442 0.000365 0.004756 0.000000 0.031113 0.000000
# 6 0.000000 0.000000 0.000000 0.007208 0.000000 0.027395
#
#
# Mechanical properties :
#
#
# Convention : Reuss Voigt Hill
#
# Bulk Modulus (GPa) = 78.87576 93.24704 86.06140
# Shear Modulus (GPa) = 36.97516 40.57986 38.77751
#
# Velocity S-wave (km/s) = 3.72861 3.90614 3.81841
# Velocity P-wave (km/s) = 6.94218 7.44342 7.19717
#
# Compressibility (1/GPa) = 0.01267817
#
# Stress axis : x y z
#
# Youngs Moduli (GPa) = 87.90770 99.07053 107.57224
#
# Poissons Ratio (x) = 0.15583 0.41099
# Poissons Ratio (y) = 0.13827 0.39265
# Poissons Ratio (z) = 0.33586 0.36162
#
# Static dielectric constant tensor:
#      x y z
#    x 2.339470 0.000000 0.001800 
#    y 0.000000 2.136560 0.000000 
#    z 0.001800 0.000000 2.086410 
# 
# From -- ./inp_files/128788.got.cif
#   From: 2010.05.17/outbox.cif.g08.bks.cpg/sg15_65_cif.got.tgz:128788.got - 2010.06.03 18:47:42.
