data_PCOD9306743
_publ_section_title
;
Structure prediction by ZEFSAII (Michael W. Deem and Ramdas Pophale) SiO2 
 PCOD9306743
Probable space group: C 2/C
;
_chemical_formula_sum "Si O2"
_cell_formula_units_Z 24
_cell_length_a 20.215154
_cell_length_b 7.569243
_cell_length_c 6.907935
_cell_angle_alpha 90.000000
_cell_angle_beta 56.812911
_cell_angle_gamma 90.000000
_cell_volume 884.595893
_symmetry_space_group_name_H-M "C 2/C"
_symmetry_group_IT_number 15
_symmetry_cell_setting 'monoclinic'
loop_
_space_group_symop_operation_xyz
x,y,z
-x,y,1/2-z
-x,-y,-z
x,-y,1/2+z
1/2+x,1/2+y,z
1/2-x,1/2+y,1/2-z
1/2-x,1/2-y,-z
1/2+x,1/2-y,1/2+z
loop_
_atom_site_type_symbol
_atom_site_label
_atom_site_fract_x
_atom_site_fract_y
_atom_site_fract_z
Si Si1 0.148101 0.340473 0.003251
Si Si2 0.176774 0.743438 0.889740
Si Si3 0.550055 0.664657 0.844196
O O1 0.158436 0.550539 0.004863
O O2 0.230382 0.275952 0.775654
O O3 0.076453 0.283010 0.981603
O O4 0.143890 0.262269 0.224596
O O5 0.131054 0.881866 0.098065
O O6 0.500000 0.753015 0.750000
O O7 0.500000 0.500000 0.000000
#
# Coordination Sequence:
#
# PCOD9306743 Si02
#       3
#     8   8   8
#     4  11  26  49  84 121 159 208 272 336 402 481
#     4  11  26  49  84 120 160 207 274 335 399 488
#     4  12  31  48  77 115 167 215 263 327 412 486
#
# _framework density 27.131031
#
# number of rings (size 3 to 8) (size 9 to 14) (size 15 to 20)
#    0.000    0.667    3.333    1.000    9.333    1.333 
#    0.000    0.000    0.000    0.000    0.000    0.000 
#    0.000    0.000    0.000    0.000    0.000    0.000 
#
# Total GULP energy -67406.159926 kJ/mol
# GULP energy per Si atom -5617.179994 kJ/mol
# Density = 2.706928 g / cm^3
# Si number density = 27.131031 Si / 1000 Ang^3
#
#
#
# Elastic Constant Matrix: (Units=GPa)
#
#
# Indices 1 2 3 4 5 6 
#
# 1 199.1052 57.5100 31.8635 0.0000 30.7355 0.0000
# 2 57.5100 152.8669 64.0789 0.0000 -0.4790 0.0000
# 3 31.8635 64.0789 203.0893 0.0000 1.1623 0.0000
# 4 0.0000 0.0000 0.0000 45.2952 0.0000 -18.0352
# 5 30.7355 -0.4790 1.1623 0.0000 33.3310 0.0000
# 6 0.0000 0.0000 0.0000 -18.0352 0.0000 39.7737
#
#
#
# Elastic Compliance Matrix: (Units=1/GPa)
#
#
# Indices 1 2 3 4 5 6 
#
# 1 0.006732 -0.002448 -0.000248 0.000000 -0.006234 0.000000
# 2 -0.002448 0.008430 -0.002290 0.000000 0.002458 0.000000
# 3 -0.000248 -0.002290 0.005685 0.000000 -0.000002 0.000000
# 4 0.000000 0.000000 0.000000 0.026942 0.000000 0.012217
# 5 -0.006234 0.002458 -0.000002 0.000000 0.035786 0.000000
# 6 0.000000 0.000000 0.000000 0.012217 0.000000 0.030682
#
#
# Mechanical properties :
#
#
# Convention : Reuss Voigt Hill
#
# Bulk Modulus (GPa) = 91.95246 95.77403 93.86324
# Shear Modulus (GPa) = 39.10723 50.45391 44.78057
#
# Velocity S-wave (km/s) = 3.80072 4.31703 4.06708
# Velocity P-wave (km/s) = 7.29563 7.76055 7.53168
#
# Compressibility (1/GPa) = 0.01087519
#
# Stress axis : x y z
#
# Youngs Moduli (GPa) = 148.55350 118.62123 175.88959
#
# Poissons Ratio (x) = 0.29039 0.04363
# Poissons Ratio (y) = 0.36366 0.40277
# Poissons Ratio (z) = 0.03685 0.27163
#
# Static dielectric constant tensor:
#      x y z
#    x 2.126030 0.000000 -0.012820 
#    y 0.000000 2.064460 0.000000 
#    z -0.012820 0.000000 2.142840 
# 
# From -- ./inp_files/53371.got.cif
#   From: 2010.05.17/outbox.cif.g08.bks.cpg/sg15_27_cif.got.tgz:53371.got - 2010.06.03 18:47:42.
