data_PCOD9306464
_publ_section_title
;
Structure prediction by ZEFSAII (Michael W. Deem and Ramdas Pophale) SiO2 
 PCOD9306464
Probable space group: C 2/C
;
_chemical_formula_sum "Si O2"
_cell_formula_units_Z 44
_cell_length_a 4.933831
_cell_length_b 14.494344
_cell_length_c 26.720862
_cell_angle_alpha 90.000000
_cell_angle_beta 60.484365
_cell_angle_gamma 90.000000
_cell_volume 1662.888010
_symmetry_space_group_name_H-M "C 2/C"
_symmetry_group_IT_number 15
_symmetry_cell_setting 'monoclinic'
loop_
_space_group_symop_operation_xyz
x,y,z
-x,y,1/2-z
-x,-y,-z
x,-y,1/2+z
1/2+x,1/2+y,z
1/2-x,1/2+y,1/2-z
1/2-x,1/2-y,-z
1/2+x,1/2-y,1/2+z
loop_
_atom_site_type_symbol
_atom_site_label
_atom_site_fract_x
_atom_site_fract_y
_atom_site_fract_z
Si Si1 0.500000 0.382137 0.750000
Si Si2 0.778219 0.038762 0.694435
Si Si3 0.304323 0.047524 0.406144
Si Si4 0.272213 0.691067 0.889677
Si Si5 0.304036 0.083475 0.992727
Si Si6 0.313651 0.306080 0.866222
O O1 0.346248 0.453598 0.725245
O O2 0.337688 0.315193 0.804000
O O3 0.500000 0.089887 0.750000
O O4 0.678579 0.988706 0.651806
O O5 0.074564 0.103971 0.654681
O O6 0.619872 0.098866 0.394675
O O7 0.000677 0.108396 0.447930
O O8 0.218952 0.959153 0.446667
O O9 0.556608 0.728837 0.896157
O O10 0.024863 0.664314 0.954723
O O11 0.122026 0.764532 0.863991
O O12 0.500000 0.000000 0.000000
#
# Coordination Sequence:
#
# PCOD9306464 Si02
#       6
#     4   8   8   8   8   8
#     4  12  28  48  80 106 156 216 258 326 404 502
#     4  12  26  49  83 113 149 218 281 326 397 507
#     4  11  25  50  79 114 155 211 273 330 403 494
#     4  12  29  48  74 119 157 201 260 340 407 472
#     4  11  25  48  82 107 158 213 278 328 393 501
#     4  12  29  49  73 118 166 197 257 337 423 467
#
# _framework density 26.459987999999999
#
# number of rings (size 3 to 8) (size 9 to 14) (size 15 to 20)
#    0.000    0.364    3.636    3.273    8.909    1.455 
#    0.000    0.000    0.000    0.000    0.000    0.000 
#    0.000    0.000    0.000    0.000    0.000    0.000 
#
# Total GULP energy -122924.520499 kJ/mol
# GULP energy per Si atom -5587.478204 kJ/mol
# Density = 2.639976 g / cm^3
# Si number density = 26.459988 Si / 1000 Ang^3
#
#
#
# Elastic Constant Matrix: (Units=GPa)
#
#
# Indices 1 2 3 4 5 6 
#
# 1 116.0457 31.1162 37.4188 0.0000 0.5812 -0.0001
# 2 31.1162 105.0548 39.0895 0.0000 -0.1714 0.0000
# 3 37.4188 39.0895 156.6522 0.0000 -11.9166 0.0000
# 4 0.0000 0.0000 0.0000 38.9279 0.0000 11.3980
# 5 0.5812 -0.1714 -11.9166 0.0000 55.2156 0.0000
# 6 -0.0001 0.0000 0.0000 11.3980 0.0000 49.7108
#
#
#
# Elastic Compliance Matrix: (Units=1/GPa)
#
#
# Indices 1 2 3 4 5 6 
#
# 1 0.009805 -0.002226 -0.001825 0.000000 -0.000504 0.000000
# 2 -0.002226 0.011014 -0.002249 0.000000 -0.000428 0.000000
# 3 -0.001825 -0.002249 0.007505 0.000000 0.001632 0.000000
# 4 0.000000 0.000000 0.000000 0.027537 0.000000 -0.006314
# 5 -0.000504 -0.000428 0.001632 0.000000 0.018467 0.000000
# 6 0.000000 0.000000 0.000000 -0.006314 0.000000 0.021564
#
#
# Mechanical properties :
#
#
# Convention : Reuss Voigt Hill
#
# Bulk Modulus (GPa) = 63.59712 65.88906 64.74309
# Shear Modulus (GPa) = 43.96203 46.77939 45.37071
#
# Velocity S-wave (km/s) = 4.08051 4.20924 4.14538
# Velocity P-wave (km/s) = 6.80354 6.96987 6.88721
#
# Compressibility (1/GPa) = 0.01572398
#
# Stress axis : x y z
#
# Youngs Moduli (GPa) = 101.98718 90.79045 133.24625
#
# Poissons Ratio (x) = 0.20210 0.24318
# Poissons Ratio (y) = 0.22702 0.29971
# Poissons Ratio (z) = 0.18613 0.20421
#
# Static dielectric constant tensor:
#      x y z
#    x 2.241820 0.000000 -0.080210 
#    y 0.000000 2.208230 0.000000 
#    z -0.080210 0.000000 2.199940 
# 
# From -- ./inp_files/285532.got.cif
#   From: 2010.05.17/outbox.cif.g08.bks.cpg/sg15_143_cif.got.tgz:285532.got - 2010.06.03 18:47:42.
