data_PCOD9306540
_publ_section_title
;
Structure prediction by ZEFSAII (Michael W. Deem and Ramdas Pophale) SiO2 
 PCOD9306540
Probable space group: C 2/C
;
_chemical_formula_sum "Si O2"
_cell_formula_units_Z 40
_cell_length_a 9.240819
_cell_length_b 19.478592
_cell_length_c 10.003224
_cell_angle_alpha 90.000000
_cell_angle_beta 119.457951
_cell_angle_gamma 90.000000
_cell_volume 1567.779447
_symmetry_space_group_name_H-M "C 2/C"
_symmetry_group_IT_number 15
_symmetry_cell_setting 'monoclinic'
loop_
_space_group_symop_operation_xyz
x,y,z
-x,y,1/2-z
-x,-y,-z
x,-y,1/2+z
1/2+x,1/2+y,z
1/2-x,1/2+y,1/2-z
1/2-x,1/2-y,-z
1/2+x,1/2-y,1/2+z
loop_
_atom_site_type_symbol
_atom_site_label
_atom_site_fract_x
_atom_site_fract_y
_atom_site_fract_z
Si Si1 0.791442 0.686290 0.911962
Si Si2 0.921183 0.585430 0.350875
Si Si3 0.159276 0.021645 0.418302
Si Si4 0.615942 0.310718 0.678430
Si Si5 0.440881 0.607041 0.887869
O O1 0.841069 0.731552 0.807343
O O2 0.653739 0.636443 0.783409
O O3 0.750000 0.750000 0.000000
O O4 0.935078 0.634957 0.025267
O O5 0.824280 0.531137 0.402994
O O6 0.775118 0.640179 0.252165
O O7 0.000000 0.555220 0.250000
O O8 0.000000 0.039115 0.250000
O O9 0.176800 0.069276 0.556483
O O10 0.089694 0.949354 0.442005
O O11 0.500000 0.323347 0.750000
O O12 0.513466 0.329363 0.500383
#
# Coordination Sequence:
#
# PCOD9306540 Si02
#       5
#     8   8   8   8   8
#     4  12  29  47  79 132 170 215 271 358 433 504
#     4  12  25  50  77 122 169 211 286 351 420 503
#     4  11  25  52  86 112 162 231 287 345 407 511
#     4  12  25  49  81 122 170 220 275 341 428 522
#     4  11  26  50  85 116 163 229 283 337 434 501
#
# _framework density 25.513793
#
# number of rings (size 3 to 8) (size 9 to 14) (size 15 to 20)
#    0.000    0.400    6.000    1.200    5.600    1.600 
#    0.000    4.000    0.000    0.000    0.000    0.000 
#    0.000    0.000    0.000    0.000    0.000    0.000 
#
# Total GULP energy -111691.791038 kJ/mol
# GULP energy per Si atom -5584.589552 kJ/mol
# Density = 2.545572 g / cm^3
# Si number density = 25.513793 Si / 1000 Ang^3
#
#
#
# Elastic Constant Matrix: (Units=GPa)
#
#
# Indices 1 2 3 4 5 6 
#
# 1 212.5023 49.5076 53.2743 0.0000 -8.4164 0.0000
# 2 49.5076 65.4599 15.2135 0.0000 -16.6795 0.0000
# 3 53.2743 15.2135 129.3618 0.0000 17.9978 0.0000
# 4 0.0000 0.0000 0.0000 60.9363 0.0000 -15.3337
# 5 -8.4164 -16.6795 17.9978 0.0000 38.1100 0.0000
# 6 0.0000 0.0000 0.0000 -15.3337 0.0000 64.5634
#
#
#
# Elastic Compliance Matrix: (Units=1/GPa)
#
#
# Indices 1 2 3 4 5 6 
#
# 1 0.006216 -0.004034 -0.002173 0.000000 0.000633 0.000000
# 2 -0.004034 0.021224 -0.002144 0.000000 0.009410 0.000000
# 3 -0.002173 -0.002144 0.009713 0.000000 -0.006005 0.000000
# 4 0.000000 0.000000 0.000000 0.017454 0.000000 0.004145
# 5 0.000633 0.009410 -0.006005 0.000000 0.033334 0.000000
# 6 0.000000 0.000000 0.000000 0.004145 0.000000 0.016473
#
#
# Mechanical properties :
#
#
# Convention : Reuss Voigt Hill
#
# Bulk Modulus (GPa) = 48.90170 71.47943 60.19056
# Shear Modulus (GPa) = 39.08280 52.01051 45.54665
#
# Velocity S-wave (km/s) = 3.91811 4.51990 4.22972
# Velocity P-wave (km/s) = 6.29898 7.43748 6.89178
#
# Compressibility (1/GPa) = 0.02044919
#
# Stress axis : x y z
#
# Youngs Moduli (GPa) = 160.88220 47.11673 102.95527
#
# Poissons Ratio (x) = 0.19009 0.22377
# Poissons Ratio (y) = 0.64907 0.22071
# Poissons Ratio (z) = 0.34967 0.10101
#
# Static dielectric constant tensor:
#      x y z
#    x 0.937520 0.000000 0.337210 
#    y 0.000000 2.095870 0.000000 
#    z 0.337210 0.000000 1.911040 
# 
# From -- ./inp_files/79532.got.cif
#   From: 2010.05.17/outbox.cif.g08.bks.cpg/sg15_40_cif.got.tgz:79532.got - 2010.06.03 18:47:42.
