data_PCOD9306174
_publ_section_title
;
Structure prediction by ZEFSAII (Michael W. Deem and Ramdas Pophale) SiO2 
 PCOD9306174
Probable space group: C 2/C
;
_chemical_formula_sum "Si O2"
_cell_formula_units_Z 44
_cell_length_a 21.365374
_cell_length_b 7.677202
_cell_length_c 12.939351
_cell_angle_alpha 90.000000
_cell_angle_beta 80.846656
_cell_angle_gamma 90.000000
_cell_volume 2095.367477
_symmetry_space_group_name_H-M "C 2/C"
_symmetry_group_IT_number 15
_symmetry_cell_setting 'monoclinic'
loop_
_space_group_symop_operation_xyz
x,y,z
-x,y,1/2-z
-x,-y,-z
x,-y,1/2+z
1/2+x,1/2+y,z
1/2-x,1/2+y,1/2-z
1/2-x,1/2-y,-z
1/2+x,1/2-y,1/2+z
loop_
_atom_site_type_symbol
_atom_site_label
_atom_site_fract_x
_atom_site_fract_y
_atom_site_fract_z
Si Si1 0.191472 0.727118 0.347745
Si Si2 0.611749 0.427650 0.836727
Si Si3 0.972103 0.767561 0.476127
Si Si4 0.906441 0.600472 0.958268
Si Si5 0.675521 0.883621 0.218578
Si Si6 0.500000 0.560534 0.750000
O O1 0.152908 0.653720 0.455078
O O2 0.262320 0.795733 0.348055
O O3 0.190935 0.570941 0.264224
O O4 0.152915 0.898057 0.322438
O O5 0.653006 0.255166 0.810148
O O6 0.561225 0.445247 0.757656
O O7 0.571231 0.405633 0.951959
O O8 0.931925 0.590777 0.478884
O O9 0.990076 0.825755 0.355891
O O10 0.034321 0.724006 0.527845
O O11 0.880828 0.599492 0.848919
#
# Coordination Sequence:
#
# PCOD9306174 Si02
#       6
#     8   8   8   8   8   4
#     4  12  25  49  69 103 142 183 243 282 341 427
#     4  12  25  44  72 103 145 180 237 288 349 421
#     4  11  25  45  72 109 144 180 235 291 353 423
#     4  11  25  45  72 106 145 181 234 292 352 417
#     4  12  26  48  72 103 141 193 230 292 350 408
#     4  12  24  42  74 104 140 190 228 292 354 420
#
# _framework density 20.998704
#
# number of rings (size 3 to 8) (size 9 to 14) (size 15 to 20)
#    0.000    0.364    5.455    3.273    2.545    0.000 
#    0.000    1.818    0.000    0.000    0.000    0.000 
#    0.000    0.000    0.000    0.000    0.000    0.000 
#
# Total GULP energy -123030.559099 kJ/mol
# GULP energy per Si atom -5592.298141 kJ/mol
# Density = 2.095091 g / cm^3
# Si number density = 20.998704 Si / 1000 Ang^3
#
#
#
# Elastic Constant Matrix: (Units=GPa)
#
#
# Indices 1 2 3 4 5 6 
#
# 1 97.5950 51.0532 25.0692 0.0000 0.5935 0.0000
# 2 51.0532 146.8822 32.6393 0.0000 1.7607 0.0000
# 3 25.0692 32.6393 60.0947 0.0000 2.2604 0.0000
# 4 0.0000 0.0000 0.0000 31.5203 0.0000 -5.5653
# 5 0.5935 1.7607 2.2604 0.0000 32.5044 0.0000
# 6 0.0000 0.0000 0.0000 -5.5653 0.0000 38.0671
#
#
#
# Elastic Compliance Matrix: (Units=1/GPa)
#
#
# Indices 1 2 3 4 5 6 
#
# 1 0.013110 -0.003801 -0.003412 0.000000 0.000204 0.000000
# 2 -0.003801 0.008845 -0.003211 0.000000 -0.000186 0.000000
# 3 -0.003412 -0.003211 0.019851 0.000000 -0.001144 0.000000
# 4 0.000000 0.000000 0.000000 0.032566 0.000000 0.004761
# 5 0.000204 -0.000186 -0.001144 0.000000 0.030851 0.000000
# 6 0.000000 0.000000 0.000000 0.004761 0.000000 0.026965
#
#
# Mechanical properties :
#
#
# Convention : Reuss Voigt Hill
#
# Bulk Modulus (GPa) = 47.71675 58.01058 52.86366
# Shear Modulus (GPa) = 31.24530 33.47236 32.35883
#
# Velocity S-wave (km/s) = 3.86160 3.99685 3.92981
# Velocity P-wave (km/s) = 6.53112 6.99896 6.76909
#
# Compressibility (1/GPa) = 0.02095700
#
# Stress axis : x y z
#
# Youngs Moduli (GPa) = 76.27745 113.05590 50.37497
#
# Poissons Ratio (x) = 0.42972 0.17189
# Poissons Ratio (y) = 0.28993 0.16178
# Poissons Ratio (z) = 0.26028 0.36307
#
# Static dielectric constant tensor:
#      x y z
#    x 1.748190 0.000000 -0.022790 
#    y 0.000000 1.749170 0.000000 
#    z -0.022790 0.000000 1.735970 
# 
# From -- ./inp_files/110054.got.cif
#   From: 2010.05.17/outbox.cif.g08.bks.cpg/sg15_56_cif.got.tgz:110054.got - 2010.06.03 18:47:42.
