data_PCOD9306344
_publ_section_title
;
Structure prediction by ZEFSAII (Michael W. Deem and Ramdas Pophale) SiO2 
 PCOD9306344
Probable space group: C 2/C
;
_chemical_formula_sum "Si O2"
_cell_formula_units_Z 40
_cell_length_a 15.896870
_cell_length_b 13.241052
_cell_length_c 7.786238
_cell_angle_alpha 90.000000
_cell_angle_beta 70.662892
_cell_angle_gamma 90.000000
_cell_volume 1546.477466
_symmetry_space_group_name_H-M "C 2/C"
_symmetry_group_IT_number 15
_symmetry_cell_setting 'monoclinic'
loop_
_space_group_symop_operation_xyz
x,y,z
-x,y,1/2-z
-x,-y,-z
x,-y,1/2+z
1/2+x,1/2+y,z
1/2-x,1/2+y,1/2-z
1/2-x,1/2-y,-z
1/2+x,1/2-y,1/2+z
loop_
_atom_site_type_symbol
_atom_site_label
_atom_site_fract_x
_atom_site_fract_y
_atom_site_fract_z
Si Si1 0.726224 0.023254 0.616405
Si Si2 0.928738 0.811031 0.508285
Si Si3 0.238441 0.336318 0.779013
Si Si4 0.117680 0.138916 0.847758
Si Si5 0.452578 0.900659 0.103732
O O1 0.724296 0.085604 0.442819
O O2 0.821907 0.045964 0.636380
O O3 0.647503 0.070484 0.781331
O O4 0.712747 0.902554 0.627967
O O5 0.842914 0.811677 0.689186
O O6 0.900447 0.855382 0.343502
O O7 0.956197 0.693460 0.474569
O O8 0.021115 0.862469 0.502090
O O9 0.177344 0.238720 0.845829
O O10 0.500000 0.870634 0.250000
O O11 0.500000 0.000000 0.000000
#
# Coordination Sequence:
#
# PCOD9306344 Si02
#       5
#     8   8   8   8   8
#     4  12  26  45  73 103 143 191 235 296 355 425
#     4  11  26  44  73 101 146 189 234 298 352 424
#     4  12  26  46  72 104 146 188 241 294 355 426
#     4  11  25  47  71 105 142 187 240 292 360 421
#     4  12  27  44  71 107 144 186 238 290 359 421
#
# _framework density 25.865233
#
# number of rings (size 3 to 8) (size 9 to 14) (size 15 to 20)
#    0.000    0.400    2.000    6.000   11.200    0.800 
#    0.000    0.000    0.000    0.000    0.000    0.000 
#    0.000    0.000    0.000    0.000    0.000    0.000 
#
# Total GULP energy -112189.659430 kJ/mol
# GULP energy per Si atom -5609.482971 kJ/mol
# Density = 2.580636 g / cm^3
# Si number density = 25.865233 Si / 1000 Ang^3
#
#
#
# Elastic Constant Matrix: (Units=GPa)
#
#
# Indices 1 2 3 4 5 6 
#
# 1 138.0180 -1.6501 34.3886 0.0000 -16.6955 0.0000
# 2 -1.6501 77.5201 3.5282 0.0000 10.7691 0.0000
# 3 34.3886 3.5282 94.5315 0.0000 -14.9914 0.0000
# 4 0.0000 0.0000 0.0000 33.1560 0.0000 2.0666
# 5 -16.6955 10.7691 -14.9914 0.0000 44.3677 0.0000
# 6 0.0000 0.0000 0.0000 2.0666 0.0000 48.5014
#
#
#
# Elastic Compliance Matrix: (Units=1/GPa)
#
#
# Indices 1 2 3 4 5 6 
#
# 1 0.008163 -0.000011 -0.002622 0.000000 0.002188 0.000000
# 2 -0.000011 0.013453 -0.001074 0.000000 -0.003632 0.000000
# 3 -0.002622 -0.001074 0.012106 0.000000 0.003365 0.000000
# 4 0.000000 0.000000 0.000000 0.030241 0.000000 -0.001289
# 5 0.002188 -0.003632 0.003365 0.000000 0.025381 0.000000
# 6 0.000000 0.000000 0.000000 -0.001289 0.000000 0.020673
#
#
# Mechanical properties :
#
#
# Convention : Reuss Voigt Hill
#
# Bulk Modulus (GPa) = 38.01131 42.51145 40.26138
# Shear Modulus (GPa) = 39.61931 43.45855 41.53893
#
# Velocity S-wave (km/s) = 3.91802 4.10346 4.01181
# Velocity P-wave (km/s) = 5.93259 6.23880 6.08762
#
# Compressibility (1/GPa) = 0.02630796
#
# Stress axis : x y z
#
# Youngs Moduli (GPa) = 122.49827 74.33202 82.60344
#
# Poissons Ratio (x) = 0.00081 0.21660
# Poissons Ratio (y) = 0.00134 0.08873
# Poissons Ratio (z) = 0.32121 0.07985
#
# Static dielectric constant tensor:
#      x y z
#    x 2.050080 0.000000 0.040430 
#    y 0.000000 1.980970 0.000000 
#    z 0.040430 0.000000 2.074170 
# 
# From -- ./inp_files/37805.got.cif
#   From: 2010.05.17/outbox.cif.g08.bks.cpg/sg15_19_cif.got.tgz:37805.got - 2010.06.03 18:47:42.
