data_PCOD9306410
_publ_section_title
;
Structure prediction by ZEFSAII (Michael W. Deem and Ramdas Pophale) SiO2 
 PCOD9306410
Probable space group: C 2/C
;
_chemical_formula_sum "Si O2"
_cell_formula_units_Z 48
_cell_length_a 8.870681
_cell_length_b 10.707904
_cell_length_c 23.188603
_cell_angle_alpha 90.000000
_cell_angle_beta 88.538977
_cell_angle_gamma 90.000000
_cell_volume 2201.885870
_symmetry_space_group_name_H-M "C 2/C"
_symmetry_group_IT_number 15
_symmetry_cell_setting 'monoclinic'
loop_
_space_group_symop_operation_xyz
x,y,z
-x,y,1/2-z
-x,-y,-z
x,-y,1/2+z
1/2+x,1/2+y,z
1/2-x,1/2+y,1/2-z
1/2-x,1/2-y,-z
1/2+x,1/2-y,1/2+z
loop_
_atom_site_type_symbol
_atom_site_label
_atom_site_fract_x
_atom_site_fract_y
_atom_site_fract_z
Si Si1 0.188600 0.611966 0.511594
Si Si2 0.915311 0.986265 0.422887
Si Si3 0.722407 0.570870 0.392815
Si Si4 0.092339 0.729089 0.032669
Si Si5 0.325826 0.669970 0.232832
Si Si6 0.653572 0.429467 0.209510
O O1 0.250000 0.750000 0.500000
O O2 0.273319 0.531245 0.461393
O O3 0.218775 0.553313 0.574494
O O4 0.012939 0.634755 0.500202
O O5 0.977372 0.862896 0.453767
O O6 0.879633 0.942304 0.358292
O O7 0.051900 0.085517 0.419562
O O8 0.851549 0.667762 0.408665
O O9 0.692887 0.591694 0.326217
O O10 0.250000 0.750000 0.000000
O O11 0.500000 0.694018 0.250000
O O12 0.267443 0.563920 0.277821
O O13 0.244857 0.803739 0.225247
O O14 0.500000 0.425613 0.250000
#
# Coordination Sequence:
#
# PCOD9306410 Si02
#       6
#     8   8   8   8   8   8
#     4  12  26  43  72 109 143 188 229 284 362 430
#     4  12  24  46  72  99 145 188 228 295 353 424
#     4  12  23  46  70 100 140 182 231 288 351 421
#     4  12  25  45  69 104 145 181 234 284 355 432
#     4  11  25  48  72 101 138 187 238 298 353 418
#     4  11  25  49  72 102 143 185 243 299 359 418
#
# _framework density 21.799493999999999
#
# number of rings (size 3 to 8) (size 9 to 14) (size 15 to 20)
#    0.000    0.333    8.333    2.000    0.000    3.333 
#    6.000    0.000    0.000    0.000    0.000    0.000 
#    0.000    0.000    0.000    0.000    0.000    0.000 
#
# Total GULP energy -133748.790720 kJ/mol
# GULP energy per Si atom -5572.866280 kJ/mol
# Density = 2.174988 g / cm^3
# Si number density = 21.799494 Si / 1000 Ang^3
#
#
#
# Elastic Constant Matrix: (Units=GPa)
#
#
# Indices 1 2 3 4 5 6 
#
# 1 107.9410 40.7204 27.2519 0.0000 20.2157 0.0000
# 2 40.7204 133.7862 37.8914 0.0000 2.7294 0.0000
# 3 27.2519 37.8914 97.5086 0.0000 33.1032 0.0000
# 4 0.0000 0.0000 0.0000 23.6384 0.0000 11.7201
# 5 20.2157 2.7294 33.1032 0.0000 26.8277 0.0000
# 6 0.0000 0.0000 0.0000 11.7201 0.0000 44.4568
#
#
#
# Elastic Compliance Matrix: (Units=1/GPa)
#
#
# Indices 1 2 3 4 5 6 
#
# 1 0.012458 -0.004127 0.002007 0.000000 -0.011444 0.000000
# 2 -0.004127 0.010258 -0.006082 0.000000 0.009571 0.000000
# 3 0.002007 -0.006082 0.021272 0.000000 -0.027142 0.000000
# 4 0.000000 0.000000 0.000000 0.048665 0.000000 -0.012830
# 5 -0.011444 0.009571 -0.027142 0.000000 0.078416 0.000000
# 6 0.000000 0.000000 0.000000 -0.012830 0.000000 0.025876
#
#
# Mechanical properties :
#
#
# Convention : Reuss Voigt Hill
#
# Bulk Modulus (GPa) = 36.25184 61.21812 48.73498
# Shear Modulus (GPa) = 22.46754 34.54271 28.50512
#
# Velocity S-wave (km/s) = 3.21385 3.98498 3.62000
# Velocity P-wave (km/s) = 5.51702 7.02259 6.31483
#
# Compressibility (1/GPa) = 0.02758481
#
# Stress axis : x y z
#
# Youngs Moduli (GPa) = 80.27176 97.48518 47.00909
#
# Poissons Ratio (x) = 0.40229 -0.09435
# Poissons Ratio (y) = 0.33126 0.28591
# Poissons Ratio (z) = -0.16111 0.59291
#
# Static dielectric constant tensor:
#      x y z
#    x 1.892550 0.000000 0.095520 
#    y 0.000000 1.922390 0.000000 
#    z 0.095520 0.000000 1.938760 
# 
# From -- ./inp_files/263180.got.cif
#   From: 2010.05.17/outbox.cif.g08.bks.cpg/sg15_132_cif.got.tgz:263180.got - 2010.06.03 18:47:42.
