data_PCOD9306999
_publ_section_title
;
Structure prediction by ZEFSAII (Michael W. Deem and Ramdas Pophale) SiO2 
 PCOD9306999
Probable space group: C 2/C
;
_chemical_formula_sum "Si O2"
_cell_formula_units_Z 52
_cell_length_a 7.445336
_cell_length_b 13.750195
_cell_length_c 21.243802
_cell_angle_alpha 90.000000
_cell_angle_beta 123.772454
_cell_angle_gamma 90.000000
_cell_volume 1807.831771
_symmetry_space_group_name_H-M "C 2/C"
_symmetry_group_IT_number 15
_symmetry_cell_setting 'monoclinic'
loop_
_space_group_symop_operation_xyz
x,y,z
-x,y,1/2-z
-x,-y,-z
x,-y,1/2+z
1/2+x,1/2+y,z
1/2-x,1/2+y,1/2-z
1/2-x,1/2-y,-z
1/2+x,1/2-y,1/2+z
loop_
_atom_site_type_symbol
_atom_site_label
_atom_site_fract_x
_atom_site_fract_y
_atom_site_fract_z
Si Si1 0.481817 0.363955 0.392770
Si Si2 0.335071 0.171754 0.430592
Si Si3 0.500000 0.407437 0.250000
Si Si4 0.885108 0.260391 0.417510
Si Si5 0.580714 0.003863 0.198637
Si Si6 0.748870 0.564772 0.045973
Si Si7 0.612150 0.318311 0.707511
O O1 0.344694 0.281019 0.402099
O O2 0.429539 0.377464 0.308697
O O3 0.704776 0.306582 0.425461
O O4 0.577209 0.450182 0.456304
O O5 0.403757 0.183843 0.516848
O O6 0.520864 0.106614 0.435968
O O7 0.096011 0.134937 0.368602
O O8 0.277387 0.465432 0.194870
O O9 0.863616 0.149316 0.435159
O O10 0.822993 0.261669 0.331898
O O11 0.500000 0.963033 0.250000
O O12 0.358732 0.992089 0.116482
O O13 0.686736 0.110583 0.238582
O O14 0.500000 0.285437 0.750000
#
# Coordination Sequence:
#
# PCOD9306999 Si02
#       7
#     8   8   4   8   8   8   8
#     4   9  22  39  62  86 126 157 193 255 319 381
#     4   9  18  36  59  95 123 146 194 245 326 387
#     4  12  26  44  58  86 124 174 212 256 302 348
#     4   9  19  35  62  91 121 154 186 257 320 376
#     4  12  24  42  64  85 121 166 225 259 288 352
#     4   9  17  39  65  87 112 157 203 254 316 361
#     4  12  21  32  61  94 119 155 202 257 302 365
#
# _framework density 28.763738
#
# number of rings (size 3 to 8) (size 9 to 14) (size 15 to 20)
#    0.000    1.846    3.846    2.308    2.154    0.615 
#    2.769    0.769    0.000    0.000    0.000    0.000 
#    0.000    0.000    0.000    0.000    0.000    0.000 
#
# Total GULP energy -144926.763168 kJ/mol
# GULP energy per Si atom -5574.106276 kJ/mol
# Density = 2.869827 g / cm^3
# Si number density = 28.763738 Si / 1000 Ang^3
#
#
#
# Elastic Constant Matrix: (Units=GPa)
#
#
# Indices 1 2 3 4 5 6 
#
# 1 121.7042 -2.8201 39.9517 0.0000 -3.9097 0.0000
# 2 -2.8201 51.0466 44.2623 0.0000 -10.9699 0.0000
# 3 39.9517 44.2623 187.0749 0.0000 9.5799 0.0000
# 4 0.0000 0.0000 0.0000 17.7846 0.0000 -9.9032
# 5 -3.9097 -10.9699 9.5799 0.0000 63.8416 0.0000
# 6 0.0000 0.0000 0.0000 -9.9032 0.0000 -4.3366
#
#
#
# Elastic Compliance Matrix: (Units=1/GPa)
#
#
# Indices 1 2 3 4 5 6 
#
# 1 0.009278 0.003317 -0.002846 0.000000 0.001565 0.000000
# 2 0.003317 0.027635 -0.007559 0.000000 0.006086 0.000000
# 3 -0.002846 -0.007559 0.007878 0.000000 -0.002655 0.000000
# 4 0.000000 0.000000 0.000000 0.024752 0.000000 -0.056526
# 5 0.001565 0.006086 -0.002655 0.000000 0.017204 0.000000
# 6 0.000000 0.000000 0.000000 -0.056526 0.000000 -0.101511
#
#
# Mechanical properties :
#
#
# Convention : Reuss Voigt Hill
#
# Bulk Modulus (GPa) = 32.66362 58.06816 45.36589
# Shear Modulus (GPa) = 519.93119 34.02006 276.97562
#
# Velocity S-wave (km/s) = 13.45926 3.44283 9.82356
# Velocity P-wave (km/s) = 15.90333 6.00299 12.01982
#
# Compressibility (1/GPa) = 0.03061510
#
# Stress axis : x y z
#
# Youngs Moduli (GPa) = 107.77968 36.18597 126.94091
#
# Poissons Ratio (x) = -0.12003 0.36133
# Poissons Ratio (y) = -0.35752 0.95949
# Poissons Ratio (z) = 0.30679 0.27351
#
# Static dielectric constant tensor:
#      x y z
#    x 2.212820 0.000000 0.060440 
#    y 0.000000 2.423450 0.000000 
#    z 0.060440 0.000000 2.558060 
# 
# From -- ./inp_files/233101.got.cif
#   From: 2010.05.17/outbox.cif.g08.bks.cpg/sg15_117_cif.got.tgz:233101.got - 2010.06.03 18:47:42.
