data_PCOD9306326
_publ_section_title
;
Structure prediction by ZEFSAII (Michael W. Deem and Ramdas Pophale) SiO2 
 PCOD9306326
Probable space group: C 2/C
;
_chemical_formula_sum "Si O2"
_cell_formula_units_Z 36
_cell_length_a 18.090559
_cell_length_b 6.723936
_cell_length_c 23.930628
_cell_angle_alpha 90.000000
_cell_angle_beta 35.666849
_cell_angle_gamma 90.000000
_cell_volume 1697.271345
_symmetry_space_group_name_H-M "C 2/C"
_symmetry_group_IT_number 15
_symmetry_cell_setting 'monoclinic'
loop_
_space_group_symop_operation_xyz
x,y,z
-x,y,1/2-z
-x,-y,-z
x,-y,1/2+z
1/2+x,1/2+y,z
1/2-x,1/2+y,1/2-z
1/2-x,1/2-y,-z
1/2+x,1/2-y,1/2+z
loop_
_atom_site_type_symbol
_atom_site_label
_atom_site_fract_x
_atom_site_fract_y
_atom_site_fract_z
Si Si1 0.500000 0.585596 0.750000
Si Si2 0.205625 0.975530 0.366316
Si Si3 0.665345 0.769206 0.106932
Si Si4 0.024546 0.305988 0.521640
Si Si5 0.027594 0.581284 0.325005
O O1 0.387474 0.440489 0.838747
O O2 0.465767 0.728611 0.719579
O O3 0.256731 0.872848 0.391466
O O4 0.098560 0.837016 0.405243
O O5 0.139223 0.180408 0.425217
O O6 0.328700 0.010233 0.252695
O O7 0.548069 0.908473 0.160551
O O8 0.750000 0.750000 0.000000
O O9 0.000000 0.500000 0.500000
O O10 0.042994 0.366788 0.574435
#
# Coordination Sequence:
#
# PCOD9306326 Si02
#       5
#     4   8   8   8   8
#     4  12  24  44  72 104 138 184 226 300 354 418
#     4  11  25  47  64 106 137 177 242 279 354 437
#     4  12  25  45  74 103 141 179 239 294 352 423
#     4  11  28  45  70  99 141 189 229 297 360 424
#     4  12  26  45  72 108 137 184 242 291 359 430
#
# _framework density 21.210515000000001
#
# number of rings (size 3 to 8) (size 9 to 14) (size 15 to 20)
#    0.000    0.444    4.444    2.667    9.333    3.556 
#    0.000    0.000    0.000    0.000    0.000    0.000 
#    0.000    0.000    0.000    0.000    0.000    0.000 
#
# Total GULP energy -100807.146615 kJ/mol
# GULP energy per Si atom -5600.397034 kJ/mol
# Density = 2.116224 g / cm^3
# Si number density = 21.210515 Si / 1000 Ang^3
#
#
#
# Elastic Constant Matrix: (Units=GPa)
#
#
# Indices 1 2 3 4 5 6 
#
# 1 47.3828 10.6554 -7.7679 0.0000 5.2468 -0.0002
# 2 10.6554 109.4899 27.2052 0.0000 3.9305 0.0003
# 3 -7.7679 27.2052 73.9973 0.0001 1.3787 0.0000
# 4 0.0000 0.0000 0.0001 37.1378 0.0000 3.6173
# 5 5.2468 3.9305 1.3787 0.0000 44.3249 -0.0001
# 6 -0.0002 0.0003 0.0000 3.6173 -0.0001 30.1120
#
#
#
# Elastic Compliance Matrix: (Units=1/GPa)
#
#
# Indices 1 2 3 4 5 6 
#
# 1 0.022633 -0.002987 0.003521 0.000000 -0.002524 0.000000
# 2 -0.002987 0.010472 -0.004155 0.000000 -0.000446 0.000000
# 3 0.003521 -0.004155 0.015421 0.000000 -0.000528 0.000000
# 4 0.000000 0.000000 0.000000 0.027246 0.000000 -0.003273
# 5 -0.002524 -0.000446 -0.000528 0.000000 0.022915 0.000000
# 6 0.000000 0.000000 0.000000 -0.003273 0.000000 0.033602
#
#
# Mechanical properties :
#
#
# Convention : Reuss Voigt Hill
#
# Bulk Modulus (GPa) = 24.22233 32.33948 28.28091
# Shear Modulus (GPa) = 32.61701 35.70008 34.15854
#
# Velocity S-wave (km/s) = 3.92570 4.10705 4.01740
# Velocity P-wave (km/s) = 5.65623 6.14577 5.90607
#
# Compressibility (1/GPa) = 0.04128422
#
# Stress axis : x y z
#
# Youngs Moduli (GPa) = 44.18305 95.48849 64.84569
#
# Poissons Ratio (x) = 0.28522 -0.22833
# Poissons Ratio (y) = 0.13197 0.26946
# Poissons Ratio (z) = -0.15557 0.39680
#
# Static dielectric constant tensor:
#      x y z
#    x 1.659240 0.000000 -0.052810 
#    y 0.000000 1.738750 0.000000 
#    z -0.052810 0.000000 1.753370 
# 
# From -- ./inp_files/165046.got.cif
#   From: 2010.05.17/outbox.cif.g08.bks.cpg/sg15_83_cif.got.tgz:165046.got - 2010.06.03 18:47:42.
