data_PCOD9306880
_publ_section_title
;
Structure prediction by ZEFSAII (Michael W. Deem and Ramdas Pophale) SiO2 
 PCOD9306880
Probable space group: C 2/C
;
_chemical_formula_sum "Si O2"
_cell_formula_units_Z 32
_cell_length_a 27.875168
_cell_length_b 4.933515
_cell_length_c 9.727132
_cell_angle_alpha 90.000000
_cell_angle_beta 57.375262
_cell_angle_gamma 90.000000
_cell_volume 1126.637366
_symmetry_space_group_name_H-M "C 2/C"
_symmetry_group_IT_number 15
_symmetry_cell_setting 'monoclinic'
loop_
_space_group_symop_operation_xyz
x,y,z
-x,y,1/2-z
-x,-y,-z
x,-y,1/2+z
1/2+x,1/2+y,z
1/2-x,1/2+y,1/2-z
1/2-x,1/2-y,-z
1/2+x,1/2-y,1/2+z
loop_
_atom_site_type_symbol
_atom_site_label
_atom_site_fract_x
_atom_site_fract_y
_atom_site_fract_z
Si Si1 0.754405 0.556003 0.833489
Si Si2 0.942422 0.847140 0.632379
Si Si3 0.438155 0.983434 0.885994
Si Si4 0.654998 0.707504 0.653944
O O1 0.754079 0.864708 0.786989
O O2 0.810610 0.437760 0.818020
O O3 0.701085 0.486682 0.011518
O O4 0.939921 0.763775 0.797128
O O5 0.937285 0.573022 0.549657
O O6 0.887976 0.032974 0.687502
O O7 0.000000 0.000000 0.500000
O O8 0.500000 0.862205 0.750000
O O9 0.384060 0.837456 0.903929
#
# Coordination Sequence:
#
# PCOD9306880 Si02
#       4
#     8   8   8   8
#     4  11  28  51  80 119 162 217 288 351 425 497
#     4  12  29  52  78 120 166 217 275 341 419 507
#     4  12  28  49  80 116 166 215 272 335 419 509
#     4  11  28  48  83 112 163 219 272 349 421 505
#
# _framework density 28.403108
#
# number of rings (size 3 to 8) (size 9 to 14) (size 15 to 20)
#    0.000    0.500    2.500    2.250   14.000    2.000 
#    0.000    0.000    0.000    0.000    0.000    0.000 
#    0.000    0.000    0.000    0.000    0.000    0.000 
#
# Total GULP energy -89883.072760 kJ/mol
# GULP energy per Si atom -5617.692047 kJ/mol
# Density = 2.833846 g / cm^3
# Si number density = 28.403108 Si / 1000 Ang^3
#
#
#
# Elastic Constant Matrix: (Units=GPa)
#
#
# Indices 1 2 3 4 5 6 
#
# 1 189.7561 32.7218 56.6809 0.0000 -18.2227 0.0000
# 2 32.7218 115.0128 37.8094 0.0000 -1.7899 0.0000
# 3 56.6809 37.8094 113.7064 0.0000 -30.2461 0.0000
# 4 0.0000 0.0000 0.0000 56.1426 0.0000 8.7987
# 5 -18.2227 -1.7899 -30.2461 0.0000 54.8513 0.0000
# 6 0.0000 0.0000 0.0000 8.7987 0.0000 40.2726
#
#
#
# Elastic Compliance Matrix: (Units=1/GPa)
#
#
# Indices 1 2 3 4 5 6 
#
# 1 0.006280 -0.000897 -0.002678 0.000000 0.000581 0.000000
# 2 -0.000897 0.010031 -0.003376 0.000000 -0.001832 0.000000
# 3 -0.002678 -0.003376 0.012874 0.000000 0.006099 0.000000
# 4 0.000000 0.000000 0.000000 0.018443 0.000000 -0.004029
# 5 0.000581 -0.001832 0.006099 0.000000 0.021728 0.000000
# 6 0.000000 0.000000 0.000000 -0.004029 0.000000 0.025711
#
#
# Mechanical properties :
#
#
# Convention : Reuss Voigt Hill
#
# Bulk Modulus (GPa) = 65.42693 74.76660 70.09677
# Shear Modulus (GPa) = 43.83505 49.67083 46.75294
#
# Velocity S-wave (km/s) = 3.93277 4.18638 4.06156
# Velocity P-wave (km/s) = 6.61116 7.05324 6.83577
#
# Compressibility (1/GPa) = 0.01528423
#
# Stress axis : x y z
#
# Youngs Moduli (GPa) = 159.22815 99.68920 77.67430
#
# Poissons Ratio (x) = 0.08947 0.20799
# Poissons Ratio (y) = 0.14290 0.26219
# Poissons Ratio (z) = 0.42638 0.33650
#
# Static dielectric constant tensor:
#      x y z
#    x 2.181910 0.000000 0.058620 
#    y 0.000000 2.197800 0.000000 
#    z 0.058620 0.000000 2.199910 
# 
# From -- ./inp_files/120542.got.cif
#   From: 2010.05.17/outbox.cif.g08.bks.cpg/sg15_61_cif.got.tgz:120542.got - 2010.06.03 18:47:42.
