data_PCOD9306258
_publ_section_title
;
Structure prediction by ZEFSAII (Michael W. Deem and Ramdas Pophale) SiO2 
 PCOD9306258
Probable space group: C 2/C
;
_chemical_formula_sum "Si O2"
_cell_formula_units_Z 44
_cell_length_a 23.291127
_cell_length_b 8.523357
_cell_length_c 12.991308
_cell_angle_alpha 90.000000
_cell_angle_beta 127.804885
_cell_angle_gamma 90.000000
_cell_volume 2037.687762
_symmetry_space_group_name_H-M "C 2/C"
_symmetry_group_IT_number 15
_symmetry_cell_setting 'monoclinic'
loop_
_space_group_symop_operation_xyz
x,y,z
-x,y,1/2-z
-x,-y,-z
x,-y,1/2+z
1/2+x,1/2+y,z
1/2-x,1/2+y,1/2-z
1/2-x,1/2-y,-z
1/2+x,1/2-y,1/2+z
loop_
_atom_site_type_symbol
_atom_site_label
_atom_site_fract_x
_atom_site_fract_y
_atom_site_fract_z
Si Si1 0.085455 0.776902 0.823597
Si Si2 0.175892 0.386600 0.599400
Si Si3 0.000000 0.692772 0.250000
Si Si4 0.359086 0.624085 0.586544
Si Si5 0.068874 0.481760 0.149449
Si Si6 0.261885 0.302187 0.165424
O O1 0.088754 0.687705 0.718072
O O2 0.000000 0.801389 0.750000
O O3 0.126691 0.941515 0.877896
O O4 0.120979 0.667123 0.950402
O O5 0.134121 0.456732 0.651934
O O6 0.226498 0.526254 0.615542
O O7 0.217348 0.239060 0.695033
O O8 0.935529 0.800691 0.134464
O O9 0.957444 0.583847 0.282726
O O10 0.330104 0.695730 0.662645
O O11 0.296379 0.673836 0.438088
O O12 0.000000 0.500000 0.000000
#
# Coordination Sequence:
#
# PCOD9306258 Si02
#       6
#     8   8   4   8   8   8
#     4  12  25  45  70 107 141 184 238 297 356 421
#     4  12  26  46  71 103 143 191 242 290 361 429
#     4  12  22  46  72 100 142 184 232 300 356 414
#     4  11  25  46  72 101 145 186 238 299 356 422
#     4  12  23  43  71 102 138 185 234 293 359 421
#     4  11  26  47  69 105 143 192 238 291 359 431
#
# _framework density 21.593101999999998
#
# number of rings (size 3 to 8) (size 9 to 14) (size 15 to 20)
#    0.000    0.364    5.455    3.273    5.091    0.727 
#    3.273    2.727    0.000    0.000    0.000    0.000 
#    0.000    0.000    0.000    0.000    0.000    0.000 
#
# Total GULP energy -122979.715349 kJ/mol
# GULP energy per Si atom -5589.987061 kJ/mol
# Density = 2.154395 g / cm^3
# Si number density = 21.593102 Si / 1000 Ang^3
#
#
#
# Elastic Constant Matrix: (Units=GPa)
#
#
# Indices 1 2 3 4 5 6 
#
# 1 76.4906 9.6031 1.3905 0.0000 19.7124 0.0000
# 2 9.6031 77.1119 33.6578 0.0000 17.4768 0.0000
# 3 1.3905 33.6578 108.9807 0.0000 10.7753 0.0000
# 4 0.0000 0.0000 0.0000 39.6789 0.0000 6.2656
# 5 19.7124 17.4768 10.7753 0.0000 22.4526 0.0000
# 6 0.0000 0.0000 0.0000 6.2656 0.0000 32.7379
#
#
#
# Elastic Compliance Matrix: (Units=1/GPa)
#
#
# Indices 1 2 3 4 5 6 
#
# 1 0.017150 0.001129 0.001058 0.000000 -0.016444 0.000000
# 2 0.001129 0.017509 -0.004174 0.000000 -0.012617 0.000000
# 3 0.001058 -0.004174 0.010731 0.000000 -0.002830 0.000000
# 4 0.000000 0.000000 0.000000 0.025988 0.000000 -0.004974
# 5 -0.016444 -0.012617 -0.002830 0.000000 0.070154 0.000000
# 6 0.000000 0.000000 0.000000 -0.004974 0.000000 0.031498
#
#
# Mechanical properties :
#
#
# Convention : Reuss Voigt Hill
#
# Bulk Modulus (GPa) = 24.14477 39.09846 31.62161
# Shear Modulus (GPa) = 26.20409 33.50267 29.85338
#
# Velocity S-wave (km/s) = 3.48737 3.94324 3.72229
# Velocity P-wave (km/s) = 5.23657 6.23526 5.75761
#
# Compressibility (1/GPa) = 0.04141684
#
# Stress axis : x y z
#
# Youngs Moduli (GPa) = 58.30810 57.11313 93.18368
#
# Poissons Ratio (x) = -0.06449 -0.09862
# Poissons Ratio (y) = -0.06584 0.38899
# Poissons Ratio (z) = -0.06171 0.23842
#
# Static dielectric constant tensor:
#      x y z
#    x 1.790530 0.000000 0.001400 
#    y 0.000000 1.814360 0.000000 
#    z 0.001400 0.000000 1.799280 
# 
# From -- ./inp_files/116859.got.cif
#   From: 2010.05.17/outbox.cif.g08.bks.cpg/sg15_59_cif.got.tgz:116859.got - 2010.06.03 18:47:42.
