data_PCOD9306643
_publ_section_title
;
Structure prediction by ZEFSAII (Michael W. Deem and Ramdas Pophale) SiO2 
 PCOD9306643
Probable space group: C 2/C
;
_chemical_formula_sum "Si O2"
_cell_formula_units_Z 48
_cell_length_a 4.850703
_cell_length_b 14.077626
_cell_length_c 27.757244
_cell_angle_alpha 90.000000
_cell_angle_beta 103.423859
_cell_angle_gamma 90.000000
_cell_volume 1843.656970
_symmetry_space_group_name_H-M "C 2/C"
_symmetry_group_IT_number 15
_symmetry_cell_setting 'monoclinic'
loop_
_space_group_symop_operation_xyz
x,y,z
-x,y,1/2-z
-x,-y,-z
x,-y,1/2+z
1/2+x,1/2+y,z
1/2-x,1/2+y,1/2-z
1/2-x,1/2-y,-z
1/2+x,1/2-y,1/2+z
loop_
_atom_site_type_symbol
_atom_site_label
_atom_site_fract_x
_atom_site_fract_y
_atom_site_fract_z
Si Si1 0.333454 0.690643 0.588113
Si Si2 0.661446 0.957258 0.661929
Si Si3 0.196587 0.156169 0.805144
Si Si4 0.238640 0.596305 0.962742
Si Si5 0.728283 0.364078 0.704016
Si Si6 0.971601 0.394360 0.941645
O O1 0.443725 0.674375 0.647553
O O2 0.483083 0.623507 0.554935
O O3 0.388658 0.796504 0.570691
O O4 0.007850 0.657064 0.574306
O O5 0.379054 0.899401 0.661726
O O6 0.721094 0.937710 0.608662
O O7 0.944475 0.921812 0.699310
O O8 0.616926 0.063510 0.678480
O O9 0.355811 0.254251 0.801118
O O10 0.000000 0.141393 0.750000
O O11 0.182039 0.483372 0.958602
O O12 0.203040 0.624819 0.016925
O O13 0.000000 0.374736 0.750000
#
# Coordination Sequence:
#
# PCOD9306643 Si02
#       6
#     8   8   8   8   8   8
#     4  12  26  47  74 105 145 190 240 296 355 428
#     4  12  26  45  73 104 141 185 236 296 354 423
#     4  11  26  47  73 105 143 189 241 296 359 424
#     4  11  28  48  73 110 145 190 238 294 363 431
#     4  11  26  47  71 101 140 188 240 293 353 420
#     4  11  26  47  77 107 147 189 238 296 361 429
#
# _framework density 26.035212000000001
#
# number of rings (size 3 to 8) (size 9 to 14) (size 15 to 20)
#    0.000    0.667    3.333    2.500    4.667    6.667 
#    0.000    2.500    0.000    0.000    0.000    0.000 
#    0.000    0.000    0.000    0.000    0.000    0.000 
#
# Total GULP energy -134424.579339 kJ/mol
# GULP energy per Si atom -5601.024139 kJ/mol
# Density = 2.597595 g / cm^3
# Si number density = 26.035212 Si / 1000 Ang^3
#
#
#
# Elastic Constant Matrix: (Units=GPa)
#
#
# Indices 1 2 3 4 5 6 
#
# 1 73.3372 19.9091 6.6042 0.0000 8.6529 0.0000
# 2 19.9091 137.9756 34.6007 0.0000 2.0754 0.0000
# 3 6.6042 34.6007 160.1945 0.0000 -8.3827 0.0000
# 4 0.0000 0.0000 0.0000 17.1336 0.0000 15.0995
# 5 8.6529 2.0754 -8.3827 0.0000 28.3992 0.0000
# 6 0.0000 0.0000 0.0000 15.0995 0.0000 -12.7579
#
#
#
# Elastic Compliance Matrix: (Units=1/GPa)
#
#
# Indices 1 2 3 4 5 6 
#
# 1 0.014731 -0.001953 -0.000419 0.000000 -0.004469 0.000000
# 2 -0.001953 0.007954 -0.001662 0.000000 -0.000477 0.000000
# 3 -0.000419 -0.001662 0.006736 0.000000 0.002237 0.000000
# 4 0.000000 0.000000 0.000000 0.028568 0.000000 0.033811
# 5 -0.004469 -0.000477 0.002237 0.000000 0.037269 0.000000
# 6 0.000000 0.000000 0.000000 0.033811 0.000000 -0.038366
#
#
# Mechanical properties :
#
#
# Convention : Reuss Voigt Hill
#
# Bulk Modulus (GPa) = 46.83694 54.85948 50.84821
# Shear Modulus (GPa) = 69.36925 27.24786 48.30855
#
# Velocity S-wave (km/s) = 5.16742 3.23859 4.31223
# Velocity P-wave (km/s) = 7.32338 5.92467 6.66084
#
# Compressibility (1/GPa) = 0.02135067
#
# Stress axis : x y z
#
# Youngs Moduli (GPa) = 67.88412 125.73018 148.45981
#
# Poissons Ratio (x) = 0.24558 0.06225
# Poissons Ratio (y) = 0.13259 0.24679
# Poissons Ratio (z) = 0.02846 0.20900
#
# Static dielectric constant tensor:
#      x y z
#    x 2.018610 0.000000 -0.143260 
#    y 0.000000 1.997270 0.000000 
#    z -0.143260 0.000000 2.514300 
# 
# From -- ./inp_files/305239.got.cif
#   From: 2010.05.17/outbox.cif.g08.bks.cpg/sg15_153_cif.got.tgz:305239.got - 2010.06.03 18:47:42.
