data_PCOD9306184
_publ_section_title
;
Structure prediction by ZEFSAII (Michael W. Deem and Ramdas Pophale) SiO2 
 PCOD9306184
Probable space group: C 2/C
;
_chemical_formula_sum "Si O2"
_cell_formula_units_Z 32
_cell_length_a 6.580337
_cell_length_b 22.690103
_cell_length_c 10.359100
_cell_angle_alpha 90.000000
_cell_angle_beta 64.760119
_cell_angle_gamma 90.000000
_cell_volume 1399.039024
_symmetry_space_group_name_H-M "C 2/C"
_symmetry_group_IT_number 15
_symmetry_cell_setting 'monoclinic'
loop_
_space_group_symop_operation_xyz
x,y,z
-x,y,1/2-z
-x,-y,-z
x,-y,1/2+z
1/2+x,1/2+y,z
1/2-x,1/2+y,1/2-z
1/2-x,1/2-y,-z
1/2+x,1/2-y,1/2+z
loop_
_atom_site_type_symbol
_atom_site_label
_atom_site_fract_x
_atom_site_fract_y
_atom_site_fract_z
Si Si1 0.737828 0.445908 0.309056
Si Si2 0.000000 0.344116 0.750000
Si Si3 0.000000 0.852148 0.250000
Si Si4 0.422663 0.420291 0.631518
Si Si5 0.736638 0.744463 0.852387
O O1 0.696342 0.401373 0.200304
O O2 0.614339 0.420247 0.470279
O O3 0.644148 0.511875 0.323828
O O4 0.000000 0.450566 0.250000
O O5 0.202487 0.385043 0.645075
O O6 0.119238 0.301588 0.821382
O O7 0.078297 0.808145 0.341706
O O8 0.500000 0.395921 0.750000
O O9 0.000000 0.735466 0.750000
O O10 0.750000 0.750000 0.000000
#
# Coordination Sequence:
#
# PCOD9306184 Si02
#       5
#     8   4   4   8   8
#     4  11  25  46  71 109 153 195 241 300 369 441
#     4  11  26  46  78 106 148 191 248 306 366 429
#     4  11  26  46  74 106 150 189 240 302 372 427
#     4  11  25  45  73 110 149 197 246 296 366 445
#     4  11  28  50  75 105 144 195 250 305 364 435
#
# _framework density 22.872844000000001
#
# number of rings (size 3 to 8) (size 9 to 14) (size 15 to 20)
#    0.000    1.000    2.500    1.500   10.500    5.000 
#    0.000    0.000    0.000    0.000    0.000    0.000 
#    0.000    0.000    0.000    0.000    0.000    0.000 
#
# Total GULP energy -89313.846241 kJ/mol
# GULP energy per Si atom -5582.115390 kJ/mol
# Density = 2.282078 g / cm^3
# Si number density = 22.872844 Si / 1000 Ang^3
#
#
#
# Elastic Constant Matrix: (Units=GPa)
#
#
# Indices 1 2 3 4 5 6 
#
# 1 142.4131 47.7272 99.8345 0.0000 10.5279 0.0000
# 2 47.7272 148.9843 54.1373 0.0000 15.1290 0.0000
# 3 99.8345 54.1373 120.6058 0.0000 -4.7088 0.0000
# 4 0.0000 0.0000 0.0000 13.0005 0.0000 -14.4257
# 5 10.5279 15.1290 -4.7088 0.0000 47.4456 0.0000
# 6 0.0000 0.0000 0.0000 -14.4257 0.0000 96.2244
#
#
#
# Elastic Compliance Matrix: (Units=1/GPa)
#
#
# Indices 1 2 3 4 5 6 
#
# 1 0.018076 0.000359 -0.015344 0.000000 -0.005648 0.000000
# 2 0.000359 0.008454 -0.004216 0.000000 -0.003194 0.000000
# 3 -0.015344 -0.004216 0.023161 0.000000 0.007048 0.000000
# 4 0.000000 0.000000 0.000000 0.092269 0.000000 0.013833
# 5 -0.005648 -0.003194 0.007048 0.000000 0.024048 0.000000
# 6 0.000000 0.000000 0.000000 0.013833 0.000000 0.012466
#
#
# Mechanical properties :
#
#
# Convention : Reuss Voigt Hill
#
# Bulk Modulus (GPa) = 88.60039 90.60016 89.60028
# Shear Modulus (GPa) = 22.66146 45.35437 34.00791
#
# Velocity S-wave (km/s) = 3.15105 4.45780 3.86012
# Velocity P-wave (km/s) = 7.21519 8.13586 7.68932
#
# Compressibility (1/GPa) = 0.01128663
#
# Stress axis : x y z
#
# Youngs Moduli (GPa) = 55.32279 118.29283 43.17650
#
# Poissons Ratio (x) = -0.04243 0.66251
# Poissons Ratio (y) = -0.01984 0.18204
# Poissons Ratio (z) = 0.84888 0.49875
#
# Static dielectric constant tensor:
#      x y z
#    x 1.887500 0.000000 0.024250 
#    y 0.000000 1.875870 0.000000 
#    z 0.024250 0.000000 1.890640 
# 
# From -- ./inp_files/72397.got.cif
#   From: 2010.05.17/outbox.cif.g08.bks.cpg/sg15_37_cif.got.tgz:72397.got - 2010.06.03 18:47:42.
