data_PCOD9306044
_publ_section_title
;
Structure prediction by ZEFSAII (Michael W. Deem and Ramdas Pophale) SiO2 
 PCOD9306044
Probable space group: C 2/C
;
_chemical_formula_sum "Si O2"
_cell_formula_units_Z 48
_cell_length_a 14.910234
_cell_length_b 14.388704
_cell_length_c 30.538096
_cell_angle_alpha 90.000000
_cell_angle_beta 160.905218
_cell_angle_gamma 90.000000
_cell_volume 2143.240513
_symmetry_space_group_name_H-M "C 2/C"
_symmetry_group_IT_number 15
_symmetry_cell_setting 'monoclinic'
loop_
_space_group_symop_operation_xyz
x,y,z
-x,y,1/2-z
-x,-y,-z
x,-y,1/2+z
1/2+x,1/2+y,z
1/2-x,1/2+y,1/2-z
1/2-x,1/2-y,-z
1/2+x,1/2-y,1/2+z
loop_
_atom_site_type_symbol
_atom_site_label
_atom_site_fract_x
_atom_site_fract_y
_atom_site_fract_z
Si Si1 0.551237 0.054358 0.568873
Si Si2 0.692376 0.952043 0.721438
Si Si3 0.500000 0.702999 0.750000
Si Si4 0.500000 0.274482 0.750000
Si Si5 0.905314 0.719343 0.007670
Si Si6 0.102577 0.802532 0.892436
Si Si7 0.618822 0.399628 0.448682
O O1 0.278034 0.105858 0.459804
O O2 0.773883 0.135127 0.666195
O O3 0.500000 0.000000 0.500000
O O4 0.672881 0.990461 0.663019
O O5 0.380104 0.945626 0.592940
O O6 0.821345 0.848915 0.779677
O O7 0.881741 0.025645 0.833539
O O8 0.316690 0.755083 0.630072
O O9 0.569433 0.242468 0.832461
O O10 0.806632 0.313926 0.880398
O O11 0.971832 0.807145 0.068486
O O12 0.746080 0.639980 0.961600
O O13 0.250000 0.750000 0.000000
#
# Coordination Sequence:
#
# PCOD9306044 Si02
#       7
#     8   8   4   4   8   8   8
#     4  12  23  40  65 106 141 177 229 297 370 433
#     4  12  23  42  67 101 140 183 229 291 355 432
#     4  12  22  39  66  99 134 176 224 292 355 426
#     4  12  24  45  70 105 144 186 240 290 355 442
#     4  11  25  43  69 101 140 185 238 292 355 438
#     4  12  27  41  69 109 146 187 235 300 374 439
#     4  11  25  43  69  99 139 185 235 291 357 428
#
# _framework density 22.395993000000001
#
# number of rings (size 3 to 8) (size 9 to 14) (size 15 to 20)
#    0.000    0.333    6.667    3.000    4.667    0.000 
#    0.000    0.000    0.000    9.000    0.000    0.000 
#    0.000    0.000    0.000    0.000    0.000    0.000 
#
# Total GULP energy -133888.191059 kJ/mol
# GULP energy per Si atom -5578.674627 kJ/mol
# Density = 2.234502 g / cm^3
# Si number density = 22.395993 Si / 1000 Ang^3
#
#
#
# Elastic Constant Matrix: (Units=GPa)
#
#
# Indices 1 2 3 4 5 6 
#
# 1 60.0410 25.3191 37.9767 -0.0019 -12.6763 0.0010
# 2 25.3191 75.8474 42.7776 0.0003 -7.4648 0.0053
# 3 37.9767 42.7776 152.4805 -0.0320 0.2669 0.0398
# 4 -0.0019 0.0003 -0.0320 53.5748 0.0397 -5.6876
# 5 -12.6763 -7.4648 0.2669 0.0397 45.0741 -0.0012
# 6 0.0010 0.0053 0.0398 -5.6876 -0.0012 21.3560
#
#
#
# Elastic Compliance Matrix: (Units=1/GPa)
#
#
# Indices 1 2 3 4 5 6 
#
# 1 0.022487 -0.004503 -0.004347 -0.000005 0.005604 0.000007
# 2 -0.004503 0.016880 -0.003617 -0.000003 0.001550 0.000002
# 3 -0.004347 -0.003617 0.008659 0.000005 -0.001873 -0.000014
# 4 -0.000005 -0.000003 0.000005 0.019209 -0.000019 0.005116
# 5 0.005604 0.001550 -0.001873 -0.000019 0.024030 -0.000001
# 6 0.000007 0.000002 -0.000014 0.005116 -0.000001 0.048188
#
#
# Mechanical properties :
#
#
# Convention : Reuss Voigt Hill
#
# Bulk Modulus (GPa) = 43.30541 55.61283 49.45912
# Shear Modulus (GPa) = 29.05568 36.15399 32.60484
#
# Velocity S-wave (km/s) = 3.60580 4.02220 3.81968
# Velocity P-wave (km/s) = 6.05920 6.81589 6.44865
#
# Compressibility (1/GPa) = 0.02309180
#
# Stress axis : x y z
#
# Youngs Moduli (GPa) = 44.47004 59.24146 115.48901
#
# Poissons Ratio (x) = 0.26678 0.50204
# Poissons Ratio (y) = 0.20026 0.41769
# Poissons Ratio (z) = 0.19331 0.21426
#
# Static dielectric constant tensor:
#      x y z
#    x 1.750020 0.000010 -0.105300 
#    y 0.000010 1.850760 0.000000 
#    z -0.105300 0.000000 1.823240 
# 
# From -- ./inp_files/314186.got.cif
#   From: 2010.05.17/outbox.cif.g08.bks.cpg/sg15_158_cif.got.tgz:314186.got - 2010.06.03 18:47:42.
