data_PCOD9306611
_publ_section_title
;
Structure prediction by ZEFSAII (Michael W. Deem and Ramdas Pophale) SiO2 
 PCOD9306611
Probable space group: C 2/C
;
_chemical_formula_sum "Si O2"
_cell_formula_units_Z 40
_cell_length_a 18.469085
_cell_length_b 5.324942
_cell_length_c 18.541922
_cell_angle_alpha 90.000000
_cell_angle_beta 77.117075
_cell_angle_gamma 90.000000
_cell_volume 1777.636116
_symmetry_space_group_name_H-M "C 2/C"
_symmetry_group_IT_number 15
_symmetry_cell_setting 'monoclinic'
loop_
_space_group_symop_operation_xyz
x,y,z
-x,y,1/2-z
-x,-y,-z
x,-y,1/2+z
1/2+x,1/2+y,z
1/2-x,1/2+y,1/2-z
1/2-x,1/2-y,-z
1/2+x,1/2-y,1/2+z
loop_
_atom_site_type_symbol
_atom_site_label
_atom_site_fract_x
_atom_site_fract_y
_atom_site_fract_z
Si Si1 0.582937 0.703382 0.265519
Si Si2 0.551923 0.325014 0.036255
Si Si3 0.677672 0.023898 0.463762
Si Si4 0.336326 0.373484 0.897340
Si Si5 0.586849 0.807068 0.858533
O O1 0.500000 0.730160 0.250000
O O2 0.643350 0.692016 0.188166
O O3 0.584417 0.447798 0.312473
O O4 0.601957 0.949388 0.307447
O O5 0.592801 0.481184 0.088363
O O6 0.493989 0.141355 0.087644
O O7 0.500000 0.500000 0.000000
O O8 0.617440 0.195565 0.977686
O O9 0.675697 0.143891 0.544094
O O10 0.761539 0.963688 0.423423
O O11 0.645981 0.214018 0.410399
#
# Coordination Sequence:
#
# PCOD9306611 Si02
#       5
#     8   8   8   8   8
#     4  12  26  46  71 109 143 192 241 305 365 438
#     4  12  23  45  74 110 141 192 251 309 359 441
#     4  11  26  46  72 106 144 195 242 305 368 439
#     4  11  26  46  72 105 148 190 244 304 370 439
#     4  12  26  45  75 103 148 188 248 296 367 433
#
# _framework density 22.501795999999999
#
# number of rings (size 3 to 8) (size 9 to 14) (size 15 to 20)
#    0.000    0.400    4.000    4.200    2.800    1.600 
#    0.000    0.000    0.000    0.000    0.000    0.000 
#    0.000    0.000    0.000    0.000    0.000    0.000 
#
# Total GULP energy -111955.325212 kJ/mol
# GULP energy per Si atom -5597.766261 kJ/mol
# Density = 2.245058 g / cm^3
# Si number density = 22.501796 Si / 1000 Ang^3
#
#
#
# Elastic Constant Matrix: (Units=GPa)
#
#
# Indices 1 2 3 4 5 6 
#
# 1 116.2377 28.4853 52.8287 0.0000 -17.2465 0.0000
# 2 28.4853 97.6368 48.5518 0.0000 0.1455 0.0000
# 3 52.8287 48.5518 142.3047 0.0000 -21.1513 0.0000
# 4 0.0000 0.0000 0.0000 29.3142 0.0000 -6.5271
# 5 -17.2465 0.1455 -21.1513 0.0000 30.6583 0.0000
# 6 0.0000 0.0000 0.0000 -6.5271 0.0000 25.3659
#
#
#
# Elastic Compliance Matrix: (Units=1/GPa)
#
#
# Indices 1 2 3 4 5 6 
#
# 1 0.010954 -0.001797 -0.002826 0.000000 0.004221 0.000000
# 2 -0.001797 0.012937 -0.004352 0.000000 -0.004075 0.000000
# 3 -0.002826 -0.004352 0.010394 0.000000 0.005602 0.000000
# 4 0.000000 0.000000 0.000000 0.036186 0.000000 0.009311
# 5 0.004221 -0.004075 0.005602 0.000000 0.038876 0.000000
# 6 0.000000 0.000000 0.000000 0.009311 0.000000 0.041819
#
#
# Mechanical properties :
#
#
# Convention : Reuss Voigt Hill
#
# Bulk Modulus (GPa) = 61.22202 68.43452 64.82827
# Shear Modulus (GPa) = 28.64322 32.15522 30.39922
#
# Velocity S-wave (km/s) = 3.57169 3.78432 3.67954
# Velocity P-wave (km/s) = 6.65402 7.04086 6.85017
#
# Compressibility (1/GPa) = 0.01633399
#
# Stress axis : x y z
#
# Youngs Moduli (GPa) = 91.29003 77.29998 96.21023
#
# Poissons Ratio (x) = 0.13889 0.27191
# Poissons Ratio (y) = 0.16402 0.41874
# Poissons Ratio (z) = 0.25800 0.33644
#
# Static dielectric constant tensor:
#      x y z
#    x 1.843430 0.000000 -0.064910 
#    y 0.000000 1.890450 0.000000 
#    z -0.064910 0.000000 2.049200 
# 
# From -- ./inp_files/207998.got.cif
#   From: 2010.05.17/outbox.cif.g08.bks.cpg/sg15_104_cif.got.tgz:207998.got - 2010.06.03 18:47:42.
