data_PCOD9306517
_publ_section_title
;
Structure prediction by ZEFSAII (Michael W. Deem and Ramdas Pophale) SiO2 
 PCOD9306517
Probable space group: C 2/C
;
_chemical_formula_sum "Si O2"
_cell_formula_units_Z 48
_cell_length_a 20.348819
_cell_length_b 16.812962
_cell_length_c 17.772253
_cell_angle_alpha 90.000000
_cell_angle_beta 159.749183
_cell_angle_gamma 90.000000
_cell_volume 2104.581340
_symmetry_space_group_name_H-M "C 2/C"
_symmetry_group_IT_number 15
_symmetry_cell_setting 'monoclinic'
loop_
_space_group_symop_operation_xyz
x,y,z
-x,y,1/2-z
-x,-y,-z
x,-y,1/2+z
1/2+x,1/2+y,z
1/2-x,1/2+y,1/2-z
1/2-x,1/2-y,-z
1/2+x,1/2-y,1/2+z
loop_
_atom_site_type_symbol
_atom_site_label
_atom_site_fract_x
_atom_site_fract_y
_atom_site_fract_z
Si Si1 0.830900 0.848902 0.351545
Si Si2 0.277799 0.343698 0.017271
Si Si3 0.250802 0.826842 0.818313
Si Si4 0.435975 0.898710 0.565907
Si Si5 0.912534 0.428589 0.303451
Si Si6 0.286995 0.344180 0.547286
O O1 0.793306 0.767051 0.357300
O O2 0.774121 0.922023 0.345035
O O3 0.051421 0.847276 0.566227
O O4 0.694737 0.853774 0.134055
O O5 0.500000 0.362183 0.250000
O O6 0.250000 0.250000 0.000000
O O7 0.182300 0.391704 0.983462
O O8 0.144265 0.361809 0.802729
O O9 0.230617 0.856561 0.882767
O O10 0.437602 0.871927 0.992515
O O11 0.483971 0.988277 0.594437
O O12 0.851206 0.392109 0.156893
O O13 0.500000 0.361610 0.750000
O O14 0.250000 0.250000 0.500000
#
# Coordination Sequence:
#
# PCOD9306517 Si02
#       6
#     8   8   8   8   8   8
#     4  12  25  45  68 104 148 194 244 284 362 445
#     4  11  25  50  79 107 131 184 250 298 363 428
#     4  12  24  40  71 103 139 197 243 287 356 429
#     4  11  29  46  75 110 145 184 235 316 368 422
#     4  12  26  45  68 107 151 186 240 306 360 419
#     4  12  21  39  68  99 142 192 246 288 336 431
#
# _framework density 22.807386000000001
#
# number of rings (size 3 to 8) (size 9 to 14) (size 15 to 20)
#    0.000    0.333    6.667    2.000    7.000    4.000 
#    0.000    0.000    0.000    0.000    0.000    0.000 
#    0.000    0.000    0.000    0.000    0.000    0.000 
#
# Total GULP energy -134278.729975 kJ/mol
# GULP energy per Si atom -5594.947082 kJ/mol
# Density = 2.275548 g / cm^3
# Si number density = 22.807386 Si / 1000 Ang^3
#
#
#
# Elastic Constant Matrix: (Units=GPa)
#
#
# Indices 1 2 3 4 5 6 
#
# 1 36.1899 -3.2116 28.8364 -0.0253 0.5416 -0.0271
# 2 -3.2116 79.8878 25.2688 -0.0155 9.3986 -0.0256
# 3 28.8364 25.2688 196.2847 -0.0077 4.7029 -0.0120
# 4 -0.0253 -0.0155 -0.0077 22.8057 -0.0033 -4.8982
# 5 0.5416 9.3986 4.7029 -0.0033 46.3368 -0.0071
# 6 -0.0271 -0.0256 -0.0120 -4.8982 -0.0071 11.0367
#
#
#
# Elastic Compliance Matrix: (Units=1/GPa)
#
#
# Indices 1 2 3 4 5 6 
#
# 1 0.031930 0.002937 -0.005058 0.000058 -0.000456 0.000105
# 2 0.002937 0.013610 -0.002122 0.000021 -0.002580 0.000044
# 3 -0.005058 -0.002122 0.006114 -0.000008 -0.000131 -0.000014
# 4 0.000058 0.000021 -0.000008 0.048469 0.000003 0.021511
# 5 -0.000456 -0.002580 -0.000131 0.000003 0.022123 0.000008
# 6 0.000105 0.000044 -0.000014 0.021511 0.000008 0.100154
#
#
# Mechanical properties :
#
#
# Convention : Reuss Voigt Hill
#
# Bulk Modulus (GPa) = 23.16490 46.01662 34.59076
# Shear Modulus (GPa) = 20.38528 33.46710 26.92619
#
# Velocity S-wave (km/s) = 2.99290 3.83480 3.43970
# Velocity P-wave (km/s) = 4.70341 6.31091 5.56550
#
# Compressibility (1/GPa) = 0.04316875
#
# Stress axis : x y z
#
# Youngs Moduli (GPa) = 31.31858 73.47402 163.55874
#
# Poissons Ratio (x) = -0.21580 0.82729
# Poissons Ratio (y) = -0.09199 0.34704
# Poissons Ratio (z) = 0.15841 0.15590
#
# Static dielectric constant tensor:
#      x y z
#    x 1.881260 -0.000110 -0.010080 
#    y -0.000110 1.853900 -0.000050 
#    z -0.010080 -0.000050 1.853740 
# 
# From -- ./inp_files/216286.got.cif
#   From: 2010.05.17/outbox.cif.g08.bks.cpg/sg15_109_cif.got.tgz:216286.got - 2010.06.03 18:47:42.
