data_PCOD9306155
_publ_section_title
;
Structure prediction by ZEFSAII (Michael W. Deem and Ramdas Pophale) SiO2 
 PCOD9306155
Probable space group: C 2/C
;
_chemical_formula_sum "Si O2"
_cell_formula_units_Z 44
_cell_length_a 16.303058
_cell_length_b 15.303503
_cell_length_c 9.407144
_cell_angle_alpha 90.000000
_cell_angle_beta 57.157924
_cell_angle_gamma 90.000000
_cell_volume 1971.896641
_symmetry_space_group_name_H-M "C 2/C"
_symmetry_group_IT_number 15
_symmetry_cell_setting 'monoclinic'
loop_
_space_group_symop_operation_xyz
x,y,z
-x,y,1/2-z
-x,-y,-z
x,-y,1/2+z
1/2+x,1/2+y,z
1/2-x,1/2+y,1/2-z
1/2-x,1/2-y,-z
1/2+x,1/2-y,1/2+z
loop_
_atom_site_type_symbol
_atom_site_label
_atom_site_fract_x
_atom_site_fract_y
_atom_site_fract_z
Si Si1 0.733241 0.008447 0.104479
Si Si2 0.670179 0.673160 0.905748
Si Si3 0.000000 0.249404 0.250000
Si Si4 0.106870 0.506410 0.967875
Si Si5 0.127683 0.293138 0.383894
Si Si6 0.108654 0.853353 0.146277
O O1 0.795990 0.925062 0.091318
O O2 0.680660 0.043907 0.294158
O O3 0.642090 0.978451 0.090792
O O4 0.806798 0.077359 0.967179
O O5 0.771598 0.725782 0.794918
O O6 0.625900 0.680851 0.789198
O O7 0.590628 0.697553 0.097210
O O8 0.956862 0.297869 0.154030
O O9 0.131950 0.609991 0.944812
O O10 0.000000 0.500000 0.000000
O O11 0.112089 0.222583 0.523235
O O12 0.000000 0.893305 0.250000
#
# Coordination Sequence:
#
# PCOD9306155 Si02
#       6
#     8   8   4   8   8   8
#     4  11  25  45  71 106 138 186 236 298 345 425
#     4  11  26  47  68 106 142 187 239 288 360 424
#     4  12  26  44  74 104 140 188 228 304 354 422
#     4  11  26  46  72 103 143 188 239 287 358 423
#     4  11  26  46  71 103 145 183 236 295 352 426
#     4  12  25  47  74 105 143 188 240 293 362 426
#
# _framework density 22.313541000000001
#
# number of rings (size 3 to 8) (size 9 to 14) (size 15 to 20)
#    0.000    0.727    5.455    1.636    8.909    3.636 
#    0.000    0.000    0.000    0.000    0.000    0.000 
#    0.000    0.000    0.000    0.000    0.000    0.000 
#
# Total GULP energy -122855.235539 kJ/mol
# GULP energy per Si atom -5584.328888 kJ/mol
# Density = 2.226275 g / cm^3
# Si number density = 22.313541 Si / 1000 Ang^3
#
#
#
# Elastic Constant Matrix: (Units=GPa)
#
#
# Indices 1 2 3 4 5 6 
#
# 1 141.3849 31.6264 17.7599 0.0000 4.1541 0.0000
# 2 31.6264 42.9948 36.5682 0.0000 -5.1590 0.0000
# 3 17.7599 36.5682 104.5146 0.0000 -2.4610 0.0000
# 4 0.0000 0.0000 0.0000 29.0736 0.0000 3.9074
# 5 4.1541 -5.1590 -2.4610 0.0000 47.7998 0.0000
# 6 0.0000 0.0000 0.0000 3.9074 0.0000 23.3226
#
#
#
# Elastic Compliance Matrix: (Units=1/GPa)
#
#
# Indices 1 2 3 4 5 6 
#
# 1 0.008653 -0.007496 0.001117 0.000000 -0.001504 0.000000
# 2 -0.007496 0.040035 -0.012632 0.000000 0.004322 0.000000
# 3 0.001117 -0.012632 0.013780 0.000000 -0.000751 0.000000
# 4 0.000000 0.000000 0.000000 0.035188 0.000000 -0.005895
# 5 -0.001504 0.004322 -0.000751 0.000000 0.021479 0.000000
# 6 0.000000 0.000000 0.000000 -0.005895 0.000000 0.043865
#
#
# Mechanical properties :
#
#
# Convention : Reuss Voigt Hill
#
# Bulk Modulus (GPa) = 40.90529 51.20037 46.05283
# Shear Modulus (GPa) = 23.90385 33.56851 28.73618
#
# Velocity S-wave (km/s) = 3.27658 3.88287 3.59254
# Velocity P-wave (km/s) = 5.71721 6.56490 6.15566
#
# Compressibility (1/GPa) = 0.02444671
#
# Stress axis : x y z
#
# Youngs Moduli (GPa) = 115.56040 24.97818 72.56670
#
# Poissons Ratio (x) = 0.18723 -0.08104
# Poissons Ratio (y) = 0.86620 0.91668
# Poissons Ratio (z) = -0.12905 0.31553
#
# Static dielectric constant tensor:
#      x y z
#    x 1.915010 0.000000 0.139040 
#    y 0.000000 1.787190 0.000000 
#    z 0.139040 0.000000 2.131200 
# 
# From -- ./inp_files/39545.got.cif
#   From: 2010.05.17/outbox.cif.g08.bks.cpg/sg15_20_cif.got.tgz:39545.got - 2010.06.03 18:47:42.
