data_PCOD9306607
_publ_section_title
;
Structure prediction by ZEFSAII (Michael W. Deem and Ramdas Pophale) SiO2 
 PCOD9306607
Probable space group: C 2/C
;
_chemical_formula_sum "Si O2"
_cell_formula_units_Z 24
_cell_length_a 21.153057
_cell_length_b 5.204889
_cell_length_c 13.444100
_cell_angle_alpha 90.000000
_cell_angle_beta 139.362566
_cell_angle_gamma 90.000000
_cell_volume 964.001071
_symmetry_space_group_name_H-M "C 2/C"
_symmetry_group_IT_number 15
_symmetry_cell_setting 'monoclinic'
loop_
_space_group_symop_operation_xyz
x,y,z
-x,y,1/2-z
-x,-y,-z
x,-y,1/2+z
1/2+x,1/2+y,z
1/2-x,1/2+y,1/2-z
1/2-x,1/2-y,-z
1/2+x,1/2-y,1/2+z
loop_
_atom_site_type_symbol
_atom_site_label
_atom_site_fract_x
_atom_site_fract_y
_atom_site_fract_z
Si Si1 0.635601 0.875442 0.993928
Si Si2 0.583174 0.040975 0.210067
Si Si3 0.343413 0.466247 0.813661
O O1 0.530285 0.978747 0.899398
O O2 0.638610 0.896134 0.879125
O O3 0.640085 0.592889 0.050069
O O4 0.729585 0.007349 0.153676
O O5 0.602833 0.284575 0.163340
O O6 0.618822 0.781347 0.201665
#
# Coordination Sequence:
#
# PCOD9306607 Si02
#       3
#     8   8   8
#     4  11  26  46  72 103 138 182 228 281 342 406
#     4  11  27  46  71 102 139 180 229 281 340 406
#     4  12  25  45  71 104 137 179 229 284 338 404
#
# _framework density 24.896239000000001
#
# number of rings (size 3 to 8) (size 9 to 14) (size 15 to 20)
#    0.000    0.667    0.000    6.000    0.000   16.000 
#    0.000    0.000    0.000    0.000    0.000    0.000 
#    0.000    0.000    0.000    0.000    0.000    0.000 
#
# Total GULP energy -67340.299721 kJ/mol
# GULP energy per Si atom -5611.691643 kJ/mol
# Density = 2.483957 g / cm^3
# Si number density = 24.896239 Si / 1000 Ang^3
#
#
#
# Elastic Constant Matrix: (Units=GPa)
#
#
# Indices 1 2 3 4 5 6 
#
# 1 75.2538 48.4575 22.8192 0.0000 -7.7410 0.0000
# 2 48.4575 151.8284 3.1718 0.0000 -3.6640 0.0000
# 3 22.8192 3.1718 126.2512 0.0000 -8.7458 0.0000
# 4 0.0000 0.0000 0.0000 30.0947 0.0000 2.8274
# 5 -7.7410 -3.6640 -8.7458 0.0000 66.0947 0.0000
# 6 0.0000 0.0000 0.0000 2.8274 0.0000 29.4807
#
#
#
# Elastic Compliance Matrix: (Units=1/GPa)
#
#
# Indices 1 2 3 4 5 6 
#
# 1 0.017977 -0.005641 -0.003011 0.000000 0.001394 0.000000
# 2 -0.005641 0.008368 0.000803 0.000000 -0.000091 0.000000
# 3 -0.003011 0.000803 0.008501 0.000000 0.000817 0.000000
# 4 0.000000 0.000000 0.000000 0.033531 0.000000 -0.003216
# 5 0.001394 -0.000091 0.000817 0.000000 0.015396 0.000000
# 6 0.000000 0.000000 0.000000 -0.003216 0.000000 0.034229
#
#
# Mechanical properties :
#
#
# Convention : Reuss Voigt Hill
#
# Bulk Modulus (GPa) = 52.22337 55.80336 54.01336
# Shear Modulus (GPa) = 35.69322 43.72636 39.70979
#
# Velocity S-wave (km/s) = 3.79050 4.19542 3.99809
# Velocity P-wave (km/s) = 6.33870 6.77730 6.56167
#
# Compressibility (1/GPa) = 0.01914851
#
# Stress axis : x y z
#
# Youngs Moduli (GPa) = 55.62600 119.50552 117.62854
#
# Poissons Ratio (x) = 0.67414 0.35418
# Poissons Ratio (y) = 0.31379 -0.09447
# Poissons Ratio (z) = 0.16749 -0.09597
#
# Static dielectric constant tensor:
#      x y z
#    x 1.981510 0.000000 -0.015410 
#    y 0.000000 1.952370 0.000000 
#    z -0.015410 0.000000 1.973670 
# 
# From -- ./inp_files/164680.got.cif
#   From: 2010.05.17/outbox.cif.g08.bks.cpg/sg15_83_cif.got.tgz:164680.got - 2010.06.03 18:47:42.
