data_PCOD9306196
_publ_section_title
;
Structure prediction by ZEFSAII (Michael W. Deem and Ramdas Pophale) SiO2 
 PCOD9306196
Probable space group: C 2/C
;
_chemical_formula_sum "Si O2"
_cell_formula_units_Z 48
_cell_length_a 8.845084
_cell_length_b 14.206795
_cell_length_c 15.055741
_cell_angle_alpha 90.000000
_cell_angle_beta 84.801612
_cell_angle_gamma 90.000000
_cell_volume 1884.127338
_symmetry_space_group_name_H-M "C 2/C"
_symmetry_group_IT_number 15
_symmetry_cell_setting 'monoclinic'
loop_
_space_group_symop_operation_xyz
x,y,z
-x,y,1/2-z
-x,-y,-z
x,-y,1/2+z
1/2+x,1/2+y,z
1/2-x,1/2+y,1/2-z
1/2-x,1/2-y,-z
1/2+x,1/2-y,1/2+z
loop_
_atom_site_type_symbol
_atom_site_label
_atom_site_fract_x
_atom_site_fract_y
_atom_site_fract_z
Si Si1 0.546368 0.977353 0.394204
Si Si2 0.076503 0.327844 0.660816
Si Si3 0.650050 0.806766 0.104656
Si Si4 0.392333 0.543628 0.841505
Si Si5 0.026162 0.178052 0.973055
Si Si6 0.837325 0.838824 0.769777
O O1 0.428515 0.902096 0.362144
O O2 0.712430 0.934761 0.363817
O O3 0.500000 0.000000 0.500000
O O4 0.520997 0.078665 0.351886
O O5 0.244349 0.357376 0.685217
O O6 0.000000 0.282086 0.750000
O O7 0.063033 0.254689 0.583005
O O8 0.790973 0.838654 0.036166
O O9 0.740289 0.741795 0.168393
O O10 0.526515 0.739068 0.064056
O O11 0.500000 0.572310 0.750000
O O12 0.465130 0.582588 0.929098
O O13 0.376182 0.431610 0.824331
O O14 0.000000 0.791195 0.750000
#
# Coordination Sequence:
#
# PCOD9306196 Si02
#       6
#     8   8   8   8   8   8
#     4  12  27  48  77 109 148 197 256 303 381 446
#     4  12  23  47  73 103 153 197 243 315 375 447
#     4  11  26  46  71 112 147 197 247 310 372 455
#     4  11  27  48  71 110 147 196 250 312 377 441
#     4  11  25  45  75 105 152 193 250 308 377 442
#     4  11  27  45  71 108 149 193 252 307 376 444
#
# _framework density 25.475985000000001
#
# number of rings (size 3 to 8) (size 9 to 14) (size 15 to 20)
#    0.000    0.667    5.000    0.500    9.333    3.333 
#    0.000    0.000    0.000    0.000    0.000    0.000 
#    0.000    0.000    0.000    0.000    0.000    0.000 
#
# Total GULP energy -133617.983526 kJ/mol
# GULP energy per Si atom -5567.415980 kJ/mol
# Density = 2.541800 g / cm^3
# Si number density = 25.475985 Si / 1000 Ang^3
#
#
#
# Elastic Constant Matrix: (Units=GPa)
#
#
# Indices 1 2 3 4 5 6 
#
# 1 110.4575 34.0021 27.8338 0.0000 19.6409 0.0000
# 2 34.0021 123.8541 36.0249 0.0000 16.1359 0.0000
# 3 27.8338 36.0249 84.7280 0.0000 28.0172 0.0000
# 4 0.0000 0.0000 0.0000 28.7571 0.0000 19.4538
# 5 19.6409 16.1359 28.0172 0.0000 42.8976 0.0000
# 6 0.0000 0.0000 0.0000 19.4538 0.0000 35.0095
#
#
#
# Elastic Compliance Matrix: (Units=1/GPa)
#
#
# Indices 1 2 3 4 5 6 
#
# 1 0.010633 -0.002053 -0.001614 0.000000 -0.003042 0.000000
# 2 -0.002053 0.009655 -0.003240 0.000000 -0.000575 0.000000
# 3 -0.001614 -0.003240 0.016661 0.000000 -0.008924 0.000000
# 4 0.000000 0.000000 0.000000 0.055719 0.000000 -0.030962
# 5 -0.003042 -0.000575 -0.008924 0.000000 0.030749 0.000000
# 6 0.000000 0.000000 0.000000 -0.030962 0.000000 0.045768
#
#
# Mechanical properties :
#
#
# Convention : Reuss Voigt Hill
#
# Bulk Modulus (GPa) = 43.22695 57.19567 50.21131
# Shear Modulus (GPa) = 26.21741 36.07809 31.14775
#
# Velocity S-wave (km/s) = 3.21144 3.76727 3.50041
# Velocity P-wave (km/s) = 5.54578 6.43605 6.00743
#
# Compressibility (1/GPa) = 0.02313372
#
# Stress axis : x y z
#
# Youngs Moduli (GPa) = 94.04739 103.57102 60.01891
#
# Poissons Ratio (x) = 0.21266 0.09688
# Poissons Ratio (y) = 0.19311 0.19449
# Poissons Ratio (z) = 0.15181 0.33562
#
# Static dielectric constant tensor:
#      x y z
#    x 1.947410 0.000000 0.029450 
#    y 0.000000 2.007270 0.000000 
#    z 0.029450 0.000000 1.995970 
# 
# From -- ./inp_files/189217.got.cif
#   From: 2010.05.17/outbox.cif.g08.bks.cpg/sg15_95_cif.got.tgz:189217.got - 2010.06.03 18:47:42.
