data_PCOD9306975
_publ_section_title
;
Structure prediction by ZEFSAII (Michael W. Deem and Ramdas Pophale) SiO2 
 PCOD9306975
Probable space group: C 2/C
;
_chemical_formula_sum "Si O2"
_cell_formula_units_Z 48
_cell_length_a 9.002304
_cell_length_b 25.042451
_cell_length_c 16.867735
_cell_angle_alpha 90.000000
_cell_angle_beta 37.248245
_cell_angle_gamma 90.000000
_cell_volume 2301.633355
_symmetry_space_group_name_H-M "C 2/C"
_symmetry_group_IT_number 15
_symmetry_cell_setting 'monoclinic'
loop_
_space_group_symop_operation_xyz
x,y,z
-x,y,1/2-z
-x,-y,-z
x,-y,1/2+z
1/2+x,1/2+y,z
1/2-x,1/2+y,1/2-z
1/2-x,1/2-y,-z
1/2+x,1/2-y,1/2+z
loop_
_atom_site_type_symbol
_atom_site_label
_atom_site_fract_x
_atom_site_fract_y
_atom_site_fract_z
Si Si1 0.596354 0.776153 0.992959
Si Si2 0.000000 0.536246 0.250000
Si Si3 0.206586 0.169757 0.882943
Si Si4 0.262922 0.633110 0.799440
Si Si5 0.500000 0.353013 0.750000
Si Si6 0.556702 0.026639 0.561418
Si Si7 0.519034 0.412630 0.900599
O O1 0.554527 0.724345 0.956405
O O2 0.777182 0.816263 0.872017
O O3 0.750000 0.750000 0.000000
O O4 0.369172 0.811337 0.119073
O O5 0.981162 0.503173 0.175302
O O6 0.752832 0.571195 0.352891
O O7 0.500000 0.181556 0.750000
O O8 0.148993 0.138884 0.827719
O O9 0.141221 0.131132 0.983452
O O10 0.500000 0.622460 0.750000
O O11 0.076053 0.584082 0.885439
O O12 0.589009 0.387572 0.786488
O O13 0.844868 0.037845 0.452737
O O14 0.500000 0.000000 0.500000
#
# Coordination Sequence:
#
# PCOD9306975 Si02
#       7
#     8   4   8   8   4   8   8
#     4  12  21  43  74 105 135 191 231 281 351 430
#     4  12  30  46  73 108 142 185 244 304 360 428
#     4  12  22  45  75  99 141 194 230 276 355 428
#     4  12  28  45  71 107 141 180 239 297 347 423
#     4  12  20  40  73 100 146 179 240 278 356 418
#     4  12  26  48  73 100 140 190 238 292 364 423
#     4  12  26  45  71 106 142 184 235 297 354 424
#
# _framework density 20.854755999999998
#
# number of rings (size 3 to 8) (size 9 to 14) (size 15 to 20)
#    0.000    0.000    7.500    2.500    4.667    0.667 
#    1.500    0.000    0.000    0.000    0.000    0.000 
#    0.000    0.000    0.000    0.000    0.000    0.000 
#
# Total GULP energy -134143.416499 kJ/mol
# GULP energy per Si atom -5589.309021 kJ/mol
# Density = 2.080729 g / cm^3
# Si number density = 20.854756 Si / 1000 Ang^3
#
#
#
# Elastic Constant Matrix: (Units=GPa)
#
#
# Indices 1 2 3 4 5 6 
#
# 1 106.0840 39.1516 37.1262 -0.0003 3.3673 0.0000
# 2 39.1516 97.8931 39.4791 0.0000 6.9906 0.0000
# 3 37.1262 39.4791 91.0793 -0.0002 16.3526 0.0000
# 4 -0.0003 0.0000 -0.0002 235.1370 0.0002 45.2270
# 5 3.3673 6.9906 16.3526 0.0002 44.1506 0.0000
# 6 0.0000 0.0000 0.0000 45.2270 0.0000 25.3502
#
#
#
# Elastic Compliance Matrix: (Units=1/GPa)
#
#
# Indices 1 2 3 4 5 6 
#
# 1 0.011889 -0.003393 -0.003545 0.000000 0.000943 0.000000
# 2 -0.003393 0.013347 -0.004360 0.000000 -0.000240 0.000000
# 3 -0.003545 -0.004360 0.015149 0.000000 -0.004650 0.000000
# 4 0.000000 0.000000 0.000000 0.006475 0.000000 -0.011551
# 5 0.000943 -0.000240 -0.004650 0.000000 0.024338 0.000000
# 6 0.000000 0.000000 0.000000 -0.011551 0.000000 0.060056
#
#
# Mechanical properties :
#
#
# Convention : Reuss Voigt Hill
#
# Bulk Modulus (GPa) = 56.20795 58.50780 57.35788
# Shear Modulus (GPa) = 31.29301 72.88086 52.08693
#
# Velocity S-wave (km/s) = 3.87786 5.91800 5.00303
# Velocity P-wave (km/s) = 6.86010 8.64944 7.80621
#
# Compressibility (1/GPa) = 0.01779108
#
# Stress axis : x y z
#
# Youngs Moduli (GPa) = 84.10861 74.92107 66.01029
#
# Poissons Ratio (x) = 0.25419 0.23402
# Poissons Ratio (y) = 0.28536 0.28777
# Poissons Ratio (z) = 0.29818 0.32662
#
# Static dielectric constant tensor:
#      x y z
#    x 1.815180 0.000000 0.026360 
#    y 0.000000 1.769730 0.000000 
#    z 0.026360 0.000000 1.777150 
# 
# From -- ./inp_files/79907.got.cif
#   From: 2010.05.17/outbox.cif.g08.bks.cpg/sg15_40_cif.got.tgz:79907.got - 2010.06.03 18:47:42.
