data_PCOD9306019
_publ_section_title
;
Structure prediction by ZEFSAII (Michael W. Deem and Ramdas Pophale) SiO2 
 PCOD9306019
Probable space group: C 2/C
;
_chemical_formula_sum "Si O2"
_cell_formula_units_Z 56
_cell_length_a 17.556243
_cell_length_b 20.153069
_cell_length_c 14.641337
_cell_angle_alpha 90.000000
_cell_angle_beta 29.162848
_cell_angle_gamma 90.000000
_cell_volume 2524.318554
_symmetry_space_group_name_H-M "C 2/C"
_symmetry_group_IT_number 15
_symmetry_cell_setting 'monoclinic'
loop_
_space_group_symop_operation_xyz
x,y,z
-x,y,1/2-z
-x,-y,-z
x,-y,1/2+z
1/2+x,1/2+y,z
1/2-x,1/2+y,1/2-z
1/2-x,1/2-y,-z
1/2+x,1/2-y,1/2+z
loop_
_atom_site_type_symbol
_atom_site_label
_atom_site_fract_x
_atom_site_fract_y
_atom_site_fract_z
Si Si1 0.387386 0.639109 0.090305
Si Si2 0.899583 0.279498 0.444404
Si Si3 0.836129 0.708809 0.689346
Si Si4 0.680088 0.017274 0.287803
Si Si5 0.317576 0.992246 0.928562
Si Si6 0.705002 0.594761 0.699656
Si Si7 0.873072 0.884035 0.805894
O O1 0.359411 0.718041 0.119737
O O2 0.233101 0.593690 0.244233
O O3 0.448096 0.620301 0.127739
O O4 0.524482 0.616168 0.879609
O O5 0.806526 0.220238 0.590699
O O6 0.765858 0.330300 0.553439
O O7 0.000000 0.264221 0.250000
O O8 0.016027 0.306624 0.400808
O O9 0.795989 0.653861 0.656760
O O10 0.712082 0.005119 0.147888
O O11 0.500000 0.000000 0.500000
O O12 0.777752 0.968863 0.251407
O O13 0.500000 0.007908 0.750000
O O14 0.279378 0.925290 0.024636
O O15 0.210283 0.046885 0.087768
O O16 0.000000 0.874247 0.750000
#
# Coordination Sequence:
#
# PCOD9306019 Si02
#       7
#     8   8   8   8   8   8   8
#     4  11  25  48  69 105 142 197 239 294 365 425
#     4  11  25  42  66 102 148 192 245 291 367 441
#     4  11  26  45  70 100 147 197 242 299 367 426
#     4  12  26  45  77 104 146 183 240 302 361 426
#     4  12  26  45  72 111 137 187 242 299 369 432
#     4  12  26  46  74 105 145 190 239 302 360 436
#     4  11  25  42  70 105 149 184 235 298 366 445
#
# _framework density 22.184204999999999
#
# number of rings (size 3 to 8) (size 9 to 14) (size 15 to 20)
#    0.000    0.571    4.286    2.143   12.000    2.286 
#    0.000    0.714    0.000    0.000    0.000    0.000 
#    0.000    0.000    0.000    0.000    0.000    0.000 
#
# Total GULP energy -156697.447391 kJ/mol
# GULP energy per Si atom -5596.337407 kJ/mol
# Density = 2.213371 g / cm^3
# Si number density = 22.184205 Si / 1000 Ang^3
#
#
#
# Elastic Constant Matrix: (Units=GPa)
#
#
# Indices 1 2 3 4 5 6 
#
# 1 66.5601 42.8801 40.6236 -0.0046 2.3880 0.0021
# 2 42.8801 122.4896 35.1503 0.0019 -2.6777 -0.0028
# 3 40.6236 35.1503 83.6221 -0.0027 -11.4234 0.0014
# 4 -0.0046 0.0019 -0.0027 31.8600 0.0037 -14.1974
# 5 2.3880 -2.6777 -11.4234 0.0037 44.9044 -0.0033
# 6 0.0021 -0.0028 0.0014 -14.1974 -0.0033 20.2230
#
#
#
# Elastic Compliance Matrix: (Units=1/GPa)
#
#
# Indices 1 2 3 4 5 6 
#
# 1 0.025401 -0.005999 -0.010413 0.000003 -0.004358 -0.000001
# 2 -0.005999 0.010710 -0.001509 -0.000001 0.000574 0.000002
# 3 -0.010413 -0.001509 0.018353 0.000000 0.005133 0.000000
# 4 0.000003 -0.000001 0.000000 0.045677 -0.000002 0.032067
# 5 -0.004358 0.000574 0.005133 -0.000002 0.023841 0.000003
# 6 -0.000001 0.000002 0.000000 0.032067 0.000003 0.071961
#
#
# Mechanical properties :
#
#
# Convention : Reuss Voigt Hill
#
# Bulk Modulus (GPa) = 53.70448 56.66441 55.18445
# Shear Modulus (GPa) = 21.00912 29.66532 25.33722
#
# Velocity S-wave (km/s) = 3.08072 3.66078 3.38321
# Velocity P-wave (km/s) = 6.07581 6.59292 6.33964
#
# Compressibility (1/GPa) = 0.01862042
#
# Stress axis : x y z
#
# Youngs Moduli (GPa) = 39.36906 93.37373 54.48769
#
# Poissons Ratio (x) = 0.56016 0.56739
# Poissons Ratio (y) = 0.23618 0.08222
# Poissons Ratio (z) = 0.40996 0.14090
#
# Static dielectric constant tensor:
#      x y z
#    x 1.829500 0.000000 -0.018470 
#    y 0.000000 1.856480 0.000010 
#    z -0.018470 0.000010 1.830760 
# 
# From -- ./inp_files/163755.got.cif
#   From: 2010.05.17/outbox.cif.g08.bks.cpg/sg15_82_cif.got.tgz:163755.got - 2010.06.03 18:47:42.
