data_PCOD9306075
_publ_section_title
;
Structure prediction by ZEFSAII (Michael W. Deem and Ramdas Pophale) SiO2 
 PCOD9306075
Probable space group: C 2/C
;
_chemical_formula_sum "Si O2"
_cell_formula_units_Z 36
_cell_length_a 15.484791
_cell_length_b 12.095930
_cell_length_c 13.685940
_cell_angle_alpha 90.000000
_cell_angle_beta 135.901840
_cell_angle_gamma 90.000000
_cell_volume 1783.855511
_symmetry_space_group_name_H-M "C 2/C"
_symmetry_group_IT_number 15
_symmetry_cell_setting 'monoclinic'
loop_
_space_group_symop_operation_xyz
x,y,z
-x,y,1/2-z
-x,-y,-z
x,-y,1/2+z
1/2+x,1/2+y,z
1/2-x,1/2+y,1/2-z
1/2-x,1/2-y,-z
1/2+x,1/2-y,1/2+z
loop_
_atom_site_type_symbol
_atom_site_label
_atom_site_fract_x
_atom_site_fract_y
_atom_site_fract_z
Si Si1 0.252886 0.619882 0.481684
Si Si2 0.861774 0.036826 0.765237
Si Si3 0.410369 0.910001 0.378061
Si Si4 0.500000 0.007935 0.750000
Si Si5 0.074505 0.155272 0.053309
O O1 0.250000 0.750000 0.500000
O O2 0.339478 0.560540 0.632861
O O3 0.115835 0.568325 0.376735
O O4 0.311226 0.615074 0.421561
O O5 0.728207 0.055836 0.705968
O O6 0.914473 0.917062 0.839116
O O7 0.954894 0.122301 0.892555
O O8 0.444662 0.919021 0.292213
O O9 0.426712 0.785040 0.428200
O O10 0.500000 0.000000 0.500000
#
# Coordination Sequence:
#
# PCOD9306075 Si02
#       5
#     8   8   8   4   8
#     4  12  24  40  73 100 134 177 232 285 337 412
#     4  11  25  44  69 101 136 182 233 287 346 404
#     4  12  25  45  72  99 143 184 231 284 350 418
#     4  12  26  44  66 108 134 182 230 280 356 410
#     4  11  26  46  69 101 140 182 232 291 344 411
#
# _framework density 20.181007000000001
#
# number of rings (size 3 to 8) (size 9 to 14) (size 15 to 20)
#    0.000    0.444    6.667    0.667    9.333    0.000 
#    8.000    2.222    0.000    0.000    0.000    0.000 
#    0.000    0.000    0.000    0.000    0.000    0.000 
#
# Total GULP energy -100611.699679 kJ/mol
# GULP energy per Si atom -5589.538871 kJ/mol
# Density = 2.013507 g / cm^3
# Si number density = 20.181007 Si / 1000 Ang^3
#
#
#
# Elastic Constant Matrix: (Units=GPa)
#
#
# Indices 1 2 3 4 5 6 
#
# 1 68.6581 24.5667 -6.7546 0.0000 -8.4918 0.0000
# 2 24.5667 144.8360 68.8699 0.0000 -11.8213 0.0000
# 3 -6.7546 68.8699 92.4632 0.0000 2.5016 0.0000
# 4 0.0000 0.0000 0.0000 17.8565 0.0000 -2.8582
# 5 -8.4918 -11.8213 2.5016 0.0000 47.0265 0.0000
# 6 0.0000 0.0000 0.0000 -2.8582 0.0000 31.3938
#
#
#
# Elastic Compliance Matrix: (Units=1/GPa)
#
#
# Indices 1 2 3 4 5 6 
#
# 1 0.017109 -0.005192 0.005076 0.000000 0.001514 0.000000
# 2 -0.005192 0.012742 -0.009946 0.000000 0.002795 0.000000
# 3 0.005076 -0.009946 0.018664 0.000000 -0.002576 0.000000
# 4 0.000000 0.000000 0.000000 0.056830 0.000000 0.005174
# 5 0.001514 0.002795 -0.002576 0.000000 0.022378 0.000000
# 6 0.000000 0.000000 0.000000 0.005174 0.000000 0.032324
#
#
# Mechanical properties :
#
#
# Convention : Reuss Voigt Hill
#
# Bulk Modulus (GPa) = 35.22138 53.25794 44.23966
# Shear Modulus (GPa) = 26.36631 33.87371 30.12001
#
# Velocity S-wave (km/s) = 3.61846 4.10139 3.86747
# Velocity P-wave (km/s) = 5.91171 6.99113 6.47396
#
# Compressibility (1/GPa) = 0.02839185
#
# Stress axis : x y z
#
# Youngs Moduli (GPa) = 58.44709 78.47758 53.57976
#
# Poissons Ratio (x) = 0.40748 -0.27199
# Poissons Ratio (y) = 0.30347 0.53290
# Poissons Ratio (z) = -0.29669 0.78054
#
# Static dielectric constant tensor:
#      x y z
#    x 1.779820 0.000000 -0.032210 
#    y 0.000000 1.680610 0.000000 
#    z -0.032210 0.000000 1.730700 
# 
# From -- ./inp_files/94324.got.cif
#   From: 2010.05.17/outbox.cif.g08.bks.cpg/sg15_48_cif.got.tgz:94324.got - 2010.06.03 18:47:42.
