data_PCOD9306238
_publ_section_title
;
Structure prediction by ZEFSAII (Michael W. Deem and Ramdas Pophale) SiO2 
 PCOD9306238
Probable space group: C 2/C
;
_chemical_formula_sum "Si O2"
_cell_formula_units_Z 48
_cell_length_a 29.309137
_cell_length_b 15.758498
_cell_length_c 15.403686
_cell_angle_alpha 90.000000
_cell_angle_beta 17.942193
_cell_angle_gamma 90.000000
_cell_volume 2191.664164
_symmetry_space_group_name_H-M "C 2/C"
_symmetry_group_IT_number 15
_symmetry_cell_setting 'monoclinic'
loop_
_space_group_symop_operation_xyz
x,y,z
-x,y,1/2-z
-x,-y,-z
x,-y,1/2+z
1/2+x,1/2+y,z
1/2-x,1/2+y,1/2-z
1/2-x,1/2-y,-z
1/2+x,1/2-y,1/2+z
loop_
_atom_site_type_symbol
_atom_site_label
_atom_site_fract_x
_atom_site_fract_y
_atom_site_fract_z
Si Si1 0.995400 0.882524 0.581934
Si Si2 0.704401 0.058858 0.519897
Si Si3 0.000000 0.012417 0.250000
Si Si4 0.731800 0.375000 0.786400
Si Si5 0.500000 0.762416 0.750000
Si Si6 0.827333 0.632525 0.418069
Si Si7 0.974298 0.308858 0.480105
O O1 0.957903 0.783296 0.660886
O O2 0.870597 0.932486 0.755143
O O3 0.014519 0.929992 0.638652
O O4 0.151859 0.875000 0.250001
O O5 0.713584 0.088499 0.403593
O O6 0.631211 0.966703 0.660884
O O7 0.606247 0.124999 0.750001
O O8 0.856985 0.950656 0.504292
O O9 0.867175 0.338499 0.596411
O O10 0.611276 0.299345 0.995709
O O11 0.596830 0.820007 0.638648
O O12 0.875740 0.682487 0.244857
#
# Coordination Sequence:
#
# PCOD9306238 Si02
#       7
#     8   8   4   8   4   8   8
#     4  12  26  47  73 106 142 189 237 287 352 422
#     4  12  27  46  73 105 145 185 235 295 350 417
#     4  11  26  44  73 102 140 188 237 292 348 421
#     4  11  25  46  70 102 142 188 238 290 352 414
#     4  11  26  44  73 102 140 188 237 292 348 421
#     4  12  26  47  73 106 142 189 237 287 352 422
#     4  12  27  46  73 105 145 185 235 295 350 417
#
# _framework density 21.901166
#
# number of rings (size 3 to 8) (size 9 to 14) (size 15 to 20)
#    0.000    0.333    3.333    4.500    9.333    1.333 
#    0.000    0.000    0.000    0.000    0.000    0.000 
#    0.000    0.000    0.000    0.000    0.000    0.000 
#
# Total GULP energy -134375.567440 kJ/mol
# GULP energy per Si atom -5598.981977 kJ/mol
# Density = 2.185132 g / cm^3
# Si number density = 21.901166 Si / 1000 Ang^3
#
#
#
# Elastic Constant Matrix: (Units=GPa)
#
#
# Indices 1 2 3 4 5 6 
#
# 1 86.9007 24.6422 17.1655 -0.0001 1.7474 0.0005
# 2 24.6422 164.0926 18.1759 0.0000 0.5906 0.0003
# 3 17.1655 18.1759 86.2654 0.0000 -1.6900 0.0002
# 4 -0.0001 0.0000 0.0000 2.1204 -0.0001 2.5896
# 5 1.7474 0.5906 -1.6900 -0.0001 25.6116 -0.0002
# 6 0.0005 0.0003 0.0002 2.5896 -0.0002 30.4651
#
#
#
# Elastic Compliance Matrix: (Units=1/GPa)
#
#
# Indices 1 2 3 4 5 6 
#
# 1 0.012411 -0.001623 -0.002146 0.000001 -0.000951 0.000000
# 2 -0.001623 0.006453 -0.001039 0.000000 -0.000107 0.000000
# 3 -0.002146 -0.001039 0.012257 0.000000 0.000979 0.000000
# 4 0.000001 0.000000 0.000000 0.526236 0.000002 -0.044732
# 5 -0.000951 -0.000107 0.000979 0.000002 0.039177 0.000000
# 6 0.000000 0.000000 0.000000 -0.044732 0.000000 0.036627
#
#
# Mechanical properties :
#
#
# Convention : Reuss Voigt Hill
#
# Bulk Modulus (GPa) = 46.49952 50.80287 48.65120
# Shear Modulus (GPa) = 7.69296 30.12445 18.90870
#
# Velocity S-wave (km/s) = 1.87622 3.71276 2.94150
# Velocity P-wave (km/s) = 5.09620 6.45184 5.81367
#
# Compressibility (1/GPa) = 0.02150560
#
# Stress axis : x y z
#
# Youngs Moduli (GPa) = 80.57653 154.96082 81.58416
#
# Poissons Ratio (x) = 0.25143 0.17510
# Poissons Ratio (y) = 0.13074 0.08476
# Poissons Ratio (z) = 0.17294 0.16099
#
# Static dielectric constant tensor:
#      x y z
#    x 1.752050 0.000000 -0.004890 
#    y 0.000000 1.842710 0.000000 
#    z -0.004890 0.000000 1.805610 
# 
# From -- ./inp_files/182482.got.cif
#   From: 2010.05.17/outbox.cif.g08.bks.cpg/sg15_92_cif.got.tgz:182482.got - 2010.06.03 18:47:42.
