data_PCOD9306555
_publ_section_title
;
Structure prediction by ZEFSAII (Michael W. Deem and Ramdas Pophale) SiO2 
 PCOD9306555
Probable space group: C 2/C
;
_chemical_formula_sum "Si O2"
_cell_formula_units_Z 40
_cell_length_a 17.427442
_cell_length_b 5.244530
_cell_length_c 20.481154
_cell_angle_alpha 90.000000
_cell_angle_beta 73.559533
_cell_angle_gamma 90.000000
_cell_volume 1795.415704
_symmetry_space_group_name_H-M "C 2/C"
_symmetry_group_IT_number 15
_symmetry_cell_setting 'monoclinic'
loop_
_space_group_symop_operation_xyz
x,y,z
-x,y,1/2-z
-x,-y,-z
x,-y,1/2+z
1/2+x,1/2+y,z
1/2-x,1/2+y,1/2-z
1/2-x,1/2-y,-z
1/2+x,1/2-y,1/2+z
loop_
_atom_site_type_symbol
_atom_site_label
_atom_site_fract_x
_atom_site_fract_y
_atom_site_fract_z
Si Si1 0.878024 0.848310 0.176923
Si Si2 0.511648 0.750540 0.540289
Si Si3 0.592919 0.154672 0.749971
Si Si4 0.318310 0.052384 0.492913
Si Si5 0.765099 0.752685 0.880774
O O1 0.873925 0.620071 0.232032
O O2 0.796085 0.882053 0.155370
O O3 0.949498 0.757008 0.113278
O O4 0.903621 0.125388 0.196412
O O5 0.500000 0.500000 0.500000
O O6 0.602083 0.789233 0.539650
O O7 0.500000 0.000000 0.500000
O O8 0.500000 0.123523 0.750000
O O9 0.654425 0.276237 0.681891
O O10 0.250000 0.250000 0.500000
O O11 0.299904 0.946706 0.570011
O O12 0.304161 0.854817 0.438041
#
# Coordination Sequence:
#
# PCOD9306555 Si02
#       5
#     8   8   8   8   8
#     4  12  26  47  74 103 142 190 239 296 361 438
#     4  12  25  46  72 106 146 186 244 298 363 428
#     4  12  28  47  73 102 145 189 240 298 358 436
#     4  11  26  43  75 104 147 187 239 304 357 437
#     4  11  26  46  69 109 142 191 240 294 368 426
#
# _framework density 22.278963999999998
#
# number of rings (size 3 to 8) (size 9 to 14) (size 15 to 20)
#    0.000    0.400    2.000    5.400   11.200    0.000 
#    0.000    0.000    0.000    0.000    0.000    0.000 
#    0.000    0.000    0.000    0.000    0.000    0.000 
#
# Total GULP energy -111460.056877 kJ/mol
# GULP energy per Si atom -5573.002844 kJ/mol
# Density = 2.222826 g / cm^3
# Si number density = 22.278964 Si / 1000 Ang^3
#
#
#
# Elastic Constant Matrix: (Units=GPa)
#
#
# Indices 1 2 3 4 5 6 
#
# 1 164.6125 -1.4094 26.5907 -0.0004 -14.5316 -0.0004
# 2 -1.4094 81.3146 -1.1778 -0.0008 13.8110 -0.0009
# 3 26.5907 -1.1778 75.3915 -0.0002 -22.2324 -0.0002
# 4 -0.0004 -0.0008 -0.0002 19.7890 -0.0001 2.9104
# 5 -14.5316 13.8110 -22.2324 -0.0001 45.7138 -0.0003
# 6 -0.0004 -0.0009 -0.0002 2.9104 -0.0003 33.2478
#
#
#
# Elastic Compliance Matrix: (Units=1/GPa)
#
#
# Indices 1 2 3 4 5 6 
#
# 1 0.006491 -0.000111 -0.001953 0.000000 0.001147 0.000000
# 2 -0.000111 0.013045 -0.001085 0.000000 -0.004504 0.000000
# 3 -0.001953 -0.001085 0.016168 0.000000 0.007571 0.000000
# 4 0.000000 0.000000 0.000000 0.051192 0.000000 -0.004481
# 5 0.001147 -0.004504 0.007571 0.000000 0.027283 0.000000
# 6 0.000000 0.000000 0.000000 -0.004481 0.000000 0.030469
#
#
# Mechanical properties :
#
#
# Convention : Reuss Voigt Hill
#
# Bulk Modulus (GPa) = 34.00591 41.03618 37.52105
# Shear Modulus (GPa) = 31.10453 39.57111 35.33782
#
# Velocity S-wave (km/s) = 3.74055 4.21903 3.98697
# Velocity P-wave (km/s) = 5.82687 6.49560 6.17030
#
# Compressibility (1/GPa) = 0.02940665
#
# Stress axis : x y z
#
# Youngs Moduli (GPa) = 154.06864 76.65583 61.84920
#
# Poissons Ratio (x) = 0.00848 0.12078
# Poissons Ratio (y) = 0.01704 0.06714
# Poissons Ratio (z) = 0.30086 0.08321
#
# Static dielectric constant tensor:
#      x y z
#    x 1.861970 0.000000 0.084720 
#    y 0.000000 1.869720 0.000000 
#    z 0.084720 0.000000 1.875230 
# 
# From -- ./inp_files/207975.got.cif
#   From: 2010.05.17/outbox.cif.g08.bks.cpg/sg15_104_cif.got.tgz:207975.got - 2010.06.03 18:47:42.
