data_PCOD9306242
_publ_section_title
;
Structure prediction by ZEFSAII (Michael W. Deem and Ramdas Pophale) SiO2 
 PCOD9306242
Probable space group: C 2/C
;
_chemical_formula_sum "Si O2"
_cell_formula_units_Z 24
_cell_length_a 13.745334
_cell_length_b 7.448768
_cell_length_c 10.938495
_cell_angle_alpha 90.000000
_cell_angle_beta 93.242626
_cell_angle_gamma 90.000000
_cell_volume 1118.153525
_symmetry_space_group_name_H-M "C 2/C"
_symmetry_group_IT_number 15
_symmetry_cell_setting 'monoclinic'
loop_
_space_group_symop_operation_xyz
x,y,z
-x,y,1/2-z
-x,-y,-z
x,-y,1/2+z
1/2+x,1/2+y,z
1/2-x,1/2+y,1/2-z
1/2-x,1/2-y,-z
1/2+x,1/2-y,1/2+z
loop_
_atom_site_type_symbol
_atom_site_label
_atom_site_fract_x
_atom_site_fract_y
_atom_site_fract_z
Si Si1 0.722150 0.203361 0.134506
Si Si2 0.603083 0.445805 0.698116
Si Si3 0.444552 0.915923 0.379313
O O1 0.659220 0.373374 0.172203
O O2 0.822371 0.165006 0.211411
O O3 0.654171 0.029130 0.139521
O O4 0.750000 0.250000 0.000000
O O5 0.500000 0.493504 0.750000
O O6 0.576629 0.294667 0.595293
O O7 0.500000 0.925272 0.250000
O O8 0.500000 0.000000 0.500000
#
# Coordination Sequence:
#
# PCOD9306242 Si02
#       3
#     8   8   8
#     4  12  25  44  73 104 143 195 240 295 365 428
#     4  11  25  46  70 104 144 184 243 298 359 427
#     4  11  25  46  74 107 147 190 242 300 361 429
#
# _framework density 21.463957000000001
#
# number of rings (size 3 to 8) (size 9 to 14) (size 15 to 20)
#    0.000    0.667    3.333    5.000    0.000    9.333 
#    0.000    0.000    0.000    0.000    0.000    0.000 
#    0.000    0.000    0.000    0.000    0.000    0.000 
#
# Total GULP energy -67047.349225 kJ/mol
# GULP energy per Si atom -5587.279102 kJ/mol
# Density = 2.141510 g / cm^3
# Si number density = 21.463957 Si / 1000 Ang^3
#
#
#
# Elastic Constant Matrix: (Units=GPa)
#
#
# Indices 1 2 3 4 5 6 
#
# 1 176.0768 61.7237 46.4230 0.0000 -10.6408 0.0000
# 2 61.7237 111.0708 19.3395 0.0000 -26.3345 0.0000
# 3 46.4230 19.3395 51.7260 0.0000 -4.8049 0.0000
# 4 0.0000 0.0000 0.0000 24.4614 0.0000 -0.5041
# 5 -10.6408 -26.3345 -4.8049 0.0000 34.5798 0.0000
# 6 0.0000 0.0000 0.0000 -0.5041 0.0000 53.9047
#
#
#
# Elastic Compliance Matrix: (Units=1/GPa)
#
#
# Indices 1 2 3 4 5 6 
#
# 1 0.008707 -0.004022 -0.006429 0.000000 -0.001277 0.000000
# 2 -0.004022 0.013459 -0.000593 0.000000 0.008930 0.000000
# 3 -0.006429 -0.000593 0.025427 0.000000 0.001103 0.000000
# 4 0.000000 0.000000 0.000000 0.040889 0.000000 0.000382
# 5 -0.001277 0.008930 0.001103 0.000000 0.035479 0.000000
# 6 0.000000 0.000000 0.000000 0.000382 0.000000 0.018555
#
#
# Mechanical properties :
#
#
# Convention : Reuss Voigt Hill
#
# Bulk Modulus (GPa) = 39.20881 65.98290 52.59585
# Shear Modulus (GPa) = 28.88406 36.68167 32.78286
#
# Velocity S-wave (km/s) = 3.67236 4.13848 3.91237
# Velocity P-wave (km/s) = 6.02400 7.32421 6.70569
#
# Compressibility (1/GPa) = 0.02550447
#
# Stress axis : x y z
#
# Youngs Moduli (GPa) = 114.84732 74.30101 39.32821
#
# Poissons Ratio (x) = 0.29884 0.25286
# Poissons Ratio (y) = 0.46192 0.02332
# Poissons Ratio (z) = 0.73840 0.04405
#
# Static dielectric constant tensor:
#      x y z
#    x 1.801670 0.000000 0.020220 
#    y 0.000000 1.800520 0.000000 
#    z 0.020220 0.000000 1.788430 
# 
# From -- ./inp_files/36117.got.cif
#   From: 2010.05.17/outbox.cif.g08.bks.cpg/sg15_19_cif.got.tgz:36117.got - 2010.06.03 18:47:42.
