data_PCOD9306107
_publ_section_title
;
Structure prediction by ZEFSAII (Michael W. Deem and Ramdas Pophale) SiO2 
 PCOD9306107
Probable space group: C 2/C
;
_chemical_formula_sum "Si O2"
_cell_formula_units_Z 44
_cell_length_a 13.868853
_cell_length_b 9.115224
_cell_length_c 16.118238
_cell_angle_alpha 90.000000
_cell_angle_beta 120.171619
_cell_angle_gamma 90.000000
_cell_volume 1761.580280
_symmetry_space_group_name_H-M "C 2/C"
_symmetry_group_IT_number 15
_symmetry_cell_setting 'monoclinic'
loop_
_space_group_symop_operation_xyz
x,y,z
-x,y,1/2-z
-x,-y,-z
x,-y,1/2+z
1/2+x,1/2+y,z
1/2-x,1/2+y,1/2-z
1/2-x,1/2-y,-z
1/2+x,1/2-y,1/2+z
loop_
_atom_site_type_symbol
_atom_site_label
_atom_site_fract_x
_atom_site_fract_y
_atom_site_fract_z
Si Si1 0.670270 0.335262 0.227529
Si Si2 0.500000 0.495855 0.250000
Si Si3 0.007720 0.286594 0.964656
Si Si4 0.835833 0.485353 0.050246
Si Si5 0.198251 0.885715 0.622691
Si Si6 0.609151 0.694083 0.418807
O O1 0.611564 0.406260 0.282014
O O2 0.574544 0.231250 0.148061
O O3 0.777025 0.243991 0.301816
O O4 0.691643 0.462407 0.169623
O O5 0.516442 0.594137 0.338124
O O6 0.085886 0.428742 0.981543
O O7 0.092505 0.152904 0.019973
O O8 0.925869 0.262333 0.007765
O O9 0.798370 0.605727 0.100433
O O10 0.884287 0.349384 0.124994
O O11 0.722247 0.402626 0.968831
#
# Coordination Sequence:
#
# PCOD9306107 Si02
#       6
#     8   4   8   8   8   8
#     4  12  27  45  76 106 149 198 253 311 385 460
#     4  12  24  44  68 102 144 196 240 308 384 444
#     4  12  24  50  74 106 152 205 250 317 389 450
#     4  11  25  44  74 108 149 197 255 311 383 462
#     4  12  26  47  74 110 148 195 256 314 375 466
#     4  11  25  45  72 109 151 197 250 317 385 459
#
# _framework density 24.977571999999999
#
# number of rings (size 3 to 8) (size 9 to 14) (size 15 to 20)
#    0.000    0.364    3.636    4.909    2.545    4.364 
#    0.000    0.000    0.000    0.000    0.000    0.000 
#    0.000    0.000    0.000    0.000    0.000    0.000 
#
# Total GULP energy -122867.354837 kJ/mol
# GULP energy per Si atom -5584.879765 kJ/mol
# Density = 2.492072 g / cm^3
# Si number density = 24.977572 Si / 1000 Ang^3
#
#
#
# Elastic Constant Matrix: (Units=GPa)
#
#
# Indices 1 2 3 4 5 6 
#
# 1 133.1276 40.7345 10.8563 0.0000 -9.9855 0.0000
# 2 40.7345 103.5659 26.5545 0.0000 -0.5872 0.0000
# 3 10.8563 26.5545 57.9089 0.0000 2.5236 0.0000
# 4 0.0000 0.0000 0.0000 24.9220 0.0000 -7.6280
# 5 -9.9855 -0.5872 2.5236 0.0000 24.8520 0.0000
# 6 0.0000 0.0000 0.0000 -7.6280 0.0000 48.0633
#
#
#
# Elastic Compliance Matrix: (Units=1/GPa)
#
#
# Indices 1 2 3 4 5 6 
#
# 1 0.008831 -0.003389 -0.000254 0.000000 0.003494 0.000000
# 2 -0.003389 0.012257 -0.004961 0.000000 -0.000568 0.000000
# 3 -0.000254 -0.004961 0.019688 0.000000 -0.002218 0.000000
# 4 0.000000 0.000000 0.000000 0.042174 0.000000 0.006693
# 5 0.003494 -0.000568 -0.002218 0.000000 0.041854 0.000000
# 6 0.000000 0.000000 0.000000 0.006693 0.000000 0.021868
#
#
# Mechanical properties :
#
#
# Convention : Reuss Voigt Hill
#
# Bulk Modulus (GPa) = 42.42758 50.09920 46.26339
# Shear Modulus (GPa) = 29.11467 33.99793 31.55630
#
# Velocity S-wave (km/s) = 3.41784 3.69336 3.55827
# Velocity P-wave (km/s) = 5.70952 6.18782 5.95348
#
# Compressibility (1/GPa) = 0.02356957
#
# Stress axis : x y z
#
# Youngs Moduli (GPa) = 113.23465 81.58504 50.79360
#
# Poissons Ratio (x) = 0.27645 0.01290
# Poissons Ratio (y) = 0.38370 0.25197
# Poissons Ratio (z) = 0.02877 0.40471
#
# Static dielectric constant tensor:
#      x y z
#    x 2.138320 0.000000 -0.025170 
#    y 0.000000 2.102120 0.000000 
#    z -0.025170 0.000000 1.886810 
# 
# From -- ./inp_files/203077.got.cif
#   From: 2010.05.17/outbox.cif.g08.bks.cpg/sg15_102_cif.got.tgz:203077.got - 2010.06.03 18:47:42.
