data_PCOD9306817
_publ_section_title
;
Structure prediction by ZEFSAII (Michael W. Deem and Ramdas Pophale) SiO2 
 PCOD9306817
Probable space group: C 2/C
;
_chemical_formula_sum "Si O2"
_cell_formula_units_Z 32
_cell_length_a 21.083645
_cell_length_b 5.035572
_cell_length_c 14.252053
_cell_angle_alpha 90.000000
_cell_angle_beta 121.078917
_cell_angle_gamma 90.000000
_cell_volume 1295.918068
_symmetry_space_group_name_H-M "C 2/C"
_symmetry_group_IT_number 15
_symmetry_cell_setting 'monoclinic'
loop_
_space_group_symop_operation_xyz
x,y,z
-x,y,1/2-z
-x,-y,-z
x,-y,1/2+z
1/2+x,1/2+y,z
1/2-x,1/2+y,1/2-z
1/2-x,1/2-y,-z
1/2+x,1/2-y,1/2+z
loop_
_atom_site_type_symbol
_atom_site_label
_atom_site_fract_x
_atom_site_fract_y
_atom_site_fract_z
Si Si1 0.146778 0.252213 0.520093
Si Si2 0.405885 0.994669 0.343524
Si Si3 0.005029 0.022198 0.641715
Si Si4 0.712140 0.952092 0.897598
O O1 0.130639 0.481011 0.582670
O O2 0.166530 0.355768 0.431901
O O3 0.073946 0.075638 0.455756
O O4 0.220474 0.094210 0.604090
O O5 0.474424 0.197372 0.388116
O O6 0.347611 0.124743 0.225444
O O7 0.434402 0.704530 0.336900
O O8 0.000000 0.051712 0.750000
O O9 0.750000 0.750000 0.000000
#
# Coordination Sequence:
#
# PCOD9306817 Si02
#       4
#     8   8   8   8
#     4  11  27  47  73 109 145 191 244 294 365 428
#     4  12  28  46  79 105 144 192 243 295 361 432
#     4  12  25  49  74 107 147 189 240 300 357 426
#     4  11  27  47  73 105 149 189 236 305 357 431
#
# _framework density 24.692917999999999
#
# number of rings (size 3 to 8) (size 9 to 14) (size 15 to 20)
#    0.000    0.500    2.500    3.750   14.000    0.000 
#    0.000    0.000    0.000    0.000    0.000    0.000 
#    0.000    0.000    0.000    0.000    0.000    0.000 
#
# Total GULP energy -89693.664354 kJ/mol
# GULP energy per Si atom -5605.854022 kJ/mol
# Density = 2.463672 g / cm^3
# Si number density = 24.692918 Si / 1000 Ang^3
#
#
#
# Elastic Constant Matrix: (Units=GPa)
#
#
# Indices 1 2 3 4 5 6 
#
# 1 114.6492 25.2291 35.9820 0.0000 -3.4392 0.0000
# 2 25.2291 87.8272 -1.6662 -0.0001 -6.2456 0.0001
# 3 35.9820 -1.6662 75.0459 0.0000 15.8092 0.0000
# 4 0.0000 -0.0001 0.0000 31.1605 0.0000 6.7784
# 5 -3.4392 -6.2456 15.8092 0.0000 35.0328 0.0000
# 6 0.0000 0.0001 0.0000 6.7784 0.0000 31.8269
#
#
#
# Elastic Compliance Matrix: (Units=1/GPa)
#
#
# Indices 1 2 3 4 5 6 
#
# 1 0.011503 -0.003182 -0.006304 0.000000 0.003407 0.000000
# 2 -0.003182 0.012415 0.001548 0.000000 0.001202 0.000000
# 3 -0.006304 0.001548 0.018183 0.000000 -0.008548 0.000000
# 4 0.000000 0.000000 0.000000 0.033651 0.000000 -0.007167
# 5 0.003407 0.001202 -0.008548 0.000000 0.032951 0.000000
# 6 0.000000 0.000000 0.000000 -0.007167 0.000000 0.032946
#
#
# Mechanical properties :
#
#
# Convention : Reuss Voigt Hill
#
# Bulk Modulus (GPa) = 38.13062 44.06802 41.09932
# Shear Modulus (GPa) = 30.07241 34.13587 32.10414
#
# Velocity S-wave (km/s) = 3.49356 3.72212 3.60965
# Velocity P-wave (km/s) = 5.63461 6.02971 5.83550
#
# Compressibility (1/GPa) = 0.02622564
#
# Stress axis : x y z
#
# Youngs Moduli (GPa) = 86.93432 80.54886 54.99743
#
# Poissons Ratio (x) = 0.25628 0.34668
# Poissons Ratio (y) = 0.27659 -0.08513
# Poissons Ratio (z) = 0.54800 -0.12468
#
# Static dielectric constant tensor:
#      x y z
#    x 1.928520 0.000000 0.008590 
#    y 0.000000 1.987180 0.000000 
#    z 0.008590 0.000000 1.944950 
# 
# From -- ./inp_files/158165.got.cif
#   From: 2010.05.17/outbox.cif.g08.bks.cpg/sg15_80_cif.got.tgz:158165.got - 2010.06.03 18:47:42.
