data_PCOD9306972
_publ_section_title
;
Structure prediction by ZEFSAII (Michael W. Deem and Ramdas Pophale) SiO2 
 PCOD9306972
Probable space group: C 2/C
;
_chemical_formula_sum "Si O2"
_cell_formula_units_Z 48
_cell_length_a 14.915237
_cell_length_b 18.720430
_cell_length_c 10.029570
_cell_angle_alpha 90.000000
_cell_angle_beta 71.770515
_cell_angle_gamma 90.000000
_cell_volume 2659.901636
_symmetry_space_group_name_H-M "C 2/C"
_symmetry_group_IT_number 15
_symmetry_cell_setting 'monoclinic'
loop_
_space_group_symop_operation_xyz
x,y,z
-x,y,1/2-z
-x,-y,-z
x,-y,1/2+z
1/2+x,1/2+y,z
1/2-x,1/2+y,1/2-z
1/2-x,1/2-y,-z
1/2+x,1/2-y,1/2+z
loop_
_atom_site_type_symbol
_atom_site_label
_atom_site_fract_x
_atom_site_fract_y
_atom_site_fract_z
Si Si1 0.000000 0.248796 0.250000
Si Si2 0.507155 0.870809 0.027160
Si Si3 0.704022 0.076872 0.822258
Si Si4 0.702474 0.271147 0.160860
Si Si5 0.291658 0.304060 0.869019
Si Si6 0.500000 0.793227 0.750000
Si Si7 0.701322 0.053285 0.513022
O O1 0.989534 0.300740 0.381665
O O2 0.902849 0.205709 0.293465
O O3 0.406085 0.904952 0.104262
O O4 0.593963 0.921974 0.026652
O O5 0.510276 0.843941 0.874125
O O6 0.764300 0.149342 0.813695
O O7 0.712710 0.048762 0.666965
O O8 0.727365 0.018046 0.922045
O O9 0.739969 0.218000 0.257426
O O10 0.591713 0.256736 0.198251
O O11 0.750000 0.250000 0.000000
O O12 0.250000 0.250000 0.000000
O O13 0.265295 0.382293 0.929627
#
# Coordination Sequence:
#
# PCOD9306972 Si02
#       7
#     4   8   8   8   8   4   8
#     4  12  20  40  70  98 120 164 224 274 318 378
#     4  12  21  40  65  96 129 165 213 269 332 387
#     4  12  26  43  63  96 135 172 213 267 329 393
#     4  12  23  42  65  97 131 170 218 268 317 384
#     4  12  21  42  69  91 128 171 218 268 319 382
#     4  12  24  36  70 100 128 166 216 278 320 370
#     4  12  26  42  65  94 135 173 212 267 332 390
#
# _framework density 18.045781000000002
#
# number of rings (size 3 to 8) (size 9 to 14) (size 15 to 20)
#    0.000    0.000   10.000    0.500    4.667    0.000 
#    0.000    0.833    0.000    2.000    0.000    0.000 
#    0.000    0.000    0.000    0.000    0.000    0.000 
#
# Total GULP energy -134199.997174 kJ/mol
# GULP energy per Si atom -5591.666549 kJ/mol
# Density = 1.800471 g / cm^3
# Si number density = 18.045781 Si / 1000 Ang^3
#
#
#
# Elastic Constant Matrix: (Units=GPa)
#
#
# Indices 1 2 3 4 5 6 
#
# 1 104.6651 10.8009 24.9396 0.0000 -11.4106 0.0000
# 2 10.8009 64.7032 33.3705 0.0000 0.7723 0.0000
# 3 24.9396 33.3705 164.9219 0.0000 13.1046 0.0000
# 4 0.0000 0.0000 0.0000 38.4532 0.0000 0.4290
# 5 -11.4106 0.7723 13.1046 0.0000 25.0773 0.0000
# 6 0.0000 0.0000 0.0000 0.4290 0.0000 17.1431
#
#
#
# Elastic Compliance Matrix: (Units=1/GPa)
#
#
# Indices 1 2 3 4 5 6 
#
# 1 0.010747 -0.000875 -0.001918 0.000000 0.005920 0.000000
# 2 -0.000875 0.017371 -0.003452 0.000000 0.000870 0.000000
# 3 -0.001918 -0.003452 0.007421 0.000000 -0.004645 0.000000
# 4 0.000000 0.000000 0.000000 0.026013 0.000000 -0.000651
# 5 0.005920 0.000870 -0.004645 0.000000 0.044971 0.000000
# 6 0.000000 0.000000 0.000000 -0.000651 0.000000 0.058349
#
#
# Mechanical properties :
#
#
# Convention : Reuss Voigt Hill
#
# Bulk Modulus (GPa) = 43.38682 52.50135 47.94409
# Shear Modulus (GPa) = 27.02043 33.81332 30.41687
#
# Velocity S-wave (km/s) = 3.87373 4.33338 4.10999
# Velocity P-wave (km/s) = 6.64097 7.36167 7.01059
#
# Compressibility (1/GPa) = 0.02304847
#
# Stress axis : x y z
#
# Youngs Moduli (GPa) = 93.04842 57.56691 134.75150
#
# Poissons Ratio (x) = 0.05038 0.25851
# Poissons Ratio (y) = 0.08144 0.46512
# Poissons Ratio (z) = 0.17851 0.19870
#
# Static dielectric constant tensor:
#      x y z
#    x 1.640050 0.000000 0.021730 
#    y 0.000000 1.611470 0.000000 
#    z 0.021730 0.000000 1.496660 
# 
# From -- ./inp_files/39705.got.cif
#   From: 2010.05.17/outbox.cif.g08.bks.cpg/sg15_20_cif.got.tgz:39705.got - 2010.06.03 18:47:42.
