data_PCOD9306516
_publ_section_title
;
Structure prediction by ZEFSAII (Michael W. Deem and Ramdas Pophale) SiO2 
 PCOD9306516
Probable space group: C 2/C
;
_chemical_formula_sum "Si O2"
_cell_formula_units_Z 36
_cell_length_a 9.161230
_cell_length_b 21.024681
_cell_length_c 8.205242
_cell_angle_alpha 90.000000
_cell_angle_beta 111.724715
_cell_angle_gamma 90.000000
_cell_volume 1468.174524
_symmetry_space_group_name_H-M "C 2/C"
_symmetry_group_IT_number 15
_symmetry_cell_setting 'monoclinic'
loop_
_space_group_symop_operation_xyz
x,y,z
-x,y,1/2-z
-x,-y,-z
x,-y,1/2+z
1/2+x,1/2+y,z
1/2-x,1/2+y,1/2-z
1/2-x,1/2-y,-z
1/2+x,1/2-y,1/2+z
loop_
_atom_site_type_symbol
_atom_site_label
_atom_site_fract_x
_atom_site_fract_y
_atom_site_fract_z
Si Si1 0.500000 0.165454 0.750000
Si Si2 0.500000 0.840576 0.750000
Si Si3 0.500000 0.632249 0.750000
Si Si4 0.755384 0.933295 0.914509
Si Si5 0.139738 0.552474 0.015600
Si Si6 0.715023 0.735807 0.674910
O O1 0.405752 0.116046 0.598916
O O2 0.386074 0.211944 0.805709
O O3 0.603023 0.889710 0.900247
O O4 0.631133 0.795293 0.724739
O O5 0.393371 0.592155 0.583167
O O6 0.603120 0.677425 0.675328
O O7 0.743021 0.928765 0.714571
O O8 0.739852 0.007981 0.938403
O O9 0.000000 0.500000 0.000000
O O10 0.750000 0.750000 0.500000
#
# Coordination Sequence:
#
# PCOD9306516 Si02
#       6
#     4   4   4   8   8   8
#     4  12  25  48  79 123 151 204 270 322 386 482
#     4  11  25  50  78 112 155 200 261 320 390 463
#     4  11  30  50  73 115 168 198 259 328 398 459
#     4  12  26  48  79 114 153 210 259 324 397 466
#     4  12  22  45  80 112 151 201 264 322 389 468
#     4  11  28  46  78 112 157 206 260 318 389 464
#
# _framework density 24.520247999999999
#
# number of rings (size 3 to 8) (size 9 to 14) (size 15 to 20)
#    0.000    0.444    4.444    2.667    6.222    2.667 
#    0.000    0.000    0.000    0.000    0.000    0.000 
#    0.000    0.000    0.000    0.000    0.000    0.000 
#
# Total GULP energy -100595.991667 kJ/mol
# GULP energy per Si atom -5588.666204 kJ/mol
# Density = 2.446444 g / cm^3
# Si number density = 24.520248 Si / 1000 Ang^3
#
#
#
# Elastic Constant Matrix: (Units=GPa)
#
#
# Indices 1 2 3 4 5 6 
#
# 1 111.1228 64.3991 34.9466 0.0000 4.5375 0.0000
# 2 64.3991 168.4172 63.9720 0.0000 7.4467 0.0000
# 3 34.9466 63.9720 175.1314 0.0000 16.6802 0.0000
# 4 0.0000 0.0000 0.0000 47.2886 0.0000 -4.2802
# 5 4.5375 7.4467 16.6802 0.0000 46.4502 0.0000
# 6 0.0000 0.0000 0.0000 -4.2802 0.0000 -1.1341
#
#
#
# Elastic Compliance Matrix: (Units=1/GPa)
#
#
# Indices 1 2 3 4 5 6 
#
# 1 0.011661 -0.004149 -0.000793 0.000000 -0.000189 0.000000
# 2 -0.004149 0.008373 -0.002217 0.000000 -0.000141 0.000000
# 3 -0.000793 -0.002217 0.006872 0.000000 -0.002035 0.000000
# 4 0.000000 0.000000 0.000000 0.015762 0.000000 -0.059488
# 5 -0.000189 -0.000141 -0.002035 0.000000 0.022300 0.000000
# 6 0.000000 0.000000 0.000000 -0.059488 0.000000 -0.657237
#
#
# Mechanical properties :
#
#
# Convention : Reuss Voigt Hill
#
# Bulk Modulus (GPa) = 79.45030 86.81186 83.13108
# Shear Modulus (GPa) = -8.71452 37.94452 14.61500
#
# Velocity S-wave (km/s) = -1.88725 3.93807 2.44404
# Velocity P-wave (km/s) = 5.26529 7.49392 6.47619
#
# Compressibility (1/GPa) = 0.01258649
#
# Stress axis : x y z
#
# Youngs Moduli (GPa) = 85.75731 119.43842 145.52031
#
# Poissons Ratio (x) = 0.49557 0.11543
# Poissons Ratio (y) = 0.35582 0.32261
# Poissons Ratio (z) = 0.06803 0.26479
#
# Static dielectric constant tensor:
#      x y z
#    x 2.098030 0.000000 -0.017570 
#    y 0.000000 1.913940 0.000000 
#    z -0.017570 0.000000 2.016160 
# 
# From -- ./inp_files/23888.got.cif
#   From: 2010.05.17/outbox.cif.g08.bks.cpg/sg15_12_cif.got.tgz:23888.got - 2010.06.03 18:47:42.
