data_PCOD9306869
_publ_section_title
;
Structure prediction by ZEFSAII (Michael W. Deem and Ramdas Pophale) SiO2 
 PCOD9306869
Probable space group: C 2/C
;
_chemical_formula_sum "Si O2"
_cell_formula_units_Z 32
_cell_length_a 27.346190
_cell_length_b 4.932334
_cell_length_c 15.328356
_cell_angle_alpha 90.000000
_cell_angle_beta 143.724630
_cell_angle_gamma 90.000000
_cell_volume 1223.269064
_symmetry_space_group_name_H-M "C 2/C"
_symmetry_group_IT_number 15
_symmetry_cell_setting 'monoclinic'
loop_
_space_group_symop_operation_xyz
x,y,z
-x,y,1/2-z
-x,-y,-z
x,-y,1/2+z
1/2+x,1/2+y,z
1/2-x,1/2+y,1/2-z
1/2-x,1/2-y,-z
1/2+x,1/2-y,1/2+z
loop_
_atom_site_type_symbol
_atom_site_label
_atom_site_fract_x
_atom_site_fract_y
_atom_site_fract_z
Si Si1 0.331844 0.443615 0.691897
Si Si2 0.069004 0.936799 0.498315
Si Si3 0.662789 0.212925 0.478904
Si Si4 0.455633 0.064387 0.803002
O O1 0.392915 0.538456 0.856410
O O2 0.332761 0.586908 0.598416
O O3 0.240717 0.513060 0.594768
O O4 0.369338 0.142487 0.729974
O O5 0.143343 0.873888 0.538717
O O6 0.014905 0.662701 0.428926
O O7 0.006625 0.159982 0.372337
O O8 0.581698 0.038698 0.341228
#
# Coordination Sequence:
#
# PCOD9306869 Si02
#       4
#     8   8   8   8
#     4  11  27  53  77 114 156 202 255 314 393 453
#     4  12  29  48  80 115 153 204 259 315 380 460
#     4  11  28  50  79 113 159 202 253 321 383 459
#     4  12  26  51  76 115 151 202 259 314 380 456
#
# _framework density 26.159412
#
# number of rings (size 3 to 8) (size 9 to 14) (size 15 to 20)
#    0.000    0.500    2.500    3.000   10.500    2.000 
#    4.500    0.000    0.000    0.000    0.000    0.000 
#    0.000    0.000    0.000    0.000    0.000    0.000 
#
# Total GULP energy -89621.719067 kJ/mol
# GULP energy per Si atom -5601.357442 kJ/mol
# Density = 2.609987 g / cm^3
# Si number density = 26.159412 Si / 1000 Ang^3
#
#
#
# Elastic Constant Matrix: (Units=GPa)
#
#
# Indices 1 2 3 4 5 6 
#
# 1 153.1656 36.4418 35.1064 0.0000 11.6198 0.0000
# 2 36.4418 127.2915 41.0315 0.0001 18.3862 0.0001
# 3 35.1064 41.0315 129.3931 0.0000 15.9302 0.0000
# 4 0.0000 0.0001 0.0000 34.3856 0.0000 1.3921
# 5 11.6198 18.3862 15.9302 0.0000 48.6873 0.0000
# 6 0.0000 0.0001 0.0000 1.3921 0.0000 36.1001
#
#
#
# Elastic Compliance Matrix: (Units=1/GPa)
#
#
# Indices 1 2 3 4 5 6 
#
# 1 0.007267 -0.001528 -0.001401 0.000000 -0.000699 0.000000
# 2 -0.001528 0.009373 -0.002258 0.000000 -0.002436 0.000000
# 3 -0.001401 -0.002258 0.009043 0.000000 -0.001772 0.000000
# 4 0.000000 0.000000 0.000000 0.029127 0.000000 -0.001123
# 5 -0.000699 -0.002436 -0.001772 0.000000 0.022206 0.000000
# 6 0.000000 0.000000 0.000000 -0.001123 0.000000 0.027744
#
#
# Mechanical properties :
#
#
# Convention : Reuss Voigt Hill
#
# Bulk Modulus (GPa) = 65.32107 70.55661 67.93884
# Shear Modulus (GPa) = 41.58505 43.65264 42.61884
#
# Velocity S-wave (km/s) = 3.99140 4.08942 4.04071
# Velocity P-wave (km/s) = 6.80194 7.02340 6.91356
#
# Compressibility (1/GPa) = 0.01530900
#
# Stress axis : x y z
#
# Youngs Moduli (GPa) = 137.61764 106.68889 110.58774
#
# Poissons Ratio (x) = 0.16299 0.15494
# Poissons Ratio (y) = 0.21024 0.24969
# Poissons Ratio (z) = 0.19280 0.24088
#
# Static dielectric constant tensor:
#      x y z
#    x 2.178220 0.000000 0.036990 
#    y 0.000000 2.057520 0.000000 
#    z 0.036990 0.000000 1.976170 
# 
# From -- ./inp_files/223771.got.cif
#   From: 2010.05.17/outbox.cif.g08.bks.cpg/sg15_112_cif.got.tgz:223771.got - 2010.06.03 18:47:42.
