data_PCOD9306724
_publ_section_title
;
Structure prediction by ZEFSAII (Michael W. Deem and Ramdas Pophale) SiO2 
 PCOD9306724
Probable space group: C 2/C
;
_chemical_formula_sum "Si O2"
_cell_formula_units_Z 44
_cell_length_a 5.948389
_cell_length_b 25.961261
_cell_length_c 12.324372
_cell_angle_alpha 90.000000
_cell_angle_beta 109.637118
_cell_angle_gamma 90.000000
_cell_volume 1792.532534
_symmetry_space_group_name_H-M "C 2/C"
_symmetry_group_IT_number 15
_symmetry_cell_setting 'monoclinic'
loop_
_space_group_symop_operation_xyz
x,y,z
-x,y,1/2-z
-x,-y,-z
x,-y,1/2+z
1/2+x,1/2+y,z
1/2-x,1/2+y,1/2-z
1/2-x,1/2-y,-z
1/2+x,1/2-y,1/2+z
loop_
_atom_site_type_symbol
_atom_site_label
_atom_site_fract_x
_atom_site_fract_y
_atom_site_fract_z
Si Si1 0.000000 0.909789 0.250000
Si Si2 0.755843 0.994847 0.600182
Si Si3 0.305629 0.670094 0.594796
Si Si4 0.901999 0.269559 0.920015
Si Si5 0.941409 0.099258 0.433998
Si Si6 0.000000 0.176159 0.250000
Si Si7 0.500000 0.057425 0.250000
O O1 0.791103 0.864862 0.201212
O O2 0.899746 0.952608 0.146126
O O3 0.907397 0.952478 0.559135
O O4 0.686428 0.974309 0.708402
O O5 0.500000 0.000000 0.500000
O O6 0.438886 0.724672 0.607383
O O7 0.462320 0.631756 0.545881
O O8 0.060401 0.684117 0.494945
O O9 0.729991 0.288684 0.797027
O O10 0.750000 0.250000 0.000000
O O11 0.016071 0.139143 0.354098
O O12 0.664123 0.087781 0.361352
#
# Coordination Sequence:
#
# PCOD9306724 Si02
#       7
#     4   8   8   8   8   4   4
#     4  12  27  50  71 112 144 195 245 298 382 434
#     4  12  28  46  70 109 149 187 251 304 364 457
#     4  11  28  46  76 103 150 192 244 306 376 439
#     4  11  26  49  70 113 145 189 250 310 362 452
#     4  12  24  47  71 108 139 196 247 294 368 451
#     4  12  23  44  75 100 146 185 239 302 372 434
#     4  12  22  44  72  96 144 188 238 296 358 426
#
# _framework density 24.546278000000001
#
# number of rings (size 3 to 8) (size 9 to 14) (size 15 to 20)
#    0.000    0.364    5.455    2.182    7.636    1.455 
#    0.000    0.000    0.000    0.000    0.000    0.000 
#    0.000    0.000    0.000    0.000    0.000    0.000 
#
# Total GULP energy -122757.740356 kJ/mol
# GULP energy per Si atom -5579.897289 kJ/mol
# Density = 2.449041 g / cm^3
# Si number density = 24.546278 Si / 1000 Ang^3
#
#
#
# Elastic Constant Matrix: (Units=GPa)
#
#
# Indices 1 2 3 4 5 6 
#
# 1 70.3559 49.0698 27.7418 0.0000 10.5836 0.0000
# 2 49.0698 158.8841 71.9059 0.0000 23.0723 0.0000
# 3 27.7418 71.9059 124.8010 0.0000 32.1238 0.0000
# 4 0.0000 0.0000 0.0000 30.2851 0.0000 18.8851
# 5 10.5836 23.0723 32.1238 0.0000 57.2502 0.0000
# 6 0.0000 0.0000 0.0000 18.8851 0.0000 9.7387
#
#
#
# Elastic Compliance Matrix: (Units=1/GPa)
#
#
# Indices 1 2 3 4 5 6 
#
# 1 0.018257 -0.005111 -0.000906 0.000000 -0.000807 0.000000
# 2 -0.005111 0.009976 -0.004465 0.000000 -0.000570 0.000000
# 3 -0.000906 -0.004465 0.012016 0.000000 -0.004775 0.000000
# 4 0.000000 0.000000 0.000000 -0.157810 0.000000 0.306024
# 5 -0.000807 -0.000570 -0.004775 0.000000 0.020526 0.000000
# 6 0.000000 0.000000 0.000000 0.306024 0.000000 -0.490755
#
#
# Mechanical properties :
#
#
# Convention : Reuss Voigt Hill
#
# Bulk Modulus (GPa) = 51.85387 72.38624 62.12006
# Shear Modulus (GPa) = -8.92222 33.14303 12.11040
#
# Velocity S-wave (km/s) = -1.90860 3.67853 2.22360
# Velocity P-wave (km/s) = 4.03904 6.89897 5.65286
#
# Compressibility (1/GPa) = 0.01928496
#
# Stress axis : x y z
#
# Youngs Moduli (GPa) = 54.77375 100.24101 83.22453
#
# Poissons Ratio (x) = 0.51238 0.07536
# Poissons Ratio (y) = 0.27997 0.37158
# Poissons Ratio (z) = 0.04960 0.44756
#
# Static dielectric constant tensor:
#      x y z
#    x 1.466680 0.000000 0.373110 
#    y 0.000000 2.039270 0.000000 
#    z 0.373110 0.000000 1.754600 
# 
# From -- ./inp_files/130165.got.cif
#   From: 2010.05.17/outbox.cif.g08.bks.cpg/sg15_66_cif.got.tgz:130165.got - 2010.06.03 18:47:42.
