data_PCOD9306381
_publ_section_title
;
Structure prediction by ZEFSAII (Michael W. Deem and Ramdas Pophale) SiO2 
 PCOD9306381
Probable space group: C 2/C
;
_chemical_formula_sum "Si O2"
_cell_formula_units_Z 32
_cell_length_a 20.469290
_cell_length_b 7.739779
_cell_length_c 11.345616
_cell_angle_alpha 90.000000
_cell_angle_beta 134.219626
_cell_angle_gamma 90.000000
_cell_volume 1288.189370
_symmetry_space_group_name_H-M "C 2/C"
_symmetry_group_IT_number 15
_symmetry_cell_setting 'monoclinic'
loop_
_space_group_symop_operation_xyz
x,y,z
-x,y,1/2-z
-x,-y,-z
x,-y,1/2+z
1/2+x,1/2+y,z
1/2-x,1/2+y,1/2-z
1/2-x,1/2-y,-z
1/2+x,1/2-y,1/2+z
loop_
_atom_site_type_symbol
_atom_site_label
_atom_site_fract_x
_atom_site_fract_y
_atom_site_fract_z
Si Si1 0.897194 0.321023 0.639946
Si Si2 0.630928 0.258160 0.139028
Si Si3 0.053254 0.298759 0.208778
Si Si4 0.319067 0.358817 0.817941
O O1 0.855168 0.235183 0.703040
O O2 0.908532 0.522275 0.690620
O O3 0.846121 0.271612 0.456802
O O4 0.000000 0.256185 0.750000
O O5 0.642712 0.451830 0.106789
O O6 0.709994 0.145337 0.179657
O O7 0.530518 0.183098 0.988743
O O8 0.133734 0.202490 0.243114
O O9 0.000000 0.208684 0.250000
#
# Coordination Sequence:
#
# PCOD9306381 Si02
#       4
#     8   8   8   8
#     4  11  25  47  78 103 150 193 248 303 372 428
#     4  12  27  47  76 111 152 194 249 303 374 438
#     4  11  27  47  78 104 150 196 248 300 377 431
#     4  12  28  47  76 112 152 192 251 307 367 443
#
# _framework density 24.841069999999998
#
# number of rings (size 3 to 8) (size 9 to 14) (size 15 to 20)
#    0.000    0.500    2.500    3.750   14.000    1.000 
#    0.000    0.000    0.000    0.000    0.000    0.000 
#    0.000    0.000    0.000    0.000    0.000    0.000 
#
# Total GULP energy -89630.569654 kJ/mol
# GULP energy per Si atom -5601.910603 kJ/mol
# Density = 2.478453 g / cm^3
# Si number density = 24.841070 Si / 1000 Ang^3
#
#
#
# Elastic Constant Matrix: (Units=GPa)
#
#
# Indices 1 2 3 4 5 6 
#
# 1 166.7212 24.1663 9.0717 0.0000 -9.2822 0.0000
# 2 24.1663 146.3739 40.8825 0.0000 0.3217 0.0000
# 3 9.0717 40.8825 46.6861 0.0000 -16.1052 0.0000
# 4 0.0000 0.0000 0.0000 -9.7070 0.0000 -10.1046
# 5 -9.2822 0.3217 -16.1052 0.0000 43.8629 0.0000
# 6 0.0000 0.0000 0.0000 -10.1046 0.0000 34.4673
#
#
#
# Elastic Compliance Matrix: (Units=1/GPa)
#
#
# Indices 1 2 3 4 5 6 
#
# 1 0.006223 -0.001097 0.000239 0.000000 0.001413 0.000000
# 2 -0.001097 0.009704 -0.009606 0.000000 -0.003831 0.000000
# 3 0.000239 -0.009606 0.034153 0.000000 0.012661 0.000000
# 4 0.000000 0.000000 0.000000 -0.078931 0.000000 -0.023140
# 5 0.001413 -0.003831 0.012661 0.000000 0.027774 0.000000
# 6 0.000000 0.000000 0.000000 -0.023140 0.000000 0.022229
#
#
# Mechanical properties :
#
#
# Convention : Reuss Voigt Hill
#
# Bulk Modulus (GPa) = 34.30404 56.44692 45.37548
# Shear Modulus (GPa) = 96.52733 32.76868 64.64801
#
# Velocity S-wave (km/s) = 6.24038 3.63593 5.10697
# Velocity P-wave (km/s) = 8.10941 6.35604 7.28566
#
# Compressibility (1/GPa) = 0.02915108
#
# Stress axis : x y z
#
# Youngs Moduli (GPa) = 160.70127 103.04558 29.28008
#
# Poissons Ratio (x) = 0.11306 -0.00700
# Poissons Ratio (y) = 0.17633 0.28127
# Poissons Ratio (z) = -0.03841 0.98988
#
# Static dielectric constant tensor:
#      x y z
#    x 1.924850 0.000000 -0.009880 
#    y 0.000000 1.946380 0.000000 
#    z -0.009880 0.000000 2.036590 
# 
# From -- ./inp_files/102558.got.cif
#   From: 2010.05.17/outbox.cif.g08.bks.cpg/sg15_52_cif.got.tgz:102558.got - 2010.06.03 18:47:42.
