data_PCOD9306994
_publ_section_title
;
Structure prediction by ZEFSAII (Michael W. Deem and Ramdas Pophale) SiO2 
 PCOD9306994
Probable space group: C 2/C
;
_chemical_formula_sum "Si O2"
_cell_formula_units_Z 44
_cell_length_a 22.051781
_cell_length_b 11.227314
_cell_length_c 9.193162
_cell_angle_alpha 90.000000
_cell_angle_beta 126.271032
_cell_angle_gamma 90.000000
_cell_volume 1835.025303
_symmetry_space_group_name_H-M "C 2/C"
_symmetry_group_IT_number 15
_symmetry_cell_setting 'monoclinic'
loop_
_space_group_symop_operation_xyz
x,y,z
-x,y,1/2-z
-x,-y,-z
x,-y,1/2+z
1/2+x,1/2+y,z
1/2-x,1/2+y,1/2-z
1/2-x,1/2-y,-z
1/2+x,1/2-y,1/2+z
loop_
_atom_site_type_symbol
_atom_site_label
_atom_site_fract_x
_atom_site_fract_y
_atom_site_fract_z
Si Si1 0.896870 0.154743 0.421988
Si Si2 0.000000 0.450739 0.250000
Si Si3 0.126201 0.924711 0.935947
Si Si4 0.711398 0.118898 0.722550
Si Si5 0.853041 0.580369 0.160489
Si Si6 0.548561 0.749879 0.544138
O O1 0.838538 0.263232 0.334853
O O2 0.981182 0.204947 0.548997
O O3 0.877690 0.060421 0.518160
O O4 0.890850 0.090361 0.257011
O O5 0.072498 0.528626 0.313136
O O6 0.018896 0.364820 0.412328
O O7 0.207545 0.870746 0.090493
O O8 0.069658 0.849345 0.956316
O O9 0.711673 0.089516 0.551822
O O10 0.671244 0.010813 0.749826
O O11 0.878962 0.705072 0.265193
#
# Coordination Sequence:
#
# PCOD9306994 Si02
#       6
#     8   4   8   8   8   8
#     4  12  27  50  71 108 142 191 240 291 355 425
#     4  12  20  46  68 112 130 190 230 306 350 410
#     4  12  28  47  74 101 150 189 237 289 364 424
#     4  12  27  47  75 107 145 187 237 299 352 426
#     4  12  25  44  76 108 142 183 247 291 360 412
#     4  12  24  45  75 101 145 190 237 296 352 420
#
# _framework density 23.977871
#
# number of rings (size 3 to 8) (size 9 to 14) (size 15 to 20)
#    0.000    0.000    5.455    3.818    5.091    0.727 
#    0.000    0.000    0.000    0.000    0.000    0.000 
#    0.000    0.000    0.000    0.000    0.000    0.000 
#
# Total GULP energy -123491.325387 kJ/mol
# GULP energy per Si atom -5613.242063 kJ/mol
# Density = 2.392330 g / cm^3
# Si number density = 23.977871 Si / 1000 Ang^3
#
#
#
# Elastic Constant Matrix: (Units=GPa)
#
#
# Indices 1 2 3 4 5 6 
#
# 1 57.5679 30.3801 3.5410 0.0000 7.7509 0.0000
# 2 30.3801 106.8115 29.4393 0.0000 -15.2045 0.0000
# 3 3.5410 29.4393 113.7792 0.0000 -19.8124 0.0000
# 4 0.0000 0.0000 0.0000 29.5418 0.0000 -14.1852
# 5 7.7509 -15.2045 -19.8124 0.0000 34.4952 0.0000
# 6 0.0000 0.0000 0.0000 -14.1852 0.0000 14.4062
#
#
#
# Elastic Compliance Matrix: (Units=1/GPa)
#
#
# Indices 1 2 3 4 5 6 
#
# 1 0.022519 -0.007555 -0.000230 0.000000 -0.008522 0.000000
# 2 -0.007555 0.012960 -0.002031 0.000000 0.006243 0.000000
# 3 -0.000230 -0.002031 0.010194 0.000000 0.005012 0.000000
# 4 0.000000 0.000000 0.000000 0.064209 0.000000 0.063223
# 5 -0.008522 0.006243 0.005012 0.000000 0.036535 0.000000
# 6 0.000000 0.000000 0.000000 0.063223 0.000000 0.131668
#
#
# Mechanical properties :
#
#
# Convention : Reuss Voigt Hill
#
# Bulk Modulus (GPa) = 38.40017 44.98660 41.69339
# Shear Modulus (GPa) = 16.31875 30.00851 23.16363
#
# Velocity S-wave (km/s) = 2.61161 3.54150 3.11149
# Velocity P-wave (km/s) = 5.01434 5.96032 5.50768
#
# Compressibility (1/GPa) = 0.02604155
#
# Stress axis : x y z
#
# Youngs Moduli (GPa) = 44.40661 77.16318 98.09439
#
# Poissons Ratio (x) = 0.58295 0.02257
# Poissons Ratio (y) = 0.33548 0.19922
# Poissons Ratio (z) = 0.01022 0.15671
#
# Static dielectric constant tensor:
#      x y z
#    x 1.869440 0.000000 0.003580 
#    y 0.000000 1.871730 0.000000 
#    z 0.003580 0.000000 1.910200 
# 
# From -- ./inp_files/54374.got.cif
#   From: 2010.05.17/outbox.cif.g08.bks.cpg/sg15_28_cif.got.tgz:54374.got - 2010.06.03 18:47:42.
