data_PCOD9306141
_publ_section_title
;
Structure prediction by ZEFSAII (Michael W. Deem and Ramdas Pophale) SiO2 
 PCOD9306141
Probable space group: C 2/C
;
_chemical_formula_sum "Si O2"
_cell_formula_units_Z 48
_cell_length_a 8.755970
_cell_length_b 15.877351
_cell_length_c 23.803793
_cell_angle_alpha 90.000000
_cell_angle_beta 142.380943
_cell_angle_gamma 90.000000
_cell_volume 2019.989705
_symmetry_space_group_name_H-M "C 2/C"
_symmetry_group_IT_number 15
_symmetry_cell_setting 'monoclinic'
loop_
_space_group_symop_operation_xyz
x,y,z
-x,y,1/2-z
-x,-y,-z
x,-y,1/2+z
1/2+x,1/2+y,z
1/2-x,1/2+y,1/2-z
1/2-x,1/2-y,-z
1/2+x,1/2-y,1/2+z
loop_
_atom_site_type_symbol
_atom_site_label
_atom_site_fract_x
_atom_site_fract_y
_atom_site_fract_z
Si Si1 0.933581 0.464730 0.898379
Si Si2 0.248949 0.115109 0.915920
Si Si3 0.000000 0.565208 0.750000
Si Si4 0.500000 0.342243 0.750000
Si Si5 0.206749 0.047410 0.096577
Si Si6 0.538182 0.263520 0.570270
Si Si7 0.713456 0.804264 0.237355
O O1 0.038279 0.455337 0.866067
O O2 0.840821 0.556704 0.890683
O O3 0.698352 0.402766 0.838570
O O4 0.165856 0.438450 0.005638
O O5 0.401082 0.202481 0.963528
O O6 0.967996 0.147341 0.826691
O O7 0.232036 0.503740 0.829083
O O8 0.009259 0.628187 0.699504
O O9 0.340082 0.280307 0.743006
O O10 0.117421 0.141468 0.082659
O O11 0.000000 0.000000 0.000000
O O12 0.691861 0.225191 0.667356
O O13 0.250000 0.250000 0.500000
#
# Coordination Sequence:
#
# PCOD9306141 Si02
#       7
#     8   8   4   4   8   8   8
#     4  11  26  45  71 106 146 195 253 318 381 463
#     4  11  25  45  71 103 144 197 248 311 381 450
#     4  11  26  44  73 104 146 190 245 314 370 453
#     4  11  26  42  69 104 144 192 245 314 378 457
#     4  12  27  46  73 108 148 197 251 317 382 451
#     4  12  26  44  71 103 147 192 249 304 380 454
#     4  11  25  45  70 104 143 192 249 305 380 448
#
# _framework density 23.762497
#
# number of rings (size 3 to 8) (size 9 to 14) (size 15 to 20)
#    0.000    0.667    0.000    6.500    9.333    8.000 
#    0.000    0.000    0.000    0.000    0.000    0.000 
#    0.000    0.000    0.000    0.000    0.000    0.000 
#
# Total GULP energy -134317.283466 kJ/mol
# GULP energy per Si atom -5596.553478 kJ/mol
# Density = 2.370841 g / cm^3
# Si number density = 23.762497 Si / 1000 Ang^3
#
#
#
# Elastic Constant Matrix: (Units=GPa)
#
#
# Indices 1 2 3 4 5 6 
#
# 1 64.3908 37.4745 13.6766 0.0000 2.1310 0.0000
# 2 37.4745 210.4303 51.6943 0.0000 0.4380 0.0000
# 3 13.6766 51.6943 118.0513 -0.0001 9.6396 -0.0001
# 4 0.0000 0.0000 -0.0001 41.0545 0.0000 11.0372
# 5 2.1310 0.4380 9.6396 0.0000 35.7589 -0.0001
# 6 0.0000 0.0000 -0.0001 11.0372 -0.0001 40.6452
#
#
#
# Elastic Compliance Matrix: (Units=1/GPa)
#
#
# Indices 1 2 3 4 5 6 
#
# 1 0.017407 -0.002935 -0.000664 0.000000 -0.000822 0.000000
# 2 -0.002935 0.005831 -0.002272 0.000000 0.000716 0.000000
# 3 -0.000664 -0.002272 0.009752 0.000000 -0.002561 0.000000
# 4 0.000000 0.000000 0.000000 0.026276 0.000000 -0.007135
# 5 -0.000822 0.000716 -0.002561 0.000000 0.028696 0.000000
# 6 0.000000 0.000000 0.000000 -0.007135 0.000000 0.026541
#
#
# Mechanical properties :
#
#
# Convention : Reuss Voigt Hill
#
# Bulk Modulus (GPa) = 47.06433 66.50703 56.78568
# Shear Modulus (GPa) = 37.50157 42.82684 40.16421
#
# Velocity S-wave (km/s) = 3.97695 4.24994 4.11571
# Velocity P-wave (km/s) = 6.39822 7.22023 6.82162
#
# Compressibility (1/GPa) = 0.02124752
#
# Stress axis : x y z
#
# Youngs Moduli (GPa) = 57.44957 171.48256 102.54394
#
# Poissons Ratio (x) = 0.50330 0.06811
# Poissons Ratio (y) = 0.16861 0.23298
# Poissons Ratio (z) = 0.03816 0.38961
#
# Static dielectric constant tensor:
#      x y z
#    x 2.014200 0.000000 0.018930 
#    y 0.000000 1.847180 0.000000 
#    z 0.018930 0.000000 1.989330 
# 
# From -- ./inp_files/289141.got.cif
#   From: 2010.05.17/outbox.cif.g08.bks.cpg/sg15_145_cif.got.tgz:289141.got - 2010.06.03 18:47:42.
