data_PCOD9306294
_publ_section_title
;
Structure prediction by ZEFSAII (Michael W. Deem and Ramdas Pophale) SiO2 
 PCOD9306294
Probable space group: C 2/C
;
_chemical_formula_sum "Si O2"
_cell_formula_units_Z 60
_cell_length_a 16.833096
_cell_length_b 6.476174
_cell_length_c 22.467600
_cell_angle_alpha 90.000000
_cell_angle_beta 89.567819
_cell_angle_gamma 90.000000
_cell_volume 2449.214587
_symmetry_space_group_name_H-M "C 2/C"
_symmetry_group_IT_number 15
_symmetry_cell_setting 'monoclinic'
loop_
_space_group_symop_operation_xyz
x,y,z
-x,y,1/2-z
-x,-y,-z
x,-y,1/2+z
1/2+x,1/2+y,z
1/2-x,1/2+y,1/2-z
1/2-x,1/2-y,-z
1/2+x,1/2-y,1/2+z
loop_
_atom_site_type_symbol
_atom_site_label
_atom_site_fract_x
_atom_site_fract_y
_atom_site_fract_z
Si Si1 0.447833 0.492644 0.408366
Si Si2 0.219004 0.839629 0.837292
Si Si3 0.582049 0.111367 0.521592
Si Si4 0.885150 0.239700 0.788907
Si Si5 0.812098 0.751522 0.448121
Si Si6 0.500000 0.590103 0.250000
Si Si7 0.927035 0.563790 0.696181
Si Si8 0.383884 0.295685 0.103205
O O1 0.441969 0.727995 0.427403
O O2 0.414105 0.361258 0.351447
O O3 0.385826 0.402771 0.457474
O O4 0.539297 0.435790 0.409568
O O5 0.294654 0.818484 0.792631
O O6 0.256403 0.713895 0.892093
O O7 0.150982 0.703233 0.809378
O O8 0.183921 0.058297 0.864613
O O9 0.628271 0.194993 0.462170
O O10 0.500000 0.000000 0.500000
O O11 0.643486 0.964977 0.555038
O O12 0.924498 0.439025 0.758767
O O13 0.922443 0.054413 0.748934
O O14 0.750000 0.750000 0.500000
O O15 0.507728 0.750314 0.304533
O O16 0.916223 0.388239 0.646181
#
# Coordination Sequence:
#
# PCOD9306294 Si02
#       8
#     8   8   8   8   8   4   8   8
#     4  11  25  46  74 109 157 201 271 318 391 481
#     4  11  28  45  75 108 160 200 261 329 392 483
#     4  12  27  44  81 115 158 215 262 327 394 481
#     4  11  27  48  75 111 150 211 264 331 406 476
#     4  11  25  47  71 112 154 207 256 327 390 461
#     4  12  26  48  78 110 150 200 268 330 404 496
#     4  12  27  47  79 111 155 207 258 336 405 487
#     4  12  26  46  76 118 154 211 261 320 406 474
#
# _framework density 24.497651999999999
#
# number of rings (size 3 to 8) (size 9 to 14) (size 15 to 20)
#    0.000    0.533    1.333    5.600    9.333    6.400 
#    0.000    0.000    0.000    0.000    0.000    0.000 
#    0.000    0.000    0.000    0.000    0.000    0.000 
#
# Total GULP energy -167042.585211 kJ/mol
# GULP energy per Si atom -5568.086174 kJ/mol
# Density = 2.444189 g / cm^3
# Si number density = 24.497652 Si / 1000 Ang^3
#
#
#
# Elastic Constant Matrix: (Units=GPa)
#
#
# Indices 1 2 3 4 5 6 
#
# 1 122.7701 58.8978 12.1450 0.0000 -20.2188 0.0000
# 2 58.8978 122.8813 37.5169 0.0000 -9.3852 0.0000
# 3 12.1450 37.5169 53.2571 0.0000 -12.5700 0.0000
# 4 0.0000 0.0000 0.0000 21.4725 0.0000 23.3365
# 5 -20.2188 -9.3852 -12.5700 0.0000 34.2155 0.0000
# 6 0.0000 0.0000 0.0000 23.3365 0.0000 -5.6798
#
#
#
# Elastic Compliance Matrix: (Units=1/GPa)
#
#
# Indices 1 2 3 4 5 6 
#
# 1 0.011849 -0.006149 0.003158 0.000000 0.006476 0.000000
# 2 -0.006149 0.013560 -0.008901 0.000000 -0.003184 0.000000
# 3 0.003158 -0.008901 0.026488 0.000000 0.009156 0.000000
# 4 0.000000 0.000000 0.000000 0.008521 0.000000 0.035011
# 5 0.006476 -0.003184 0.009156 0.000000 0.035543 0.000000
# 6 0.000000 0.000000 0.000000 0.035011 0.000000 -0.032214
#
#
# Mechanical properties :
#
#
# Convention : Reuss Voigt Hill
#
# Bulk Modulus (GPa) = 35.57188 57.33644 46.45416
# Shear Modulus (GPa) = 51.59792 22.69156 37.14474
#
# Velocity S-wave (km/s) = 4.59436 3.04678 3.89814
# Velocity P-wave (km/s) = 6.53423 5.98605 6.26614
#
# Compressibility (1/GPa) = 0.02811209
#
# Stress axis : x y z
#
# Youngs Moduli (GPa) = 84.39328 73.74804 37.75251
#
# Poissons Ratio (x) = 0.45348 -0.11922
# Poissons Ratio (y) = 0.51893 0.33605
# Poissons Ratio (z) = -0.26650 0.65647
#
# Static dielectric constant tensor:
#      x y z
#    x 2.116640 0.000000 -0.122670 
#    y 0.000000 2.119750 0.000000 
#    z -0.122670 0.000000 2.427580 
# 
# From -- ./inp_files/297755.got.cif
#   From: 2010.05.17/outbox.cif.g08.bks.cpg/sg15_149_cif.got.tgz:297755.got - 2010.06.03 18:47:42.
