data_PCOD9306756
_publ_section_title
;
Structure prediction by ZEFSAII (Michael W. Deem and Ramdas Pophale) SiO2 
 PCOD9306756
Probable space group: C 2/C
;
_chemical_formula_sum "Si O2"
_cell_formula_units_Z 40
_cell_length_a 12.014138
_cell_length_b 8.333613
_cell_length_c 18.576806
_cell_angle_alpha 90.000000
_cell_angle_beta 75.042343
_cell_angle_gamma 90.000000
_cell_volume 1796.911305
_symmetry_space_group_name_H-M "C 2/C"
_symmetry_group_IT_number 15
_symmetry_cell_setting 'monoclinic'
loop_
_space_group_symop_operation_xyz
x,y,z
-x,y,1/2-z
-x,-y,-z
x,-y,1/2+z
1/2+x,1/2+y,z
1/2-x,1/2+y,1/2-z
1/2-x,1/2-y,-z
1/2+x,1/2-y,1/2+z
loop_
_atom_site_type_symbol
_atom_site_label
_atom_site_fract_x
_atom_site_fract_y
_atom_site_fract_z
Si Si1 0.790792 0.896258 0.314234
Si Si2 0.409742 0.322837 0.707323
Si Si3 0.523838 0.162550 0.162202
Si Si4 0.086756 0.677590 0.583658
Si Si5 0.172745 0.312767 0.908253
O O1 0.702085 0.785234 0.285872
O O2 0.871639 0.786530 0.349964
O O3 0.865758 0.011136 0.249307
O O4 0.716517 0.012658 0.376841
O O5 0.500000 0.253398 0.750000
O O6 0.489592 0.307898 0.623167
O O7 0.500000 0.126620 0.250000
O O8 0.415044 0.238745 0.139332
O O9 0.549834 0.998594 0.115883
O O10 0.108396 0.683647 0.495104
O O11 0.209603 0.714083 0.600824
#
# Coordination Sequence:
#
# PCOD9306756 Si02
#       5
#     8   8   8   8   8
#     4  12  28  43  76 106 146 190 254 299 370 427
#     4  12  26  47  71 108 146 194 238 312 353 443
#     4  12  27  44  75 109 144 196 241 305 359 441
#     4  11  26  50  75 103 155 193 242 301 375 426
#     4  11  26  51  72 109 149 193 243 305 362 451
#
# _framework density 22.260421000000001
#
# number of rings (size 3 to 8) (size 9 to 14) (size 15 to 20)
#    0.000    0.400    4.000    3.000    2.800    2.400 
#    0.000    2.000    0.000    0.000    0.000    0.000 
#    0.000    0.000    0.000    0.000    0.000    0.000 
#
# Total GULP energy -111933.498923 kJ/mol
# GULP energy per Si atom -5596.674946 kJ/mol
# Density = 2.220976 g / cm^3
# Si number density = 22.260421 Si / 1000 Ang^3
#
#
#
# Elastic Constant Matrix: (Units=GPa)
#
#
# Indices 1 2 3 4 5 6 
#
# 1 182.0197 38.9062 64.1682 0.0000 17.2205 0.0000
# 2 38.9062 39.9724 19.6016 0.0000 3.3582 0.0000
# 3 64.1682 19.6016 129.3605 0.0000 -14.1598 0.0000
# 4 0.0000 0.0000 0.0000 10.7864 0.0000 3.0634
# 5 17.2205 3.3582 -14.1598 0.0000 39.5310 0.0000
# 6 0.0000 0.0000 0.0000 3.0634 0.0000 22.3499
#
#
#
# Elastic Compliance Matrix: (Units=1/GPa)
#
#
# Indices 1 2 3 4 5 6 
#
# 1 0.008583 -0.006085 -0.003838 0.000000 -0.004597 0.000000
# 2 -0.006085 0.031935 -0.001902 0.000000 -0.000743 0.000000
# 3 -0.003838 -0.001902 0.010536 0.000000 0.005608 0.000000
# 4 0.000000 0.000000 0.000000 0.096464 0.000000 -0.013222
# 5 -0.004597 -0.000743 0.005608 0.000000 0.029371 0.000000
# 6 0.000000 0.000000 0.000000 -0.013222 0.000000 0.046555
#
#
# Mechanical properties :
#
#
# Convention : Reuss Voigt Hill
#
# Bulk Modulus (GPa) = 36.49209 66.30052 51.39630
# Shear Modulus (GPa) = 19.51371 29.77856 24.64614
#
# Velocity S-wave (km/s) = 2.96397 3.66148 3.33103
# Velocity P-wave (km/s) = 5.30494 6.90825 6.15899
#
# Compressibility (1/GPa) = 0.02740320
#
# Stress axis : x y z
#
# Youngs Moduli (GPa) = 116.51353 31.31325 94.90933
#
# Poissons Ratio (x) = 0.19055 0.36430
# Poissons Ratio (y) = 0.70902 0.18051
# Poissons Ratio (z) = 0.44723 0.05955
#
# Static dielectric constant tensor:
#      x y z
#    x 1.844390 0.000000 -0.018710 
#    y 0.000000 1.820400 0.000000 
#    z -0.018710 0.000000 1.839650 
# 
# From -- ./inp_files/195096.got.cif
#   From: 2010.05.17/outbox.cif.g08.bks.cpg/sg15_98_cif.got.tgz:195096.got - 2010.06.03 18:47:42.
