data_PCOD9306896
_publ_section_title
;
Structure prediction by ZEFSAII (Michael W. Deem and Ramdas Pophale) SiO2 
 PCOD9306896
Probable space group: C 2/C
;
_chemical_formula_sum "Si O2"
_cell_formula_units_Z 24
_cell_length_a 9.496843
_cell_length_b 16.616678
_cell_length_c 8.585756
_cell_angle_alpha 90.000000
_cell_angle_beta 43.751849
_cell_angle_gamma 90.000000
_cell_volume 936.951323
_symmetry_space_group_name_H-M "C 2/C"
_symmetry_group_IT_number 15
_symmetry_cell_setting 'monoclinic'
loop_
_space_group_symop_operation_xyz
x,y,z
-x,y,1/2-z
-x,-y,-z
x,-y,1/2+z
1/2+x,1/2+y,z
1/2-x,1/2+y,1/2-z
1/2-x,1/2-y,-z
1/2+x,1/2-y,1/2+z
loop_
_atom_site_type_symbol
_atom_site_label
_atom_site_fract_x
_atom_site_fract_y
_atom_site_fract_z
Si Si1 0.919761 0.589230 0.042912
Si Si2 0.850575 0.170222 0.997084
Si Si3 0.220145 0.167397 0.931425
O O1 0.824026 0.619824 0.279803
O O2 0.753699 0.598909 0.036332
O O3 0.000000 0.500000 0.000000
O O4 0.107146 0.644144 0.832663
O O5 0.000000 0.130740 0.750000
O O6 0.750000 0.250000 0.000000
O O7 0.011005 0.181115 0.009134
O O8 0.250000 0.250000 0.000000
#
# Coordination Sequence:
#
# PCOD9306896 Si02
#       3
#     8   8   8
#     4  11  29  55  86 125 176 222 286 364 433 500
#     4  12  30  47  87 132 168 218 294 354 425 512
#     4  11  28  53  88 123 169 231 291 347 427 521
#
# _framework density 25.614992999999998
#
# number of rings (size 3 to 8) (size 9 to 14) (size 15 to 20)
#    0.000    0.667    0.000    3.000   28.000    6.667 
#    0.000    0.000    0.000    0.000    0.000    0.000 
#    0.000    0.000    0.000    0.000    0.000    0.000 
#
# Total GULP energy -67226.727230 kJ/mol
# GULP energy per Si atom -5602.227269 kJ/mol
# Density = 2.555669 g / cm^3
# Si number density = 25.614993 Si / 1000 Ang^3
#
#
#
# Elastic Constant Matrix: (Units=GPa)
#
#
# Indices 1 2 3 4 5 6 
#
# 1 243.1317 90.3320 38.1010 0.0000 5.9924 0.0000
# 2 90.3320 195.9559 121.2378 0.0000 2.2409 0.0000
# 3 38.1010 121.2378 291.3942 0.0000 -9.9466 0.0000
# 4 0.0000 0.0000 0.0000 41.6799 0.0000 2.2221
# 5 5.9924 2.2409 -9.9466 0.0000 38.9265 0.0000
# 6 0.0000 0.0000 0.0000 2.2221 0.0000 39.5729
#
#
#
# Elastic Compliance Matrix: (Units=1/GPa)
#
#
# Indices 1 2 3 4 5 6 
#
# 1 0.005010 -0.002541 0.000384 0.000000 -0.000527 0.000000
# 2 -0.002541 0.008211 -0.003114 0.000000 -0.000877 0.000000
# 3 0.000384 -0.003114 0.004722 0.000000 0.001327 0.000000
# 4 0.000000 0.000000 0.000000 0.024064 0.000000 -0.001351
# 5 -0.000527 -0.000877 0.001327 0.000000 0.026160 0.000000
# 6 0.000000 0.000000 0.000000 -0.001351 0.000000 0.025346
#
#
# Mechanical properties :
#
#
# Convention : Reuss Voigt Hill
#
# Bulk Modulus (GPa) = 135.10479 136.64704 135.87591
# Shear Modulus (GPa) = 46.93815 56.08994 51.51405
#
# Velocity S-wave (km/s) = 4.28535 4.68453 4.48938
# Velocity P-wave (km/s) = 8.79458 9.09517 8.94614
#
# Compressibility (1/GPa) = 0.00740166
#
# Stress axis : x y z
#
# Youngs Moduli (GPa) = 199.60477 121.78279 211.75311
#
# Poissons Ratio (x) = 0.30947 -0.08136
# Poissons Ratio (y) = 0.50723 0.65942
# Poissons Ratio (z) = -0.07670 0.37924
#
# Static dielectric constant tensor:
#      x y z
#    x 2.114080 0.000000 0.002070 
#    y 0.000000 1.984080 0.000000 
#    z 0.002070 0.000000 2.098410 
# 
# From -- ./inp_files/28291.got.cif
#   From: 2010.05.17/outbox.cif.g08.bks.cpg/sg15_15_cif.got.tgz:28291.got - 2010.06.03 18:47:42.
