data_PCOD9306329
_publ_section_title
;
Structure prediction by ZEFSAII (Michael W. Deem and Ramdas Pophale) SiO2 
 PCOD9306329
Probable space group: C 2/C
;
_chemical_formula_sum "Si O2"
_cell_formula_units_Z 44
_cell_length_a 7.343048
_cell_length_b 24.862985
_cell_length_c 11.325192
_cell_angle_alpha 90.000000
_cell_angle_beta 121.627041
_cell_angle_gamma 90.000000
_cell_volume 1760.554308
_symmetry_space_group_name_H-M "C 2/C"
_symmetry_group_IT_number 15
_symmetry_cell_setting 'monoclinic'
loop_
_space_group_symop_operation_xyz
x,y,z
-x,y,1/2-z
-x,-y,-z
x,-y,1/2+z
1/2+x,1/2+y,z
1/2-x,1/2+y,1/2-z
1/2-x,1/2-y,-z
1/2+x,1/2-y,1/2+z
loop_
_atom_site_type_symbol
_atom_site_label
_atom_site_fract_x
_atom_site_fract_y
_atom_site_fract_z
Si Si1 0.172284 0.043888 0.515338
Si Si2 0.500000 0.022810 0.250000
Si Si3 0.785498 0.611285 0.323118
Si Si4 0.172851 0.322066 0.072151
Si Si5 0.359294 0.653450 0.875423
Si Si6 0.967170 0.212996 0.370519
O O1 0.178283 0.077232 0.394337
O O2 0.143768 0.091518 0.597285
O O3 0.397458 0.013968 0.613924
O O4 0.000000 0.000000 0.500000
O O5 0.331928 0.064111 0.247376
O O6 0.668556 0.659638 0.211813
O O7 0.996358 0.642305 0.444756
O O8 0.404034 0.331107 0.091334
O O9 0.194104 0.339994 0.214576
O O10 0.128385 0.258684 0.077547
O O11 0.334558 0.688896 0.986814
O O12 0.000000 0.235721 0.250000
#
# Coordination Sequence:
#
# PCOD9306329 Si02
#       6
#     8   4   8   8   8   8
#     4  12  26  46  73 104 148 192 249 310 376 430
#     4  12  28  46  80 110 146 198 254 312 372 438
#     4  12  26  48  75 112 147 193 253 305 368 450
#     4  11  26  44  73 105 151 192 244 299 373 444
#     4  11  25  47  68 108 146 196 242 307 364 445
#     4  12  25  44  75 106 148 195 244 301 374 440
#
# _framework density 24.992128999999998
#
# number of rings (size 3 to 8) (size 9 to 14) (size 15 to 20)
#    0.000    0.364    1.818    6.545    2.545    7.273 
#    0.000    0.000    0.000    0.000    0.000    0.000 
#    0.000    0.000    0.000    0.000    0.000    0.000 
#
# Total GULP energy -122991.236804 kJ/mol
# GULP energy per Si atom -5590.510764 kJ/mol
# Density = 2.493525 g / cm^3
# Si number density = 24.992129 Si / 1000 Ang^3
#
#
#
# Elastic Constant Matrix: (Units=GPa)
#
#
# Indices 1 2 3 4 5 6 
#
# 1 60.2505 29.4553 1.2668 0.0000 -13.1571 0.0000
# 2 29.4553 187.6513 46.5713 0.0000 -7.2310 0.0000
# 3 1.2668 46.5713 154.3434 0.0000 8.8696 0.0000
# 4 0.0000 0.0000 0.0000 54.4018 0.0000 1.1959
# 5 -13.1571 -7.2310 8.8696 0.0000 34.1133 0.0000
# 6 0.0000 0.0000 0.0000 1.1959 0.0000 33.8902
#
#
#
# Elastic Compliance Matrix: (Units=1/GPa)
#
#
# Indices 1 2 3 4 5 6 
#
# 1 0.019486 -0.002874 0.000315 0.000000 0.006824 0.000000
# 2 -0.002874 0.006283 -0.001914 0.000000 0.000721 0.000000
# 3 0.000315 -0.001914 0.007177 0.000000 -0.002150 0.000000
# 4 0.000000 0.000000 0.000000 0.018396 0.000000 -0.000649
# 5 0.006824 0.000721 -0.002150 0.000000 0.032658 0.000000
# 6 0.000000 0.000000 0.000000 -0.000649 0.000000 0.029530
#
#
# Mechanical properties :
#
#
# Convention : Reuss Voigt Hill
#
# Bulk Modulus (GPa) = 41.66423 61.87020 51.76722
# Shear Modulus (GPa) = 38.32130 46.14453 42.23292
#
# Velocity S-wave (km/s) = 3.92003 4.30159 4.11524
# Velocity P-wave (km/s) = 6.09885 7.03429 6.58321
#
# Compressibility (1/GPa) = 0.02400140
#
# Stress axis : x y z
#
# Youngs Moduli (GPa) = 51.31884 159.16360 139.32519
#
# Poissons Ratio (x) = 0.45742 -0.04390
# Poissons Ratio (y) = 0.14749 0.26661
# Poissons Ratio (z) = -0.01617 0.30458
#
# Static dielectric constant tensor:
#      x y z
#    x 2.143720 0.000000 0.035360 
#    y 0.000000 1.965380 0.000000 
#    z 0.035360 0.000000 1.997260 
# 
# From -- ./inp_files/79979.got.cif
#   From: 2010.05.17/outbox.cif.g08.bks.cpg/sg15_40_cif.got.tgz:79979.got - 2010.06.03 18:47:42.
