data_PCOD9306054
_publ_section_title
;
Structure prediction by ZEFSAII (Michael W. Deem and Ramdas Pophale) SiO2 
 PCOD9306054
Probable space group: C 2/C
;
_chemical_formula_sum "Si O2"
_cell_formula_units_Z 52
_cell_length_a 6.730760
_cell_length_b 18.813435
_cell_length_c 22.231955
_cell_angle_alpha 90.000000
_cell_angle_beta 119.762896
_cell_angle_gamma 90.000000
_cell_volume 2443.842213
_symmetry_space_group_name_H-M "C 2/C"
_symmetry_group_IT_number 15
_symmetry_cell_setting 'monoclinic'
loop_
_space_group_symop_operation_xyz
x,y,z
-x,y,1/2-z
-x,-y,-z
x,-y,1/2+z
1/2+x,1/2+y,z
1/2-x,1/2+y,1/2-z
1/2-x,1/2-y,-z
1/2+x,1/2-y,1/2+z
loop_
_atom_site_type_symbol
_atom_site_label
_atom_site_fract_x
_atom_site_fract_y
_atom_site_fract_z
Si Si1 0.729603 0.704223 0.202675
Si Si2 0.250501 0.937196 0.133035
Si Si3 0.500000 0.179990 0.750000
Si Si4 0.469744 0.452353 0.813141
Si Si5 0.515743 0.978630 0.572075
Si Si6 0.523812 0.754342 0.044177
Si Si7 0.295072 0.635356 0.516358
O O1 0.663859 0.767312 0.238161
O O2 0.611524 0.629032 0.199952
O O3 0.634131 0.728598 0.123274
O O4 0.000000 0.693686 0.250000
O O5 0.364887 0.870901 0.183958
O O6 0.001485 0.912544 0.072036
O O7 0.410566 0.964887 0.102936
O O8 0.203155 0.000280 0.173543
O O9 0.500000 0.480188 0.750000
O O10 0.723332 0.458998 0.877562
O O11 0.356424 0.909496 0.552673
O O12 0.500000 0.000000 0.500000
O O13 0.630513 0.830909 0.042529
O O14 0.596947 0.699964 0.003385
O O15 0.250000 0.750000 0.000000
#
# Coordination Sequence:
#
# PCOD9306054 Si02
#       7
#     8   8   4   8   8   8   8
#     4  12  28  47  74 104 149 195 247 304 372 452
#     4  12  27  46  75 107 150 193 252 317 374 450
#     4  12  28  48  74 106 148 192 252 302 380 442
#     4  12  28  47  74 109 149 198 251 305 383 452
#     4  12  27  45  74 109 147 191 247 310 381 444
#     4  11  25  44  74 103 149 190 243 306 378 445
#     4  11  25  43  71 109 139 189 247 300 375 449
#
# _framework density 21.27797
#
# number of rings (size 3 to 8) (size 9 to 14) (size 15 to 20)
#    0.000    0.308    2.308    5.077   11.846    5.538 
#    0.000    0.000    0.000    0.000    0.000    0.000 
#    0.000    0.000    0.000    0.000    0.000    0.000 
#
# Total GULP energy -145524.587179 kJ/mol
# GULP energy per Si atom -5597.099507 kJ/mol
# Density = 2.122954 g / cm^3
# Si number density = 21.277970 Si / 1000 Ang^3
#
#
#
# Elastic Constant Matrix: (Units=GPa)
#
#
# Indices 1 2 3 4 5 6 
#
# 1 152.8667 73.9980 73.4387 0.0000 9.7101 0.0000
# 2 73.9980 129.4103 35.2900 0.0000 -1.4281 0.0000
# 3 73.4387 35.2900 117.7766 0.0000 12.4800 0.0000
# 4 0.0000 0.0000 0.0000 39.2099 0.0000 -6.6386
# 5 9.7101 -1.4281 12.4800 0.0000 49.3060 0.0000
# 6 0.0000 0.0000 0.0000 -6.6386 0.0000 25.4411
#
#
#
# Elastic Compliance Matrix: (Units=1/GPa)
#
#
# Indices 1 2 3 4 5 6 
#
# 1 0.011911 -0.005257 -0.005741 0.000000 -0.001045 0.000000
# 2 -0.005257 0.010774 -0.000096 0.000000 0.001372 0.000000
# 3 -0.005741 -0.000096 0.012310 0.000000 -0.001988 0.000000
# 4 0.000000 0.000000 0.000000 0.026683 0.000000 0.006963
# 5 -0.001045 0.001372 -0.001988 0.000000 0.021030 0.000000
# 6 0.000000 0.000000 0.000000 0.006963 0.000000 0.041123
#
#
# Mechanical properties :
#
#
# Convention : Reuss Voigt Hill
#
# Bulk Modulus (GPa) = 78.07834 85.05632 81.56733
# Shear Modulus (GPa) = 33.26962 37.27986 35.27474
#
# Velocity S-wave (km/s) = 3.95849 4.19028 4.07603
# Velocity P-wave (km/s) = 7.59388 7.96693 7.78264
#
# Compressibility (1/GPa) = 0.01280765
#
# Stress axis : x y z
#
# Youngs Moduli (GPa) = 83.95902 92.81243 81.23576
#
# Poissons Ratio (x) = 0.48787 0.46637
# Poissons Ratio (y) = 0.44133 0.00780
# Poissons Ratio (z) = 0.48201 0.00892
#
# Static dielectric constant tensor:
#      x y z
#    x 1.742170 0.000000 -0.053390 
#    y 0.000000 1.786140 0.000000 
#    z -0.053390 0.000000 1.724870 
# 
# From -- ./inp_files/261444.got.cif
#   From: 2010.05.17/outbox.cif.g08.bks.cpg/sg15_131_cif.got.tgz:261444.got - 2010.06.03 18:47:42.
