data_PCOD9306948
_publ_section_title
;
Structure prediction by ZEFSAII (Michael W. Deem and Ramdas Pophale) SiO2 
 PCOD9306948
Probable space group: C 2/C
;
_chemical_formula_sum "Si O2"
_cell_formula_units_Z 36
_cell_length_a 25.349145
_cell_length_b 11.725920
_cell_length_c 8.911445
_cell_angle_alpha 90.000000
_cell_angle_beta 33.468841
_cell_angle_gamma 90.000000
_cell_volume 1460.800231
_symmetry_space_group_name_H-M "C 2/C"
_symmetry_group_IT_number 15
_symmetry_cell_setting 'monoclinic'
loop_
_space_group_symop_operation_xyz
x,y,z
-x,y,1/2-z
-x,-y,-z
x,-y,1/2+z
1/2+x,1/2+y,z
1/2-x,1/2+y,1/2-z
1/2-x,1/2-y,-z
1/2+x,1/2-y,1/2+z
loop_
_atom_site_type_symbol
_atom_site_label
_atom_site_fract_x
_atom_site_fract_y
_atom_site_fract_z
Si Si1 0.633038 0.840970 0.010327
Si Si2 0.508204 0.619610 0.569896
Si Si3 0.838381 0.232881 0.124014
Si Si4 0.592534 0.051565 0.924961
Si Si5 0.500000 0.371781 0.750000
O O1 0.585450 0.907771 0.268088
O O2 0.586727 0.719535 0.080151
O O3 0.743180 0.824637 0.793182
O O4 0.621800 0.922825 0.892404
O O5 0.500000 0.553164 0.750000
O O6 0.613677 0.673204 0.342163
O O7 0.482941 0.585581 0.463547
O O8 0.424447 0.712674 0.802651
O O9 0.828397 0.364037 0.190062
O O10 0.500000 0.072567 0.250000
#
# Coordination Sequence:
#
# PCOD9306948 Si02
#       5
#     8   8   8   8   4
#     4  12  25  36  64  95 130 165 210 262 320 380
#     4   8  19  38  63  86 122 162 215 253 309 367
#     4   9  20  43  61  87 130 169 207 263 315 368
#     4  12  22  40  61  94 127 164 207 267 314 374
#     4  12  20  34  64  98 122 166 210 260 322 372
#
# _framework density 24.644026
#
# number of rings (size 3 to 8) (size 9 to 14) (size 15 to 20)
#    1.333    0.000    5.556    1.333    3.111    0.889 
#    0.000    0.000    0.000    8.000    0.000    0.000 
#    0.000    0.000    0.000    0.000    0.000    0.000 
#
# Total GULP energy -100204.926135 kJ/mol
# GULP energy per Si atom -5566.940341 kJ/mol
# Density = 2.458794 g / cm^3
# Si number density = 24.644026 Si / 1000 Ang^3
#
#
#
# Elastic Constant Matrix: (Units=GPa)
#
#
# Indices 1 2 3 4 5 6 
#
# 1 167.9384 89.9581 58.8103 0.0000 4.7762 0.0000
# 2 89.9581 -240.9211 13.9751 0.0000 102.3032 0.0000
# 3 58.8103 13.9751 65.2123 0.0000 -16.6979 0.0000
# 4 0.0000 0.0000 0.0000 31.8084 0.0000 12.1744
# 5 4.7762 102.3032 -16.6979 0.0000 42.0073 0.0000
# 6 0.0000 0.0000 0.0000 12.1744 0.0000 67.0205
#
#
#
# Elastic Compliance Matrix: (Units=1/GPa)
#
#
# Indices 1 2 3 4 5 6 
#
# 1 0.009493 0.000381 -0.010194 0.000000 -0.006058 0.000000
# 2 0.000381 -0.001833 0.001315 0.000000 0.004944 0.000000
# 3 -0.010194 0.001315 0.026410 0.000000 0.008454 0.000000
# 4 0.000000 0.000000 0.000000 0.033787 0.000000 -0.006138
# 5 -0.006058 0.004944 0.008454 0.000000 0.015815 0.000000
# 6 0.000000 0.000000 0.000000 -0.006138 0.000000 0.016036
#
#
# Mechanical properties :
#
#
# Convention : Reuss Voigt Hill
#
# Bulk Modulus (GPa) = 58.56637 35.30184 46.93410
# Shear Modulus (GPa) = 40.85169 16.79965 28.82567
#
# Velocity S-wave (km/s) = 4.07587 2.61376 3.42377
# Velocity P-wave (km/s) = 6.77988 4.84404 5.89201
#
# Compressibility (1/GPa) = 0.01707464
#
# Stress axis : x y z
#
# Youngs Moduli (GPa) = 105.34465 -545.54318 37.86436
#
# Poissons Ratio (x) = 0.20766 0.38597
# Poissons Ratio (y) = -0.04010 -0.04981
# Poissons Ratio (z) = 1.07384 0.71761
#
# Static dielectric constant tensor:
#      x y z
#    x 1.797340 0.000000 0.136930 
#    y 0.000000 2.057640 0.000000 
#    z 0.136930 0.000000 1.881500 
# 
# From -- ./inp_files/61130.got.cif
#   From: 2010.05.17/outbox.cif.g08.bks.cpg/sg15_31_cif.got.tgz:61130.got - 2010.06.03 18:47:42.
