data_PCOD9306575
_publ_section_title
;
Structure prediction by ZEFSAII (Michael W. Deem and Ramdas Pophale) SiO2 
 PCOD9306575
Probable space group: C 2/C
;
_chemical_formula_sum "Si O2"
_cell_formula_units_Z 48
_cell_length_a 21.016923
_cell_length_b 5.668928
_cell_length_c 23.363906
_cell_angle_alpha 90.000000
_cell_angle_beta 133.545383
_cell_angle_gamma 90.000000
_cell_volume 2017.674156
_symmetry_space_group_name_H-M "C 2/C"
_symmetry_group_IT_number 15
_symmetry_cell_setting 'monoclinic'
loop_
_space_group_symop_operation_xyz
x,y,z
-x,y,1/2-z
-x,-y,-z
x,-y,1/2+z
1/2+x,1/2+y,z
1/2-x,1/2+y,1/2-z
1/2-x,1/2-y,-z
1/2+x,1/2-y,1/2+z
loop_
_atom_site_type_symbol
_atom_site_label
_atom_site_fract_x
_atom_site_fract_y
_atom_site_fract_z
Si Si1 0.799767 0.505030 0.542897
Si Si2 0.396646 0.027781 0.990595
Si Si3 0.638023 0.692850 0.212499
Si Si4 0.060493 0.827482 0.073418
Si Si5 0.750296 0.664802 0.826208
Si Si6 0.408421 0.026305 0.225236
O O1 0.750000 0.250000 0.500000
O O2 0.873461 0.512289 0.540511
O O3 0.845746 0.526653 0.632535
O O4 0.750000 0.750000 0.500000
O O5 0.325497 0.209706 0.919622
O O6 0.383868 0.805184 0.940649
O O7 0.495750 0.119429 0.052914
O O8 0.599099 0.479450 0.149368
O O9 0.707667 0.591944 0.300785
O O10 0.697250 0.824749 0.201547
O O11 0.571803 0.828901 0.213628
O O12 0.000000 0.000000 0.000000
O O13 0.662571 0.817619 0.782226
O O14 0.500000 0.106138 0.250000
#
# Coordination Sequence:
#
# PCOD9306575 Si02
#       6
#     8   8   8   8   8   8
#     4  12  29  52  83 114 162 217 277 335 418 514
#     4  11  26  46  77 115 152 209 271 341 422 497
#     4  12  26  45  80 109 154 209 271 341 413 497
#     4  11  26  44  78 115 154 198 273 348 409 492
#     4  12  24  47  76 109 149 202 272 333 405 498
#     4  12  31  50  73 118 162 214 272 346 427 499
#
# _framework density 23.789769
#
# number of rings (size 3 to 8) (size 9 to 14) (size 15 to 20)
#    0.000    0.333    5.000    2.000    9.333    0.667 
#    0.000    0.000    0.000    0.000    0.000    0.000 
#    0.000    0.000    0.000    0.000    0.000    0.000 
#
# Total GULP energy -133655.319118 kJ/mol
# GULP energy per Si atom -5568.971630 kJ/mol
# Density = 2.373562 g / cm^3
# Si number density = 23.789769 Si / 1000 Ang^3
#
#
#
# Elastic Constant Matrix: (Units=GPa)
#
#
# Indices 1 2 3 4 5 6 
#
# 1 156.4191 37.5094 40.8575 -0.0003 -28.6806 0.0021
# 2 37.5094 76.8593 40.7045 -0.0006 -8.9112 0.0099
# 3 40.8575 40.7045 121.0930 0.0001 -9.4171 -0.0014
# 4 -0.0003 -0.0006 0.0001 42.8786 -0.0002 0.0269
# 5 -28.6806 -8.9112 -9.4171 -0.0002 44.2186 -0.0008
# 6 0.0021 0.0099 -0.0014 0.0269 -0.0008 21.2763
#
#
#
# Elastic Compliance Matrix: (Units=1/GPa)
#
#
# Indices 1 2 3 4 5 6 
#
# 1 0.008264 -0.002702 -0.001531 0.000000 0.004490 0.000001
# 2 -0.002702 0.016904 -0.004720 0.000000 0.000649 -0.000008
# 3 -0.001531 -0.004720 0.010382 0.000000 0.000267 0.000003
# 4 0.000000 0.000000 0.000000 0.023322 0.000000 -0.000029
# 5 0.004490 0.000649 0.000267 0.000000 0.025715 0.000000
# 6 0.000001 -0.000008 0.000003 -0.000029 0.000000 0.047001
#
#
# Mechanical properties :
#
#
# Convention : Reuss Voigt Hill
#
# Bulk Modulus (GPa) = 56.67459 65.83493 61.25476
# Shear Modulus (GPa) = 32.18018 37.36134 34.77076
#
# Velocity S-wave (km/s) = 3.68188 3.96723 3.82722
# Velocity P-wave (km/s) = 6.47687 6.97989 6.73308
#
# Compressibility (1/GPa) = 0.01764459
#
# Stress axis : x y z
#
# Youngs Moduli (GPa) = 121.00558 59.15628 96.31951
#
# Poissons Ratio (x) = 0.15982 0.14747
# Poissons Ratio (y) = 0.32692 0.45465
# Poissons Ratio (z) = 0.18526 0.27923
#
# Static dielectric constant tensor:
#      x y z
#    x 2.050630 -0.000110 0.086680 
#    y -0.000110 0.188810 0.000070 
#    z 0.086680 0.000070 1.932680 
# 
# From -- ./inp_files/279043.got.cif
#   From: 2010.05.17/outbox.cif.g08.bks.cpg/sg15_140_cif.got.tgz:279043.got - 2010.06.03 18:47:42.
