data_PCOD9306008
_publ_section_title
;
Structure prediction by ZEFSAII (Michael W. Deem and Ramdas Pophale) SiO2 
 PCOD9306008
Probable space group: C 2/C
;
_chemical_formula_sum "Si O2"
_cell_formula_units_Z 60
_cell_length_a 7.096788
_cell_length_b 17.885546
_cell_length_c 28.019743
_cell_angle_alpha 90.000000
_cell_angle_beta 63.151695
_cell_angle_gamma 90.000000
_cell_volume 3173.167644
_symmetry_space_group_name_H-M "C 2/C"
_symmetry_group_IT_number 15
_symmetry_cell_setting 'monoclinic'
loop_
_space_group_symop_operation_xyz
x,y,z
-x,y,1/2-z
-x,-y,-z
x,-y,1/2+z
1/2+x,1/2+y,z
1/2-x,1/2+y,1/2-z
1/2-x,1/2-y,-z
1/2+x,1/2-y,1/2+z
loop_
_atom_site_type_symbol
_atom_site_label
_atom_site_fract_x
_atom_site_fract_y
_atom_site_fract_z
Si Si1 0.204233 0.724130 0.896214
Si Si2 0.545726 0.620256 0.565664
Si Si3 0.045207 0.121885 0.451651
Si Si4 0.802726 0.525374 0.054473
Si Si5 0.430015 0.191809 0.203567
Si Si6 0.484438 0.050064 0.369203
Si Si7 0.055647 0.622687 0.646842
Si Si8 0.000000 0.713843 0.750000
O O1 0.310560 0.685518 0.929540
O O2 0.070121 0.794395 0.929538
O O3 0.392474 0.757203 0.842186
O O4 0.069957 0.665243 0.880881
O O5 0.555289 0.617107 0.507498
O O6 0.643520 0.544410 0.575896
O O7 0.305161 0.630764 0.608998
O O8 0.242869 0.073855 0.408732
O O9 0.826781 0.088829 0.457897
O O10 0.887021 0.550917 0.095971
O O11 0.000000 0.500000 0.000000
O O12 0.500000 0.180638 0.250000
O O13 0.427010 0.112665 0.176584
O O14 0.207379 0.234182 0.226134
O O15 0.493218 0.965706 0.348643
O O16 0.999082 0.662276 0.703036
#
# Coordination Sequence:
#
# PCOD9306008 Si02
#       8
#     8   8   8   8   8   8   8   4
#     4  11  25  43  67  98 135 177 223 276 338 402
#     4  12  23  42  67 101 136 180 227 274 331 407
#     4  11  25  41  67  99 140 178 226 273 330 402
#     4  12  23  41  67  98 142 184 219 273 335 402
#     4  11  25  47  69  95 132 175 226 284 339 396
#     4  11  25  43  69 100 133 180 229 270 334 414
#     4  12  25  44  69  99 134 178 225 281 339 399
#     4  12  26  46  70  96 136 174 220 290 348 384
#
# _framework density 18.908549000000001
#
# number of rings (size 3 to 8) (size 9 to 14) (size 15 to 20)
#    0.000    0.533    6.667    1.600    2.800    0.533 
#    0.000    1.333    0.000    0.000    0.000    0.000 
#    0.000    0.000    0.000    0.000    0.000    0.000 
#
# Total GULP energy -167832.096373 kJ/mol
# GULP energy per Si atom -5594.403212 kJ/mol
# Density = 1.886551 g / cm^3
# Si number density = 18.908549 Si / 1000 Ang^3
#
#
#
# Elastic Constant Matrix: (Units=GPa)
#
#
# Indices 1 2 3 4 5 6 
#
# 1 134.2787 73.9119 45.2102 0.0000 9.7391 0.0000
# 2 73.9119 138.0810 26.5480 0.0000 6.7847 0.0000
# 3 45.2102 26.5480 41.0184 0.0000 17.2429 0.0000
# 4 0.0000 0.0000 0.0000 26.3249 0.0000 6.2616
# 5 9.7391 6.7847 17.2429 0.0000 37.5812 0.0000
# 6 0.0000 0.0000 0.0000 6.2616 0.0000 41.9386
#
#
#
# Elastic Compliance Matrix: (Units=1/GPa)
#
#
# Indices 1 2 3 4 5 6 
#
# 1 0.015147 -0.005455 -0.014779 0.000000 0.003840 0.000000
# 2 -0.005455 0.010280 -0.000563 0.000000 -0.000184 0.000000
# 3 -0.014779 -0.000563 0.048791 0.000000 -0.018454 0.000000
# 4 0.000000 0.000000 0.000000 0.039386 0.000000 -0.005880
# 5 0.003840 -0.000184 -0.018454 0.000000 0.034114 0.000000
# 6 0.000000 0.000000 0.000000 -0.005880 0.000000 0.024722
#
#
# Mechanical properties :
#
#
# Convention : Reuss Voigt Hill
#
# Bulk Modulus (GPa) = 30.65324 67.19092 48.92208
# Shear Modulus (GPa) = 22.23127 32.34949 27.29038
#
# Velocity S-wave (km/s) = 3.43261 4.14072 3.80318
# Velocity P-wave (km/s) = 5.65304 7.64673 6.72419
#
# Compressibility (1/GPa) = 0.03262297
#
# Stress axis : x y z
#
# Youngs Moduli (GPa) = 66.01808 97.28067 20.49575
#
# Poissons Ratio (x) = 0.53070 0.30290
# Poissons Ratio (y) = 0.36015 0.01154
# Poissons Ratio (z) = 0.97567 0.05477
#
# Static dielectric constant tensor:
#      x y z
#    x 1.627900 0.000000 -0.006000 
#    y 0.000000 1.650110 0.000000 
#    z -0.006000 0.000000 1.626420 
# 
# From -- ./inp_files/305776.got.cif
#   From: 2010.05.17/outbox.cif.g08.bks.cpg/sg15_153_cif.got.tgz:305776.got - 2010.06.03 18:47:42.
