data_PCOD9306323
_publ_section_title
;
Structure prediction by ZEFSAII (Michael W. Deem and Ramdas Pophale) SiO2 
 PCOD9306323
Probable space group: C 2/C
;
_chemical_formula_sum "Si O2"
_cell_formula_units_Z 52
_cell_length_a 16.800683
_cell_length_b 8.212719
_cell_length_c 17.241126
_cell_angle_alpha 90.000000
_cell_angle_beta 106.577372
_cell_angle_gamma 90.000000
_cell_volume 2280.039338
_symmetry_space_group_name_H-M "C 2/C"
_symmetry_group_IT_number 15
_symmetry_cell_setting 'monoclinic'
loop_
_space_group_symop_operation_xyz
x,y,z
-x,y,1/2-z
-x,-y,-z
x,-y,1/2+z
1/2+x,1/2+y,z
1/2-x,1/2+y,1/2-z
1/2-x,1/2-y,-z
1/2+x,1/2-y,1/2+z
loop_
_atom_site_type_symbol
_atom_site_label
_atom_site_fract_x
_atom_site_fract_y
_atom_site_fract_z
Si Si1 0.317385 0.156514 0.422007
Si Si2 0.500000 0.346568 0.750000
Si Si3 0.385019 0.813407 0.432849
Si Si4 0.352906 0.155023 0.099871
Si Si5 0.445716 0.136142 0.588036
Si Si6 0.829419 0.014074 0.687707
Si Si7 0.705127 0.499503 0.151646
O O1 0.358803 0.164124 0.518635
O O2 0.333434 0.329871 0.387747
O O3 0.359133 0.993528 0.397695
O O4 0.220701 0.108652 0.382634
O O5 0.473315 0.241707 0.668492
O O6 0.418569 0.452877 0.740725
O O7 0.343863 0.798400 0.506637
O O8 0.484190 0.823275 0.456523
O O9 0.351275 0.659899 0.376384
O O10 0.345572 0.318322 0.147560
O O11 0.436920 0.048051 0.117867
O O12 0.285379 0.038149 0.121609
O O13 0.777299 0.025669 0.752763
#
# Coordination Sequence:
#
# PCOD9306323 Si02
#       7
#     8   4   8   8   8   8   8
#     4  11  26  45  79 109 150 208 254 317 390 471
#     4  12  28  46  70 108 156 202 258 334 396 476
#     4  11  25  50  74 116 156 195 264 328 388 479
#     4  11  25  46  81 109 150 214 259 323 395 487
#     4  11  27  50  76 112 159 203 261 329 403 469
#     4  12  27  48  72 116 157 199 272 324 396 474
#     4  12  25  46  78 112 157 204 256 331 388 467
#
# _framework density 22.806623999999999
#
# number of rings (size 3 to 8) (size 9 to 14) (size 15 to 20)
#    0.000    0.615    3.077    4.154    4.308    9.231 
#    0.000    0.000    0.000    0.000    0.000    0.000 
#    0.000    0.000    0.000    0.000    0.000    0.000 
#
# Total GULP energy -145093.866032 kJ/mol
# GULP energy per Si atom -5580.533309 kJ/mol
# Density = 2.275471 g / cm^3
# Si number density = 22.806624 Si / 1000 Ang^3
#
#
#
# Elastic Constant Matrix: (Units=GPa)
#
#
# Indices 1 2 3 4 5 6 
#
# 1 100.7124 27.0596 65.5502 0.0000 -13.6923 0.0000
# 2 27.0596 162.5859 68.8723 0.0000 -3.6849 0.0000
# 3 65.5502 68.8723 158.4788 0.0000 -2.0905 0.0000
# 4 0.0000 0.0000 0.0000 10.6775 0.0000 25.9324
# 5 -13.6923 -3.6849 -2.0905 0.0000 42.6880 0.0000
# 6 0.0000 0.0000 0.0000 25.9324 0.0000 4.5990
#
#
#
# Elastic Compliance Matrix: (Units=1/GPa)
#
#
# Indices 1 2 3 4 5 6 
#
# 1 0.014346 0.000245 -0.005983 0.000000 0.004330 0.000000
# 2 0.000245 0.007553 -0.003376 0.000000 0.000565 0.000000
# 3 -0.005983 -0.003376 0.010230 0.000000 -0.001710 0.000000
# 4 0.000000 0.000000 0.000000 -0.007377 0.000000 0.041599
# 5 0.004330 0.000565 -0.001710 0.000000 0.024780 0.000000
# 6 0.000000 0.000000 0.000000 0.041599 0.000000 -0.017128
#
#
# Mechanical properties :
#
#
# Convention : Reuss Voigt Hill
#
# Bulk Modulus (GPa) = 71.94419 82.74902 77.34661
# Shear Modulus (GPa) = 90.47291 28.94587 59.70939
#
# Velocity S-wave (km/s) = 6.30521 3.56643 5.12226
# Velocity P-wave (km/s) = 9.19899 7.30212 8.30489
#
# Compressibility (1/GPa) = 0.01389966
#
# Stress axis : x y z
#
# Youngs Moduli (GPa) = 69.70362 132.40103 97.75617
#
# Poissons Ratio (x) = -0.03244 0.58491
# Poissons Ratio (y) = -0.01708 0.33005
# Poissons Ratio (z) = 0.41706 0.44701
#
# Static dielectric constant tensor:
#      x y z
#    x 1.916400 0.000000 -0.011660 
#    y 0.000000 1.874620 0.000000 
#    z -0.011660 0.000000 1.865010 
# 
# From -- ./inp_files/209249.got.cif
#   From: 2010.05.17/outbox.cif.g08.bks.cpg/sg15_105_cif.got.tgz:209249.got - 2010.06.03 18:47:42.
