data_PCOD9306623
_publ_section_title
;
Structure prediction by ZEFSAII (Michael W. Deem and Ramdas Pophale) SiO2 
 PCOD9306623
Probable space group: C 2/C
;
_chemical_formula_sum "Si O2"
_cell_formula_units_Z 32
_cell_length_a 31.004333
_cell_length_b 5.905265
_cell_length_c 24.649402
_cell_angle_alpha 90.000000
_cell_angle_beta 16.949435
_cell_angle_gamma 90.000000
_cell_volume 1315.672781
_symmetry_space_group_name_H-M "C 2/C"
_symmetry_group_IT_number 15
_symmetry_cell_setting 'monoclinic'
loop_
_space_group_symop_operation_xyz
x,y,z
-x,y,1/2-z
-x,-y,-z
x,-y,1/2+z
1/2+x,1/2+y,z
1/2-x,1/2+y,1/2-z
1/2-x,1/2-y,-z
1/2+x,1/2-y,1/2+z
loop_
_atom_site_type_symbol
_atom_site_label
_atom_site_fract_x
_atom_site_fract_y
_atom_site_fract_z
Si Si1 0.156806 0.292886 0.692804
Si Si2 0.155640 0.441543 0.085375
Si Si3 0.088656 0.450913 0.964123
Si Si4 0.283619 0.858768 0.296062
O O1 0.124611 0.379652 0.670850
O O2 0.258246 0.473453 0.604311
O O3 0.242785 0.061320 0.581991
O O4 0.001270 0.321521 0.911134
O O5 0.000000 0.361248 0.250000
O O6 0.250000 0.250000 0.000000
O O7 0.174240 0.337959 0.910442
O O8 0.192209 0.497980 0.788476
O O9 0.951742 0.290939 0.110191
#
# Coordination Sequence:
#
# PCOD9306623 Si02
#       4
#     8   8   8   8
#     4   9  23  48  66 106 146 187 240 301 360 435
#     4  11  26  46  75 102 138 189 248 309 376 431
#     4   9  20  41  66 107 148 195 237 298 360 441
#     4   9  20  41  67 105 150 193 239 293 364 434
#
# _framework density 24.322157000000001
#
# number of rings (size 3 to 8) (size 9 to 14) (size 15 to 20)
#    1.500    1.000    0.000    0.000    3.500    7.000 
#    4.500    0.000    5.500    0.000    0.000    0.000 
#    0.000    0.000    0.000    0.000    0.000    0.000 
#
# Total GULP energy -89325.956351 kJ/mol
# GULP energy per Si atom -5582.872272 kJ/mol
# Density = 2.426680 g / cm^3
# Si number density = 24.322157 Si / 1000 Ang^3
#
#
#
# Elastic Constant Matrix: (Units=GPa)
#
#
# Indices 1 2 3 4 5 6 
#
# 1 132.6819 43.2565 52.7780 0.0005 -15.5811 -0.0005
# 2 43.2565 57.7805 69.0843 -0.0296 -15.4329 0.0195
# 3 52.7780 69.0843 122.3103 -0.0101 -29.8838 0.0089
# 4 0.0005 -0.0296 -0.0101 29.6836 0.0313 8.3710
# 5 -15.5811 -15.4329 -29.8838 0.0313 41.0186 0.0103
# 6 -0.0005 0.0195 0.0089 8.3710 0.0103 37.5147
#
#
#
# Elastic Compliance Matrix: (Units=1/GPa)
#
#
# Indices 1 2 3 4 5 6 
#
# 1 0.010014 -0.007263 0.000052 -0.000010 0.001109 0.000006
# 2 -0.007263 0.058751 -0.030807 0.000062 -0.003099 -0.000036
# 3 0.000052 -0.030807 0.027648 -0.000035 0.008572 0.000015
# 4 -0.000010 0.000062 -0.000035 0.035951 -0.000031 -0.008022
# 5 0.001109 -0.003099 0.008572 -0.000031 0.029880 -0.000002
# 6 0.000006 -0.000036 0.000015 -0.008022 -0.000002 0.028446
#
#
# Mechanical properties :
#
#
# Convention : Reuss Voigt Hill
#
# Bulk Modulus (GPa) = 49.07387 71.44559 60.25973
# Shear Modulus (GPa) = 18.28025 31.48696 24.88361
#
# Velocity S-wave (km/s) = 2.74449 3.60193 3.20204
# Velocity P-wave (km/s) = 5.50121 6.83645 6.20485
#
# Compressibility (1/GPa) = 0.02037744
#
# Stress axis : x y z
#
# Youngs Moduli (GPa) = 99.85793 17.02104 36.16837
#
# Poissons Ratio (x) = 0.12363 -0.00189
# Poissons Ratio (y) = 0.72529 1.11424
# Poissons Ratio (z) = -0.00522 0.52437
#
# Static dielectric constant tensor:
#      x y z
#    x 1.953700 0.000020 0.032100 
#    y 0.000020 1.978100 0.000030 
#    z 0.032100 0.000030 1.932830 
# 
# From -- ./inp_files/303878.got.cif
#   From: 2010.05.17/outbox.cif.g08.bks.cpg/sg15_152_cif.got.tgz:303878.got - 2010.06.03 18:47:42.
