data_PCOD9306561
_publ_section_title
;
Structure prediction by ZEFSAII (Michael W. Deem and Ramdas Pophale) SiO2 
 PCOD9306561
Probable space group: C 2/C
;
_chemical_formula_sum "Si O2"
_cell_formula_units_Z 40
_cell_length_a 16.107234
_cell_length_b 10.187417
_cell_length_c 16.047516
_cell_angle_alpha 90.000000
_cell_angle_beta 35.005324
_cell_angle_gamma 90.000000
_cell_volume 1510.573278
_symmetry_space_group_name_H-M "C 2/C"
_symmetry_group_IT_number 15
_symmetry_cell_setting 'monoclinic'
loop_
_space_group_symop_operation_xyz
x,y,z
-x,y,1/2-z
-x,-y,-z
x,-y,1/2+z
1/2+x,1/2+y,z
1/2-x,1/2+y,1/2-z
1/2-x,1/2-y,-z
1/2+x,1/2-y,1/2+z
loop_
_atom_site_type_symbol
_atom_site_label
_atom_site_fract_x
_atom_site_fract_y
_atom_site_fract_z
Si Si1 0.660046 0.503958 0.903720
Si Si2 0.456910 0.906646 0.613855
Si Si3 0.605688 0.318478 0.084804
Si Si4 0.165151 0.744311 0.705721
Si Si5 0.613834 0.127304 0.565365
O O1 0.734268 0.644711 0.827002
O O2 0.783226 0.405540 0.765588
O O3 0.500000 0.500000 0.000000
O O4 0.644660 0.457536 0.011930
O O5 0.531482 0.767863 0.571493
O O6 0.500000 0.000000 0.500000
O O7 0.525925 0.993809 0.631777
O O8 0.500000 0.330374 0.250000
O O9 0.750000 0.250000 0.000000
O O10 0.249361 0.873667 0.608908
O O11 0.152117 0.672561 0.625859
O O12 0.001876 0.738679 0.872119
#
# Coordination Sequence:
#
# PCOD9306561 Si02
#       5
#     8   8   8   8   8
#     4  11  26  45  68 102 143 182 240 300 359 427
#     4  11  26  44  70 101 141 187 236 298 366 423
#     4  12  26  50  78 104 142 197 253 301 361 442
#     4   9  19  39  62  91 125 170 220 279 337 413
#     4   9  19  38  64  89 126 169 222 276 341 409
#
# _framework density 26.480014000000001
#
# number of rings (size 3 to 8) (size 9 to 14) (size 15 to 20)
#    0.000    1.600    2.000    1.200    8.400    1.600 
#    7.200    0.000    0.000    0.000    0.000    0.000 
#    0.000    0.000    0.000    0.000    0.000    0.000 
#
# Total GULP energy -111816.980558 kJ/mol
# GULP energy per Si atom -5590.849028 kJ/mol
# Density = 2.641974 g / cm^3
# Si number density = 26.480014 Si / 1000 Ang^3
#
#
#
# Elastic Constant Matrix: (Units=GPa)
#
#
# Indices 1 2 3 4 5 6 
#
# 1 109.3880 17.7112 22.1557 0.0000 -16.1393 0.0000
# 2 17.7112 66.9403 17.3222 0.0000 -4.4176 0.0000
# 3 22.1557 17.3222 130.1354 0.0000 -11.9065 0.0000
# 4 0.0000 0.0000 0.0000 33.3037 0.0000 5.6232
# 5 -16.1393 -4.4176 -11.9065 0.0000 60.3588 0.0000
# 6 0.0000 0.0000 0.0000 5.6232 0.0000 48.3097
#
#
#
# Elastic Compliance Matrix: (Units=1/GPa)
#
#
# Indices 1 2 3 4 5 6 
#
# 1 0.010083 -0.002202 -0.001213 0.000000 0.002295 0.000000
# 2 -0.002202 0.015985 -0.001731 0.000000 0.000240 0.000000
# 3 -0.001213 -0.001731 0.008229 0.000000 0.001172 0.000000
# 4 0.000000 0.000000 0.000000 0.030629 0.000000 -0.003565
# 5 0.002295 0.000240 0.001172 0.000000 0.017430 0.000000
# 6 0.000000 0.000000 0.000000 -0.003565 0.000000 0.021115
#
#
# Mechanical properties :
#
#
# Convention : Reuss Voigt Hill
#
# Bulk Modulus (GPa) = 41.66107 46.76021 44.21064
# Shear Modulus (GPa) = 41.06299 45.01275 43.03787
#
# Velocity S-wave (km/s) = 3.94219 4.12743 4.03587
# Velocity P-wave (km/s) = 6.04055 6.35698 6.20079
#
# Compressibility (1/GPa) = 0.02400322
#
# Stress axis : x y z
#
# Youngs Moduli (GPa) = 99.17891 62.55836 121.52838
#
# Poissons Ratio (x) = 0.13777 0.14747
# Poissons Ratio (y) = 0.21841 0.21035
# Poissons Ratio (z) = 0.12035 0.10828
#
# Static dielectric constant tensor:
#      x y z
#    x 2.162300 0.000000 -0.010770 
#    y 0.000000 2.154180 0.000000 
#    z -0.010770 0.000000 2.179890 
# 
# From -- ./inp_files/210761.got.cif
#   From: 2010.05.17/outbox.cif.g08.bks.cpg/sg15_106_cif.got.tgz:210761.got - 2010.06.03 18:47:42.
