data_PCOD9306199
_publ_section_title
;
Structure prediction by ZEFSAII (Michael W. Deem and Ramdas Pophale) SiO2 
 PCOD9306199
Probable space group: C 2/C
;
_chemical_formula_sum "Si O2"
_cell_formula_units_Z 32
_cell_length_a 7.657274
_cell_length_b 10.451954
_cell_length_c 18.319943
_cell_angle_alpha 90.000000
_cell_angle_beta 123.915851
_cell_angle_gamma 90.000000
_cell_volume 1216.744958
_symmetry_space_group_name_H-M "C 2/C"
_symmetry_group_IT_number 15
_symmetry_cell_setting 'monoclinic'
loop_
_space_group_symop_operation_xyz
x,y,z
-x,y,1/2-z
-x,-y,-z
x,-y,1/2+z
1/2+x,1/2+y,z
1/2-x,1/2+y,1/2-z
1/2-x,1/2-y,-z
1/2+x,1/2-y,1/2+z
loop_
_atom_site_type_symbol
_atom_site_label
_atom_site_fract_x
_atom_site_fract_y
_atom_site_fract_z
Si Si1 0.459748 0.877819 0.084216
Si Si2 0.082996 0.068805 0.591248
Si Si3 0.908135 0.329968 0.905354
Si Si4 0.753110 0.335889 0.715104
O O1 0.302145 0.871020 0.115400
O O2 0.652969 0.786910 0.151475
O O3 0.496058 0.029417 0.085578
O O4 0.371399 0.836837 0.984226
O O5 0.958569 0.198876 0.579312
O O6 0.124859 0.962027 0.660524
O O7 0.000000 0.000000 0.500000
O O8 0.745634 0.325838 0.800246
O O9 0.000000 0.349079 0.750000
#
# Coordination Sequence:
#
# PCOD9306199 Si02
#       4
#     8   8   8   8
#     4  11  26  50  70 109 147 192 248 303 365 438
#     4  12  26  50  75 104 150 193 241 310 367 426
#     4  11  25  45  75 106 143 193 247 296 366 445
#     4  12  26  48  73 106 150 195 244 307 367 436
#
# _framework density 26.299678
#
# number of rings (size 3 to 8) (size 9 to 14) (size 15 to 20)
#    0.000    0.500    5.000    2.250    0.000    6.000 
#    4.500    0.000    0.000    0.000    0.000    0.000 
#    0.000    0.000    0.000    0.000    0.000    0.000 
#
# Total GULP energy -89451.980276 kJ/mol
# GULP energy per Si atom -5590.748767 kJ/mol
# Density = 2.623982 g / cm^3
# Si number density = 26.299678 Si / 1000 Ang^3
#
#
#
# Elastic Constant Matrix: (Units=GPa)
#
#
# Indices 1 2 3 4 5 6 
#
# 1 65.3282 13.5164 48.6495 0.0000 -10.2909 0.0000
# 2 13.5164 265.8691 106.1936 0.0000 -9.5588 0.0000
# 3 48.6495 106.1936 212.6657 0.0000 -47.0084 0.0000
# 4 0.0000 0.0000 0.0000 68.8236 0.0000 -14.2493
# 5 -10.2909 -9.5588 -47.0084 0.0000 44.2677 0.0000
# 6 0.0000 0.0000 0.0000 -14.2493 0.0000 28.6280
#
#
#
# Elastic Compliance Matrix: (Units=1/GPa)
#
#
# Indices 1 2 3 4 5 6 
#
# 1 0.018652 0.000988 -0.004906 0.000000 -0.000660 0.000000
# 2 0.000988 0.004880 -0.003109 0.000000 -0.002018 0.000000
# 3 -0.004906 -0.003109 0.009116 0.000000 0.007869 0.000000
# 4 0.000000 0.000000 0.000000 0.016199 0.000000 0.008063
# 5 -0.000660 -0.002018 0.007869 0.000000 0.030357 0.000000
# 6 0.000000 0.000000 0.000000 0.008063 0.000000 0.038944
#
#
# Mechanical properties :
#
#
# Convention : Reuss Voigt Hill
#
# Bulk Modulus (GPa) = 53.78015 97.84244 75.81129
# Shear Modulus (GPa) = 36.12666 53.37742 44.75204
#
# Velocity S-wave (km/s) = 3.71030 4.50998 4.12954
# Velocity P-wave (km/s) = 6.23286 8.02518 7.18513
#
# Compressibility (1/GPa) = 0.01859422
#
# Stress axis : x y z
#
# Youngs Moduli (GPa) = 53.61217 204.90733 109.69325
#
# Poissons Ratio (x) = -0.20236 0.53816
# Poissons Ratio (y) = -0.05295 0.34103
# Poissons Ratio (z) = 0.26303 0.63704
#
# Static dielectric constant tensor:
#      x y z
#    x 2.141520 0.000000 0.060170 
#    y 0.000000 2.210170 0.000000 
#    z 0.060170 0.000000 1.984660 
# 
# From -- ./inp_files/194853.got.cif
#   From: 2010.05.17/outbox.cif.g08.bks.cpg/sg15_98_cif.got.tgz:194853.got - 2010.06.03 18:47:42.
