data_PCOD9306691
_publ_section_title
;
Structure prediction by ZEFSAII (Michael W. Deem and Ramdas Pophale) SiO2 
 PCOD9306691
Probable space group: C 2/C
;
_chemical_formula_sum "Si O2"
_cell_formula_units_Z 44
_cell_length_a 8.770221
_cell_length_b 16.986706
_cell_length_c 18.499289
_cell_angle_alpha 90.000000
_cell_angle_beta 49.592905
_cell_angle_gamma 90.000000
_cell_volume 2098.556777
_symmetry_space_group_name_H-M "C 2/C"
_symmetry_group_IT_number 15
_symmetry_cell_setting 'monoclinic'
loop_
_space_group_symop_operation_xyz
x,y,z
-x,y,1/2-z
-x,-y,-z
x,-y,1/2+z
1/2+x,1/2+y,z
1/2-x,1/2+y,1/2-z
1/2-x,1/2-y,-z
1/2+x,1/2-y,1/2+z
loop_
_atom_site_type_symbol
_atom_site_label
_atom_site_fract_x
_atom_site_fract_y
_atom_site_fract_z
Si Si1 0.673366 0.325504 0.757106
Si Si2 0.057271 0.530916 0.368309
Si Si3 0.528123 0.268351 0.539377
Si Si4 0.500000 0.934092 0.250000
Si Si5 0.609217 0.328304 0.355133
Si Si6 0.800294 0.392834 0.072301
O O1 0.500000 0.313812 0.750000
O O2 0.779727 0.407878 0.710620
O O3 0.580876 0.317714 0.864891
O O4 0.833625 0.255737 0.696671
O O5 0.954215 0.488122 0.332873
O O6 0.162963 0.463299 0.383221
O O7 0.902916 0.577535 0.466591
O O8 0.750000 0.250000 0.500000
O O9 0.543980 0.311599 0.457790
O O10 0.414229 0.185741 0.563165
O O11 0.309499 0.879929 0.292098
O O12 0.429220 0.370813 0.369642
#
# Coordination Sequence:
#
# PCOD9306691 Si02
#       6
#     8   8   8   4   8   8
#     4  12  25  44  75 104 140 187 242 292 358 423
#     4  11  27  47  69 107 145 187 235 297 366 426
#     4  12  23  46  78 105 143 190 242 297 348 427
#     4  12  28  46  70 106 146 184 238 300 358 426
#     4  12  25  48  73 106 140 191 243 291 353 431
#     4  11  26  48  74 102 149 190 235 296 366 425
#
# _framework density 20.96679
#
# number of rings (size 3 to 8) (size 9 to 14) (size 15 to 20)
#    0.000    0.364    4.545    2.727    5.091    4.364 
#    0.000    0.000    0.000    0.000    0.000    0.000 
#    0.000    0.000    0.000    0.000    0.000    0.000 
#
# Total GULP energy -123282.260978 kJ/mol
# GULP energy per Si atom -5603.739135 kJ/mol
# Density = 2.091907 g / cm^3
# Si number density = 20.966790 Si / 1000 Ang^3
#
#
#
# Elastic Constant Matrix: (Units=GPa)
#
#
# Indices 1 2 3 4 5 6 
#
# 1 89.2294 21.2974 0.9858 0.0003 -33.9311 -0.0005
# 2 21.2974 69.2796 13.1647 0.0001 -19.7952 0.0000
# 3 0.9858 13.1647 98.9653 0.0002 3.1421 0.0000
# 4 0.0003 0.0001 0.0002 48.3222 -0.0001 -1.3521
# 5 -33.9311 -19.7952 3.1421 -0.0001 35.5037 0.0002
# 6 -0.0005 0.0000 0.0000 -1.3521 0.0002 15.7811
#
#
#
# Elastic Compliance Matrix: (Units=1/GPa)
#
#
# Indices 1 2 3 4 5 6 
#
# 1 0.017673 -0.000561 -0.000630 0.000000 0.016633 0.000000
# 2 -0.000561 0.017879 -0.002680 0.000000 0.009670 0.000000
# 3 -0.000630 -0.002680 0.010564 0.000000 -0.003031 0.000000
# 4 0.000000 0.000000 0.000000 0.020744 0.000000 0.001777
# 5 0.016633 0.009670 -0.003031 0.000000 0.049722 0.000000
# 6 0.000000 0.000000 0.000000 0.001777 0.000000 0.063519
#
#
# Mechanical properties :
#
#
# Convention : Reuss Voigt Hill
#
# Bulk Modulus (GPa) = 26.05840 36.48557 31.27198
# Shear Modulus (GPa) = 24.92119 34.72315 29.82217
#
# Velocity S-wave (km/s) = 3.45135 4.07394 3.77550
# Velocity P-wave (km/s) = 5.32333 6.29036 5.82694
#
# Compressibility (1/GPa) = 0.03837535
#
# Stress axis : x y z
#
# Youngs Moduli (GPa) = 56.58366 55.93244 94.66554
#
# Poissons Ratio (x) = 0.03136 0.05960
# Poissons Ratio (y) = 0.03172 0.25368
# Poissons Ratio (z) = 0.03562 0.14988
#
# Static dielectric constant tensor:
#      x y z
#    x 1.711670 0.000000 0.021670 
#    y 0.000000 1.717880 0.000000 
#    z 0.021670 0.000000 1.738610 
# 
# From -- ./inp_files/134301.got.cif
#   From: 2010.05.17/outbox.cif.g08.bks.cpg/sg15_68_cif.got.tgz:134301.got - 2010.06.03 18:47:42.
