data_PCOD9306604
_publ_section_title
;
Structure prediction by ZEFSAII (Michael W. Deem and Ramdas Pophale) SiO2 
 PCOD9306604
Probable space group: C 2/C
;
_chemical_formula_sum "Si O2"
_cell_formula_units_Z 40
_cell_length_a 17.122845
_cell_length_b 12.274846
_cell_length_c 8.925449
_cell_angle_alpha 90.000000
_cell_angle_beta 100.435884
_cell_angle_gamma 90.000000
_cell_volume 1844.921810
_symmetry_space_group_name_H-M "C 2/C"
_symmetry_group_IT_number 15
_symmetry_cell_setting 'monoclinic'
loop_
_space_group_symop_operation_xyz
x,y,z
-x,y,1/2-z
-x,-y,-z
x,-y,1/2+z
1/2+x,1/2+y,z
1/2-x,1/2+y,1/2-z
1/2-x,1/2-y,-z
1/2+x,1/2-y,1/2+z
loop_
_atom_site_type_symbol
_atom_site_label
_atom_site_fract_x
_atom_site_fract_y
_atom_site_fract_z
Si Si1 0.942357 0.043639 0.608117
Si Si2 0.157543 0.626934 0.042880
Si Si3 0.589868 0.928841 0.838206
Si Si4 0.836372 0.237916 0.455411
Si Si5 0.339292 0.336771 0.621211
O O1 0.877989 0.128167 0.527376
O O2 0.000000 0.097183 0.750000
O O3 0.897741 0.938054 0.658467
O O4 0.000000 0.000000 0.500000
O O5 0.141947 0.596875 0.209304
O O6 0.251934 0.621010 0.046760
O O7 0.111833 0.543635 0.920047
O O8 0.132960 0.750380 0.994015
O O9 0.500000 0.925814 0.750000
O O10 0.610313 0.838346 0.969847
O O11 0.750000 0.250000 0.500000
O O12 0.831034 0.227989 0.274558
#
# Coordination Sequence:
#
# PCOD9306604 Si02
#       5
#     8   8   8   8   8
#     4  12  27  45  73 108 146 188 239 304 368 430
#     4  11  26  46  71 102 140 188 237 290 355 432
#     4  12  26  45  73 104 142 184 234 297 359 427
#     4  12  25  47  73 103 142 189 241 294 360 435
#     4  11  26  46  71 102 144 189 241 292 357 436
#
# _framework density 21.681135999999999
#
# number of rings (size 3 to 8) (size 9 to 14) (size 15 to 20)
#    0.000    0.400    4.000    3.600    5.600    0.800 
#    0.000    0.000    0.000    0.000    0.000    0.000 
#    0.000    0.000    0.000    0.000    0.000    0.000 
#
# Total GULP energy -112014.745471 kJ/mol
# GULP energy per Si atom -5600.737274 kJ/mol
# Density = 2.163179 g / cm^3
# Si number density = 21.681136 Si / 1000 Ang^3
#
#
#
# Elastic Constant Matrix: (Units=GPa)
#
#
# Indices 1 2 3 4 5 6 
#
# 1 89.3562 43.6407 19.2136 0.0000 20.2673 0.0000
# 2 43.6407 73.1517 -5.5192 0.0000 11.4969 0.0000
# 3 19.2136 -5.5192 54.9567 0.0000 15.3002 0.0000
# 4 0.0000 0.0000 0.0000 45.6395 0.0000 -1.1304
# 5 20.2673 11.4969 15.3002 0.0000 39.7418 0.0000
# 6 0.0000 0.0000 0.0000 -1.1304 0.0000 189.1576
#
#
#
# Elastic Compliance Matrix: (Units=1/GPa)
#
#
# Indices 1 2 3 4 5 6 
#
# 1 0.018988 -0.011226 -0.006691 0.000000 -0.003860 0.000000
# 2 -0.011226 0.021384 0.006945 0.000000 -0.003135 0.000000
# 3 -0.006691 0.006945 0.023345 0.000000 -0.007584 0.000000
# 4 0.000000 0.000000 0.000000 0.021914 0.000000 0.000131
# 5 -0.003860 -0.003135 -0.007584 0.000000 0.030958 0.000000
# 6 0.000000 0.000000 0.000000 0.000131 0.000000 0.005287
#
#
# Mechanical properties :
#
#
# Convention : Reuss Voigt Hill
#
# Bulk Modulus (GPa) = 23.93934 36.90388 30.42161
# Shear Modulus (GPa) = 31.69677 65.58306 48.63992
#
# Velocity S-wave (km/s) = 3.82770 5.50587 4.74162
# Velocity P-wave (km/s) = 5.53177 7.58140 6.63619
#
# Compressibility (1/GPa) = 0.04177225
#
# Stress axis : x y z
#
# Youngs Moduli (GPa) = 52.66436 46.76340 42.83660
#
# Poissons Ratio (x) = 0.52497 0.28664
# Poissons Ratio (y) = 0.59122 -0.29751
# Poissons Ratio (z) = 0.35240 -0.32478
#
# Static dielectric constant tensor:
#      x y z
#    x 1.786650 0.000000 0.003740 
#    y 0.000000 1.777860 0.000000 
#    z 0.003740 0.000000 1.798310 
# 
# From -- ./inp_files/46236.got.cif
#   From: 2010.05.17/outbox.cif.g08.bks.cpg/sg15_24_cif.got.tgz:46236.got - 2010.06.03 18:47:42.
