data_PCOD9306359
_publ_section_title
;
Structure prediction by ZEFSAII (Michael W. Deem and Ramdas Pophale) SiO2 
 PCOD9306359
Probable space group: C 2/C
;
_chemical_formula_sum "Si O2"
_cell_formula_units_Z 40
_cell_length_a 18.560196
_cell_length_b 9.143322
_cell_length_c 12.453243
_cell_angle_alpha 90.000000
_cell_angle_beta 132.900878
_cell_angle_gamma 90.000000
_cell_volume 1548.088960
_symmetry_space_group_name_H-M "C 2/C"
_symmetry_group_IT_number 15
_symmetry_cell_setting 'monoclinic'
loop_
_space_group_symop_operation_xyz
x,y,z
-x,y,1/2-z
-x,-y,-z
x,-y,1/2+z
1/2+x,1/2+y,z
1/2-x,1/2+y,1/2-z
1/2-x,1/2-y,-z
1/2+x,1/2-y,1/2+z
loop_
_atom_site_type_symbol
_atom_site_label
_atom_site_fract_x
_atom_site_fract_y
_atom_site_fract_z
Si Si1 0.264927 0.174513 0.820424
Si Si2 0.847237 0.883251 0.513720
Si Si3 0.559240 0.625343 0.999796
Si Si4 0.080220 0.681571 0.238729
Si Si5 0.344672 0.067218 0.554047
O O1 0.208663 0.121778 0.657872
O O2 0.337786 0.305236 0.860063
O O3 0.184228 0.236814 0.823936
O O4 0.331337 0.050403 0.944964
O O5 0.767206 0.901609 0.525141
O O6 0.892488 0.722169 0.574696
O O7 0.911821 0.028765 0.575826
O O8 0.500000 0.500000 0.000000
O O9 0.484852 0.762213 0.924985
O O10 0.105788 0.516260 0.295440
O O11 0.000000 0.719972 0.250000
#
# Coordination Sequence:
#
# PCOD9306359 Si02
#       5
#     8   8   8   8   8
#     4  12  24  49  78 103 163 204 249 319 391 449
#     4  11  25  47  76 113 150 196 259 320 373 446
#     4  12  25  47  75 112 144 206 259 306 381 463
#     4  12  24  45  77 106 152 205 252 310 389 457
#     4  11  25  47  73 111 150 200 253 316 377 456
#
# _framework density 25.838308999999999
#
# number of rings (size 3 to 8) (size 9 to 14) (size 15 to 20)
#    0.000    0.400    6.000    3.000    0.000    0.000 
#    3.600    3.000    0.000    0.000    0.000    0.000 
#    0.000    0.000    0.000    0.000    0.000    0.000 
#
# Total GULP energy -111627.107436 kJ/mol
# GULP energy per Si atom -5581.355372 kJ/mol
# Density = 2.577950 g / cm^3
# Si number density = 25.838309 Si / 1000 Ang^3
#
#
#
# Elastic Constant Matrix: (Units=GPa)
#
#
# Indices 1 2 3 4 5 6 
#
# 1 83.3709 2.0475 16.8187 0.0000 13.9410 0.0000
# 2 2.0475 161.4764 60.0235 0.0000 10.7734 0.0000
# 3 16.8187 60.0235 76.3174 0.0000 14.6878 0.0000
# 4 0.0000 0.0000 0.0000 43.1347 0.0000 0.1002
# 5 13.9410 10.7734 14.6878 0.0000 33.8591 0.0000
# 6 0.0000 0.0000 0.0000 0.1002 0.0000 46.7975
#
#
#
# Elastic Compliance Matrix: (Units=1/GPa)
#
#
# Indices 1 2 3 4 5 6 
#
# 1 0.013346 0.001275 -0.003064 0.000000 -0.004571 0.000000
# 2 0.001275 0.008875 -0.007219 0.000000 -0.000217 0.000000
# 3 -0.003064 -0.007219 0.020481 0.000000 -0.005326 0.000000
# 4 0.000000 0.000000 0.000000 0.023183 0.000000 -0.000050
# 5 -0.004571 -0.000217 -0.005326 0.000000 0.033796 0.000000
# 6 0.000000 0.000000 0.000000 -0.000050 0.000000 0.021369
#
#
# Mechanical properties :
#
#
# Convention : Reuss Voigt Hill
#
# Bulk Modulus (GPa) = 40.51011 53.21601 46.86306
# Shear Modulus (GPa) = 33.94568 40.90993 37.42780
#
# Velocity S-wave (km/s) = 3.62853 3.98339 3.81010
# Velocity P-wave (km/s) = 5.76779 6.46506 6.12635
#
# Compressibility (1/GPa) = 0.02468520
#
# Stress axis : x y z
#
# Youngs Moduli (GPa) = 74.93005 112.68122 48.82544
#
# Poissons Ratio (x) = -0.14363 0.14959
# Poissons Ratio (y) = -0.09551 0.35247
# Poissons Ratio (z) = 0.22957 0.81344
#
# Static dielectric constant tensor:
#      x y z
#    x 2.176350 0.000000 -0.014240 
#    y 0.000000 2.149390 0.000000 
#    z -0.014240 0.000000 2.172760 
# 
# From -- ./inp_files/166517.got.cif
#   From: 2010.05.17/outbox.cif.g08.bks.cpg/sg15_84_cif.got.tgz:166517.got - 2010.06.03 18:47:42.
