data_PCOD9306301
_publ_section_title
;
Structure prediction by ZEFSAII (Michael W. Deem and Ramdas Pophale) SiO2 
 PCOD9306301
Probable space group: C 2/C
;
_chemical_formula_sum "Si O2"
_cell_formula_units_Z 36
_cell_length_a 8.440507
_cell_length_b 12.267741
_cell_length_c 20.563061
_cell_angle_alpha 90.000000
_cell_angle_beta 139.784727
_cell_angle_gamma 90.000000
_cell_volume 1374.756018
_symmetry_space_group_name_H-M "C 2/C"
_symmetry_group_IT_number 15
_symmetry_cell_setting 'monoclinic'
loop_
_space_group_symop_operation_xyz
x,y,z
-x,y,1/2-z
-x,-y,-z
x,-y,1/2+z
1/2+x,1/2+y,z
1/2-x,1/2+y,1/2-z
1/2-x,1/2-y,-z
1/2+x,1/2-y,1/2+z
loop_
_atom_site_type_symbol
_atom_site_label
_atom_site_fract_x
_atom_site_fract_y
_atom_site_fract_z
Si Si1 0.025564 0.091938 0.185219
Si Si2 0.750000 0.750000 0.500000
Si Si3 0.334961 0.366393 0.080085
Si Si4 0.782486 0.595431 0.630564
Si Si5 0.590311 0.872520 0.876117
O O1 0.317183 0.104118 0.265598
O O2 0.000000 0.135283 0.250000
O O3 0.921557 0.968157 0.149301
O O4 0.872686 0.157810 0.085319
O O5 0.833026 0.655800 0.579569
O O6 0.549299 0.354102 0.093525
O O7 0.318741 0.250375 0.111269
O O8 0.105109 0.384785 0.959846
O O9 0.000000 0.605953 0.750000
O O10 0.747145 0.467628 0.603779
#
# Coordination Sequence:
#
# PCOD9306301 Si02
#       5
#     8   4   8   8   8
#     4  12  27  49  75 110 151 199 256 318 391 468
#     4  12  26  46  76 106 150 204 248 320 384 464
#     4  11  25  48  74 113 156 194 259 322 382 465
#     4  12  24  49  78 108 152 202 255 314 394 460
#     4  11  25  46  75 111 148 203 252 313 386 463
#
# _framework density 26.186465999999999
#
# number of rings (size 3 to 8) (size 9 to 14) (size 15 to 20)
#    0.000    0.444    4.444    4.000    0.000    1.778 
#    8.000    0.000    0.000    0.000    0.000    0.000 
#    0.000    0.000    0.000    0.000    0.000    0.000 
#
# Total GULP energy -100471.685132 kJ/mol
# GULP energy per Si atom -5581.760285 kJ/mol
# Density = 2.612686 g / cm^3
# Si number density = 26.186466 Si / 1000 Ang^3
#
#
#
# Elastic Constant Matrix: (Units=GPa)
#
#
# Indices 1 2 3 4 5 6 
#
# 1 28.6420 20.6785 39.1116 0.0000 -7.6168 0.0000
# 2 20.6785 217.9311 77.6348 0.0000 -18.3852 0.0000
# 3 39.1116 77.6348 238.9294 0.0000 -44.3614 0.0000
# 4 0.0000 0.0000 0.0000 39.7281 0.0000 -3.7263
# 5 -7.6168 -18.3852 -44.3614 0.0000 25.9179 0.0000
# 6 0.0000 0.0000 0.0000 -3.7263 0.0000 21.5515
#
#
#
# Elastic Compliance Matrix: (Units=1/GPa)
#
#
# Indices 1 2 3 4 5 6 
#
# 1 0.045646 -0.001878 -0.006770 0.000000 0.000495 0.000000
# 2 -0.001878 0.005291 -0.001198 0.000000 0.001150 0.000000
# 3 -0.006770 -0.001198 0.007557 0.000000 0.010096 0.000000
# 4 0.000000 0.000000 0.000000 0.025586 0.000000 0.004424
# 5 0.000495 0.001150 0.010096 0.000000 0.056825 0.000000
# 6 0.000000 0.000000 0.000000 0.004424 0.000000 0.047165
#
#
# Mechanical properties :
#
#
# Convention : Reuss Voigt Hill
#
# Bulk Modulus (GPa) = 25.77182 84.48357 55.12769
# Shear Modulus (GPa) = 22.65570 40.64468 31.65019
#
# Velocity S-wave (km/s) = 2.94457 3.94398 3.48033
# Velocity P-wave (km/s) = 4.62857 7.28507 6.10311
#
# Compressibility (1/GPa) = 0.03880208
#
# Stress axis : x y z
#
# Youngs Moduli (GPa) = 21.90795 189.01339 132.32291
#
# Poissons Ratio (x) = 0.35490 0.89582
# Poissons Ratio (y) = 0.04114 0.15854
# Poissons Ratio (z) = 0.14832 0.22646
#
# Static dielectric constant tensor:
#      x y z
#    x 2.131140 0.000000 0.053510 
#    y 0.000000 2.003770 0.000000 
#    z 0.053510 0.000000 2.073080 
# 
# From -- ./inp_files/269388.got.cif
#   From: 2010.05.17/outbox.cif.g08.bks.cpg/sg15_135_cif.got.tgz:269388.got - 2010.06.03 18:47:42.
