data_PCOD9306204
_publ_section_title
;
Structure prediction by ZEFSAII (Michael W. Deem and Ramdas Pophale) SiO2 
 PCOD9306204
Probable space group: C 2/C
;
_chemical_formula_sum "Si O2"
_cell_formula_units_Z 40
_cell_length_a 25.107253
_cell_length_b 9.259767
_cell_length_c 18.210019
_cell_angle_alpha 90.000000
_cell_angle_beta 159.503954
_cell_angle_gamma 90.000000
_cell_volume 1482.363740
_symmetry_space_group_name_H-M "C 2/C"
_symmetry_group_IT_number 15
_symmetry_cell_setting 'monoclinic'
loop_
_space_group_symop_operation_xyz
x,y,z
-x,y,1/2-z
-x,-y,-z
x,-y,1/2+z
1/2+x,1/2+y,z
1/2-x,1/2+y,1/2-z
1/2-x,1/2-y,-z
1/2+x,1/2-y,1/2+z
loop_
_atom_site_type_symbol
_atom_site_label
_atom_site_fract_x
_atom_site_fract_y
_atom_site_fract_z
Si Si1 0.115553 0.869159 0.966103
Si Si2 0.838854 0.605710 0.323555
Si Si3 0.899025 0.548234 0.056437
Si Si4 0.367950 0.613182 0.271931
Si Si5 0.060893 0.747787 0.499135
O O1 0.000000 0.899176 0.750000
O O2 0.993894 0.847630 0.875239
O O3 0.222256 0.003560 0.128094
O O4 0.236821 0.741657 0.101941
O O5 0.887553 0.537703 0.464306
O O6 0.023140 0.352962 0.550672
O O7 0.741688 0.751931 0.213497
O O8 0.000000 0.479784 0.250000
O O9 0.728136 0.532995 0.867442
O O10 0.987410 0.694138 0.143867
O O11 0.429140 0.613217 0.435376
#
# Coordination Sequence:
#
# PCOD9306204 Si02
#       5
#     8   8   8   8   8
#     4  12  27  45  75 111 149 190 245 302 366 434
#     4  11  27  47  76 107 147 194 244 296 370 431
#     4  11  25  45  77 107 144 193 247 300 361 429
#     4  11  25  45  75 109 146 187 245 302 364 429
#     4  11  25  47  76 101 150 193 238 302 363 431
#
# _framework density 26.983930000000001
#
# number of rings (size 3 to 8) (size 9 to 14) (size 15 to 20)
#    0.000    0.800    2.000    4.200    8.400    2.400 
#    0.000    5.000    0.000    0.000    0.000    0.000 
#    0.000    0.000    0.000    0.000    0.000    0.000 
#
# Total GULP energy -111358.669866 kJ/mol
# GULP energy per Si atom -5567.933493 kJ/mol
# Density = 2.692251 g / cm^3
# Si number density = 26.983930 Si / 1000 Ang^3
#
#
#
# Elastic Constant Matrix: (Units=GPa)
#
#
# Indices 1 2 3 4 5 6 
#
# 1 151.7685 41.5157 81.7547 0.0000 21.3163 0.0000
# 2 41.5157 91.0558 36.2607 0.0000 9.8863 0.0000
# 3 81.7547 36.2607 167.1840 0.0000 5.8487 0.0000
# 4 0.0000 0.0000 0.0000 53.1405 0.0000 21.3416
# 5 21.3163 9.8863 5.8487 0.0000 54.9467 0.0000
# 6 0.0000 0.0000 0.0000 21.3416 0.0000 32.8763
#
#
#
# Elastic Compliance Matrix: (Units=1/GPa)
#
#
# Indices 1 2 3 4 5 6 
#
# 1 0.009976 -0.002545 -0.004223 0.000000 -0.002963 0.000000
# 2 -0.002545 0.012869 -0.001506 0.000000 -0.001168 0.000000
# 3 -0.004223 -0.001506 0.008337 0.000000 0.001022 0.000000
# 4 0.000000 0.000000 0.000000 0.025454 0.000000 -0.016523
# 5 -0.002963 -0.001168 0.001022 0.000000 0.019450 0.000000
# 6 0.000000 0.000000 0.000000 -0.016523 0.000000 0.041143
#
#
# Mechanical properties :
#
#
# Convention : Reuss Voigt Hill
#
# Bulk Modulus (GPa) = 68.32863 81.00784 74.66823
# Shear Modulus (GPa) = 36.06066 44.89118 40.47592
#
# Velocity S-wave (km/s) = 3.65961 4.08318 3.87719
# Velocity P-wave (km/s) = 6.57525 7.23296 6.91194
#
# Compressibility (1/GPa) = 0.01463515
#
# Stress axis : x y z
#
# Youngs Moduli (GPa) = 100.24048 77.70535 119.94415
#
# Poissons Ratio (x) = 0.19777 0.50649
# Poissons Ratio (y) = 0.25513 0.18060
# Poissons Ratio (z) = 0.42329 0.11700
#
# Static dielectric constant tensor:
#      x y z
#    x 2.090560 0.000000 0.012160 
#    y 0.000000 2.584820 0.000000 
#    z 0.012160 0.000000 2.111490 
# 
# From -- ./inp_files/257450.got.cif
#   From: 2010.05.17/outbox.cif.g08.bks.cpg/sg15_129_cif.got.tgz:257450.got - 2010.06.03 18:47:42.
