data_PCOD9306799
_publ_section_title
;
Structure prediction by ZEFSAII (Michael W. Deem and Ramdas Pophale) SiO2 
 PCOD9306799
Probable space group: C 2/C
;
_chemical_formula_sum "Si O2"
_cell_formula_units_Z 44
_cell_length_a 8.458681
_cell_length_b 11.635745
_cell_length_c 16.245456
_cell_angle_alpha 90.000000
_cell_angle_beta 68.182600
_cell_angle_gamma 90.000000
_cell_volume 1484.401045
_symmetry_space_group_name_H-M "C 2/C"
_symmetry_group_IT_number 15
_symmetry_cell_setting 'monoclinic'
loop_
_space_group_symop_operation_xyz
x,y,z
-x,y,1/2-z
-x,-y,-z
x,-y,1/2+z
1/2+x,1/2+y,z
1/2-x,1/2+y,1/2-z
1/2-x,1/2-y,-z
1/2+x,1/2-y,1/2+z
loop_
_atom_site_type_symbol
_atom_site_label
_atom_site_fract_x
_atom_site_fract_y
_atom_site_fract_z
Si Si1 0.013036 0.407997 0.662194
Si Si2 0.500000 0.496064 0.750000
Si Si3 0.763868 0.811373 0.220457
Si Si4 0.944106 0.691571 0.908028
Si Si5 0.617191 0.386339 0.979017
Si Si6 0.265502 0.973046 0.575916
O O1 0.899858 0.293884 0.694694
O O2 0.922599 0.479627 0.608063
O O3 0.000000 0.474544 0.750000
O O4 0.209467 0.388896 0.606647
O O5 0.629581 0.575368 0.775582
O O6 0.608900 0.427571 0.661749
O O7 0.687839 0.811780 0.143836
O O8 0.618059 0.801595 0.317723
O O9 0.005894 0.782632 0.967351
O O10 0.668171 0.891007 0.008021
O O11 0.500000 0.500000 0.000000
O O12 0.701154 0.403729 0.053950
#
# Coordination Sequence:
#
# PCOD9306799 Si02
#       6
#     8   4   8   8   8   8
#     4  12  27  54  86 126 178 241 303 390 477 548
#     4  12  30  54  86 132 188 246 332 386 484 574
#     4  11  26  56  93 131 181 246 310 401 476 575
#     4  11  28  56  92 134 185 241 320 397 491 561
#     4  12  29  53  88 130 178 237 313 386 471 579
#     4  12  33  52  89 134 184 248 310 397 474 578
#
# _framework density 29.641586
#
# number of rings (size 3 to 8) (size 9 to 14) (size 15 to 20)
#    0.000    0.364    2.727    1.636   12.727    3.636 
#    0.000    0.000    2.000    0.000    0.000    0.000 
#    0.000    0.000    0.000    0.000    0.000    0.000 
#
# Total GULP energy -123302.958930 kJ/mol
# GULP energy per Si atom -5604.679951 kJ/mol
# Density = 2.957412 g / cm^3
# Si number density = 29.641586 Si / 1000 Ang^3
#
#
#
# Elastic Constant Matrix: (Units=GPa)
#
#
# Indices 1 2 3 4 5 6 
#
# 1 248.9850 83.5215 127.6574 0.0000 -1.1255 0.0000
# 2 83.5215 115.2514 102.1621 0.0000 -5.8117 0.0000
# 3 127.6574 102.1621 272.8550 0.0000 -13.7663 0.0000
# 4 0.0000 0.0000 0.0000 45.2993 0.0000 4.2004
# 5 -1.1255 -5.8117 -13.7663 0.0000 96.2790 0.0000
# 6 0.0000 0.0000 0.0000 4.2004 0.0000 46.5276
#
#
#
# Elastic Compliance Matrix: (Units=1/GPa)
#
#
# Indices 1 2 3 4 5 6 
#
# 1 0.005802 -0.002695 -0.001723 0.000000 -0.000341 0.000000
# 2 -0.002695 0.014239 -0.004058 0.000000 0.000248 0.000000
# 3 -0.001723 -0.004058 0.006020 0.000000 0.000596 0.000000
# 4 0.000000 0.000000 0.000000 0.022262 0.000000 -0.002010
# 5 -0.000341 0.000248 0.000596 0.000000 0.010483 0.000000
# 6 0.000000 0.000000 0.000000 -0.002010 0.000000 0.021674
#
#
# Mechanical properties :
#
#
# Convention : Reuss Voigt Hill
#
# Bulk Modulus (GPa) = 109.76491 140.41928 125.09209
# Shear Modulus (GPa) = 49.76682 59.20454 54.48568
#
# Velocity S-wave (km/s) = 4.10195 4.47402 4.29202
# Velocity P-wave (km/s) = 7.71659 8.61187 8.17649
#
# Compressibility (1/GPa) = 0.00911038
#
# Stress axis : x y z
#
# Youngs Moduli (GPa) = 172.35472 70.22781 166.09945
#
# Poissons Ratio (x) = 0.18925 0.28615
# Poissons Ratio (y) = 0.46445 0.67407
# Poissons Ratio (z) = 0.29692 0.28500
#
# Static dielectric constant tensor:
#      x y z
#    x 2.424720 0.000000 0.025730 
#    y 0.000000 2.830150 0.000000 
#    z 0.025730 0.000000 2.279130 
# 
# From -- ./inp_files/188769.got.cif
#   From: 2010.05.17/outbox.cif.g08.bks.cpg/sg15_95_cif.got.tgz:188769.got - 2010.06.03 18:47:42.
