data_PCOD9306216
_publ_section_title
;
Structure prediction by ZEFSAII (Michael W. Deem and Ramdas Pophale) SiO2 
 PCOD9306216
Probable space group: C 2/C
;
_chemical_formula_sum "Si O2"
_cell_formula_units_Z 44
_cell_length_a 21.394872
_cell_length_b 7.847578
_cell_length_c 27.776115
_cell_angle_alpha 90.000000
_cell_angle_beta 155.106688
_cell_angle_gamma 90.000000
_cell_volume 1963.028685
_symmetry_space_group_name_H-M "C 2/C"
_symmetry_group_IT_number 15
_symmetry_cell_setting 'monoclinic'
loop_
_space_group_symop_operation_xyz
x,y,z
-x,y,1/2-z
-x,-y,-z
x,-y,1/2+z
1/2+x,1/2+y,z
1/2-x,1/2+y,1/2-z
1/2-x,1/2-y,-z
1/2+x,1/2-y,1/2+z
loop_
_atom_site_type_symbol
_atom_site_label
_atom_site_fract_x
_atom_site_fract_y
_atom_site_fract_z
Si Si1 0.946022 0.088239 0.109225
Si Si2 0.602776 0.948836 0.778320
Si Si3 0.840408 0.529556 0.543177
Si Si4 0.213416 0.922593 0.354215
Si Si5 0.913083 0.121973 0.975876
Si Si6 0.000000 0.500000 0.500000
O O1 0.904600 0.280662 0.095186
O O2 0.792377 0.989538 0.012865
O O3 0.978390 0.093134 0.075188
O O4 0.077892 0.015879 0.233287
O O5 0.500000 0.017963 0.750000
O O6 0.663333 0.765082 0.835021
O O7 0.486876 0.918011 0.653516
O O8 0.739748 0.067317 0.858942
O O9 0.770092 0.516279 0.441608
O O10 0.349690 0.902761 0.412952
O O11 0.929781 0.316463 0.970933
O O12 0.000000 0.000000 0.000000
#
# Coordination Sequence:
#
# PCOD9306216 Si02
#       6
#     8   8   8   8   8   4
#     4  11  25  47  77 111 153 202 265 325 399 471
#     4  12  26  46  80 116 159 203 269 328 400 473
#     4  11  25  45  78 112 156 202 258 336 395 466
#     4  12  27  47  75 115 159 209 267 328 396 482
#     4  12  26  51  80 113 156 213 258 327 399 475
#     4  12  26  52  70 112 160 204 270 312 388 488
#
# _framework density 22.414345000000001
#
# number of rings (size 3 to 8) (size 9 to 14) (size 15 to 20)
#    0.000    0.364    5.455    2.727    2.545    2.909 
#    3.273    0.000    0.000    0.000    0.000    0.000 
#    0.000    0.000    0.000    0.000    0.000    0.000 
#
# Total GULP energy -122619.438252 kJ/mol
# GULP energy per Si atom -5573.610830 kJ/mol
# Density = 2.236333 g / cm^3
# Si number density = 22.414345 Si / 1000 Ang^3
#
#
#
# Elastic Constant Matrix: (Units=GPa)
#
#
# Indices 1 2 3 4 5 6 
#
# 1 129.7060 57.7345 77.8208 0.0002 28.7437 0.0001
# 2 57.7345 113.6563 57.4788 0.0003 3.3399 0.0008
# 3 77.8208 57.4788 143.3486 0.0011 4.4965 -0.0001
# 4 0.0002 0.0003 0.0011 36.9809 0.0001 9.0759
# 5 28.7437 3.3399 4.4965 0.0001 42.5517 0.0000
# 6 0.0001 0.0008 -0.0001 9.0759 0.0000 31.1521
#
#
#
# Elastic Compliance Matrix: (Units=1/GPa)
#
#
# Indices 1 2 3 4 5 6 
#
# 1 0.015644 -0.004419 -0.006422 0.000000 -0.009542 0.000000
# 2 -0.004419 0.012291 -0.002602 0.000000 0.002295 0.000000
# 3 -0.006422 -0.002602 0.011401 0.000000 0.003337 0.000000
# 4 0.000000 0.000000 0.000000 0.029123 0.000000 -0.008485
# 5 -0.009542 0.002295 0.003337 0.000000 0.029414 0.000000
# 6 0.000000 0.000000 0.000000 -0.008485 0.000000 0.034572
#
#
# Mechanical properties :
#
#
# Convention : Reuss Voigt Hill
#
# Bulk Modulus (GPa) = 80.30887 85.86434 83.08661
# Shear Modulus (GPa) = 30.58465 35.04874 32.81670
#
# Velocity S-wave (km/s) = 3.69794 3.95862 3.83050
# Velocity P-wave (km/s) = 7.35799 7.69969 7.53078
#
# Compressibility (1/GPa) = 0.01245192
#
# Stress axis : x y z
#
# Youngs Moduli (GPa) = 63.92166 81.35805 87.71380
#
# Poissons Ratio (x) = 0.35950 0.56328
# Poissons Ratio (y) = 0.28246 0.22820
# Poissons Ratio (z) = 0.41049 0.21166
#
# Static dielectric constant tensor:
#      x y z
#    x 1.847780 0.000000 -0.015600 
#    y 0.000000 1.889290 0.000000 
#    z -0.015600 0.000000 1.854720 
# 
# From -- ./inp_files/318660.got.cif
#   From: 2010.05.17/outbox.cif.g08.bks.cpg/sg15_160_cif.got.tgz:318660.got - 2010.06.03 18:47:42.
