data_PCOD9306570
_publ_section_title
;
Structure prediction by ZEFSAII (Michael W. Deem and Ramdas Pophale) SiO2 
 PCOD9306570
Probable space group: C 2/C
;
_chemical_formula_sum "Si O2"
_cell_formula_units_Z 64
_cell_length_a 22.881278
_cell_length_b 19.440189
_cell_length_c 16.769636
_cell_angle_alpha 90.000000
_cell_angle_beta 159.134720
_cell_angle_gamma 90.000000
_cell_volume 2656.831181
_symmetry_space_group_name_H-M "C 2/C"
_symmetry_group_IT_number 15
_symmetry_cell_setting 'monoclinic'
loop_
_space_group_symop_operation_xyz
x,y,z
-x,y,1/2-z
-x,-y,-z
x,-y,1/2+z
1/2+x,1/2+y,z
1/2-x,1/2+y,1/2-z
1/2-x,1/2-y,-z
1/2+x,1/2-y,1/2+z
loop_
_atom_site_type_symbol
_atom_site_label
_atom_site_fract_x
_atom_site_fract_y
_atom_site_fract_z
Si Si1 0.829460 0.612499 0.137524
Si Si2 0.650152 0.512644 0.393091
Si Si3 0.690933 0.112391 0.577471
Si Si4 0.268029 0.334464 0.736271
Si Si5 0.935635 0.621377 0.758688
Si Si6 0.835879 0.769911 0.987720
Si Si7 0.337612 0.301976 0.492218
Si Si8 0.527657 0.414991 0.960638
O O1 0.016842 0.599153 0.397091
O O2 0.692062 0.558954 0.989652
O O3 0.819021 0.599399 0.029375
O O4 0.788071 0.688835 0.113135
O O5 0.500000 0.545445 0.250000
O O6 0.821005 0.553809 0.611865
O O7 0.568128 0.522393 0.202343
O O8 0.721502 0.195086 0.615358
O O9 0.825172 0.068382 0.793004
O O10 0.218429 0.263184 0.630415
O O11 0.395004 0.372506 0.841556
O O12 0.097502 0.377257 0.520340
O O13 0.345840 0.316894 0.921240
O O14 0.808387 0.676502 0.633593
O O15 0.000000 0.631605 0.750000
O O16 0.000000 0.762101 0.250000
O O17 0.386703 0.362559 0.493299
O O18 0.500000 0.286746 0.750000
#
# Coordination Sequence:
#
# PCOD9306570 Si02
#       8
#     8   8   8   8   8   8   8   8
#     4  11  27  48  74 105 141 207 253 306 379 436
#     4  12  26  51  76 101 152 199 251 305 372 456
#     4  11  26  44  76 109 145 191 246 321 379 442
#     4  12  27  38  75 113 149 197 248 308 376 455
#     4  12  24  45  72 107 149 200 247 302 368 452
#     4  12  25  47  72 107 153 188 249 313 378 444
#     4  12  23  42  68 108 156 196 241 300 387 446
#     4  12  24  45  70 110 153 198 240 310 378 444
#
# _framework density 24.088847999999999
#
# number of rings (size 3 to 8) (size 9 to 14) (size 15 to 20)
#    0.000    0.250    6.250    2.625    5.250    2.000 
#    0.000    3.750    0.000    0.000    0.000    0.000 
#    0.000    0.000    0.000    0.000    0.000    0.000 
#
# Total GULP energy -178951.083490 kJ/mol
# GULP energy per Si atom -5592.221359 kJ/mol
# Density = 2.403402 g / cm^3
# Si number density = 24.088848 Si / 1000 Ang^3
#
#
#
# Elastic Constant Matrix: (Units=GPa)
#
#
# Indices 1 2 3 4 5 6 
#
# 1 94.0319 20.3610 40.5044 0.0000 8.0998 0.0000
# 2 20.3610 52.7720 41.1572 0.0000 -3.8933 0.0000
# 3 40.5044 41.1572 128.1071 0.0002 8.1000 0.0000
# 4 0.0000 0.0000 0.0002 -80.1398 0.0001 1.9700
# 5 8.0998 -3.8933 8.1000 0.0001 46.2806 0.0000
# 6 0.0000 0.0000 0.0000 1.9700 0.0000 18.5139
#
#
#
# Elastic Compliance Matrix: (Units=1/GPa)
#
#
# Indices 1 2 3 4 5 6 
#
# 1 0.012684 -0.002671 -0.003031 0.000000 -0.001914 0.000000
# 2 -0.002671 0.026451 -0.007911 0.000000 0.004077 0.000000
# 3 -0.003031 -0.007911 0.011441 0.000000 -0.002137 0.000000
# 4 0.000000 0.000000 0.000000 -0.012446 0.000000 0.001324
# 5 -0.001914 0.004077 -0.002137 0.000000 0.022659 0.000000
# 6 0.000000 0.000000 0.000000 0.001324 0.000000 0.053873
#
#
# Mechanical properties :
#
#
# Convention : Reuss Voigt Hill
#
# Bulk Modulus (GPa) = 42.82843 53.21735 48.02289
# Shear Modulus (GPa) = 33.40653 8.45683 20.93168
#
# Velocity S-wave (km/s) = 3.72802 1.87571 2.95097
# Velocity P-wave (km/s) = 6.02900 5.17988 5.62050
#
# Compressibility (1/GPa) = 0.02334897
#
# Stress axis : x y z
#
# Youngs Moduli (GPa) = 78.84225 37.80607 87.40388
#
# Poissons Ratio (x) = 0.10098 0.26493
# Poissons Ratio (y) = 0.21058 0.69147
# Poissons Ratio (z) = 0.23898 0.29909
#
# Static dielectric constant tensor:
#      x y z
#    x 2.024150 0.000000 -0.011180 
#    y 0.000000 1.964750 0.000000 
#    z -0.011180 0.000000 1.910680 
# 
# From -- ./inp_files/220287.got.cif
#   From: 2010.05.17/outbox.cif.g08.bks.cpg/sg15_111_cif.got.tgz:220287.got - 2010.06.03 18:47:42.
