data_PCOD9306134
_publ_section_title
;
Structure prediction by ZEFSAII (Michael W. Deem and Ramdas Pophale) SiO2 
 PCOD9306134
Probable space group: C 2/C
;
_chemical_formula_sum "Si O2"
_cell_formula_units_Z 56
_cell_length_a 9.032394
_cell_length_b 11.737890
_cell_length_c 25.644002
_cell_angle_alpha 90.000000
_cell_angle_beta 58.229808
_cell_angle_gamma 90.000000
_cell_volume 2311.441009
_symmetry_space_group_name_H-M "C 2/C"
_symmetry_group_IT_number 15
_symmetry_cell_setting 'monoclinic'
loop_
_space_group_symop_operation_xyz
x,y,z
-x,y,1/2-z
-x,-y,-z
x,-y,1/2+z
1/2+x,1/2+y,z
1/2-x,1/2+y,1/2-z
1/2-x,1/2-y,-z
1/2+x,1/2-y,1/2+z
loop_
_atom_site_type_symbol
_atom_site_label
_atom_site_fract_x
_atom_site_fract_y
_atom_site_fract_z
Si Si1 0.000000 0.039277 0.250000
Si Si2 0.000000 0.411605 0.250000
Si Si3 0.782431 0.738300 0.932120
Si Si4 0.639579 0.005914 0.120565
Si Si5 0.085421 0.878095 0.148719
Si Si6 0.780660 0.283447 0.710590
Si Si7 0.884887 0.540598 0.069395
Si Si8 0.317480 0.697243 0.153964
O O1 0.833026 0.116379 0.294708
O O2 0.031893 0.958043 0.292980
O O3 0.974241 0.481417 0.307060
O O4 0.839775 0.326747 0.273155
O O5 0.762218 0.610105 0.914646
O O6 0.977012 0.781011 0.881697
O O7 0.653949 0.826482 0.929389
O O8 0.750000 0.750000 0.000000
O O9 0.505142 0.026613 0.098378
O O10 0.768960 0.103737 0.118781
O O11 0.203905 0.967941 0.095244
O O12 0.236616 0.817723 0.153301
O O13 0.965088 0.768130 0.157575
O O14 0.769945 0.322791 0.773269
O O15 0.000000 0.500000 0.000000
#
# Coordination Sequence:
#
# PCOD9306134 Si02
#       8
#     4   4   8   8   8   8   8   8
#     4  11  26  43  74 106 158 207 263 318 410 478
#     4  11  26  47  76 112 172 205 263 324 414 486
#     4  12  26  56  83 109 162 215 275 340 407 488
#     4  12  29  49  79 122 161 211 268 342 410 487
#     4  12  25  44  78 112 156 209 267 327 412 484
#     4  11  25  45  69 114 156 209 254 327 396 493
#     4  12  27  56  84 113 164 218 277 349 410 486
#     4  12  26  47  73 118 159 204 267 328 406 486
#
# _framework density 24.227312000000001
#
# number of rings (size 3 to 8) (size 9 to 14) (size 15 to 20)
#    0.000    0.286    5.714    0.857   10.000    0.571 
#    0.000    1.429    0.000    0.000    0.000    0.000 
#    0.000    0.000    0.000    0.000    0.000    0.000 
#
# Total GULP energy -156533.905275 kJ/mol
# GULP energy per Si atom -5590.496617 kJ/mol
# Density = 2.417217 g / cm^3
# Si number density = 24.227312 Si / 1000 Ang^3
#
#
#
# Elastic Constant Matrix: (Units=GPa)
#
#
# Indices 1 2 3 4 5 6 
#
# 1 96.4574 45.6721 30.1759 0.0000 7.1353 0.0000
# 2 45.6721 128.6926 26.8925 0.0000 4.4068 0.0000
# 3 30.1759 26.8925 106.5179 0.0000 15.1741 0.0000
# 4 0.0000 0.0000 0.0000 27.5774 0.0000 0.1809
# 5 7.1353 4.4068 15.1741 0.0000 45.4493 0.0000
# 6 0.0000 0.0000 0.0000 0.1809 0.0000 64.2005
#
#
#
# Elastic Compliance Matrix: (Units=1/GPa)
#
#
# Indices 1 2 3 4 5 6 
#
# 1 0.013181 -0.004111 -0.002581 0.000000 -0.000809 0.000000
# 2 -0.004111 0.009486 -0.001251 0.000000 0.000143 0.000000
# 3 -0.002581 -0.001251 0.010877 0.000000 -0.003105 0.000000
# 4 0.000000 0.000000 0.000000 0.036262 0.000000 -0.000102
# 5 -0.000809 0.000143 -0.003105 0.000000 0.023152 0.000000
# 6 0.000000 0.000000 0.000000 -0.000102 0.000000 0.015576
#
#
# Mechanical properties :
#
#
# Convention : Reuss Voigt Hill
#
# Bulk Modulus (GPa) = 56.62773 59.68319 58.15546
# Shear Modulus (GPa) = 38.37102 42.70727 40.53915
#
# Velocity S-wave (km/s) = 3.98401 4.20310 4.09502
# Velocity P-wave (km/s) = 6.67737 6.94571 6.81286
#
# Compressibility (1/GPa) = 0.01765919
#
# Stress axis : x y z
#
# Youngs Moduli (GPa) = 75.86678 105.42075 91.93386
#
# Poissons Ratio (x) = 0.43336 0.23728
# Poissons Ratio (y) = 0.31187 0.11498
# Poissons Ratio (z) = 0.19581 0.13185
#
# Static dielectric constant tensor:
#      x y z
#    x 1.973740 0.000000 0.036570 
#    y 0.000000 1.945660 0.000000 
#    z 0.036570 0.000000 2.172110 
# 
# From -- ./inp_files/307441.got.cif
#   From: 2010.05.17/outbox.cif.g08.bks.cpg/sg15_154_cif.got.tgz:307441.got - 2010.06.03 18:47:42.
