data_PCOD9306755
_publ_section_title
;
Structure prediction by ZEFSAII (Michael W. Deem and Ramdas Pophale) SiO2 
 PCOD9306755
Probable space group: C 2/C
;
_chemical_formula_sum "Si O2"
_cell_formula_units_Z 28
_cell_length_a 12.468834
_cell_length_b 9.708393
_cell_length_c 17.011707
_cell_angle_alpha 90.000000
_cell_angle_beta 32.883401
_cell_angle_gamma 90.000000
_cell_volume 1118.061960
_symmetry_space_group_name_H-M "C 2/C"
_symmetry_group_IT_number 15
_symmetry_cell_setting 'monoclinic'
loop_
_space_group_symop_operation_xyz
x,y,z
-x,y,1/2-z
-x,-y,-z
x,-y,1/2+z
1/2+x,1/2+y,z
1/2-x,1/2+y,1/2-z
1/2-x,1/2-y,-z
1/2+x,1/2-y,1/2+z
loop_
_atom_site_type_symbol
_atom_site_label
_atom_site_fract_x
_atom_site_fract_y
_atom_site_fract_z
Si Si1 0.154652 0.052133 0.058095
Si Si2 0.500000 0.912532 0.750000
Si Si3 0.163430 0.814902 0.262197
Si Si4 0.094693 0.298970 0.978481
O O1 0.071201 0.172670 0.054454
O O2 0.225830 0.112882 0.097149
O O3 0.007220 0.924652 0.149955
O O4 0.356135 0.002507 0.891742
O O5 0.368878 0.814029 0.775666
O O6 0.137924 0.762625 0.366803
O O7 0.382291 0.872830 0.112359
#
# Coordination Sequence:
#
# PCOD9306755 Si02
#       4
#     8   4   8   8
#     4  11  26  50  74 113 153 193 267 306 362 477
#     4  12  26  48  74 110 158 194 256 312 370 458
#     4  12  26  48  76 115 150 201 249 314 382 443
#     4  11  27  49  81 107 150 207 246 314 389 425
#
# _framework density 25.043334999999999
#
# number of rings (size 3 to 8) (size 9 to 14) (size 15 to 20)
#    0.000    0.571    2.857    3.429    4.000    6.857 
#    0.000    0.000    0.000    0.000    0.000    0.000 
#    0.000    0.000    0.000    0.000    0.000    0.000 
#
# Total GULP energy -78673.370498 kJ/mol
# GULP energy per Si atom -5619.526464 kJ/mol
# Density = 2.498634 g / cm^3
# Si number density = 25.043335 Si / 1000 Ang^3
#
#
#
# Elastic Constant Matrix: (Units=GPa)
#
#
# Indices 1 2 3 4 5 6 
#
# 1 137.0874 31.8779 30.1599 0.0025 15.8092 -0.0014
# 2 31.8779 72.7726 18.6291 0.0050 0.9924 -0.0026
# 3 30.1599 18.6291 131.4675 0.0096 -16.4858 -0.0053
# 4 0.0025 0.0050 0.0096 95.7290 -0.0002 -31.1361
# 5 15.8092 0.9924 -16.4858 -0.0002 47.0086 0.0002
# 6 -0.0014 -0.0026 -0.0053 -31.1361 0.0002 76.1577
#
#
#
# Elastic Compliance Matrix: (Units=1/GPa)
#
#
# Indices 1 2 3 4 5 6 
#
# 1 0.008941 -0.003346 -0.002035 0.000000 -0.003650 0.000000
# 2 -0.003346 0.015561 -0.001399 -0.000001 0.000306 0.000000
# 3 -0.002035 -0.001399 0.008746 -0.000001 0.003781 0.000000
# 4 0.000000 -0.000001 -0.000001 0.012048 0.000000 0.004926
# 5 -0.003650 0.000306 0.003781 0.000000 0.023820 0.000000
# 6 0.000000 0.000000 0.000000 0.004926 0.000000 0.015144
#
#
# Mechanical properties :
#
#
# Convention : Reuss Voigt Hill
#
# Bulk Modulus (GPa) = 50.79155 55.85126 53.32140
# Shear Modulus (GPa) = 47.90057 61.15644 54.52850
#
# Velocity S-wave (km/s) = 4.37820 4.94705 4.67129
# Velocity P-wave (km/s) = 6.77374 7.41494 7.10158
#
# Compressibility (1/GPa) = 0.01968831
#
# Stress axis : x y z
#
# Youngs Moduli (GPa) = 111.84088 64.26267 114.34330
#
# Poissons Ratio (x) = 0.21503 0.23266
# Poissons Ratio (y) = 0.37423 0.15997
# Poissons Ratio (z) = 0.22757 0.08990
#
# Static dielectric constant tensor:
#      x y z
#    x 1.954390 0.000000 -0.039930 
#    y 0.000000 1.940410 0.000000 
#    z -0.039930 0.000000 1.953810 
# 
# From -- ./inp_files/53967.got.cif
#   From: 2010.05.17/outbox.cif.g08.bks.cpg/sg15_27_cif.got.tgz:53967.got - 2010.06.03 18:47:42.
