data_PCOD9306553
_publ_section_title
;
Structure prediction by ZEFSAII (Michael W. Deem and Ramdas Pophale) SiO2 
 PCOD9306553
Probable space group: C 2/C
;
_chemical_formula_sum "Si O2"
_cell_formula_units_Z 32
_cell_length_a 17.310808
_cell_length_b 12.290683
_cell_length_c 12.405164
_cell_angle_alpha 90.000000
_cell_angle_beta 148.729659
_cell_angle_gamma 90.000000
_cell_volume 1370.021651
_symmetry_space_group_name_H-M "C 2/C"
_symmetry_group_IT_number 15
_symmetry_cell_setting 'monoclinic'
loop_
_space_group_symop_operation_xyz
x,y,z
-x,y,1/2-z
-x,-y,-z
x,-y,1/2+z
1/2+x,1/2+y,z
1/2-x,1/2+y,1/2-z
1/2-x,1/2-y,-z
1/2+x,1/2-y,1/2+z
loop_
_atom_site_type_symbol
_atom_site_label
_atom_site_fract_x
_atom_site_fract_y
_atom_site_fract_z
Si Si1 0.660843 0.412645 0.884793
Si Si2 0.751168 0.304305 0.770320
Si Si3 0.073269 0.615599 0.626180
Si Si4 0.164098 0.149174 0.941259
O O1 0.500000 0.389100 0.750000
O O2 0.686711 0.350802 0.804515
O O3 0.664671 0.541943 0.870423
O O4 0.805928 0.394412 0.133503
O O5 0.671786 0.186866 0.659440
O O6 0.710596 0.377378 0.618716
O O7 0.929714 0.311532 0.987602
O O8 0.000000 0.500000 0.500000
O O9 0.000000 0.190832 0.750000
O O10 0.250000 0.250000 0.000000
#
# Coordination Sequence:
#
# PCOD9306553 Si02
#       4
#     8   8   8   8
#     4  11  26  48  76 113 154 207 262 323 396 470
#     4  12  26  48  78 107 158 204 262 326 395 467
#     4  12  26  49  77 117 152 209 258 327 403 471
#     4  11  26  43  71 111 153 203 261 321 394 474
#
# _framework density 23.357296000000002
#
# number of rings (size 3 to 8) (size 9 to 14) (size 15 to 20)
#    0.000    0.500    2.500    4.500    3.500    4.000 
#    0.000    0.000    0.000    0.000    0.000    0.000 
#    0.000    0.000    0.000    0.000    0.000    0.000 
#
# Total GULP energy -89360.487198 kJ/mol
# GULP energy per Si atom -5585.030450 kJ/mol
# Density = 2.330413 g / cm^3
# Si number density = 23.357296 Si / 1000 Ang^3
#
#
#
# Elastic Constant Matrix: (Units=GPa)
#
#
# Indices 1 2 3 4 5 6 
#
# 1 80.5255 48.2710 62.8852 0.0000 3.4784 0.0000
# 2 48.2710 120.7074 50.9829 0.0000 25.0251 0.0000
# 3 62.8852 50.9829 194.5940 0.0000 31.1129 0.0000
# 4 0.0000 0.0000 0.0000 42.6120 0.0000 17.1462
# 5 3.4784 25.0251 31.1129 0.0000 51.4394 0.0000
# 6 0.0000 0.0000 0.0000 17.1462 0.0000 32.1318
#
#
#
# Elastic Compliance Matrix: (Units=1/GPa)
#
#
# Indices 1 2 3 4 5 6 
#
# 1 0.020952 -0.007076 -0.005802 0.000000 0.005535 0.000000
# 2 -0.007076 0.012269 -0.000055 0.000000 -0.005457 0.000000
# 3 -0.005802 -0.000055 0.007707 0.000000 -0.004242 0.000000
# 4 0.000000 0.000000 0.000000 0.029884 0.000000 -0.015947
# 5 0.005535 -0.005457 -0.004242 0.000000 0.024287 0.000000
# 6 0.000000 0.000000 0.000000 -0.015947 0.000000 0.039631
#
#
# Mechanical properties :
#
#
# Convention : Reuss Voigt Hill
#
# Bulk Modulus (GPa) = 66.39504 80.01169 73.20337
# Shear Modulus (GPa) = 30.19045 40.81583 35.50314
#
# Velocity S-wave (km/s) = 3.59910 4.18479 3.90295
# Velocity P-wave (km/s) = 6.76454 7.59473 7.19162
#
# Compressibility (1/GPa) = 0.01506137
#
# Stress axis : x y z
#
# Youngs Moduli (GPa) = 47.72884 81.50842 129.75869
#
# Poissons Ratio (x) = 0.57671 0.75285
# Poissons Ratio (y) = 0.33771 0.00718
# Poissons Ratio (z) = 0.27692 0.00451
#
# Static dielectric constant tensor:
#      x y z
#    x 1.862080 0.000000 -0.050360 
#    y 0.000000 1.910920 0.000000 
#    z -0.050360 0.000000 1.898780 
# 
# From -- ./inp_files/161190.got.cif
#   From: 2010.05.17/outbox.cif.g08.bks.cpg/sg15_81_cif.got.tgz:161190.got - 2010.06.03 18:47:42.
