data_PCOD9306673
_publ_section_title
;
Structure prediction by ZEFSAII (Michael W. Deem and Ramdas Pophale) SiO2 
 PCOD9306673
Probable space group: C 2/C
;
_chemical_formula_sum "Si O2"
_cell_formula_units_Z 44
_cell_length_a 9.859502
_cell_length_b 15.498486
_cell_length_c 14.337091
_cell_angle_alpha 90.000000
_cell_angle_beta 121.945476
_cell_angle_gamma 90.000000
_cell_volume 1859.018689
_symmetry_space_group_name_H-M "C 2/C"
_symmetry_group_IT_number 15
_symmetry_cell_setting 'monoclinic'
loop_
_space_group_symop_operation_xyz
x,y,z
-x,y,1/2-z
-x,-y,-z
x,-y,1/2+z
1/2+x,1/2+y,z
1/2-x,1/2+y,1/2-z
1/2-x,1/2-y,-z
1/2+x,1/2-y,1/2+z
loop_
_atom_site_type_symbol
_atom_site_label
_atom_site_fract_x
_atom_site_fract_y
_atom_site_fract_z
Si Si1 0.309166 0.796904 0.112545
Si Si2 0.321413 0.880094 0.650924
Si Si3 0.138558 0.038994 0.613712
Si Si4 0.500000 0.531260 0.750000
Si Si5 0.825870 0.454523 0.443004
Si Si6 0.828700 0.282106 0.319781
O O1 0.246576 0.894506 0.097040
O O2 0.244352 0.761745 0.188739
O O3 0.495446 0.791282 0.158379
O O4 0.250000 0.750000 0.000000
O O5 0.500000 0.860939 0.750000
O O6 0.315009 0.916342 0.543573
O O7 0.211785 0.796674 0.627432
O O8 0.249146 0.959200 0.684165
O O9 0.057011 0.078323 0.676304
O O10 0.000000 0.000000 0.500000
O O11 0.333581 0.490500 0.646852
O O12 0.812725 0.370913 0.370775
O O13 0.000000 0.500000 0.500000
#
# Coordination Sequence:
#
# PCOD9306673 Si02
#       6
#     8   8   8   4   8   8
#     4  11  26  47  77 107 157 205 266 336 409 480
#     4  12  28  46  78 116 163 214 273 335 417 501
#     4  12  25  47  76 113 154 206 269 331 404 496
#     4  12  26  46  84 110 158 202 272 330 416 478
#     4  12  26  50  81 116 157 213 270 345 408 494
#     4  11  27  47  73 111 156 207 266 333 405 482
#
# _framework density 23.668402
#
# number of rings (size 3 to 8) (size 9 to 14) (size 15 to 20)
#    0.000    0.364    3.636    3.818    6.364    2.909 
#    0.000    0.000    0.000    0.000    0.000    0.000 
#    0.000    0.000    0.000    0.000    0.000    0.000 
#
# Total GULP energy -122600.714455 kJ/mol
# GULP energy per Si atom -5572.759748 kJ/mol
# Density = 2.361453 g / cm^3
# Si number density = 23.668402 Si / 1000 Ang^3
#
#
#
# Elastic Constant Matrix: (Units=GPa)
#
#
# Indices 1 2 3 4 5 6 
#
# 1 146.4747 57.3990 70.8501 0.0000 -4.3180 0.0000
# 2 57.3990 112.0559 27.9988 0.0000 -0.7640 0.0000
# 3 70.8501 27.9988 137.0835 0.0000 -18.2915 0.0000
# 4 0.0000 0.0000 0.0000 19.6887 0.0000 -3.5931
# 5 -4.3180 -0.7640 -18.2915 0.0000 57.3573 0.0000
# 6 0.0000 0.0000 0.0000 -3.5931 0.0000 45.5968
#
#
#
# Elastic Compliance Matrix: (Units=1/GPa)
#
#
# Indices 1 2 3 4 5 6 
#
# 1 0.010841 -0.004355 -0.004817 0.000000 -0.000778 0.000000
# 2 -0.004355 0.011168 -0.000057 0.000000 -0.000197 0.000000
# 3 -0.004817 -0.000057 0.010181 0.000000 0.002883 0.000000
# 4 0.000000 0.000000 0.000000 0.051532 0.000000 0.004061
# 5 -0.000778 -0.000197 0.002883 0.000000 0.018293 0.000000
# 6 0.000000 0.000000 0.000000 0.004061 0.000000 0.022251
#
#
# Mechanical properties :
#
#
# Convention : Reuss Voigt Hill
#
# Bulk Modulus (GPa) = 72.82230 78.67886 75.75058
# Shear Modulus (GPa) = 33.94440 40.48629 37.21534
#
# Velocity S-wave (km/s) = 3.79115 4.14038 3.96961
# Velocity P-wave (km/s) = 7.07094 7.49475 7.28593
#
# Compressibility (1/GPa) = 0.01373206
#
# Stress axis : x y z
#
# Youngs Moduli (GPa) = 92.24412 89.54546 98.22306
#
# Poissons Ratio (x) = 0.38994 0.47318
# Poissons Ratio (y) = 0.40169 0.00556
# Poissons Ratio (z) = 0.44437 0.00507
#
# Static dielectric constant tensor:
#      x y z
#    x 1.932420 0.000000 0.052930 
#    y 0.000000 1.921190 0.000000 
#    z 0.052930 0.000000 2.221900 
# 
# From -- ./inp_files/134947.got.cif
#   From: 2010.05.17/outbox.cif.g08.bks.cpg/sg15_68_cif.got.tgz:134947.got - 2010.06.03 18:47:42.
