data_PCOD9306614
_publ_section_title
;
Structure prediction by ZEFSAII (Michael W. Deem and Ramdas Pophale) SiO2 
 PCOD9306614
Probable space group: C 2/C
;
_chemical_formula_sum "Si O2"
_cell_formula_units_Z 40
_cell_length_a 8.333287
_cell_length_b 22.420934
_cell_length_c 10.248837
_cell_angle_alpha 90.000000
_cell_angle_beta 71.504705
_cell_angle_gamma 90.000000
_cell_volume 1815.988695
_symmetry_space_group_name_H-M "C 2/C"
_symmetry_group_IT_number 15
_symmetry_cell_setting 'monoclinic'
loop_
_space_group_symop_operation_xyz
x,y,z
-x,y,1/2-z
-x,-y,-z
x,-y,1/2+z
1/2+x,1/2+y,z
1/2-x,1/2+y,1/2-z
1/2-x,1/2-y,-z
1/2+x,1/2-y,1/2+z
loop_
_atom_site_type_symbol
_atom_site_label
_atom_site_fract_x
_atom_site_fract_y
_atom_site_fract_z
Si Si1 0.686348 0.373040 0.756158
Si Si2 0.197347 0.749805 0.165361
Si Si3 0.640278 0.078167 0.538746
Si Si4 0.740057 0.113674 0.787275
Si Si5 0.335859 0.538744 0.999362
O O1 0.500000 0.385487 0.750000
O O2 0.704144 0.304496 0.792705
O O3 0.812656 0.389554 0.607293
O O4 0.712106 0.415847 0.873156
O O5 0.238738 0.815903 0.203699
O O6 0.000000 0.739072 0.250000
O O7 0.250000 0.750000 0.000000
O O8 0.757339 0.099215 0.630141
O O9 0.450183 0.094186 0.625239
O O10 0.686202 0.008834 0.515498
O O11 0.851138 0.077409 0.863687
O O12 0.500000 0.500000 0.000000
#
# Coordination Sequence:
#
# PCOD9306614 Si02
#       5
#     8   8   8   8   8
#     4  12  27  47  75 108 149 194 249 303 376 444
#     4  12  28  51  78 105 148 199 254 316 373 449
#     4  11  26  46  72 112 147 197 238 311 370 451
#     4  11  27  48  74 107 147 195 253 302 378 443
#     4  12  25  47  74 110 154 195 248 305 381 448
#
# _framework density 22.02657
#
# number of rings (size 3 to 8) (size 9 to 14) (size 15 to 20)
#    0.000    0.400    4.000    3.000    8.400    2.400 
#    0.000    0.000    0.000    0.000    0.000    0.000 
#    0.000    0.000    0.000    0.000    0.000    0.000 
#
# Total GULP energy -111981.326550 kJ/mol
# GULP energy per Si atom -5599.066328 kJ/mol
# Density = 2.197644 g / cm^3
# Si number density = 22.026570 Si / 1000 Ang^3
#
#
#
# Elastic Constant Matrix: (Units=GPa)
#
#
# Indices 1 2 3 4 5 6 
#
# 1 62.4646 -4.1280 20.4201 0.0000 -0.6059 0.0000
# 2 -4.1280 145.3707 54.1717 0.0000 21.9104 0.0000
# 3 20.4201 54.1717 178.9007 0.0000 14.1474 0.0000
# 4 0.0000 0.0000 0.0000 47.7541 0.0000 27.0069
# 5 -0.6059 21.9104 14.1474 0.0000 37.7288 0.0000
# 6 0.0000 0.0000 0.0000 27.0069 0.0000 8.1603
#
#
#
# Elastic Compliance Matrix: (Units=1/GPa)
#
#
# Indices 1 2 3 4 5 6 
#
# 1 0.016866 0.001294 -0.002349 0.000000 0.000400 0.000000
# 2 0.001294 0.008399 -0.002377 0.000000 -0.003966 0.000000
# 3 -0.002349 -0.002377 0.006669 0.000000 -0.001158 0.000000
# 4 0.000000 0.000000 0.000000 -0.024023 0.000000 0.079506
# 5 0.000400 -0.003966 -0.001158 0.000000 0.029248 0.000000
# 6 0.000000 0.000000 0.000000 0.079506 0.000000 -0.140585
#
#
# Mechanical properties :
#
#
# Convention : Reuss Voigt Hill
#
# Bulk Modulus (GPa) = 39.88767 58.62928 49.25847
# Shear Modulus (GPa) = -56.68702 39.81347 -8.43677
#
# Velocity S-wave (km/s) = -5.07854 4.25611 -1.95923
# Velocity P-wave (km/s) = 4.02997 7.12937 4.15856
#
# Compressibility (1/GPa) = 0.02507040
#
# Stress axis : x y z
#
# Youngs Moduli (GPa) = 59.29012 119.05711 149.94261
#
# Poissons Ratio (x) = -0.15404 0.35215
# Poissons Ratio (y) = -0.07671 0.35648
# Poissons Ratio (z) = 0.13925 0.28305
#
# Static dielectric constant tensor:
#      x y z
#    x 1.852380 0.000000 -0.039130 
#    y 0.000000 1.765710 0.000000 
#    z -0.039130 0.000000 1.859410 
# 
# From -- ./inp_files/23496.got.cif
#   From: 2010.05.17/outbox.cif.g08.bks.cpg/sg15_12_cif.got.tgz:23496.got - 2010.06.03 18:47:42.
