data_PCOD9306625
_publ_section_title
;
Structure prediction by ZEFSAII (Michael W. Deem and Ramdas Pophale) SiO2 
 PCOD9306625
Probable space group: C 2/C
;
_chemical_formula_sum "Si O2"
_cell_formula_units_Z 28
_cell_length_a 6.594768
_cell_length_b 21.784254
_cell_length_c 11.538380
_cell_angle_alpha 90.000000
_cell_angle_beta 128.374640
_cell_angle_gamma 90.000000
_cell_volume 1299.527755
_symmetry_space_group_name_H-M "C 2/C"
_symmetry_group_IT_number 15
_symmetry_cell_setting 'monoclinic'
loop_
_space_group_symop_operation_xyz
x,y,z
-x,y,1/2-z
-x,-y,-z
x,-y,1/2+z
1/2+x,1/2+y,z
1/2-x,1/2+y,1/2-z
1/2-x,1/2-y,-z
1/2+x,1/2-y,1/2+z
loop_
_atom_site_type_symbol
_atom_site_label
_atom_site_fract_x
_atom_site_fract_y
_atom_site_fract_z
Si Si1 0.209494 0.988140 0.932233
Si Si2 0.501967 0.606146 0.982511
Si Si3 0.000000 0.181730 0.750000
Si Si4 0.962535 0.774120 0.872482
O O1 0.000000 0.986397 0.750000
O O2 0.154905 0.045927 0.997172
O O3 0.203589 0.925071 0.003900
O O4 0.500000 0.000000 0.000000
O O5 0.440080 0.639309 0.839602
O O6 0.617161 0.661619 0.097648
O O7 0.748204 0.225294 0.656955
O O8 0.000000 0.783171 0.750000
O O9 0.250000 0.750000 0.000000
#
# Coordination Sequence:
#
# PCOD9306625 Si02
#       4
#     8   8   4   8
#     4  11  27  49  76 105 144 195 243 310 359 430
#     4  11  26  46  75 108 146 189 246 296 367 436
#     4  12  26  48  74 106 154 190 238 306 368 444
#     4  12  27  45  73 107 144 193 241 296 366 437
#
# _framework density 21.546287
#
# number of rings (size 3 to 8) (size 9 to 14) (size 15 to 20)
#    0.000    0.571    4.286    1.714    4.000    9.143 
#    0.000    0.000    0.000    0.000    0.000    0.000 
#    0.000    0.000    0.000    0.000    0.000    0.000 
#
# Total GULP energy -78010.048892 kJ/mol
# GULP energy per Si atom -5572.146349 kJ/mol
# Density = 2.149725 g / cm^3
# Si number density = 21.546287 Si / 1000 Ang^3
#
#
#
# Elastic Constant Matrix: (Units=GPa)
#
#
# Indices 1 2 3 4 5 6 
#
# 1 139.6099 54.5803 60.7237 0.0000 8.9687 0.0000
# 2 54.5803 161.8184 43.5826 0.0000 -6.1143 0.0000
# 3 60.7237 43.5826 109.4560 0.0000 -20.9520 0.0000
# 4 0.0000 0.0000 0.0000 -200.6195 0.0000 -127.1775
# 5 8.9687 -6.1143 -20.9520 0.0000 44.5527 0.0000
# 6 0.0000 0.0000 0.0000 -127.1775 0.0000 1.3400
#
#
#
# Elastic Compliance Matrix: (Units=1/GPa)
#
#
# Indices 1 2 3 4 5 6 
#
# 1 0.011170 -0.002265 -0.006357 0.000000 -0.005549 0.000000
# 2 -0.002265 0.007387 -0.001542 0.000000 0.000744 0.000000
# 3 -0.006357 -0.001542 0.014815 0.000000 0.008035 0.000000
# 4 0.000000 0.000000 0.000000 -0.000081 0.000000 -0.007734
# 5 -0.005549 0.000744 0.008035 0.000000 0.027443 0.000000
# 6 0.000000 0.000000 0.000000 -0.007734 0.000000 0.012201
#
#
# Mechanical properties :
#
#
# Convention : Reuss Voigt Hill
#
# Bulk Modulus (GPa) = 76.66779 80.96197 78.81488
# Shear Modulus (GPa) = 51.22344 -14.14553 18.53896
#
# Velocity S-wave (km/s) = 4.88112 -2.56504 2.93648
# Velocity P-wave (km/s) = 8.21140 5.37446 6.93945
#
# Compressibility (1/GPa) = 0.01304329
#
# Stress axis : x y z
#
# Youngs Moduli (GPa) = 89.52694 135.36793 67.49888
#
# Poissons Ratio (x) = 0.30661 0.42910
# Poissons Ratio (y) = 0.20278 0.10411
# Poissons Ratio (z) = 0.56913 0.20878
#
# Static dielectric constant tensor:
#      x y z
#    x 2.139670 0.000000 -0.227800 
#    y 0.000000 1.787690 0.000000 
#    z -0.227800 0.000000 1.925840 
# 
# From -- ./inp_files/71688.got.cif
#   From: 2010.05.17/outbox.cif.g08.bks.cpg/sg15_36_cif.got.tgz:71688.got - 2010.06.03 18:47:42.
