data_PCOD9306143
_publ_section_title
;
Structure prediction by ZEFSAII (Michael W. Deem and Ramdas Pophale) SiO2 
 PCOD9306143
Probable space group: C 2/C
;
_chemical_formula_sum "Si O2"
_cell_formula_units_Z 36
_cell_length_a 28.766881
_cell_length_b 5.151413
_cell_length_c 9.892889
_cell_angle_alpha 90.000000
_cell_angle_beta 58.999945
_cell_angle_gamma 90.000000
_cell_volume 1256.630590
_symmetry_space_group_name_H-M "C 2/C"
_symmetry_group_IT_number 15
_symmetry_cell_setting 'monoclinic'
loop_
_space_group_symop_operation_xyz
x,y,z
-x,y,1/2-z
-x,-y,-z
x,-y,1/2+z
1/2+x,1/2+y,z
1/2-x,1/2+y,1/2-z
1/2-x,1/2-y,-z
1/2+x,1/2-y,1/2+z
loop_
_atom_site_type_symbol
_atom_site_label
_atom_site_fract_x
_atom_site_fract_y
_atom_site_fract_z
Si Si1 0.500000 0.852731 0.250000
Si Si2 0.074311 0.699351 0.273861
Si Si3 0.204957 0.044090 0.933862
Si Si4 0.185679 0.540713 0.148645
Si Si5 0.907496 0.985809 0.515348
O O1 0.449596 0.682360 0.377583
O O2 0.520284 0.039479 0.338948
O O3 0.121996 0.536918 0.275080
O O4 0.073662 0.967008 0.359214
O O5 0.088526 0.748129 0.094965
O O6 0.268650 0.003019 0.804761
O O7 0.196428 0.307314 0.029146
O O8 0.157519 0.039209 0.894280
O O9 0.194489 0.809956 0.055777
#
# Coordination Sequence:
#
# PCOD9306143 Si02
#       5
#     4   8   8   8   8
#     4  12  24  44  70 102 140 200 252 318 362 446
#     4  11  25  45  70 107 145 195 248 310 377 450
#     4   9  18  39  68 101 138 186 236 296 366 438
#     4   9  18  39  68 100 139 184 238 296 364 442
#     4  11  25  45  70 104 146 190 248 312 375 452
#
# _framework density 28.648035
#
# number of rings (size 3 to 8) (size 9 to 14) (size 15 to 20)
#    0.000    1.778    2.222    1.333    0.000    5.333 
#    0.000   11.111    0.000    0.000    0.000    0.000 
#    0.000    0.000    0.000    0.000    0.000    0.000 
#
# Total GULP energy -100751.716055 kJ/mol
# GULP energy per Si atom -5597.317559 kJ/mol
# Density = 2.858283 g / cm^3
# Si number density = 28.648035 Si / 1000 Ang^3
#
#
#
# Elastic Constant Matrix: (Units=GPa)
#
#
# Indices 1 2 3 4 5 6 
#
# 1 237.1035 34.3019 52.2773 0.0000 -14.5512 0.0000
# 2 34.3019 105.5013 44.0219 0.0000 7.7448 0.0000
# 3 52.2773 44.0219 100.1141 0.0000 14.2063 0.0000
# 4 0.0000 0.0000 0.0000 14.9121 0.0000 -4.0715
# 5 -14.5512 7.7448 14.2063 0.0000 26.9115 0.0000
# 6 0.0000 0.0000 0.0000 -4.0715 0.0000 57.9487
#
#
#
# Elastic Compliance Matrix: (Units=1/GPa)
#
#
# Indices 1 2 3 4 5 6 
#
# 1 0.005303 -0.000779 -0.003098 0.000000 0.004727 0.000000
# 2 -0.000779 0.011735 -0.004556 0.000000 -0.001393 0.000000
# 3 -0.003098 -0.004556 0.014767 0.000000 -0.008159 0.000000
# 4 0.000000 0.000000 0.000000 0.068371 0.000000 0.004804
# 5 0.004727 -0.001393 -0.008159 0.000000 0.044423 0.000000
# 6 0.000000 0.000000 0.000000 0.004804 0.000000 0.017594
#
#
# Mechanical properties :
#
#
# Convention : Reuss Voigt Hill
#
# Bulk Modulus (GPa) = 66.92851 78.21346 72.57099
# Shear Modulus (GPa) = 27.16830 40.76231 33.96530
#
# Velocity S-wave (km/s) = 3.08287 3.77618 3.44700
# Velocity P-wave (km/s) = 6.00709 6.80981 6.42101
#
# Compressibility (1/GPa) = 0.01494132
#
# Stress axis : x y z
#
# Youngs Moduli (GPa) = 188.56268 85.21534 67.71813
#
# Poissons Ratio (x) = 0.06636 0.20976
# Poissons Ratio (y) = 0.14685 0.30850
# Poissons Ratio (z) = 0.58408 0.38822
#
# Static dielectric constant tensor:
#      x y z
#    x 2.260330 0.000000 -0.082370 
#    y 0.000000 2.252680 0.000000 
#    z -0.082370 0.000000 2.208780 
# 
# From -- ./inp_files/120649.got.cif
#   From: 2010.05.17/outbox.cif.g08.bks.cpg/sg15_61_cif.got.tgz:120649.got - 2010.06.03 18:47:42.
