data_PCOD9306763
_publ_section_title
;
Structure prediction by ZEFSAII (Michael W. Deem and Ramdas Pophale) SiO2 
 PCOD9306763
Probable space group: C 2/C
;
_chemical_formula_sum "Si O2"
_cell_formula_units_Z 48
_cell_length_a 30.039888
_cell_length_b 5.149874
_cell_length_c 13.036513
_cell_angle_alpha 90.000000
_cell_angle_beta 117.388890
_cell_angle_gamma 90.000000
_cell_volume 1790.699295
_symmetry_space_group_name_H-M "C 2/C"
_symmetry_group_IT_number 15
_symmetry_cell_setting 'monoclinic'
loop_
_space_group_symop_operation_xyz
x,y,z
-x,y,1/2-z
-x,-y,-z
x,-y,1/2+z
1/2+x,1/2+y,z
1/2-x,1/2+y,1/2-z
1/2-x,1/2-y,-z
1/2+x,1/2-y,1/2+z
loop_
_atom_site_type_symbol
_atom_site_label
_atom_site_fract_x
_atom_site_fract_y
_atom_site_fract_z
Si Si1 0.147346 0.693201 0.377508
Si Si2 0.675597 0.332763 0.197973
Si Si3 0.929020 0.056345 0.462893
Si Si4 0.064854 0.554927 0.897411
Si Si5 0.548488 0.457854 0.743969
Si Si6 0.766517 0.555785 0.426033
O O1 0.121774 0.477733 0.420763
O O2 0.152748 0.639284 0.261575
O O3 0.102729 0.913713 0.333414
O O4 0.298502 0.815023 0.509506
O O5 0.631171 0.525582 0.116759
O O6 0.717108 0.472112 0.311683
O O7 0.701559 0.201460 0.128827
O O8 0.943015 0.814769 0.548062
O O9 0.943750 0.322220 0.533511
O O10 0.952817 0.014696 0.377930
O O11 0.045343 0.648474 0.764523
O O12 0.500000 0.581220 0.750000
O O13 0.750000 0.750000 0.500000
#
# Coordination Sequence:
#
# PCOD9306763 Si02
#       6
#     8   8   8   8   8   8
#     4  11  26  50  78 112 166 210 264 344 402 479
#     4  11  27  44  74 117 156 217 271 325 404 499
#     4  11  28  49  81 115 161 213 265 337 409 486
#     4  12  26  50  81 113 159 211 265 336 412 476
#     4  11  29  53  83 119 158 213 278 342 413 491
#     4  12  27  44  77 116 166 216 272 336 402 492
#
# _framework density 26.80517
#
# number of rings (size 3 to 8) (size 9 to 14) (size 15 to 20)
#    0.000    0.667    3.333    1.500   14.000    2.000 
#    0.000    0.000    0.000    0.000    0.000    0.000 
#    0.000    0.000    0.000    0.000    0.000    0.000 
#
# Total GULP energy -134019.552913 kJ/mol
# GULP energy per Si atom -5584.148038 kJ/mol
# Density = 2.674416 g / cm^3
# Si number density = 26.805170 Si / 1000 Ang^3
#
#
#
# Elastic Constant Matrix: (Units=GPa)
#
#
# Indices 1 2 3 4 5 6 
#
# 1 169.0909 43.2779 55.7796 0.0000 -28.0437 0.0000
# 2 43.2779 128.7591 72.3972 0.0000 -17.4921 0.0000
# 3 55.7796 72.3972 154.3403 0.0000 -24.2457 0.0000
# 4 0.0000 0.0000 0.0000 59.6489 0.0000 -1.3737
# 5 -28.0437 -17.4921 -24.2457 0.0000 72.4387 0.0000
# 6 0.0000 0.0000 0.0000 -1.3737 0.0000 6.7024
#
#
#
# Elastic Compliance Matrix: (Units=1/GPa)
#
#
# Indices 1 2 3 4 5 6 
#
# 1 0.007092 -0.001158 -0.001723 0.000000 0.001889 0.000000
# 2 -0.001158 0.010799 -0.004547 0.000000 0.000637 0.000000
# 3 -0.001723 -0.004547 0.009455 0.000000 0.001400 0.000000
# 4 0.000000 0.000000 0.000000 0.016844 0.000000 0.003452
# 5 0.001889 0.000637 0.001400 0.000000 0.015159 0.000000
# 6 0.000000 0.000000 0.000000 0.003452 0.000000 0.149908
#
#
# Mechanical properties :
#
#
# Convention : Reuss Voigt Hill
#
# Bulk Modulus (GPa) = 80.06801 88.34439 84.20620
# Shear Modulus (GPa) = 21.90337 46.47371 34.18854
#
# Velocity S-wave (km/s) = 2.86165 4.16836 3.57521
# Velocity P-wave (km/s) = 6.39171 7.49643 6.96600
#
# Compressibility (1/GPa) = 0.01248938
#
# Stress axis : x y z
#
# Youngs Moduli (GPa) = 141.00067 92.60259 105.76966
#
# Poissons Ratio (x) = 0.10726 0.18224
# Poissons Ratio (y) = 0.16332 0.48090
# Poissons Ratio (z) = 0.24295 0.42104
#
# Static dielectric constant tensor:
#      x y z
#    x 2.226300 0.000000 0.097960 
#    y 0.000000 2.168490 0.000000 
#    z 0.097960 0.000000 2.135400 
# 
# From -- ./inp_files/179798.got.cif
#   From: 2010.05.17/outbox.cif.g08.bks.cpg/sg15_90_cif.got.tgz:179798.got - 2010.06.03 18:47:42.
