data_PCOD9306631
_publ_section_title
;
Structure prediction by ZEFSAII (Michael W. Deem and Ramdas Pophale) SiO2 
 PCOD9306631
Probable space group: C 2/C
;
_chemical_formula_sum "Si O2"
_cell_formula_units_Z 32
_cell_length_a 22.363654
_cell_length_b 5.153698
_cell_length_c 13.406228
_cell_angle_alpha 90.000000
_cell_angle_beta 59.646843
_cell_angle_gamma 90.000000
_cell_volume 1333.344696
_symmetry_space_group_name_H-M "C 2/C"
_symmetry_group_IT_number 15
_symmetry_cell_setting 'monoclinic'
loop_
_space_group_symop_operation_xyz
x,y,z
-x,y,1/2-z
-x,-y,-z
x,-y,1/2+z
1/2+x,1/2+y,z
1/2-x,1/2+y,1/2-z
1/2-x,1/2-y,-z
1/2+x,1/2-y,1/2+z
loop_
_atom_site_type_symbol
_atom_site_label
_atom_site_fract_x
_atom_site_fract_y
_atom_site_fract_z
Si Si1 0.053766 0.060858 0.064598
Si Si2 0.099998 0.867823 0.747886
Si Si3 0.116785 0.456235 0.414465
Si Si4 0.254208 0.502835 0.924321
O O1 0.086337 0.153249 0.142022
O O2 0.972314 0.020311 0.150765
O O3 0.068633 0.303062 0.981409
O O4 0.089596 0.802145 0.994285
O O5 0.113035 0.608997 0.800774
O O6 0.172443 0.015882 0.694742
O O7 0.192628 0.506951 0.395842
O O8 0.250000 0.250000 0.000000
O O9 0.250000 0.750000 0.000000
#
# Coordination Sequence:
#
# PCOD9306631 Si02
#       4
#     8   8   8   8
#     4  11  26  47  72 112 146 184 244 307 352 444
#     4  11  26  46  77 105 147 195 238 298 377 417
#     4  12  25  47  74 106 146 190 245 296 363 440
#     4  12  25  47  68 103 148 189 241 300 354 432
#
# _framework density 23.999797000000001
#
# number of rings (size 3 to 8) (size 9 to 14) (size 15 to 20)
#    0.000    0.500    5.000    1.500    0.000   14.000 
#    0.000    0.000    0.000    0.000    0.000    0.000 
#    0.000    0.000    0.000    0.000    0.000    0.000 
#
# Total GULP energy -89652.566162 kJ/mol
# GULP energy per Si atom -5603.285385 kJ/mol
# Density = 2.394517 g / cm^3
# Si number density = 23.999797 Si / 1000 Ang^3
#
#
#
# Elastic Constant Matrix: (Units=GPa)
#
#
# Indices 1 2 3 4 5 6 
#
# 1 152.1251 31.8966 66.9716 -0.0004 -0.2115 -0.0002
# 2 31.8966 153.2912 62.4569 -0.0048 3.3567 -0.0095
# 3 66.9716 62.4569 91.0855 0.0005 -14.8200 0.0009
# 4 -0.0004 -0.0048 0.0005 25.1700 0.0009 2.4808
# 5 -0.2115 3.3567 -14.8200 0.0009 69.6718 0.0004
# 6 -0.0002 -0.0095 0.0009 2.4808 0.0004 38.9787
#
#
#
# Elastic Compliance Matrix: (Units=1/GPa)
#
#
# Indices 1 2 3 4 5 6 
#
# 1 0.010126 0.001520 -0.008799 0.000001 -0.001914 0.000001
# 2 0.001520 0.009509 -0.007988 0.000002 -0.002153 0.000002
# 3 -0.008799 -0.007988 0.023808 -0.000002 0.005422 -0.000002
# 4 0.000001 0.000002 -0.000002 0.039981 -0.000001 -0.002545
# 5 -0.001914 -0.002153 0.005422 -0.000001 0.015604 -0.000001
# 6 0.000001 0.000002 -0.000002 -0.002545 -0.000001 0.025817
#
#
# Mechanical properties :
#
#
# Convention : Reuss Voigt Hill
#
# Bulk Modulus (GPa) = 77.46705 79.90578 78.68641
# Shear Modulus (GPa) = 31.31242 42.44254 36.87748
#
# Velocity S-wave (km/s) = 3.61597 4.20986 3.92417
# Velocity P-wave (km/s) = 7.05563 7.54965 7.30682
#
# Compressibility (1/GPa) = 0.01290871
#
# Stress axis : x y z
#
# Youngs Moduli (GPa) = 98.75844 105.16260 42.00329
#
# Poissons Ratio (x) = -0.15984 0.36957
# Poissons Ratio (y) = -0.15010 0.33553
# Poissons Ratio (z) = 0.86894 0.84005
#
# Static dielectric constant tensor:
#      x y z
#    x 1.965260 0.000000 0.031040 
#    y 0.000000 1.879460 0.000000 
#    z 0.031040 0.000000 1.978030 
# 
# From -- ./inp_files/170214.got.cif
#   From: 2010.05.17/outbox.cif.g08.bks.cpg/sg15_86_cif.got.tgz:170214.got - 2010.06.03 18:47:42.
