data_PCOD9306285
_publ_section_title
;
Structure prediction by ZEFSAII (Michael W. Deem and Ramdas Pophale) SiO2 
 PCOD9306285
Probable space group: C 2/C
;
_chemical_formula_sum "Si O2"
_cell_formula_units_Z 44
_cell_length_a 13.427342
_cell_length_b 8.277880
_cell_length_c 22.584689
_cell_angle_alpha 90.000000
_cell_angle_beta 43.150245
_cell_angle_gamma 90.000000
_cell_volume 1716.819634
_symmetry_space_group_name_H-M "C 2/C"
_symmetry_group_IT_number 15
_symmetry_cell_setting 'monoclinic'
loop_
_space_group_symop_operation_xyz
x,y,z
-x,y,1/2-z
-x,-y,-z
x,-y,1/2+z
1/2+x,1/2+y,z
1/2-x,1/2+y,1/2-z
1/2-x,1/2-y,-z
1/2+x,1/2-y,1/2+z
loop_
_atom_site_type_symbol
_atom_site_label
_atom_site_fract_x
_atom_site_fract_y
_atom_site_fract_z
Si Si1 0.595323 0.772549 0.799645
Si Si2 0.708186 0.016239 0.839977
Si Si3 0.203735 0.213064 0.107590
Si Si4 0.454233 0.700900 0.036458
Si Si5 0.081997 0.981695 0.065805
Si Si6 0.500000 0.976191 0.250000
O O1 0.721020 0.641136 0.736355
O O2 0.457024 0.658289 0.870739
O O3 0.611274 0.885940 0.849008
O O4 0.594481 0.897303 0.746436
O O5 0.618665 0.128135 0.922771
O O6 0.823396 0.912226 0.826804
O O7 0.094487 0.362070 0.165553
O O8 0.182053 0.109236 0.057067
O O9 0.370626 0.271437 0.043172
O O10 0.446627 0.589569 0.099122
O O11 0.384216 0.612496 0.010177
#
# Coordination Sequence:
#
# PCOD9306285 Si02
#       6
#     8   8   8   8   8   4
#     4  12  25  46  72 107 140 197 239 304 363 442
#     4  12  25  45  75 103 148 184 249 296 370 437
#     4  12  25  49  72 108 147 191 240 310 360 444
#     4  11  26  48  71 110 145 191 241 302 372 438
#     4  11  25  46  74 102 149 184 245 291 371 427
#     4  12  28  46  72 106 144 186 254 288 374 436
#
# _framework density 25.628782999999999
#
# number of rings (size 3 to 8) (size 9 to 14) (size 15 to 20)
#    0.000    0.364    1.818    6.545    5.091    0.727 
#    0.000    0.000    0.000    0.000    0.000    0.000 
#    0.000    0.000    0.000    0.000    0.000    0.000 
#
# Total GULP energy -123062.644652 kJ/mol
# GULP energy per Si atom -5593.756575 kJ/mol
# Density = 2.557045 g / cm^3
# Si number density = 25.628783 Si / 1000 Ang^3
#
#
#
# Elastic Constant Matrix: (Units=GPa)
#
#
# Indices 1 2 3 4 5 6 
#
# 1 61.9700 41.1601 14.9110 0.0000 12.4061 0.0000
# 2 41.1601 191.8418 53.5259 0.0000 -1.5474 0.0001
# 3 14.9110 53.5259 63.2714 0.0000 -9.2578 0.0000
# 4 0.0000 0.0000 0.0000 51.0129 0.0000 9.2305
# 5 12.4061 -1.5474 -9.2578 0.0000 27.1066 0.0000
# 6 0.0000 0.0001 0.0000 9.2305 0.0000 68.7191
#
#
#
# Elastic Compliance Matrix: (Units=1/GPa)
#
#
# Indices 1 2 3 4 5 6 
#
# 1 0.021792 -0.003754 -0.003632 0.000000 -0.011429 0.000000
# 2 -0.003754 0.007542 -0.005454 0.000000 0.000286 0.000000
# 3 -0.003632 -0.005454 0.022602 0.000000 0.009070 0.000000
# 4 0.000000 0.000000 0.000000 0.020091 0.000000 -0.002699
# 5 -0.011429 0.000286 0.009070 0.000000 0.045236 0.000000
# 6 0.000000 0.000000 0.000000 -0.002699 0.000000 0.014914
#
#
# Mechanical properties :
#
#
# Convention : Reuss Voigt Hill
#
# Bulk Modulus (GPa) = 38.08629 59.58635 48.83632
# Shear Modulus (GPa) = 30.01018 43.20012 36.60515
#
# Velocity S-wave (km/s) = 3.42564 4.11007 3.78336
# Velocity P-wave (km/s) = 5.52627 6.76933 6.17914
#
# Compressibility (1/GPa) = 0.02625617
#
# Stress axis : x y z
#
# Youngs Moduli (GPa) = 45.88760 132.58860 44.24446
#
# Poissons Ratio (x) = 0.49780 0.16069
# Poissons Ratio (y) = 0.17228 0.24130
# Poissons Ratio (z) = 0.16665 0.72310
#
# Static dielectric constant tensor:
#      x y z
#    x 2.026230 0.000000 0.067760 
#    y 0.000000 1.982140 0.000000 
#    z 0.067760 0.000000 2.096570 
# 
# From -- ./inp_files/295003.got.cif
#   From: 2010.05.17/outbox.cif.g08.bks.cpg/sg15_148_cif.got.tgz:295003.got - 2010.06.03 18:47:42.
