data_PCOD9306969
_publ_section_title
;
Structure prediction by ZEFSAII (Michael W. Deem and Ramdas Pophale) SiO2 
 PCOD9306969
Probable space group: C 2/C
;
_chemical_formula_sum "Si O2"
_cell_formula_units_Z 48
_cell_length_a 12.105090
_cell_length_b 22.335961
_cell_length_c 11.738200
_cell_angle_alpha 90.000000
_cell_angle_beta 132.990094
_cell_angle_gamma 90.000000
_cell_volume 2321.515785
_symmetry_space_group_name_H-M "C 2/C"
_symmetry_group_IT_number 15
_symmetry_cell_setting 'monoclinic'
loop_
_space_group_symop_operation_xyz
x,y,z
-x,y,1/2-z
-x,-y,-z
x,-y,1/2+z
1/2+x,1/2+y,z
1/2-x,1/2+y,1/2-z
1/2-x,1/2-y,-z
1/2+x,1/2-y,1/2+z
loop_
_atom_site_type_symbol
_atom_site_label
_atom_site_fract_x
_atom_site_fract_y
_atom_site_fract_z
Si Si1 0.984142 0.718070 0.512619
Si Si2 0.320521 0.083069 0.622553
Si Si3 0.651929 0.468069 0.564878
Si Si4 0.000000 0.092212 0.750000
Si Si5 0.686097 0.326132 0.210774
Si Si6 0.763385 0.125108 0.180168
Si Si7 0.000000 0.220657 0.250000
O O1 0.932279 0.774888 0.404536
O O2 0.892748 0.659988 0.409146
O O3 0.934964 0.735921 0.607028
O O4 0.160849 0.704704 0.637646
O O5 0.500000 0.093337 0.750000
O O6 0.236176 0.133915 0.637392
O O7 0.258479 0.086668 0.450182
O O8 0.280063 0.018691 0.647245
O O9 0.500000 0.500000 0.500000
O O10 0.609020 0.444645 0.409904
O O11 0.689601 0.415192 0.680049
O O12 0.892362 0.131510 0.753769
O O13 0.883250 0.177126 0.232352
#
# Coordination Sequence:
#
# PCOD9306969 Si02
#       7
#     8   8   8   4   8   8   4
#     4  12  24  42  72 106 143 184 235 291 360 420
#     4  12  25  44  74 109 142 179 239 307 352 409
#     4  12  26  48  72  99 139 194 241 289 357 426
#     4  12  28  51  70  98 146 193 240 292 352 434
#     4  12  26  47  71 108 145 192 233 292 359 425
#     4  12  24  41  73 106 140 183 238 294 356 420
#     4  12  20  39  70 108 142 183 232 302 352 414
#
# _framework density 20.676145999999999
#
# number of rings (size 3 to 8) (size 9 to 14) (size 15 to 20)
#    0.000    0.000    6.667    4.500    0.000    2.667 
#    0.000    0.000    0.000    0.000    0.000    0.000 
#    0.000    0.000    0.000    0.000    0.000    0.000 
#
# Total GULP energy -134365.192229 kJ/mol
# GULP energy per Si atom -5598.549676 kJ/mol
# Density = 2.062909 g / cm^3
# Si number density = 20.676146 Si / 1000 Ang^3
#
#
#
# Elastic Constant Matrix: (Units=GPa)
#
#
# Indices 1 2 3 4 5 6 
#
# 1 45.5438 17.1957 6.9506 0.0000 -1.7016 0.0000
# 2 17.1957 99.2426 41.4520 0.0000 -1.8920 0.0000
# 3 6.9506 41.4520 100.2903 0.0000 -4.3106 0.0000
# 4 0.0000 0.0000 0.0000 57.2466 0.0000 -1.3563
# 5 -1.7016 -1.8920 -4.3106 0.0000 26.1684 0.0000
# 6 0.0000 0.0000 0.0000 -1.3563 0.0000 34.1832
#
#
#
# Elastic Compliance Matrix: (Units=1/GPa)
#
#
# Indices 1 2 3 4 5 6 
#
# 1 0.023535 -0.004104 0.000119 0.000000 0.001253 0.000000
# 2 -0.004104 0.012894 -0.005052 0.000000 -0.000167 0.000000
# 3 0.000119 -0.005052 0.012121 0.000000 0.001639 0.000000
# 4 0.000000 0.000000 0.000000 0.017485 0.000000 0.000694
# 5 0.001253 -0.000167 0.001639 0.000000 0.038553 0.000000
# 6 0.000000 0.000000 0.000000 0.000694 0.000000 0.029282
#
#
# Mechanical properties :
#
#
# Convention : Reuss Voigt Hill
#
# Bulk Modulus (GPa) = 32.81189 41.80816 37.31002
# Shear Modulus (GPa) = 30.84444 35.48487 33.16466
#
# Velocity S-wave (km/s) = 3.86656 4.14723 4.00935
# Velocity P-wave (km/s) = 5.98645 6.57244 6.28628
#
# Compressibility (1/GPa) = 0.03047676
#
# Stress axis : x y z
#
# Youngs Moduli (GPa) = 42.48999 77.55284 82.49813
#
# Poissons Ratio (x) = 0.31825 -0.00981
# Poissons Ratio (y) = 0.17436 0.41680
# Poissons Ratio (z) = -0.00505 0.39182
#
# Static dielectric constant tensor:
#      x y z
#    x 1.719380 0.000000 -0.003190 
#    y 0.000000 1.741680 0.000000 
#    z -0.003190 0.000000 1.773130 
# 
# From -- ./inp_files/89808.got.cif
#   From: 2010.05.17/outbox.cif.g08.bks.cpg/sg15_45_cif.got.tgz:89808.got - 2010.06.03 18:47:42.
