data_PCOD9306660
_publ_section_title
;
Structure prediction by ZEFSAII (Michael W. Deem and Ramdas Pophale) SiO2 
 PCOD9306660
Probable space group: C 2/C
;
_chemical_formula_sum "Si O2"
_cell_formula_units_Z 32
_cell_length_a 17.994037
_cell_length_b 5.319754
_cell_length_c 13.552682
_cell_angle_alpha 90.000000
_cell_angle_beta 78.418622
_cell_angle_gamma 90.000000
_cell_volume 1270.902287
_symmetry_space_group_name_H-M "C 2/C"
_symmetry_group_IT_number 15
_symmetry_cell_setting 'monoclinic'
loop_
_space_group_symop_operation_xyz
x,y,z
-x,y,1/2-z
-x,-y,-z
x,-y,1/2+z
1/2+x,1/2+y,z
1/2-x,1/2+y,1/2-z
1/2-x,1/2-y,-z
1/2+x,1/2-y,1/2+z
loop_
_atom_site_type_symbol
_atom_site_label
_atom_site_fract_x
_atom_site_fract_y
_atom_site_fract_z
Si Si1 0.759824 0.644115 0.183776
Si Si2 0.085176 0.780792 0.448779
Si Si3 0.461423 0.059299 0.357913
Si Si4 0.328052 0.626002 0.944565
O O1 0.748608 0.406051 0.257791
O O2 0.842565 0.632004 0.112599
O O3 0.697786 0.611611 0.113708
O O4 0.051011 0.645981 0.554158
O O5 0.020412 0.768346 0.384127
O O6 0.121487 0.040743 0.475916
O O7 0.500000 0.953493 0.250000
O O8 0.380672 0.193587 0.365463
O O9 0.250000 0.750000 0.000000
#
# Coordination Sequence:
#
# PCOD9306660 Si02
#       4
#     8   8   8   8
#     4  12  27  46  81 115 154 202 263 316 389 466
#     4  11  26  47  75 107 159 195 259 321 392 464
#     4  11  26  47  73 110 151 204 258 314 399 463
#     4  12  25  47  77 108 153 205 259 326 387 459
#
# _framework density 25.178958999999999
#
# number of rings (size 3 to 8) (size 9 to 14) (size 15 to 20)
#    0.000    0.500    2.500    4.500    7.000    1.000 
#    4.500    0.000    0.000    0.000    0.000    0.000 
#    0.000    0.000    0.000    0.000    0.000    0.000 
#
# Total GULP energy -89726.881598 kJ/mol
# GULP energy per Si atom -5607.930100 kJ/mol
# Density = 2.512165 g / cm^3
# Si number density = 25.178959 Si / 1000 Ang^3
#
#
#
# Elastic Constant Matrix: (Units=GPa)
#
#
# Indices 1 2 3 4 5 6 
#
# 1 81.7015 12.1315 23.3404 0.0000 -20.6915 0.0000
# 2 12.1315 83.4898 31.0942 0.0000 -12.0538 0.0000
# 3 23.3404 31.0942 152.4216 0.0000 -39.6507 0.0000
# 4 0.0000 0.0000 0.0000 40.2124 0.0000 2.7496
# 5 -20.6915 -12.0538 -39.6507 0.0000 42.4272 0.0000
# 6 0.0000 0.0000 0.0000 2.7496 0.0000 49.0176
#
#
#
# Elastic Compliance Matrix: (Units=1/GPa)
#
#
# Indices 1 2 3 4 5 6 
#
# 1 0.014071 -0.001021 -0.000313 0.000000 0.006280 0.000000
# 2 -0.001021 0.013119 -0.002220 0.000000 0.001155 0.000000
# 3 -0.000313 -0.002220 0.009060 0.000000 0.007684 0.000000
# 4 0.000000 0.000000 0.000000 0.024964 0.000000 -0.001400
# 5 0.006280 0.001155 0.007684 0.000000 0.034142 0.000000
# 6 0.000000 0.000000 0.000000 -0.001400 0.000000 0.020479
#
#
# Mechanical properties :
#
#
# Convention : Reuss Voigt Hill
#
# Bulk Modulus (GPa) = 34.31298 50.08278 42.19788
# Shear Modulus (GPa) = 37.69094 43.06788 40.37941
#
# Velocity S-wave (km/s) = 3.87320 4.14027 4.00896
# Velocity P-wave (km/s) = 5.80168 6.54138 6.18261
#
# Compressibility (1/GPa) = 0.02914349
#
# Stress axis : x y z
#
# Youngs Moduli (GPa) = 71.06751 76.22369 110.37018
#
# Poissons Ratio (x) = 0.07786 0.03451
# Poissons Ratio (y) = 0.07259 0.24497
# Poissons Ratio (z) = 0.02222 0.16918
#
# Static dielectric constant tensor:
#      x y z
#    x 1.968590 0.000000 0.038780 
#    y 0.000000 2.023590 0.000000 
#    z 0.038780 0.000000 1.980980 
# 
# From -- ./inp_files/158158.got.cif
#   From: 2010.05.17/outbox.cif.g08.bks.cpg/sg15_80_cif.got.tgz:158158.got - 2010.06.03 18:47:42.
