data_PCOD9306651
_publ_section_title
;
Structure prediction by ZEFSAII (Michael W. Deem and Ramdas Pophale) SiO2 
 PCOD9306651
Probable space group: C 2/C
;
_chemical_formula_sum "Si O2"
_cell_formula_units_Z 36
_cell_length_a 5.456810
_cell_length_b 20.894306
_cell_length_c 13.764593
_cell_angle_alpha 90.000000
_cell_angle_beta 67.104524
_cell_angle_gamma 90.000000
_cell_volume 1445.744970
_symmetry_space_group_name_H-M "C 2/C"
_symmetry_group_IT_number 15
_symmetry_cell_setting 'monoclinic'
loop_
_space_group_symop_operation_xyz
x,y,z
-x,y,1/2-z
-x,-y,-z
x,-y,1/2+z
1/2+x,1/2+y,z
1/2-x,1/2+y,1/2-z
1/2-x,1/2-y,-z
1/2+x,1/2-y,1/2+z
loop_
_atom_site_type_symbol
_atom_site_label
_atom_site_fract_x
_atom_site_fract_y
_atom_site_fract_z
Si Si1 0.620109 0.144521 0.423782
Si Si2 0.658572 0.386450 0.124467
Si Si3 0.808986 0.779818 0.181706
Si Si4 0.500000 0.931846 0.750000
Si Si5 0.960717 0.978206 0.896458
O O1 0.428915 0.145214 0.546198
O O2 0.697084 0.215124 0.379575
O O3 0.485153 0.111735 0.348804
O O4 0.848548 0.092717 0.406859
O O5 0.500000 0.385531 0.250000
O O6 0.447150 0.339002 0.103387
O O7 0.718016 0.461713 0.106423
O O8 0.500000 0.795871 0.250000
O O9 0.000000 0.766521 0.250000
O O10 0.762513 0.975130 0.703949
O O11 0.000000 0.000000 0.000000
#
# Coordination Sequence:
#
# PCOD9306651 Si02
#       5
#     8   8   8   4   8
#     4  12  25  49  73 110 148 204 260 318 386 474
#     4  11  26  47  72 110 153 199 257 326 392 457
#     4  11  26  49  80 113 155 206 263 325 395 470
#     4  12  24  44  76 102 146 196 254 308 388 462
#     4  12  27  44  76 110 152 201 254 326 390 468
#
# _framework density 24.900659000000001
#
# number of rings (size 3 to 8) (size 9 to 14) (size 15 to 20)
#    0.000    0.444    3.333    4.667    4.667    1.778 
#    0.000    6.667    0.000    0.000    0.000    0.000 
#    0.000    0.000    0.000    0.000    0.000    0.000 
#
# Total GULP energy -100322.858130 kJ/mol
# GULP energy per Si atom -5573.492118 kJ/mol
# Density = 2.484398 g / cm^3
# Si number density = 24.900659 Si / 1000 Ang^3
#
#
#
# Elastic Constant Matrix: (Units=GPa)
#
#
# Indices 1 2 3 4 5 6 
#
# 1 102.7176 25.1991 32.4345 0.0000 -26.3629 0.0000
# 2 25.1991 113.4678 15.9523 0.0000 1.1073 0.0000
# 3 32.4345 15.9523 107.7351 0.0000 -12.2415 0.0000
# 4 0.0000 0.0000 0.0000 3.6323 0.0000 -44.1992
# 5 -26.3629 1.1073 -12.2415 0.0000 53.6374 0.0000
# 6 0.0000 0.0000 0.0000 -44.1992 0.0000 4.3385
#
#
#
# Elastic Compliance Matrix: (Units=1/GPa)
#
#
# Indices 1 2 3 4 5 6 
#
# 1 0.012678 -0.002476 -0.002809 0.000000 0.005641 0.000000
# 2 -0.002476 0.009497 -0.000843 0.000000 -0.001605 0.000000
# 3 -0.002809 -0.000843 0.010367 0.000000 0.001003 0.000000
# 4 0.000000 0.000000 0.000000 -0.002239 0.000000 -0.022809
# 5 0.005641 -0.001605 0.001003 0.000000 0.021678 0.000000
# 6 0.000000 0.000000 0.000000 -0.022809 0.000000 -0.001874
#
#
# Mechanical properties :
#
#
# Convention : Reuss Voigt Hill
#
# Bulk Modulus (GPa) = 49.29738 52.34360 50.82049
# Shear Modulus (GPa) = 72.33380 29.01062 50.67221
#
# Velocity S-wave (km/s) = 5.39556 3.41699 4.51596
# Velocity P-wave (km/s) = 7.65876 6.05263 6.90257
#
# Compressibility (1/GPa) = 0.02028505
#
# Stress axis : x y z
#
# Youngs Moduli (GPa) = 78.87950 105.29554 96.46418
#
# Poissons Ratio (x) = 0.26067 0.27098
# Poissons Ratio (y) = 0.19527 0.08135
# Poissons Ratio (z) = 0.22159 0.08880
#
# Static dielectric constant tensor:
#      x y z
#    x 2.152460 0.000000 0.204760 
#    y 0.000000 2.087140 0.000000 
#    z 0.204760 0.000000 2.103010 
# 
# From -- ./inp_files/128986.got.cif
#   From: 2010.05.17/outbox.cif.g08.bks.cpg/sg15_65_cif.got.tgz:128986.got - 2010.06.03 18:47:42.
