data_PCOD9306270
_publ_section_title
;
Structure prediction by ZEFSAII (Michael W. Deem and Ramdas Pophale) SiO2 
 PCOD9306270
Probable space group: C 2/C
;
_chemical_formula_sum "Si O2"
_cell_formula_units_Z 24
_cell_length_a 13.146186
_cell_length_b 8.327504
_cell_length_c 9.038540
_cell_angle_alpha 90.000000
_cell_angle_beta 111.301790
_cell_angle_gamma 90.000000
_cell_volume 921.891102
_symmetry_space_group_name_H-M "C 2/C"
_symmetry_group_IT_number 15
_symmetry_cell_setting 'monoclinic'
loop_
_space_group_symop_operation_xyz
x,y,z
-x,y,1/2-z
-x,-y,-z
x,-y,1/2+z
1/2+x,1/2+y,z
1/2-x,1/2+y,1/2-z
1/2-x,1/2-y,-z
1/2+x,1/2-y,1/2+z
loop_
_atom_site_type_symbol
_atom_site_label
_atom_site_fract_x
_atom_site_fract_y
_atom_site_fract_z
Si Si1 0.916265 0.451509 0.084834
Si Si2 0.914339 0.040462 0.329968
Si Si3 0.198315 0.299023 0.748096
O O1 0.855102 0.589016 0.150889
O O2 0.000000 0.382171 0.250000
O O3 0.833642 0.349569 0.938541
O O4 0.000000 0.500000 0.000000
O O5 0.842156 0.882379 0.254955
O O6 0.000000 0.072629 0.250000
O O7 0.827862 0.176941 0.325923
O O8 0.000000 0.000000 0.500000
#
# Coordination Sequence:
#
# PCOD9306270 Si02
#       3
#     8   8   8
#     4   9  19  38  70 104 140 189 241 292 358 428
#     4  12  29  50  75 110 150 193 248 306 366 438
#     4  11  25  46  72 106 150 194 242 304 365 434
#
# _framework density 26.033446000000001
#
# number of rings (size 3 to 8) (size 9 to 14) (size 15 to 20)
#    0.000    1.333    0.000    5.000    0.000   20.000 
#    0.000    1.667    0.000    0.000    0.000    0.000 
#    0.000    0.000    0.000    0.000    0.000    0.000 
#
# Total GULP energy -67119.931383 kJ/mol
# GULP energy per Si atom -5593.327615 kJ/mol
# Density = 2.597419 g / cm^3
# Si number density = 26.033446 Si / 1000 Ang^3
#
#
#
# Elastic Constant Matrix: (Units=GPa)
#
#
# Indices 1 2 3 4 5 6 
#
# 1 250.2214 90.3679 62.9164 0.0000 -13.3948 0.0000
# 2 90.3679 136.0865 22.7854 0.0000 -18.3496 0.0000
# 3 62.9164 22.7854 187.8361 0.0000 -15.7738 0.0000
# 4 0.0000 0.0000 0.0000 5.4069 0.0000 14.0731
# 5 -13.3948 -18.3496 -15.7738 0.0000 58.0321 0.0000
# 6 0.0000 0.0000 0.0000 14.0731 0.0000 31.7943
#
#
#
# Elastic Compliance Matrix: (Units=1/GPa)
#
#
# Indices 1 2 3 4 5 6 
#
# 1 0.005627 -0.003518 -0.001476 0.000000 -0.000215 0.000000
# 2 -0.003518 0.009978 0.000169 0.000000 0.002389 0.000000
# 3 -0.001476 0.000169 0.005908 0.000000 0.001319 0.000000
# 4 0.000000 0.000000 0.000000 -1.216210 0.000000 0.538331
# 5 -0.000215 0.002389 0.001319 0.000000 0.018296 0.000000
# 6 0.000000 0.000000 0.000000 0.538331 0.000000 -0.206829
#
#
# Mechanical properties :
#
#
# Convention : Reuss Voigt Hill
#
# Bulk Modulus (GPa) = 84.29971 102.92040 93.61006
# Shear Modulus (GPa) = -3.65064 45.58494 20.96715
#
# Velocity S-wave (km/s) = -1.18547 4.18905 2.84102
# Velocity P-wave (km/s) = 5.52972 7.93834 6.84087
#
# Compressibility (1/GPa) = 0.01186244
#
# Stress axis : x y z
#
# Youngs Moduli (GPa) = 177.72430 100.21619 169.24939
#
# Poissons Ratio (x) = 0.35259 0.24980
# Poissons Ratio (y) = 0.62528 -0.02854
# Poissons Ratio (z) = 0.26231 -0.01690
#
# Static dielectric constant tensor:
#      x y z
#    x 2.007600 0.000000 0.054860 
#    y 0.000000 2.136700 0.000000 
#    z 0.054860 0.000000 2.086800 
# 
# From -- ./inp_files/36139.got.cif
#   From: 2010.05.17/outbox.cif.g08.bks.cpg/sg15_19_cif.got.tgz:36139.got - 2010.06.03 18:47:42.
