data_PCOD9306860
_publ_section_title
;
Structure prediction by ZEFSAII (Michael W. Deem and Ramdas Pophale) SiO2 
 PCOD9306860
Probable space group: C 2/C
;
_chemical_formula_sum "Si O2"
_cell_formula_units_Z 44
_cell_length_a 7.957840
_cell_length_b 21.859248
_cell_length_c 14.996581
_cell_angle_alpha 90.000000
_cell_angle_beta 139.514600
_cell_angle_gamma 90.000000
_cell_volume 1693.703898
_symmetry_space_group_name_H-M "C 2/C"
_symmetry_group_IT_number 15
_symmetry_cell_setting 'monoclinic'
loop_
_space_group_symop_operation_xyz
x,y,z
-x,y,1/2-z
-x,-y,-z
x,-y,1/2+z
1/2+x,1/2+y,z
1/2-x,1/2+y,1/2-z
1/2-x,1/2-y,-z
1/2+x,1/2-y,1/2+z
loop_
_atom_site_type_symbol
_atom_site_label
_atom_site_fract_x
_atom_site_fract_y
_atom_site_fract_z
Si Si1 0.580669 0.476678 0.935736
Si Si2 0.996300 0.219681 0.000235
Si Si3 0.855723 0.145913 0.285156
Si Si4 0.500000 0.846754 0.250000
Si Si5 0.659423 0.850538 0.002726
Si Si6 0.832255 0.557945 0.832681
O O1 0.510589 0.405622 0.900214
O O2 0.890152 0.477050 0.045132
O O3 0.388969 0.511567 0.790321
O O4 0.500000 0.500000 0.000000
O O5 0.642186 0.295743 0.650667
O O6 0.703749 0.196774 0.882094
O O7 0.123540 0.179262 0.972084
O O8 0.030072 0.290902 0.995471
O O9 0.000000 0.154240 0.250000
O O10 0.565910 0.123604 0.151046
O O11 0.626970 0.892317 0.229373
O O12 0.724772 0.900953 0.102595
#
# Coordination Sequence:
#
# PCOD9306860 Si02
#       6
#     8   8   8   4   8   8
#     4  12  25  51  79 116 160 219 277 345 409 488
#     4  11  27  50  82 116 165 214 262 347 425 506
#     4  12  25  51  80 112 156 208 275 331 417 492
#     4  12  24  48  80 118 154 210 272 326 420 496
#     4  11  28  51  78 121 162 212 274 341 421 504
#     4  12  26  50  82 118 164 216 282 337 411 493
#
# _framework density 25.978567000000002
#
# number of rings (size 3 to 8) (size 9 to 14) (size 15 to 20)
#    0.000    0.364    5.455    0.545    3.818    7.273 
#    6.545    1.818    0.000    0.000    0.000    0.000 
#    0.000    0.000    0.000    0.000    0.000    0.000 
#
# Total GULP energy -123494.487609 kJ/mol
# GULP energy per Si atom -5613.385800 kJ/mol
# Density = 2.591944 g / cm^3
# Si number density = 25.978567 Si / 1000 Ang^3
#
#
#
# Elastic Constant Matrix: (Units=GPa)
#
#
# Indices 1 2 3 4 5 6 
#
# 1 80.5198 49.5989 24.6497 0.0000 0.7800 0.0000
# 2 49.5989 114.2707 46.6567 0.0000 7.3962 0.0000
# 3 24.6497 46.6567 135.7155 0.0000 21.2488 0.0000
# 4 0.0000 0.0000 0.0000 49.0524 0.0000 1.3551
# 5 0.7800 7.3962 21.2488 0.0000 48.0522 0.0000
# 6 0.0000 0.0000 0.0000 1.3551 0.0000 43.1779
#
#
#
# Elastic Compliance Matrix: (Units=1/GPa)
#
#
# Indices 1 2 3 4 5 6 
#
# 1 0.017062 -0.007144 -0.000829 0.000000 0.001189 0.000000
# 2 -0.007144 0.013172 -0.003149 0.000000 -0.000519 0.000000
# 3 -0.000829 -0.003149 0.009158 0.000000 -0.003551 0.000000
# 4 0.000000 0.000000 0.000000 0.020404 0.000000 -0.000640
# 5 0.001189 -0.000519 -0.003551 0.000000 0.022442 0.000000
# 6 0.000000 0.000000 0.000000 -0.000640 0.000000 0.023180
#
#
# Mechanical properties :
#
#
# Convention : Reuss Voigt Hill
#
# Bulk Modulus (GPa) = 58.32243 63.59073 60.95658
# Shear Modulus (GPa) = 37.48733 42.02988 39.75860
#
# Velocity S-wave (km/s) = 3.80282 4.02664 3.91633
# Velocity P-wave (km/s) = 6.46381 6.79336 6.63063
#
# Compressibility (1/GPa) = 0.01714606
#
# Stress axis : x y z
#
# Youngs Moduli (GPa) = 58.60837 75.92099 109.19821
#
# Poissons Ratio (x) = 0.54241 0.09054
# Poissons Ratio (y) = 0.41872 0.34390
# Poissons Ratio (z) = 0.04859 0.23910
#
# Static dielectric constant tensor:
#      x y z
#    x 2.070350 -0.000010 0.013400 
#    y -0.000010 -3.973220 -0.000010 
#    z 0.013400 -0.000010 2.028780 
# 
# From -- ./inp_files/137581.got.cif
#   From: 2010.05.17/outbox.cif.g08.bks.cpg/sg15_69_cif.got.tgz:137581.got - 2010.06.03 18:47:42.
