data_PCOD9306305
_publ_section_title
;
Structure prediction by ZEFSAII (Michael W. Deem and Ramdas Pophale) SiO2 
 PCOD9306305
Probable space group: C 2/C
;
_chemical_formula_sum "Si O2"
_cell_formula_units_Z 36
_cell_length_a 9.572411
_cell_length_b 15.470090
_cell_length_c 13.016260
_cell_angle_alpha 90.000000
_cell_angle_beta 133.357083
_cell_angle_gamma 90.000000
_cell_volume 1401.483669
_symmetry_space_group_name_H-M "C 2/C"
_symmetry_group_IT_number 15
_symmetry_cell_setting 'monoclinic'
loop_
_space_group_symop_operation_xyz
x,y,z
-x,y,1/2-z
-x,-y,-z
x,-y,1/2+z
1/2+x,1/2+y,z
1/2-x,1/2+y,1/2-z
1/2-x,1/2-y,-z
1/2+x,1/2-y,1/2+z
loop_
_atom_site_type_symbol
_atom_site_label
_atom_site_fract_x
_atom_site_fract_y
_atom_site_fract_z
Si Si1 0.445497 0.595925 0.610600
Si Si2 0.000000 0.734423 0.250000
Si Si3 0.280695 0.654441 0.913008
Si Si4 0.821639 0.825026 0.764061
Si Si5 0.670144 0.957663 0.523019
O O1 0.500000 0.561688 0.750000
O O2 0.413862 0.697245 0.621968
O O3 0.623651 0.591611 0.623987
O O4 0.268147 0.533392 0.503622
O O5 0.836714 0.680731 0.224974
O O6 0.212545 0.739148 0.820120
O O7 0.128098 0.613819 0.914280
O O8 0.470569 0.673278 0.078406
O O9 0.783654 0.904684 0.669095
O O10 0.500000 0.000000 0.500000
#
# Coordination Sequence:
#
# PCOD9306305 Si02
#       5
#     8   4   8   8   8
#     4   9  21  46  71  99 139 191 248 299 368 427
#     4   8  22  42  74  98 140 192 242 298 362 434
#     4  11  25  49  76 105 150 201 246 308 367 446
#     4  11  25  46  76 109 149 194 256 299 377 440
#     4  12  27  43  70 110 150 189 249 306 375 437
#
# _framework density 25.687063999999999
#
# number of rings (size 3 to 8) (size 9 to 14) (size 15 to 20)
#    0.667    0.889    0.000    3.333    6.222    1.778 
#    0.000    2.222    0.000    0.000    0.000    0.000 
#    0.000    0.000    0.000    0.000    0.000    0.000 
#
# Total GULP energy -100618.061401 kJ/mol
# GULP energy per Si atom -5589.892300 kJ/mol
# Density = 2.562860 g / cm^3
# Si number density = 25.687064 Si / 1000 Ang^3
#
#
#
# Elastic Constant Matrix: (Units=GPa)
#
#
# Indices 1 2 3 4 5 6 
#
# 1 205.1308 71.3396 21.7767 0.0000 -31.0060 0.0000
# 2 71.3396 95.3012 36.5371 0.0000 -0.1490 0.0000
# 3 21.7767 36.5371 94.5856 0.0000 -18.5737 0.0000
# 4 0.0000 0.0000 0.0000 -9.4731 0.0000 -6.5355
# 5 -31.0060 -0.1490 -18.5737 0.0000 34.0111 0.0000
# 6 0.0000 0.0000 0.0000 -6.5355 0.0000 52.1906
#
#
#
# Elastic Compliance Matrix: (Units=1/GPa)
#
#
# Indices 1 2 3 4 5 6 
#
# 1 0.008580 -0.007453 0.002725 0.000000 0.009278 0.000000
# 2 -0.007453 0.019043 -0.007794 0.000000 -0.010967 0.000000
# 3 0.002725 -0.007794 0.015051 0.000000 0.010670 0.000000
# 4 0.000000 0.000000 0.000000 -0.097168 0.000000 -0.012168
# 5 0.009278 -0.010967 0.010670 0.000000 0.043639 0.000000
# 6 0.000000 0.000000 0.000000 -0.012168 0.000000 0.017637
#
#
# Mechanical properties :
#
#
# Convention : Reuss Voigt Hill
#
# Bulk Modulus (GPa) = 56.71818 72.70273 64.71046
# Shear Modulus (GPa) = 132.62025 33.03667 82.82846
#
# Velocity S-wave (km/s) = 7.19314 3.59014 5.68465
# Velocity P-wave (km/s) = 9.54551 6.74909 8.26641
#
# Compressibility (1/GPa) = 0.01763103
#
# Stress axis : x y z
#
# Youngs Moduli (GPa) = 116.55097 52.51251 66.44159
#
# Poissons Ratio (x) = 0.39138 -0.18108
# Poissons Ratio (y) = 0.86866 0.51783
# Poissons Ratio (z) = -0.31766 0.40927
#
# Static dielectric constant tensor:
#      x y z
#    x 2.241170 0.000000 0.274380 
#    y 0.000000 2.011890 0.000000 
#    z 0.274380 0.000000 2.377420 
# 
# From -- ./inp_files/134041.got.cif
#   From: 2010.05.17/outbox.cif.g08.bks.cpg/sg15_68_cif.got.tgz:134041.got - 2010.06.03 18:47:42.
