data_PCOD9306918
_publ_section_title
;
Structure prediction by ZEFSAII (Michael W. Deem and Ramdas Pophale) SiO2 
 PCOD9306918
Probable space group: C 2/C
;
_chemical_formula_sum "Si O2"
_cell_formula_units_Z 40
_cell_length_a 12.735317
_cell_length_b 13.983631
_cell_length_c 14.016910
_cell_angle_alpha 90.000000
_cell_angle_beta 141.275090
_cell_angle_gamma 90.000000
_cell_volume 1561.586959
_symmetry_space_group_name_H-M "C 2/C"
_symmetry_group_IT_number 15
_symmetry_cell_setting 'monoclinic'
loop_
_space_group_symop_operation_xyz
x,y,z
-x,y,1/2-z
-x,-y,-z
x,-y,1/2+z
1/2+x,1/2+y,z
1/2-x,1/2+y,1/2-z
1/2-x,1/2-y,-z
1/2+x,1/2-y,1/2+z
loop_
_atom_site_type_symbol
_atom_site_label
_atom_site_fract_x
_atom_site_fract_y
_atom_site_fract_z
Si Si1 0.354910 0.989404 0.018117
Si Si2 0.807751 0.150999 0.583869
Si Si3 0.309339 0.645571 0.946390
Si Si4 0.821899 0.835657 0.740341
Si Si5 0.763126 0.459075 0.659424
O O1 0.263151 0.925679 0.870984
O O2 0.311892 0.097215 0.929233
O O3 0.674692 0.899329 0.422798
O O4 0.548554 0.015516 0.178669
O O5 0.750000 0.250000 0.500000
O O6 0.763335 0.064412 0.474775
O O7 0.000000 0.152609 0.750000
O O8 0.254156 0.737831 0.850501
O O9 0.343186 0.554811 0.900751
O O10 0.477724 0.664814 0.124771
O O11 0.786881 0.860372 0.826566
#
# Coordination Sequence:
#
# PCOD9306918 Si02
#       5
#     8   8   8   8   8
#     4   8  20  37  54  82 112 143 191 220 271 338
#     4   9  18  35  53  75 109 146 181 223 269 324
#     4   9  22  34  58  84 111 143 189 224 280 321
#     4  12  18  39  60  84 110 147 183 237 269 329
#     4   8  22  35  55  84 109 148 187 220 273 340
#
# _framework density 25.614968000000001
#
# number of rings (size 3 to 8) (size 9 to 14) (size 15 to 20)
#    2.400    0.000    0.000    4.200    0.000    3.200 
#    0.000    5.000    0.000    0.000    0.000    0.000 
#    0.000    0.000    0.000    0.000    0.000    0.000 
#
# Total GULP energy -111374.469220 kJ/mol
# GULP energy per Si atom -5568.723461 kJ/mol
# Density = 2.555667 g / cm^3
# Si number density = 25.614968 Si / 1000 Ang^3
#
#
#
# Elastic Constant Matrix: (Units=GPa)
#
#
# Indices 1 2 3 4 5 6 
#
# 1 21.3164 10.6938 26.1554 -0.0001 1.8473 0.0000
# 2 10.6938 234.8871 84.2457 -0.0001 7.8427 -0.0001
# 3 26.1554 84.2457 214.5321 -0.0003 26.0214 -0.0002
# 4 -0.0001 -0.0001 -0.0003 49.9979 -0.0001 -19.5031
# 5 1.8473 7.8427 26.0214 -0.0001 34.9475 -0.0001
# 6 0.0000 -0.0001 -0.0002 -19.5031 -0.0001 29.1608
#
#
#
# Elastic Compliance Matrix: (Units=1/GPa)
#
#
# Indices 1 2 3 4 5 6 
#
# 1 0.055335 -0.000089 -0.006990 0.000000 0.002300 0.000000
# 2 -0.000089 0.004960 -0.001981 0.000000 0.000367 0.000000
# 3 -0.006990 -0.001981 0.006808 0.000000 -0.004255 0.000000
# 4 0.000000 0.000000 0.000000 0.027061 0.000000 0.018098
# 5 0.002300 0.000367 -0.004255 0.000000 0.031578 0.000000
# 6 0.000000 0.000000 0.000000 0.018098 0.000000 0.046397
#
#
# Mechanical properties :
#
#
# Convention : Reuss Voigt Hill
#
# Bulk Modulus (GPa) = 20.41605 79.21395 49.81500
# Shear Modulus (GPa) = 24.20291 46.13062 35.16676
#
# Velocity S-wave (km/s) = 3.07721 4.24833 3.70928
# Velocity P-wave (km/s) = 4.54019 7.42000 6.15101
#
# Compressibility (1/GPa) = 0.04898107
#
# Stress axis : x y z
#
# Youngs Moduli (GPa) = 18.07181 201.62091 146.89208
#
# Poissons Ratio (x) = 0.01791 1.02684
# Poissons Ratio (y) = 0.00161 0.29105
# Poissons Ratio (z) = 0.12633 0.39949
#
# Static dielectric constant tensor:
#      x y z
#    x 2.432650 0.000000 -0.196120 
#    y 0.000000 1.989090 0.000000 
#    z -0.196120 0.000000 2.044630 
# 
# From -- ./inp_files/253074.got.cif
#   From: 2010.05.17/outbox.cif.g08.bks.cpg/sg15_127_cif.got.tgz:253074.got - 2010.06.03 18:47:42.
