data_PCOD9306362
_publ_section_title
;
Structure prediction by ZEFSAII (Michael W. Deem and Ramdas Pophale) SiO2 
 PCOD9306362
Probable space group: C 2/C
;
_chemical_formula_sum "Si O2"
_cell_formula_units_Z 40
_cell_length_a 15.884854
_cell_length_b 14.442817
_cell_length_c 6.609799
_cell_angle_alpha 90.000000
_cell_angle_beta 103.660993
_cell_angle_gamma 90.000000
_cell_volume 1473.533865
_symmetry_space_group_name_H-M "C 2/C"
_symmetry_group_IT_number 15
_symmetry_cell_setting 'monoclinic'
loop_
_space_group_symop_operation_xyz
x,y,z
-x,y,1/2-z
-x,-y,-z
x,-y,1/2+z
1/2+x,1/2+y,z
1/2-x,1/2+y,1/2-z
1/2-x,1/2-y,-z
1/2+x,1/2-y,1/2+z
loop_
_atom_site_type_symbol
_atom_site_label
_atom_site_fract_x
_atom_site_fract_y
_atom_site_fract_z
Si Si1 0.701947 0.800226 0.656556
Si Si2 0.415341 0.267660 0.081478
Si Si3 0.592672 0.519353 0.864015
Si Si4 0.770089 0.993264 0.811309
Si Si5 0.095351 0.387617 0.272369
O O1 0.750000 0.750000 0.500000
O O2 0.667151 0.739340 0.817232
O O3 0.619743 0.846113 0.502915
O O4 0.759031 0.882091 0.775549
O O5 0.500000 0.235171 0.250000
O O6 0.426943 0.377116 0.063903
O O7 0.405518 0.198723 0.885932
O O8 0.500000 0.473469 0.750000
O O9 0.619643 0.530165 0.616336
O O10 0.676298 0.046043 0.765369
O O11 0.793990 0.009778 0.576261
O O12 0.000000 0.430637 0.250000
#
# Coordination Sequence:
#
# PCOD9306362 Si02
#       5
#     8   8   8   8   8
#     4  12  26  47  76 110 157 202 256 314 387 459
#     4  11  25  48  76 109 151 201 259 312 379 459
#     4  11  25  47  74 107 148 195 253 319 379 449
#     4  12  25  47  72 113 151 197 253 316 385 457
#     4  12  26  48  78 116 157 202 254 316 388 458
#
# _framework density 27.145627999999999
#
# number of rings (size 3 to 8) (size 9 to 14) (size 15 to 20)
#    0.000    0.400    4.000    4.200    0.000    4.000 
#    0.000    0.000    0.000    0.000    0.000    0.000 
#    0.000    0.000    0.000    0.000    0.000    0.000 
#
# Total GULP energy -111773.154416 kJ/mol
# GULP energy per Si atom -5588.657721 kJ/mol
# Density = 2.708384 g / cm^3
# Si number density = 27.145628 Si / 1000 Ang^3
#
#
#
# Elastic Constant Matrix: (Units=GPa)
#
#
# Indices 1 2 3 4 5 6 
#
# 1 233.5124 42.9353 105.0885 0.0000 -3.7716 0.0000
# 2 42.9353 118.8886 68.3016 0.0000 -4.5284 0.0000
# 3 105.0885 68.3016 226.9738 0.0000 16.9136 0.0000
# 4 0.0000 0.0000 0.0000 64.2802 0.0000 -8.9830
# 5 -3.7716 -4.5284 16.9136 0.0000 87.5151 0.0000
# 6 0.0000 0.0000 0.0000 -8.9830 0.0000 39.8312
#
#
#
# Elastic Compliance Matrix: (Units=1/GPa)
#
#
# Indices 1 2 3 4 5 6 
#
# 1 0.005487 -0.000565 -0.002421 0.000000 0.000675 0.000000
# 2 -0.000565 0.010340 -0.002930 0.000000 0.001077 0.000000
# 3 -0.002421 -0.002930 0.006521 0.000000 -0.001516 0.000000
# 4 0.000000 0.000000 0.000000 0.016063 0.000000 0.003623
# 5 0.000675 0.001077 -0.001516 0.000000 0.011804 0.000000
# 6 0.000000 0.000000 0.000000 0.003623 0.000000 0.025923
#
#
# Mechanical properties :
#
#
# Convention : Reuss Voigt Hill
#
# Bulk Modulus (GPa) = 95.09259 112.44727 103.76993
# Shear Modulus (GPa) = 54.65999 62.52861 58.59430
#
# Velocity S-wave (km/s) = 4.49217 4.80463 4.65102
# Velocity P-wave (km/s) = 7.87481 8.50253 8.19468
#
# Compressibility (1/GPa) = 0.01051607
#
# Stress axis : x y z
#
# Youngs Moduli (GPa) = 182.26406 96.71505 153.34622
#
# Poissons Ratio (x) = 0.05465 0.37118
# Poissons Ratio (y) = 0.10300 0.44931
# Poissons Ratio (z) = 0.44117 0.28338
#
# Static dielectric constant tensor:
#      x y z
#    x 2.311080 0.000000 -0.010190 
#    y 0.000000 1.993070 0.000000 
#    z -0.010190 0.000000 2.244290 
# 
# From -- ./inp_files/9856.got.cif
#   From: 2010.05.17/outbox.cif.g08.bks.cpg/sg15_5_cif.got.tgz:9856.got - 2010.06.03 18:47:42.
