data_PCOD9306903
_publ_section_title
;
Structure prediction by ZEFSAII (Michael W. Deem and Ramdas Pophale) SiO2 
 PCOD9306903
Probable space group: C 2/C
;
_chemical_formula_sum "Si O2"
_cell_formula_units_Z 28
_cell_length_a 19.116211
_cell_length_b 5.010144
_cell_length_c 17.565455
_cell_angle_alpha 90.000000
_cell_angle_beta 138.437168
_cell_angle_gamma 90.000000
_cell_volume 1116.127265
_symmetry_space_group_name_H-M "C 2/C"
_symmetry_group_IT_number 15
_symmetry_cell_setting 'monoclinic'
loop_
_space_group_symop_operation_xyz
x,y,z
-x,y,1/2-z
-x,-y,-z
x,-y,1/2+z
1/2+x,1/2+y,z
1/2-x,1/2+y,1/2-z
1/2-x,1/2-y,-z
1/2+x,1/2-y,1/2+z
loop_
_atom_site_type_symbol
_atom_site_label
_atom_site_fract_x
_atom_site_fract_y
_atom_site_fract_z
Si Si1 0.675007 0.000976 0.940381
Si Si2 0.178466 0.896261 0.173595
Si Si3 0.047065 0.148188 0.931066
Si Si4 0.500000 0.727750 0.250000
O O1 0.597002 0.930534 0.946547
O O2 0.595464 0.072760 0.807613
O O3 0.750000 0.750000 0.000000
O O4 0.750000 0.250000 0.000000
O O5 0.246912 0.135378 0.267752
O O6 0.132004 0.012562 0.056688
O O7 0.069226 0.829095 0.128317
O O8 0.033652 0.965104 0.845417
#
# Coordination Sequence:
#
# PCOD9306903 Si02
#       4
#     8   8   8   4
#     4  12  28  47  77 116 159 208 259 331 413 477
#     4  11  30  52  83 111 164 222 274 338 407 486
#     4  11  29  52  79 124 159 212 284 333 412 497
#     4  12  28  50  80 120 166 204 270 348 404 496
#
# _framework density 25.086746000000002
#
# number of rings (size 3 to 8) (size 9 to 14) (size 15 to 20)
#    0.000    0.571    2.857    0.857   16.000    2.286 
#    0.000    0.000    0.000    0.000    0.000    0.000 
#    0.000    0.000    0.000    0.000    0.000    0.000 
#
# Total GULP energy -78345.786414 kJ/mol
# GULP energy per Si atom -5596.127601 kJ/mol
# Density = 2.502965 g / cm^3
# Si number density = 25.086746 Si / 1000 Ang^3
#
#
#
# Elastic Constant Matrix: (Units=GPa)
#
#
# Indices 1 2 3 4 5 6 
#
# 1 118.4375 63.0956 63.2495 -0.0014 23.0987 -0.0010
# 2 63.0956 199.0144 64.2643 -0.0024 26.5284 -0.0010
# 3 63.2495 64.2643 176.0432 -0.0021 27.4474 -0.0007
# 4 -0.0014 -0.0024 -0.0021 47.1882 -0.0008 17.6965
# 5 23.0987 26.5284 27.4474 -0.0008 55.5965 -0.0005
# 6 -0.0010 -0.0010 -0.0007 17.6965 -0.0005 52.2635
#
#
#
# Elastic Compliance Matrix: (Units=1/GPa)
#
#
# Indices 1 2 3 4 5 6 
#
# 1 0.011794 -0.002476 -0.002983 0.000000 -0.002245 0.000000
# 2 -0.002476 0.006394 -0.001223 0.000000 -0.001418 0.000000
# 3 -0.002983 -0.001223 0.007491 0.000000 -0.001875 0.000000
# 4 0.000000 0.000000 0.000000 0.024274 0.000000 -0.008219
# 5 -0.002245 -0.001418 -0.001875 0.000000 0.020522 0.000000
# 6 0.000000 0.000000 0.000000 -0.008219 0.000000 0.021917
#
#
# Mechanical properties :
#
#
# Convention : Reuss Voigt Hill
#
# Bulk Modulus (GPa) = 81.21481 97.19044 89.20263
# Shear Modulus (GPa) = 45.51176 51.20200 48.35688
#
# Velocity S-wave (km/s) = 4.26393 4.52264 4.39519
# Velocity P-wave (km/s) = 7.52897 8.13008 7.83529
#
# Compressibility (1/GPa) = 0.01231302
#
# Stress axis : x y z
#
# Youngs Moduli (GPa) = 84.79201 156.39838 133.49126
#
# Poissons Ratio (x) = 0.38731 0.39822
# Poissons Ratio (y) = 0.20998 0.16329
# Poissons Ratio (z) = 0.25295 0.19131
#
# Static dielectric constant tensor:
#      x y z
#    x 2.066150 0.000000 0.046760 
#    y 0.000000 2.020850 0.000000 
#    z 0.046760 0.000000 1.998820 
# 
# From -- ./inp_files/212797.got.cif
#   From: 2010.05.17/outbox.cif.g08.bks.cpg/sg15_107_cif.got.tgz:212797.got - 2010.06.03 18:47:42.
