data_PCOD9306034
_publ_section_title
;
Structure prediction by ZEFSAII (Michael W. Deem and Ramdas Pophale) SiO2 
 PCOD9306034
Probable space group: C 2/C
;
_chemical_formula_sum "Si O2"
_cell_formula_units_Z 44
_cell_length_a 25.155964
_cell_length_b 5.471670
_cell_length_c 13.320165
_cell_angle_alpha 90.000000
_cell_angle_beta 101.624699
_cell_angle_gamma 90.000000
_cell_volume 1795.848920
_symmetry_space_group_name_H-M "C 2/C"
_symmetry_group_IT_number 15
_symmetry_cell_setting 'monoclinic'
loop_
_space_group_symop_operation_xyz
x,y,z
-x,y,1/2-z
-x,-y,-z
x,-y,1/2+z
1/2+x,1/2+y,z
1/2-x,1/2+y,1/2-z
1/2-x,1/2-y,-z
1/2+x,1/2-y,1/2+z
loop_
_atom_site_type_symbol
_atom_site_label
_atom_site_fract_x
_atom_site_fract_y
_atom_site_fract_z
Si Si1 0.000000 0.754888 0.250000
Si Si2 0.822085 0.319685 0.217742
Si Si3 0.369707 0.160695 0.947177
Si Si4 0.471829 0.586347 0.390422
Si Si5 0.797643 0.818491 0.095722
Si Si6 0.424600 0.873883 0.123378
O O1 0.959288 0.615768 0.159650
O O2 0.956332 0.873433 0.309656
O O3 0.825709 0.331750 0.340323
O O4 0.800633 0.581645 0.169573
O O5 0.882757 0.315793 0.194643
O O6 0.795563 0.074716 0.156879
O O7 0.422892 0.254138 0.910699
O O8 0.348923 0.313198 0.036648
O O9 0.389485 0.908930 0.008376
O O10 0.500000 0.500000 0.500000
O O11 0.525057 0.693113 0.356760
O O12 0.750000 0.750000 0.000000
#
# Coordination Sequence:
#
# PCOD9306034 Si02
#       6
#     4   8   8   8   8   8
#     4  12  24  40  62  94 150 196 228 290 336 416
#     4  11  26  45  76 103 141 183 228 293 360 420
#     4  11  25  43  70 103 138 189 235 291 351 421
#     4  12  24  39  66  95 142 189 238 279 345 411
#     4  11  27  51  74 105 138 175 235 299 360 432
#     4  11  25  43  61 104 144 186 239 289 340 418
#
# _framework density 24.500947
#
# number of rings (size 3 to 8) (size 9 to 14) (size 15 to 20)
#    0.000    0.727    1.818    4.909   10.182    4.364 
#    0.000    0.000    0.000    0.000    0.000    0.000 
#    0.000    0.000    0.000    0.000    0.000    0.000 
#
# Total GULP energy -122681.107400 kJ/mol
# GULP energy per Si atom -5576.413973 kJ/mol
# Density = 2.444518 g / cm^3
# Si number density = 24.500947 Si / 1000 Ang^3
#
#
#
# Elastic Constant Matrix: (Units=GPa)
#
#
# Indices 1 2 3 4 5 6 
#
# 1 58.9175 -6.2843 -4.8455 0.0000 8.1062 0.0000
# 2 -6.2843 79.2855 50.5685 0.0000 6.7768 0.0000
# 3 -4.8455 50.5685 190.1867 0.0000 3.4899 0.0000
# 4 0.0000 0.0000 0.0000 13.3865 0.0000 -6.1106
# 5 8.1062 6.7768 3.4899 0.0000 25.4345 0.0000
# 6 0.0000 0.0000 0.0000 -6.1106 0.0000 14.3336
#
#
#
# Elastic Compliance Matrix: (Units=1/GPa)
#
#
# Indices 1 2 3 4 5 6 
#
# 1 0.018047 0.001927 0.000063 0.000000 -0.006274 0.000000
# 2 0.001927 0.015712 -0.004051 0.000000 -0.004245 0.000000
# 3 0.000063 -0.004051 0.006333 0.000000 0.000190 0.000000
# 4 0.000000 0.000000 0.000000 0.092751 0.000000 0.039541
# 5 -0.006274 -0.004245 0.000190 0.000000 0.042421 0.000000
# 6 0.000000 0.000000 0.000000 0.039541 0.000000 0.086623
#
#
# Mechanical properties :
#
#
# Convention : Reuss Voigt Hill
#
# Bulk Modulus (GPa) = 27.80180 45.25190 36.52685
# Shear Modulus (GPa) = 17.98571 29.89434 23.94002
#
# Velocity S-wave (km/s) = 2.71233 3.49683 3.12926
# Velocity P-wave (km/s) = 4.60227 5.90028 5.29123
#
# Compressibility (1/GPa) = 0.03596889
#
# Stress axis : x y z
#
# Youngs Moduli (GPa) = 55.41179 63.64724 157.90079
#
# Poissons Ratio (x) = -0.12263 -0.00989
# Poissons Ratio (y) = -0.10676 0.63959
# Poissons Ratio (z) = -0.00347 0.25781
#
# Static dielectric constant tensor:
#      x y z
#    x 1.808490 0.000000 0.052040 
#    y 0.000000 2.164120 0.000000 
#    z 0.052040 0.000000 1.968310 
# 
# From -- ./inp_files/175518.got.cif
#   From: 2010.05.17/outbox.cif.g08.bks.cpg/sg15_88_cif.got.tgz:175518.got - 2010.06.03 18:47:42.
