data_PCOD9306907
_publ_section_title
;
Structure prediction by ZEFSAII (Michael W. Deem and Ramdas Pophale) SiO2 
 PCOD9306907
Probable space group: C 2/C
;
_chemical_formula_sum "Si O2"
_cell_formula_units_Z 36
_cell_length_a 15.622943
_cell_length_b 8.574223
_cell_length_c 11.305868
_cell_angle_alpha 90.000000
_cell_angle_beta 74.786219
_cell_angle_gamma 90.000000
_cell_volume 1461.395870
_symmetry_space_group_name_H-M "C 2/C"
_symmetry_group_IT_number 15
_symmetry_cell_setting 'monoclinic'
loop_
_space_group_symop_operation_xyz
x,y,z
-x,y,1/2-z
-x,-y,-z
x,-y,1/2+z
1/2+x,1/2+y,z
1/2-x,1/2+y,1/2-z
1/2-x,1/2-y,-z
1/2+x,1/2-y,1/2+z
loop_
_atom_site_type_symbol
_atom_site_label
_atom_site_fract_x
_atom_site_fract_y
_atom_site_fract_z
Si Si1 0.374913 0.983794 0.401858
Si Si2 0.094928 0.798515 0.780439
Si Si3 0.500000 0.759475 0.750000
Si Si4 0.960773 0.208884 0.515380
Si Si5 0.797694 0.085385 0.445851
O O1 0.376555 0.869075 0.285717
O O2 0.423182 0.879101 0.486638
O O3 0.277961 0.029694 0.484191
O O4 0.430064 0.130214 0.340777
O O5 0.172511 0.908637 0.701761
O O6 0.000000 0.830013 0.750000
O O7 0.059802 0.795992 0.925625
O O8 0.457516 0.673597 0.654873
O O9 0.890310 0.091970 0.480882
O O10 0.750000 0.250000 0.500000
#
# Coordination Sequence:
#
# PCOD9306907 Si02
#       5
#     8   8   4   8   8
#     4   9  15  25  40  60  87 117 149 177 212 257
#     4   7  11  23  38  55  75 106 147 178 198 237
#     4  12  18  22  40  74 100 112 120 186 246 264
#     4   9  16  25  38  63  91 114 145 175 223 266
#     4   7  13  26  42  54  80 120 157 178 195 254
#
# _framework density 24.633980999999999
#
# number of rings (size 3 to 8) (size 9 to 14) (size 15 to 20)
#    0.000    4.444    3.333    0.667    0.000    0.000 
#    0.000    0.000    0.000   12.000    0.000    0.000 
#    0.000  156.444    0.000    2.000    0.000    0.000 
#
# Total GULP energy -100291.371902 kJ/mol
# GULP energy per Si atom -5571.742883 kJ/mol
# Density = 2.457791 g / cm^3
# Si number density = 24.633981 Si / 1000 Ang^3
#
#
#
# Elastic Constant Matrix: (Units=GPa)
#
#
# Indices 1 2 3 4 5 6 
#
# 1 64.0247 17.7079 71.8531 0.0000 -40.4306 0.0000
# 2 17.7079 30.5810 21.2335 0.0000 -7.1395 0.0000
# 3 71.8531 21.2335 170.1178 0.0000 -24.3501 0.0000
# 4 0.0000 0.0000 0.0000 14.4591 0.0000 -13.6773
# 5 -40.4306 -7.1395 -24.3501 0.0000 60.4899 0.0000
# 6 0.0000 0.0000 0.0000 -13.6773 0.0000 -17.4542
#
#
#
# Elastic Compliance Matrix: (Units=1/GPa)
#
#
# Indices 1 2 3 4 5 6 
#
# 1 0.061837 -0.014703 -0.019754 0.000000 0.031644 0.000000
# 2 -0.014703 0.039681 0.000553 0.000000 -0.004921 0.000000
# 3 -0.019754 0.000553 0.013023 0.000000 -0.007896 0.000000
# 4 0.000000 0.000000 0.000000 0.039719 0.000000 -0.031124
# 5 0.031644 -0.004921 -0.007896 0.000000 0.033923 0.000000
# 6 0.000000 0.000000 0.000000 -0.031124 0.000000 -0.032903
#
#
# Mechanical properties :
#
#
# Convention : Reuss Voigt Hill
#
# Bulk Modulus (GPa) = 21.39829 54.03469 37.71649
# Shear Modulus (GPa) = 20.94981 21.76090 21.35535
#
# Velocity S-wave (km/s) = 2.91940 2.97538 2.94752
# Velocity P-wave (km/s) = 4.47987 5.81261 5.18920
#
# Compressibility (1/GPa) = 0.04673271
#
# Stress axis : x y z
#
# Youngs Moduli (GPa) = 16.17142 25.20091 76.78987
#
# Poissons Ratio (x) = 0.37054 1.51689
# Poissons Ratio (y) = 0.23778 -0.04247
# Poissons Ratio (z) = 0.31945 -0.01394
#
# Static dielectric constant tensor:
#      x y z
#    x 2.020240 0.000000 0.022510 
#    y 0.000000 2.090610 0.000000 
#    z 0.022510 0.000000 2.042740 
# 
# From -- ./inp_files/95258.got.cif
#   From: 2010.05.17/outbox.cif.g08.bks.cpg/sg15_48_cif.got.tgz:95258.got - 2010.06.03 18:47:42.
