data_PCOD9306718
_publ_section_title
;
Structure prediction by ZEFSAII (Michael W. Deem and Ramdas Pophale) SiO2 
 PCOD9306718
Probable space group: C 2/C
;
_chemical_formula_sum "Si O2"
_cell_formula_units_Z 40
_cell_length_a 13.715247
_cell_length_b 5.187998
_cell_length_c 23.458077
_cell_angle_alpha 90.000000
_cell_angle_beta 73.435632
_cell_angle_gamma 90.000000
_cell_volume 1599.882117
_symmetry_space_group_name_H-M "C 2/C"
_symmetry_group_IT_number 15
_symmetry_cell_setting 'monoclinic'
loop_
_space_group_symop_operation_xyz
x,y,z
-x,y,1/2-z
-x,-y,-z
x,-y,1/2+z
1/2+x,1/2+y,z
1/2-x,1/2+y,1/2-z
1/2-x,1/2-y,-z
1/2+x,1/2-y,1/2+z
loop_
_atom_site_type_symbol
_atom_site_label
_atom_site_fract_x
_atom_site_fract_y
_atom_site_fract_z
Si Si1 0.628026 0.719224 0.587144
Si Si2 0.809331 0.146330 0.193941
Si Si3 0.094927 0.355599 0.879262
Si Si4 0.315580 0.427497 0.029989
Si Si5 0.885691 0.068676 0.789597
O O1 0.525365 0.882051 0.610059
O O2 0.620275 0.592757 0.525908
O O3 0.622692 0.520634 0.641214
O O4 0.732814 0.880589 0.572523
O O5 0.856098 0.381509 0.150351
O O6 0.689233 0.189711 0.207867
O O7 0.858991 0.883534 0.163711
O O8 0.840680 0.147027 0.255141
O O9 0.123911 0.259246 0.937819
O O10 0.250000 0.250000 0.000000
O O11 0.000000 0.117595 0.750000
#
# Coordination Sequence:
#
# PCOD9306718 Si02
#       5
#     8   8   8   8   8
#     4  11  26  50  78 119 155 218 268 334 409 478
#     4  12  28  51  78 118 157 211 267 336 393 494
#     4  12  27  51  81 114 163 206 272 329 405 481
#     4  11  26  48  81 113 163 210 270 336 396 488
#     4  12  26  53  80 115 164 212 271 334 415 478
#
# _framework density 25.001840999999999
#
# number of rings (size 3 to 8) (size 9 to 14) (size 15 to 20)
#    0.000    0.400    4.000    3.000    5.600    2.400 
#   10.800    0.000    0.000    0.000    0.000    0.000 
#    0.000    0.000    0.000    0.000    0.000    0.000 
#
# Total GULP energy -111997.207034 kJ/mol
# GULP energy per Si atom -5599.860352 kJ/mol
# Density = 2.494494 g / cm^3
# Si number density = 25.001841 Si / 1000 Ang^3
#
#
#
# Elastic Constant Matrix: (Units=GPa)
#
#
# Indices 1 2 3 4 5 6 
#
# 1 97.9019 -3.2805 41.4563 0.0000 -3.6248 0.0001
# 2 -3.2805 78.7795 31.3882 0.0000 -7.9696 0.0000
# 3 41.4563 31.3882 147.1122 0.0001 6.8917 0.0003
# 4 0.0000 0.0000 0.0001 44.5298 0.0000 13.4132
# 5 -3.6248 -7.9696 6.8917 0.0000 52.0224 -0.0001
# 6 0.0001 0.0000 0.0003 13.4132 -0.0001 23.2025
#
#
#
# Elastic Compliance Matrix: (Units=1/GPa)
#
#
# Indices 1 2 3 4 5 6 
#
# 1 0.012024 0.002246 -0.003948 0.000000 0.001705 0.000000
# 2 0.002246 0.014632 -0.003891 0.000000 0.002914 0.000000
# 3 -0.003948 -0.003891 0.008836 0.000000 -0.002042 0.000000
# 4 0.000000 0.000000 0.000000 0.027192 0.000000 -0.015719
# 5 0.001705 0.002914 -0.002042 0.000000 0.020058 0.000000
# 6 0.000000 0.000000 0.000000 -0.015719 0.000000 0.052186
#
#
# Mechanical properties :
#
#
# Convention : Reuss Voigt Hill
#
# Bulk Modulus (GPa) = 41.14103 51.43573 46.28838
# Shear Modulus (GPa) = 32.42192 40.89958 36.66075
#
# Velocity S-wave (km/s) = 3.60499 4.04897 3.83341
# Velocity P-wave (km/s) = 5.81540 6.51738 6.17637
#
# Compressibility (1/GPa) = 0.02430664
#
# Stress axis : x y z
#
# Youngs Moduli (GPa) = 83.16524 68.34152 113.17499
#
# Poissons Ratio (x) = -0.15349 0.44676
# Poissons Ratio (y) = -0.18679 0.44041
# Poissons Ratio (z) = 0.32830 0.26595
#
# Static dielectric constant tensor:
#      x y z
#    x 1.966460 0.000000 0.029110 
#    y 0.000000 1.978820 0.000000 
#    z 0.029110 0.000000 2.141550 
# 
# From -- ./inp_files/271821.got.cif
#   From: 2010.05.17/outbox.cif.g08.bks.cpg/sg15_136_cif.got.tgz:271821.got - 2010.06.03 18:47:42.
