data_PCOD9306465
_publ_section_title
;
Structure prediction by ZEFSAII (Michael W. Deem and Ramdas Pophale) SiO2 
 PCOD9306465
Probable space group: C 2/C
;
_chemical_formula_sum "Si O2"
_cell_formula_units_Z 32
_cell_length_a 11.856857
_cell_length_b 14.594912
_cell_length_c 8.131763
_cell_angle_alpha 90.000000
_cell_angle_beta 72.874642
_cell_angle_gamma 90.000000
_cell_volume 1344.808513
_symmetry_space_group_name_H-M "C 2/C"
_symmetry_group_IT_number 15
_symmetry_cell_setting 'monoclinic'
loop_
_space_group_symop_operation_xyz
x,y,z
-x,y,1/2-z
-x,-y,-z
x,-y,1/2+z
1/2+x,1/2+y,z
1/2-x,1/2+y,1/2-z
1/2-x,1/2-y,-z
1/2+x,1/2-y,1/2+z
loop_
_atom_site_type_symbol
_atom_site_label
_atom_site_fract_x
_atom_site_fract_y
_atom_site_fract_z
Si Si1 0.038427 0.105335 0.486091
Si Si2 0.861028 0.576241 0.837187
Si Si3 0.226997 0.615015 0.260872
Si Si4 0.168640 0.815508 0.244833
O O1 0.130404 0.121183 0.299887
O O2 0.117238 0.128500 0.613603
O O3 0.922540 0.166019 0.565968
O O4 0.000000 0.000000 0.500000
O O5 0.810470 0.475110 0.822289
O O6 0.794102 0.644947 0.743555
O O7 0.000000 0.576785 0.750000
O O8 0.825868 0.604086 0.035742
O O9 0.177202 0.708408 0.205467
#
# Coordination Sequence:
#
# PCOD9306465 Si02
#       4
#     8   8   8   8
#     4  11  25  48  82 110 150 193 268 318 381 446
#     4  12  28  49  74 113 159 202 253 315 389 463
#     4  12  27  49  79 112 156 204 258 314 391 459
#     4  11  27  49  78 115 150 205 253 325 384 459
#
# _framework density 23.795210000000001
#
# number of rings (size 3 to 8) (size 9 to 14) (size 15 to 20)
#    0.000    0.500    2.500    3.750   10.500    1.000 
#    0.000    0.000    0.000    0.000    0.000    0.000 
#    0.000    0.000    0.000    0.000    0.000    0.000 
#
# Total GULP energy -89720.017777 kJ/mol
# GULP energy per Si atom -5607.501111 kJ/mol
# Density = 2.374105 g / cm^3
# Si number density = 23.795210 Si / 1000 Ang^3
#
#
#
# Elastic Constant Matrix: (Units=GPa)
#
#
# Indices 1 2 3 4 5 6 
#
# 1 99.9051 32.0965 12.4940 0.0000 -19.7244 0.0000
# 2 32.0965 121.5369 37.6694 0.0000 8.6466 0.0000
# 3 12.4940 37.6694 93.0653 0.0000 -12.7999 0.0000
# 4 0.0000 0.0000 0.0000 32.8697 0.0000 -3.4839
# 5 -19.7244 8.6466 -12.7999 0.0000 57.0378 0.0000
# 6 0.0000 0.0000 0.0000 -3.4839 0.0000 31.8426
#
#
#
# Elastic Compliance Matrix: (Units=1/GPa)
#
#
# Indices 1 2 3 4 5 6 
#
# 1 0.012094 -0.003710 0.000547 0.000000 0.004867 0.000000
# 2 -0.003710 0.010863 -0.004439 0.000000 -0.003926 0.000000
# 3 0.000547 -0.004439 0.012988 0.000000 0.003777 0.000000
# 4 0.000000 0.000000 0.000000 0.030780 0.000000 0.003368
# 5 0.004867 -0.003926 0.003777 0.000000 0.020658 0.000000
# 6 0.000000 0.000000 0.000000 0.003368 0.000000 0.031773
#
#
# Mechanical properties :
#
#
# Convention : Reuss Voigt Hill
#
# Bulk Modulus (GPa) = 48.21103 53.22525 50.71814
# Shear Modulus (GPa) = 35.39280 39.83318 37.61299
#
# Velocity S-wave (km/s) = 3.86086 4.09589 3.98011
# Velocity P-wave (km/s) = 6.33875 6.69216 6.51785
#
# Compressibility (1/GPa) = 0.02074214
#
# Stress axis : x y z
#
# Youngs Moduli (GPa) = 82.68647 92.05814 76.99583
#
# Poissons Ratio (x) = 0.34152 -0.04215
# Poissons Ratio (y) = 0.30675 0.34176
# Poissons Ratio (z) = -0.04527 0.40862
#
# Static dielectric constant tensor:
#      x y z
#    x 1.879760 0.000000 -0.002960 
#    y 0.000000 1.832610 0.000000 
#    z -0.002960 0.000000 1.978870 
# 
# From -- ./inp_files/27876.got.cif
#   From: 2010.05.17/outbox.cif.g08.bks.cpg/sg15_14_cif.got.tgz:27876.got - 2010.06.03 18:47:42.
