data_PCOD9306927
_publ_section_title
;
Structure prediction by ZEFSAII (Michael W. Deem and Ramdas Pophale) SiO2 
 PCOD9306927
Probable space group: C 2/C
;
_chemical_formula_sum "Si O2"
_cell_formula_units_Z 48
_cell_length_a 8.473697
_cell_length_b 16.337571
_cell_length_c 15.281218
_cell_angle_alpha 90.000000
_cell_angle_beta 92.760899
_cell_angle_gamma 90.000000
_cell_volume 2113.070496
_symmetry_space_group_name_H-M "C 2/C"
_symmetry_group_IT_number 15
_symmetry_cell_setting 'monoclinic'
loop_
_space_group_symop_operation_xyz
x,y,z
-x,y,1/2-z
-x,-y,-z
x,-y,1/2+z
1/2+x,1/2+y,z
1/2-x,1/2+y,1/2-z
1/2-x,1/2-y,-z
1/2+x,1/2-y,1/2+z
loop_
_atom_site_type_symbol
_atom_site_label
_atom_site_fract_x
_atom_site_fract_y
_atom_site_fract_z
Si Si1 0.797508 0.518330 0.686461
Si Si2 0.000000 0.244342 0.250000
Si Si3 0.234829 0.852685 0.871481
Si Si4 0.286111 0.132517 0.847662
Si Si5 0.550770 0.907153 0.472740
Si Si6 0.959509 0.985469 0.101982
Si Si7 0.500000 0.122391 0.250000
O O1 0.827441 0.559004 0.780864
O O2 0.850637 0.580393 0.613268
O O3 0.615460 0.500726 0.663197
O O4 0.899729 0.436448 0.683349
O O5 0.916606 0.196666 0.167039
O O6 0.854807 0.293233 0.292176
O O7 0.368285 0.834293 0.802665
O O8 0.168098 0.945461 0.876400
O O9 0.339550 0.852098 0.962456
O O10 0.388034 0.133186 0.938715
O O11 0.112050 0.103998 0.875046
O O12 0.500000 0.000000 0.500000
O O13 0.000000 0.000000 0.000000
#
# Coordination Sequence:
#
# PCOD9306927 Si02
#       7
#     8   4   8   8   8   8   4
#     4  12  19  38  70 106 137 182 245 301 376 411
#     4  12  29  52  68 105 162 210 228 304 387 460
#     4  12  26  44  72 107 151 192 253 305 376 446
#     4  12  24  46  71 103 151 194 246 297 382 446
#     4  12  19  39  73 108 135 186 256 317 359 423
#     4  12  24  40  75 114 139 186 259 321 353 429
#     4  12  21  40  72 103 138 192 232 324 355 438
#
# _framework density 22.715758999999998
#
# number of rings (size 3 to 8) (size 9 to 14) (size 15 to 20)
#    0.000    0.000   10.000    1.500    0.000    0.667 
#    3.000    0.833    0.000    0.000    0.000    0.000 
#    0.000    0.000    0.000    0.000    0.000    0.000 
#
# Total GULP energy -133732.393569 kJ/mol
# GULP energy per Si atom -5572.183065 kJ/mol
# Density = 2.266406 g / cm^3
# Si number density = 22.715759 Si / 1000 Ang^3
#
#
#
# Elastic Constant Matrix: (Units=GPa)
#
#
# Indices 1 2 3 4 5 6 
#
# 1 119.4311 19.1300 35.4494 0.0000 15.8674 0.0000
# 2 19.1300 45.2882 37.8681 0.0000 6.1781 0.0000
# 3 35.4494 37.8681 87.4414 0.0000 7.4133 0.0000
# 4 0.0000 0.0000 0.0000 15.7147 0.0000 5.0030
# 5 15.8674 6.1781 7.4133 0.0000 53.4072 0.0000
# 6 0.0000 0.0000 0.0000 5.0030 0.0000 23.0631
#
#
#
# Elastic Compliance Matrix: (Units=1/GPa)
#
#
# Indices 1 2 3 4 5 6 
#
# 1 0.009842 -0.001047 -0.003339 0.000000 -0.002340 0.000000
# 2 -0.001047 0.034928 -0.014557 0.000000 -0.001709 0.000000
# 3 -0.003339 -0.014557 0.019092 0.000000 0.000026 0.000000
# 4 0.000000 0.000000 0.000000 0.068355 0.000000 -0.014828
# 5 -0.002340 -0.001709 0.000026 0.000000 0.019613 0.000000
# 6 0.000000 0.000000 0.000000 -0.014828 0.000000 0.046576
#
#
# Mechanical properties :
#
#
# Convention : Reuss Voigt Hill
#
# Bulk Modulus (GPa) = 38.49472 48.56176 43.52824
# Shear Modulus (GPa) = 20.41229 29.08455 24.74842
#
# Velocity S-wave (km/s) = 3.00091 3.58211 3.30431
# Velocity P-wave (km/s) = 5.38427 6.20750 5.81048
#
# Compressibility (1/GPa) = 0.02597759
#
# Stress axis : x y z
#
# Youngs Moduli (GPa) = 101.60031 28.63033 52.37892
#
# Poissons Ratio (x) = 0.02997 0.17487
# Poissons Ratio (y) = 0.10636 0.76248
# Poissons Ratio (z) = 0.33919 0.41677
#
# Static dielectric constant tensor:
#      x y z
#    x 1.873890 0.000000 0.006100 
#    y 0.000000 1.858410 0.000000 
#    z 0.006100 0.000000 1.905250 
# 
# From -- ./inp_files/134904.got.cif
#   From: 2010.05.17/outbox.cif.g08.bks.cpg/sg15_68_cif.got.tgz:134904.got - 2010.06.03 18:47:42.
