data_PCOD9306260
_publ_section_title
;
Structure prediction by ZEFSAII (Michael W. Deem and Ramdas Pophale) SiO2 
 PCOD9306260
Probable space group: C 2/C
;
_chemical_formula_sum "Si O2"
_cell_formula_units_Z 36
_cell_length_a 21.261959
_cell_length_b 15.707499
_cell_length_c 12.765339
_cell_angle_alpha 90.000000
_cell_angle_beta 157.626924
_cell_angle_gamma 90.000000
_cell_volume 1622.752893
_symmetry_space_group_name_H-M "C 2/C"
_symmetry_group_IT_number 15
_symmetry_cell_setting 'monoclinic'
loop_
_space_group_symop_operation_xyz
x,y,z
-x,y,1/2-z
-x,-y,-z
x,-y,1/2+z
1/2+x,1/2+y,z
1/2-x,1/2+y,1/2-z
1/2-x,1/2-y,-z
1/2+x,1/2-y,1/2+z
loop_
_atom_site_type_symbol
_atom_site_label
_atom_site_fract_x
_atom_site_fract_y
_atom_site_fract_z
Si Si1 0.563778 0.748939 0.667935
Si Si2 0.416947 0.697415 0.230534
Si Si3 0.470645 0.066770 0.083874
Si Si4 0.000000 0.134321 0.750000
Si Si5 0.268891 0.481063 0.441368
O O1 0.541065 0.709338 0.518813
O O2 0.503104 0.845694 0.572651
O O3 0.455501 0.695502 0.584871
O O4 0.750000 0.750000 0.000000
O O5 0.500000 0.727327 0.250000
O O6 0.250000 0.750000 0.000000
O O7 0.368584 0.598588 0.139019
O O8 0.500000 0.084081 0.250000
O O9 0.603465 0.996394 0.253329
O O10 0.291075 0.037484 0.769627
O O11 0.864565 0.069677 0.586321
#
# Coordination Sequence:
#
# PCOD9306260 Si02
#       5
#     8   8   8   4   8
#     4  12  27  46  76 108 146 194 245 306 373 439
#     4  12  29  49  76 107 152 196 248 303 370 441
#     4  11  25  46  72 102 152 191 241 295 372 442
#     4  12  26  44  78 108 142 182 254 300 364 434
#     4  11  26  47  69 111 142 194 241 302 364 439
#
# _framework density 22.184526000000002
#
# number of rings (size 3 to 8) (size 9 to 14) (size 15 to 20)
#    0.000    0.444    6.667    0.000    9.333    1.778 
#    0.000    0.000    0.000    0.000    0.000    0.000 
#    0.000    0.000    0.000    0.000    0.000    0.000 
#
# Total GULP energy -100694.109844 kJ/mol
# GULP energy per Si atom -5594.117214 kJ/mol
# Density = 2.213403 g / cm^3
# Si number density = 22.184526 Si / 1000 Ang^3
#
#
#
# Elastic Constant Matrix: (Units=GPa)
#
#
# Indices 1 2 3 4 5 6 
#
# 1 112.1519 32.7834 37.5326 0.0000 -24.8474 0.0000
# 2 32.7834 109.8184 33.6138 0.0000 -4.3851 0.0000
# 3 37.5326 33.6138 108.3644 0.0000 -24.6974 0.0000
# 4 0.0000 0.0000 0.0000 28.1823 0.0000 -6.0816
# 5 -24.8474 -4.3851 -24.6974 0.0000 43.3061 0.0000
# 6 0.0000 0.0000 0.0000 -6.0816 0.0000 36.8263
#
#
#
# Elastic Compliance Matrix: (Units=1/GPa)
#
#
# Indices 1 2 3 4 5 6 
#
# 1 0.011498 -0.002617 -0.001986 0.000000 0.005200 0.000000
# 2 -0.002617 0.010686 -0.002878 0.000000 -0.002061 0.000000
# 3 -0.001986 -0.002878 0.012048 0.000000 0.005441 0.000000
# 4 0.000000 0.000000 0.000000 0.036795 0.000000 0.006076
# 5 0.005200 -0.002061 0.005441 0.000000 0.028969 0.000000
# 6 0.000000 0.000000 0.000000 0.006076 0.000000 0.028158
#
#
# Mechanical properties :
#
#
# Convention : Reuss Voigt Hill
#
# Bulk Modulus (GPa) = 51.89057 59.79937 55.84497
# Shear Modulus (GPa) = 33.43622 36.75659 35.09641
#
# Velocity S-wave (km/s) = 3.88646 4.07487 3.98178
# Velocity P-wave (km/s) = 6.60156 7.01094 6.80933
#
# Compressibility (1/GPa) = 0.01927133
#
# Stress axis : x y z
#
# Youngs Moduli (GPa) = 86.97196 93.58220 82.99791
#
# Poissons Ratio (x) = 0.24491 0.16479
# Poissons Ratio (y) = 0.22761 0.23886
# Poissons Ratio (z) = 0.17268 0.26932
#
# Static dielectric constant tensor:
#      x y z
#    x 1.841120 0.000000 0.043060 
#    y 0.000000 1.803600 0.000000 
#    z 0.043060 0.000000 1.861450 
# 
# From -- ./inp_files/112573.got.cif
#   From: 2010.05.17/outbox.cif.g08.bks.cpg/sg15_57_cif.got.tgz:112573.got - 2010.06.03 18:47:42.
