data_PCOD9306336
_publ_section_title
;
Structure prediction by ZEFSAII (Michael W. Deem and Ramdas Pophale) SiO2 
 PCOD9306336
Probable space group: C 2/C
;
_chemical_formula_sum "Si O2"
_cell_formula_units_Z 64
_cell_length_a 27.773040
_cell_length_b 11.166607
_cell_length_c 14.805800
_cell_angle_alpha 90.000000
_cell_angle_beta 39.211314
_cell_angle_gamma 90.000000
_cell_volume 2902.811755
_symmetry_space_group_name_H-M "C 2/C"
_symmetry_group_IT_number 15
_symmetry_cell_setting 'monoclinic'
loop_
_space_group_symop_operation_xyz
x,y,z
-x,y,1/2-z
-x,-y,-z
x,-y,1/2+z
1/2+x,1/2+y,z
1/2-x,1/2+y,1/2-z
1/2-x,1/2-y,-z
1/2+x,1/2-y,1/2+z
loop_
_atom_site_type_symbol
_atom_site_label
_atom_site_fract_x
_atom_site_fract_y
_atom_site_fract_z
Si Si1 0.321125 0.209426 0.513866
Si Si2 0.683716 0.800171 0.276014
Si Si3 0.583421 0.298645 0.441919
Si Si4 0.092079 0.152693 0.281256
Si Si5 0.325284 0.406891 0.356584
Si Si6 0.657218 0.233237 0.516394
Si Si7 0.085947 0.503287 0.148379
Si Si8 0.411524 0.029114 0.141059
O O1 0.291496 0.229860 0.657998
O O2 0.334613 0.325029 0.432321
O O3 0.260806 0.123587 0.549554
O O4 0.397993 0.133906 0.415653
O O5 0.622544 0.703872 0.331259
O O6 0.645864 0.930956 0.318196
O O7 0.756361 0.777288 0.106484
O O8 0.498427 0.350647 0.576588
O O9 0.625221 0.367311 0.301368
O O10 0.620144 0.303864 0.487258
O O11 0.593546 0.160907 0.394074
O O12 0.110775 0.247388 0.175648
O O13 0.142703 0.039708 0.176337
O O14 0.644799 0.091626 0.520494
O O15 0.099218 0.521838 0.235562
O O16 0.000000 0.464167 0.250000
O O17 0.500000 0.000000 0.000000
#
# Coordination Sequence:
#
# PCOD9306336 Si02
#       8
#     8   8   8   8   8   8   8   8
#     4  11  25  47  70 101 147 185 239 300 356 430
#     4  12  25  43  73 108 140 185 244 294 358 428
#     4  12  24  48  71  99 144 189 233 295 365 425
#     4  12  26  43  73 101 143 186 242 290 355 438
#     4  11  26  47  68 101 142 193 235 290 363 432
#     4  12  25  45  68 105 145 182 233 298 365 426
#     4  12  24  43  73 106 142 183 239 306 361 421
#     4  12  23  43  73 107 140 181 236 302 357 422
#
# _framework density 22.047588000000001
#
# number of rings (size 3 to 8) (size 9 to 14) (size 15 to 20)
#    0.000    0.250    5.000    4.875    1.750    1.000 
#    2.250    2.500    0.000    0.000    0.000    0.000 
#    0.000    0.000    0.000    0.000    0.000    0.000 
#
# Total GULP energy -178801.853832 kJ/mol
# GULP energy per Si atom -5587.557932 kJ/mol
# Density = 2.199741 g / cm^3
# Si number density = 22.047588 Si / 1000 Ang^3
#
#
#
# Elastic Constant Matrix: (Units=GPa)
#
#
# Indices 1 2 3 4 5 6 
#
# 1 75.3633 4.6696 11.3493 0.0000 4.4975 0.0000
# 2 4.6696 77.4824 -4.1895 -0.0001 -8.0704 0.0000
# 3 11.3493 -4.1895 90.4114 0.0000 1.7081 0.0000
# 4 0.0000 -0.0001 0.0000 33.4465 0.0000 -8.9883
# 5 4.4975 -8.0704 1.7081 0.0000 45.0797 0.0000
# 6 0.0000 0.0000 0.0000 -8.9883 0.0000 17.0662
#
#
#
# Elastic Compliance Matrix: (Units=1/GPa)
#
#
# Indices 1 2 3 4 5 6 
#
# 1 0.013687 -0.001074 -0.001740 0.000000 -0.001492 0.000000
# 2 -0.001074 0.013265 0.000703 0.000000 0.002455 0.000000
# 3 -0.001740 0.000703 0.011314 0.000000 -0.000129 0.000000
# 4 0.000000 0.000000 0.000000 0.034828 0.000000 0.018343
# 5 -0.001492 0.002455 -0.000129 0.000000 0.022776 0.000000
# 6 0.000000 0.000000 0.000000 0.018343 0.000000 0.068256
#
#
# Mechanical properties :
#
#
# Convention : Reuss Voigt Hill
#
# Bulk Modulus (GPa) = 29.37411 29.65730 29.51570
# Shear Modulus (GPa) = 27.82491 34.54700 31.18596
#
# Velocity S-wave (km/s) = 3.55637 3.96274 3.76504
# Velocity P-wave (km/s) = 5.49688 5.86672 5.68481
#
# Compressibility (1/GPa) = 0.03404359
#
# Stress axis : x y z
#
# Youngs Moduli (GPa) = 73.06392 75.38832 88.38644
#
# Poissons Ratio (x) = 0.08099 0.15376
# Poissons Ratio (y) = 0.07849 -0.06215
# Poissons Ratio (z) = 0.12711 -0.05301
#
# Static dielectric constant tensor:
#      x y z
#    x 1.830770 0.000000 -0.012220 
#    y 0.000000 1.518580 0.000000 
#    z -0.012220 0.000000 1.816260 
# 
# From -- ./inp_files/177832.got.cif
#   From: 2010.05.17/outbox.cif.g08.bks.cpg/sg15_89_cif.got.tgz:177832.got - 2010.06.03 18:47:42.
