data_PCOD9306016
_publ_section_title
;
Structure prediction by ZEFSAII (Michael W. Deem and Ramdas Pophale) SiO2 
 PCOD9306016
Probable space group: C 2/C
;
_chemical_formula_sum "Si O2"
_cell_formula_units_Z 48
_cell_length_a 18.944510
_cell_length_b 13.812234
_cell_length_c 9.053321
_cell_angle_alpha 90.000000
_cell_angle_beta 96.343110
_cell_angle_gamma 90.000000
_cell_volume 2354.443907
_symmetry_space_group_name_H-M "C 2/C"
_symmetry_group_IT_number 15
_symmetry_cell_setting 'monoclinic'
loop_
_space_group_symop_operation_xyz
x,y,z
-x,y,1/2-z
-x,-y,-z
x,-y,1/2+z
1/2+x,1/2+y,z
1/2-x,1/2+y,1/2-z
1/2-x,1/2-y,-z
1/2+x,1/2-y,1/2+z
loop_
_atom_site_type_symbol
_atom_site_label
_atom_site_fract_x
_atom_site_fract_y
_atom_site_fract_z
Si Si1 0.804774 0.318045 0.913790
Si Si2 0.576087 0.343613 0.598576
Si Si3 0.842220 0.030665 0.863200
Si Si4 0.826005 0.286247 0.570545
Si Si5 0.409984 0.299669 0.572717
Si Si6 0.260342 0.959463 0.431108
O O1 0.817972 0.293717 0.744854
O O2 0.782161 0.429263 0.914790
O O3 0.750000 0.250000 0.000000
O O4 0.881157 0.300917 0.005876
O O5 0.590605 0.458188 0.628351
O O6 0.614266 0.288149 0.472888
O O7 0.492770 0.321330 0.572652
O O8 0.607489 0.302361 0.758521
O O9 0.797665 0.064790 0.710155
O O10 0.867381 0.118705 0.970900
O O11 0.785772 0.962076 0.931213
O O12 0.750000 0.250000 0.500000
O O13 0.826319 0.388914 0.480956
#
# Coordination Sequence:
#
# PCOD9306016 Si02
#       6
#     8   8   8   8   8   8
#     4  12  24  41  65  93 128 168 212 262 319 375
#     4  11  25  43  62  95 131 172 214 256 322 380
#     4  12  21  41  64  96 131 165 208 265 324 376
#     4  12  24  40  65  95 127 166 216 263 310 385
#     4  11  25  42  64  92 134 173 208 262 319 382
#     4  12  24  39  67  99 124 165 213 267 316 372
#
# _framework density 20.386982
#
# number of rings (size 3 to 8) (size 9 to 14) (size 15 to 20)
#    0.000    0.333    6.667    2.500    2.333    0.667 
#    0.000    0.833    0.000    0.000    0.000    0.000 
#    0.000    0.000    0.000    0.000    0.000    0.000 
#
# Total GULP energy -133798.904724 kJ/mol
# GULP energy per Si atom -5574.954364 kJ/mol
# Density = 2.034058 g / cm^3
# Si number density = 20.386982 Si / 1000 Ang^3
#
#
#
# Elastic Constant Matrix: (Units=GPa)
#
#
# Indices 1 2 3 4 5 6 
#
# 1 52.2407 21.4718 25.2384 0.0000 6.4032 0.0000
# 2 21.4718 98.2079 36.7434 0.0000 7.2188 0.0000
# 3 25.2384 36.7434 130.2491 0.0000 4.3916 0.0000
# 4 0.0000 0.0000 0.0000 30.9015 0.0000 5.3954
# 5 6.4032 7.2188 4.3916 0.0000 30.8189 0.0000
# 6 0.0000 0.0000 0.0000 5.3954 0.0000 29.4225
#
#
#
# Elastic Compliance Matrix: (Units=1/GPa)
#
#
# Indices 1 2 3 4 5 6 
#
# 1 0.022566 -0.003455 -0.003283 0.000000 -0.003412 0.000000
# 2 -0.003455 0.012066 -0.002676 0.000000 -0.001727 0.000000
# 3 -0.003283 -0.002676 0.009068 0.000000 0.000017 0.000000
# 4 0.000000 0.000000 0.000000 0.033431 0.000000 -0.006131
# 5 -0.003412 -0.001727 0.000017 0.000000 0.033559 0.000000
# 6 0.000000 0.000000 0.000000 -0.006131 0.000000 0.035112
#
#
# Mechanical properties :
#
#
# Convention : Reuss Voigt Hill
#
# Bulk Modulus (GPa) = 40.20496 49.73389 44.96943
# Shear Modulus (GPa) = 28.91491 31.37817 30.14654
#
# Velocity S-wave (km/s) = 3.77012 3.92743 3.84958
# Velocity P-wave (km/s) = 6.22218 6.70926 6.47030
#
# Compressibility (1/GPa) = 0.02487255
#
# Stress axis : x y z
#
# Youngs Moduli (GPa) = 44.31367 82.87729 110.27608
#
# Poissons Ratio (x) = 0.28632 0.36205
# Poissons Ratio (y) = 0.15309 0.29512
# Poissons Ratio (z) = 0.14549 0.22179
#
# Static dielectric constant tensor:
#      x y z
#    x 1.730190 0.000000 -0.003700 
#    y 0.000000 1.936050 0.000000 
#    z -0.003700 0.000000 1.814370 
# 
# From -- ./inp_files/47468.got.cif
#   From: 2010.05.17/outbox.cif.g08.bks.cpg/sg15_24_cif.got.tgz:47468.got - 2010.06.03 18:47:42.
