data_PCOD9306938
_publ_section_title
;
Structure prediction by ZEFSAII (Michael W. Deem and Ramdas Pophale) SiO2 
 PCOD9306938
Probable space group: C 2/C
;
_chemical_formula_sum "Si O2"
_cell_formula_units_Z 40
_cell_length_a 16.423264
_cell_length_b 9.251667
_cell_length_c 10.018951
_cell_angle_alpha 90.000000
_cell_angle_beta 100.600005
_cell_angle_gamma 90.000000
_cell_volume 1496.327529
_symmetry_space_group_name_H-M "C 2/C"
_symmetry_group_IT_number 15
_symmetry_cell_setting 'monoclinic'
loop_
_space_group_symop_operation_xyz
x,y,z
-x,y,1/2-z
-x,-y,-z
x,-y,1/2+z
1/2+x,1/2+y,z
1/2-x,1/2+y,1/2-z
1/2-x,1/2-y,-z
1/2+x,1/2-y,1/2+z
loop_
_atom_site_type_symbol
_atom_site_label
_atom_site_fract_x
_atom_site_fract_y
_atom_site_fract_z
Si Si1 0.885292 0.463907 0.121176
Si Si2 0.297127 0.189895 0.226389
Si Si3 0.546334 0.647802 0.389225
Si Si4 0.557457 0.746481 0.896924
Si Si5 0.205774 0.957840 0.073637
O O1 0.858853 0.548517 0.251603
O O2 0.922333 0.307386 0.142807
O O3 0.942875 0.582193 0.071633
O O4 0.794365 0.455843 0.025545
O O5 0.346251 0.269449 0.119194
O O6 0.291967 0.312640 0.334524
O O7 0.212906 0.105763 0.162837
O O8 0.500000 0.581712 0.250000
O O9 0.515916 0.334138 0.506424
O O10 0.626731 0.561647 0.459188
O O11 0.500000 0.725473 0.750000
#
# Coordination Sequence:
#
# PCOD9306938 Si02
#       5
#     8   8   8   8   8
#     4   8  20  31  58  93 129 173 215 280 328 401
#     4   8  19  35  65  95 131 171 228 286 325 405
#     4  12  20  32  60 104 137 167 217 295 344 396
#     4   9  17  33  58  97 127 162 224 287 332 373
#     4   9  19  38  61  99 130 176 226 279 339 403
#
# _framework density 26.732116000000001
#
# number of rings (size 3 to 8) (size 9 to 14) (size 15 to 20)
#    2.400    0.000    2.000    1.800    0.000    1.600 
#    0.000    0.000    0.000   10.800   26.000    1.400 
#    0.000    0.000    0.000    0.000    0.000    0.000 
#
# Total GULP energy -111666.180538 kJ/mol
# GULP energy per Si atom -5583.309027 kJ/mol
# Density = 2.667127 g / cm^3
# Si number density = 26.732116 Si / 1000 Ang^3
#
#
#
# Elastic Constant Matrix: (Units=GPa)
#
#
# Indices 1 2 3 4 5 6 
#
# 1 125.0500 68.8772 93.3615 0.0000 17.9963 0.0000
# 2 68.8772 199.5595 70.1768 0.0000 9.8972 0.0000
# 3 93.3615 70.1768 174.9168 0.0000 23.7713 0.0000
# 4 0.0000 0.0000 0.0000 -3.7348 0.0000 -5.0641
# 5 17.9963 9.8972 23.7713 0.0000 51.7231 0.0000
# 6 0.0000 0.0000 0.0000 -5.0641 0.0000 33.1664
#
#
#
# Elastic Compliance Matrix: (Units=1/GPa)
#
#
# Indices 1 2 3 4 5 6 
#
# 1 0.014515 -0.002658 -0.006468 0.000000 -0.001569 0.000000
# 2 -0.002658 0.006321 -0.001151 0.000000 0.000244 0.000000
# 3 -0.006468 -0.001151 0.009914 0.000000 -0.002086 0.000000
# 4 0.000000 0.000000 0.000000 -0.221824 0.000000 -0.033870
# 5 -0.001569 0.000244 -0.002086 0.000000 0.020792 0.000000
# 6 0.000000 0.000000 0.000000 -0.033870 0.000000 0.024980
#
#
# Mechanical properties :
#
#
# Convention : Reuss Voigt Hill
#
# Bulk Modulus (GPa) = 98.05701 107.15081 102.60391
# Shear Modulus (GPa) = -41.20297 34.03832 -3.58232
#
# Velocity S-wave (km/s) = -3.93023 3.57222 -1.15888
# Velocity P-wave (km/s) = 4.02061 7.56205 6.05598
#
# Compressibility (1/GPa) = 0.01019815
#
# Stress axis : x y z
#
# Youngs Moduli (GPa) = 68.89202 158.20772 100.86295
#
# Poissons Ratio (x) = 0.42045 0.65239
# Poissons Ratio (y) = 0.18309 0.11605
# Poissons Ratio (z) = 0.44560 0.18203
#
# Static dielectric constant tensor:
#      x y z
#    x 2.087940 0.000000 -0.009420 
#    y 0.000000 2.113170 0.000000 
#    z -0.009420 0.000000 2.129800 
# 
# From -- ./inp_files/116554.got.cif
#   From: 2010.05.17/outbox.cif.g08.bks.cpg/sg15_59_cif.got.tgz:116554.got - 2010.06.03 18:47:42.
