data_PCOD9306032
_publ_section_title
;
Structure prediction by ZEFSAII (Michael W. Deem and Ramdas Pophale) SiO2 
 PCOD9306032
Probable space group: C 2/C
;
_chemical_formula_sum "Si O2"
_cell_formula_units_Z 56
_cell_length_a 25.970125
_cell_length_b 11.383152
_cell_length_c 9.040398
_cell_angle_alpha 90.000000
_cell_angle_beta 119.883146
_cell_angle_gamma 90.000000
_cell_volume 2317.207551
_symmetry_space_group_name_H-M "C 2/C"
_symmetry_group_IT_number 15
_symmetry_cell_setting 'monoclinic'
loop_
_space_group_symop_operation_xyz
x,y,z
-x,y,1/2-z
-x,-y,-z
x,-y,1/2+z
1/2+x,1/2+y,z
1/2-x,1/2+y,1/2-z
1/2-x,1/2-y,-z
1/2+x,1/2-y,1/2+z
loop_
_atom_site_type_symbol
_atom_site_label
_atom_site_fract_x
_atom_site_fract_y
_atom_site_fract_z
Si Si1 0.862402 0.779877 0.476776
Si Si2 0.891540 0.603657 0.990964
Si Si3 0.206957 0.578701 0.231500
Si Si4 0.214653 0.050955 0.434101
Si Si5 0.560203 0.336685 0.391622
Si Si6 0.089549 0.973741 0.144998
Si Si7 0.439995 0.906264 0.255298
O O1 0.834246 0.692985 0.313875
O O2 0.812560 0.856314 0.488979
O O3 0.909815 0.865615 0.467634
O O4 0.895064 0.696178 0.640585
O O5 0.833630 0.538263 0.845040
O O6 0.941529 0.594657 0.933871
O O7 0.888315 0.740809 0.021212
O O8 0.911784 0.528322 0.159705
O O9 0.239756 0.598171 0.121990
O O10 0.252603 0.551329 0.427057
O O11 0.158596 0.006785 0.260563
O O12 0.500000 0.275022 0.250000
O O13 0.571367 0.430716 0.279483
O O14 0.555812 0.412705 0.534419
O O15 0.500000 0.888750 0.250000
#
# Coordination Sequence:
#
# PCOD9306032 Si02
#       7
#     8   8   8   8   8   8   8
#     4  11  25  43  69 101 141 182 246 294 350 439
#     4  11  26  46  71 114 142 187 244 298 348 452
#     4  11  25  42  73 100 142 184 231 291 373 412
#     4  12  23  47  66 103 136 188 229 299 354 426
#     4  12  28  48  75 100 146 191 240 297 364 422
#     4  12  26  47  69 104 140 182 251 294 351 434
#     4  11  25  45  75 104 151 187 239 297 370 418
#
# _framework density 24.167020999999998
#
# number of rings (size 3 to 8) (size 9 to 14) (size 15 to 20)
#    0.000    0.571    2.857    4.286    8.000    3.429 
#    0.000    0.000    0.000    0.000    0.000    0.000 
#    0.000    0.000    0.000    0.000    0.000    0.000 
#
# Total GULP energy -156786.731092 kJ/mol
# GULP energy per Si atom -5599.526110 kJ/mol
# Density = 2.411202 g / cm^3
# Si number density = 24.167021 Si / 1000 Ang^3
#
#
#
# Elastic Constant Matrix: (Units=GPa)
#
#
# Indices 1 2 3 4 5 6 
#
# 1 53.0369 -15.5446 -0.3237 0.0000 -2.9687 0.0000
# 2 -15.5446 90.5850 31.8310 0.0000 3.3530 0.0000
# 3 -0.3237 31.8310 69.2138 0.0000 -14.4076 0.0000
# 4 0.0000 0.0000 0.0000 28.3827 0.0000 4.5310
# 5 -2.9687 3.3530 -14.4076 0.0000 34.5021 0.0000
# 6 0.0000 0.0000 0.0000 4.5310 0.0000 28.6658
#
#
#
# Elastic Compliance Matrix: (Units=1/GPa)
#
#
# Indices 1 2 3 4 5 6 
#
# 1 0.020048 0.003976 -0.001595 0.000000 0.000673 0.000000
# 2 0.003976 0.014527 -0.007541 0.000000 -0.004219 0.000000
# 3 -0.001595 -0.007541 0.019749 0.000000 0.008843 0.000000
# 4 0.000000 0.000000 0.000000 0.036145 0.000000 -0.005713
# 5 0.000673 -0.004219 0.008843 0.000000 0.033144 0.000000
# 6 0.000000 0.000000 0.000000 -0.005713 0.000000 0.035788
#
#
# Mechanical properties :
#
#
# Convention : Reuss Voigt Hill
#
# Bulk Modulus (GPa) = 22.72443 27.19566 24.96005
# Shear Modulus (GPa) = 27.11662 31.43500 29.27581
#
# Velocity S-wave (km/s) = 3.35334 3.61049 3.48429
# Velocity P-wave (km/s) = 4.94132 5.35336 5.15146
#
# Compressibility (1/GPa) = 0.04400550
#
# Stress axis : x y z
#
# Youngs Moduli (GPa) = 49.88035 68.83502 50.63519
#
# Poissons Ratio (x) = -0.27367 0.08074
# Poissons Ratio (y) = -0.19831 0.38182
# Poissons Ratio (z) = 0.07954 0.51906
#
# Static dielectric constant tensor:
#      x y z
#    x 1.992500 0.000000 0.012270 
#    y 0.000000 1.913330 0.000000 
#    z 0.012270 0.000000 1.908080 
# 
# From -- ./inp_files/65524.got.cif
#   From: 2010.05.17/outbox.cif.g08.bks.cpg/sg15_33_cif.got.tgz:65524.got - 2010.06.03 18:47:42.
