data_PCOD9306246
_publ_section_title
;
Structure prediction by ZEFSAII (Michael W. Deem and Ramdas Pophale) SiO2 
 PCOD9306246
Probable space group: C 2/C
;
_chemical_formula_sum "Si O2"
_cell_formula_units_Z 40
_cell_length_a 17.662536
_cell_length_b 21.378248
_cell_length_c 9.520675
_cell_angle_alpha 90.000000
_cell_angle_beta 150.589591
_cell_angle_gamma 90.000000
_cell_volume 1765.343639
_symmetry_space_group_name_H-M "C 2/C"
_symmetry_group_IT_number 15
_symmetry_cell_setting 'monoclinic'
loop_
_space_group_symop_operation_xyz
x,y,z
-x,y,1/2-z
-x,-y,-z
x,-y,1/2+z
1/2+x,1/2+y,z
1/2-x,1/2+y,1/2-z
1/2-x,1/2-y,-z
1/2+x,1/2-y,1/2+z
loop_
_atom_site_type_symbol
_atom_site_label
_atom_site_fract_x
_atom_site_fract_y
_atom_site_fract_z
Si Si1 0.075495 0.780472 0.716477
Si Si2 0.108516 0.993755 0.805995
Si Si3 0.440706 0.058651 0.814777
Si Si4 0.433503 0.826100 0.799118
Si Si5 0.585484 0.360732 0.250516
O O1 0.000000 0.780345 0.750000
O O2 0.983627 0.734576 0.464748
O O3 0.033239 0.846767 0.570350
O O4 0.250000 0.750000 0.000000
O O5 0.137534 0.068019 0.878021
O O6 0.000000 0.966596 0.750000
O O7 0.000000 0.000000 0.500000
O O8 0.258548 0.953496 0.021463
O O9 0.500000 0.059641 0.750000
O O10 0.496452 0.118470 0.991355
O O11 0.500000 0.000000 0.000000
O O12 0.500000 0.829632 0.750000
O O13 0.250279 0.830333 0.489536
O O14 0.500000 0.335404 0.250000
#
# Coordination Sequence:
#
# PCOD9306246 Si02
#       5
#     8   8   8   8   8
#     4  12  26  46  73 106 137 178 236 292 349 413
#     4  11  26  42  69 100 141 183 226 284 340 409
#     4  12  25  45  70 103 140 184 236 281 344 414
#     4  12  26  46  73 102 141 186 230 286 349 415
#     4  11  25  46  70  99 140 185 228 281 352 409
#
# _framework density 22.658477999999999
#
# number of rings (size 3 to 8) (size 9 to 14) (size 15 to 20)
#    0.000    0.400    2.000    6.000    8.400    0.800 
#    0.000    0.000    0.000    0.000    0.000    0.000 
#    0.000    0.000    0.000    0.000    0.000    0.000 
#
# Total GULP energy -111739.215382 kJ/mol
# GULP energy per Si atom -5586.960769 kJ/mol
# Density = 2.260691 g / cm^3
# Si number density = 22.658478 Si / 1000 Ang^3
#
#
#
# Elastic Constant Matrix: (Units=GPa)
#
#
# Indices 1 2 3 4 5 6 
#
# 1 262.8298 33.7908 102.5136 0.0000 -5.2259 0.0000
# 2 33.7908 93.4783 31.0679 0.0000 -0.0306 0.0000
# 3 102.5136 31.0679 164.5457 0.0000 22.9391 0.0000
# 4 0.0000 0.0000 0.0000 51.3476 0.0000 -20.5224
# 5 -5.2259 -0.0306 22.9391 0.0000 61.0055 0.0000
# 6 0.0000 0.0000 0.0000 -20.5224 0.0000 7.8576
#
#
#
# Elastic Compliance Matrix: (Units=1/GPa)
#
#
# Indices 1 2 3 4 5 6 
#
# 1 0.005251 -0.000780 -0.003363 0.000000 0.001714 0.000000
# 2 -0.000780 0.011573 -0.001784 0.000000 0.000610 0.000000
# 3 -0.003363 -0.001784 0.009023 0.000000 -0.003682 0.000000
# 4 0.000000 0.000000 0.000000 -0.443961 0.000000 -1.159529
# 5 0.001714 0.000610 -0.003682 0.000000 0.017923 0.000000
# 6 0.000000 0.000000 0.000000 -1.159529 0.000000 -2.901173
#
#
# Mechanical properties :
#
#
# Convention : Reuss Voigt Hill
#
# Bulk Modulus (GPa) = 71.46892 95.06649 83.26770
# Shear Modulus (GPa) = -1.52214 47.60759 23.04273
#
# Velocity S-wave (km/s) = -0.82051 4.58874 3.19244
# Velocity P-wave (km/s) = 5.54190 8.37393 7.10054
#
# Compressibility (1/GPa) = 0.01399210
#
# Stress axis : x y z
#
# Youngs Moduli (GPa) = 190.44832 86.40980 110.83222
#
# Poissons Ratio (x) = 0.06738 0.37273
# Poissons Ratio (y) = 0.14851 0.19775
# Poissons Ratio (z) = 0.64047 0.15418
#
# Static dielectric constant tensor:
#      x y z
#    x 1.775170 0.000000 0.017730 
#    y 0.000000 3.039010 0.000000 
#    z 0.017730 0.000000 1.836410 
# 
# From -- ./inp_files/51702.got.cif
#   From: 2010.05.17/outbox.cif.g08.bks.cpg/sg15_26_cif.got.tgz:51702.got - 2010.06.03 18:47:42.
