data_PCOD9306074
_publ_section_title
;
Structure prediction by ZEFSAII (Michael W. Deem and Ramdas Pophale) SiO2 
 PCOD9306074
Probable space group: C 2/C
;
_chemical_formula_sum "Si O2"
_cell_formula_units_Z 48
_cell_length_a 26.404089
_cell_length_b 9.039371
_cell_length_c 13.540131
_cell_angle_alpha 90.000000
_cell_angle_beta 137.385119
_cell_angle_gamma 90.000000
_cell_volume 2188.084020
_symmetry_space_group_name_H-M "C 2/C"
_symmetry_group_IT_number 15
_symmetry_cell_setting 'monoclinic'
loop_
_space_group_symop_operation_xyz
x,y,z
-x,y,1/2-z
-x,-y,-z
x,-y,1/2+z
1/2+x,1/2+y,z
1/2-x,1/2+y,1/2-z
1/2-x,1/2-y,-z
1/2+x,1/2-y,1/2+z
loop_
_atom_site_type_symbol
_atom_site_label
_atom_site_fract_x
_atom_site_fract_y
_atom_site_fract_z
Si Si1 0.187452 0.096024 0.855854
Si Si2 0.819681 0.405788 0.145842
Si Si3 0.912335 0.238178 0.109581
Si Si4 0.319973 0.646998 0.292862
Si Si5 0.912704 0.881960 0.110446
Si Si6 0.675400 0.140249 0.199113
O O1 0.135505 0.165985 0.864747
O O2 0.208906 0.225668 0.812149
O O3 0.144340 0.975151 0.727737
O O4 0.254381 0.001920 0.000780
O O5 0.868297 0.321999 0.133959
O O6 0.792436 0.280272 0.183828
O O7 0.859109 0.522419 0.275255
O O8 0.000000 0.263660 0.250000
O O9 0.900462 0.060661 0.091026
O O10 0.882665 0.300790 0.963663
O O11 0.378695 0.686194 0.462021
O O12 0.247205 0.578930 0.242430
O O13 0.000000 0.852109 0.250000
#
# Coordination Sequence:
#
# PCOD9306074 Si02
#       6
#     8   8   8   8   8   8
#     4  12  23  43  70 100 132 175 226 271 326 396
#     4  12  25  41  69 100 134 172 222 275 330 391
#     4  11  25  45  66  97 138 177 220 279 338 394
#     4  12  23  41  71 100 126 177 225 271 327 391
#     4  11  25  44  68 101 134 172 227 282 330 394
#     4  12  25  41  70 101 133 175 224 271 331 398
#
# _framework density 21.937000999999999
#
# number of rings (size 3 to 8) (size 9 to 14) (size 15 to 20)
#    0.000    0.333    6.667    3.000    0.000    2.667 
#    0.000    1.667    0.000    0.000    0.000    0.000 
#    0.000    0.000    0.000    0.000    0.000    0.000 
#
# Total GULP energy -134242.417197 kJ/mol
# GULP energy per Si atom -5593.434050 kJ/mol
# Density = 2.188707 g / cm^3
# Si number density = 21.937001 Si / 1000 Ang^3
#
#
#
# Elastic Constant Matrix: (Units=GPa)
#
#
# Indices 1 2 3 4 5 6 
#
# 1 97.6705 29.2355 56.3146 0.0000 -18.5783 0.0000
# 2 29.2355 67.9163 17.7535 0.0000 -13.2055 0.0000
# 3 56.3146 17.7535 123.8196 0.0000 -9.3629 0.0000
# 4 0.0000 0.0000 0.0000 29.3325 0.0000 -8.0783
# 5 -18.5783 -13.2055 -9.3629 0.0000 36.6100 0.0000
# 6 0.0000 0.0000 0.0000 -8.0783 0.0000 16.1581
#
#
#
# Elastic Compliance Matrix: (Units=1/GPa)
#
#
# Indices 1 2 3 4 5 6 
#
# 1 0.016141 -0.004315 -0.006343 0.000000 0.005012 0.000000
# 2 -0.004315 0.017427 -0.000231 0.000000 0.004037 0.000000
# 3 -0.006343 -0.000231 0.010957 0.000000 -0.000500 0.000000
# 4 0.000000 0.000000 0.000000 0.039535 0.000000 0.019766
# 5 0.005012 0.004037 -0.000500 0.000000 0.031187 0.000000
# 6 0.000000 0.000000 0.000000 0.019766 0.000000 0.071771
#
#
# Mechanical properties :
#
#
# Convention : Reuss Voigt Hill
#
# Bulk Modulus (GPa) = 43.96478 55.11262 49.53870
# Shear Modulus (GPa) = 23.10769 28.82697 25.96733
#
# Velocity S-wave (km/s) = 3.24908 3.62896 3.44426
# Velocity P-wave (km/s) = 5.84468 6.53734 6.20069
#
# Compressibility (1/GPa) = 0.02274548
#
# Stress axis : x y z
#
# Youngs Moduli (GPa) = 61.95382 57.38250 91.26940
#
# Poissons Ratio (x) = 0.24763 0.57896
# Poissons Ratio (y) = 0.26736 0.02106
# Poissons Ratio (z) = 0.39300 0.01324
#
# Static dielectric constant tensor:
#      x y z
#    x 1.784750 0.000000 -0.023050 
#    y 0.000000 1.833150 0.000000 
#    z -0.023050 0.000000 1.790860 
# 
# From -- ./inp_files/176954.got.cif
#   From: 2010.05.17/outbox.cif.g08.bks.cpg/sg15_89_cif.got.tgz:176954.got - 2010.06.03 18:47:42.
