data_PCOD9306716
_publ_section_title
;
Structure prediction by ZEFSAII (Michael W. Deem and Ramdas Pophale) SiO2 
 PCOD9306716
Probable space group: C 2/C
;
_chemical_formula_sum "Si O2"
_cell_formula_units_Z 40
_cell_length_a 19.413516
_cell_length_b 4.855331
_cell_length_c 16.271868
_cell_angle_alpha 90.000000
_cell_angle_beta 77.856649
_cell_angle_gamma 90.000000
_cell_volume 1499.451646
_symmetry_space_group_name_H-M "C 2/C"
_symmetry_group_IT_number 15
_symmetry_cell_setting 'monoclinic'
loop_
_space_group_symop_operation_xyz
x,y,z
-x,y,1/2-z
-x,-y,-z
x,-y,1/2+z
1/2+x,1/2+y,z
1/2-x,1/2+y,1/2-z
1/2-x,1/2-y,-z
1/2+x,1/2-y,1/2+z
loop_
_atom_site_type_symbol
_atom_site_label
_atom_site_fract_x
_atom_site_fract_y
_atom_site_fract_z
Si Si1 0.929002 0.162086 0.366496
Si Si2 0.566583 0.810715 0.964111
Si Si3 0.722531 0.869562 0.094709
Si Si4 0.805048 0.391825 0.128618
Si Si5 0.918402 0.925122 0.695610
O O1 0.927498 0.087946 0.463317
O O2 0.861575 0.359838 0.376848
O O3 0.917252 0.969356 0.289748
O O4 0.009861 0.254732 0.332714
O O5 0.633419 0.011145 0.948086
O O6 0.571664 0.657922 0.875790
O O7 0.500000 0.000000 0.000000
O O8 0.759132 0.665137 0.152333
O O9 0.754385 0.166817 0.102021
O O10 0.750000 0.750000 0.000000
O O11 0.850460 0.253425 0.189470
#
# Coordination Sequence:
#
# PCOD9306716 Si02
#       5
#     8   8   8   8   8
#     4  11  26  48  78 118 157 213 272 339 407 490
#     4  12  25  47  86 114 163 216 274 347 410 491
#     4  12  26  45  77 117 155 207 266 332 410 489
#     4  12  25  48  76 111 159 206 264 327 411 481
#     4  11  26  52  75 118 159 214 276 331 410 496
#
# _framework density 26.676418000000002
#
# number of rings (size 3 to 8) (size 9 to 14) (size 15 to 20)
#    0.000    0.400    6.000    1.200    2.800    1.600 
#   10.800    0.000    0.000    0.000    0.000    0.000 
#    0.000    0.000    0.000    0.000    0.000    0.000 
#
# Total GULP energy -111801.033109 kJ/mol
# GULP energy per Si atom -5590.051655 kJ/mol
# Density = 2.661570 g / cm^3
# Si number density = 26.676418 Si / 1000 Ang^3
#
#
#
# Elastic Constant Matrix: (Units=GPa)
#
#
# Indices 1 2 3 4 5 6 
#
# 1 196.2064 48.8421 22.1656 0.0000 -23.2088 0.0000
# 2 48.8421 110.7957 55.4552 0.0000 -5.2039 0.0000
# 3 22.1656 55.4552 207.0790 0.0000 16.5569 0.0000
# 4 0.0000 0.0000 0.0000 14.7387 0.0000 -11.8992
# 5 -23.2088 -5.2039 16.5569 0.0000 45.2308 0.0000
# 6 0.0000 0.0000 0.0000 -11.8992 0.0000 26.7323
#
#
#
# Elastic Compliance Matrix: (Units=1/GPa)
#
#
# Indices 1 2 3 4 5 6 
#
# 1 0.006072 -0.002422 -0.000235 0.000000 0.002923 0.000000
# 2 -0.002422 0.011623 -0.002947 0.000000 0.001174 0.000000
# 3 -0.000235 -0.002947 0.005852 0.000000 -0.002602 0.000000
# 4 0.000000 0.000000 0.000000 0.105908 0.000000 0.047142
# 5 0.002923 0.001174 -0.002602 0.000000 0.024696 0.000000
# 6 0.000000 0.000000 0.000000 0.047142 0.000000 0.058392
#
#
# Mechanical properties :
#
#
# Convention : Reuss Voigt Hill
#
# Bulk Modulus (GPa) = 81.04662 85.22298 83.13480
# Shear Modulus (GPa) = 21.94287 43.18158 32.56222
#
# Velocity S-wave (km/s) = 2.87114 4.02769 3.49755
# Velocity P-wave (km/s) = 6.43728 7.32435 6.89509
#
# Compressibility (1/GPa) = 0.01233858
#
# Stress axis : x y z
#
# Youngs Moduli (GPa) = 164.69508 86.03267 170.89475
#
# Poissons Ratio (x) = 0.20834 0.04018
# Poissons Ratio (y) = 0.39884 0.50369
# Poissons Ratio (z) = 0.03872 0.25357
#
# Static dielectric constant tensor:
#      x y z
#    x 2.109970 0.000000 0.072580 
#    y 0.000000 2.060890 0.000000 
#    z 0.072580 0.000000 2.199920 
# 
# From -- ./inp_files/109645.got.cif
#   From: 2010.05.17/outbox.cif.g08.bks.cpg/sg15_55_cif.got.tgz:109645.got - 2010.06.03 18:47:42.
