data_PCOD9306347
_publ_section_title
;
Structure prediction by ZEFSAII (Michael W. Deem and Ramdas Pophale) SiO2 
 PCOD9306347
Probable space group: C 2/C
;
_chemical_formula_sum "Si O2"
_cell_formula_units_Z 48
_cell_length_a 16.683840
_cell_length_b 23.773273
_cell_length_c 8.956427
_cell_angle_alpha 90.000000
_cell_angle_beta 34.958865
_cell_angle_gamma 90.000000
_cell_volume 2035.473496
_symmetry_space_group_name_H-M "C 2/C"
_symmetry_group_IT_number 15
_symmetry_cell_setting 'monoclinic'
loop_
_space_group_symop_operation_xyz
x,y,z
-x,y,1/2-z
-x,-y,-z
x,-y,1/2+z
1/2+x,1/2+y,z
1/2-x,1/2+y,1/2-z
1/2-x,1/2-y,-z
1/2+x,1/2-y,1/2+z
loop_
_atom_site_type_symbol
_atom_site_label
_atom_site_fract_x
_atom_site_fract_y
_atom_site_fract_z
Si Si1 0.109085 0.049645 0.313751
Si Si2 0.033090 0.344145 0.372052
Si Si3 0.000000 0.889340 0.250000
Si Si4 0.500000 0.644818 0.250000
Si Si5 0.595898 0.962238 0.247703
Si Si6 0.261370 0.172725 0.415045
Si Si7 0.734149 0.217928 0.768416
O O1 0.106047 0.076543 0.483354
O O2 0.056843 0.100782 0.288333
O O3 0.250522 0.019994 0.040117
O O4 0.000000 0.000000 0.500000
O O5 0.127737 0.398897 0.253991
O O6 0.110755 0.293147 0.337342
O O7 0.000000 0.332243 0.250000
O O8 0.888854 0.364870 0.666864
O O9 0.892266 0.850906 0.324805
O O10 0.373321 0.685628 0.498725
O O11 0.500000 0.954467 0.250000
O O12 0.500000 0.000000 0.500000
O O13 0.309051 0.194466 0.503242
O O14 0.256116 0.217695 0.286132
#
# Coordination Sequence:
#
# PCOD9306347 Si02
#       7
#     8   8   4   4   8   8   8
#     4  12  28  47  77 107 152 200 253 317 385 455
#     4  11  25  47  72 104 149 190 247 307 374 452
#     4  12  25  50  76 106 154 194 253 314 380 464
#     4  12  25  50  72 112 144 198 251 312 384 454
#     4  11  27  47  73 109 148 196 255 311 381 453
#     4  11  27  44  74 107 144 197 244 311 377 450
#     4  11  26  47  73 107 148 192 250 307 379 455
#
# _framework density 23.581735999999999
#
# number of rings (size 3 to 8) (size 9 to 14) (size 15 to 20)
#    0.000    0.667    3.333    3.000   12.833    2.000 
#    0.000    0.000    0.000    0.000    0.000    0.000 
#    0.000    0.000    0.000    0.000    0.000    0.000 
#
# Total GULP energy -133928.112160 kJ/mol
# GULP energy per Si atom -5580.338007 kJ/mol
# Density = 2.352806 g / cm^3
# Si number density = 23.581736 Si / 1000 Ang^3
#
#
#
# Elastic Constant Matrix: (Units=GPa)
#
#
# Indices 1 2 3 4 5 6 
#
# 1 81.5904 28.5101 31.1822 0.0001 -5.0531 -0.0001
# 2 28.5101 63.7549 37.6661 0.0000 5.4072 0.0000
# 3 31.1822 37.6661 171.9536 0.0001 -24.0742 -0.0001
# 4 0.0001 0.0000 0.0001 26.7963 -0.0001 8.6938
# 5 -5.0531 5.4072 -24.0742 -0.0001 36.5538 0.0001
# 6 -0.0001 0.0000 -0.0001 8.6938 0.0001 12.2289
#
#
#
# Elastic Compliance Matrix: (Units=1/GPa)
#
#
# Indices 1 2 3 4 5 6 
#
# 1 0.014990 -0.006305 -0.001010 0.000000 0.002340 0.000000
# 2 -0.006305 0.021859 -0.004648 0.000000 -0.007166 0.000000
# 3 -0.001010 -0.004648 0.007814 0.000000 0.005694 0.000000
# 4 0.000000 0.000000 0.000000 0.048507 0.000000 -0.034484
# 5 0.002340 -0.007166 0.005694 0.000000 0.032491 0.000000
# 6 0.000000 0.000000 0.000000 -0.034484 0.000000 0.106289
#
#
# Mechanical properties :
#
#
# Convention : Reuss Voigt Hill
#
# Bulk Modulus (GPa) = 48.22309 56.89066 52.55688
# Shear Modulus (GPa) = 19.02679 29.77850 24.40265
#
# Velocity S-wave (km/s) = 2.84358 3.55741 3.22034
# Velocity P-wave (km/s) = 5.59241 6.40709 6.01356
#
# Compressibility (1/GPa) = 0.02073695
#
# Stress axis : x y z
#
# Youngs Moduli (GPa) = 66.70925 45.74877 127.97675
#
# Poissons Ratio (x) = 0.28847 0.12920
# Poissons Ratio (y) = 0.42063 0.59482
# Poissons Ratio (z) = 0.06735 0.21264
#
# Static dielectric constant tensor:
#      x y z
#    x 1.984720 -0.000010 -0.059440 
#    y -0.000010 23.513560 -0.000010 
#    z -0.059440 -0.000010 1.887700 
# 
# From -- ./inp_files/52753.got.cif
#   From: 2010.05.17/outbox.cif.g08.bks.cpg/sg15_27_cif.got.tgz:52753.got - 2010.06.03 18:47:42.
