data_PCOD9306207
_publ_section_title
;
Structure prediction by ZEFSAII (Michael W. Deem and Ramdas Pophale) SiO2 
 PCOD9306207
Probable space group: C 2/C
;
_chemical_formula_sum "Si O2"
_cell_formula_units_Z 56
_cell_length_a 18.032947
_cell_length_b 14.741056
_cell_length_c 11.187952
_cell_angle_alpha 90.000000
_cell_angle_beta 57.504189
_cell_angle_gamma 90.000000
_cell_volume 2508.391470
_symmetry_space_group_name_H-M "C 2/C"
_symmetry_group_IT_number 15
_symmetry_cell_setting 'monoclinic'
loop_
_space_group_symop_operation_xyz
x,y,z
-x,y,1/2-z
-x,-y,-z
x,-y,1/2+z
1/2+x,1/2+y,z
1/2-x,1/2+y,1/2-z
1/2-x,1/2-y,-z
1/2+x,1/2-y,1/2+z
loop_
_atom_site_type_symbol
_atom_site_label
_atom_site_fract_x
_atom_site_fract_y
_atom_site_fract_z
Si Si1 0.251448 0.410446 0.731167
Si Si2 0.572401 0.520959 0.534077
Si Si3 0.676627 0.253947 0.668039
Si Si4 0.000000 0.184749 0.750000
Si Si5 0.000000 0.860640 0.750000
Si Si6 0.380792 0.962236 0.028399
Si Si7 0.078881 0.577337 0.743720
Si Si8 0.837299 0.308421 0.899375
O O1 0.333169 0.463220 0.604013
O O2 0.280884 0.316486 0.766473
O O3 0.203967 0.477078 0.864785
O O4 0.187313 0.381614 0.679836
O O5 0.500000 0.500000 0.500000
O O6 0.543344 0.615535 0.618918
O O7 0.562021 0.433264 0.625823
O O8 0.750000 0.250000 0.500000
O O9 0.579390 0.300892 0.737387
O O10 0.657647 0.147234 0.698373
O O11 0.919017 0.248567 0.782751
O O12 0.431902 0.959742 0.112041
O O13 0.363345 0.859983 0.998824
O O14 0.412393 0.007956 0.875958
O O15 0.000000 0.633209 0.750000
O O16 0.750000 0.250000 0.000000
#
# Coordination Sequence:
#
# PCOD9306207 Si02
#       8
#     8   8   8   4   4   8   8   8
#     4  12  26  48  75 114 151 205 258 318 393 460
#     4  11  25  45  76 105 146 193 253 323 391 451
#     4  12  26  47  72 111 150 196 252 316 388 455
#     4  11  28  48  73 112 148 200 263 320 392 455
#     4  11  26  46  73 108 152 192 257 322 384 459
#     4  12  28  48  77 110 155 206 254 318 387 469
#     4  12  27  50  75 109 152 201 259 313 386 462
#     4  12  27  50  75 109 157 203 261 323 390 471
#
# _framework density 22.325064999999999
#
# number of rings (size 3 to 8) (size 9 to 14) (size 15 to 20)
#    0.000    0.286    6.429    1.286    7.000    2.286 
#    0.000    0.000    0.000    0.000    0.000    0.000 
#    0.000    0.000    0.000    0.000    0.000    0.000 
#
# Total GULP energy -156002.607693 kJ/mol
# GULP energy per Si atom -5571.521703 kJ/mol
# Density = 2.227425 g / cm^3
# Si number density = 22.325065 Si / 1000 Ang^3
#
#
#
# Elastic Constant Matrix: (Units=GPa)
#
#
# Indices 1 2 3 4 5 6 
#
# 1 105.6139 29.9740 43.4685 0.0000 15.8845 0.0000
# 2 29.9740 70.8135 40.6857 0.0000 10.2984 0.0000
# 3 43.4685 40.6857 134.2651 0.0000 1.9410 0.0000
# 4 0.0000 0.0000 0.0000 -31.2396 0.0000 3.6250
# 5 15.8845 10.2984 1.9410 0.0000 38.5562 0.0000
# 6 0.0000 0.0000 0.0000 3.6250 0.0000 44.2495
#
#
#
# Elastic Compliance Matrix: (Units=1/GPa)
#
#
# Indices 1 2 3 4 5 6 
#
# 1 0.012121 -0.002803 -0.003016 0.000000 -0.004093 0.000000
# 2 -0.002803 0.018493 -0.004645 0.000000 -0.003551 0.000000
# 3 -0.003016 -0.004645 0.009803 0.000000 0.001990 0.000000
# 4 0.000000 0.000000 0.000000 -0.031709 0.000000 0.002598
# 5 -0.004093 -0.003551 0.001990 0.000000 0.028471 0.000000
# 6 0.000000 0.000000 0.000000 0.002598 0.000000 0.022386
#
#
# Mechanical properties :
#
#
# Convention : Reuss Voigt Hill
#
# Bulk Modulus (GPa) = 51.30811 59.88323 55.59567
# Shear Modulus (GPa) = 57.47890 23.41752 40.44821
#
# Velocity S-wave (km/s) = 5.07959 3.24224 4.26112
# Velocity P-wave (km/s) = 7.57860 6.39513 7.01188
#
# Compressibility (1/GPa) = 0.01949009
#
# Stress axis : x y z
#
# Youngs Moduli (GPa) = 82.50400 54.07386 102.00809
#
# Poissons Ratio (x) = 0.15154 0.30762
# Poissons Ratio (y) = 0.23122 0.47385
# Poissons Ratio (z) = 0.24880 0.25119
#
# Static dielectric constant tensor:
#      x y z
#    x 1.685200 0.000000 0.014360 
#    y 0.000000 1.729270 0.000000 
#    z 0.014360 0.000000 1.830000 
# 
# From -- ./inp_files/105661.got.cif
#   From: 2010.05.17/outbox.cif.g08.bks.cpg/sg15_53_cif.got.tgz:105661.got - 2010.06.03 18:47:42.
