data_PCOD9306333
_publ_section_title
;
Structure prediction by ZEFSAII (Michael W. Deem and Ramdas Pophale) SiO2 
 PCOD9306333
Probable space group: C 2/C
;
_chemical_formula_sum "Si O2"
_cell_formula_units_Z 48
_cell_length_a 12.883428
_cell_length_b 27.914304
_cell_length_c 6.695880
_cell_angle_alpha 90.000000
_cell_angle_beta 123.430129
_cell_angle_gamma 90.000000
_cell_volume 2009.659912
_symmetry_space_group_name_H-M "C 2/C"
_symmetry_group_IT_number 15
_symmetry_cell_setting 'monoclinic'
loop_
_space_group_symop_operation_xyz
x,y,z
-x,y,1/2-z
-x,-y,-z
x,-y,1/2+z
1/2+x,1/2+y,z
1/2-x,1/2+y,1/2-z
1/2-x,1/2-y,-z
1/2+x,1/2-y,1/2+z
loop_
_atom_site_type_symbol
_atom_site_label
_atom_site_fract_x
_atom_site_fract_y
_atom_site_fract_z
Si Si1 0.893423 0.125070 0.292555
Si Si2 0.136451 0.685379 0.415072
Si Si3 0.733690 0.101171 0.775508
Si Si4 0.401214 0.988856 0.276003
Si Si5 0.806561 0.225788 0.258571
Si Si6 0.635838 0.542996 0.908871
O O1 0.902686 0.181520 0.347753
O O2 0.883992 0.087501 0.460497
O O3 0.000000 0.112129 0.250000
O O4 0.770720 0.120637 0.028954
O O5 0.216756 0.645048 0.608088
O O6 0.132050 0.731664 0.551193
O O7 0.195508 0.703017 0.272110
O O8 0.000000 0.664454 0.250000
O O9 0.617673 0.067187 0.693103
O O10 0.832150 0.066789 0.769747
O O11 0.434034 0.006793 0.555526
O O12 0.261636 0.014529 0.105534
O O13 0.750000 0.250000 0.000000
O O14 0.500000 0.517583 0.750000
#
# Coordination Sequence:
#
# PCOD9306333 Si02
#       6
#     8   8   8   8   8   8
#     4  12  26  45  75 108 147 198 248 310 383 453
#     4  11  27  44  74 107 148 198 244 308 381 453
#     4  12  26  48  72 111 152 193 251 310 384 455
#     4  12  27  49  76 108 151 201 250 318 389 453
#     4  11  25  47  69 107 150 190 252 307 375 454
#     4  12  27  50  77 110 153 200 257 320 383 458
#
# _framework density 23.884636
#
# number of rings (size 3 to 8) (size 9 to 14) (size 15 to 20)
#    0.000    0.333    6.667    1.000    4.667    3.333 
#    0.000    0.000    0.000    0.000    0.000    0.000 
#    0.000    0.000    0.000    0.000    0.000    0.000 
#
# Total GULP energy -134045.295674 kJ/mol
# GULP energy per Si atom -5585.220653 kJ/mol
# Density = 2.383027 g / cm^3
# Si number density = 23.884636 Si / 1000 Ang^3
#
#
#
# Elastic Constant Matrix: (Units=GPa)
#
#
# Indices 1 2 3 4 5 6 
#
# 1 113.7538 47.3133 44.7764 0.0000 -5.8833 0.0000
# 2 47.3133 122.0103 36.7519 0.0000 -11.6875 0.0000
# 3 44.7764 36.7519 123.2280 0.0000 -6.6775 0.0000
# 4 0.0000 0.0000 0.0000 29.6486 0.0000 -12.6094
# 5 -5.8833 -11.6875 -6.6775 0.0000 51.3375 0.0000
# 6 0.0000 0.0000 0.0000 -12.6094 0.0000 31.9771
#
#
#
# Elastic Compliance Matrix: (Units=1/GPa)
#
#
# Indices 1 2 3 4 5 6 
#
# 1 0.011482 -0.003501 -0.003122 0.000000 0.000113 0.000000
# 2 -0.003501 0.010225 -0.001685 0.000000 0.001707 0.000000
# 3 -0.003122 -0.001685 0.009781 0.000000 0.000531 0.000000
# 4 0.000000 0.000000 0.000000 0.040525 0.000000 0.015980
# 5 0.000113 0.001707 0.000531 0.000000 0.019950 0.000000
# 6 0.000000 0.000000 0.000000 0.015980 0.000000 0.037574
#
#
# Mechanical properties :
#
#
# Convention : Reuss Voigt Hill
#
# Bulk Modulus (GPa) = 67.24176 68.51949 67.88062
# Shear Modulus (GPa) = 33.08897 37.93602 35.51249
#
# Velocity S-wave (km/s) = 3.72609 3.98967 3.86013
# Velocity P-wave (km/s) = 6.83560 7.06918 6.95337
#
# Compressibility (1/GPa) = 0.01487171
#
# Stress axis : x y z
#
# Youngs Moduli (GPa) = 87.09419 97.80145 102.24352
#
# Poissons Ratio (x) = 0.34243 0.31918
# Poissons Ratio (y) = 0.30494 0.17225
# Poissons Ratio (z) = 0.27188 0.16477
#
# Static dielectric constant tensor:
#      x y z
#    x 1.988540 0.000000 0.040040 
#    y 0.000000 1.863550 0.000000 
#    z 0.040040 0.000000 2.018750 
# 
# From -- ./inp_files/8941.got.cif
#   From: 2010.05.17/outbox.cif.g08.bks.cpg/sg15_5_cif.got.tgz:8941.got - 2010.06.03 18:47:42.
