data_PCOD9306243
_publ_section_title
;
Structure prediction by ZEFSAII (Michael W. Deem and Ramdas Pophale) SiO2 
 PCOD9306243
Probable space group: C 2/C
;
_chemical_formula_sum "Si O2"
_cell_formula_units_Z 52
_cell_length_a 14.682620
_cell_length_b 7.684152
_cell_length_c 24.351989
_cell_angle_alpha 90.000000
_cell_angle_beta 129.177636
_cell_angle_gamma 90.000000
_cell_volume 2129.819200
_symmetry_space_group_name_H-M "C 2/C"
_symmetry_group_IT_number 15
_symmetry_cell_setting 'monoclinic'
loop_
_space_group_symop_operation_xyz
x,y,z
-x,y,1/2-z
-x,-y,-z
x,-y,1/2+z
1/2+x,1/2+y,z
1/2-x,1/2+y,1/2-z
1/2-x,1/2-y,-z
1/2+x,1/2-y,1/2+z
loop_
_atom_site_type_symbol
_atom_site_label
_atom_site_fract_x
_atom_site_fract_y
_atom_site_fract_z
Si Si1 0.732730 0.794283 0.318057
Si Si2 0.967741 0.731293 0.356977
Si Si3 0.261560 0.306182 0.840127
Si Si4 0.000000 0.719634 0.250000
Si Si5 0.667683 0.814542 0.017590
Si Si6 0.450735 0.354328 0.824280
Si Si7 0.778042 0.188068 0.070889
O O1 0.832660 0.703169 0.319841
O O2 0.615801 0.692107 0.257227
O O3 0.771516 0.785904 0.395721
O O4 0.723706 0.000322 0.306474
O O5 0.012288 0.644380 0.317054
O O6 0.042917 0.682167 0.439204
O O7 0.969699 0.941184 0.346502
O O8 0.135053 0.205471 0.794706
O O9 0.319197 0.299124 0.922542
O O10 0.366754 0.261912 0.837899
O O11 0.722079 0.998298 0.054985
O O12 0.750000 0.750000 0.000000
O O13 0.582556 0.290296 0.871971
O O14 0.750000 0.250000 0.000000
#
# Coordination Sequence:
#
# PCOD9306243 Si02
#       7
#     8   8   8   4   8   8   8
#     4  11  27  46  67 109 142 185 237 300 358 412
#     4  11  26  45  75 101 142 187 243 287 357 433
#     4  11  26  43  74 100 143 191 239 291 357 430
#     4  12  22  44  68 106 130 190 242 288 346 428
#     4  12  24  47  71 103 138 194 237 290 352 439
#     4  11  25  46  70 104 146 187 234 297 358 425
#     4  12  28  46  73 105 145 189 238 301 367 418
#
# _framework density 24.415217999999999
#
# number of rings (size 3 to 8) (size 9 to 14) (size 15 to 20)
#    0.000    0.615    4.615    1.385    8.615    1.846 
#    0.000    0.000    0.000    0.000    0.000    0.000 
#    0.000    0.000    0.000    0.000    0.000    0.000 
#
# Total GULP energy -145118.519610 kJ/mol
# GULP energy per Si atom -5581.481523 kJ/mol
# Density = 2.435965 g / cm^3
# Si number density = 24.415218 Si / 1000 Ang^3
#
#
#
# Elastic Constant Matrix: (Units=GPa)
#
#
# Indices 1 2 3 4 5 6 
#
# 1 133.8631 17.1946 53.0930 0.0000 -9.4167 0.0000
# 2 17.1946 72.8688 20.7013 0.0000 -0.7268 0.0000
# 3 53.0930 20.7013 155.9727 0.0000 -2.7036 0.0000
# 4 0.0000 0.0000 0.0000 35.1393 0.0000 -10.0965
# 5 -9.4167 -0.7268 -2.7036 0.0000 53.1539 0.0000
# 6 0.0000 0.0000 0.0000 -10.0965 0.0000 11.5221
#
#
#
# Elastic Compliance Matrix: (Units=1/GPa)
#
#
# Indices 1 2 3 4 5 6 
#
# 1 0.008851 -0.001274 -0.002820 0.000000 0.001407 0.000000
# 2 -0.001274 0.014445 -0.001485 0.000000 -0.000104 0.000000
# 3 -0.002820 -0.001485 0.007566 0.000000 -0.000135 0.000000
# 4 0.000000 0.000000 0.000000 0.038035 0.000000 0.033329
# 5 0.001407 -0.000104 -0.000135 0.000000 0.019054 0.000000
# 6 0.000000 0.000000 0.000000 0.033329 0.000000 0.115995
#
#
# Mechanical properties :
#
#
# Convention : Reuss Voigt Hill
#
# Bulk Modulus (GPa) = 50.74881 60.52025 55.63453
# Shear Modulus (GPa) = 22.55594 38.07743 30.31668
#
# Velocity S-wave (km/s) = 3.04278 3.95343 3.52762
# Velocity P-wave (km/s) = 5.75982 6.75879 6.27920
#
# Compressibility (1/GPa) = 0.01970490
#
# Stress axis : x y z
#
# Youngs Moduli (GPa) = 112.97933 69.22914 132.17111
#
# Poissons Ratio (x) = 0.08817 0.37266
# Poissons Ratio (y) = 0.14389 0.19633
# Poissons Ratio (z) = 0.31855 0.10284
#
# Static dielectric constant tensor:
#      x y z
#    x 1.995540 0.000000 -0.019490 
#    y 0.000000 1.972450 0.000000 
#    z -0.019490 0.000000 1.898960 
# 
# From -- ./inp_files/295297.got.cif
#   From: 2010.05.17/outbox.cif.g08.bks.cpg/sg15_148_cif.got.tgz:295297.got - 2010.06.03 18:47:42.
