data_PCOD9306345
_publ_section_title
;
Structure prediction by ZEFSAII (Michael W. Deem and Ramdas Pophale) SiO2 
 PCOD9306345
Probable space group: C 2/C
;
_chemical_formula_sum "Si O2"
_cell_formula_units_Z 48
_cell_length_a 5.826001
_cell_length_b 27.907545
_cell_length_c 13.846642
_cell_angle_alpha 90.000000
_cell_angle_beta 65.813791
_cell_angle_gamma 90.000000
_cell_volume 2053.693604
_symmetry_space_group_name_H-M "C 2/C"
_symmetry_group_IT_number 15
_symmetry_cell_setting 'monoclinic'
loop_
_space_group_symop_operation_xyz
x,y,z
-x,y,1/2-z
-x,-y,-z
x,-y,1/2+z
1/2+x,1/2+y,z
1/2-x,1/2+y,1/2-z
1/2-x,1/2-y,-z
1/2+x,1/2-y,1/2+z
loop_
_atom_site_type_symbol
_atom_site_label
_atom_site_fract_x
_atom_site_fract_y
_atom_site_fract_z
Si Si1 0.053105 0.253404 0.841256
Si Si2 0.407252 0.111377 0.944926
Si Si3 0.950443 0.856860 0.654702
Si Si4 0.500000 0.930465 0.750000
Si Si5 0.690324 0.005068 0.558913
Si Si6 0.702062 0.178499 0.004830
Si Si7 0.000000 0.318402 0.250000
O O1 0.274835 0.218247 0.777634
O O2 0.000000 0.279275 0.750000
O O3 0.056484 0.293423 0.924030
O O4 0.843913 0.215352 0.912192
O O5 0.370537 0.059996 0.903111
O O6 0.424009 0.149510 0.855046
O O7 0.652589 0.127075 0.965422
O O8 0.185690 0.116897 0.062181
O O9 0.739112 0.895783 0.721798
O O10 0.848183 0.827057 0.580279
O O11 0.000000 0.831789 0.750000
O O12 0.584085 0.965421 0.649710
O O13 0.500000 0.000000 0.500000
O O14 0.000000 0.000000 0.500000
#
# Coordination Sequence:
#
# PCOD9306345 Si02
#       7
#     8   8   8   4   8   8   4
#     4  11  25  47  71 106 152 192 258 312 389 464
#     4  12  26  47  78 111 149 200 259 313 390 465
#     4  12  25  45  75 110 148 194 259 310 383 464
#     4  12  27  50  74 114 154 200 250 324 391 456
#     4  12  27  50  78 114 158 201 258 323 389 471
#     4  11  26  47  72 108 151 199 246 328 379 458
#     4  12  25  48  74 108 146 202 250 314 383 464
#
# _framework density 23.372522
#
# number of rings (size 3 to 8) (size 9 to 14) (size 15 to 20)
#    0.000    0.333    5.000    3.500    3.500    2.000 
#    0.000    0.000    0.000    0.000    0.000    0.000 
#    0.000    0.000    0.000    0.000    0.000    0.000 
#
# Total GULP energy -133891.705586 kJ/mol
# GULP energy per Si atom -5578.821066 kJ/mol
# Density = 2.331932 g / cm^3
# Si number density = 23.372522 Si / 1000 Ang^3
#
#
#
# Elastic Constant Matrix: (Units=GPa)
#
#
# Indices 1 2 3 4 5 6 
#
# 1 70.6679 8.6980 42.6950 0.0000 10.5592 0.0000
# 2 8.6980 88.7085 15.9387 0.0000 -0.3796 0.0000
# 3 42.6950 15.9387 137.7282 0.0000 -3.0384 0.0000
# 4 0.0000 0.0000 0.0000 66.0563 0.0000 0.0144
# 5 10.5592 -0.3796 -3.0384 0.0000 44.2766 0.0000
# 6 0.0000 0.0000 0.0000 0.0144 0.0000 30.8772
#
#
#
# Elastic Compliance Matrix: (Units=1/GPa)
#
#
# Indices 1 2 3 4 5 6 
#
# 1 0.018424 -0.000798 -0.005725 0.000000 -0.004793 0.000000
# 2 -0.000798 0.011547 -0.001084 0.000000 0.000215 0.000000
# 3 -0.005725 -0.001084 0.009205 0.000000 0.001988 0.000000
# 4 0.000000 0.000000 0.000000 0.015139 0.000000 -0.000007
# 5 -0.004793 0.000215 0.001988 0.000000 0.023867 0.000000
# 6 0.000000 0.000000 0.000000 -0.000007 0.000000 0.032386
#
#
# Mechanical properties :
#
#
# Convention : Reuss Voigt Hill
#
# Bulk Modulus (GPa) = 41.73429 47.97422 44.85425
# Shear Modulus (GPa) = 37.37812 43.56022 40.46917
#
# Velocity S-wave (km/s) = 4.00338 4.32178 4.16563
# Velocity P-wave (km/s) = 6.26612 6.74346 6.50917
#
# Compressibility (1/GPa) = 0.02396111
#
# Stress axis : x y z
#
# Youngs Moduli (GPa) = 54.27753 86.60371 108.64151
#
# Poissons Ratio (x) = 0.06915 0.62193
# Poissons Ratio (y) = 0.04334 0.11777
# Poissons Ratio (z) = 0.31072 0.09388
#
# Static dielectric constant tensor:
#      x y z
#    x 1.880820 0.000000 0.175080 
#    y 0.000000 1.966880 0.000000 
#    z 0.175080 0.000000 1.677980 
# 
# From -- ./inp_files/130644.got.cif
#   From: 2010.05.17/outbox.cif.g08.bks.cpg/sg15_66_cif.got.tgz:130644.got - 2010.06.03 18:47:42.
