data_PCOD9306873
_publ_section_title
;
Structure prediction by ZEFSAII (Michael W. Deem and Ramdas Pophale) SiO2 
 PCOD9306873
Probable space group: C 2/C
;
_chemical_formula_sum "Si O2"
_cell_formula_units_Z 32
_cell_length_a 13.241925
_cell_length_b 4.692130
_cell_length_c 18.810954
_cell_angle_alpha 90.000000
_cell_angle_beta 78.618388
_cell_angle_gamma 90.000000
_cell_volume 1145.793341
_symmetry_space_group_name_H-M "C 2/C"
_symmetry_group_IT_number 15
_symmetry_cell_setting 'monoclinic'
loop_
_space_group_symop_operation_xyz
x,y,z
-x,y,1/2-z
-x,-y,-z
x,-y,1/2+z
1/2+x,1/2+y,z
1/2-x,1/2+y,1/2-z
1/2-x,1/2-y,-z
1/2+x,1/2-y,1/2+z
loop_
_atom_site_type_symbol
_atom_site_label
_atom_site_fract_x
_atom_site_fract_y
_atom_site_fract_z
Si Si1 0.351632 0.154401 0.395176
Si Si2 0.351538 0.984667 0.552577
Si Si3 0.552744 0.538165 0.383819
Si Si4 0.321220 0.173427 0.757103
O O1 0.250178 0.351096 0.405838
O O2 0.448645 0.366207 0.385404
O O3 0.096188 0.170280 0.304453
O O4 0.360433 0.945985 0.326573
O O5 0.341365 0.979220 0.469437
O O6 0.445071 0.194564 0.562926
O O7 0.372407 0.685290 0.586461
O O8 0.226752 0.393978 0.772958
#
# Coordination Sequence:
#
# PCOD9306873 Si02
#       4
#     8   8   8   8
#     4  11  28  55  92 122 166 231 281 351 436 492
#     4  11  27  54  90 125 168 212 298 356 414 511
#     4  12  27  55  85 126 166 219 285 357 422 513
#     4  12  28  55  82 123 183 225 281 357 430 513
#
# _framework density 27.928245
#
# number of rings (size 3 to 8) (size 9 to 14) (size 15 to 20)
#    0.000    0.500    2.500    3.000    0.000   10.000 
#    9.000    2.500    0.000    0.000    0.000    0.000 
#    0.000    0.000    0.000    0.000    0.000    0.000 
#
# Total GULP energy -90007.579185 kJ/mol
# GULP energy per Si atom -5625.473699 kJ/mol
# Density = 2.786468 g / cm^3
# Si number density = 27.928245 Si / 1000 Ang^3
#
#
#
# Elastic Constant Matrix: (Units=GPa)
#
#
# Indices 1 2 3 4 5 6 
#
# 1 140.2597 72.8402 65.3964 0.0000 7.8870 0.0000
# 2 72.8402 221.2221 98.1154 0.0000 19.4193 0.0000
# 3 65.3964 98.1154 238.1829 0.0000 49.6608 0.0000
# 4 0.0000 0.0000 0.0000 72.0990 0.0000 6.3728
# 5 7.8870 19.4193 49.6608 0.0000 39.0323 0.0000
# 6 0.0000 0.0000 0.0000 6.3728 0.0000 72.2630
#
#
#
# Elastic Compliance Matrix: (Units=1/GPa)
#
#
# Indices 1 2 3 4 5 6 
#
# 1 0.009124 -0.002306 -0.001919 0.000000 0.001745 0.000000
# 2 -0.002306 0.006115 -0.001835 0.000000 -0.000241 0.000000
# 3 -0.001919 -0.001835 0.007091 0.000000 -0.007721 0.000000
# 4 0.000000 0.000000 0.000000 0.013979 0.000000 -0.001233
# 5 0.001745 -0.000241 -0.007721 0.000000 0.035211 0.000000
# 6 0.000000 0.000000 0.000000 -0.001233 0.000000 0.013947
#
#
# Mechanical properties :
#
#
# Convention : Reuss Voigt Hill
#
# Bulk Modulus (GPa) = 97.95525 119.15208 108.55367
# Shear Modulus (GPa) = 49.50924 60.89972 55.20448
#
# Velocity S-wave (km/s) = 4.21495 4.67473 4.45078
# Velocity P-wave (km/s) = 7.67058 8.47902 8.08491
#
# Compressibility (1/GPa) = 0.01020874
#
# Stress axis : x y z
#
# Youngs Moduli (GPa) = 109.60208 163.53406 141.01761
#
# Poissons Ratio (x) = 0.37716 0.27061
# Poissons Ratio (y) = 0.25277 0.25883
# Poissons Ratio (z) = 0.21032 0.30016
#
# Static dielectric constant tensor:
#      x y z
#    x 2.211610 0.000000 -0.033440 
#    y 0.000000 2.093470 0.000000 
#    z -0.033440 0.000000 2.186070 
# 
# From -- ./inp_files/4060.got.cif
#   From: 2010.05.17/outbox.cif.g08.bks.cpg/sg15_3_cif.got.tgz:4060.got - 2010.06.03 18:47:42.
