data_PCOD9306169
_publ_section_title
;
Structure prediction by ZEFSAII (Michael W. Deem and Ramdas Pophale) SiO2 
 PCOD9306169
Probable space group: C 2/C
;
_chemical_formula_sum "Si O2"
_cell_formula_units_Z 40
_cell_length_a 20.422596
_cell_length_b 6.438983
_cell_length_c 19.115857
_cell_angle_alpha 90.000000
_cell_angle_beta 49.727733
_cell_angle_gamma 90.000000
_cell_volume 1917.943882
_symmetry_space_group_name_H-M "C 2/C"
_symmetry_group_IT_number 15
_symmetry_cell_setting 'monoclinic'
loop_
_space_group_symop_operation_xyz
x,y,z
-x,y,1/2-z
-x,-y,-z
x,-y,1/2+z
1/2+x,1/2+y,z
1/2-x,1/2+y,1/2-z
1/2-x,1/2-y,-z
1/2+x,1/2-y,1/2+z
loop_
_atom_site_type_symbol
_atom_site_label
_atom_site_fract_x
_atom_site_fract_y
_atom_site_fract_z
Si Si1 0.039665 0.582374 0.899799
Si Si2 0.839819 0.039670 0.135080
Si Si3 0.662088 0.237918 0.236393
Si Si4 0.787208 0.057214 0.930222
Si Si5 0.634291 0.750707 0.010580
O O1 0.100856 0.770936 0.881531
O O2 0.092246 0.414052 0.818578
O O3 0.000000 0.500000 0.000000
O O4 0.958095 0.652587 0.910791
O O5 0.750523 0.115038 0.164523
O O6 0.819715 0.909504 0.217796
O O7 0.878749 0.886871 0.050182
O O8 0.648267 0.354072 0.172833
O O9 0.707403 0.928337 0.951128
O O10 0.750000 0.250000 0.000000
O O11 0.833822 0.899008 0.950082
#
# Coordination Sequence:
#
# PCOD9306169 Si02
#       5
#     8   8   8   8   8
#     4  12  26  42  72 107 139 177 236 299 352 409
#     4  12  23  44  74 102 134 177 239 292 347 417
#     4  12  24  41  72 105 135 183 236 285 351 426
#     4  11  25  46  74  96 145 192 228 281 359 429
#     4  11  25  45  72 104 140 186 236 290 355 419
#
# _framework density 20.855665999999999
#
# number of rings (size 3 to 8) (size 9 to 14) (size 15 to 20)
#    0.000    0.400    6.000    3.000    0.000    0.000 
#    0.000    6.000    0.000    0.000    0.000    0.000 
#    0.000    0.000    0.000    0.000    0.000    0.000 
#
# Total GULP energy -111842.982116 kJ/mol
# GULP energy per Si atom -5592.149106 kJ/mol
# Density = 2.080820 g / cm^3
# Si number density = 20.855666 Si / 1000 Ang^3
#
#
#
# Elastic Constant Matrix: (Units=GPa)
#
#
# Indices 1 2 3 4 5 6 
#
# 1 69.1368 31.0946 33.3375 -0.0002 -5.5368 -0.0003
# 2 31.0946 103.4051 43.9160 -0.0009 -1.3155 -0.0016
# 3 33.3375 43.9160 83.1534 -0.0001 4.1550 -0.0005
# 4 -0.0002 -0.0009 -0.0001 48.9114 0.0004 2.0259
# 5 -5.5368 -1.3155 4.1550 0.0004 37.6092 0.0002
# 6 -0.0003 -0.0016 -0.0005 2.0259 0.0002 27.1146
#
#
#
# Elastic Compliance Matrix: (Units=1/GPa)
#
#
# Indices 1 2 3 4 5 6 
#
# 1 0.019110 -0.003065 -0.006212 0.000000 0.003392 0.000000
# 2 -0.003065 0.013010 -0.005674 0.000000 0.000631 0.000001
# 3 -0.006212 -0.005674 0.017666 0.000000 -0.003065 0.000000
# 4 0.000000 0.000000 0.000000 0.020509 0.000000 -0.001532
# 5 0.003392 0.000631 -0.003065 0.000000 0.027449 0.000000
# 6 0.000000 0.000001 0.000000 -0.001532 0.000000 0.036995
#
#
# Mechanical properties :
#
#
# Convention : Reuss Voigt Hill
#
# Bulk Modulus (GPa) = 50.29137 52.48795 51.38966
# Shear Modulus (GPa) = 29.19390 32.55018 30.87204
#
# Velocity S-wave (km/s) = 3.74546 3.95490 3.85160
# Velocity P-wave (km/s) = 6.54759 6.78799 6.66888
#
# Compressibility (1/GPa) = 0.01988413
#
# Stress axis : x y z
#
# Youngs Moduli (GPa) = 52.32930 76.86390 56.60541
#
# Poissons Ratio (x) = 0.23558 0.35164
# Poissons Ratio (y) = 0.16039 0.32116
# Poissons Ratio (z) = 0.32508 0.43611
#
# Static dielectric constant tensor:
#      x y z
#    x 1.440170 0.000070 0.473080 
#    y 0.000070 1.828180 -0.000100 
#    z 0.473080 -0.000100 1.013240 
# 
# From -- ./inp_files/251003.got.cif
#   From: 2010.05.17/outbox.cif.g08.bks.cpg/sg15_126_cif.got.tgz:251003.got - 2010.06.03 18:47:42.
