data_PCOD9306456
_publ_section_title
;
Structure prediction by ZEFSAII (Michael W. Deem and Ramdas Pophale) SiO2 
 PCOD9306456
Probable space group: C 2/C
;
_chemical_formula_sum "Si O2"
_cell_formula_units_Z 24
_cell_length_a 18.524962
_cell_length_b 7.095690
_cell_length_c 9.361486
_cell_angle_alpha 90.000000
_cell_angle_beta 43.415476
_cell_angle_gamma 90.000000
_cell_volume 845.732110
_symmetry_space_group_name_H-M "C 2/C"
_symmetry_group_IT_number 15
_symmetry_cell_setting 'monoclinic'
loop_
_space_group_symop_operation_xyz
x,y,z
-x,y,1/2-z
-x,-y,-z
x,-y,1/2+z
1/2+x,1/2+y,z
1/2-x,1/2+y,1/2-z
1/2-x,1/2-y,-z
1/2+x,1/2-y,1/2+z
loop_
_atom_site_type_symbol
_atom_site_label
_atom_site_fract_x
_atom_site_fract_y
_atom_site_fract_z
Si Si1 0.121473 0.015842 0.981646
Si Si2 0.552810 0.806692 0.378013
Si Si3 0.744630 0.033448 0.962228
O O1 0.232040 0.029755 0.738873
O O2 0.081548 0.815382 0.979533
O O3 0.042855 0.180809 0.050001
O O4 0.148324 0.030758 0.109572
O O5 0.650575 0.900064 0.146873
O O6 0.500000 0.000000 0.500000
O O7 0.750000 0.250000 0.000000
#
# Coordination Sequence:
#
# PCOD9306456 Si02
#       3
#     8   8   8
#     4  11  27  52  76 120 161 204 271 333 406 491
#     4  11  25  48  78 117 154 213 264 329 403 484
#     4  12  25  53  82 114 165 212 265 336 410 484
#
# _framework density 28.377779
#
# number of rings (size 3 to 8) (size 9 to 14) (size 15 to 20)
#    0.000    0.667    3.333    3.000    0.000    5.333 
#   24.000    0.000    0.000    0.000    0.000    0.000 
#    0.000    0.000    0.000    0.000    0.000    0.000 
#
# Total GULP energy -67198.813042 kJ/mol
# GULP energy per Si atom -5599.901087 kJ/mol
# Density = 2.831319 g / cm^3
# Si number density = 28.377779 Si / 1000 Ang^3
#
#
#
# Elastic Constant Matrix: (Units=GPa)
#
#
# Indices 1 2 3 4 5 6 
#
# 1 95.3465 27.7959 18.4624 0.0000 -16.9758 0.0000
# 2 27.7959 264.4040 28.2309 0.0000 -44.7720 0.0000
# 3 18.4624 28.2309 161.6008 0.0000 -28.1172 0.0000
# 4 0.0000 0.0000 0.0000 39.8755 0.0000 -16.4908
# 5 -16.9758 -44.7720 -28.1172 0.0000 49.1094 0.0000
# 6 0.0000 0.0000 0.0000 -16.4908 0.0000 46.4633
#
#
#
# Elastic Compliance Matrix: (Units=1/GPa)
#
#
# Indices 1 2 3 4 5 6 
#
# 1 0.011326 -0.000616 -0.000670 0.000000 0.002970 0.000000
# 2 -0.000616 0.004507 -0.000043 0.000000 0.003871 0.000000
# 3 -0.000670 -0.000043 0.006914 0.000000 0.003687 0.000000
# 4 0.000000 0.000000 0.000000 0.029392 0.000000 0.010432
# 5 0.002970 0.003871 0.003687 0.000000 0.027030 0.000000
# 6 0.000000 0.000000 0.000000 0.010432 0.000000 0.025225
#
#
# Mechanical properties :
#
#
# Convention : Reuss Voigt Hill
#
# Bulk Modulus (GPa) = 49.78008 74.48107 62.13057
# Shear Modulus (GPa) = 43.95671 56.88047 50.41859
#
# Velocity S-wave (km/s) = 3.93998 4.48191 4.21966
# Velocity P-wave (km/s) = 6.18692 7.28606 6.75887
#
# Compressibility (1/GPa) = 0.02008836
#
# Stress axis : x y z
#
# Youngs Moduli (GPa) = 88.29121 221.87674 144.63950
#
# Poissons Ratio (x) = 0.13674 0.09685
# Poissons Ratio (y) = 0.05441 0.00628
# Poissons Ratio (z) = 0.05912 0.00963
#
# Static dielectric constant tensor:
#      x y z
#    x 2.258540 0.000000 -0.111680 
#    y 0.000000 2.399010 0.000000 
#    z -0.111680 0.000000 2.417360 
# 
# From -- ./inp_files/115180.got.cif
#   From: 2010.05.17/outbox.cif.g08.bks.cpg/sg15_58_cif.got.tgz:115180.got - 2010.06.03 18:47:42.
