data_PCOD9306923
_publ_section_title
;
Structure prediction by ZEFSAII (Michael W. Deem and Ramdas Pophale) SiO2 
 PCOD9306923
Probable space group: C 2/C
;
_chemical_formula_sum "Si O2"
_cell_formula_units_Z 44
_cell_length_a 17.994887
_cell_length_b 22.380298
_cell_length_c 11.906399
_cell_angle_alpha 90.000000
_cell_angle_beta 149.667944
_cell_angle_gamma 90.000000
_cell_volume 2421.563795
_symmetry_space_group_name_H-M "C 2/C"
_symmetry_group_IT_number 15
_symmetry_cell_setting 'monoclinic'
loop_
_space_group_symop_operation_xyz
x,y,z
-x,y,1/2-z
-x,-y,-z
x,-y,1/2+z
1/2+x,1/2+y,z
1/2-x,1/2+y,1/2-z
1/2-x,1/2-y,-z
1/2+x,1/2-y,1/2+z
loop_
_atom_site_type_symbol
_atom_site_label
_atom_site_fract_x
_atom_site_fract_y
_atom_site_fract_z
Si Si1 0.330016 0.692926 0.553452
Si Si2 0.247727 0.037158 0.446417
Si Si3 0.432797 0.933100 0.399838
Si Si4 0.742677 0.396662 0.704498
Si Si5 0.000000 0.975730 0.250000
Si Si6 0.834231 0.597755 0.005612
O O1 0.500000 0.704436 0.750000
O O2 0.250000 0.750000 0.500000
O O3 0.287246 0.670455 0.372930
O O4 0.282566 0.639239 0.579946
O O5 0.343823 0.068218 0.668262
O O6 0.237983 0.077402 0.323391
O O7 0.087048 0.018366 0.278943
O O8 0.320464 0.971808 0.522800
O O9 0.586654 0.899835 0.606266
O O10 0.328845 0.909090 0.363805
O O11 0.500000 0.000000 0.500000
O O12 0.622557 0.436613 0.477447
O O13 0.000000 0.618820 0.250000
#
# Coordination Sequence:
#
# PCOD9306923 Si02
#       6
#     8   8   8   8   4   8
#     4  12  26  44  65  91 119 165 218 274 317 365
#     4  12  22  34  59  95 138 167 201 251 321 389
#     4  12  20  35  58  95 131 171 203 247 314 390
#     4  12  22  37  60  91 128 164 215 256 316 372
#     4  12  20  36  52  92 138 176 194 256 320 378
#     4  12  19  36  60  90 129 164 209 253 304 376
#
# _framework density 18.170076999999999
#
# number of rings (size 3 to 8) (size 9 to 14) (size 15 to 20)
#    0.000    0.000   10.000    1.636    0.000    1.455 
#    0.000    0.000    0.000    1.091    0.000    0.000 
#    0.000    0.000    0.000    0.000    0.000    0.000 
#
# Total GULP energy -122477.904466 kJ/mol
# GULP energy per Si atom -5567.177476 kJ/mol
# Density = 1.812872 g / cm^3
# Si number density = 18.170077 Si / 1000 Ang^3
#
#
#
# Elastic Constant Matrix: (Units=GPa)
#
#
# Indices 1 2 3 4 5 6 
#
# 1 128.5602 38.8446 57.2291 0.0000 3.5880 0.0000
# 2 38.8446 73.4262 37.4404 0.0000 -1.8903 0.0000
# 3 57.2291 37.4404 101.3311 0.0000 -6.4904 0.0000
# 4 0.0000 0.0000 0.0000 8.3870 0.0000 2.6949
# 5 3.5880 -1.8903 -6.4904 0.0000 46.3008 0.0000
# 6 0.0000 0.0000 0.0000 2.6949 0.0000 30.9474
#
#
#
# Elastic Compliance Matrix: (Units=1/GPa)
#
#
# Indices 1 2 3 4 5 6 
#
# 1 0.011126 -0.003290 -0.005178 0.000000 -0.001722 0.000000
# 2 -0.003290 0.017755 -0.004682 0.000000 0.000324 0.000000
# 3 -0.005178 -0.004682 0.014668 0.000000 0.002266 0.000000
# 4 0.000000 0.000000 0.000000 0.122664 0.000000 -0.010681
# 5 -0.001722 0.000324 0.002266 0.000000 0.022062 0.000000
# 6 0.000000 0.000000 0.000000 -0.010681 0.000000 0.033243
#
#
# Mechanical properties :
#
#
# Convention : Reuss Voigt Hill
#
# Bulk Modulus (GPa) = 57.97219 63.37174 60.67197
# Shear Modulus (GPa) = 19.71865 28.44727 24.08296
#
# Velocity S-wave (km/s) = 3.29785 3.96107 3.64458
# Velocity P-wave (km/s) = 6.81731 7.47481 7.15362
#
# Compressibility (1/GPa) = 0.01724965
#
# Stress axis : x y z
#
# Youngs Moduli (GPa) = 89.88235 56.32237 68.17492
#
# Poissons Ratio (x) = 0.18528 0.35303
# Poissons Ratio (y) = 0.29568 0.31916
# Poissons Ratio (z) = 0.46544 0.26368
#
# Static dielectric constant tensor:
#      x y z
#    x 1.662100 0.000000 0.037440 
#    y 0.000000 1.691630 0.000000 
#    z 0.037440 0.000000 1.369660 
# 
# From -- ./inp_files/89222.got.cif
#   From: 2010.05.17/outbox.cif.g08.bks.cpg/sg15_45_cif.got.tgz:89222.got - 2010.06.03 18:47:42.
