data_PCOD9306356
_publ_section_title
;
Structure prediction by ZEFSAII (Michael W. Deem and Ramdas Pophale) SiO2 
 PCOD9306356
Probable space group: C 2/C
;
_chemical_formula_sum "Si O2"
_cell_formula_units_Z 32
_cell_length_a 9.851450
_cell_length_b 12.440630
_cell_length_c 11.487845
_cell_angle_alpha 90.000000
_cell_angle_beta 77.478739
_cell_angle_gamma 90.000000
_cell_volume 1374.443377
_symmetry_space_group_name_H-M "C 2/C"
_symmetry_group_IT_number 15
_symmetry_cell_setting 'monoclinic'
loop_
_space_group_symop_operation_xyz
x,y,z
-x,y,1/2-z
-x,-y,-z
x,-y,1/2+z
1/2+x,1/2+y,z
1/2-x,1/2+y,1/2-z
1/2-x,1/2-y,-z
1/2+x,1/2-y,1/2+z
loop_
_atom_site_type_symbol
_atom_site_label
_atom_site_fract_x
_atom_site_fract_y
_atom_site_fract_z
Si Si1 0.118402 0.738601 0.604530
Si Si2 0.000000 0.303364 0.750000
Si Si3 0.787743 0.882230 0.252438
Si Si4 0.000000 0.940812 0.750000
Si Si5 0.592307 0.105874 0.997201
O O1 0.250000 0.750000 0.500000
O O2 0.158847 0.647393 0.692791
O O3 0.087695 0.856290 0.659073
O O4 0.988529 0.701590 0.552714
O O5 0.117201 0.223439 0.776825
O O6 0.081801 0.369123 0.635900
O O7 0.733667 0.901036 0.395469
O O8 0.889373 0.981808 0.205656
O O9 0.500000 0.000000 0.000000
#
# Coordination Sequence:
#
# PCOD9306356 Si02
#       5
#     8   4   8   4   8
#     4  12  24  47  75 105 149 189 241 301 355 430
#     4  11  26  47  68 102 146 185 238 301 356 434
#     4  11  25  47  73 106 141 191 243 292 367 428
#     4  11  26  47  76 110 142 195 238 301 362 430
#     4  12  26  44  72 104 143 192 235 301 366 428
#
# _framework density 23.282153000000001
#
# number of rings (size 3 to 8) (size 9 to 14) (size 15 to 20)
#    0.000    0.500    5.000    2.250    3.500    1.000 
#    4.500    0.000    0.000    0.000    0.000    0.000 
#    0.000    0.000    0.000    0.000    0.000    0.000 
#
# Total GULP energy -89400.684571 kJ/mol
# GULP energy per Si atom -5587.542786 kJ/mol
# Density = 2.322916 g / cm^3
# Si number density = 23.282153 Si / 1000 Ang^3
#
#
#
# Elastic Constant Matrix: (Units=GPa)
#
#
# Indices 1 2 3 4 5 6 
#
# 1 63.8806 15.3431 16.1010 0.0000 -12.1017 0.0000
# 2 15.3431 134.4702 33.3244 0.0000 2.6262 0.0000
# 3 16.1010 33.3244 133.7443 0.0000 -29.4998 0.0000
# 4 0.0000 0.0000 0.0000 -57.7635 0.0000 6.7692
# 5 -12.1017 2.6262 -29.4998 0.0000 48.6493 0.0000
# 6 0.0000 0.0000 0.0000 6.7692 0.0000 33.5744
#
#
#
# Elastic Compliance Matrix: (Units=1/GPa)
#
#
# Indices 1 2 3 4 5 6 
#
# 1 0.017016 -0.001836 -0.000734 0.000000 0.003887 0.000000
# 2 -0.001836 0.008275 -0.002355 0.000000 -0.002331 0.000000
# 3 -0.000734 -0.002355 0.009397 0.000000 0.005643 0.000000
# 4 0.000000 0.000000 0.000000 -0.016912 0.000000 0.003410
# 5 0.003887 -0.002331 0.005643 0.000000 0.025070 0.000000
# 6 0.000000 0.000000 0.000000 0.003410 0.000000 0.029097
#
#
# Mechanical properties :
#
#
# Convention : Reuss Voigt Hill
#
# Bulk Modulus (GPa) = 40.25913 51.29247 45.77580
# Shear Modulus (GPa) = 55.51147 22.71383 39.11265
#
# Velocity S-wave (km/s) = 4.88822 3.12683 4.10316
# Velocity P-wave (km/s) = 7.01348 5.92577 6.49245
#
# Compressibility (1/GPa) = 0.02483909
#
# Stress axis : x y z
#
# Youngs Moduli (GPa) = 58.76682 120.84264 106.42047
#
# Poissons Ratio (x) = 0.22182 0.07809
# Poissons Ratio (y) = 0.10787 0.25064
# Poissons Ratio (z) = 0.04312 0.28460
#
# Static dielectric constant tensor:
#      x y z
#    x 1.908080 0.000000 0.032900 
#    y 0.000000 1.874600 0.000000 
#    z 0.032900 0.000000 1.957760 
# 
# From -- ./inp_files/83902.got.cif
#   From: 2010.05.17/outbox.cif.g08.bks.cpg/sg15_42_cif.got.tgz:83902.got - 2010.06.03 18:47:42.
