data_PCOD9306780
_publ_section_title
;
Structure prediction by ZEFSAII (Michael W. Deem and Ramdas Pophale) SiO2 
 PCOD9306780
Probable space group: C 2/C
;
_chemical_formula_sum "Si O2"
_cell_formula_units_Z 40
_cell_length_a 17.760357
_cell_length_b 5.082965
_cell_length_c 19.260717
_cell_angle_alpha 90.000000
_cell_angle_beta 124.293877
_cell_angle_gamma 90.000000
_cell_volume 1436.496732
_symmetry_space_group_name_H-M "C 2/C"
_symmetry_group_IT_number 15
_symmetry_cell_setting 'monoclinic'
loop_
_space_group_symop_operation_xyz
x,y,z
-x,y,1/2-z
-x,-y,-z
x,-y,1/2+z
1/2+x,1/2+y,z
1/2-x,1/2+y,1/2-z
1/2-x,1/2-y,-z
1/2+x,1/2-y,1/2+z
loop_
_atom_site_type_symbol
_atom_site_label
_atom_site_fract_x
_atom_site_fract_y
_atom_site_fract_z
Si Si1 0.798759 0.500685 0.749032
Si Si2 0.704774 0.491251 0.069207
Si Si3 0.500000 0.500000 0.500000
Si Si4 0.851592 0.135862 0.592194
Si Si5 0.500000 0.590005 0.250000
Si Si6 0.500840 0.049102 0.885639
O O1 0.759672 0.735696 0.775322
O O2 0.781660 0.616313 0.661689
O O3 0.899883 0.427044 0.826759
O O4 0.611709 0.512814 0.062190
O O5 0.756789 0.754246 0.071118
O O6 0.671707 0.402323 0.974332
O O7 0.491982 0.228140 0.543165
O O8 0.921858 0.325391 0.584537
O O9 0.911389 0.083300 0.691350
O O10 0.500188 0.763127 0.181754
#
# Coordination Sequence:
#
# PCOD9306780 Si02
#       6
#     8   8   4   8   4   8
#     4  12  29  51  82 122 167 215 272 347 422 493
#     4  11  26  51  76 119 158 216 273 346 414 502
#     4  12  26  50  74 120 162 210 276 346 412 492
#     4  11  27  50  79 114 163 220 279 343 418 501
#     4  12  24  50  80 116 160 216 288 334 422 494
#     4  12  28  50  82 118 164 222 275 349 417 500
#
# _framework density 27.84552
#
# number of rings (size 3 to 8) (size 9 to 14) (size 15 to 20)
#    0.000    0.400    4.000    3.000    8.400    3.200 
#    3.600    0.000    0.000    0.000    0.000    0.000 
#    0.000    0.000    0.000    0.000    0.000    0.000 
#
# Total GULP energy -111349.740262 kJ/mol
# GULP energy per Si atom -5567.487013 kJ/mol
# Density = 2.778214 g / cm^3
# Si number density = 27.845520 Si / 1000 Ang^3
#
#
#
# Elastic Constant Matrix: (Units=GPa)
#
#
# Indices 1 2 3 4 5 6 
#
# 1 133.0896 56.1792 74.5511 0.0000 63.6241 -0.0001
# 2 56.1792 90.2480 55.6852 -0.0002 2.1971 -0.0009
# 3 74.5511 55.6852 168.5550 0.0001 8.3271 -0.0003
# 4 0.0000 -0.0002 0.0001 62.2462 0.0000 -1.5692
# 5 63.6241 2.1971 8.3271 0.0000 64.8957 0.0001
# 6 -0.0001 -0.0009 -0.0003 -1.5692 0.0001 32.9874
#
#
#
# Elastic Compliance Matrix: (Units=1/GPa)
#
#
# Indices 1 2 3 4 5 6 
#
# 1 0.033236 -0.014833 -0.008267 0.000000 -0.031022 0.000000
# 2 -0.014833 0.020539 -0.000915 0.000000 0.013965 0.000000
# 3 -0.008267 -0.000915 0.009550 0.000000 0.006911 0.000000
# 4 0.000000 0.000000 0.000000 0.016085 0.000000 0.000765
# 5 -0.031022 0.013965 0.006911 0.000000 0.044464 0.000000
# 6 0.000000 0.000000 0.000000 0.000765 0.000000 0.030351
#
#
# Mechanical properties :
#
#
# Convention : Reuss Voigt Hill
#
# Bulk Modulus (GPa) = 65.38114 84.96927 75.17521
# Shear Modulus (GPa) = 24.11355 45.72432 34.91893
#
# Velocity S-wave (km/s) = 2.94594 4.05664 3.54506
# Velocity P-wave (km/s) = 5.92472 7.24725 6.61910
#
# Compressibility (1/GPa) = 0.01529493
#
# Stress axis : x y z
#
# Youngs Moduli (GPa) = 30.08771 48.68903 104.71150
#
# Poissons Ratio (x) = 0.72221 0.86567
# Poissons Ratio (y) = 0.44630 0.09576
# Poissons Ratio (z) = 0.24874 0.04453
#
# Static dielectric constant tensor:
#      x y z
#    x 2.262200 0.000000 -0.045440 
#    y 0.000000 2.480110 0.000000 
#    z -0.045440 0.000000 2.268600 
# 
# From -- ./inp_files/251160.got.cif
#   From: 2010.05.17/outbox.cif.g08.bks.cpg/sg15_126_cif.got.tgz:251160.got - 2010.06.03 18:47:42.
