data_PCOD9306479
_publ_section_title
;
Structure prediction by ZEFSAII (Michael W. Deem and Ramdas Pophale) SiO2 
 PCOD9306479
Probable space group: C 2/C
;
_chemical_formula_sum "Si O2"
_cell_formula_units_Z 56
_cell_length_a 20.621117
_cell_length_b 14.154586
_cell_length_c 18.993585
_cell_angle_alpha 90.000000
_cell_angle_beta 152.745466
_cell_angle_gamma 90.000000
_cell_volume 2538.802554
_symmetry_space_group_name_H-M "C 2/C"
_symmetry_group_IT_number 15
_symmetry_cell_setting 'monoclinic'
loop_
_space_group_symop_operation_xyz
x,y,z
-x,y,1/2-z
-x,-y,-z
x,-y,1/2+z
1/2+x,1/2+y,z
1/2-x,1/2+y,1/2-z
1/2-x,1/2-y,-z
1/2+x,1/2-y,1/2+z
loop_
_atom_site_type_symbol
_atom_site_label
_atom_site_fract_x
_atom_site_fract_y
_atom_site_fract_z
Si Si1 0.015019 0.320331 0.093274
Si Si2 0.219957 0.756661 0.236636
Si Si3 0.851150 0.164305 0.500636
Si Si4 0.430400 0.553443 0.868435
Si Si5 0.684273 0.033052 0.060774
Si Si6 0.361014 0.304267 0.657332
Si Si7 0.131621 0.360312 0.915831
O O1 0.137677 0.304957 0.155194
O O2 0.071487 0.260829 0.215004
O O3 0.868517 0.287878 0.913763
O O4 0.970593 0.425975 0.072423
O O5 0.265396 0.689771 0.345746
O O6 0.119059 0.840550 0.164041
O O7 0.918355 0.263677 0.593563
O O8 0.748213 0.147910 0.467445
O O9 0.956639 0.076982 0.585241
O O10 0.292543 0.488233 0.727025
O O11 0.500000 0.500000 0.000000
O O12 0.768357 0.109402 0.095923
O O13 0.682384 0.931919 0.022775
O O14 0.500000 0.337612 0.750000
O O15 0.250000 0.250000 0.500000
O O16 0.000000 0.405605 0.750000
#
# Coordination Sequence:
#
# PCOD9306479 Si02
#       7
#     8   8   8   8   8   8   8
#     4  12  25  46  76 107 147 192 243 302 376 447
#     4  12  23  47  75 104 149 196 238 300 381 441
#     4  11  25  49  75 101 148 200 240 307 382 432
#     4  12  26  45  72 110 146 186 250 305 369 447
#     4  12  27  45  70 111 138 185 254 298 359 448
#     4  12  25  46  73 100 144 194 237 299 375 435
#     4  11  27  45  72 104 143 189 252 305 362 436
#
# _framework density 22.057642999999999
#
# number of rings (size 3 to 8) (size 9 to 14) (size 15 to 20)
#    0.000    0.286    5.714    2.571    6.000    1.714 
#    0.000    0.000    0.000    0.000    0.000    0.000 
#    0.000    0.000    0.000    0.000    0.000    0.000 
#
# Total GULP energy -156230.516663 kJ/mol
# GULP energy per Si atom -5579.661309 kJ/mol
# Density = 2.200744 g / cm^3
# Si number density = 22.057643 Si / 1000 Ang^3
#
#
#
# Elastic Constant Matrix: (Units=GPa)
#
#
# Indices 1 2 3 4 5 6 
#
# 1 72.1705 7.8060 3.4552 -0.0003 12.4022 0.0000
# 2 7.8060 38.7799 -5.1909 -0.0003 0.5739 0.0002
# 3 3.4552 -5.1909 91.1648 -0.0005 -6.9823 0.0002
# 4 -0.0003 -0.0003 -0.0005 -16.1496 -0.0003 8.5953
# 5 12.4022 0.5739 -6.9823 -0.0003 34.3490 0.0000
# 6 0.0000 0.0002 0.0002 8.5953 0.0000 21.4990
#
#
#
# Elastic Compliance Matrix: (Units=1/GPa)
#
#
# Indices 1 2 3 4 5 6 
#
# 1 0.015231 -0.003141 -0.001192 0.000000 -0.005689 0.000000
# 2 -0.003141 0.026633 0.001715 -0.000001 0.001038 0.000000
# 3 -0.001192 0.001715 0.011319 0.000000 0.002703 0.000000
# 4 0.000000 -0.000001 0.000000 -0.051057 -0.000001 0.020413
# 5 -0.005689 0.001038 0.002703 -0.000001 0.031699 0.000000
# 6 0.000000 0.000000 0.000000 0.020413 0.000000 0.038353
#
#
# Mechanical properties :
#
#
# Convention : Reuss Voigt Hill
#
# Bulk Modulus (GPa) = 20.85648 23.80619 22.33134
# Shear Modulus (GPa) = 53.53565 21.00933 37.27249
#
# Velocity S-wave (km/s) = 4.93188 3.08957 4.11515
# Velocity P-wave (km/s) = 6.47358 4.85215 5.72061
#
# Compressibility (1/GPa) = 0.04794672
#
# Stress axis : x y z
#
# Youngs Moduli (GPa) = 65.65769 37.54733 88.34743
#
# Poissons Ratio (x) = 0.11794 0.10529
# Poissons Ratio (y) = 0.20624 -0.15152
# Poissons Ratio (z) = 0.07825 -0.06439
#
# Static dielectric constant tensor:
#      x y z
#    x 1.856130 0.000000 0.012580 
#    y 0.000000 1.839200 0.000000 
#    z 0.012580 0.000000 1.874060 
# 
# From -- ./inp_files/215759.got.cif
#   From: 2010.05.17/outbox.cif.g08.bks.cpg/sg15_108_cif.got.tgz:215759.got - 2010.06.03 18:47:42.
