data_PCOD9306922
_publ_section_title
;
Structure prediction by ZEFSAII (Michael W. Deem and Ramdas Pophale) SiO2 
 PCOD9306922
Probable space group: C 2/C
;
_chemical_formula_sum "Si O2"
_cell_formula_units_Z 52
_cell_length_a 28.005895
_cell_length_b 23.235720
_cell_length_c 8.563327
_cell_angle_alpha 90.000000
_cell_angle_beta 146.947584
_cell_angle_gamma 90.000000
_cell_volume 3039.261507
_symmetry_space_group_name_H-M "C 2/C"
_symmetry_group_IT_number 15
_symmetry_cell_setting 'monoclinic'
loop_
_space_group_symop_operation_xyz
x,y,z
-x,y,1/2-z
-x,-y,-z
x,-y,1/2+z
1/2+x,1/2+y,z
1/2-x,1/2+y,1/2-z
1/2-x,1/2-y,-z
1/2+x,1/2-y,1/2+z
loop_
_atom_site_type_symbol
_atom_site_label
_atom_site_fract_x
_atom_site_fract_y
_atom_site_fract_z
Si Si1 0.171484 0.275374 0.683646
Si Si2 0.176441 0.613277 0.684702
Si Si3 0.680774 0.295318 0.892905
Si Si4 0.000000 0.779704 0.250000
Si Si5 0.451587 0.809944 0.877452
Si Si6 0.071378 0.509013 0.328573
Si Si7 0.377850 0.114435 0.601727
O O1 0.157366 0.235020 0.494101
O O2 0.093418 0.283951 0.593122
O O3 0.185808 0.339788 0.655613
O O4 0.250000 0.250000 0.000000
O O5 0.115680 0.656779 0.419877
O O6 0.152366 0.552308 0.539563
O O7 0.151769 0.606322 0.800178
O O8 0.269650 0.644741 0.938830
O O9 0.594990 0.306825 0.551021
O O10 0.750000 0.250000 0.000000
O O11 0.013367 0.740168 0.135604
O O12 0.528455 0.853771 0.132583
O O13 0.109725 0.445024 0.457624
O O14 0.000000 0.535731 0.250000
O O15 0.000000 0.500000 0.000000
#
# Coordination Sequence:
#
# PCOD9306922 Si02
#       7
#     8   8   8   4   8   8   8
#     4  12  23  34  55  85 120 157 198 250 296 354
#     4  12  22  39  56  81 124 163 197 243 298 365
#     4  12  22  39  58  85 121 162 204 250 301 364
#     4  12  22  36  62  82 118 166 196 246 302 362
#     4  12  19  34  57  83 116 157 198 236 297 356
#     4  12  23  36  57  87 121 157 201 241 296 370
#     4  12  23  37  57  85 121 165 192 242 303 363
#
# _framework density 17.10942
#
# number of rings (size 3 to 8) (size 9 to 14) (size 15 to 20)
#    0.000    0.000   10.769    1.385    0.000    0.000 
#    0.000    0.000    0.000    0.000    0.000    1.077 
#    4.615    0.000    0.000    0.000    0.000    0.000 
#
# Total GULP energy -144832.749751 kJ/mol
# GULP energy per Si atom -5570.490375 kJ/mol
# Density = 1.707048 g / cm^3
# Si number density = 17.109420 Si / 1000 Ang^3
#
#
#
# Elastic Constant Matrix: (Units=GPa)
#
#
# Indices 1 2 3 4 5 6 
#
# 1 53.0105 7.2567 -8.5172 0.0000 -10.1895 0.0000
# 2 7.2567 100.4212 52.2899 0.0000 11.9085 0.0000
# 3 -8.5172 52.2899 126.5394 0.0000 3.1457 0.0000
# 4 0.0000 0.0000 0.0000 40.2250 0.0000 5.2825
# 5 -10.1895 11.9085 3.1457 0.0000 19.1802 0.0000
# 6 0.0000 0.0000 0.0000 5.2825 0.0000 17.8884
#
#
#
# Elastic Compliance Matrix: (Units=1/GPa)
#
#
# Indices 1 2 3 4 5 6 
#
# 1 0.022949 -0.005135 0.003298 0.000000 0.014839 0.000000
# 2 -0.005135 0.014862 -0.006215 0.000000 -0.010936 0.000000
# 3 0.003298 -0.006215 0.010597 0.000000 0.003873 0.000000
# 4 0.000000 0.000000 0.000000 0.025863 0.000000 -0.007637
# 5 0.014839 -0.010936 0.003873 0.000000 0.066175 0.000000
# 6 0.000000 0.000000 0.000000 -0.007637 0.000000 0.058158
#
#
# Mechanical properties :
#
#
# Convention : Reuss Voigt Hill
#
# Bulk Modulus (GPa) = 30.95700 42.44778 36.70239
# Shear Modulus (GPa) = 22.17511 30.72150 26.44830
#
# Velocity S-wave (km/s) = 3.60401 4.24204 3.93597
# Velocity P-wave (km/s) = 5.95410 6.98975 6.49261
#
# Compressibility (1/GPa) = 0.03230287
#
# Stress axis : x y z
#
# Youngs Moduli (GPa) = 43.57417 67.28376 94.36853
#
# Poissons Ratio (x) = 0.34552 -0.31121
# Poissons Ratio (y) = 0.22377 0.58654
# Poissons Ratio (z) = -0.14370 0.41819
#
# Static dielectric constant tensor:
#      x y z
#    x 1.618100 0.000000 0.007540 
#    y 0.000000 1.620280 0.000000 
#    z 0.007540 0.000000 1.622130 
# 
# From -- ./inp_files/67771.got.cif
#   From: 2010.05.17/outbox.cif.g08.bks.cpg/sg15_34_cif.got.tgz:67771.got - 2010.06.03 18:47:42.
