data_PCOD9306646
_publ_section_title
;
Structure prediction by ZEFSAII (Michael W. Deem and Ramdas Pophale) SiO2 
 PCOD9306646
Probable space group: C 2/C
;
_chemical_formula_sum "Si O2"
_cell_formula_units_Z 52
_cell_length_a 28.343645
_cell_length_b 5.223359
_cell_length_c 17.130550
_cell_angle_alpha 90.000000
_cell_angle_beta 117.434528
_cell_angle_gamma 90.000000
_cell_volume 2250.939320
_symmetry_space_group_name_H-M "C 2/C"
_symmetry_group_IT_number 15
_symmetry_cell_setting 'monoclinic'
loop_
_space_group_symop_operation_xyz
x,y,z
-x,y,1/2-z
-x,-y,-z
x,-y,1/2+z
1/2+x,1/2+y,z
1/2-x,1/2+y,1/2-z
1/2-x,1/2-y,-z
1/2+x,1/2-y,1/2+z
loop_
_atom_site_type_symbol
_atom_site_label
_atom_site_fract_x
_atom_site_fract_y
_atom_site_fract_z
Si Si1 0.389452 0.364420 0.166064
Si Si2 0.429631 0.251881 0.910197
Si Si3 0.965156 0.400597 0.081764
Si Si4 0.149504 0.366856 0.285406
Si Si5 0.255340 0.506325 0.947341
Si Si6 0.125820 0.960474 0.004018
Si Si7 0.500000 0.738113 0.750000
O O1 0.354082 0.587891 0.176411
O O2 0.378523 0.325600 0.066554
O O3 0.449867 0.439826 0.226430
O O4 0.384279 0.089286 0.200231
O O5 0.484564 0.280799 0.903939
O O6 0.379942 0.159709 0.819978
O O7 0.404523 0.487533 0.938747
O O8 0.447242 0.058394 0.991714
O O9 0.986642 0.586316 0.165440
O O10 0.911105 0.254993 0.063278
O O11 0.208611 0.474141 0.347233
O O12 0.250000 0.750000 0.000000
O O13 0.310977 0.555127 0.944350
O O14 0.250000 0.250000 0.000000
#
# Coordination Sequence:
#
# PCOD9306646 Si02
#       7
#     8   8   8   8   8   8   4
#     4  12  26  44  77 109 146 194 261 300 376 455
#     4  11  27  46  71 108 160 192 245 312 400 449
#     4  11  26  47  71 110 154 195 250 311 386 463
#     4  12  26  50  72 110 149 201 243 320 374 451
#     4  12  26  49  79 111 146 195 262 317 361 438
#     4  12  26  45  78 106 154 200 257 313 383 453
#     4  12  24  44  76 112 148 202 256 314 380 470
#
# _framework density 23.101469000000002
#
# number of rings (size 3 to 8) (size 9 to 14) (size 15 to 20)
#    0.000    0.308    6.154    1.385    6.462    0.615 
#    2.769    0.000    0.000    0.000    0.000    0.000 
#    0.000    0.000    0.000    0.000    0.000    0.000 
#
# Total GULP energy -145092.727042 kJ/mol
# GULP energy per Si atom -5580.489502 kJ/mol
# Density = 2.304889 g / cm^3
# Si number density = 23.101469 Si / 1000 Ang^3
#
#
#
# Elastic Constant Matrix: (Units=GPa)
#
#
# Indices 1 2 3 4 5 6 
#
# 1 119.8148 17.9304 42.3377 0.0001 41.5432 -0.0001
# 2 17.9304 85.4032 21.4367 0.0004 -3.7549 0.0001
# 3 42.3377 21.4367 165.3476 0.0002 29.0498 -0.0002
# 4 0.0001 0.0004 0.0002 47.8559 0.0000 2.3651
# 5 41.5432 -3.7549 29.0498 0.0000 46.8284 0.0000
# 6 -0.0001 0.0001 -0.0002 2.3651 0.0000 28.0866
#
#
#
# Elastic Compliance Matrix: (Units=1/GPa)
#
#
# Indices 1 2 3 4 5 6 
#
# 1 0.013013 -0.002977 -0.000983 0.000000 -0.011173 0.000000
# 2 -0.002977 0.012986 -0.001760 0.000000 0.004774 0.000000
# 3 -0.000983 -0.001760 0.007182 0.000000 -0.003724 0.000000
# 4 0.000000 0.000000 0.000000 0.020983 0.000000 -0.001767
# 5 -0.011173 0.004774 -0.003724 0.000000 0.033960 0.000000
# 6 0.000000 0.000000 0.000000 -0.001767 0.000000 0.035753
#
#
# Mechanical properties :
#
#
# Convention : Reuss Voigt Hill
#
# Bulk Modulus (GPa) = 45.99514 59.33056 52.66285
# Shear Modulus (GPa) = 35.07196 43.81157 39.44176
#
# Velocity S-wave (km/s) = 3.90060 4.35959 4.13646
# Velocity P-wave (km/s) = 6.34346 7.14701 6.75719
#
# Compressibility (1/GPa) = 0.02174143
#
# Stress axis : x y z
#
# Youngs Moduli (GPa) = 76.84531 77.00728 139.23476
#
# Poissons Ratio (x) = 0.22922 0.13689
# Poissons Ratio (y) = 0.22874 0.24507
# Poissons Ratio (z) = 0.07555 0.13554
#
# Static dielectric constant tensor:
#      x y z
#    x 1.972770 0.000000 0.015360 
#    y 0.000000 2.004230 0.000000 
#    z 0.015360 0.000000 1.893030 
# 
# From -- ./inp_files/223707.got.cif
#   From: 2010.05.17/outbox.cif.g08.bks.cpg/sg15_112_cif.got.tgz:223707.got - 2010.06.03 18:47:42.
