data_PCOD9306168
_publ_section_title
;
Structure prediction by ZEFSAII (Michael W. Deem and Ramdas Pophale) SiO2 
 PCOD9306168
Probable space group: C 2/C
;
_chemical_formula_sum "Si O2"
_cell_formula_units_Z 32
_cell_length_a 9.078050
_cell_length_b 18.124781
_cell_length_c 14.848173
_cell_angle_alpha 90.000000
_cell_angle_beta 30.728922
_cell_angle_gamma 90.000000
_cell_volume 1248.359349
_symmetry_space_group_name_H-M "C 2/C"
_symmetry_group_IT_number 15
_symmetry_cell_setting 'monoclinic'
loop_
_space_group_symop_operation_xyz
x,y,z
-x,y,1/2-z
-x,-y,-z
x,-y,1/2+z
1/2+x,1/2+y,z
1/2-x,1/2+y,1/2-z
1/2-x,1/2-y,-z
1/2+x,1/2-y,1/2+z
loop_
_atom_site_type_symbol
_atom_site_label
_atom_site_fract_x
_atom_site_fract_y
_atom_site_fract_z
Si Si1 0.346386 0.206058 0.576568
Si Si2 0.940690 0.993504 0.885704
Si Si3 0.400605 0.092914 0.705053
Si Si4 0.290472 0.857147 0.780819
O O1 0.441944 0.153579 0.607455
O O2 0.509679 0.181061 0.401015
O O3 0.395418 0.290983 0.577247
O O4 0.000000 0.198036 0.750000
O O5 0.099245 0.918818 0.833761
O O6 0.000000 0.009156 0.750000
O O7 0.079118 0.060012 0.869317
O O8 0.605838 0.976745 0.073608
O O9 0.500000 0.118508 0.750000
O O10 0.500000 0.884572 0.750000
#
# Coordination Sequence:
#
# PCOD9306168 Si02
#       4
#     8   8   8   8
#     4  11  25  45  72 103 141 183 230 283 347 414
#     4  12  26  48  70 104 140 182 231 290 342 412
#     4  12  28  45  74 102 141 183 233 284 348 407
#     4  11  25  45  73 102 141 182 230 284 347 413
#
# _framework density 25.633642999999999
#
# number of rings (size 3 to 8) (size 9 to 14) (size 15 to 20)
#    0.000    0.500    2.500    6.000   10.500    2.000 
#    0.000    0.000    0.000    0.000    0.000    0.000 
#    0.000    0.000    0.000    0.000    0.000    0.000 
#
# Total GULP energy -89900.559820 kJ/mol
# GULP energy per Si atom -5618.784989 kJ/mol
# Density = 2.557530 g / cm^3
# Si number density = 25.633643 Si / 1000 Ang^3
#
#
#
# Elastic Constant Matrix: (Units=GPa)
#
#
# Indices 1 2 3 4 5 6 
#
# 1 172.9964 55.2653 28.9375 0.0214 21.9629 0.0087
# 2 55.2653 110.8969 13.6511 0.0289 -4.6114 0.0038
# 3 28.9375 13.6511 88.3561 0.1300 5.3438 0.0419
# 4 0.0214 0.0289 0.1300 39.6355 -0.0376 -0.8600
# 5 21.9629 -4.6114 5.3438 -0.0376 42.2242 -0.0068
# 6 0.0087 0.0038 0.0419 -0.8600 -0.0068 51.2248
#
#
#
# Elastic Compliance Matrix: (Units=1/GPa)
#
#
# Indices 1 2 3 4 5 6 
#
# 1 0.007851 -0.003880 -0.001712 0.000000 -0.004291 0.000000
# 2 -0.003880 0.011170 -0.000656 -0.000001 0.003321 0.000001
# 3 -0.001712 -0.000656 0.012023 -0.000039 -0.000703 -0.000010
# 4 0.000000 -0.000001 -0.000039 0.025239 0.000027 0.000424
# 5 -0.004291 0.003321 -0.000703 0.000027 0.026367 0.000005
# 6 0.000000 0.000001 -0.000010 0.000424 0.000005 0.019529
#
#
# Mechanical properties :
#
#
# Convention : Reuss Voigt Hill
#
# Bulk Modulus (GPa) = 53.91751 63.10634 58.51192
# Shear Modulus (GPa) = 41.37095 44.90992 43.14044
#
# Velocity S-wave (km/s) = 4.02174 4.19022 4.10684
# Velocity P-wave (km/s) = 6.53034 6.93416 6.73528
#
# Compressibility (1/GPa) = 0.01854685
#
# Stress axis : x y z
#
# Youngs Moduli (GPa) = 127.36831 89.52580 83.17722
#
# Poissons Ratio (x) = 0.34739 0.14243
# Poissons Ratio (y) = 0.49423 0.05455
# Poissons Ratio (z) = 0.21810 0.05871
#
# Static dielectric constant tensor:
#      x y z
#    x 1.928940 0.000010 -0.014560 
#    y 0.000010 1.980320 -0.000030 
#    z -0.014560 -0.000030 2.028150 
# 
# From -- ./inp_files/135290.got.cif
#   From: 2010.05.17/outbox.cif.g08.bks.cpg/sg15_68_cif.got.tgz:135290.got - 2010.06.03 18:47:42.
