data_PCOD9306249
_publ_section_title
;
Structure prediction by ZEFSAII (Michael W. Deem and Ramdas Pophale) SiO2 
 PCOD9306249
Probable space group: C 2/C
;
_chemical_formula_sum "Si O2"
_cell_formula_units_Z 40
_cell_length_a 7.887252
_cell_length_b 13.834427
_cell_length_c 15.051442
_cell_angle_alpha 90.000000
_cell_angle_beta 61.951601
_cell_angle_gamma 90.000000
_cell_volume 1449.454772
_symmetry_space_group_name_H-M "C 2/C"
_symmetry_group_IT_number 15
_symmetry_cell_setting 'monoclinic'
loop_
_space_group_symop_operation_xyz
x,y,z
-x,y,1/2-z
-x,-y,-z
x,-y,1/2+z
1/2+x,1/2+y,z
1/2-x,1/2+y,1/2-z
1/2-x,1/2-y,-z
1/2+x,1/2-y,1/2+z
loop_
_atom_site_type_symbol
_atom_site_label
_atom_site_fract_x
_atom_site_fract_y
_atom_site_fract_z
Si Si1 0.312921 0.064541 0.032514
Si Si2 0.207180 0.709988 0.154804
Si Si3 0.194871 0.375746 0.162955
Si Si4 0.684604 0.560074 0.251347
Si Si5 0.867331 0.871406 0.434846
O O1 0.286306 0.103909 0.138170
O O2 0.145345 0.986111 0.054189
O O3 0.329850 0.121940 0.937577
O O4 0.500000 0.000000 0.000000
O O5 0.357463 0.652353 0.177426
O O6 0.222717 0.824062 0.131888
O O7 0.000000 0.688770 0.250000
O O8 0.243851 0.665298 0.048763
O O9 0.211899 0.479823 0.212500
O O10 0.412007 0.336190 0.120352
O O11 0.000000 0.331076 0.250000
O O12 0.500000 0.513438 0.250000
#
# Coordination Sequence:
#
# PCOD9306249 Si02
#       5
#     8   8   8   8   8
#     4  12  23  39  74 113 145 189 260 305 372 444
#     4  11  25  46  71 103 157 201 240 308 394 445
#     4  12  24  44  75 117 153 191 264 312 365 449
#     4  12  23  42  74 109 145 199 249 311 376 444
#     4  11  25  46  72 109 148 204 249 307 376 460
#
# _framework density 27.596584
#
# number of rings (size 3 to 8) (size 9 to 14) (size 15 to 20)
#    0.000    0.400    6.000    3.600    2.800    0.000 
#    0.000    3.000    0.000   10.800    0.000    0.000 
#    0.000    0.000    0.000    0.000    0.000    0.000 
#
# Total GULP energy -111782.894869 kJ/mol
# GULP energy per Si atom -5589.144743 kJ/mol
# Density = 2.753377 g / cm^3
# Si number density = 27.596584 Si / 1000 Ang^3
#
#
#
# Elastic Constant Matrix: (Units=GPa)
#
#
# Indices 1 2 3 4 5 6 
#
# 1 110.3222 11.2033 21.5722 0.0000 -5.3563 0.0000
# 2 11.2033 69.1734 37.4938 0.0000 6.5213 0.0000
# 3 21.5722 37.4938 208.3559 0.0000 11.7074 0.0000
# 4 0.0000 0.0000 0.0000 30.0509 0.0000 12.9413
# 5 -5.3563 6.5213 11.7074 0.0000 60.8702 0.0000
# 6 0.0000 0.0000 0.0000 12.9413 0.0000 35.8373
#
#
#
# Elastic Compliance Matrix: (Units=1/GPa)
#
#
# Indices 1 2 3 4 5 6 
#
# 1 0.009399 -0.001181 -0.000823 0.000000 0.001112 0.000000
# 2 -0.001181 0.016251 -0.002728 0.000000 -0.001320 0.000000
# 3 -0.000823 -0.002728 0.005422 0.000000 -0.000823 0.000000
# 4 0.000000 0.000000 0.000000 0.039405 0.000000 -0.014230
# 5 0.001112 -0.001320 -0.000823 0.000000 0.016826 0.000000
# 6 0.000000 0.000000 0.000000 -0.014230 0.000000 0.033042
#
#
# Mechanical properties :
#
#
# Convention : Reuss Voigt Hill
#
# Bulk Modulus (GPa) = 46.27947 58.71004 52.49475
# Shear Modulus (GPa) = 36.49330 46.52382 41.50856
#
# Velocity S-wave (km/s) = 3.64041 4.11037 3.88251
# Velocity P-wave (km/s) = 5.87167 6.62174 6.25795
#
# Compressibility (1/GPa) = 0.02160785
#
# Stress axis : x y z
#
# Youngs Moduli (GPa) = 106.39176 61.53566 184.43961
#
# Poissons Ratio (x) = 0.07267 0.15181
# Poissons Ratio (y) = 0.12565 0.50313
# Poissons Ratio (z) = 0.08757 0.16786
#
# Static dielectric constant tensor:
#      x y z
#    x 2.191660 0.000000 -0.115780 
#    y 0.000000 2.159420 0.000000 
#    z -0.115780 0.000000 2.333290 
# 
# From -- ./inp_files/134215.got.cif
#   From: 2010.05.17/outbox.cif.g08.bks.cpg/sg15_68_cif.got.tgz:134215.got - 2010.06.03 18:47:42.
