data_PCOD9306030
_publ_section_title
;
Structure prediction by ZEFSAII (Michael W. Deem and Ramdas Pophale) SiO2 
 PCOD9306030
Probable space group: C 2/C
;
_chemical_formula_sum "Si O2"
_cell_formula_units_Z 44
_cell_length_a 6.480394
_cell_length_b 21.671620
_cell_length_c 14.527574
_cell_angle_alpha 90.000000
_cell_angle_beta 80.255284
_cell_angle_gamma 90.000000
_cell_volume 2010.824171
_symmetry_space_group_name_H-M "C 2/C"
_symmetry_group_IT_number 15
_symmetry_cell_setting 'monoclinic'
loop_
_space_group_symop_operation_xyz
x,y,z
-x,y,1/2-z
-x,-y,-z
x,-y,1/2+z
1/2+x,1/2+y,z
1/2-x,1/2+y,1/2-z
1/2-x,1/2-y,-z
1/2+x,1/2-y,1/2+z
loop_
_atom_site_type_symbol
_atom_site_label
_atom_site_fract_x
_atom_site_fract_y
_atom_site_fract_z
Si Si1 0.965228 0.884870 0.034008
Si Si2 0.980444 0.379906 0.355059
Si Si3 0.789150 0.516404 0.571337
Si Si4 0.000000 0.690906 0.250000
Si Si5 0.668146 0.382987 0.656063
Si Si6 0.768311 0.218263 0.901401
O O1 0.124663 0.943004 0.023806
O O2 0.053944 0.833525 0.096431
O O3 0.741533 0.902858 0.092194
O O4 0.925032 0.858204 0.934214
O O5 0.000000 0.359799 0.250000
O O6 0.141101 0.435700 0.356007
O O7 0.056140 0.320250 0.404434
O O8 0.709293 0.453888 0.623483
O O9 0.000000 0.500000 0.500000
O O10 0.874472 0.650127 0.183110
O O11 0.836829 0.734922 0.316587
O O12 0.500000 0.379580 0.750000
O O13 0.750000 0.250000 0.000000
#
# Coordination Sequence:
#
# PCOD9306030 Si02
#       6
#     8   8   8   4   8   8
#     4  11  25  46  70 102 137 191 236 294 357 429
#     4  11  25  42  71 101 137 185 235 294 358 417
#     4  11  26  44  72 101 144 183 234 295 358 438
#     4  12  28  46  70 108 148 188 240 306 356 430
#     4  12  28  43  72 105 144 184 238 292 370 428
#     4  11  25  45  69  97 141 182 244 289 353 426
#
# _framework density 21.881577
#
# number of rings (size 3 to 8) (size 9 to 14) (size 15 to 20)
#    0.000    0.727    1.818    3.818    8.909    8.000 
#    0.000    0.000    0.000    0.000    0.000    0.000 
#    0.000    0.000    0.000    0.000    0.000    0.000 
#
# Total GULP energy -122902.944212 kJ/mol
# GULP energy per Si atom -5586.497464 kJ/mol
# Density = 2.183177 g / cm^3
# Si number density = 21.881577 Si / 1000 Ang^3
#
#
#
# Elastic Constant Matrix: (Units=GPa)
#
#
# Indices 1 2 3 4 5 6 
#
# 1 110.0019 35.5288 27.5750 0.0000 9.2046 0.0000
# 2 35.5288 94.3426 14.1056 0.0000 17.2755 0.0000
# 3 27.5750 14.1056 79.1399 0.0000 5.4948 0.0000
# 4 0.0000 0.0000 0.0000 44.7044 0.0000 2.9532
# 5 9.2046 17.2755 5.4948 0.0000 36.8644 0.0000
# 6 0.0000 0.0000 0.0000 2.9532 0.0000 26.5623
#
#
#
# Elastic Compliance Matrix: (Units=1/GPa)
#
#
# Indices 1 2 3 4 5 6 
#
# 1 0.011101 -0.003592 -0.003185 0.000000 -0.000614 0.000000
# 2 -0.003592 0.012990 -0.000711 0.000000 -0.005084 0.000000
# 3 -0.003185 -0.000711 0.013938 0.000000 -0.000949 0.000000
# 4 0.000000 0.000000 0.000000 0.022535 0.000000 -0.002505
# 5 -0.000614 -0.005084 -0.000949 0.000000 0.029804 0.000000
# 6 0.000000 0.000000 0.000000 -0.002505 0.000000 0.037926
#
#
# Mechanical properties :
#
#
# Convention : Reuss Voigt Hill
#
# Bulk Modulus (GPa) = 43.37760 48.65592 46.01676
# Shear Modulus (GPa) = 33.12301 35.37788 34.25045
#
# Velocity S-wave (km/s) = 3.89490 4.02529 3.96063
# Velocity P-wave (km/s) = 6.33197 6.62482 6.48005
#
# Compressibility (1/GPa) = 0.02305338
#
# Stress axis : x y z
#
# Youngs Moduli (GPa) = 90.08504 76.98446 71.74530
#
# Poissons Ratio (x) = 0.27652 0.22851
# Poissons Ratio (y) = 0.32357 0.05099
# Poissons Ratio (z) = 0.28692 0.05471
#
# Static dielectric constant tensor:
#      x y z
#    x 1.911970 0.000000 0.084610 
#    y 0.000000 1.828240 0.000000 
#    z 0.084610 0.000000 1.795320 
# 
# From -- ./inp_files/129381.got.cif
#   From: 2010.05.17/outbox.cif.g08.bks.cpg/sg15_65_cif.got.tgz:129381.got - 2010.06.03 18:47:42.
