data_PCOD9306984
_publ_section_title
;
Structure prediction by ZEFSAII (Michael W. Deem and Ramdas Pophale) SiO2 
 PCOD9306984
Probable space group: C 2/C
;
_chemical_formula_sum "Si O2"
_cell_formula_units_Z 60
_cell_length_a 24.704191
_cell_length_b 22.947490
_cell_length_c 9.595215
_cell_angle_alpha 90.000000
_cell_angle_beta 28.282930
_cell_angle_gamma 90.000000
_cell_volume 2577.385045
_symmetry_space_group_name_H-M "C 2/C"
_symmetry_group_IT_number 15
_symmetry_cell_setting 'monoclinic'
loop_
_space_group_symop_operation_xyz
x,y,z
-x,y,1/2-z
-x,-y,-z
x,-y,1/2+z
1/2+x,1/2+y,z
1/2-x,1/2+y,1/2-z
1/2-x,1/2-y,-z
1/2+x,1/2-y,1/2+z
loop_
_atom_site_type_symbol
_atom_site_label
_atom_site_fract_x
_atom_site_fract_y
_atom_site_fract_z
Si Si1 0.267363 0.693666 0.814938
Si Si2 0.233470 0.422152 0.710653
Si Si3 0.500000 0.522805 0.250000
Si Si4 0.016887 0.706647 0.367078
Si Si5 0.384015 0.194199 0.940738
Si Si6 0.724680 0.487820 0.617244
Si Si7 0.430868 0.338047 0.203973
Si Si8 0.344168 0.394690 0.915131
O O1 0.291093 0.759425 0.706689
O O2 0.359498 0.675321 0.722825
O O3 0.284570 0.653012 0.644009
O O4 0.137421 0.684972 0.158807
O O5 0.224521 0.472271 0.847932
O O6 0.235500 0.454815 0.556582
O O7 0.353549 0.386851 0.454121
O O8 0.144649 0.370870 0.944290
O O9 0.413385 0.490375 0.549167
O O10 0.587891 0.561690 0.137247
O O11 0.043136 0.775297 0.292093
O O12 0.000000 0.682428 0.250000
O O13 0.913266 0.696983 0.709828
O O14 0.500000 0.215335 0.750000
O O15 0.742115 0.431335 0.482204
O O16 0.555070 0.364047 0.897024
#
# Coordination Sequence:
#
# PCOD9306984 Si02
#       8
#     8   8   4   8   8   8   8   8
#     4  12  23  44  75 103 143 188 231 283 357 436
#     4  12  27  45  73 100 143 188 240 288 361 413
#     4  12  20  42  64 104 140 178 228 292 350 412
#     4  12  28  43  68 110 149 180 230 289 355 428
#     4  12  25  48  75 104 140 189 239 288 351 432
#     4  12  26  44  65 104 145 189 235 295 349 424
#     4  12  22  42  70 109 141 183 223 285 359 434
#     4  12  22  37  70 102 141 177 228 288 352 411
#
# _framework density 23.279408
#
# number of rings (size 3 to 8) (size 9 to 14) (size 15 to 20)
#    0.000    0.000    8.000    2.400    3.733    0.533 
#    0.000    0.667    0.000    0.000    0.000    0.000 
#    0.000    0.000    0.000    0.000    0.000    0.000 
#
# Total GULP energy -167799.010034 kJ/mol
# GULP energy per Si atom -5593.300334 kJ/mol
# Density = 2.322642 g / cm^3
# Si number density = 23.279408 Si / 1000 Ang^3
#
#
#
# Elastic Constant Matrix: (Units=GPa)
#
#
# Indices 1 2 3 4 5 6 
#
# 1 46.2626 20.1204 21.6223 0.0000 23.0650 0.0000
# 2 20.1204 93.0690 29.4565 0.0000 8.3317 0.0000
# 3 21.6223 29.4565 89.8026 0.0000 9.8328 -0.0001
# 4 0.0000 0.0000 0.0000 47.0009 -0.0001 5.2262
# 5 23.0650 8.3317 9.8328 -0.0001 28.7379 0.0001
# 6 0.0000 0.0000 -0.0001 5.2262 0.0001 30.5950
#
#
#
# Elastic Compliance Matrix: (Units=1/GPa)
#
#
# Indices 1 2 3 4 5 6 
#
# 1 0.040747 -0.004549 -0.005072 0.000000 -0.029649 0.000000
# 2 -0.004549 0.012634 -0.003166 0.000000 0.001072 0.000000
# 3 -0.005072 -0.003166 0.013349 0.000000 0.000421 0.000000
# 4 0.000000 0.000000 0.000000 0.021688 0.000000 -0.003705
# 5 -0.029649 0.001072 0.000421 0.000000 0.058139 0.000000
# 6 0.000000 0.000000 0.000000 -0.003705 0.000000 0.033318
#
#
# Mechanical properties :
#
#
# Convention : Reuss Voigt Hill
#
# Bulk Modulus (GPa) = 24.29842 41.28142 32.78992
# Shear Modulus (GPa) = 22.81337 31.79577 27.30457
#
# Velocity S-wave (km/s) = 3.13386 3.69973 3.42849
# Velocity P-wave (km/s) = 4.85337 6.00185 5.45790
#
# Compressibility (1/GPa) = 0.04115494
#
# Stress axis : x y z
#
# Youngs Moduli (GPa) = 24.54161 79.14886 74.91059
#
# Poissons Ratio (x) = 0.36008 0.37997
# Poissons Ratio (y) = 0.11165 0.23718
# Poissons Ratio (z) = 0.12448 0.25060
#
# Static dielectric constant tensor:
#      x y z
#    x 1.916140 0.000000 0.044530 
#    y 0.000000 1.906850 0.000000 
#    z 0.044530 0.000000 1.967320 
# 
# From -- ./inp_files/67718.got.cif
#   From: 2010.05.17/outbox.cif.g08.bks.cpg/sg15_34_cif.got.tgz:67718.got - 2010.06.03 18:47:42.
