data_PCOD9306788
_publ_section_title
;
Structure prediction by ZEFSAII (Michael W. Deem and Ramdas Pophale) SiO2 
 PCOD9306788
Probable space group: C 2/C
;
_chemical_formula_sum "Si O2"
_cell_formula_units_Z 56
_cell_length_a 13.934395
_cell_length_b 27.897809
_cell_length_c 11.202559
_cell_angle_alpha 90.000000
_cell_angle_beta 33.394662
_cell_angle_gamma 90.000000
_cell_volume 2396.934760
_symmetry_space_group_name_H-M "C 2/C"
_symmetry_group_IT_number 15
_symmetry_cell_setting 'monoclinic'
loop_
_space_group_symop_operation_xyz
x,y,z
-x,y,1/2-z
-x,-y,-z
x,-y,1/2+z
1/2+x,1/2+y,z
1/2-x,1/2+y,1/2-z
1/2-x,1/2-y,-z
1/2+x,1/2-y,1/2+z
loop_
_atom_site_type_symbol
_atom_site_label
_atom_site_fract_x
_atom_site_fract_y
_atom_site_fract_z
Si Si1 0.006383 0.439253 0.383017
Si Si2 0.451070 0.771703 0.933587
Si Si3 0.804082 0.012394 0.154923
Si Si4 0.303173 0.139329 0.683503
Si Si5 0.730241 0.685121 0.259211
Si Si6 0.706967 0.305827 0.526362
Si Si7 0.973231 0.103283 0.906648
O O1 0.179079 0.473180 0.221947
O O2 0.038917 0.395194 0.440873
O O3 0.000000 0.425938 0.250000
O O4 0.828027 0.466164 0.607335
O O5 0.500000 0.754730 0.750000
O O6 0.614863 0.798339 0.818954
O O7 0.317895 0.816709 0.073555
O O8 0.400872 0.729968 0.078915
O O9 0.861329 0.055184 0.006939
O O10 0.000000 0.000000 0.000000
O O11 0.157491 0.103105 0.783745
O O12 0.260147 0.168100 0.850339
O O13 0.787563 0.675099 0.065070
O O14 0.637858 0.638318 0.398338
O O15 0.500000 0.311835 0.750000
O O16 0.750000 0.250000 0.500000
O O17 0.000000 0.125309 0.750000
#
# Coordination Sequence:
#
# PCOD9306788 Si02
#       7
#     8   8   8   8   8   8   8
#     4  11  28  47  80 113 153 193 249 318 387 459
#     4  12  25  43  69  99 149 193 247 302 361 439
#     4  11  26  52  75 110 148 193 253 312 387 458
#     4  12  26  45  70 114 147 194 250 307 377 451
#     4  12  24  44  66 102 143 197 246 299 371 431
#     4  12  25  43  68 101 147 193 248 306 361 442
#     4  12  26  46  75 105 146 193 249 305 379 451
#
# _framework density 23.363171999999999
#
# number of rings (size 3 to 8) (size 9 to 14) (size 15 to 20)
#    0.000    0.286    4.286    4.286    6.000    0.000 
#    0.000    1.429    0.000    0.000    0.000    0.000 
#    0.000    0.000    0.000    0.000    0.000    0.000 
#
# Total GULP energy -156345.484603 kJ/mol
# GULP energy per Si atom -5583.767307 kJ/mol
# Density = 2.331000 g / cm^3
# Si number density = 23.363172 Si / 1000 Ang^3
#
#
#
# Elastic Constant Matrix: (Units=GPa)
#
#
# Indices 1 2 3 4 5 6 
#
# 1 113.8377 6.9631 36.7986 0.0000 1.8626 0.0000
# 2 6.9631 54.1068 5.4174 0.0000 2.6850 0.0000
# 3 36.7986 5.4174 76.3407 0.0000 -3.1100 0.0000
# 4 0.0000 0.0000 0.0000 63.6137 0.0000 -7.2837
# 5 1.8626 2.6850 -3.1100 0.0000 49.9952 0.0000
# 6 0.0000 0.0000 0.0000 -7.2837 0.0000 34.4177
#
#
#
# Elastic Compliance Matrix: (Units=1/GPa)
#
#
# Indices 1 2 3 4 5 6 
#
# 1 0.010466 -0.000812 -0.005014 0.000000 -0.000658 0.000000
# 2 -0.000812 0.018736 -0.000980 0.000000 -0.001037 0.000000
# 3 -0.005014 -0.000980 0.015635 0.000000 0.001212 0.000000
# 4 0.000000 0.000000 0.000000 0.016110 0.000000 0.003409
# 5 -0.000658 -0.001037 0.001212 0.000000 0.020158 0.000000
# 6 0.000000 0.000000 0.000000 0.003409 0.000000 0.029776
#
#
# Mechanical properties :
#
#
# Convention : Reuss Voigt Hill
#
# Bulk Modulus (GPa) = 32.02680 38.07149 35.04914
# Shear Modulus (GPa) = 37.06402 42.61239 39.83820
#
# Velocity S-wave (km/s) = 3.98732 4.27536 4.13385
# Velocity P-wave (km/s) = 5.91069 6.37985 6.14975
#
# Compressibility (1/GPa) = 0.03122385
#
# Stress axis : x y z
#
# Youngs Moduli (GPa) = 95.55049 53.37290 63.95911
#
# Poissons Ratio (x) = 0.04335 0.32069
# Poissons Ratio (y) = 0.07760 0.06270
# Poissons Ratio (z) = 0.47909 0.05232
#
# Static dielectric constant tensor:
#      x y z
#    x 1.876980 0.000000 -0.079180 
#    y 0.000000 2.063550 0.000000 
#    z -0.079180 0.000000 2.054580 
# 
# From -- ./inp_files/101767.got.cif
#   From: 2010.05.17/outbox.cif.g08.bks.cpg/sg15_51_cif.got.tgz:101767.got - 2010.06.03 18:47:42.
