data_PCOD9306526
_publ_section_title
;
Structure prediction by ZEFSAII (Michael W. Deem and Ramdas Pophale) SiO2 
 PCOD9306526
Probable space group: C 2/C
;
_chemical_formula_sum "Si O2"
_cell_formula_units_Z 52
_cell_length_a 18.862914
_cell_length_b 12.672440
_cell_length_c 16.764476
_cell_angle_alpha 90.000000
_cell_angle_beta 146.920476
_cell_angle_gamma 90.000000
_cell_volume 2187.230585
_symmetry_space_group_name_H-M "C 2/C"
_symmetry_group_IT_number 15
_symmetry_cell_setting 'monoclinic'
loop_
_space_group_symop_operation_xyz
x,y,z
-x,y,1/2-z
-x,-y,-z
x,-y,1/2+z
1/2+x,1/2+y,z
1/2-x,1/2+y,1/2-z
1/2-x,1/2-y,-z
1/2+x,1/2-y,1/2+z
loop_
_atom_site_type_symbol
_atom_site_label
_atom_site_fract_x
_atom_site_fract_y
_atom_site_fract_z
Si Si1 0.284341 0.651506 0.149712
Si Si2 0.680099 0.547840 0.481431
Si Si3 0.044470 0.795392 0.966328
Si Si4 0.130393 0.238696 0.722899
Si Si5 0.676229 0.942623 0.106416
Si Si6 0.600317 0.019847 0.205555
Si Si7 0.500000 0.637291 0.750000
O O1 0.398764 0.718104 0.297963
O O2 0.277271 0.536209 0.183972
O O3 0.317461 0.629776 0.089126
O O4 0.146335 0.707045 0.032861
O O5 0.596882 0.597099 0.475169
O O6 0.824205 0.528386 0.649445
O O7 0.613341 0.441148 0.387522
O O8 0.055624 0.794880 0.071893
O O9 0.260314 0.169575 0.847866
O O10 0.155894 0.362742 0.743359
O O11 0.049854 0.208191 0.724811
O O12 0.628152 0.953414 0.151807
O O13 0.553496 0.964456 0.934094
#
# Coordination Sequence:
#
# PCOD9306526 Si02
#       7
#     8   8   8   8   8   8   4
#     4  12  27  49  76 117 155 202 260 321 387 461
#     4  12  25  49  71 110 157 199 257 316 388 455
#     4  12  27  46  82 111 150 208 257 321 387 459
#     4  12  27  48  80 107 152 199 266 316 387 465
#     4  11  25  51  72 113 153 193 262 317 386 466
#     4  11  28  45  79 110 148 206 251 320 395 457
#     4  12  28  46  70 110 150 194 264 316 374 466
#
# _framework density 23.774356000000001
#
# number of rings (size 3 to 8) (size 9 to 14) (size 15 to 20)
#    0.000    0.308    6.154    0.462    8.615    3.692 
#    0.000    0.000    0.000    0.000    0.000    0.000 
#    0.000    0.000    0.000    0.000    0.000    0.000 
#
# Total GULP energy -145835.429018 kJ/mol
# GULP energy per Si atom -5609.054962 kJ/mol
# Density = 2.372024 g / cm^3
# Si number density = 23.774356 Si / 1000 Ang^3
#
#
#
# Elastic Constant Matrix: (Units=GPa)
#
#
# Indices 1 2 3 4 5 6 
#
# 1 105.8636 22.8744 23.1396 0.0000 -15.4388 0.0000
# 2 22.8744 69.1844 15.2135 0.0000 8.5459 0.0000
# 3 23.1396 15.2135 133.7517 0.0000 1.6368 0.0000
# 4 0.0000 0.0000 0.0000 24.0078 0.0000 9.3195
# 5 -15.4388 8.5459 1.6368 0.0000 40.4835 0.0000
# 6 0.0000 0.0000 0.0000 9.3195 0.0000 30.8992
#
#
#
# Elastic Compliance Matrix: (Units=1/GPa)
#
#
# Indices 1 2 3 4 5 6 
#
# 1 0.011447 -0.004091 -0.001580 0.000000 0.005293 0.000000
# 2 -0.004091 0.016677 -0.001127 0.000000 -0.005035 0.000000
# 3 -0.001580 -0.001127 0.007886 0.000000 -0.000683 0.000000
# 4 0.000000 0.000000 0.000000 0.047177 0.000000 -0.014229
# 5 0.005293 -0.005035 -0.000683 0.000000 0.027811 0.000000
# 6 0.000000 0.000000 0.000000 -0.014229 0.000000 0.036655
#
#
# Mechanical properties :
#
#
# Convention : Reuss Voigt Hill
#
# Bulk Modulus (GPa) = 44.61621 47.91720 46.26671
# Shear Modulus (GPa) = 29.63472 35.58290 32.60881
#
# Velocity S-wave (km/s) = 3.53441 3.87291 3.70752
# Velocity P-wave (km/s) = 5.95511 6.34019 6.15066
#
# Compressibility (1/GPa) = 0.02241338
#
# Stress axis : x y z
#
# Youngs Moduli (GPa) = 87.35619 59.96395 126.79951
#
# Poissons Ratio (x) = 0.24533 0.20033
# Poissons Ratio (y) = 0.35740 0.14296
# Poissons Ratio (z) = 0.13801 0.06761
#
# Static dielectric constant tensor:
#      x y z
#    x 1.878930 0.000000 0.024480 
#    y 0.000000 1.890590 0.000000 
#    z 0.024480 0.000000 1.893210 
# 
# From -- ./inp_files/215606.got.cif
#   From: 2010.05.17/outbox.cif.g08.bks.cpg/sg15_108_cif.got.tgz:215606.got - 2010.06.03 18:47:42.
