data_PCOD9306300
_publ_section_title
;
Structure prediction by ZEFSAII (Michael W. Deem and Ramdas Pophale) SiO2 
 PCOD9306300
Probable space group: C 2/C
;
_chemical_formula_sum "Si O2"
_cell_formula_units_Z 48
_cell_length_a 8.367450
_cell_length_b 23.772708
_cell_length_c 14.610338
_cell_angle_alpha 90.000000
_cell_angle_beta 134.975111
_cell_angle_gamma 90.000000
_cell_volume 2055.917203
_symmetry_space_group_name_H-M "C 2/C"
_symmetry_group_IT_number 15
_symmetry_cell_setting 'monoclinic'
loop_
_space_group_symop_operation_xyz
x,y,z
-x,y,1/2-z
-x,-y,-z
x,-y,1/2+z
1/2+x,1/2+y,z
1/2-x,1/2+y,1/2-z
1/2-x,1/2-y,-z
1/2+x,1/2-y,1/2+z
loop_
_atom_site_type_symbol
_atom_site_label
_atom_site_fract_x
_atom_site_fract_y
_atom_site_fract_z
Si Si1 0.500000 0.558122 0.250000
Si Si2 0.007713 0.734952 0.856810
Si Si3 0.668615 0.356568 0.234724
Si Si4 0.500000 0.063288 0.750000
Si Si5 0.728937 0.151585 0.235590
Si Si6 0.188445 0.992066 0.498670
Si Si7 0.764388 0.137231 0.461969
O O1 0.305307 0.600932 0.202835
O O2 0.595900 0.520863 0.370318
O O3 0.850421 0.689081 0.844291
O O4 0.879474 0.793495 0.792892
O O5 0.000000 0.710947 0.750000
O O6 0.250000 0.750000 0.000000
O O7 0.500000 0.374706 0.250000
O O8 0.808770 0.401311 0.229060
O O9 0.484895 0.331906 0.088582
O O10 0.396711 0.024678 0.628261
O O11 0.764624 0.130318 0.353179
O O12 0.470808 0.166647 0.112054
O O13 0.237674 0.926677 0.502491
O O14 0.000000 0.000000 0.500000
#
# Coordination Sequence:
#
# PCOD9306300 Si02
#       7
#     4   8   8   4   8   8   8
#     4  12  26  43  78 110 146 199 258 308 378 464
#     4  12  28  49  79 110 148 199 256 315 388 455
#     4  12  29  47  76 113 152 203 256 313 385 458
#     4  12  26  51  76 108 166 203 254 324 370 460
#     4  11  25  46  75 109 147 198 250 318 379 452
#     4  12  26  47  75 111 150 203 252 311 382 444
#     4  11  26  49  70 108 159 195 248 316 377 450
#
# _framework density 23.347244
#
# number of rings (size 3 to 8) (size 9 to 14) (size 15 to 20)
#    0.000    0.333    5.000    2.000   10.500    1.333 
#    0.000    0.000    0.000    0.000    0.000    0.000 
#    0.000    0.000    0.000    0.000    0.000    0.000 
#
# Total GULP energy -134167.623571 kJ/mol
# GULP energy per Si atom -5590.317649 kJ/mol
# Density = 2.329411 g / cm^3
# Si number density = 23.347244 Si / 1000 Ang^3
#
#
#
# Elastic Constant Matrix: (Units=GPa)
#
#
# Indices 1 2 3 4 5 6 
#
# 1 105.5726 24.4971 46.2874 0.0000 3.1076 0.0000
# 2 24.4971 93.5394 35.6844 0.0000 6.8870 0.0000
# 3 46.2874 35.6844 151.9748 0.0000 15.7366 0.0000
# 4 0.0000 0.0000 0.0000 64.6221 0.0000 4.0178
# 5 3.1076 6.8870 15.7366 0.0000 48.7507 0.0000
# 6 0.0000 0.0000 0.0000 4.0178 0.0000 16.2503
#
#
#
# Elastic Compliance Matrix: (Units=1/GPa)
#
#
# Indices 1 2 3 4 5 6 
#
# 1 0.011212 -0.001814 -0.003043 0.000000 0.000524 0.000000
# 2 -0.001814 0.012066 -0.002189 0.000000 -0.000882 0.000000
# 3 -0.003043 -0.002189 0.008244 0.000000 -0.002158 0.000000
# 4 0.000000 0.000000 0.000000 0.015716 0.000000 -0.003886
# 5 0.000524 -0.000882 -0.002158 0.000000 0.021300 0.000000
# 6 0.000000 0.000000 0.000000 -0.003886 0.000000 0.062498
#
#
# Mechanical properties :
#
#
# Convention : Reuss Voigt Hill
#
# Bulk Modulus (GPa) = 57.37430 62.66941 60.02186
# Shear Modulus (GPa) = 33.12589 42.23248 37.67918
#
# Velocity S-wave (km/s) = 3.77083 4.25771 4.02165
# Velocity P-wave (km/s) = 6.60201 7.14643 6.87961
#
# Compressibility (1/GPa) = 0.01742941
#
# Stress axis : x y z
#
# Youngs Moduli (GPa) = 89.19101 82.87832 121.29417
#
# Poissons Ratio (x) = 0.15033 0.36912
# Poissons Ratio (y) = 0.16179 0.26555
# Poissons Ratio (z) = 0.27142 0.18145
#
# Static dielectric constant tensor:
#      x y z
#    x 2.023030 0.000000 0.003980 
#    y 0.000000 1.897480 0.000000 
#    z 0.003980 0.000000 1.977260 
# 
# From -- ./inp_files/139070.got.cif
#   From: 2010.05.17/outbox.cif.g08.bks.cpg/sg15_70_cif.got.tgz:139070.got - 2010.06.03 18:47:42.
