data_PCOD9306622
_publ_section_title
;
Structure prediction by ZEFSAII (Michael W. Deem and Ramdas Pophale) SiO2 
 PCOD9306622
Probable space group: C 2/C
;
_chemical_formula_sum "Si O2"
_cell_formula_units_Z 32
_cell_length_a 7.980937
_cell_length_b 20.328967
_cell_length_c 8.781113
_cell_angle_alpha 90.000000
_cell_angle_beta 87.523898
_cell_angle_gamma 90.000000
_cell_volume 1423.354509
_symmetry_space_group_name_H-M "C 2/C"
_symmetry_group_IT_number 15
_symmetry_cell_setting 'monoclinic'
loop_
_space_group_symop_operation_xyz
x,y,z
-x,y,1/2-z
-x,-y,-z
x,-y,1/2+z
1/2+x,1/2+y,z
1/2-x,1/2+y,1/2-z
1/2-x,1/2-y,-z
1/2+x,1/2-y,1/2+z
loop_
_atom_site_type_symbol
_atom_site_label
_atom_site_fract_x
_atom_site_fract_y
_atom_site_fract_z
Si Si1 0.291136 0.319109 0.927385
Si Si2 0.192223 0.182466 0.417636
Si Si3 0.171392 0.038055 0.551251
Si Si4 0.830059 0.436741 0.352206
O O1 0.230350 0.323171 0.754945
O O2 0.491561 0.318557 0.912146
O O3 0.250000 0.250000 0.000000
O O4 0.221897 0.373713 0.045725
O O5 0.250000 0.250000 0.500000
O O6 0.212871 0.112822 0.500342
O O7 0.192354 0.042164 0.731111
O O8 0.319436 0.995080 0.473345
O O9 0.000000 0.000000 0.500000
O O10 0.000000 0.426996 0.250000
#
# Coordination Sequence:
#
# PCOD9306622 Si02
#       4
#     8   8   8   8
#     4  11  26  46  74 107 150 195 252 311 389 454
#     4  11  26  48  76 108 144 199 253 318 377 459
#     4  12  25  46  77 107 149 198 258 313 385 457
#     4  12  27  47  74 111 154 199 255 319 385 462
#
# _framework density 22.482099999999999
#
# number of rings (size 3 to 8) (size 9 to 14) (size 15 to 20)
#    0.000    0.500    2.500    4.500   10.500    3.000 
#    0.000    0.000    0.000    0.000    0.000    0.000 
#    0.000    0.000    0.000    0.000    0.000    0.000 
#
# Total GULP energy -89303.461167 kJ/mol
# GULP energy per Si atom -5581.466323 kJ/mol
# Density = 2.243093 g / cm^3
# Si number density = 22.482100 Si / 1000 Ang^3
#
#
#
# Elastic Constant Matrix: (Units=GPa)
#
#
# Indices 1 2 3 4 5 6 
#
# 1 109.5255 40.8544 51.9222 0.0000 -16.9045 0.0000
# 2 40.8544 206.5115 95.0935 0.0000 -6.1644 0.0000
# 3 51.9222 95.0935 206.3524 0.0000 -14.5711 0.0000
# 4 0.0000 0.0000 0.0000-1399.4012 0.0000 1915.3235
# 5 -16.9045 -6.1644 -14.5711 0.0000 37.1270 0.0000
# 6 0.0000 0.0000 0.0000 1915.3235 0.0000-2508.6819
#
#
#
# Elastic Compliance Matrix: (Units=1/GPa)
#
#
# Indices 1 2 3 4 5 6 
#
# 1 0.011136 -0.001172 -0.001972 0.000000 0.004102 0.000000
# 2 -0.001172 0.006270 -0.002632 0.000000 -0.000526 0.000000
# 3 -0.001972 -0.002632 0.006645 0.000000 0.001273 0.000000
# 4 0.000000 0.000000 0.000000 0.015897 0.000000 0.012137
# 5 0.004102 -0.000526 0.001273 0.000000 0.029214 0.000000
# 6 0.000000 0.000000 0.000000 0.012137 0.000000 0.008868
#
#
# Mechanical properties :
#
#
# Convention : Reuss Voigt Hill
#
# Bulk Modulus (GPa) = 80.00902 99.79218 89.90060
# Shear Modulus (GPa) = 53.33439 -751.88994 -349.27778
#
# Velocity S-wave (km/s) = 4.87591 -18.30752 -12.47780
# Velocity P-wave (km/s) = 8.20759 20.06000 12.94293
#
# Compressibility (1/GPa) = 0.01249859
#
# Stress axis : x y z
#
# Youngs Moduli (GPa) = 89.80258 159.47829 150.49062
#
# Poissons Ratio (x) = 0.18698 0.29676
# Poissons Ratio (y) = 0.10529 0.39605
# Poissons Ratio (z) = 0.17709 0.41970
#
# Static dielectric constant tensor:
#      x y z
#    x 1.860090 0.000000 0.030170 
#    y 0.000000 1.719710 0.000000 
#    z 0.030170 0.000000 1.853850 
# 
# From -- ./inp_files/22079.got.cif
#   From: 2010.05.17/outbox.cif.g08.bks.cpg/sg15_12_cif.got.tgz:22079.got - 2010.06.03 18:47:42.
