data_PCOD9306529
_publ_section_title
;
Structure prediction by ZEFSAII (Michael W. Deem and Ramdas Pophale) SiO2 
 PCOD9306529
Probable space group: C 2/C
;
_chemical_formula_sum "Si O2"
_cell_formula_units_Z 44
_cell_length_a 11.085607
_cell_length_b 10.468797
_cell_length_c 21.814209
_cell_angle_alpha 90.000000
_cell_angle_beta 139.186920
_cell_angle_gamma 90.000000
_cell_volume 1654.639489
_symmetry_space_group_name_H-M "C 2/C"
_symmetry_group_IT_number 15
_symmetry_cell_setting 'monoclinic'
loop_
_space_group_symop_operation_xyz
x,y,z
-x,y,1/2-z
-x,-y,-z
x,-y,1/2+z
1/2+x,1/2+y,z
1/2-x,1/2+y,1/2-z
1/2-x,1/2-y,-z
1/2+x,1/2-y,1/2+z
loop_
_atom_site_type_symbol
_atom_site_label
_atom_site_fract_x
_atom_site_fract_y
_atom_site_fract_z
Si Si1 0.368798 0.377188 0.557593
Si Si2 0.532918 0.220545 0.102736
Si Si3 0.212724 0.004216 0.349836
Si Si4 0.160331 0.319415 0.201076
Si Si5 0.213074 0.095198 0.060254
Si Si6 0.500000 0.983685 0.250000
O O1 0.250000 0.250000 0.500000
O O2 0.284617 0.471597 0.576672
O O3 0.560451 0.316326 0.654019
O O4 0.371841 0.464790 0.499110
O O5 0.693618 0.131858 0.139492
O O6 0.636319 0.310855 0.191221
O O7 0.382625 0.141027 0.082055
O O8 0.435005 0.295134 0.010101
O O9 0.000000 0.993319 0.250000
O O10 0.320874 0.891116 0.356756
O O11 0.043587 0.398168 0.207005
O O12 0.320307 0.067154 0.164372
#
# Coordination Sequence:
#
# PCOD9306529 Si02
#       6
#     8   8   8   8   8   4
#     4  12  25  49  79 118 160 216 275 346 418 499
#     4  11  25  51  76 117 158 214 273 346 408 501
#     4  12  25  51  81 121 166 215 280 341 426 507
#     4  12  26  49  86 115 166 216 274 352 422 502
#     4  11  27  50  78 114 162 217 279 337 427 488
#     4  12  24  54  74 116 162 216 276 342 414 502
#
# _framework density 26.591895000000001
#
# number of rings (size 3 to 8) (size 9 to 14) (size 15 to 20)
#    0.000    0.364    5.455    2.182    0.000    3.636 
#   14.727    0.000    0.000    0.000    0.000    0.000 
#    0.000    0.000    0.000    0.000    0.000    0.000 
#
# Total GULP energy -123442.611780 kJ/mol
# GULP energy per Si atom -5611.027808 kJ/mol
# Density = 2.653137 g / cm^3
# Si number density = 26.591895 Si / 1000 Ang^3
#
#
#
# Elastic Constant Matrix: (Units=GPa)
#
#
# Indices 1 2 3 4 5 6 
#
# 1 140.5763 47.7944 24.3033 0.0000 -14.3675 0.0000
# 2 47.7944 93.3415 46.6755 0.0000 -9.6682 0.0000
# 3 24.3033 46.6755 154.7191 0.0000 -5.7589 0.0000
# 4 0.0000 0.0000 0.0000 63.6108 0.0000 5.2899
# 5 -14.3675 -9.6682 -5.7589 0.0000 37.6022 0.0000
# 6 0.0000 0.0000 0.0000 5.2899 0.0000 36.3283
#
#
#
# Elastic Compliance Matrix: (Units=1/GPa)
#
#
# Indices 1 2 3 4 5 6 
#
# 1 0.008797 -0.004264 -0.000011 0.000000 0.002263 0.000000
# 2 -0.004264 0.014957 -0.003782 0.000000 0.001637 0.000000
# 3 -0.000011 -0.003782 0.007613 0.000000 0.000189 0.000000
# 4 0.000000 0.000000 0.000000 0.015913 0.000000 -0.002317
# 5 0.002263 0.001637 0.000189 0.000000 0.027909 0.000000
# 6 0.000000 0.000000 0.000000 -0.002317 0.000000 0.027864
#
#
# Mechanical properties :
#
#
# Convention : Reuss Voigt Hill
#
# Bulk Modulus (GPa) = 65.56048 69.57591 67.56819
# Shear Modulus (GPa) = 40.24101 45.49917 42.87009
#
# Velocity S-wave (km/s) = 3.89431 4.14093 4.01951
# Velocity P-wave (km/s) = 6.70289 7.00601 6.85613
#
# Compressibility (1/GPa) = 0.01525309
#
# Stress axis : x y z
#
# Youngs Moduli (GPa) = 113.68056 66.85669 131.35542
#
# Poissons Ratio (x) = 0.28509 0.00146
# Poissons Ratio (y) = 0.48476 0.49673
# Poissons Ratio (z) = 0.00126 0.25282
#
# Static dielectric constant tensor:
#      x y z
#    x 2.130110 0.000000 -0.026710 
#    y 0.000000 2.035070 0.000000 
#    z -0.026710 0.000000 2.111450 
# 
# From -- ./inp_files/269371.got.cif
#   From: 2010.05.17/outbox.cif.g08.bks.cpg/sg15_135_cif.got.tgz:269371.got - 2010.06.03 18:47:42.
