data_PCOD9306507
_publ_section_title
;
Structure prediction by ZEFSAII (Michael W. Deem and Ramdas Pophale) SiO2 
 PCOD9306507
Probable space group: C 2/C
;
_chemical_formula_sum "Si O2"
_cell_formula_units_Z 44
_cell_length_a 21.954562
_cell_length_b 11.382016
_cell_length_c 13.357427
_cell_angle_alpha 90.000000
_cell_angle_beta 36.176448
_cell_angle_gamma 90.000000
_cell_volume 1970.245596
_symmetry_space_group_name_H-M "C 2/C"
_symmetry_group_IT_number 15
_symmetry_cell_setting 'monoclinic'
loop_
_space_group_symop_operation_xyz
x,y,z
-x,y,1/2-z
-x,-y,-z
x,-y,1/2+z
1/2+x,1/2+y,z
1/2-x,1/2+y,1/2-z
1/2-x,1/2-y,-z
1/2+x,1/2-y,1/2+z
loop_
_atom_site_type_symbol
_atom_site_label
_atom_site_fract_x
_atom_site_fract_y
_atom_site_fract_z
Si Si1 0.043353 0.856366 0.044693
Si Si2 0.859339 0.686473 0.364324
Si Si3 0.699404 0.168099 0.848276
Si Si4 0.000000 0.309906 0.250000
Si Si5 0.094459 0.541545 0.806608
Si Si6 0.427976 0.624768 0.496536
O O1 0.156787 0.800972 0.906000
O O2 0.050216 0.991840 0.067606
O O3 0.953232 0.776889 0.215959
O O4 0.014477 0.850966 0.965530
O O5 0.750000 0.750000 0.500000
O O6 0.861750 0.625918 0.471473
O O7 0.856792 0.580125 0.291445
O O8 0.664627 0.114673 0.789199
O O9 0.819179 0.139524 0.697638
O O10 0.942093 0.386878 0.242771
O O11 0.928739 0.220679 0.408218
O O12 0.000000 0.500000 0.000000
#
# Coordination Sequence:
#
# PCOD9306507 Si02
#       6
#     8   8   8   4   8   8
#     4  11  25  50  74 110 156 194 254 316 378 446
#     4  12  26  47  80 112 148 205 255 305 386 454
#     4  12  26  47  76 110 144 205 256 303 379 460
#     4  12  26  50  72 110 156 196 250 314 396 438
#     4  12  26  47  75 106 152 199 250 317 370 455
#     4  11  27  48  75 111 154 197 250 320 375 462
#
# _framework density 22.332242000000001
#
# number of rings (size 3 to 8) (size 9 to 14) (size 15 to 20)
#    0.000    0.364    5.455    1.636    5.091    2.182 
#    0.000    0.000    0.000    0.000    0.000    0.000 
#    0.000    0.000    0.000    0.000    0.000    0.000 
#
# Total GULP energy -122912.501184 kJ/mol
# GULP energy per Si atom -5586.931872 kJ/mol
# Density = 2.228141 g / cm^3
# Si number density = 22.332242 Si / 1000 Ang^3
#
#
#
# Elastic Constant Matrix: (Units=GPa)
#
#
# Indices 1 2 3 4 5 6 
#
# 1 103.1951 41.1311 15.1992 0.0000 15.2163 0.0000
# 2 41.1311 132.9801 63.6558 0.0000 7.9722 0.0000
# 3 15.1992 63.6558 98.5018 0.0000 14.7978 0.0000
# 4 0.0000 0.0000 0.0000 37.3300 0.0000 5.9033
# 5 15.2163 7.9722 14.7978 0.0000 37.9138 0.0000
# 6 0.0000 0.0000 0.0000 5.9033 0.0000 30.5681
#
#
#
# Elastic Compliance Matrix: (Units=1/GPa)
#
#
# Indices 1 2 3 4 5 6 
#
# 1 0.011753 -0.004083 0.001492 0.000000 -0.004441 0.000000
# 2 -0.004083 0.012315 -0.007633 0.000000 0.002029 0.000000
# 3 0.001492 -0.007633 0.015619 0.000000 -0.005090 0.000000
# 4 0.000000 0.000000 0.000000 0.027632 0.000000 -0.005336
# 5 -0.004441 0.002029 -0.005090 0.000000 0.029718 0.000000
# 6 0.000000 0.000000 0.000000 -0.005336 0.000000 0.033744
#
#
# Mechanical properties :
#
#
# Convention : Reuss Voigt Hill
#
# Bulk Modulus (GPa) = 51.97722 63.84991 57.91356
# Shear Modulus (GPa) = 31.71712 35.47510 33.59611
#
# Velocity S-wave (km/s) = 3.77269 3.98994 3.88284
# Velocity P-wave (km/s) = 6.50405 7.06252 6.78903
#
# Compressibility (1/GPa) = 0.01923920
#
# Stress axis : x y z
#
# Youngs Moduli (GPa) = 85.08522 81.19998 64.02277
#
# Poissons Ratio (x) = 0.33157 -0.09555
# Poissons Ratio (y) = 0.34744 0.48870
# Poissons Ratio (z) = -0.12699 0.61982
#
# Static dielectric constant tensor:
#      x y z
#    x 1.873680 0.000000 0.011380 
#    y 0.000000 1.809800 0.000000 
#    z 0.011380 0.000000 1.806400 
# 
# From -- ./inp_files/177511.got.cif
#   From: 2010.05.17/outbox.cif.g08.bks.cpg/sg15_89_cif.got.tgz:177511.got - 2010.06.03 18:47:42.
