data_PCOD9306844
_publ_section_title
;
Structure prediction by ZEFSAII (Michael W. Deem and Ramdas Pophale) SiO2 
 PCOD9306844
Probable space group: C 2/C
;
_chemical_formula_sum "Si O2"
_cell_formula_units_Z 32
_cell_length_a 5.210102
_cell_length_b 13.703734
_cell_length_c 19.921144
_cell_angle_alpha 90.000000
_cell_angle_beta 59.631534
_cell_angle_gamma 90.000000
_cell_volume 1227.172326
_symmetry_space_group_name_H-M "C 2/C"
_symmetry_group_IT_number 15
_symmetry_cell_setting 'monoclinic'
loop_
_space_group_symop_operation_xyz
x,y,z
-x,y,1/2-z
-x,-y,-z
x,-y,1/2+z
1/2+x,1/2+y,z
1/2-x,1/2+y,1/2-z
1/2-x,1/2-y,-z
1/2+x,1/2-y,1/2+z
loop_
_atom_site_type_symbol
_atom_site_label
_atom_site_fract_x
_atom_site_fract_y
_atom_site_fract_z
Si Si1 0.000000 0.531333 0.750000
Si Si2 0.107403 0.453097 0.593250
Si Si3 0.291817 0.773322 0.665509
Si Si4 0.000000 0.832888 0.250000
Si Si5 0.206171 0.849142 0.465212
O O1 0.136397 0.471375 0.669728
O O2 0.250215 0.596595 0.753210
O O3 0.391695 0.397177 0.526050
O O4 0.071785 0.557917 0.562020
O O5 0.842236 0.376188 0.623068
O O6 0.559460 0.740740 0.680186
O O7 0.283999 0.688937 0.612002
O O8 0.000000 0.780663 0.750000
O O9 0.250000 0.750000 0.500000
#
# Coordination Sequence:
#
# PCOD9306844 Si02
#       5
#     4   8   8   4   8
#     4  12  27  50  85 120 162 222 285 344 413 500
#     4  11  27  49  78 122 160 218 278 337 417 492
#     4  12  27  52  83 122 167 222 277 346 412 500
#     4  12  25  50  83 118 164 218 277 346 413 482
#     4  11  27  52  79 121 169 217 272 348 420 493
#
# _framework density 26.076205999999999
#
# number of rings (size 3 to 8) (size 9 to 14) (size 15 to 20)
#    0.000    0.500    3.750    1.500   12.250    1.000 
#    0.000    0.000    0.000    0.000    0.000    0.000 
#    0.000    0.000    0.000    0.000    0.000    0.000 
#
# Total GULP energy -89600.885571 kJ/mol
# GULP energy per Si atom -5600.055348 kJ/mol
# Density = 2.601686 g / cm^3
# Si number density = 26.076206 Si / 1000 Ang^3
#
#
#
# Elastic Constant Matrix: (Units=GPa)
#
#
# Indices 1 2 3 4 5 6 
#
# 1 87.3134 51.4980 30.0206 0.0000 7.0624 0.0000
# 2 51.4980 238.8062 80.7862 0.0000 -9.0568 0.0000
# 3 30.0206 80.7862 161.5379 0.0000 -15.3463 0.0000
# 4 0.0000 0.0000 0.0000 65.8521 0.0000 8.9766
# 5 7.0624 -9.0568 -15.3463 0.0000 33.4690 0.0000
# 6 0.0000 0.0000 0.0000 8.9766 0.0000 43.6355
#
#
#
# Elastic Compliance Matrix: (Units=1/GPa)
#
#
# Indices 1 2 3 4 5 6 
#
# 1 0.013929 -0.002592 -0.001713 0.000000 -0.004426 0.000000
# 2 -0.002592 0.005524 -0.002182 0.000000 0.001041 0.000000
# 3 -0.001713 -0.002182 0.007923 0.000000 0.003404 0.000000
# 4 0.000000 0.000000 0.000000 0.015624 0.000000 -0.003214
# 5 -0.004426 0.001041 0.003404 0.000000 0.032655 0.000000
# 6 0.000000 0.000000 0.000000 -0.003214 0.000000 0.023578
#
#
# Mechanical properties :
#
#
# Convention : Reuss Voigt Hill
#
# Bulk Modulus (GPa) = 69.43180 90.25188 79.84184
# Shear Modulus (GPa) = 42.73226 50.28150 46.50688
#
# Velocity S-wave (km/s) = 4.05253 4.39595 4.22773
# Velocity P-wave (km/s) = 6.97006 7.77508 7.38354
#
# Compressibility (1/GPa) = 0.01440262
#
# Stress axis : x y z
#
# Youngs Moduli (GPa) = 71.79410 181.02374 126.20858
#
# Poissons Ratio (x) = 0.46925 0.21615
# Poissons Ratio (y) = 0.18610 0.27539
# Poissons Ratio (z) = 0.12296 0.39499
#
# Static dielectric constant tensor:
#      x y z
#    x 2.084620 0.000000 0.005680 
#    y 0.000000 2.074240 0.000000 
#    z 0.005680 0.000000 2.087780 
# 
# From -- ./inp_files/226410.got.cif
#   From: 2010.05.17/outbox.cif.g08.bks.cpg/sg15_114_cif.got.tgz:226410.got - 2010.06.03 18:47:42.
