data_PCOD9306837
_publ_section_title
;
Structure prediction by ZEFSAII (Michael W. Deem and Ramdas Pophale) SiO2 
 PCOD9306837
Probable space group: C 2/C
;
_chemical_formula_sum "Si O2"
_cell_formula_units_Z 36
_cell_length_a 18.435182
_cell_length_b 4.778615
_cell_length_c 15.833440
_cell_angle_alpha 90.000000
_cell_angle_beta 72.119911
_cell_angle_gamma 90.000000
_cell_volume 1327.471939
_symmetry_space_group_name_H-M "C 2/C"
_symmetry_group_IT_number 15
_symmetry_cell_setting 'monoclinic'
loop_
_space_group_symop_operation_xyz
x,y,z
-x,y,1/2-z
-x,-y,-z
x,-y,1/2+z
1/2+x,1/2+y,z
1/2-x,1/2+y,1/2-z
1/2-x,1/2-y,-z
1/2+x,1/2-y,1/2+z
loop_
_atom_site_type_symbol
_atom_site_label
_atom_site_fract_x
_atom_site_fract_y
_atom_site_fract_z
Si Si1 0.175731 0.294109 0.814188
Si Si2 0.000000 0.878377 0.250000
Si Si3 0.342950 0.623014 0.313955
Si Si4 0.429586 0.960514 0.414978
Si Si5 0.913062 0.789335 0.586490
O O1 0.259122 0.258513 0.822177
O O2 0.140666 0.600260 0.833505
O O3 0.175960 0.191639 0.716886
O O4 0.118073 0.099300 0.888439
O O5 0.031174 0.673965 0.166020
O O6 0.068120 0.088213 0.248698
O O7 0.365438 0.767057 0.394904
O O8 0.498002 0.768389 0.427592
O O9 0.398026 0.159294 0.499807
#
# Coordination Sequence:
#
# PCOD9306837 Si02
#       5
#     8   4   8   8   8
#     4  12  27  50  74 115 155 205 254 316 384 456
#     4  12  24  48  74 114 144 206 262 314 374 480
#     4  12  28  46  79 108 155 205 258 318 377 464
#     4  11  27  48  81 115 152 206 255 319 388 457
#     4  11  27  51  79 114 160 196 254 322 388 456
#
# _framework density 27.119218
#
# number of rings (size 3 to 8) (size 9 to 14) (size 15 to 20)
#    0.000    0.444    2.222    4.667    9.333    3.556 
#    0.000    0.000    0.000    0.000    0.000    0.000 
#    0.000    0.000    0.000    0.000    0.000    0.000 
#
# Total GULP energy -100541.236912 kJ/mol
# GULP energy per Si atom -5585.624273 kJ/mol
# Density = 2.705749 g / cm^3
# Si number density = 27.119218 Si / 1000 Ang^3
#
#
#
# Elastic Constant Matrix: (Units=GPa)
#
#
# Indices 1 2 3 4 5 6 
#
# 1 248.7523 68.4637 47.3233 0.0000 15.1433 0.0000
# 2 68.4637 78.0438 28.5465 0.0000 -4.7044 0.0002
# 3 47.3233 28.5465 71.3733 0.0000 3.3561 0.0000
# 4 0.0000 0.0000 0.0000 35.4027 0.0000 -0.7811
# 5 15.1433 -4.7044 3.3561 0.0000 39.7504 0.0000
# 6 0.0000 0.0002 0.0000 -0.7811 0.0000 20.5779
#
#
#
# Elastic Compliance Matrix: (Units=1/GPa)
#
#
# Indices 1 2 3 4 5 6 
#
# 1 0.005788 -0.004537 -0.001901 0.000000 -0.002581 0.000000
# 2 -0.004537 0.018777 -0.004706 0.000000 0.004348 0.000000
# 3 -0.001901 -0.004706 0.017214 0.000000 -0.001286 0.000000
# 4 0.000000 0.000000 0.000000 0.028270 0.000000 0.001073
# 5 -0.002581 0.004348 -0.001286 0.000000 0.026764 0.000000
# 6 0.000000 0.000000 0.000000 0.001073 0.000000 0.048636
#
#
# Mechanical properties :
#
#
# Convention : Reuss Voigt Hill
#
# Bulk Modulus (GPa) = 51.30978 76.31517 63.81247
# Shear Modulus (GPa) = 28.69678 36.06861 32.38269
#
# Velocity S-wave (km/s) = 3.25648 3.65088 3.45930
# Velocity P-wave (km/s) = 5.75332 6.78038 6.28786
#
# Compressibility (1/GPa) = 0.01948946
#
# Stress axis : x y z
#
# Youngs Moduli (GPa) = 172.77860 53.25596 58.09151
#
# Poissons Ratio (x) = 0.24165 0.11045
# Poissons Ratio (y) = 0.78397 0.27339
# Poissons Ratio (z) = 0.32851 0.25063
#
# Static dielectric constant tensor:
#      x y z
#    x 2.130880 0.000000 0.167210 
#    y 0.000000 2.186790 0.000000 
#    z 0.167210 0.000000 2.518510 
# 
# From -- ./inp_files/207942.got.cif
#   From: 2010.05.17/outbox.cif.g08.bks.cpg/sg15_104_cif.got.tgz:207942.got - 2010.06.03 18:47:42.
