data_PCOD9306554
_publ_section_title
;
Structure prediction by ZEFSAII (Michael W. Deem and Ramdas Pophale) SiO2 
 PCOD9306554
Probable space group: C 2/C
;
_chemical_formula_sum "Si O2"
_cell_formula_units_Z 56
_cell_length_a 29.208139
_cell_length_b 4.792176
_cell_length_c 16.617164
_cell_angle_alpha 90.000000
_cell_angle_beta 69.902864
_cell_angle_gamma 90.000000
_cell_volume 2184.291917
_symmetry_space_group_name_H-M "C 2/C"
_symmetry_group_IT_number 15
_symmetry_cell_setting 'monoclinic'
loop_
_space_group_symop_operation_xyz
x,y,z
-x,y,1/2-z
-x,-y,-z
x,-y,1/2+z
1/2+x,1/2+y,z
1/2-x,1/2+y,1/2-z
1/2-x,1/2-y,-z
1/2+x,1/2-y,1/2+z
loop_
_atom_site_type_symbol
_atom_site_label
_atom_site_fract_x
_atom_site_fract_y
_atom_site_fract_z
Si Si1 0.425174 0.017510 0.942292
Si Si2 0.236533 0.940623 0.434245
Si Si3 0.626425 0.321802 0.273190
Si Si4 0.925076 0.669579 0.628021
Si Si5 0.514532 0.505908 0.647313
Si Si6 0.833952 0.748987 0.416387
Si Si7 0.777512 0.570808 0.210527
O O1 0.468694 0.819519 0.882220
O O2 0.374586 0.951524 0.928735
O O3 0.438669 0.329581 0.909790
O O4 0.423515 0.953408 0.038838
O O5 0.250000 0.750000 0.500000
O O6 0.226821 0.719451 0.371378
O O7 0.188727 0.099870 0.492559
O O8 0.285997 0.122672 0.401094
O O9 0.616164 0.598500 0.329843
O O10 0.639013 0.403335 0.174015
O O11 0.671253 0.151741 0.283562
O O12 0.582873 0.094724 0.307468
O O13 0.972417 0.856343 0.619990
O O14 0.500000 0.477410 0.750000
O O15 0.764706 0.245811 0.216340
#
# Coordination Sequence:
#
# PCOD9306554 Si02
#       7
#     8   8   8   8   8   8   8
#     4  12  26  45  74 100 143 176 230 279 348 412
#     4  11  26  43  72  95 145 182 240 289 352 414
#     4  12  25  44  70  99 141 179 234 279 344 411
#     4  12  26  45  71 104 137 181 229 283 343 416
#     4  12  25  47  73 105 137 180 223 285 345 412
#     4  11  26  45  65 105 132 188 227 293 343 416
#     4  12  25  45  67 101 137 186 236 287 351 408
#
# _framework density 25.637599999999999
#
# number of rings (size 3 to 8) (size 9 to 14) (size 15 to 20)
#    0.000    0.286    1.429    7.286    8.000    0.000 
#    0.000    0.000    0.000    0.000    0.000    0.000 
#    0.000    0.000    0.000    0.000    0.000    0.000 
#
# Total GULP energy -156848.706081 kJ/mol
# GULP energy per Si atom -5601.739503 kJ/mol
# Density = 2.557925 g / cm^3
# Si number density = 25.637600 Si / 1000 Ang^3
#
#
#
# Elastic Constant Matrix: (Units=GPa)
#
#
# Indices 1 2 3 4 5 6 
#
# 1 89.4834 -10.7643 12.5579 0.0000 -7.7296 0.0000
# 2 -10.7643 83.2583 -2.9633 0.0000 -14.7336 0.0000
# 3 12.5579 -2.9633 127.3856 0.0000 6.2784 0.0000
# 4 0.0000 0.0000 0.0000 23.3626 0.0000 -7.1433
# 5 -7.7296 -14.7336 6.2784 0.0000 40.0310 0.0000
# 6 0.0000 0.0000 0.0000 -7.1433 0.0000 21.0725
#
#
#
# Elastic Compliance Matrix: (Units=1/GPa)
#
#
# Indices 1 2 3 4 5 6 
#
# 1 0.011886 0.002067 -0.001284 0.000000 0.003257 0.000000
# 2 0.002067 0.013208 -0.000157 0.000000 0.005285 0.000000
# 3 -0.001284 -0.000157 0.008050 0.000000 -0.001568 0.000000
# 4 0.000000 0.000000 0.000000 0.047753 0.000000 0.016188
# 5 0.003257 0.005285 -0.001568 0.000000 0.027801 0.000000
# 6 0.000000 0.000000 0.000000 0.016188 0.000000 0.052943
#
#
# Mechanical properties :
#
#
# Convention : Reuss Voigt Hill
#
# Bulk Modulus (GPa) = 29.07310 33.08756 31.08033
# Shear Modulus (GPa) = 29.09462 36.97967 33.03714
#
# Velocity S-wave (km/s) = 3.37240 3.80201 3.59363
# Velocity P-wave (km/s) = 5.15060 5.67518 5.41924
#
# Compressibility (1/GPa) = 0.03439606
#
# Stress axis : x y z
#
# Youngs Moduli (GPa) = 84.13595 75.71311 124.21705
#
# Poissons Ratio (x) = -0.15653 0.15951
# Poissons Ratio (y) = -0.17394 0.01951
# Poissons Ratio (z) = 0.10804 0.01189
#
# Static dielectric constant tensor:
#      x y z
#    x 2.015590 0.000000 -0.006820 
#    y 0.000000 1.952340 0.000000 
#    z -0.006820 0.000000 1.963590 
# 
# From -- ./inp_files/223826.got.cif
#   From: 2010.05.17/outbox.cif.g08.bks.cpg/sg15_112_cif.got.tgz:223826.got - 2010.06.03 18:47:42.
