data_PCOD9306778
_publ_section_title
;
Structure prediction by ZEFSAII (Michael W. Deem and Ramdas Pophale) SiO2 
 PCOD9306778
Probable space group: C 2/C
;
_chemical_formula_sum "Si O2"
_cell_formula_units_Z 36
_cell_length_a 28.144353
_cell_length_b 12.262111
_cell_length_c 14.093413
_cell_angle_alpha 90.000000
_cell_angle_beta 160.692561
_cell_angle_gamma 90.000000
_cell_volume 1608.140720
_symmetry_space_group_name_H-M "C 2/C"
_symmetry_group_IT_number 15
_symmetry_cell_setting 'monoclinic'
loop_
_space_group_symop_operation_xyz
x,y,z
-x,y,1/2-z
-x,-y,-z
x,-y,1/2+z
1/2+x,1/2+y,z
1/2-x,1/2+y,1/2-z
1/2-x,1/2-y,-z
1/2+x,1/2-y,1/2+z
loop_
_atom_site_type_symbol
_atom_site_label
_atom_site_fract_x
_atom_site_fract_y
_atom_site_fract_z
Si Si1 0.076786 0.400719 0.196796
Si Si2 0.500000 0.812368 0.250000
Si Si3 0.875257 0.040779 0.334542
Si Si4 0.759495 0.660282 0.806309
Si Si5 0.514024 0.766146 0.908973
O O1 0.246189 0.419077 0.523508
O O2 0.029250 0.386330 0.214683
O O3 0.000000 0.500000 0.000000
O O4 0.031738 0.295048 0.052220
O O5 0.634805 0.736513 0.530164
O O6 0.933493 0.142878 0.504688
O O7 0.811063 0.948037 0.282860
O O8 0.000000 0.000000 0.500000
O O9 0.854667 0.714491 0.069696
O O10 0.877440 0.654085 0.944078
#
# Coordination Sequence:
#
# PCOD9306778 Si02
#       5
#     8   4   8   8   8
#     4  12  27  48  77 107 153 202 255 318 394 465
#     4  12  28  48  74 110 150 196 260 322 388 464
#     4  12  27  47  75 113 150 206 261 322 390 470
#     4  11  27  48  75 112 152 201 257 320 388 469
#     4  11  26  51  75 110 157 202 261 318 398 468
#
# _framework density 22.386099999999999
#
# number of rings (size 3 to 8) (size 9 to 14) (size 15 to 20)
#    0.000    0.444    4.444    2.000    9.333    3.556 
#    0.000    0.000    0.000    0.000    0.000    0.000 
#    0.000    0.000    0.000    0.000    0.000    0.000 
#
# Total GULP energy -100768.340330 kJ/mol
# GULP energy per Si atom -5598.241129 kJ/mol
# Density = 2.233515 g / cm^3
# Si number density = 22.386100 Si / 1000 Ang^3
#
#
#
# Elastic Constant Matrix: (Units=GPa)
#
#
# Indices 1 2 3 4 5 6 
#
# 1 132.9375 49.4433 55.5921 0.0000 -14.6933 0.0000
# 2 49.4433 137.6708 57.5472 0.0000 -5.9507 0.0000
# 3 55.5921 57.5472 145.1706 0.0000 -10.5176 0.0000
# 4 0.0000 0.0000 0.0000 37.2976 0.0000 0.7348
# 5 -14.6933 -5.9507 -10.5176 0.0000 29.7543 0.0000
# 6 0.0000 0.0000 0.0000 0.7348 0.0000 46.1880
#
#
#
# Elastic Compliance Matrix: (Units=1/GPa)
#
#
# Indices 1 2 3 4 5 6 
#
# 1 0.009853 -0.002297 -0.002610 0.000000 0.003484 0.000000
# 2 -0.002297 0.009250 -0.002807 0.000000 -0.000277 0.000000
# 3 -0.002610 -0.002807 0.009100 0.000000 0.001366 0.000000
# 4 0.000000 0.000000 0.000000 0.026820 0.000000 -0.000427
# 5 0.003484 -0.000277 0.001366 0.000000 0.035756 0.000000
# 6 0.000000 0.000000 0.000000 -0.000427 0.000000 0.021657
#
#
# Mechanical properties :
#
#
# Convention : Reuss Voigt Hill
#
# Bulk Modulus (GPa) = 78.28333 82.32713 80.30523
# Shear Modulus (GPa) = 37.84318 39.52774 38.68546
#
# Velocity S-wave (km/s) = 4.11600 4.20661 4.16155
# Velocity P-wave (km/s) = 7.59172 7.77496 7.68388
#
# Compressibility (1/GPa) = 0.01277411
#
# Stress axis : x y z
#
# Youngs Moduli (GPa) = 101.48904 108.10620 109.89187
#
# Poissons Ratio (x) = 0.24832 0.28685
# Poissons Ratio (y) = 0.23312 0.30850
# Poissons Ratio (z) = 0.26492 0.30348
#
# Static dielectric constant tensor:
#      x y z
#    x 1.846540 0.000000 0.007920 
#    y 0.000000 1.931320 0.000000 
#    z 0.007920 0.000000 1.792850 
# 
# From -- ./inp_files/181862.got.cif
#   From: 2010.05.17/outbox.cif.g08.bks.cpg/sg15_91_cif.got.tgz:181862.got - 2010.06.03 18:47:42.
