data_PCOD9306005
_publ_section_title
;
Structure prediction by ZEFSAII (Michael W. Deem and Ramdas Pophale) SiO2 
 PCOD9306005
Probable space group: C 2/C
;
_chemical_formula_sum "Si O2"
_cell_formula_units_Z 36
_cell_length_a 16.615671
_cell_length_b 7.221283
_cell_length_c 13.612911
_cell_angle_alpha 90.000000
_cell_angle_beta 72.341621
_cell_angle_gamma 90.000000
_cell_volume 1556.404283
_symmetry_space_group_name_H-M "C 2/C"
_symmetry_group_IT_number 15
_symmetry_cell_setting 'monoclinic'
loop_
_space_group_symop_operation_xyz
x,y,z
-x,y,1/2-z
-x,-y,-z
x,-y,1/2+z
1/2+x,1/2+y,z
1/2-x,1/2+y,1/2-z
1/2-x,1/2-y,-z
1/2+x,1/2-y,1/2+z
loop_
_atom_site_type_symbol
_atom_site_label
_atom_site_fract_x
_atom_site_fract_y
_atom_site_fract_z
Si Si1 0.252645 0.392837 0.411652
Si Si2 0.578059 0.085923 0.412421
Si Si3 0.500000 0.063756 0.750000
Si Si4 0.175794 0.916031 0.315447
Si Si5 0.337794 0.734997 0.326999
O O1 0.250000 0.250000 0.500000
O O2 0.161478 0.471022 0.412430
O O3 0.301993 0.316890 0.297542
O O4 0.304590 0.580281 0.414128
O O5 0.550288 0.050283 0.311206
O O6 0.500000 0.000000 0.500000
O O7 0.605721 0.301782 0.400692
O O8 0.573016 0.187096 0.674361
O O9 0.264807 0.887299 0.338573
O O10 0.152826 0.118253 0.280431
#
# Coordination Sequence:
#
# PCOD9306005 Si02
#       5
#     8   8   4   8   8
#     4   9  20  40  64  87 122 164 214 243 319 380
#     4  11  25  41  62  97 126 166 210 265 319 369
#     4  12  22  42  60  94 130 156 212 266 308 376
#     4   9  19  42  62  85 126 165 210 245 316 374
#     4   9  19  38  63  88 118 169 202 255 311 369
#
# _framework density 23.130237999999999
#
# number of rings (size 3 to 8) (size 9 to 14) (size 15 to 20)
#    1.333    0.889    2.222    0.000    3.111    2.667 
#    4.000    4.444    0.000    0.000    0.000    0.000 
#    0.000    0.000    0.000    0.000    0.000    0.000 
#
# Total GULP energy -100321.908442 kJ/mol
# GULP energy per Si atom -5573.439358 kJ/mol
# Density = 2.307759 g / cm^3
# Si number density = 23.130238 Si / 1000 Ang^3
#
#
#
# Elastic Constant Matrix: (Units=GPa)
#
#
# Indices 1 2 3 4 5 6 
#
# 1 133.5887 26.9909 2.4321 0.0000 -5.3184 0.0000
# 2 26.9909 62.3020 -6.4461 0.0000 3.5499 0.0000
# 3 2.4321 -6.4461 52.1533 0.0000 -6.5930 0.0000
# 4 0.0000 0.0000 0.0000 31.2596 0.0000 0.1277
# 5 -5.3184 3.5499 -6.5930 0.0000 39.4876 0.0000
# 6 0.0000 0.0000 0.0000 0.1277 0.0000 33.0781
#
#
#
# Elastic Compliance Matrix: (Units=1/GPa)
#
#
# Indices 1 2 3 4 5 6 
#
# 1 0.008308 -0.003746 -0.000681 0.000000 0.001342 0.000000
# 2 -0.003746 0.017999 0.002177 0.000000 -0.001759 0.000000
# 3 -0.000681 0.002177 0.019858 0.000000 0.003028 0.000000
# 4 0.000000 0.000000 0.000000 0.031991 0.000000 -0.000124
# 5 0.001342 -0.001759 0.003028 0.000000 0.026169 0.000000
# 6 0.000000 0.000000 0.000000 -0.000124 0.000000 0.030232
#
#
# Mechanical properties :
#
#
# Convention : Reuss Voigt Hill
#
# Bulk Modulus (GPa) = 24.00076 32.66642 28.33359
# Shear Modulus (GPa) = 32.69129 35.76953 34.23041
#
# Velocity S-wave (km/s) = 3.76354 3.93675 3.85112
# Velocity P-wave (km/s) = 5.41152 5.90063 5.66136
#
# Compressibility (1/GPa) = 0.04166535
#
# Stress axis : x y z
#
# Youngs Moduli (GPa) = 120.35984 55.55761 50.35783
#
# Poissons Ratio (x) = 0.20814 0.03429
# Poissons Ratio (y) = 0.45091 -0.10963
# Poissons Ratio (z) = 0.08195 -0.12095
#
# Static dielectric constant tensor:
#      x y z
#    x 1.841110 0.000000 -0.132940 
#    y 0.000000 1.908670 0.000000 
#    z -0.132940 0.000000 2.872260 
# 
# From -- ./inp_files/150232.got.cif
#   From: 2010.05.17/outbox.cif.g08.bks.cpg/sg15_76_cif.got.tgz:150232.got - 2010.06.03 18:47:42.
