data_PCOD9306229
_publ_section_title
;
Structure prediction by ZEFSAII (Michael W. Deem and Ramdas Pophale) SiO2 
 PCOD9306229
Probable space group: C 2/C
;
_chemical_formula_sum "Si O2"
_cell_formula_units_Z 40
_cell_length_a 20.104615
_cell_length_b 6.565000
_cell_length_c 13.350126
_cell_angle_alpha 90.000000
_cell_angle_beta 82.269548
_cell_angle_gamma 90.000000
_cell_volume 1746.026685
_symmetry_space_group_name_H-M "C 2/C"
_symmetry_group_IT_number 15
_symmetry_cell_setting 'monoclinic'
loop_
_space_group_symop_operation_xyz
x,y,z
-x,y,1/2-z
-x,-y,-z
x,-y,1/2+z
1/2+x,1/2+y,z
1/2-x,1/2+y,1/2-z
1/2-x,1/2-y,-z
1/2+x,1/2-y,1/2+z
loop_
_atom_site_type_symbol
_atom_site_label
_atom_site_fract_x
_atom_site_fract_y
_atom_site_fract_z
Si Si1 0.961824 0.014000 0.157356
Si Si2 0.671080 0.765139 0.265198
Si Si3 0.226127 0.060415 0.597920
Si Si4 0.049564 0.310859 0.003913
Si Si5 0.830037 0.538029 0.413625
O O1 0.898226 0.159999 0.189940
O O2 0.000000 0.950665 0.250000
O O3 0.015276 0.149177 0.085110
O O4 0.939278 0.816724 0.099408
O O5 0.718383 0.811711 0.349809
O O6 0.704279 0.616520 0.176176
O O7 0.663717 0.970728 0.202469
O O8 0.165821 0.216488 0.585748
O O9 0.260689 0.995108 0.487409
O O10 0.115607 0.409917 0.036859
O O11 0.000000 0.500000 0.000000
#
# Coordination Sequence:
#
# PCOD9306229 Si02
#       5
#     8   8   8   8   8
#     4  11  26  46  70 108 141 184 241 292 348 430
#     4  12  24  45  72 101 144 184 235 296 359 424
#     4  11  26  42  71 107 137 188 243 292 358 429
#     4  11  26  46  73 102 143 188 235 291 355 423
#     4  11  25  46  68 102 143 184 238 296 356 425
#
# _framework density 22.909157
#
# number of rings (size 3 to 8) (size 9 to 14) (size 15 to 20)
#    0.000    0.800    4.000    1.800    5.600    5.600 
#    0.000    0.000    0.000    0.000    0.000    0.000 
#    0.000    0.000    0.000    0.000    0.000    0.000 
#
# Total GULP energy -111947.713525 kJ/mol
# GULP energy per Si atom -5597.385676 kJ/mol
# Density = 2.285701 g / cm^3
# Si number density = 22.909157 Si / 1000 Ang^3
#
#
#
# Elastic Constant Matrix: (Units=GPa)
#
#
# Indices 1 2 3 4 5 6 
#
# 1 79.7595 27.4493 26.1303 0.0000 5.6489 0.0000
# 2 27.4493 71.5580 21.3331 0.0000 3.1730 0.0000
# 3 26.1303 21.3331 99.7390 0.0000 7.3621 0.0000
# 4 0.0000 0.0000 0.0000 51.6017 0.0000 0.2658
# 5 5.6489 3.1730 7.3621 0.0000 34.3593 0.0000
# 6 0.0000 0.0000 0.0000 0.2658 0.0000 36.9293
#
#
#
# Elastic Compliance Matrix: (Units=1/GPa)
#
#
# Indices 1 2 3 4 5 6 
#
# 1 0.015272 -0.004949 -0.002836 0.000000 -0.001446 0.000000
# 2 -0.004949 0.016547 -0.002225 0.000000 -0.000238 0.000000
# 3 -0.002836 -0.002225 0.011375 0.000000 -0.001766 0.000000
# 4 0.000000 0.000000 0.000000 0.019380 0.000000 -0.000139
# 5 -0.001446 -0.000238 -0.001766 0.000000 0.029742 0.000000
# 6 0.000000 0.000000 0.000000 -0.000139 0.000000 0.027080
#
#
# Mechanical properties :
#
#
# Convention : Reuss Voigt Hill
#
# Bulk Modulus (GPa) = 43.15004 44.54242 43.84623
# Shear Modulus (GPa) = 33.98094 36.32098 35.15096
#
# Velocity S-wave (km/s) = 3.85553 3.98607 3.92134
# Velocity P-wave (km/s) = 6.22064 6.37733 6.29947
#
# Compressibility (1/GPa) = 0.02317495
#
# Stress axis : x y z
#
# Youngs Moduli (GPa) = 65.47784 60.43414 87.90894
#
# Poissons Ratio (x) = 0.29908 0.24930
# Poissons Ratio (y) = 0.32404 0.19561
# Poissons Ratio (z) = 0.18569 0.13447
#
# Static dielectric constant tensor:
#      x y z
#    x 1.864370 0.000000 -0.000030 
#    y 0.000000 1.866950 0.000000 
#    z -0.000030 0.000000 1.849680 
# 
# From -- ./inp_files/170744.got.cif
#   From: 2010.05.17/outbox.cif.g08.bks.cpg/sg15_86_cif.got.tgz:170744.got - 2010.06.03 18:47:42.
