data_PCOD9306853
_publ_section_title
;
Structure prediction by ZEFSAII (Michael W. Deem and Ramdas Pophale) SiO2 
 PCOD9306853
Probable space group: C 2/C
;
_chemical_formula_sum "Si O2"
_cell_formula_units_Z 36
_cell_length_a 5.782147
_cell_length_b 23.796045
_cell_length_c 10.698443
_cell_angle_alpha 90.000000
_cell_angle_beta 87.831663
_cell_angle_gamma 90.000000
_cell_volume 1470.968631
_symmetry_space_group_name_H-M "C 2/C"
_symmetry_group_IT_number 15
_symmetry_cell_setting 'monoclinic'
loop_
_space_group_symop_operation_xyz
x,y,z
-x,y,1/2-z
-x,-y,-z
x,-y,1/2+z
1/2+x,1/2+y,z
1/2-x,1/2+y,1/2-z
1/2-x,1/2-y,-z
1/2+x,1/2-y,1/2+z
loop_
_atom_site_type_symbol
_atom_site_label
_atom_site_fract_x
_atom_site_fract_y
_atom_site_fract_z
Si Si1 0.119808 0.611964 0.882624
Si Si2 0.934580 0.792799 0.438967
Si Si3 0.248947 0.994558 0.679273
Si Si4 0.256973 0.369220 0.898790
Si Si5 0.000000 0.703849 0.250000
O O1 0.309531 0.659749 0.860703
O O2 0.206841 0.548923 0.908371
O O3 0.000000 0.607553 0.750000
O O4 0.961151 0.632269 0.000570
O O5 0.750000 0.750000 0.500000
O O6 0.059605 0.830029 0.538172
O O7 0.075657 0.748512 0.354205
O O8 0.500000 0.987383 0.750000
O O9 0.197177 0.934948 0.616705
O O10 0.000000 0.008417 0.750000
O O11 0.203042 0.341842 0.765026
#
# Coordination Sequence:
#
# PCOD9306853 Si02
#       5
#     8   8   8   8   4
#     4  11  27  50  76 113 155 207 260 323 397 469
#     4  12  28  44  76 110 151 208 256 323 389 473
#     4  11  28  50  83 118 159 205 264 335 400 470
#     4  12  27  50  78 110 156 206 261 328 393 471
#     4  12  26  48  72 108 154 192 264 312 396 462
#
# _framework density 24.473669000000001
#
# number of rings (size 3 to 8) (size 9 to 14) (size 15 to 20)
#    0.000    0.444    3.333    2.667   17.111    0.889 
#    0.000    0.000    0.000    0.000    0.000    0.000 
#    0.000    0.000    0.000    0.000    0.000    0.000 
#
# Total GULP energy -100331.135014 kJ/mol
# GULP energy per Si atom -5573.951945 kJ/mol
# Density = 2.441797 g / cm^3
# Si number density = 24.473669 Si / 1000 Ang^3
#
#
#
# Elastic Constant Matrix: (Units=GPa)
#
#
# Indices 1 2 3 4 5 6 
#
# 1 96.4597 57.9069 30.1796 0.0000 0.7320 0.0000
# 2 57.9069 246.8485 32.3921 0.0000 19.6101 0.0000
# 3 30.1796 32.3921 56.3014 0.0000 -1.5569 0.0000
# 4 0.0000 0.0000 0.0000 22.8907 0.0000 -86.0507
# 5 0.7320 19.6101 -1.5569 0.0000 39.4198 0.0000
# 6 0.0000 0.0000 0.0000 -86.0507 0.0000 -281.7175
#
#
#
# Elastic Compliance Matrix: (Units=1/GPa)
#
#
# Indices 1 2 3 4 5 6 
#
# 1 0.013705 -0.002503 -0.005886 0.000000 0.000758 0.000000
# 2 -0.002503 0.005054 -0.001636 0.000000 -0.002532 0.000000
# 3 -0.005886 -0.001636 0.021907 0.000000 0.001788 0.000000
# 4 0.000000 0.000000 0.000000 0.020336 0.000000 -0.006212
# 5 0.000758 -0.002532 0.001788 0.000000 0.026684 0.000000
# 6 0.000000 0.000000 0.000000 -0.006212 0.000000 -0.001652
#
#
# Mechanical properties :
#
#
# Convention : Reuss Voigt Hill
#
# Bulk Modulus (GPa) = 48.50295 71.17408 59.83852
# Shear Modulus (GPa) = 44.26511 -25.27267 9.49622
#
# Velocity S-wave (km/s) = 4.25748 -3.21697 1.97195
# Velocity P-wave (km/s) = 6.63548 3.91746 5.44867
#
# Compressibility (1/GPa) = 0.02061730
#
# Stress axis : x y z
#
# Youngs Moduli (GPa) = 72.96462 197.85899 45.64715
#
# Poissons Ratio (x) = 0.49523 0.26866
# Poissons Ratio (y) = 0.18263 0.07469
# Poissons Ratio (z) = 0.42943 0.32373
#
# Static dielectric constant tensor:
#      x y z
#    x 2.193840 0.000000 0.066080 
#    y 0.000000 1.847760 0.000000 
#    z 0.066080 0.000000 2.150290 
# 
# From -- ./inp_files/72453.got.cif
#   From: 2010.05.17/outbox.cif.g08.bks.cpg/sg15_37_cif.got.tgz:72453.got - 2010.06.03 18:47:42.
