data_PCOD9306658
_publ_section_title
;
Structure prediction by ZEFSAII (Michael W. Deem and Ramdas Pophale) SiO2 
 PCOD9306658
Probable space group: C 2/C
;
_chemical_formula_sum "Si O2"
_cell_formula_units_Z 40
_cell_length_a 27.096026
_cell_length_b 5.448168
_cell_length_c 14.820337
_cell_angle_alpha 90.000000
_cell_angle_beta 47.159776
_cell_angle_gamma 90.000000
_cell_volume 1604.234435
_symmetry_space_group_name_H-M "C 2/C"
_symmetry_group_IT_number 15
_symmetry_cell_setting 'monoclinic'
loop_
_space_group_symop_operation_xyz
x,y,z
-x,y,1/2-z
-x,-y,-z
x,-y,1/2+z
1/2+x,1/2+y,z
1/2-x,1/2+y,1/2-z
1/2-x,1/2-y,-z
1/2+x,1/2-y,1/2+z
loop_
_atom_site_type_symbol
_atom_site_label
_atom_site_fract_x
_atom_site_fract_y
_atom_site_fract_z
Si Si1 0.058020 0.942341 0.796883
Si Si2 0.095914 0.929904 0.553456
Si Si3 0.424285 0.949593 0.627060
Si Si4 0.685423 0.175475 0.848625
Si Si5 0.273806 0.162628 0.069349
O O1 0.078737 0.041669 0.672850
O O2 0.075789 0.174345 0.835919
O O3 0.978031 0.885712 0.893916
O O4 0.089912 0.683068 0.788621
O O5 0.137340 0.101721 0.435270
O O6 0.147407 0.722888 0.522209
O O7 0.367881 0.974225 0.620902
O O8 0.500000 0.000000 0.500000
O O9 0.734044 0.211391 0.702441
O O10 0.726740 0.114130 0.889390
O O11 0.250000 0.250000 0.000000
#
# Coordination Sequence:
#
# PCOD9306658 Si02
#       5
#     8   8   8   8   8
#     4  11  27  46  78 115 152 205 247 330 389 469
#     4  11  26  47  73 109 155 196 265 312 393 462
#     4  12  25  47  77 113 155 197 260 315 400 452
#     4  12  27  46  77 109 152 204 263 324 382 478
#     4  12  28  50  73 110 155 209 264 322 389 463
#
# _framework density 24.934011000000002
#
# number of rings (size 3 to 8) (size 9 to 14) (size 15 to 20)
#    0.000    0.400    4.000    3.000    8.400    4.000 
#    0.000    0.000    0.000    0.000    0.000    0.000 
#    0.000    0.000    0.000    0.000    0.000    0.000 
#
# Total GULP energy -111627.220865 kJ/mol
# GULP energy per Si atom -5581.361043 kJ/mol
# Density = 2.487726 g / cm^3
# Si number density = 24.934011 Si / 1000 Ang^3
#
#
#
# Elastic Constant Matrix: (Units=GPa)
#
#
# Indices 1 2 3 4 5 6 
#
# 1 118.7503 52.0422 32.3744 -0.0013 30.9860 0.0008
# 2 52.0422 85.7380 26.1302 -0.0049 21.6222 -0.0035
# 3 32.3744 26.1302 135.5583 -0.0009 23.7884 -0.0005
# 4 -0.0013 -0.0049 -0.0009 32.2410 0.0007 2.2967
# 5 30.9860 21.6222 23.7884 0.0007 50.4467 -0.0002
# 6 0.0008 -0.0035 -0.0005 2.2967 -0.0002 50.8420
#
#
#
# Elastic Compliance Matrix: (Units=1/GPa)
#
#
# Indices 1 2 3 4 5 6 
#
# 1 0.012611 -0.006182 -0.001009 0.000000 -0.004621 -0.000001
# 2 -0.006182 0.016466 -0.001227 0.000002 -0.002682 0.000001
# 3 -0.001009 -0.001227 0.008344 0.000000 -0.002789 0.000000
# 4 0.000000 0.000002 0.000000 0.031117 -0.000001 -0.001406
# 5 -0.004621 -0.002682 -0.002789 -0.000001 0.025126 0.000000
# 6 -0.000001 0.000001 0.000000 -0.001406 0.000000 0.019732
#
#
# Mechanical properties :
#
#
# Convention : Reuss Voigt Hill
#
# Bulk Modulus (GPa) = 48.58035 62.34890 55.46463
# Shear Modulus (GPa) = 36.47147 42.00592 39.23870
#
# Velocity S-wave (km/s) = 3.82870 4.10894 3.97129
# Velocity P-wave (km/s) = 6.25069 6.89718 6.58188
#
# Compressibility (1/GPa) = 0.02058445
#
# Stress axis : x y z
#
# Youngs Moduli (GPa) = 79.29530 60.73085 119.84886
#
# Poissons Ratio (x) = 0.37543 0.12097
# Poissons Ratio (y) = 0.49020 0.14705
# Poissons Ratio (z) = 0.08004 0.07452
#
# Static dielectric constant tensor:
#      x y z
#    x 2.535070 0.000020 -0.240650 
#    y 0.000020 2.128370 -0.000010 
#    z -0.240650 -0.000010 2.160950 
# 
# From -- ./inp_files/179589.got.cif
#   From: 2010.05.17/outbox.cif.g08.bks.cpg/sg15_90_cif.got.tgz:179589.got - 2010.06.03 18:47:42.
