data_PCOD9306288
_publ_section_title
;
Structure prediction by ZEFSAII (Michael W. Deem and Ramdas Pophale) SiO2 
 PCOD9306288
Probable space group: C 2/C
;
_chemical_formula_sum "Si O2"
_cell_formula_units_Z 64
_cell_length_a 30.627276
_cell_length_b 7.455450
_cell_length_c 17.865674
_cell_angle_alpha 90.000000
_cell_angle_beta 39.155426
_cell_angle_gamma 90.000000
_cell_volume 2575.871894
_symmetry_space_group_name_H-M "C 2/C"
_symmetry_group_IT_number 15
_symmetry_cell_setting 'monoclinic'
loop_
_space_group_symop_operation_xyz
x,y,z
-x,y,1/2-z
-x,-y,-z
x,-y,1/2+z
1/2+x,1/2+y,z
1/2-x,1/2+y,1/2-z
1/2-x,1/2-y,-z
1/2+x,1/2-y,1/2+z
loop_
_atom_site_type_symbol
_atom_site_label
_atom_site_fract_x
_atom_site_fract_y
_atom_site_fract_z
Si Si1 0.242916 0.055447 0.049779
Si Si2 0.878666 0.867465 0.360766
Si Si3 0.959838 0.789380 0.739382
Si Si4 0.195626 0.367054 0.871120
Si Si5 0.943755 0.072500 0.519476
Si Si6 0.369790 0.016935 0.302824
Si Si7 0.176517 0.939445 0.906271
Si Si8 0.918880 0.549964 0.083813
O O1 0.270945 0.059643 0.096830
O O2 0.168836 0.966873 0.138067
O O3 0.250000 0.250000 0.000000
O O4 0.293958 0.937829 0.931066
O O5 0.910127 0.688831 0.282020
O O6 0.934625 0.020233 0.302394
O O7 0.838649 0.850453 0.493315
O O8 0.896919 0.662534 0.804205
O O9 0.000000 0.687169 0.750000
O O10 0.012621 0.826126 0.602635
O O11 0.180261 0.157452 0.909356
O O12 0.254543 0.376949 0.728186
O O13 0.125820 0.470156 0.934008
O O14 0.891168 0.926337 0.557367
O O15 0.907804 0.236480 0.609355
O O16 0.000000 0.000000 0.500000
O O17 0.374840 0.969744 0.209570
O O18 0.000000 0.500000 0.000000
#
# Coordination Sequence:
#
# PCOD9306288 Si02
#       8
#     8   8   8   8   8   8   8   8
#     4  12  25  47  76 105 149 198 247 310 383 450
#     4  12  26  48  74 110 149 197 255 313 378 449
#     4  12  25  48  76 108 154 200 253 310 377 456
#     4  11  27  43  74 109 141 197 249 306 390 445
#     4  11  25  46  74 104 148 202 248 306 386 448
#     4  12  27  45  77 109 146 199 251 311 378 452
#     4  11  25  47  70 108 151 190 254 319 370 464
#     4  11  25  48  71 106 149 186 245 311 370 457
#
# _framework density 24.845955
#
# number of rings (size 3 to 8) (size 9 to 14) (size 15 to 20)
#    0.000    0.500    5.000    1.875    8.750    1.500 
#    2.250    0.000    0.000    0.000    0.000    0.000 
#    0.000    0.000    0.000    0.000    0.000    0.000 
#
# Total GULP energy -178747.055519 kJ/mol
# GULP energy per Si atom -5585.845485 kJ/mol
# Density = 2.478940 g / cm^3
# Si number density = 24.845955 Si / 1000 Ang^3
#
#
#
# Elastic Constant Matrix: (Units=GPa)
#
#
# Indices 1 2 3 4 5 6 
#
# 1 183.3554 12.3971 37.2380 0.0020 -1.4033 0.0023
# 2 12.3971 75.7671 -6.6207 0.0126 2.7295 0.0014
# 3 37.2380 -6.6207 77.9778 0.0000 -0.5643 -0.0016
# 4 0.0020 0.0126 0.0000 12.5771 -0.0011 -7.6110
# 5 -1.4033 2.7295 -0.5643 -0.0011 34.0421 0.0025
# 6 0.0023 0.0014 -0.0016 -7.6110 0.0025 17.7183
#
#
#
# Elastic Compliance Matrix: (Units=1/GPa)
#
#
# Indices 1 2 3 4 5 6 
#
# 1 0.006163 -0.001286 -0.003050 0.000000 0.000307 -0.000001
# 2 -0.001286 0.013603 0.001761 -0.000019 -0.001114 -0.000009
# 3 -0.003050 0.001761 0.014430 0.000000 -0.000028 0.000001
# 4 0.000000 -0.000019 0.000000 0.107437 0.000002 0.046150
# 5 0.000307 -0.001114 -0.000028 0.000002 0.029477 -0.000004
# 6 -0.000001 -0.000009 0.000001 0.046150 -0.000004 0.076263
#
#
# Mechanical properties :
#
#
# Convention : Reuss Voigt Hill
#
# Bulk Modulus (GPa) = 34.42854 47.01435 40.72144
# Shear Modulus (GPa) = 19.06921 32.47324 25.77122
#
# Velocity S-wave (km/s) = 2.77338 3.61914 3.22412
# Velocity P-wave (km/s) = 4.91349 6.03554 5.50318
#
# Compressibility (1/GPa) = 0.02904567
#
# Stress axis : x y z
#
# Youngs Moduli (GPa) = 162.26963 73.51447 69.30034
#
# Poissons Ratio (x) = 0.09453 0.21136
# Poissons Ratio (y) = 0.20866 -0.12203
# Poissons Ratio (z) = 0.49490 -0.12946
#
# Static dielectric constant tensor:
#      x y z
#    x 1.629200 0.000110 0.070990 
#    y 0.000110 1.614680 -0.000020 
#    z 0.070990 -0.000020 2.031240 
# 
# From -- ./inp_files/224595.got.cif
#   From: 2010.05.17/outbox.cif.g08.bks.cpg/sg15_113_cif.got.tgz:224595.got - 2010.06.03 18:47:42.
