data_PCOD9306268
_publ_section_title
;
Structure prediction by ZEFSAII (Michael W. Deem and Ramdas Pophale) SiO2 
 PCOD9306268
Probable space group: C 2/C
;
_chemical_formula_sum "Si O2"
_cell_formula_units_Z 40
_cell_length_a 6.875627
_cell_length_b 21.938730
_cell_length_c 12.201628
_cell_angle_alpha 90.000000
_cell_angle_beta 72.229841
_cell_angle_gamma 90.000000
_cell_volume 1752.710148
_symmetry_space_group_name_H-M "C 2/C"
_symmetry_group_IT_number 15
_symmetry_cell_setting 'monoclinic'
loop_
_space_group_symop_operation_xyz
x,y,z
-x,y,1/2-z
-x,-y,-z
x,-y,1/2+z
1/2+x,1/2+y,z
1/2-x,1/2+y,1/2-z
1/2-x,1/2-y,-z
1/2+x,1/2-y,1/2+z
loop_
_atom_site_type_symbol
_atom_site_label
_atom_site_fract_x
_atom_site_fract_y
_atom_site_fract_z
Si Si1 0.007856 0.976463 0.869208
Si Si2 0.351892 0.826539 0.373552
Si Si3 0.541395 0.275513 0.989007
Si Si4 0.579164 0.069020 0.489774
Si Si5 0.689523 0.874468 0.645661
O O1 0.805646 0.934269 0.900510
O O2 0.000000 0.011303 0.750000
O O3 0.214618 0.937686 0.830565
O O4 0.000000 0.000000 0.000000
O O5 0.500000 0.811365 0.250000
O O6 0.426423 0.781883 0.457341
O O7 0.386454 0.896520 0.401671
O O8 0.114023 0.809594 0.402013
O O9 0.625580 0.326843 0.891644
O O10 0.750000 0.250000 0.000000
O O11 0.413164 0.108542 0.452637
O O12 0.500000 0.000000 0.500000
O O13 0.500000 0.852013 0.750000
#
# Coordination Sequence:
#
# PCOD9306268 Si02
#       5
#     8   8   8   8   8
#     4  12  26  46  72 109 152 200 255 318 384 460
#     4  11  27  45  72 110 150 192 251 320 382 458
#     4  11  25  46  72 105 148 193 252 312 387 457
#     4  12  25  46  70 104 149 191 252 306 382 452
#     4  12  25  43  74 107 144 197 252 307 378 465
#
# _framework density 22.821801000000001
#
# number of rings (size 3 to 8) (size 9 to 14) (size 15 to 20)
#    0.000    0.400    8.000    0.000    2.800    3.200 
#    0.000    0.000    0.000    0.000    0.000    0.000 
#    0.000    0.000    0.000    0.000    0.000    0.000 
#
# Total GULP energy -111414.361491 kJ/mol
# GULP energy per Si atom -5570.718075 kJ/mol
# Density = 2.276986 g / cm^3
# Si number density = 22.821801 Si / 1000 Ang^3
#
#
#
# Elastic Constant Matrix: (Units=GPa)
#
#
# Indices 1 2 3 4 5 6 
#
# 1 116.6152 17.8851 17.1759 0.0000 -18.9042 0.0000
# 2 17.8851 91.3603 20.7603 0.0000 -0.4995 0.0000
# 3 17.1759 20.7603 89.9318 0.0000 -5.5252 0.0000
# 4 0.0000 0.0000 0.0000 15.9276 0.0000 -7.2297
# 5 -18.9042 -0.4995 -5.5252 0.0000 43.7466 0.0000
# 6 0.0000 0.0000 0.0000 -7.2297 0.0000 -24.7501
#
#
#
# Elastic Compliance Matrix: (Units=1/GPa)
#
#
# Indices 1 2 3 4 5 6 
#
# 1 0.009648 -0.001587 -0.001231 0.000000 0.003995 0.000000
# 2 -0.001587 0.011815 -0.002477 0.000000 -0.000864 0.000000
# 3 -0.001231 -0.002477 0.011985 0.000000 0.000954 0.000000
# 4 0.000000 0.000000 0.000000 0.055434 0.000000 -0.016193
# 5 0.003995 -0.000864 0.000954 0.000000 0.024696 0.000000
# 6 0.000000 0.000000 0.000000 -0.016193 0.000000 -0.035674
#
#
# Mechanical properties :
#
#
# Convention : Reuss Voigt Hill
#
# Bulk Modulus (GPa) = 43.75043 45.50556 44.62800
# Shear Modulus (GPa) = 52.02218 23.12388 37.57303
#
# Velocity S-wave (km/s) = 4.77959 3.18659 4.06194
# Velocity P-wave (km/s) = 7.04779 5.78981 6.44955
#
# Compressibility (1/GPa) = 0.02285692
#
# Stress axis : x y z
#
# Youngs Moduli (GPa) = 103.65284 84.64119 83.43733
#
# Poissons Ratio (x) = 0.13434 0.10269
# Poissons Ratio (y) = 0.16451 0.20670
# Poissons Ratio (z) = 0.12757 0.20968
#
# Static dielectric constant tensor:
#      x y z
#    x 1.847420 0.000000 0.018820 
#    y 0.000000 1.946420 0.000000 
#    z 0.018820 0.000000 1.925900 
# 
# From -- ./inp_files/73082.got.cif
#   From: 2010.05.17/outbox.cif.g08.bks.cpg/sg15_37_cif.got.tgz:73082.got - 2010.06.03 18:47:42.
