data_PCOD9306764
_publ_section_title
;
Structure prediction by ZEFSAII (Michael W. Deem and Ramdas Pophale) SiO2 
 PCOD9306764
Probable space group: C 2/C
;
_chemical_formula_sum "Si O2"
_cell_formula_units_Z 40
_cell_length_a 7.753926
_cell_length_b 7.448690
_cell_length_c 26.623846
_cell_angle_alpha 90.000000
_cell_angle_beta 100.124811
_cell_angle_gamma 90.000000
_cell_volume 1513.756171
_symmetry_space_group_name_H-M "C 2/C"
_symmetry_group_IT_number 15
_symmetry_cell_setting 'monoclinic'
loop_
_space_group_symop_operation_xyz
x,y,z
-x,y,1/2-z
-x,-y,-z
x,-y,1/2+z
1/2+x,1/2+y,z
1/2-x,1/2+y,1/2-z
1/2-x,1/2-y,-z
1/2+x,1/2-y,1/2+z
loop_
_atom_site_type_symbol
_atom_site_label
_atom_site_fract_x
_atom_site_fract_y
_atom_site_fract_z
Si Si1 0.823979 0.291360 0.212303
Si Si2 0.413740 0.537381 0.941335
Si Si3 0.989832 0.546808 0.058246
Si Si4 0.631311 0.831745 0.795538
Si Si5 0.673338 0.482249 0.369468
O O1 0.787436 0.480728 0.182315
O O2 0.794007 0.134132 0.170718
O O3 0.000000 0.229677 0.250000
O O4 0.704904 0.296131 0.255741
O O5 0.209776 0.482893 0.934188
O O6 0.442872 0.749234 0.934262
O O7 0.538238 0.451796 0.904902
O O8 0.500000 0.500000 0.000000
O O9 0.137872 0.438355 0.096460
O O10 0.000000 0.500000 0.000000
O O11 0.500000 0.931863 0.750000
O O12 0.600533 0.697797 0.838992
#
# Coordination Sequence:
#
# PCOD9306764 Si02
#       5
#     8   8   8   8   8
#     4  11  26  50  80 113 169 215 284 350 416 511
#     4  12  29  55  84 121 171 222 289 356 435 525
#     4  12  29  55  84 125 167 222 291 357 431 528
#     4  11  26  52  75 117 163 216 284 341 417 512
#     4  12  29  50  86 121 171 225 275 354 439 502
#
# _framework density 26.424334000000002
#
# number of rings (size 3 to 8) (size 9 to 14) (size 15 to 20)
#    0.000    0.400    4.000    1.800    2.800    4.800 
#    0.000    0.000    0.000    0.000    0.000    0.000 
#    0.000    0.000    0.000    0.000    0.000    0.000 
#
# Total GULP energy -111780.743507 kJ/mol
# GULP energy per Si atom -5589.037175 kJ/mol
# Density = 2.636419 g / cm^3
# Si number density = 26.424334 Si / 1000 Ang^3
#
#
#
# Elastic Constant Matrix: (Units=GPa)
#
#
# Indices 1 2 3 4 5 6 
#
# 1 180.4365 36.8609 84.5618 0.0000 0.0839 0.0000
# 2 36.8609 157.5171 43.9637 0.0000 -15.4197 0.0000
# 3 84.5618 43.9637 192.8183 0.0000 -9.7753 0.0000
# 4 0.0000 0.0000 0.0000 -892.9914 0.0000 -64.4072
# 5 0.0839 -15.4197 -9.7753 0.0000 59.3916 0.0000
# 6 0.0000 0.0000 0.0000 -64.4072 0.0000 32.0570
#
#
#
# Elastic Compliance Matrix: (Units=1/GPa)
#
#
# Indices 1 2 3 4 5 6 
#
# 1 0.007110 -0.000913 -0.002947 0.000000 -0.000732 0.000000
# 2 -0.000913 0.007036 -0.001120 0.000000 0.001644 0.000000
# 3 -0.002947 -0.001120 0.006776 0.000000 0.000829 0.000000
# 4 0.000000 0.000000 0.000000 -0.000978 0.000000 -0.001965
# 5 -0.000732 0.001644 0.000829 0.000000 0.017402 0.000000
# 6 0.000000 0.000000 0.000000 -0.001965 0.000000 0.027246
#
#
# Mechanical properties :
#
#
# Convention : Reuss Voigt Hill
#
# Bulk Modulus (GPa) = 91.23326 95.72718 93.48022
# Shear Modulus (GPa) = 63.93316 -135.94954 -36.00819
#
# Velocity S-wave (km/s) = 4.92416 -7.18055 -3.69547
# Velocity P-wave (km/s) = 8.18113 5.69575 4.15268
#
# Compressibility (1/GPa) = 0.01096091
#
# Stress axis : x y z
#
# Youngs Moduli (GPa) = 140.64382 142.13048 147.57506
#
# Poissons Ratio (x) = 0.12976 0.43493
# Poissons Ratio (y) = 0.12840 0.16536
# Poissons Ratio (z) = 0.41450 0.15926
#
# Static dielectric constant tensor:
#      x y z
#    x 1.922700 0.000000 0.083290 
#    y 0.000000 2.268010 0.000000 
#    z 0.083290 0.000000 2.020520 
# 
# From -- ./inp_files/306567.got.cif
#   From: 2010.05.17/outbox.cif.g08.bks.cpg/sg15_154_cif.got.tgz:306567.got - 2010.06.03 18:47:42.
