data_PCOD9306737
_publ_section_title
;
Structure prediction by ZEFSAII (Michael W. Deem and Ramdas Pophale) SiO2 
 PCOD9306737
Probable space group: C 2/C
;
_chemical_formula_sum "Si O2"
_cell_formula_units_Z 28
_cell_length_a 10.193752
_cell_length_b 9.642349
_cell_length_c 13.037636
_cell_angle_alpha 90.000000
_cell_angle_beta 53.166606
_cell_angle_gamma 90.000000
_cell_volume 1025.682937
_symmetry_space_group_name_H-M "C 2/C"
_symmetry_group_IT_number 15
_symmetry_cell_setting 'monoclinic'
loop_
_space_group_symop_operation_xyz
x,y,z
-x,y,1/2-z
-x,-y,-z
x,-y,1/2+z
1/2+x,1/2+y,z
1/2-x,1/2+y,1/2-z
1/2-x,1/2-y,-z
1/2+x,1/2-y,1/2+z
loop_
_atom_site_type_symbol
_atom_site_label
_atom_site_fract_x
_atom_site_fract_y
_atom_site_fract_z
Si Si1 0.184629 0.981851 0.285939
Si Si2 0.000000 0.564928 0.750000
Si Si3 0.832259 0.381391 0.521239
Si Si4 0.897866 0.199383 0.999551
O O1 0.163544 0.110788 0.373878
O O2 0.778784 0.041897 0.343406
O O3 0.336756 0.891241 0.260227
O O4 0.020370 0.894754 0.374733
O O5 0.102340 0.521235 0.601051
O O6 0.750000 0.250000 0.500000
O O7 0.984267 0.318027 0.511389
O O8 0.750000 0.250000 0.000000
#
# Coordination Sequence:
#
# PCOD9306737 Si02
#       4
#     8   4   8   8
#     4  11  26  49  78 120 160 215 279 342 408 499
#     4  12  24  50  74 118 160 210 270 344 406 486
#     4  12  25  51  78 110 163 215 272 335 420 492
#     4  11  26  52  78 118 165 211 274 343 416 489
#
# _framework density 27.298884999999999
#
# number of rings (size 3 to 8) (size 9 to 14) (size 15 to 20)
#    0.000    0.571    2.857    4.286    0.000    0.000 
#   10.286    0.000    0.000    0.000    0.000    0.000 
#    0.000    0.000    0.000    0.000    0.000    0.000 
#
# Total GULP energy -78257.143869 kJ/mol
# GULP energy per Si atom -5589.795991 kJ/mol
# Density = 2.723675 g / cm^3
# Si number density = 27.298885 Si / 1000 Ang^3
#
#
#
# Elastic Constant Matrix: (Units=GPa)
#
#
# Indices 1 2 3 4 5 6 
#
# 1 243.9447 93.9558 125.2516 0.0000 -8.5558 0.0000
# 2 93.9558 101.1020 78.0433 0.0000 15.3734 0.0000
# 3 125.2516 78.0433 275.6567 0.0000 63.0505 0.0000
# 4 0.0000 0.0000 0.0000 40.8801 0.0000 -8.9524
# 5 -8.5558 15.3734 63.0505 0.0000 62.0833 0.0000
# 6 0.0000 0.0000 0.0000 -8.9524 0.0000 53.4054
#
#
#
# Elastic Compliance Matrix: (Units=1/GPa)
#
#
# Indices 1 2 3 4 5 6 
#
# 1 0.008515 -0.006106 -0.003588 0.000000 0.006330 0.000000
# 2 -0.006106 0.017056 -0.001167 0.000000 -0.003880 0.000000
# 3 -0.003588 -0.001167 0.007341 0.000000 -0.007661 0.000000
# 4 0.000000 0.000000 0.000000 0.025394 0.000000 0.004257
# 5 0.006330 -0.003880 -0.007661 0.000000 0.025720 0.000000
# 6 0.000000 0.000000 0.000000 0.004257 0.000000 0.019438
#
#
# Mechanical properties :
#
#
# Convention : Reuss Voigt Hill
#
# Bulk Modulus (GPa) = 89.36810 135.02277 112.19543
# Shear Modulus (GPa) = 38.78437 52.83728 45.81083
#
# Velocity S-wave (km/s) = 3.77335 4.40422 4.10093
# Velocity P-wave (km/s) = 7.19668 8.68511 7.97569
#
# Compressibility (1/GPa) = 0.01118968
#
# Stress axis : x y z
#
# Youngs Moduli (GPa) = 117.43378 58.62897 136.22692
#
# Poissons Ratio (x) = 0.35800 0.48881
# Poissons Ratio (y) = 0.71707 0.15898
# Poissons Ratio (z) = 0.42138 0.06842
#
# Static dielectric constant tensor:
#      x y z
#    x 2.112670 0.000000 -0.021970 
#    y 0.000000 2.275970 0.000000 
#    z -0.021970 0.000000 2.095150 
# 
# From -- ./inp_files/131639.got.cif
#   From: 2010.05.17/outbox.cif.g08.bks.cpg/sg15_66_cif.got.tgz:131639.got - 2010.06.03 18:47:42.
