data_PCOD9306237
_publ_section_title
;
Structure prediction by ZEFSAII (Michael W. Deem and Ramdas Pophale) SiO2 
 PCOD9306237
Probable space group: C 2/C
;
_chemical_formula_sum "Si O2"
_cell_formula_units_Z 48
_cell_length_a 13.260354
_cell_length_b 8.660979
_cell_length_c 18.610613
_cell_angle_alpha 90.000000
_cell_angle_beta 91.475917
_cell_angle_gamma 90.000000
_cell_volume 2136.676022
_symmetry_space_group_name_H-M "C 2/C"
_symmetry_group_IT_number 15
_symmetry_cell_setting 'monoclinic'
loop_
_space_group_symop_operation_xyz
x,y,z
-x,y,1/2-z
-x,-y,-z
x,-y,1/2+z
1/2+x,1/2+y,z
1/2-x,1/2+y,1/2-z
1/2-x,1/2-y,-z
1/2+x,1/2-y,1/2+z
loop_
_atom_site_type_symbol
_atom_site_label
_atom_site_fract_x
_atom_site_fract_y
_atom_site_fract_z
Si Si1 0.895625 0.989345 0.788390
Si Si2 0.024661 0.673372 0.975887
Si Si3 0.668180 0.619228 0.989404
Si Si4 0.741485 0.469617 0.849577
Si Si5 0.553346 0.856040 0.175559
Si Si6 0.820550 0.824509 0.416318
O O1 0.806494 0.997892 0.728837
O O2 0.897556 0.813328 0.815928
O O3 0.000000 0.014116 0.750000
O O4 0.887113 0.110663 0.852054
O O5 0.027070 0.660843 0.889964
O O6 0.938714 0.802136 0.993086
O O7 0.000000 0.500000 0.000000
O O8 0.121189 0.727166 0.022020
O O9 0.675997 0.558419 0.908250
O O10 0.750000 0.750000 0.000000
O O11 0.704612 0.481271 0.042057
O O12 0.856955 0.530350 0.847451
O O13 0.744596 0.292527 0.876054
O O14 0.500000 0.897232 0.250000
#
# Coordination Sequence:
#
# PCOD9306237 Si02
#       6
#     8   8   8   8   8   8
#     4  11  25  46  70 101 146 193 242 302 364 435
#     4  12  24  48  73 106 145 188 246 300 359 437
#     4  12  24  45  71 105 146 182 242 304 355 428
#     4  12  25  47  68 110 142 189 248 295 367 438
#     4  11  25  48  69 101 151 189 236 304 364 433
#     4  12  25  44  75 105 143 197 240 297 372 430
#
# _framework density 22.4648
#
# number of rings (size 3 to 8) (size 9 to 14) (size 15 to 20)
#    0.000    0.333    5.000    3.000    4.667    0.667 
#   12.000    0.000    0.000    0.000    0.000    0.000 
#    0.000    0.000    0.000    0.000    0.000    0.000 
#
# Total GULP energy -134293.437813 kJ/mol
# GULP energy per Si atom -5595.559909 kJ/mol
# Density = 2.241367 g / cm^3
# Si number density = 22.464800 Si / 1000 Ang^3
#
#
#
# Elastic Constant Matrix: (Units=GPa)
#
#
# Indices 1 2 3 4 5 6 
#
# 1 68.0589 24.2283 22.5274 0.0000 1.0488 0.0000
# 2 24.2283 123.8917 44.7836 0.0000 -12.8070 0.0000
# 3 22.5274 44.7836 146.5812 0.0000 4.6391 0.0000
# 4 0.0000 0.0000 0.0000 39.1542 0.0000 -8.5830
# 5 1.0488 -12.8070 4.6391 0.0000 32.4622 0.0000
# 6 0.0000 0.0000 0.0000 -8.5830 0.0000 25.9556
#
#
#
# Elastic Compliance Matrix: (Units=1/GPa)
#
#
# Indices 1 2 3 4 5 6 
#
# 1 0.016221 -0.002730 -0.001616 0.000000 -0.001370 0.000000
# 2 -0.002730 0.010080 -0.002801 0.000000 0.004465 0.000000
# 3 -0.001616 -0.002801 0.007996 0.000000 -0.002196 0.000000
# 4 0.000000 0.000000 0.000000 0.027536 0.000000 0.009106
# 5 -0.001370 0.004465 -0.002196 0.000000 0.032925 0.000000
# 6 0.000000 0.000000 0.000000 0.009106 0.000000 0.041538
#
#
# Mechanical properties :
#
#
# Convention : Reuss Voigt Hill
#
# Bulk Modulus (GPa) = 49.99278 57.95670 53.97474
# Shear Modulus (GPa) = 31.79527 35.98057 33.88792
#
# Velocity S-wave (km/s) = 3.76618 4.00639 3.88814
# Velocity P-wave (km/s) = 6.41983 6.87434 6.65097
#
# Compressibility (1/GPa) = 0.02000289
#
# Stress axis : x y z
#
# Youngs Moduli (GPa) = 61.64924 99.21051 125.06587
#
# Poissons Ratio (x) = 0.27083 0.20205
# Poissons Ratio (y) = 0.16829 0.35035
# Poissons Ratio (z) = 0.09960 0.27792
#
# Static dielectric constant tensor:
#      x y z
#    x 1.841850 0.000000 -0.123570 
#    y 0.000000 2.008710 0.000000 
#    z -0.123570 0.000000 1.494860 
# 
# From -- ./inp_files/202972.got.cif
#   From: 2010.05.17/outbox.cif.g08.bks.cpg/sg15_102_cif.got.tgz:202972.got - 2010.06.03 18:47:42.
