data_PCOD9306740
_publ_section_title
;
Structure prediction by ZEFSAII (Michael W. Deem and Ramdas Pophale) SiO2 
 PCOD9306740
Probable space group: C 2/C
;
_chemical_formula_sum "Si O2"
_cell_formula_units_Z 24
_cell_length_a 12.254494
_cell_length_b 9.772190
_cell_length_c 13.351411
_cell_angle_alpha 90.000000
_cell_angle_beta 146.004222
_cell_angle_gamma 90.000000
_cell_volume 893.981750
_symmetry_space_group_name_H-M "C 2/C"
_symmetry_group_IT_number 15
_symmetry_cell_setting 'monoclinic'
loop_
_space_group_symop_operation_xyz
x,y,z
-x,y,1/2-z
-x,-y,-z
x,-y,1/2+z
1/2+x,1/2+y,z
1/2-x,1/2+y,1/2-z
1/2-x,1/2-y,-z
1/2+x,1/2-y,1/2+z
loop_
_atom_site_type_symbol
_atom_site_label
_atom_site_fract_x
_atom_site_fract_y
_atom_site_fract_z
Si Si1 0.279714 0.445774 0.702166
Si Si2 0.943781 0.826809 0.450439
Si Si3 0.277173 0.093412 0.050600
O O1 0.116542 0.330905 0.601538
O O2 0.275392 0.583306 0.767965
O O3 0.270547 0.500714 0.581994
O O4 0.480406 0.361911 0.880613
O O5 0.125930 0.891199 0.527427
O O6 0.500000 0.065329 0.250000
O O7 0.250000 0.250000 0.000000
#
# Coordination Sequence:
#
# PCOD9306740 Si02
#       3
#     8   8   8
#     4  11  26  50  79 116 158 207 263 326 396 470
#     4  11  26  49  79 115 159 206 262 327 395 470
#     4  12  26  47  78 113 154 206 262 321 392 472
#
# _framework density 26.846185999999999
#
# number of rings (size 3 to 8) (size 9 to 14) (size 15 to 20)
#    0.000    0.667    0.000    7.000    0.000   17.333 
#    0.000   28.333    0.000    8.000    0.000    0.000 
#    0.000    0.000    0.000    0.000    0.000    0.000 
#
# Total GULP energy -66934.606208 kJ/mol
# GULP energy per Si atom -5577.883851 kJ/mol
# Density = 2.678508 g / cm^3
# Si number density = 26.846186 Si / 1000 Ang^3
#
#
#
# Elastic Constant Matrix: (Units=GPa)
#
#
# Indices 1 2 3 4 5 6 
#
# 1 130.7645 96.9848 79.1966 0.0003 -8.8954 0.0001
# 2 96.9848 127.9068 111.4919 0.0003 -2.6824 0.0002
# 3 79.1966 111.4919 246.7484 0.0006 -16.7612 0.0005
# 4 0.0003 0.0003 0.0006 57.5229 0.0005 -10.3890
# 5 -8.8954 -2.6824 -16.7612 0.0005 41.4249 0.0002
# 6 0.0001 0.0002 0.0005 -10.3890 0.0002 54.3431
#
#
#
# Elastic Compliance Matrix: (Units=1/GPa)
#
#
# Indices 1 2 3 4 5 6 
#
# 1 0.017962 -0.014388 0.000961 0.000000 0.003314 0.000000
# 2 -0.014388 0.024523 -0.006750 0.000000 -0.004233 0.000000
# 3 0.000961 -0.006750 0.006970 0.000000 0.002590 0.000000
# 4 0.000000 0.000000 0.000000 0.018006 0.000000 0.003442
# 5 0.003314 -0.004233 0.002590 0.000000 0.025625 0.000000
# 6 0.000000 0.000000 0.000000 0.003442 0.000000 0.019060
#
#
# Mechanical properties :
#
#
# Convention : Reuss Voigt Hill
#
# Bulk Modulus (GPa) = 109.87554 120.08516 114.98035
# Shear Modulus (GPa) = 32.14767 45.17460 38.66114
#
# Velocity S-wave (km/s) = 3.46421 4.10655 3.79898
# Velocity P-wave (km/s) = 7.55100 8.20444 7.88450
#
# Compressibility (1/GPa) = 0.00910121
#
# Stress axis : x y z
#
# Youngs Moduli (GPa) = 55.67425 40.77881 143.46972
#
# Poissons Ratio (x) = 0.58671 -0.13789
# Poissons Ratio (y) = 0.80102 0.96843
# Poissons Ratio (z) = -0.05351 0.27526
#
# Static dielectric constant tensor:
#      x y z
#    x 4.141640 0.000000 -2.119940 
#    y 0.000000 2.192220 0.000000 
#    z -2.119940 0.000000 5.016430 
# 
# From -- ./inp_files/151597.got.cif
#   From: 2010.05.17/outbox.cif.g08.bks.cpg/sg15_76_cif.got.tgz:151597.got - 2010.06.03 18:47:42.
