data_PCOD9306403
_publ_section_title
;
Structure prediction by ZEFSAII (Michael W. Deem and Ramdas Pophale) SiO2 
 PCOD9306403
Probable space group: C 2/C
;
_chemical_formula_sum "Si O2"
_cell_formula_units_Z 44
_cell_length_a 14.970573
_cell_length_b 8.751675
_cell_length_c 16.434667
_cell_angle_alpha 90.000000
_cell_angle_beta 61.431675
_cell_angle_gamma 90.000000
_cell_volume 1891.069216
_symmetry_space_group_name_H-M "C 2/C"
_symmetry_group_IT_number 15
_symmetry_cell_setting 'monoclinic'
loop_
_space_group_symop_operation_xyz
x,y,z
-x,y,1/2-z
-x,-y,-z
x,-y,1/2+z
1/2+x,1/2+y,z
1/2-x,1/2+y,1/2-z
1/2-x,1/2-y,-z
1/2+x,1/2-y,1/2+z
loop_
_atom_site_type_symbol
_atom_site_label
_atom_site_fract_x
_atom_site_fract_y
_atom_site_fract_z
Si Si1 0.000000 0.645075 0.250000
Si Si2 0.636805 0.317351 0.063652
Si Si3 0.754127 0.797205 0.136799
Si Si4 0.179082 0.533681 0.277307
Si Si5 0.060138 0.348513 0.441547
Si Si6 0.603252 0.679471 0.078710
O O1 0.082939 0.743240 0.165103
O O2 0.067654 0.554940 0.286072
O O3 0.624027 0.499253 0.077056
O O4 0.750000 0.250000 0.000000
O O5 0.575790 0.259457 0.011541
O O6 0.780771 0.684583 0.198071
O O7 0.647871 0.759193 0.139366
O O8 0.750224 0.965499 0.176273
O O9 0.833445 0.773900 0.029691
O O10 0.163318 0.413807 0.357603
O O11 0.000000 0.500000 0.500000
O O12 0.005835 0.246366 0.396235
#
# Coordination Sequence:
#
# PCOD9306403 Si02
#       6
#     4   8   8   8   8   8
#     4  12  26  46  70 108 148 188 244 302 370 442
#     4  12  27  45  77 107 147 195 247 306 368 439
#     4  11  26  44  73 107 140 187 245 298 365 435
#     4  12  26  44  73 105 145 187 244 303 365 442
#     4  12  24  48  71 101 146 192 236 299 371 430
#     4  11  25  48  71 102 148 192 241 301 367 441
#
# _framework density 23.267261000000001
#
# number of rings (size 3 to 8) (size 9 to 14) (size 15 to 20)
#    0.000    0.364    3.636    3.818   10.182    1.455 
#    0.000    0.000    0.000    0.000    0.000    0.000 
#    0.000    0.000    0.000    0.000    0.000    0.000 
#
# Total GULP energy -123121.069736 kJ/mol
# GULP energy per Si atom -5596.412261 kJ/mol
# Density = 2.321430 g / cm^3
# Si number density = 23.267261 Si / 1000 Ang^3
#
#
#
# Elastic Constant Matrix: (Units=GPa)
#
#
# Indices 1 2 3 4 5 6 
#
# 1 59.1894 17.0255 16.4965 0.0000 13.7048 0.0000
# 2 17.0255 96.6937 26.7029 0.0000 9.2114 0.0000
# 3 16.4965 26.7029 92.1130 0.0000 6.0178 0.0000
# 4 0.0000 0.0000 0.0000 51.1471 0.0000 1.0594
# 5 13.7048 9.2114 6.0178 0.0000 34.8728 0.0000
# 6 0.0000 0.0000 0.0000 1.0594 0.0000 34.1505
#
#
#
# Elastic Compliance Matrix: (Units=1/GPa)
#
#
# Indices 1 2 3 4 5 6 
#
# 1 0.019772 -0.002153 -0.002474 0.000000 -0.006775 0.000000
# 2 -0.002153 0.011684 -0.002888 0.000000 -0.001742 0.000000
# 3 -0.002474 -0.002888 0.012160 0.000000 -0.000363 0.000000
# 4 0.000000 0.000000 0.000000 0.019564 0.000000 -0.000607
# 5 -0.006775 -0.001742 -0.000363 0.000000 0.031861 0.000000
# 6 0.000000 0.000000 0.000000 -0.000607 0.000000 0.029301
#
#
# Mechanical properties :
#
#
# Convention : Reuss Voigt Hill
#
# Bulk Modulus (GPa) = 34.98078 40.93842 37.95960
# Shear Modulus (GPa) = 33.57911 36.55217 35.06564
#
# Velocity S-wave (km/s) = 3.80306 3.96785 3.88633
# Velocity P-wave (km/s) = 5.86100 6.21489 6.04053
#
# Compressibility (1/GPa) = 0.02858713
#
# Stress axis : x y z
#
# Youngs Moduli (GPa) = 50.57549 85.58386 82.23502
#
# Poissons Ratio (x) = 0.18424 0.20348
# Poissons Ratio (y) = 0.10888 0.23749
# Poissons Ratio (z) = 0.12514 0.24716
#
# Static dielectric constant tensor:
#      x y z
#    x 1.899820 0.000000 -0.019570 
#    y 0.000000 1.854610 0.000000 
#    z -0.019570 0.000000 1.886610 
# 
# From -- ./inp_files/202919.got.cif
#   From: 2010.05.17/outbox.cif.g08.bks.cpg/sg15_102_cif.got.tgz:202919.got - 2010.06.03 18:47:42.
