data_PCOD9306919
_publ_section_title
;
Structure prediction by ZEFSAII (Michael W. Deem and Ramdas Pophale) SiO2 
 PCOD9306919
Probable space group: C 2/C
;
_chemical_formula_sum "Si O2"
_cell_formula_units_Z 48
_cell_length_a 7.067814
_cell_length_b 34.286762
_cell_length_c 11.215371
_cell_angle_alpha 90.000000
_cell_angle_beta 42.645627
_cell_angle_gamma 90.000000
_cell_volume 1841.238852
_symmetry_space_group_name_H-M "C 2/C"
_symmetry_group_IT_number 15
_symmetry_cell_setting 'monoclinic'
loop_
_space_group_symop_operation_xyz
x,y,z
-x,y,1/2-z
-x,-y,-z
x,-y,1/2+z
1/2+x,1/2+y,z
1/2-x,1/2+y,1/2-z
1/2-x,1/2-y,-z
1/2+x,1/2-y,1/2+z
loop_
_atom_site_type_symbol
_atom_site_label
_atom_site_fract_x
_atom_site_fract_y
_atom_site_fract_z
Si Si1 0.551572 0.728166 0.354852
Si Si2 0.550705 0.564356 0.030799
Si Si3 0.937513 0.148740 0.487794
Si Si4 0.336317 0.062581 0.641042
Si Si5 0.000000 0.994408 0.750000
Si Si6 0.627322 0.146932 0.887772
Si Si7 0.500000 0.714690 0.750000
O O1 0.500000 0.711214 0.250000
O O2 0.250000 0.750000 0.500000
O O3 0.590080 0.690026 0.416687
O O4 0.816926 0.756849 0.249312
O O5 0.414757 0.607345 0.103095
O O6 0.647278 0.559347 0.849306
O O7 0.849012 0.564350 0.960255
O O8 0.408651 0.531136 0.176869
O O9 0.781109 0.146512 0.687376
O O10 0.692499 0.150756 0.501691
O O11 0.304892 0.104451 0.591208
O O12 0.251249 0.024751 0.607064
O O13 0.753949 0.183785 0.898038
#
# Coordination Sequence:
#
# PCOD9306919 Si02
#       7
#     8   8   8   8   4   8   4
#     4  12  26  42  63  92 127 161 207 263 309 372
#     4   9  20  35  57  80 116 164 193 240 307 362
#     4   9  19  40  59  81 120 159 205 248 309 364
#     4   9  19  36  55  85 116 152 201 249 289 361
#     4  12  19  30  58  88 120 146 204 246 301 350
#     4   9  18  37  63  84 114 160 207 250 299 368
#     4  12  23  38  66  94 120 160 212 254 319 360
#
# _framework density 26.069405
#
# number of rings (size 3 to 8) (size 9 to 14) (size 15 to 20)
#    0.000    2.000    1.667    4.500    1.167    2.667 
#    0.000    0.000    0.000    2.000    0.000    0.000 
#    0.000    0.000    0.000    0.000    0.000    0.000 
#
# Total GULP energy -133804.175982 kJ/mol
# GULP energy per Si atom -5575.173999 kJ/mol
# Density = 2.601007 g / cm^3
# Si number density = 26.069405 Si / 1000 Ang^3
#
#
#
# Elastic Constant Matrix: (Units=GPa)
#
#
# Indices 1 2 3 4 5 6 
#
# 1 108.9597 26.2137 1.2161 0.0000 -15.5691 0.0000
# 2 26.2137 219.1546 32.5827 0.0000 3.8406 0.0000
# 3 1.2161 32.5827 34.2181 0.0000 4.8993 0.0000
# 4 0.0000 0.0000 0.0000 25.3900 0.0000 -1.7490
# 5 -15.5691 3.8406 4.8993 0.0000 27.5186 0.0000
# 6 0.0000 0.0000 0.0000 -1.7490 0.0000 32.1489
#
#
#
# Elastic Compliance Matrix: (Units=1/GPa)
#
#
# Indices 1 2 3 4 5 6 
#
# 1 0.010367 -0.001354 0.000056 0.000000 0.006044 0.000000
# 2 -0.001354 0.005493 -0.005093 0.000000 -0.000626 0.000000
# 3 0.000056 -0.005093 0.034854 0.000000 -0.005463 0.000000
# 4 0.000000 0.000000 0.000000 0.039534 0.000000 0.002151
# 5 0.006044 -0.000626 -0.005463 0.000000 0.040819 0.000000
# 6 0.000000 0.000000 0.000000 0.002151 0.000000 0.031222
#
#
# Mechanical properties :
#
#
# Convention : Reuss Voigt Hill
#
# Bulk Modulus (GPa) = 26.36379 53.59528 39.97953
# Shear Modulus (GPa) = 26.63622 37.16616 31.90119
#
# Velocity S-wave (km/s) = 3.19994 3.77989 3.50194
# Velocity P-wave (km/s) = 4.87726 6.29710 5.63210
#
# Compressibility (1/GPa) = 0.03793082
#
# Stress axis : x y z
#
# Youngs Moduli (GPa) = 96.46455 182.04651 28.69121
#
# Poissons Ratio (x) = 0.24652 -0.00160
# Poissons Ratio (y) = 0.13063 0.14612
# Poissons Ratio (z) = -0.00537 0.92712
#
# Static dielectric constant tensor:
#      x y z
#    x 2.049740 0.000000 0.015880 
#    y 0.000000 3.164980 0.000000 
#    z 0.015880 0.000000 2.186450 
# 
# From -- ./inp_files/139425.got.cif
#   From: 2010.05.17/outbox.cif.g08.bks.cpg/sg15_70_cif.got.tgz:139425.got - 2010.06.03 18:47:42.
