data_PCOD9306244
_publ_section_title
;
Structure prediction by ZEFSAII (Michael W. Deem and Ramdas Pophale) SiO2 
 PCOD9306244
Probable space group: C 2/C
;
_chemical_formula_sum "Si O2"
_cell_formula_units_Z 44
_cell_length_a 35.126077
_cell_length_b 7.614980
_cell_length_c 27.774983
_cell_angle_alpha 90.000000
_cell_angle_beta 165.691967
_cell_angle_gamma 90.000000
_cell_volume 1836.057351
_symmetry_space_group_name_H-M "C 2/C"
_symmetry_group_IT_number 15
_symmetry_cell_setting 'monoclinic'
loop_
_space_group_symop_operation_xyz
x,y,z
-x,y,1/2-z
-x,-y,-z
x,-y,1/2+z
1/2+x,1/2+y,z
1/2-x,1/2+y,1/2-z
1/2-x,1/2-y,-z
1/2+x,1/2-y,1/2+z
loop_
_atom_site_type_symbol
_atom_site_label
_atom_site_fract_x
_atom_site_fract_y
_atom_site_fract_z
Si Si1 0.469448 0.293551 0.953951
Si Si2 0.614687 0.654380 0.429429
Si Si3 0.396263 0.795918 0.985395
Si Si4 0.816172 0.645399 0.202767
Si Si5 0.000000 0.509825 0.750000
Si Si6 0.008834 0.669535 0.357297
O O1 0.287844 0.263269 0.738886
O O2 0.500000 0.500000 0.000000
O O3 0.533398 0.254652 0.979249
O O4 0.563085 0.174212 0.106700
O O5 0.500000 0.567364 0.250000
O O6 0.542423 0.685385 0.393565
O O7 0.769051 0.544852 0.624242
O O8 0.630483 0.852571 0.428133
O O9 0.424906 0.000036 0.032818
O O10 0.883065 0.749155 0.238864
O O11 0.653912 0.711607 0.023624
O O12 0.947703 0.397628 0.731238
#
# Coordination Sequence:
#
# PCOD9306244 Si02
#       6
#     8   8   8   8   4   8
#     4  12  27  45  74 108 150 189 246 302 364 443
#     4   9  23  47  74 106 143 190 247 306 365 437
#     4  11  25  49  73 105 145 199 237 301 377 434
#     4  12  26  44  73 110 145 190 247 303 366 425
#     4   8  22  48  68 102 148 190 246 298 370 440
#     4  11  25  46  70 108 146 195 240 306 365 437
#
# _framework density 23.964393999999999
#
# number of rings (size 3 to 8) (size 9 to 14) (size 15 to 20)
#    0.545    0.727    1.818    2.182    6.364    2.909 
#    6.545    0.000    0.000    0.000    0.000    0.000 
#    0.000    0.000    0.000    0.000    0.000    0.000 
#
# Total GULP energy -123015.985567 kJ/mol
# GULP energy per Si atom -5591.635708 kJ/mol
# Density = 2.390985 g / cm^3
# Si number density = 23.964394 Si / 1000 Ang^3
#
#
#
# Elastic Constant Matrix: (Units=GPa)
#
#
# Indices 1 2 3 4 5 6 
#
# 1 166.9506 15.1837 44.7165 -0.0006 -16.4494 -0.0004
# 2 15.1837 43.7030 26.9668 -0.0003 -15.0540 -0.0003
# 3 44.7165 26.9668 80.1649 0.0000 -13.2629 0.0000
# 4 -0.0006 -0.0003 0.0000 21.4743 0.0006 5.3915
# 5 -16.4494 -15.0540 -13.2629 0.0006 46.2752 0.0002
# 6 -0.0004 -0.0003 0.0000 5.3915 0.0002 29.9287
#
#
#
# Elastic Compliance Matrix: (Units=1/GPa)
#
#
# Indices 1 2 3 4 5 6 
#
# 1 0.007142 0.000453 -0.003875 0.000000 0.001575 0.000000
# 2 0.000453 0.031195 -0.009491 0.000000 0.007589 0.000000
# 3 -0.003875 -0.009491 0.017941 0.000000 0.000677 0.000000
# 4 0.000000 0.000000 0.000000 0.048773 -0.000001 -0.008786
# 5 0.001575 0.007589 0.000677 -0.000001 0.024833 0.000000
# 6 0.000000 0.000000 0.000000 -0.008786 0.000000 0.034996
#
#
# Mechanical properties :
#
#
# Convention : Reuss Voigt Hill
#
# Bulk Modulus (GPa) = 32.84034 51.61695 42.22865
# Shear Modulus (GPa) = 24.89356 33.13240 29.01298
#
# Velocity S-wave (km/s) = 3.22650 3.72232 3.48324
# Velocity P-wave (km/s) = 5.25490 6.32930 5.81696
#
# Compressibility (1/GPa) = 0.03045035
#
# Stress axis : x y z
#
# Youngs Moduli (GPa) = 140.02009 32.05678 55.73960
#
# Poissons Ratio (x) = -0.01451 0.21601
# Poissons Ratio (y) = -0.06338 0.52900
# Poissons Ratio (z) = 0.54264 0.30424
#
# Static dielectric constant tensor:
#      x y z
#    x 1.916250 0.000000 -0.007200 
#    y 0.000000 1.982010 0.000000 
#    z -0.007200 0.000000 1.920430 
# 
# From -- ./inp_files/284478.got.cif
#   From: 2010.05.17/outbox.cif.g08.bks.cpg/sg15_143_cif.got.tgz:284478.got - 2010.06.03 18:47:42.
