data_PCOD9306293
_publ_section_title
;
Structure prediction by ZEFSAII (Michael W. Deem and Ramdas Pophale) SiO2 
 PCOD9306293
Probable space group: C 2/C
;
_chemical_formula_sum "Si O2"
_cell_formula_units_Z 40
_cell_length_a 30.839888
_cell_length_b 10.626596
_cell_length_c 8.860190
_cell_angle_alpha 90.000000
_cell_angle_beta 142.972508
_cell_angle_gamma 90.000000
_cell_volume 1748.595762
_symmetry_space_group_name_H-M "C 2/C"
_symmetry_group_IT_number 15
_symmetry_cell_setting 'monoclinic'
loop_
_space_group_symop_operation_xyz
x,y,z
-x,y,1/2-z
-x,-y,-z
x,-y,1/2+z
1/2+x,1/2+y,z
1/2-x,1/2+y,1/2-z
1/2-x,1/2-y,-z
1/2+x,1/2-y,1/2+z
loop_
_atom_site_type_symbol
_atom_site_label
_atom_site_fract_x
_atom_site_fract_y
_atom_site_fract_z
Si Si1 0.322801 0.706411 0.376376
Si Si2 0.526281 0.374279 0.151033
Si Si3 0.678743 0.829948 0.825732
Si Si4 0.948598 0.663730 0.734296
Si Si5 0.671031 0.894353 0.373316
O O1 0.387652 0.616077 0.599180
O O2 0.331126 0.815500 0.522947
O O3 0.337182 0.772377 0.256236
O O4 0.245617 0.638576 0.166117
O O5 0.500000 0.359339 0.250000
O O6 0.500000 0.500000 0.000000
O O7 0.496387 0.260071 0.964634
O O8 0.614180 0.775183 0.544904
O O9 0.682908 0.979048 0.811191
O O10 0.750000 0.750000 0.000000
O O11 0.899673 0.589879 0.719486
O O12 0.000000 0.599551 0.750000
#
# Coordination Sequence:
#
# PCOD9306293 Si02
#       5
#     8   8   8   8   8
#     4  11  25  46  74 109 148 194 252 311 385 452
#     4  12  27  47  74 108 151 196 249 315 380 450
#     4  12  26  46  73 108 147 193 255 304 381 459
#     4  12  25  48  72 110 147 197 257 304 387 451
#     4  11  26  48  73 109 151 203 248 320 379 452
#
# _framework density 22.875496999999999
#
# number of rings (size 3 to 8) (size 9 to 14) (size 15 to 20)
#    0.000    0.400    6.000    1.800    2.800    0.800 
#    3.600    0.000    0.000    0.000    0.000    0.000 
#    0.000    0.000    0.000    0.000    0.000    0.000 
#
# Total GULP energy -111683.822125 kJ/mol
# GULP energy per Si atom -5584.191106 kJ/mol
# Density = 2.282343 g / cm^3
# Si number density = 22.875497 Si / 1000 Ang^3
#
#
#
# Elastic Constant Matrix: (Units=GPa)
#
#
# Indices 1 2 3 4 5 6 
#
# 1 114.1995 35.3602 38.8062 0.0000 9.1001 0.0000
# 2 35.3602 73.9932 31.4031 0.0000 6.2808 0.0000
# 3 38.8062 31.4031 163.7641 0.0000 5.9847 0.0000
# 4 0.0000 0.0000 0.0000 33.9226 0.0000 -8.6776
# 5 9.1001 6.2808 5.9847 0.0000 42.9904 0.0000
# 6 0.0000 0.0000 0.0000 -8.6776 0.0000 24.8965
#
#
#
# Elastic Compliance Matrix: (Units=1/GPa)
#
#
# Indices 1 2 3 4 5 6 
#
# 1 0.010775 -0.004319 -0.001673 0.000000 -0.001417 0.000000
# 2 -0.004319 0.016578 -0.002111 0.000000 -0.001214 0.000000
# 3 -0.001673 -0.002111 0.006919 0.000000 -0.000301 0.000000
# 4 0.000000 0.000000 0.000000 0.032365 0.000000 0.011281
# 5 -0.001417 -0.001214 -0.000301 0.000000 0.023780 0.000000
# 6 0.000000 0.000000 0.000000 0.011281 0.000000 0.044098
#
#
# Mechanical properties :
#
#
# Convention : Reuss Voigt Hill
#
# Bulk Modulus (GPa) = 55.35595 62.56620 58.96108
# Shear Modulus (GPa) = 31.89931 36.78773 34.34352
#
# Velocity S-wave (km/s) = 3.73832 4.01455 3.87890
# Velocity P-wave (km/s) = 6.54864 6.99278 6.77435
#
# Compressibility (1/GPa) = 0.01806490
#
# Stress axis : x y z
#
# Youngs Moduli (GPa) = 92.80347 60.32196 144.53603
#
# Poissons Ratio (x) = 0.26053 0.24187
# Poissons Ratio (y) = 0.40081 0.30513
# Poissons Ratio (z) = 0.15530 0.12735
#
# Static dielectric constant tensor:
#      x y z
#    x 1.954510 0.000000 -0.020780 
#    y 0.000000 1.797670 0.000000 
#    z -0.020780 0.000000 1.835050 
# 
# From -- ./inp_files/70265.got.cif
#   From: 2010.05.17/outbox.cif.g08.bks.cpg/sg15_36_cif.got.tgz:70265.got - 2010.06.03 18:47:42.
