data_PCOD9306031
_publ_section_title
;
Structure prediction by ZEFSAII (Michael W. Deem and Ramdas Pophale) SiO2 
 PCOD9306031
Probable space group: C 2/C
;
_chemical_formula_sum "Si O2"
_cell_formula_units_Z 40
_cell_length_a 9.376066
_cell_length_b 10.345612
_cell_length_c 20.612949
_cell_angle_alpha 90.000000
_cell_angle_beta 77.584542
_cell_angle_gamma 90.000000
_cell_volume 1952.720359
_symmetry_space_group_name_H-M "C 2/C"
_symmetry_group_IT_number 15
_symmetry_cell_setting 'monoclinic'
loop_
_space_group_symop_operation_xyz
x,y,z
-x,y,1/2-z
-x,-y,-z
x,-y,1/2+z
1/2+x,1/2+y,z
1/2-x,1/2+y,1/2-z
1/2-x,1/2-y,-z
1/2+x,1/2-y,1/2+z
loop_
_atom_site_type_symbol
_atom_site_label
_atom_site_fract_x
_atom_site_fract_y
_atom_site_fract_z
Si Si1 0.843818 0.592401 0.079991
Si Si2 0.887850 0.696968 0.527090
Si Si3 0.155045 0.324157 0.771162
Si Si4 0.378628 0.533544 0.706590
Si Si5 0.518849 0.433679 0.568341
O O1 0.864510 0.440868 0.062540
O O2 0.852223 0.621237 0.155117
O O3 0.682156 0.614343 0.067477
O O4 0.970029 0.674461 0.032161
O O5 0.750000 0.750000 0.500000
O O6 0.921287 0.805969 0.576117
O O7 0.266612 0.415848 0.722589
O O8 0.195060 0.172566 0.773715
O O9 0.000000 0.328493 0.750000
O O10 0.500000 0.514462 0.750000
O O11 0.461873 0.528843 0.629755
O O12 0.500000 0.500000 0.500000
#
# Coordination Sequence:
#
# PCOD9306031 Si02
#       5
#     8   8   8   8   8
#     4  11  25  45  66 105 139 182 234 289 348 430
#     4  11  25  42  71 101 143 179 230 288 357 417
#     4  11  27  44  72  98 141 183 237 288 355 415
#     4  11  26  47  69 101 140 187 232 290 350 424
#     4  12  24  43  74  98 140 185 231 290 355 414
#
# _framework density 20.484245000000001
#
# number of rings (size 3 to 8) (size 9 to 14) (size 15 to 20)
#    0.000    0.800    4.000    1.800    5.600    2.400 
#    0.000    0.000    0.000    0.000    0.000    0.000 
#    0.000    0.000    0.000    0.000    0.000    0.000 
#
# Total GULP energy -111817.070543 kJ/mol
# GULP energy per Si atom -5590.853527 kJ/mol
# Density = 2.043762 g / cm^3
# Si number density = 20.484245 Si / 1000 Ang^3
#
#
#
# Elastic Constant Matrix: (Units=GPa)
#
#
# Indices 1 2 3 4 5 6 
#
# 1 119.6640 56.2774 43.5975 0.0000 9.9068 0.0000
# 2 56.2774 125.3725 31.8385 0.0000 -2.2224 0.0000
# 3 43.5975 31.8385 116.4709 0.0000 12.0543 0.0000
# 4 0.0000 0.0000 0.0000 27.5758 0.0000 0.8933
# 5 9.9068 -2.2224 12.0543 0.0000 30.6731 0.0000
# 6 0.0000 0.0000 0.0000 0.8933 0.0000 32.4265
#
#
#
# Elastic Compliance Matrix: (Units=1/GPa)
#
#
# Indices 1 2 3 4 5 6 
#
# 1 0.011827 -0.004640 -0.002844 0.000000 -0.003038 0.000000
# 2 -0.004640 0.010469 -0.001416 0.000000 0.002814 0.000000
# 3 -0.002844 -0.001416 0.010375 0.000000 -0.003261 0.000000
# 4 0.000000 0.000000 0.000000 0.036296 0.000000 -0.001000
# 5 -0.003038 0.002814 -0.003261 0.000000 0.035069 0.000000
# 6 0.000000 0.000000 0.000000 -0.001000 0.000000 0.030867
#
#
# Mechanical properties :
#
#
# Convention : Reuss Voigt Hill
#
# Bulk Modulus (GPa) = 67.25089 69.43713 68.34401
# Shear Modulus (GPa) = 31.71397 33.45469 32.58433
#
# Velocity S-wave (km/s) = 3.93900 4.04566 3.99269
# Velocity P-wave (km/s) = 7.32048 7.46958 7.39541
#
# Compressibility (1/GPa) = 0.01486969
#
# Stress axis : x y z
#
# Youngs Moduli (GPa) = 84.55336 95.52285 96.38546
#
# Poissons Ratio (x) = 0.44327 0.27413
# Poissons Ratio (y) = 0.39237 0.13647
# Poissons Ratio (z) = 0.24047 0.13525
#
# Static dielectric constant tensor:
#      x y z
#    x 1.673130 0.000000 -0.056910 
#    y 0.000000 1.716150 0.000000 
#    z -0.056910 0.000000 1.721720 
# 
# From -- ./inp_files/187771.got.cif
#   From: 2010.05.17/outbox.cif.g08.bks.cpg/sg15_94_cif.got.tgz:187771.got - 2010.06.03 18:47:42.
