data_PCOD9306363
_publ_section_title
;
Structure prediction by ZEFSAII (Michael W. Deem and Ramdas Pophale) SiO2 
 PCOD9306363
Probable space group: C 2/C
;
_chemical_formula_sum "Si O2"
_cell_formula_units_Z 32
_cell_length_a 9.920307
_cell_length_b 15.984169
_cell_length_c 8.049367
_cell_angle_alpha 90.000000
_cell_angle_beta 95.977479
_cell_angle_gamma 90.000000
_cell_volume 1269.431179
_symmetry_space_group_name_H-M "C 2/C"
_symmetry_group_IT_number 15
_symmetry_cell_setting 'monoclinic'
loop_
_space_group_symop_operation_xyz
x,y,z
-x,y,1/2-z
-x,-y,-z
x,-y,1/2+z
1/2+x,1/2+y,z
1/2-x,1/2+y,1/2-z
1/2-x,1/2-y,-z
1/2+x,1/2-y,1/2+z
loop_
_atom_site_type_symbol
_atom_site_label
_atom_site_fract_x
_atom_site_fract_y
_atom_site_fract_z
Si Si1 0.671585 0.135434 0.378997
Si Si2 0.079070 0.078848 0.591198
Si Si3 0.148560 0.474908 0.204334
Si Si4 0.042058 0.768272 0.578808
O O1 0.671320 0.068445 0.530637
O O2 0.813991 0.183656 0.386231
O O3 0.563752 0.203195 0.432189
O O4 0.654309 0.076318 0.216389
O O5 0.229825 0.058100 0.665888
O O6 0.000000 0.099236 0.750000
O O7 0.065758 0.159761 0.475902
O O8 0.000000 0.000000 0.500000
O O9 0.000000 0.454138 0.250000
O O10 0.000000 0.730099 0.750000
#
# Coordination Sequence:
#
# PCOD9306363 Si02
#       4
#     8   8   8   8
#     4  11  26  47  72 112 150 194 249 315 376 450
#     4  12  23  44  75 111 146 200 253 303 367 457
#     4  12  25  46  74 108 151 194 252 305 382 442
#     4  11  25  47  74 110 153 193 253 312 372 448
#
# _framework density 25.20814
#
# number of rings (size 3 to 8) (size 9 to 14) (size 15 to 20)
#    0.000    0.500    5.000    2.250    3.500    1.000 
#    0.000    2.500    0.000    0.000    0.000    0.000 
#    0.000    0.000    0.000    0.000    0.000    0.000 
#
# Total GULP energy -89648.617628 kJ/mol
# GULP energy per Si atom -5603.038602 kJ/mol
# Density = 2.515077 g / cm^3
# Si number density = 25.208140 Si / 1000 Ang^3
#
#
#
# Elastic Constant Matrix: (Units=GPa)
#
#
# Indices 1 2 3 4 5 6 
#
# 1 161.2576 30.2648 31.0804 0.0000 7.2181 0.0000
# 2 30.2648 154.5292 34.9939 0.0000 3.9842 0.0000
# 3 31.0804 34.9939 84.6264 0.0000 -11.2346 0.0000
# 4 0.0000 0.0000 0.0000 44.8906 0.0000 -22.9781
# 5 7.2181 3.9842 -11.2346 0.0000 42.2991 0.0000
# 6 0.0000 0.0000 0.0000 -22.9781 0.0000 14.5943
#
#
#
# Elastic Compliance Matrix: (Units=1/GPa)
#
#
# Indices 1 2 3 4 5 6 
#
# 1 0.006894 -0.000749 -0.002456 0.000000 -0.001758 0.000000
# 2 -0.000749 0.007315 -0.002928 0.000000 -0.001339 0.000000
# 3 -0.002456 -0.002928 0.014534 0.000000 0.004555 0.000000
# 4 0.000000 0.000000 0.000000 0.114777 0.000000 0.180711
# 5 -0.001758 -0.001339 0.004555 0.000000 0.025277 0.000000
# 6 0.000000 0.000000 0.000000 0.180711 0.000000 0.353041
#
#
# Mechanical properties :
#
#
# Convention : Reuss Voigt Hill
#
# Bulk Modulus (GPa) = 60.68399 65.89904 63.29151
# Shear Modulus (GPa) = 9.26621 40.62840 24.94731
#
# Velocity S-wave (km/s) = 1.91934 4.01898 3.14929
# Velocity P-wave (km/s) = 5.38862 6.90905 6.19565
#
# Compressibility (1/GPa) = 0.01647881
#
# Stress axis : x y z
#
# Youngs Moduli (GPa) = 145.05856 136.69726 68.80482
#
# Poissons Ratio (x) = 0.10235 0.16896
# Poissons Ratio (y) = 0.10861 0.20144
# Poissons Ratio (z) = 0.35621 0.40022
#
# Static dielectric constant tensor:
#      x y z
#    x 2.009940 0.000000 0.033240 
#    y 0.000000 2.022090 0.000000 
#    z 0.033240 0.000000 2.083800 
# 
# From -- ./inp_files/28491.got.cif
#   From: 2010.05.17/outbox.cif.g08.bks.cpg/sg15_15_cif.got.tgz:28491.got - 2010.06.03 18:47:42.
