data_PCOD9306062
_publ_section_title
;
Structure prediction by ZEFSAII (Michael W. Deem and Ramdas Pophale) SiO2 
 PCOD9306062
Probable space group: C 2/C
;
_chemical_formula_sum "Si O2"
_cell_formula_units_Z 40
_cell_length_a 10.611782
_cell_length_b 13.692929
_cell_length_c 12.231452
_cell_angle_alpha 90.000000
_cell_angle_beta 75.116094
_cell_angle_gamma 90.000000
_cell_volume 1717.676221
_symmetry_space_group_name_H-M "C 2/C"
_symmetry_group_IT_number 15
_symmetry_cell_setting 'monoclinic'
loop_
_space_group_symop_operation_xyz
x,y,z
-x,y,1/2-z
-x,-y,-z
x,-y,1/2+z
1/2+x,1/2+y,z
1/2-x,1/2+y,1/2-z
1/2-x,1/2-y,-z
1/2+x,1/2-y,1/2+z
loop_
_atom_site_type_symbol
_atom_site_label
_atom_site_fract_x
_atom_site_fract_y
_atom_site_fract_z
Si Si1 0.696529 0.831196 0.649178
Si Si2 0.847543 0.487763 0.662072
Si Si3 0.094640 0.627705 0.568109
Si Si4 0.959501 0.793605 0.484102
Si Si5 0.686554 0.362644 0.295149
O O1 0.601218 0.796103 0.573874
O O2 0.704686 0.738420 0.727125
O O3 0.702417 0.128175 0.637503
O O4 0.838090 0.848100 0.565223
O O5 0.849011 0.420943 0.554550
O O6 0.716573 0.551290 0.703907
O O7 0.967841 0.563192 0.626681
O O8 0.852580 0.420156 0.768070
O O9 0.048610 0.737774 0.552137
O O10 0.047889 0.858059 0.385196
#
# Coordination Sequence:
#
# PCOD9306062 Si02
#       5
#     8   8   8   8   8
#     4  11  26  46  73 100 142 189 227 285 353 413
#     4  11  26  43  73 103 138 184 233 283 348 416
#     4  11  25  43  73 106 135 181 244 280 338 427
#     4  11  25  46  71 102 142 182 235 284 350 415
#     4  12  25  43  73 106 138 178 233 294 343 405
#
# _framework density 23.287275000000001
#
# number of rings (size 3 to 8) (size 9 to 14) (size 15 to 20)
#    0.000    0.800    4.000    1.800    8.400    0.800 
#    0.000    2.000    0.000    0.000    0.000    0.000 
#    0.000    0.000    0.000    0.000    0.000    0.000 
#
# Total GULP energy -112135.992248 kJ/mol
# GULP energy per Si atom -5606.799612 kJ/mol
# Density = 2.323427 g / cm^3
# Si number density = 23.287275 Si / 1000 Ang^3
#
#
#
# Elastic Constant Matrix: (Units=GPa)
#
#
# Indices 1 2 3 4 5 6 
#
# 1 75.6819 8.1078 46.2899 0.0000 -15.3256 0.0000
# 2 8.1078 61.5844 28.3244 0.0000 -16.4884 0.0000
# 3 46.2899 28.3244 141.4641 0.0000 -37.5980 0.0000
# 4 0.0000 0.0000 0.0000 36.6828 0.0000 -6.8881
# 5 -15.3256 -16.4884 -37.5980 0.0000 43.9830 0.0000
# 6 0.0000 0.0000 0.0000 -6.8881 0.0000 23.7849
#
#
#
# Elastic Compliance Matrix: (Units=1/GPa)
#
#
# Indices 1 2 3 4 5 6 
#
# 1 0.016613 0.000607 -0.005122 0.000000 0.001637 0.000000
# 2 0.000607 0.018696 -0.002618 0.000000 0.004983 0.000000
# 3 -0.005122 -0.002618 0.011043 0.000000 0.006674 0.000000
# 4 0.000000 0.000000 0.000000 0.028828 0.000000 0.008349
# 5 0.001637 0.004983 0.006674 0.000000 0.030879 0.000000
# 6 0.000000 0.000000 0.000000 0.008349 0.000000 0.044461
#
#
# Mechanical properties :
#
#
# Convention : Reuss Voigt Hill
#
# Bulk Modulus (GPa) = 31.16657 49.35272 40.25965
# Shear Modulus (GPa) = 28.49299 33.95737 31.22518
#
# Velocity S-wave (km/s) = 3.50171 3.82277 3.66576
# Velocity P-wave (km/s) = 5.45545 6.38152 5.93657
#
# Compressibility (1/GPa) = 0.03208566
#
# Stress axis : x y z
#
# Youngs Moduli (GPa) = 60.19459 53.48750 90.55572
#
# Poissons Ratio (x) = -0.03248 0.46386
# Poissons Ratio (y) = -0.03655 0.23706
# Poissons Ratio (z) = 0.30834 0.14002
#
# Static dielectric constant tensor:
#      x y z
#    x 1.868970 0.000000 0.000430 
#    y 0.000000 1.852850 0.000000 
#    z 0.000430 0.000000 1.882480 
# 
# From -- ./inp_files/195566.got.cif
#   From: 2010.05.17/outbox.cif.g08.bks.cpg/sg15_98_cif.got.tgz:195566.got - 2010.06.03 18:47:42.
