data_PCOD9306209
_publ_section_title
;
Structure prediction by ZEFSAII (Michael W. Deem and Ramdas Pophale) SiO2 
 PCOD9306209
Probable space group: C 2/C
;
_chemical_formula_sum "Si O2"
_cell_formula_units_Z 52
_cell_length_a 14.075251
_cell_length_b 5.742350
_cell_length_c 28.306095
_cell_angle_alpha 90.000000
_cell_angle_beta 107.971893
_cell_angle_gamma 90.000000
_cell_volume 2176.212290
_symmetry_space_group_name_H-M "C 2/C"
_symmetry_group_IT_number 15
_symmetry_cell_setting 'monoclinic'
loop_
_space_group_symop_operation_xyz
x,y,z
-x,y,1/2-z
-x,-y,-z
x,-y,1/2+z
1/2+x,1/2+y,z
1/2-x,1/2+y,1/2-z
1/2-x,1/2-y,-z
1/2+x,1/2-y,1/2+z
loop_
_atom_site_type_symbol
_atom_site_label
_atom_site_fract_x
_atom_site_fract_y
_atom_site_fract_z
Si Si1 0.181808 0.785624 0.118405
Si Si2 0.411305 0.077996 0.643256
Si Si3 0.509501 0.360622 0.575917
Si Si4 0.855437 0.249613 0.563817
Si Si5 0.500000 0.921675 0.750000
Si Si6 0.633394 0.930687 0.029743
Si Si7 0.303668 0.203690 0.270658
O O1 0.297980 0.832621 0.126201
O O2 0.140962 0.637643 0.068069
O O3 0.177016 0.677705 0.170110
O O4 0.110177 0.007290 0.106998
O O5 0.478245 0.211294 0.616206
O O6 0.403358 0.817378 0.620899
O O7 0.456262 0.077891 0.701515
O O8 0.417019 0.533558 0.553140
O O9 0.541582 0.222057 0.534191
O O10 0.739449 0.201168 0.552371
O O11 0.867635 0.455321 0.527041
O O12 0.592225 0.780738 0.741924
O O13 0.247317 0.455057 0.253715
#
# Coordination Sequence:
#
# PCOD9306209 Si02
#       7
#     8   8   8   8   4   8   8
#     4  12  27  48  77 109 154 199 252 324 381 470
#     4  12  27  49  75 109 152 194 265 313 391 466
#     4  12  25  46  77 105 149 201 248 315 388 460
#     4  11  25  46  73 113 147 201 249 320 382 475
#     4  12  28  50  80 110 150 210 254 330 394 470
#     4  11  25  45  76 109 154 194 255 310 393 462
#     4  12  30  51  82 115 157 207 263 325 394 463
#
# _framework density 23.894729000000002
#
# number of rings (size 3 to 8) (size 9 to 14) (size 15 to 20)
#    0.000    0.308    4.615    3.231    6.462    6.154 
#    0.000    0.000    0.000    0.000    0.000    0.000 
#    0.000    0.000    0.000    0.000    0.000    0.000 
#
# Total GULP energy -145510.423449 kJ/mol
# GULP energy per Si atom -5596.554748 kJ/mol
# Density = 2.384034 g / cm^3
# Si number density = 23.894729 Si / 1000 Ang^3
#
#
#
# Elastic Constant Matrix: (Units=GPa)
#
#
# Indices 1 2 3 4 5 6 
#
# 1 177.5873 41.3625 15.6688 0.0000 -18.4883 0.0000
# 2 41.3625 59.9017 18.9546 0.0000 -0.6309 0.0000
# 3 15.6688 18.9546 123.2468 0.0000 -8.5733 0.0000
# 4 0.0000 0.0000 0.0000 24.3176 0.0000 -2.2669
# 5 -18.4883 -0.6309 -8.5733 0.0000 33.6475 0.0000
# 6 0.0000 0.0000 0.0000 -2.2669 0.0000 41.9535
#
#
#
# Elastic Compliance Matrix: (Units=1/GPa)
#
#
# Indices 1 2 3 4 5 6 
#
# 1 0.007178 -0.004954 0.000119 0.000000 0.003882 0.000000
# 2 -0.004954 0.020971 -0.002807 0.000000 -0.003044 0.000000
# 3 0.000119 -0.002807 0.008685 0.000000 0.002226 0.000000
# 4 0.000000 0.000000 0.000000 0.041331 0.000000 0.002233
# 5 0.003882 -0.003044 0.002226 0.000000 0.032363 0.000000
# 6 0.000000 0.000000 0.000000 0.002233 0.000000 0.023957
#
#
# Mechanical properties :
#
#
# Convention : Reuss Voigt Hill
#
# Bulk Modulus (GPa) = 46.40084 56.96752 51.68418
# Shear Modulus (GPa) = 31.85703 38.96703 35.41203
#
# Velocity S-wave (km/s) = 3.65530 4.04267 3.85385
# Velocity P-wave (km/s) = 6.10540 6.75897 6.44048
#
# Compressibility (1/GPa) = 0.02155133
#
# Stress axis : x y z
#
# Youngs Moduli (GPa) = 139.30677 47.68564 115.13848
#
# Poissons Ratio (x) = 0.23621 -0.01373
# Poissons Ratio (y) = 0.69007 0.32321
# Poissons Ratio (z) = -0.01661 0.13386
#
# Static dielectric constant tensor:
#      x y z
#    x 1.875330 0.000000 0.022930 
#    y 0.000000 1.993020 0.000000 
#    z 0.022930 0.000000 1.863170 
# 
# From -- ./inp_files/312313.got.cif
#   From: 2010.05.17/outbox.cif.g08.bks.cpg/sg15_157_cif.got.tgz:312313.got - 2010.06.03 18:47:42.
