data_PCOD9306621
_publ_section_title
;
Structure prediction by ZEFSAII (Michael W. Deem and Ramdas Pophale) SiO2 
 PCOD9306621
Probable space group: C 2/C
;
_chemical_formula_sum "Si O2"
_cell_formula_units_Z 40
_cell_length_a 5.912078
_cell_length_b 17.534529
_cell_length_c 17.019308
_cell_angle_alpha 90.000000
_cell_angle_beta 91.890443
_cell_angle_gamma 90.000000
_cell_volume 1763.354867
_symmetry_space_group_name_H-M "C 2/C"
_symmetry_group_IT_number 15
_symmetry_cell_setting 'monoclinic'
loop_
_space_group_symop_operation_xyz
x,y,z
-x,y,1/2-z
-x,-y,-z
x,-y,1/2+z
1/2+x,1/2+y,z
1/2-x,1/2+y,1/2-z
1/2-x,1/2-y,-z
1/2+x,1/2-y,1/2+z
loop_
_atom_site_type_symbol
_atom_site_label
_atom_site_fract_x
_atom_site_fract_y
_atom_site_fract_z
Si Si1 0.066395 0.186086 0.010924
Si Si2 0.226938 0.971708 0.710883
Si Si3 0.252135 0.977467 0.533673
Si Si4 0.000000 0.673549 0.250000
Si Si5 0.773306 0.724546 0.629955
Si Si6 0.500000 0.107728 0.750000
O O1 0.893853 0.184123 0.934902
O O2 0.250000 0.250000 0.000000
O O3 0.218824 0.112507 0.025635
O O4 0.918456 0.213197 0.083527
O O5 0.243113 0.003491 0.623781
O O6 0.350178 0.890029 0.704407
O O7 0.000000 0.949164 0.750000
O O8 0.309338 0.043490 0.765784
O O9 0.500000 0.000000 0.500000
O O10 0.000000 0.000000 0.500000
O O11 0.131572 0.728126 0.192277
O O12 0.926279 0.663171 0.678368
#
# Coordination Sequence:
#
# PCOD9306621 Si02
#       6
#     8   8   8   4   8   4
#     4  11  27  49  76 108 155 201 261 317 394 469
#     4  11  27  49  74 106 150 202 256 316 388 465
#     4  12  30  48  79 111 155 203 259 320 389 463
#     4  11  26  46  74 105 148 192 254 313 386 458
#     4  11  27  45  76 113 149 202 254 323 393 467
#     4  11  28  44  74 107 154 190 260 315 392 454
#
# _framework density 22.684032999999999
#
# number of rings (size 3 to 8) (size 9 to 14) (size 15 to 20)
#    0.000    0.800    0.000    3.600   25.200    0.000 
#    0.000    0.000    0.000    0.000    0.000    0.000 
#    0.000    0.000    0.000    0.000    0.000    0.000 
#
# Total GULP energy -111514.499459 kJ/mol
# GULP energy per Si atom -5575.724973 kJ/mol
# Density = 2.263240 g / cm^3
# Si number density = 22.684033 Si / 1000 Ang^3
#
#
#
# Elastic Constant Matrix: (Units=GPa)
#
#
# Indices 1 2 3 4 5 6 
#
# 1 121.6507 49.5022 72.7236 0.0000 -8.7151 0.0000
# 2 49.5022 169.0486 54.0167 0.0000 3.7192 0.0000
# 3 72.7236 54.0167 133.0618 0.0000 -7.3928 0.0000
# 4 0.0000 0.0000 0.0000 27.9691 0.0000 11.8206
# 5 -8.7151 3.7192 -7.3928 0.0000 43.5921 0.0000
# 6 0.0000 0.0000 0.0000 11.8206 0.0000 -9.9946
#
#
#
# Elastic Compliance Matrix: (Units=1/GPa)
#
#
# Indices 1 2 3 4 5 6 
#
# 1 0.012745 -0.001807 -0.006140 0.000000 0.001661 0.000000
# 2 -0.001807 0.007102 -0.001968 0.000000 -0.001301 0.000000
# 3 -0.006140 -0.001968 0.011721 0.000000 0.000928 0.000000
# 4 0.000000 0.000000 0.000000 0.023838 0.000000 0.028193
# 5 0.001661 -0.001301 0.000928 0.000000 0.023540 0.000000
# 6 0.000000 0.000000 0.000000 0.028193 0.000000 -0.066710
#
#
# Mechanical properties :
#
#
# Convention : Reuss Voigt Hill
#
# Bulk Modulus (GPa) = 85.18380 86.24957 85.71669
# Shear Modulus (GPa) = 138.96812 28.81456 83.89134
#
# Velocity S-wave (km/s) = 7.83553 3.56793 6.08793
# Velocity P-wave (km/s) = 10.93136 7.42147 9.34272
#
# Compressibility (1/GPa) = 0.01173932
#
# Stress axis : x y z
#
# Youngs Moduli (GPa) = 78.46274 140.80666 85.31381
#
# Poissons Ratio (x) = 0.25440 0.52382
# Poissons Ratio (y) = 0.14176 0.16789
# Poissons Ratio (z) = 0.48175 0.27709
#
# Static dielectric constant tensor:
#      x y z
#    x 2.194960 0.000000 0.398980 
#    y 0.000000 1.803580 0.000000 
#    z 0.398980 0.000000 1.844340 
# 
# From -- ./inp_files/184363.got.cif
#   From: 2010.05.17/outbox.cif.g08.bks.cpg/sg15_93_cif.got.tgz:184363.got - 2010.06.03 18:47:42.
