data_PCOD9306952
_publ_section_title
;
Structure prediction by ZEFSAII (Michael W. Deem and Ramdas Pophale) SiO2 
 PCOD9306952
Probable space group: C 2/C
;
_chemical_formula_sum "Si O2"
_cell_formula_units_Z 48
_cell_length_a 14.313588
_cell_length_b 22.377429
_cell_length_c 11.037257
_cell_angle_alpha 90.000000
_cell_angle_beta 44.469790
_cell_angle_gamma 90.000000
_cell_volume 2476.558055
_symmetry_space_group_name_H-M "C 2/C"
_symmetry_group_IT_number 15
_symmetry_cell_setting 'monoclinic'
loop_
_space_group_symop_operation_xyz
x,y,z
-x,y,1/2-z
-x,-y,-z
x,-y,1/2+z
1/2+x,1/2+y,z
1/2-x,1/2+y,1/2-z
1/2-x,1/2-y,-z
1/2+x,1/2-y,1/2+z
loop_
_atom_site_type_symbol
_atom_site_label
_atom_site_fract_x
_atom_site_fract_y
_atom_site_fract_z
Si Si1 0.125639 0.248004 0.422011
Si Si2 0.225882 0.627001 0.156605
Si Si3 0.367958 0.314683 0.085277
Si Si4 0.132919 0.911796 0.205979
Si Si5 0.131176 0.969207 0.817697
Si Si6 0.500000 0.814469 0.750000
Si Si7 0.500000 0.379376 0.750000
O O1 0.196880 0.183546 0.359823
O O2 0.222062 0.290340 0.254418
O O3 0.978560 0.236258 0.505668
O O4 0.100788 0.272249 0.581325
O O5 0.273305 0.567142 0.180487
O O6 0.072432 0.645070 0.283879
O O7 0.271660 0.620422 0.975738
O O8 0.397750 0.367822 0.154435
O O9 0.397949 0.340350 0.924664
O O10 0.000000 0.924801 0.250000
O O11 0.195370 0.973440 0.194349
O O12 0.080281 0.921913 0.766710
O O13 0.000000 0.000000 0.000000
#
# Coordination Sequence:
#
# PCOD9306952 Si02
#       7
#     8   8   8   8   8   4   4
#     4  12  22  40  64  98 129 167 211 268 323 390
#     4  12  23  39  64  97 126 162 215 269 329 378
#     4  12  25  38  64  98 131 170 214 260 327 390
#     4  12  20  36  63  97 122 152 209 276 321 362
#     4  12  21  38  66  95 124 163 218 273 320 375
#     4  12  24  38  67  94 135 170 208 278 328 378
#     4  12  22  40  61  94 135 168 208 266 324 376
#
# _framework density 19.381737999999999
#
# number of rings (size 3 to 8) (size 9 to 14) (size 15 to 20)
#    0.000    0.000   10.833    1.500    0.000    0.667 
#    0.000    0.833    0.000    0.000    0.000    0.000 
#    0.000    0.000    0.000    0.000    0.000    0.000 
#
# Total GULP energy -133999.339768 kJ/mol
# GULP energy per Si atom -5583.305824 kJ/mol
# Density = 1.933762 g / cm^3
# Si number density = 19.381738 Si / 1000 Ang^3
#
#
#
# Elastic Constant Matrix: (Units=GPa)
#
#
# Indices 1 2 3 4 5 6 
#
# 1 63.1639 35.4926 22.3445 0.0000 -2.1670 0.0000
# 2 35.4926 106.1929 42.7792 0.0000 5.5559 0.0000
# 3 22.3445 42.7792 94.5954 0.0000 17.0269 0.0000
# 4 0.0000 0.0000 0.0000 25.9034 0.0000 7.4811
# 5 -2.1670 5.5559 17.0269 0.0000 32.3148 0.0000
# 6 0.0000 0.0000 0.0000 7.4811 0.0000 41.8834
#
#
#
# Elastic Compliance Matrix: (Units=1/GPa)
#
#
# Indices 1 2 3 4 5 6 
#
# 1 0.020241 -0.005822 -0.002842 0.000000 0.003856 0.000000
# 2 -0.005822 0.013210 -0.004551 0.000000 -0.000263 0.000000
# 3 -0.002842 -0.004551 0.014577 0.000000 -0.007089 0.000000
# 4 0.000000 0.000000 0.000000 0.040705 0.000000 -0.007271
# 5 0.003856 -0.000263 -0.007089 0.000000 0.034985 0.000000
# 6 0.000000 0.000000 0.000000 -0.007271 0.000000 0.025174
#
#
# Mechanical properties :
#
#
# Convention : Reuss Voigt Hill
#
# Bulk Modulus (GPa) = 46.30330 51.68722 48.99526
# Shear Modulus (GPa) = 27.39401 30.90940 29.15170
#
# Velocity S-wave (km/s) = 3.76359 3.99779 3.88246
# Velocity P-wave (km/s) = 6.54432 6.93078 6.74032
#
# Compressibility (1/GPa) = 0.02159673
#
# Stress axis : x y z
#
# Youngs Moduli (GPa) = 49.40478 75.70081 68.60127
#
# Poissons Ratio (x) = 0.44071 0.19499
# Poissons Ratio (y) = 0.28762 0.31223
# Poissons Ratio (z) = 0.14043 0.34454
#
# Static dielectric constant tensor:
#      x y z
#    x 1.718630 0.000000 -0.020180 
#    y 0.000000 1.690210 0.000000 
#    z -0.020180 0.000000 1.741460 
# 
# From -- ./inp_files/100020.got.cif
#   From: 2010.05.17/outbox.cif.g08.bks.cpg/sg15_51_cif.got.tgz:100020.got - 2010.06.03 18:47:42.
