data_PCOD9306838
_publ_section_title
;
Structure prediction by ZEFSAII (Michael W. Deem and Ramdas Pophale) SiO2 
 PCOD9306838
Probable space group: C 2/C
;
_chemical_formula_sum "Si O2"
_cell_formula_units_Z 40
_cell_length_a 13.007411
_cell_length_b 8.383126
_cell_length_c 13.691869
_cell_angle_alpha 90.000000
_cell_angle_beta 99.584383
_cell_angle_gamma 90.000000
_cell_volume 1472.159163
_symmetry_space_group_name_H-M "C 2/C"
_symmetry_group_IT_number 15
_symmetry_cell_setting 'monoclinic'
loop_
_space_group_symop_operation_xyz
x,y,z
-x,y,1/2-z
-x,-y,-z
x,-y,1/2+z
1/2+x,1/2+y,z
1/2-x,1/2+y,1/2-z
1/2-x,1/2-y,-z
1/2+x,1/2-y,1/2+z
loop_
_atom_site_type_symbol
_atom_site_label
_atom_site_fract_x
_atom_site_fract_y
_atom_site_fract_z
Si Si1 0.072767 0.642902 0.475273
Si Si2 0.329998 0.598766 0.007901
Si Si3 0.376687 0.920250 0.712308
Si Si4 0.480209 0.462577 0.364779
Si Si5 0.733691 0.860137 0.152715
O O1 0.141829 0.551400 0.404851
O O2 0.143905 0.713614 0.570912
O O3 0.000000 0.500000 0.500000
O O4 0.132552 0.047764 0.596529
O O5 0.448338 0.604132 0.076135
O O6 0.286265 0.475849 0.082030
O O7 0.250000 0.750000 0.000000
O O8 0.500000 0.924082 0.750000
O O9 0.477000 0.712281 0.593680
O O10 0.325955 0.044948 0.774793
O O11 0.315494 0.755383 0.716364
O O12 0.500000 0.476727 0.250000
#
# Coordination Sequence:
#
# PCOD9306838 Si02
#       5
#     8   8   8   8   8
#     4  12  25  49  83 115 172 227 282 360 439 511
#     4  11  27  48  82 123 165 220 289 354 437 516
#     4  12  28  55  85 127 177 229 296 360 436 526
#     4  11  27  53  82 118 173 226 285 366 436 520
#     4  12  29  53  85 125 173 231 292 361 442 526
#
# _framework density 27.170974000000001
#
# number of rings (size 3 to 8) (size 9 to 14) (size 15 to 20)
#    0.000    0.400    4.000    2.400    2.800    4.800 
#    7.200    0.000    0.000    0.000    0.000    0.000 
#    0.000    0.000    0.000    0.000    0.000    0.000 
#
# Total GULP energy -111759.779981 kJ/mol
# GULP energy per Si atom -5587.988999 kJ/mol
# Density = 2.710913 g / cm^3
# Si number density = 27.170974 Si / 1000 Ang^3
#
#
#
# Elastic Constant Matrix: (Units=GPa)
#
#
# Indices 1 2 3 4 5 6 
#
# 1 223.1199 91.0305 73.8830 0.0000 -29.1093 0.0000
# 2 91.0305 126.5223 44.8173 0.0000 -15.8074 0.0000
# 3 73.8830 44.8173 193.2832 0.0000 -32.0892 0.0000
# 4 0.0000 0.0000 0.0000 41.7320 0.0000 -3.3520
# 5 -29.1093 -15.8074 -32.0892 0.0000 55.7136 0.0000
# 6 0.0000 0.0000 0.0000 -3.3520 0.0000 58.9712
#
#
#
# Elastic Compliance Matrix: (Units=1/GPa)
#
#
# Indices 1 2 3 4 5 6 
#
# 1 0.006888 -0.004268 -0.001379 0.000000 0.001594 0.000000
# 2 -0.004268 0.011360 -0.000926 0.000000 0.000460 0.000000
# 3 -0.001379 -0.000926 0.006360 0.000000 0.002680 0.000000
# 4 0.000000 0.000000 0.000000 0.024072 0.000000 0.001368
# 5 0.001594 0.000460 0.002680 0.000000 0.020456 0.000000
# 6 0.000000 0.000000 0.000000 0.001368 0.000000 0.017035
#
#
# Mechanical properties :
#
#
# Convention : Reuss Voigt Hill
#
# Bulk Modulus (GPa) = 87.24261 106.93189 97.08725
# Shear Modulus (GPa) = 48.47856 53.49632 50.98744
#
# Velocity S-wave (km/s) = 4.22857 4.44202 4.33661
# Velocity P-wave (km/s) = 7.48462 8.10860 7.80285
#
# Compressibility (1/GPa) = 0.01146229
#
# Stress axis : x y z
#
# Youngs Moduli (GPa) = 145.18737 88.02723 157.22042
#
# Poissons Ratio (x) = 0.37571 0.21674
# Poissons Ratio (y) = 0.61968 0.14563
# Poissons Ratio (z) = 0.20015 0.08154
#
# Static dielectric constant tensor:
#      x y z
#    x 2.399720 0.000000 0.069670 
#    y 0.000000 2.179870 0.000000 
#    z 0.069670 0.000000 2.141490 
# 
# From -- ./inp_files/202327.got.cif
#   From: 2010.05.17/outbox.cif.g08.bks.cpg/sg15_102_cif.got.tgz:202327.got - 2010.06.03 18:47:42.
