data_PCOD9306122
_publ_section_title
;
Structure prediction by ZEFSAII (Michael W. Deem and Ramdas Pophale) SiO2 
 PCOD9306122
Probable space group: C 2/C
;
_chemical_formula_sum "Si O2"
_cell_formula_units_Z 48
_cell_length_a 9.565336
_cell_length_b 18.728394
_cell_length_c 27.353952
_cell_angle_alpha 90.000000
_cell_angle_beta 30.547780
_cell_angle_gamma 90.000000
_cell_volume 2490.599937
_symmetry_space_group_name_H-M "C 2/C"
_symmetry_group_IT_number 15
_symmetry_cell_setting 'monoclinic'
loop_
_space_group_symop_operation_xyz
x,y,z
-x,y,1/2-z
-x,-y,-z
x,-y,1/2+z
1/2+x,1/2+y,z
1/2-x,1/2+y,1/2-z
1/2-x,1/2-y,-z
1/2+x,1/2-y,1/2+z
loop_
_atom_site_type_symbol
_atom_site_label
_atom_site_fract_x
_atom_site_fract_y
_atom_site_fract_z
Si Si1 0.339049 0.665010 0.417011
Si Si2 0.629526 0.571698 0.763090
Si Si3 0.129867 0.426713 0.482168
Si Si4 0.338572 0.164919 0.917275
Si Si5 0.129447 0.926735 0.982404
Si Si6 0.128994 0.428099 0.763356
O O1 0.352968 0.750057 0.408587
O O2 0.250903 0.647355 0.499699
O O3 0.628859 0.628459 0.317587
O O4 0.110512 0.631328 0.450182
O O5 0.500000 0.553508 0.750000
O O6 0.383288 0.597093 0.871887
O O7 0.750636 0.500015 0.749859
O O8 0.871283 0.628296 0.681984
O O9 0.250323 0.438242 0.499842
O O10 0.000000 0.500000 0.500000
O O11 0.111096 0.131244 0.949925
O O12 0.382852 0.902819 0.872171
O O13 0.000000 0.000000 0.000000
O O14 0.000000 0.445831 0.750000
#
# Coordination Sequence:
#
# PCOD9306122 Si02
#       6
#     8   8   8   8   8   8
#     4  11  25  45  67  98 137 177 221 273 331 395
#     4  12  24  40  70 101 127 174 226 272 327 392
#     4  12  24  42  69  99 133 175 224 273 330 391
#     4  11  25  45  67  98 137 177 221 273 331 395
#     4  12  24  42  69  99 133 175 224 273 330 391
#     4  12  24  40  70 101 127 174 226 272 327 392
#
# _framework density 19.272463999999999
#
# number of rings (size 3 to 8) (size 9 to 14) (size 15 to 20)
#    0.000    0.333    6.667    3.000    0.000    2.667 
#    0.000    1.667    0.000    0.000    0.000    0.000 
#    0.000    0.000    0.000    0.000    0.000    0.000 
#
# Total GULP energy -134308.935295 kJ/mol
# GULP energy per Si atom -5596.205637 kJ/mol
# Density = 1.922860 g / cm^3
# Si number density = 19.272464 Si / 1000 Ang^3
#
#
#
# Elastic Constant Matrix: (Units=GPa)
#
#
# Indices 1 2 3 4 5 6 
#
# 1 195.7293 58.8236 59.3827 -0.0177 -7.8593 0.0311
# 2 58.8236 117.7967 56.4549 -0.3260 -14.1329 0.1554
# 3 59.3827 56.4549 159.2446 -1.0908 -11.6485 0.4251
# 4 -0.0177 -0.3260 -1.0908 21.4281 0.2060 7.7008
# 5 -7.8593 -14.1329 -11.6485 0.2060 34.3645 -0.1238
# 6 0.0311 0.1554 0.4251 7.7008 -0.1238 16.0343
#
#
#
# Elastic Compliance Matrix: (Units=1/GPa)
#
#
# Indices 1 2 3 4 5 6 
#
# 1 0.006290 -0.002436 -0.001488 -0.000151 -0.000067 0.000123
# 2 -0.002436 0.011493 -0.002934 -0.000007 0.003175 -0.000001
# 3 -0.001488 -0.002934 0.007963 0.000495 0.001148 -0.000409
# 4 -0.000151 -0.000007 0.000495 0.056443 -0.000305 -0.027123
# 5 -0.000067 0.003175 0.001148 -0.000305 0.030782 0.000323
# 6 0.000123 -0.000001 -0.000409 -0.027123 0.000323 0.075406
#
#
# Mechanical properties :
#
#
# Convention : Reuss Voigt Hill
#
# Bulk Modulus (GPa) = 83.12820 91.34368 87.23594
# Shear Modulus (GPa) = 24.25966 34.23933 29.24949
#
# Velocity S-wave (km/s) = 3.55177 4.21954 3.89997
# Velocity P-wave (km/s) = 7.74899 8.44027 8.10201
#
# Compressibility (1/GPa) = 0.01202961
#
# Stress axis : x y z
#
# Youngs Moduli (GPa) = 158.98001 87.01144 125.58049
#
# Poissons Ratio (x) = 0.21200 0.18687
# Poissons Ratio (y) = 0.38735 0.36840
# Poissons Ratio (z) = 0.23657 0.25526
#
# Static dielectric constant tensor:
#      x y z
#    x 1.671240 -0.000010 0.004530 
#    y -0.000010 1.646500 -0.000060 
#    z 0.004530 -0.000060 1.714900 
# 
# From -- ./inp_files/290049.got.cif
#   From: 2010.05.17/outbox.cif.g08.bks.cpg/sg15_146_cif.got.tgz:290049.got - 2010.06.03 18:47:42.
