data_PCOD9306593
_publ_section_title
;
Structure prediction by ZEFSAII (Michael W. Deem and Ramdas Pophale) SiO2 
 PCOD9306593
Probable space group: C 2/C
;
_chemical_formula_sum "Si O2"
_cell_formula_units_Z 36
_cell_length_a 17.052032
_cell_length_b 9.012218
_cell_length_c 19.544885
_cell_angle_alpha 90.000000
_cell_angle_beta 27.163477
_cell_angle_gamma 90.000000
_cell_volume 1371.232520
_symmetry_space_group_name_H-M "C 2/C"
_symmetry_group_IT_number 15
_symmetry_cell_setting 'monoclinic'
loop_
_space_group_symop_operation_xyz
x,y,z
-x,y,1/2-z
-x,-y,-z
x,-y,1/2+z
1/2+x,1/2+y,z
1/2-x,1/2+y,1/2-z
1/2-x,1/2-y,-z
1/2+x,1/2-y,1/2+z
loop_
_atom_site_type_symbol
_atom_site_label
_atom_site_fract_x
_atom_site_fract_y
_atom_site_fract_z
Si Si1 0.553917 0.168228 0.856881
Si Si2 0.325346 0.556587 0.165831
Si Si3 0.964629 0.713553 0.199039
Si Si4 0.756331 0.017099 0.901445
Si Si5 0.000000 0.229357 0.250000
O O1 0.602488 0.335937 0.833040
O O2 0.710439 0.084020 0.770816
O O3 0.534790 0.168633 0.789372
O O4 0.388144 0.091636 0.019520
O O5 0.198772 0.637912 0.210406
O O6 0.500000 0.500000 0.000000
O O7 0.908042 0.887624 0.247422
O O8 0.000000 0.672423 0.250000
O O9 0.133519 0.647315 0.029279
O O10 0.845120 0.889970 0.879911
#
# Coordination Sequence:
#
# PCOD9306593 Si02
#       5
#     8   8   8   8   4
#     4  11  28  48  76 114 155 209 259 331 394 473
#     4  11  28  46  77 111 160 203 264 322 402 468
#     4  11  26  46  75 116 156 202 257 329 393 472
#     4  11  26  45  79 112 156 205 264 321 400 473
#     4  12  26  48  80 110 162 204 268 320 404 482
#
# _framework density 26.253754000000001
#
# number of rings (size 3 to 8) (size 9 to 14) (size 15 to 20)
#    0.000    0.889    1.111    2.667   18.667    0.889 
#    0.000    0.000    0.000    0.000    0.000    0.000 
#    0.000    0.000    0.000    0.000    0.000    0.000 
#
# Total GULP energy -100435.835424 kJ/mol
# GULP energy per Si atom -5579.768635 kJ/mol
# Density = 2.619400 g / cm^3
# Si number density = 26.253754 Si / 1000 Ang^3
#
#
#
# Elastic Constant Matrix: (Units=GPa)
#
#
# Indices 1 2 3 4 5 6 
#
# 1 115.3483 15.3590 4.8051 0.0002 2.1433 0.0000
# 2 15.3590 126.0285 37.4934 -0.0005 8.0401 0.0002
# 3 4.8051 37.4934 109.4529 -0.0010 -18.1774 0.0005
# 4 0.0002 -0.0005 -0.0010 40.5326 0.0003 -4.0634
# 5 2.1433 8.0401 -18.1774 0.0003 34.4472 -0.0001
# 6 0.0000 0.0002 0.0005 -4.0634 -0.0001 67.0732
#
#
#
# Elastic Compliance Matrix: (Units=1/GPa)
#
#
# Indices 1 2 3 4 5 6 
#
# 1 0.008816 -0.001023 -0.000097 0.000000 -0.000361 0.000000
# 2 -0.001023 0.009490 -0.003905 0.000000 -0.004212 0.000000
# 3 -0.000097 -0.003905 0.011652 0.000000 0.007066 0.000000
# 4 0.000000 0.000000 0.000000 0.024822 0.000000 0.001504
# 5 -0.000361 -0.004212 0.007066 0.000000 0.033764 0.000000
# 6 0.000000 0.000000 0.000000 0.001504 0.000000 0.015000
#
#
# Mechanical properties :
#
#
# Convention : Reuss Voigt Hill
#
# Bulk Modulus (GPa) = 50.22951 51.79386 51.01168
# Shear Modulus (GPa) = 41.58676 47.95541 44.77108
#
# Velocity S-wave (km/s) = 3.98431 4.27852 4.13403
# Velocity P-wave (km/s) = 6.35139 6.64671 6.50072
#
# Compressibility (1/GPa) = 0.01990862
#
# Stress axis : x y z
#
# Youngs Moduli (GPa) = 113.42632 105.37481 85.82273
#
# Poissons Ratio (x) = 0.10776 0.00830
# Poissons Ratio (y) = 0.11600 0.33518
# Poissons Ratio (z) = 0.01096 0.41154
#
# Static dielectric constant tensor:
#      x y z
#    x 2.152430 0.000000 0.107250 
#    y 0.000000 2.086830 0.000000 
#    z 0.107250 0.000000 2.096240 
# 
# From -- ./inp_files/247738.got.cif
#   From: 2010.05.17/outbox.cif.g08.bks.cpg/sg15_124_cif.got.tgz:247738.got - 2010.06.03 18:47:42.
