data_PCOD9306616
_publ_section_title
;
Structure prediction by ZEFSAII (Michael W. Deem and Ramdas Pophale) SiO2 
 PCOD9306616
Probable space group: C 2/C
;
_chemical_formula_sum "Si O2"
_cell_formula_units_Z 40
_cell_length_a 11.533764
_cell_length_b 14.793606
_cell_length_c 11.263328
_cell_angle_alpha 90.000000
_cell_angle_beta 82.350864
_cell_angle_gamma 90.000000
_cell_volume 1904.715365
_symmetry_space_group_name_H-M "C 2/C"
_symmetry_group_IT_number 15
_symmetry_cell_setting 'monoclinic'
loop_
_space_group_symop_operation_xyz
x,y,z
-x,y,1/2-z
-x,-y,-z
x,-y,1/2+z
1/2+x,1/2+y,z
1/2-x,1/2+y,1/2-z
1/2-x,1/2-y,-z
1/2+x,1/2-y,1/2+z
loop_
_atom_site_type_symbol
_atom_site_label
_atom_site_fract_x
_atom_site_fract_y
_atom_site_fract_z
Si Si1 0.233311 0.854922 0.984901
Si Si2 0.201592 0.295396 0.885539
Si Si3 0.371687 0.423623 0.715741
Si Si4 0.514625 0.929735 0.608251
Si Si5 0.860965 0.880394 0.251599
O O1 0.130752 0.869266 0.905432
O O2 0.352833 0.894615 0.917472
O O3 0.250000 0.750000 0.000000
O O4 0.198367 0.897341 0.113768
O O5 0.289778 0.369879 0.818839
O O6 0.077637 0.348584 0.905835
O O7 0.188029 0.210146 0.799501
O O8 0.250000 0.250000 0.000000
O O9 0.500000 0.429518 0.750000
O O10 0.335482 0.526167 0.687571
O O11 0.500000 0.960168 0.750000
O O12 0.500000 0.000000 0.500000
O O13 0.000000 0.868379 0.250000
#
# Coordination Sequence:
#
# PCOD9306616 Si02
#       5
#     8   8   8   8   8
#     4  12  24  46  74  99 144 187 238 295 359 430
#     4  12  27  45  72 107 146 185 243 301 361 436
#     4  11  27  45  69 105 139 184 241 288 361 423
#     4  12  27  49  76 109 150 194 246 302 368 437
#     4  11  26  46  73 102 143 189 235 296 365 426
#
# _framework density 21.000513999999999
#
# number of rings (size 3 to 8) (size 9 to 14) (size 15 to 20)
#    0.000    0.400    4.000    3.000   11.200    1.600 
#    0.000    0.000    0.000    0.000    0.000    0.000 
#    0.000    0.000    0.000    0.000    0.000    0.000 
#
# Total GULP energy -111754.826963 kJ/mol
# GULP energy per Si atom -5587.741348 kJ/mol
# Density = 2.095272 g / cm^3
# Si number density = 21.000514 Si / 1000 Ang^3
#
#
#
# Elastic Constant Matrix: (Units=GPa)
#
#
# Indices 1 2 3 4 5 6 
#
# 1 78.1469 26.2018 27.1575 0.0000 -2.4445 0.0000
# 2 26.2018 108.9960 24.8771 0.0000 3.5943 0.0000
# 3 27.1575 24.8771 114.5607 0.0000 6.8368 0.0000
# 4 0.0000 0.0000 0.0000 -103.2112 0.0000 -173.3850
# 5 -2.4445 3.5943 6.8368 0.0000 40.0182 0.0000
# 6 0.0000 0.0000 0.0000 -173.3850 0.0000 -194.0253
#
#
#
# Elastic Compliance Matrix: (Units=1/GPa)
#
#
# Indices 1 2 3 4 5 6 
#
# 1 0.014876 -0.002950 -0.002986 0.000000 0.001684 0.000000
# 2 -0.002950 0.010249 -0.001476 0.000000 -0.000849 0.000000
# 3 -0.002986 -0.001476 0.009861 0.000000 -0.001735 0.000000
# 4 0.000000 0.000000 0.000000 0.019331 0.000000 -0.017275
# 5 0.001684 -0.000849 -0.001735 0.000000 0.025464 0.000000
# 6 0.000000 0.000000 0.000000 -0.017275 0.000000 0.010283
#
#
# Mechanical properties :
#
#
# Convention : Reuss Voigt Hill
#
# Bulk Modulus (GPa) = 49.59913 50.90849 50.25381
# Shear Modulus (GPa) = 44.79945 -36.54584 4.12681
#
# Velocity S-wave (km/s) = 4.62373 -4.17614 1.40334
# Velocity P-wave (km/s) = 7.22319 1.02013 5.15825
#
# Compressibility (1/GPa) = 0.02016164
#
# Stress axis : x y z
#
# Youngs Moduli (GPa) = 67.22230 97.57462 101.41091
#
# Poissons Ratio (x) = 0.28785 0.30285
# Poissons Ratio (y) = 0.19831 0.14964
# Poissons Ratio (z) = 0.20075 0.14397
#
# Static dielectric constant tensor:
#      x y z
#    x 1.833780 0.000000 0.062580 
#    y 0.000000 1.699520 0.000000 
#    z 0.062580 0.000000 1.936710 
# 
# From -- ./inp_files/85486.got.cif
#   From: 2010.05.17/outbox.cif.g08.bks.cpg/sg15_43_cif.got.tgz:85486.got - 2010.06.03 18:47:42.
