data_PCOD9306292
_publ_section_title
;
Structure prediction by ZEFSAII (Michael W. Deem and Ramdas Pophale) SiO2 
 PCOD9306292
Probable space group: C 2/C
;
_chemical_formula_sum "Si O2"
_cell_formula_units_Z 32
_cell_length_a 6.157134
_cell_length_b 27.048170
_cell_length_c 7.649435
_cell_angle_alpha 90.000000
_cell_angle_beta 77.406028
_cell_angle_gamma 90.000000
_cell_volume 1243.279691
_symmetry_space_group_name_H-M "C 2/C"
_symmetry_group_IT_number 15
_symmetry_cell_setting 'monoclinic'
loop_
_space_group_symop_operation_xyz
x,y,z
-x,y,1/2-z
-x,-y,-z
x,-y,1/2+z
1/2+x,1/2+y,z
1/2-x,1/2+y,1/2-z
1/2-x,1/2-y,-z
1/2+x,1/2-y,1/2+z
loop_
_atom_site_type_symbol
_atom_site_label
_atom_site_fract_x
_atom_site_fract_y
_atom_site_fract_z
Si Si1 0.831859 0.967686 0.413613
Si Si2 0.686615 0.194048 0.057668
Si Si3 0.000000 0.366665 0.250000
Si Si4 0.622188 0.069241 0.436176
Si Si5 0.000000 0.140811 0.250000
O O1 0.646522 0.932481 0.529261
O O2 0.000000 0.943337 0.250000
O O3 0.688580 0.014024 0.367729
O O4 0.000000 0.000000 0.500000
O O5 0.500000 0.192247 0.250000
O O6 0.916307 0.172287 0.099134
O O7 0.750000 0.250000 0.000000
O O8 0.597530 0.166768 0.894204
O O9 0.848306 0.407389 0.375867
O O10 0.789472 0.105952 0.314969
#
# Coordination Sequence:
#
# PCOD9306292 Si02
#       5
#     8   8   4   8   4
#     4  11  25  46  74 108 168 220 280 351 410 494
#     4  12  30  54  83 125 170 222 283 363 444 524
#     4  12  27  50  84 120 168 222 300 338 433 528
#     4  11  26  47  75 121 159 225 284 342 425 494
#     4  12  27  52  86 122 176 220 286 362 423 540
#
# _framework density 25.738375000000001
#
# number of rings (size 3 to 8) (size 9 to 14) (size 15 to 20)
#    0.000    0.500    3.750    2.250    7.000    7.000 
#    0.000    0.000    0.000    0.000    0.000    0.000 
#    0.000    0.000    0.000    0.000    0.000    0.000 
#
# Total GULP energy -89129.090815 kJ/mol
# GULP energy per Si atom -5570.568176 kJ/mol
# Density = 2.567979 g / cm^3
# Si number density = 25.738375 Si / 1000 Ang^3
#
#
#
# Elastic Constant Matrix: (Units=GPa)
#
#
# Indices 1 2 3 4 5 6 
#
# 1 218.4658 85.5402 105.5001 0.0000 6.0232 0.0000
# 2 85.5402 159.2092 65.3240 0.0000 8.3931 0.0000
# 3 105.5001 65.3240 145.8436 0.0000 11.5070 0.0000
# 4 0.0000 0.0000 0.0000 52.8445 0.0000 3.7558
# 5 6.0232 8.3931 11.5070 0.0000 60.1610 0.0000
# 6 0.0000 0.0000 0.0000 3.7558 0.0000 44.3097
#
#
#
# Elastic Compliance Matrix: (Units=1/GPa)
#
#
# Indices 1 2 3 4 5 6 
#
# 1 0.007652 -0.002265 -0.004554 0.000000 0.000421 0.000000
# 2 -0.002265 0.008376 -0.002070 0.000000 -0.000546 0.000000
# 3 -0.004554 -0.002070 0.011188 0.000000 -0.001395 0.000000
# 4 0.000000 0.000000 0.000000 0.019038 0.000000 -0.001614
# 5 0.000421 -0.000546 -0.001395 0.000000 0.016923 0.000000
# 6 0.000000 0.000000 0.000000 -0.001614 0.000000 0.022705
#
#
# Mechanical properties :
#
#
# Convention : Reuss Voigt Hill
#
# Bulk Modulus (GPa) = 105.95428 115.13858 110.54643
# Shear Modulus (GPa) = 46.81376 49.27334 48.04355
#
# Velocity S-wave (km/s) = 4.26940 4.38012 4.32512
# Velocity P-wave (km/s) = 8.09685 8.39118 8.24533
#
# Compressibility (1/GPa) = 0.00943803
#
# Stress axis : x y z
#
# Youngs Moduli (GPa) = 130.69025 119.38688 89.38004
#
# Poissons Ratio (x) = 0.27039 0.40702
# Poissons Ratio (y) = 0.29599 0.18504
# Poissons Ratio (z) = 0.59514 0.24717
#
# Static dielectric constant tensor:
#      x y z
#    x 2.234290 0.000000 0.102900 
#    y 0.000000 2.051220 0.000000 
#    z 0.102900 0.000000 2.309980 
# 
# From -- ./inp_files/20193.got.cif
#   From: 2010.05.17/outbox.cif.g08.bks.cpg/sg15_11_cif.got.tgz:20193.got - 2010.06.03 18:47:42.
