data_PCOD9306082
_publ_section_title
;
Structure prediction by ZEFSAII (Michael W. Deem and Ramdas Pophale) SiO2 
 PCOD9306082
Probable space group: C 2/C
;
_chemical_formula_sum "Si O2"
_cell_formula_units_Z 32
_cell_length_a 21.688605
_cell_length_b 7.754100
_cell_length_c 13.946811
_cell_angle_alpha 90.000000
_cell_angle_beta 29.544307
_cell_angle_gamma 90.000000
_cell_volume 1156.564395
_symmetry_space_group_name_H-M "C 2/C"
_symmetry_group_IT_number 15
_symmetry_cell_setting 'monoclinic'
loop_
_space_group_symop_operation_xyz
x,y,z
-x,y,1/2-z
-x,-y,-z
x,-y,1/2+z
1/2+x,1/2+y,z
1/2-x,1/2+y,1/2-z
1/2-x,1/2-y,-z
1/2+x,1/2-y,1/2+z
loop_
_atom_site_type_symbol
_atom_site_label
_atom_site_fract_x
_atom_site_fract_y
_atom_site_fract_z
Si Si1 0.631106 0.391730 0.095412
Si Si2 0.039972 0.316788 0.399596
Si Si3 0.224409 0.317843 0.791183
Si Si4 0.336436 0.002884 0.939764
O O1 0.500000 0.471325 0.250000
O O2 0.718570 0.390661 0.884058
O O3 0.845782 0.748554 0.686856
O O4 0.695712 0.490077 0.093171
O O5 0.904909 0.219767 0.567611
O O6 0.885632 0.309395 0.854315
O O7 0.000000 0.500000 0.500000
O O8 0.095690 0.361515 0.219489
O O9 0.167464 0.453411 0.944168
#
# Coordination Sequence:
#
# PCOD9306082 Si02
#       4
#     8   8   8   8
#     4  11  25  44  70 105 148 201 247 306 374 447
#     4  12  25  50  75 110 153 194 248 314 378 446
#     4  12  26  45  80 106 148 197 252 305 381 446
#     4  11  25  46  71 105 150 196 247 308 376 448
#
# _framework density 27.668153
#
# number of rings (size 3 to 8) (size 9 to 14) (size 15 to 20)
#    0.000    0.500    2.500    6.000    3.500    3.000 
#    0.000    0.000    0.000    0.000    0.000    0.000 
#    0.000    0.000    0.000    0.000    0.000    0.000 
#
# Total GULP energy -89617.205153 kJ/mol
# GULP energy per Si atom -5601.075322 kJ/mol
# Density = 2.760518 g / cm^3
# Si number density = 27.668153 Si / 1000 Ang^3
#
#
#
# Elastic Constant Matrix: (Units=GPa)
#
#
# Indices 1 2 3 4 5 6 
#
# 1 227.8098 30.0438 70.2984 -0.0002 -42.0100 0.0001
# 2 30.0438 76.2043 14.4046 -0.0004 -0.2748 0.0003
# 3 70.2984 14.4046 78.3189 -0.0002 -17.1254 0.0002
# 4 -0.0002 -0.0004 -0.0002 25.0912 0.0002 9.2201
# 5 -42.0100 -0.2748 -17.1254 0.0002 95.2760 -0.0001
# 6 0.0001 0.0003 0.0002 9.2201 -0.0001 45.5305
#
#
#
# Elastic Compliance Matrix: (Units=1/GPa)
#
#
# Indices 1 2 3 4 5 6 
#
# 1 0.006554 -0.001602 -0.005160 0.000000 0.001958 0.000000
# 2 -0.001602 0.014003 -0.001336 0.000000 -0.000906 0.000000
# 3 -0.005160 -0.001336 0.017849 0.000000 0.000929 0.000000
# 4 0.000000 0.000000 0.000000 0.043059 0.000000 -0.008720
# 5 0.001958 -0.000906 0.000929 0.000000 0.011523 0.000000
# 6 0.000000 0.000000 0.000000 -0.008720 0.000000 0.023729
#
#
# Mechanical properties :
#
#
# Convention : Reuss Voigt Hill
#
# Bulk Modulus (GPa) = 45.02345 67.98075 56.50210
# Shear Modulus (GPa) = 35.63343 51.01863 43.32603
#
# Velocity S-wave (km/s) = 3.59261 4.29878 3.96146
# Velocity P-wave (km/s) = 5.78939 7.01874 6.43350
#
# Compressibility (1/GPa) = 0.02221065
#
# Stress axis : x y z
#
# Youngs Moduli (GPa) = 152.57174 71.41164 56.02509
#
# Poissons Ratio (x) = 0.11437 0.28911
# Poissons Ratio (y) = 0.24435 0.07486
# Poissons Ratio (z) = 0.78733 0.09541
#
# Static dielectric constant tensor:
#      x y z
#    x 2.175260 0.000000 -0.107120 
#    y 0.000000 2.250350 0.000000 
#    z -0.107120 0.000000 2.078520 
# 
# From -- ./inp_files/111333.got.cif
#   From: 2010.05.17/outbox.cif.g08.bks.cpg/sg15_56_cif.got.tgz:111333.got - 2010.06.03 18:47:42.
