data_PCOD9306834
_publ_section_title
;
Structure prediction by ZEFSAII (Michael W. Deem and Ramdas Pophale) SiO2 
 PCOD9306834
Probable space group: C 2/C
;
_chemical_formula_sum "Si O2"
_cell_formula_units_Z 48
_cell_length_a 25.218474
_cell_length_b 11.056633
_cell_length_c 16.317142
_cell_angle_alpha 90.000000
_cell_angle_beta 27.413232
_cell_angle_gamma 90.000000
_cell_volume 2094.718361
_symmetry_space_group_name_H-M "C 2/C"
_symmetry_group_IT_number 15
_symmetry_cell_setting 'monoclinic'
loop_
_space_group_symop_operation_xyz
x,y,z
-x,y,1/2-z
-x,-y,-z
x,-y,1/2+z
1/2+x,1/2+y,z
1/2-x,1/2+y,1/2-z
1/2-x,1/2-y,-z
1/2+x,1/2-y,1/2+z
loop_
_atom_site_type_symbol
_atom_site_label
_atom_site_fract_x
_atom_site_fract_y
_atom_site_fract_z
Si Si1 0.500000 0.337597 0.250000
Si Si2 0.672943 0.930021 0.731988
Si Si3 0.559316 0.530236 0.830536
Si Si4 0.215853 0.314330 0.428528
Si Si5 0.500000 0.185796 0.750000
Si Si6 0.960915 0.477750 0.928440
Si Si7 0.179727 0.854032 0.551210
O O1 0.223555 0.303431 0.693615
O O2 0.515134 0.409544 0.142391
O O3 0.574583 0.905350 0.799055
O O4 0.757179 0.031562 0.577121
O O5 0.607226 0.988411 0.897160
O O6 0.677430 0.607868 0.682785
O O7 0.599439 0.407388 0.732488
O O8 0.500000 0.500000 0.000000
O O9 0.007400 0.594686 0.816223
O O10 0.114061 0.239489 0.613327
O O11 0.133778 0.406228 0.493072
O O12 0.605438 0.275933 0.590028
O O13 0.250000 0.750000 0.500000
#
# Coordination Sequence:
#
# PCOD9306834 Si02
#       7
#     4   8   8   8   4   8   8
#     4  12  26  50  78 114 162 202 262 340 394 480
#     4  11  27  50  74 115 156 209 264 340 397 474
#     4  12  30  50  79 120 156 214 267 332 404 477
#     4  12  27  46  83 110 160 203 273 326 411 477
#     4  12  26  48  76 110 154 210 254 326 394 484
#     4  11  27  48  78 113 156 209 265 327 413 473
#     4  12  26  47  75 107 156 200 263 318 394 477
#
# _framework density 22.914774999999999
#
# number of rings (size 3 to 8) (size 9 to 14) (size 15 to 20)
#    0.000    0.333    3.333    3.500    9.333    1.333 
#    0.000    0.000    0.000    0.000    0.000    0.000 
#    0.000    0.000    0.000    0.000    0.000    0.000 
#
# Total GULP energy -133796.183647 kJ/mol
# GULP energy per Si atom -5574.840985 kJ/mol
# Density = 2.286262 g / cm^3
# Si number density = 22.914775 Si / 1000 Ang^3
#
#
#
# Elastic Constant Matrix: (Units=GPa)
#
#
# Indices 1 2 3 4 5 6 
#
# 1 95.5622 43.7526 41.3811 0.0000 -0.2948 0.0000
# 2 43.7526 114.9479 33.9488 0.0000 -4.4833 0.0000
# 3 41.3811 33.9488 93.7998 0.0000 13.7633 0.0000
# 4 0.0000 0.0000 0.0000 133.6884 0.0000 102.4089
# 5 -0.2948 -4.4833 13.7633 0.0000 52.1126 0.0000
# 6 0.0000 0.0000 0.0000 102.4089 0.0000 159.1767
#
#
#
# Elastic Compliance Matrix: (Units=1/GPa)
#
#
# Indices 1 2 3 4 5 6 
#
# 1 0.014501 -0.003964 -0.005123 0.000000 0.001094 0.000000
# 2 -0.003964 0.010997 -0.002462 0.000000 0.001574 0.000000
# 3 -0.005123 -0.002462 0.014406 0.000000 -0.004046 0.000000
# 4 0.000000 0.000000 0.000000 0.014749 0.000000 -0.009489
# 5 0.001094 0.001574 -0.004046 0.000000 0.020399 0.000000
# 6 0.000000 0.000000 0.000000 -0.009489 0.000000 0.012387
#
#
# Mechanical properties :
#
#
# Convention : Reuss Voigt Hill
#
# Bulk Modulus (GPa) = 59.50551 60.27500 59.89025
# Shear Modulus (GPa) = 43.05150 81.34402 62.19776
#
# Velocity S-wave (km/s) = 4.33918 5.96453 5.21555
# Velocity P-wave (km/s) = 7.15047 8.59041 7.90330
#
# Compressibility (1/GPa) = 0.01680517
#
# Stress axis : x y z
#
# Youngs Moduli (GPa) = 68.96042 90.93430 69.41534
#
# Poissons Ratio (x) = 0.36044 0.35564
# Poissons Ratio (y) = 0.27334 0.17093
# Poissons Ratio (z) = 0.35331 0.22392
#
# Static dielectric constant tensor:
#      x y z
#    x 1.988430 0.000000 -0.033140 
#    y 0.000000 1.833860 0.000000 
#    z -0.033140 0.000000 1.929430 
# 
# From -- ./inp_files/225619.got.cif
#   From: 2010.05.17/outbox.cif.g08.bks.cpg/sg15_113_cif.got.tgz:225619.got - 2010.06.03 18:47:42.
