data_PCOD9306402
_publ_section_title
;
Structure prediction by ZEFSAII (Michael W. Deem and Ramdas Pophale) SiO2 
 PCOD9306402
Probable space group: C 2/C
;
_chemical_formula_sum "Si O2"
_cell_formula_units_Z 48
_cell_length_a 9.092211
_cell_length_b 10.425450
_cell_length_c 23.944938
_cell_angle_alpha 90.000000
_cell_angle_beta 93.749052
_cell_angle_gamma 90.000000
_cell_volume 2264.892786
_symmetry_space_group_name_H-M "C 2/C"
_symmetry_group_IT_number 15
_symmetry_cell_setting 'monoclinic'
loop_
_space_group_symop_operation_xyz
x,y,z
-x,y,1/2-z
-x,-y,-z
x,-y,1/2+z
1/2+x,1/2+y,z
1/2-x,1/2+y,1/2-z
1/2-x,1/2-y,-z
1/2+x,1/2-y,1/2+z
loop_
_atom_site_type_symbol
_atom_site_label
_atom_site_fract_x
_atom_site_fract_y
_atom_site_fract_z
Si Si1 0.665584 0.729389 0.599857
Si Si2 0.491858 0.708511 0.101013
Si Si3 0.143840 0.019621 0.040836
Si Si4 0.857384 0.210472 0.285055
Si Si5 0.648851 0.587785 0.717657
Si Si6 0.940576 0.640276 0.011467
O O1 0.818604 0.807285 0.608501
O O2 0.709848 0.617526 0.557089
O O3 0.630183 0.663060 0.658059
O O4 0.529622 0.801852 0.566760
O O5 0.572139 0.573636 0.095132
O O6 0.579557 0.766304 0.154987
O O7 0.524695 0.777960 0.043123
O O8 0.268604 0.113161 0.020166
O O9 0.000000 0.000000 0.000000
O O10 0.753840 0.316806 0.255140
O O11 0.000000 0.198641 0.250000
O O12 0.797429 0.062032 0.287554
O O13 0.500000 0.581808 0.750000
O O14 0.000000 0.500000 0.000000
#
# Coordination Sequence:
#
# PCOD9306402 Si02
#       6
#     8   8   8   8   8   8
#     4  12  25  46  70 101 142 182 231 292 348 421
#     4  12  24  45  72  98 139 186 230 285 351 421
#     4  12  25  44  70 101 144 182 231 281 351 420
#     4  11  25  48  71 101 137 187 236 291 356 412
#     4  11  27  46  72 104 138 183 240 292 348 422
#     4  12  26  43  69 109 141 183 230 286 354 419
#
# _framework density 21.193055999999999
#
# number of rings (size 3 to 8) (size 9 to 14) (size 15 to 20)
#    0.000    0.333    6.667    2.000    2.333    2.000 
#    0.000    0.000    0.000    0.000    0.000    0.000 
#    0.000    0.000    0.000    0.000    0.000    0.000 
#
# Total GULP energy -133834.651517 kJ/mol
# GULP energy per Si atom -5576.443813 kJ/mol
# Density = 2.114482 g / cm^3
# Si number density = 21.193056 Si / 1000 Ang^3
#
#
#
# Elastic Constant Matrix: (Units=GPa)
#
#
# Indices 1 2 3 4 5 6 
#
# 1 130.6050 45.1064 43.9417 0.0000 10.1035 0.0000
# 2 45.1064 75.8490 17.5503 0.0000 17.6908 0.0000
# 3 43.9417 17.5503 130.8544 0.0000 30.4084 0.0000
# 4 0.0000 0.0000 0.0000 29.8623 0.0000 12.6166
# 5 10.1035 17.6908 30.4084 0.0000 31.3683 0.0000
# 6 0.0000 0.0000 0.0000 12.6166 0.0000 0.6565
#
#
#
# Elastic Compliance Matrix: (Units=1/GPa)
#
#
# Indices 1 2 3 4 5 6 
#
# 1 0.010819 -0.006450 -0.003619 0.000000 0.003661 0.000000
# 2 -0.006450 0.019027 0.002097 0.000000 -0.010686 0.000000
# 3 -0.003619 0.002097 0.011075 0.000000 -0.010753 0.000000
# 4 0.000000 0.000000 0.000000 -0.004704 0.000000 0.090395
# 5 0.003661 -0.010686 -0.010753 0.000000 0.047151 0.000000
# 6 0.000000 0.000000 0.000000 0.090395 0.000000 -0.213955
#
#
# Mechanical properties :
#
#
# Convention : Reuss Voigt Hill
#
# Bulk Modulus (GPa) = 40.03576 61.16724 50.60150
# Shear Modulus (GPa) = -47.02833 27.75810 -9.63511
#
# Velocity S-wave (km/s) = -4.71578 3.62301 -2.13453
# Velocity P-wave (km/s) = 3.27406 6.81367 4.22532
#
# Compressibility (1/GPa) = 0.02497767
#
# Stress axis : x y z
#
# Youngs Moduli (GPa) = 92.43311 52.55652 90.29514
#
# Poissons Ratio (x) = 0.33901 0.32674
# Poissons Ratio (y) = 0.59622 -0.18939
# Poissons Ratio (z) = 0.33448 -0.11024
#
# Static dielectric constant tensor:
#      x y z
#    x 1.781960 0.000000 -0.016510 
#    y 0.000000 1.913490 0.000000 
#    z -0.016510 0.000000 1.883180 
# 
# From -- ./inp_files/263249.got.cif
#   From: 2010.05.17/outbox.cif.g08.bks.cpg/sg15_132_cif.got.tgz:263249.got - 2010.06.03 18:47:42.
