data_PCOD9306895
_publ_section_title
;
Structure prediction by ZEFSAII (Michael W. Deem and Ramdas Pophale) SiO2 
 PCOD9306895
Probable space group: C 2/C
;
_chemical_formula_sum "Si O2"
_cell_formula_units_Z 24
_cell_length_a 4.900948
_cell_length_b 18.434820
_cell_length_c 11.701685
_cell_angle_alpha 90.000000
_cell_angle_beta 113.190246
_cell_angle_gamma 90.000000
_cell_volume 971.803691
_symmetry_space_group_name_H-M "C 2/C"
_symmetry_group_IT_number 15
_symmetry_cell_setting 'monoclinic'
loop_
_space_group_symop_operation_xyz
x,y,z
-x,y,1/2-z
-x,-y,-z
x,-y,1/2+z
1/2+x,1/2+y,z
1/2-x,1/2+y,1/2-z
1/2-x,1/2-y,-z
1/2+x,1/2-y,1/2+z
loop_
_atom_site_type_symbol
_atom_site_label
_atom_site_fract_x
_atom_site_fract_y
_atom_site_fract_z
Si Si1 0.822767 0.230589 0.836636
Si Si2 0.420908 0.363707 0.558169
Si Si3 0.500000 0.000000 0.500000
Si Si4 0.500000 0.940221 0.750000
O O1 0.500000 0.199434 0.750000
O O2 0.989773 0.176995 0.950569
O O3 0.000000 0.241216 0.750000
O O4 0.748150 0.304351 0.892656
O O5 0.216922 0.432364 0.501236
O O6 0.280947 0.392260 0.834900
O O7 0.422167 0.014945 0.350193
#
# Coordination Sequence:
#
# PCOD9306895 Si02
#       4
#     8   8   4   4
#     4  11  28  53  86 124 167 222 288 350 426 518
#     4  11  29  51  86 122 170 221 288 353 429 509
#     4  12  28  50  82 120 166 224 280 348 426 506
#     4  12  28  54  80 124 168 226 274 362 426 514
#
# _framework density 24.696345999999998
#
# number of rings (size 3 to 8) (size 9 to 14) (size 15 to 20)
#    0.000    0.667    0.000    4.000   16.333    2.667 
#    0.000    0.000    7.333    0.000    0.000    0.000 
#    0.000    0.000    0.000    0.000    0.000    0.000 
#
# Total GULP energy -66839.235925 kJ/mol
# GULP energy per Si atom -5569.936327 kJ/mol
# Density = 2.464014 g / cm^3
# Si number density = 24.696346 Si / 1000 Ang^3
#
#
#
# Elastic Constant Matrix: (Units=GPa)
#
#
# Indices 1 2 3 4 5 6 
#
# 1 119.8831 75.4140 77.1277 0.0000 25.0676 0.0000
# 2 75.4140 111.7233 71.6709 0.0000 44.4909 0.0000
# 3 77.1277 71.6709 215.8276 0.0000 11.0909 0.0000
# 4 0.0000 0.0000 0.0000 65.7588 0.0000 52.1876
# 5 25.0676 44.4909 11.0909 0.0000 56.5207 0.0000
# 6 0.0000 0.0000 0.0000 52.1876 0.0000 38.2803
#
#
#
# Elastic Compliance Matrix: (Units=1/GPa)
#
#
# Indices 1 2 3 4 5 6 
#
# 1 0.015624 -0.009244 -0.002557 0.000000 0.000849 0.000000
# 2 -0.009244 0.022663 -0.003552 0.000000 -0.013043 0.000000
# 3 -0.002557 -0.003552 0.006591 0.000000 0.002637 0.000000
# 4 0.000000 0.000000 0.000000 -0.185577 0.000000 0.252997
# 5 0.000849 -0.013043 0.002637 0.000000 0.027065 0.000000
# 6 0.000000 0.000000 0.000000 0.252997 0.000000 -0.318788
#
#
# Mechanical properties :
#
#
# Convention : Reuss Voigt Hill
#
# Bulk Modulus (GPa) = 70.56363 99.53992 85.05177
# Shear Modulus (GPa) = -12.59478 46.99339 17.19930
#
# Velocity S-wave (km/s) = -2.26074 4.36690 2.64186
# Velocity P-wave (km/s) = 4.67118 8.11292 6.61964
#
# Compressibility (1/GPa) = 0.01417161
#
# Stress axis : x y z
#
# Youngs Moduli (GPa) = 64.00271 44.12472 151.71447
#
# Poissons Ratio (x) = 0.40789 0.38800
# Poissons Ratio (y) = 0.59164 0.53892
# Poissons Ratio (z) = 0.16368 0.15674
#
# Static dielectric constant tensor:
#      x y z
#    x 1.998520 0.000000 -0.033650 
#    y 0.000000 1.976910 0.000000 
#    z -0.033650 0.000000 1.952140 
# 
# From -- ./inp_files/72022.got.cif
#   From: 2010.05.17/outbox.cif.g08.bks.cpg/sg15_37_cif.got.tgz:72022.got - 2010.06.03 18:47:42.
