data_PCOD9306577
_publ_section_title
;
Structure prediction by ZEFSAII (Michael W. Deem and Ramdas Pophale) SiO2 
 PCOD9306577
Probable space group: C 2/C
;
_chemical_formula_sum "Si O2"
_cell_formula_units_Z 32
_cell_length_a 26.577956
_cell_length_b 4.915180
_cell_length_c 10.237082
_cell_angle_alpha 90.000000
_cell_angle_beta 79.785164
_cell_angle_gamma 90.000000
_cell_volume 1316.128704
_symmetry_space_group_name_H-M "C 2/C"
_symmetry_group_IT_number 15
_symmetry_cell_setting 'monoclinic'
loop_
_space_group_symop_operation_xyz
x,y,z
-x,y,1/2-z
-x,-y,-z
x,-y,1/2+z
1/2+x,1/2+y,z
1/2-x,1/2+y,1/2-z
1/2-x,1/2-y,-z
1/2+x,1/2-y,1/2+z
loop_
_atom_site_type_symbol
_atom_site_label
_atom_site_fract_x
_atom_site_fract_y
_atom_site_fract_z
Si Si1 0.988906 0.291473 0.620140
Si Si2 0.084670 0.061751 0.018838
Si Si3 0.215954 0.673673 0.271368
Si Si4 0.151342 0.545175 0.043725
O O1 0.031516 0.054590 0.598636
O O2 0.000000 0.436239 0.750000
O O3 0.000000 0.500000 0.500000
O O4 0.932773 0.173073 0.615861
O O5 0.123538 0.811974 0.000394
O O6 0.109141 0.311168 0.084927
O O7 0.266073 0.484627 0.232454
O O8 0.180878 0.619171 0.161823
O O9 0.188564 0.581281 0.416939
#
# Coordination Sequence:
#
# PCOD9306577 Si02
#       4
#     8   8   8   8
#     4  11  26  47  74 104 157 191 240 296 356 423
#     4  11  26  45  68 111 140 193 234 291 348 415
#     4  12  26  48  72 103 140 183 230 300 370 420
#     4  12  26  44  76 103 142 181 246 290 350 440
#
# _framework density 24.313731000000001
#
# number of rings (size 3 to 8) (size 9 to 14) (size 15 to 20)
#    0.000    0.500    2.500    4.500    7.000    4.000 
#    0.000    0.000    0.000    0.000    0.000    0.000 
#    0.000    0.000    0.000    0.000    0.000    0.000 
#
# Total GULP energy -89676.420480 kJ/mol
# GULP energy per Si atom -5604.776280 kJ/mol
# Density = 2.425839 g / cm^3
# Si number density = 24.313731 Si / 1000 Ang^3
#
#
#
# Elastic Constant Matrix: (Units=GPa)
#
#
# Indices 1 2 3 4 5 6 
#
# 1 93.2831 20.4018 24.0377 0.0000 17.2467 0.0000
# 2 20.4018 110.6320 4.8416 0.0000 6.5176 0.0000
# 3 24.0377 4.8416 107.2157 0.0000 22.0369 0.0000
# 4 0.0000 0.0000 0.0000 21.8432 0.0000 -20.5760
# 5 17.2467 6.5176 22.0369 0.0000 34.3437 0.0000
# 6 0.0000 0.0000 0.0000 -20.5760 0.0000 -90.9988
#
#
#
# Elastic Compliance Matrix: (Units=1/GPa)
#
#
# Indices 1 2 3 4 5 6 
#
# 1 0.012475 -0.001943 -0.001725 0.000000 -0.004789 0.000000
# 2 -0.001943 0.009444 0.000204 0.000000 -0.000947 0.000000
# 3 -0.001725 0.000204 0.010983 0.000000 -0.006220 0.000000
# 4 0.000000 0.000000 0.000000 0.037742 0.000000 -0.008534
# 5 -0.004789 -0.000947 -0.006220 0.000000 0.035693 0.000000
# 6 0.000000 0.000000 0.000000 -0.008534 0.000000 -0.009060
#
#
# Mechanical properties :
#
#
# Convention : Reuss Voigt Hill
#
# Bulk Modulus (GPa) = 38.49954 45.52145 42.01050
# Shear Modulus (GPa) = 44.30131 10.49424 27.39778
#
# Velocity S-wave (km/s) = 4.27320 2.07980 3.36049
# Velocity P-wave (km/s) = 6.34160 4.95283 5.68975
#
# Compressibility (1/GPa) = 0.02597433
#
# Stress axis : x y z
#
# Youngs Moduli (GPa) = 80.16104 105.88556 91.05072
#
# Poissons Ratio (x) = 0.20572 0.15704
# Poissons Ratio (y) = 0.15574 -0.01856
# Poissons Ratio (z) = 0.13826 -0.02158
#
# Static dielectric constant tensor:
#      x y z
#    x 1.948460 0.000000 -0.034850 
#    y 0.000000 1.914040 0.000000 
#    z -0.034850 0.000000 2.027330 
# 
# From -- ./inp_files/67874.got.cif
#   From: 2010.05.17/outbox.cif.g08.bks.cpg/sg15_34_cif.got.tgz:67874.got - 2010.06.03 18:47:42.
