data_PCOD9307055
_publ_section_title
;
Structure prediction by ZEFSAII (Michael W. Deem and Ramdas Pophale) SiO2 
 PCOD9307055
Probable space group: C 2/C
;
_chemical_formula_sum "Si O2"
_cell_formula_units_Z 36
_cell_length_a 14.144208
_cell_length_b 13.634552
_cell_length_c 18.642943
_cell_angle_alpha 90.000000
_cell_angle_beta 20.883194
_cell_angle_gamma 90.000000
_cell_volume 1281.591475
_symmetry_space_group_name_H-M "C 2/C"
_symmetry_group_IT_number 15
_symmetry_cell_setting 'monoclinic'
loop_
_space_group_symop_operation_xyz
x,y,z
-x,y,1/2-z
-x,-y,-z
x,-y,1/2+z
1/2+x,1/2+y,z
1/2-x,1/2+y,1/2-z
1/2-x,1/2-y,-z
1/2+x,1/2-y,1/2+z
loop_
_atom_site_type_symbol
_atom_site_label
_atom_site_fract_x
_atom_site_fract_y
_atom_site_fract_z
Si Si1 0.006190 0.285548 0.624630
Si Si2 0.726603 0.249205 0.443893
Si Si3 0.500000 0.073235 0.250000
Si Si4 0.613264 0.112848 0.900350
Si Si5 0.993626 0.039702 0.423865
O O1 0.250000 0.250000 0.500000
O O2 0.082047 0.350837 0.503659
O O3 0.884038 0.359992 0.768939
O O4 0.842767 0.192158 0.715190
O O5 0.031301 0.259082 0.168316
O O6 0.626260 0.147887 0.480659
O O7 0.568743 0.345240 0.530111
O O8 0.254660 0.004664 0.444799
O O9 0.742404 0.006214 0.798417
O O10 0.000000 0.000000 0.500000
#
# Coordination Sequence:
#
# PCOD9307055 Si02
#       5
#     8   8   4   8   8
#     4  12  21  41  70 115 158 196 257 338 392 457
#     4  12  27  53  77 112 159 207 257 327 396 469
#     4  12  24  42  76 106 154 202 264 322 394 468
#     4  12  25  46  80 113 157 207 265 323 396 475
#     4  12  26  48  77 109 153 212 263 315 394 478
#
# _framework density 28.090074999999999
#
# number of rings (size 3 to 8) (size 9 to 14) (size 15 to 20)
#    0.000    0.000    5.556    5.333    0.000    0.000 
#    4.000    5.556    0.000    0.000    0.000    0.000 
#    0.000    0.000    0.000    0.000    0.000    0.000 
#
# Total GULP energy -100774.497201 kJ/mol
# GULP energy per Si atom -5598.583178 kJ/mol
# Density = 2.802614 g / cm^3
# Si number density = 28.090075 Si / 1000 Ang^3
#
#
#
# Elastic Constant Matrix: (Units=GPa)
#
#
# Indices 1 2 3 4 5 6 
#
# 1 161.6577 67.6708 41.8936 -0.0263 19.4045 0.0217
# 2 67.6708 169.6549 19.3524 -0.0684 0.6157 0.0404
# 3 41.8936 19.3524 131.3248 -0.1439 6.3882 0.0886
# 4 -0.0263 -0.0684 -0.1439 48.5635 0.0334 -7.0624
# 5 19.4045 0.6157 6.3882 0.0334 72.7637 -0.0060
# 6 0.0217 0.0404 0.0886 -7.0624 -0.0060 51.6047
#
#
#
# Elastic Compliance Matrix: (Units=1/GPa)
#
#
# Indices 1 2 3 4 5 6 
#
# 1 0.008237 -0.003041 -0.002083 -0.000004 -0.001988 0.000002
# 2 -0.003041 0.007118 -0.000116 0.000007 0.000761 -0.000003
# 3 -0.002083 -0.000116 0.008305 0.000022 -0.000173 -0.000010
# 4 -0.000004 0.000007 0.000022 0.021010 -0.000010 0.002875
# 5 -0.001988 0.000761 -0.000173 -0.000010 0.014282 0.000001
# 6 0.000002 -0.000003 -0.000010 0.002875 0.000001 0.019772
#
#
# Mechanical properties :
#
#
# Convention : Reuss Voigt Hill
#
# Bulk Modulus (GPa) = 75.87009 80.05234 77.96121
# Shear Modulus (GPa) = 53.42126 56.83441 55.12783
#
# Velocity S-wave (km/s) = 4.36568 4.50298 4.43486
# Velocity P-wave (km/s) = 7.24433 7.45628 7.35107
#
# Compressibility (1/GPa) = 0.01318042
#
# Stress axis : x y z
#
# Youngs Moduli (GPa) = 121.39984 140.49542 120.41402
#
# Poissons Ratio (x) = 0.42722 0.25082
# Poissons Ratio (y) = 0.36915 0.01395
# Poissons Ratio (z) = 0.25287 0.01628
#
# Static dielectric constant tensor:
#      x y z
#    x 1.762300 -0.000500 -0.805180 
#    y -0.000500 2.245320 -0.000910 
#    z -0.805180 -0.000910 -0.287500 
# 
# From -- ./inp_files/215537.got.cif
#   From: 2010.05.17/outbox.cif.g08.bks.cpg/sg15_108_cif.got.tgz:215537.got - 2010.06.03 18:47:42.
