data_PCOD9307279
_publ_section_title
;
Structure prediction by ZEFSAII (Michael W. Deem and Ramdas Pophale) SiO2 
 PCOD9307279
Probable space group: C 2/C
;
_chemical_formula_sum "Si O2"
_cell_formula_units_Z 40
_cell_length_a 9.001109
_cell_length_b 20.166707
_cell_length_c 8.889390
_cell_angle_alpha 90.000000
_cell_angle_beta 111.063858
_cell_angle_gamma 90.000000
_cell_volume 1505.804512
_symmetry_space_group_name_H-M "C 2/C"
_symmetry_group_IT_number 15
_symmetry_cell_setting 'monoclinic'
loop_
_space_group_symop_operation_xyz
x,y,z
-x,y,1/2-z
-x,-y,-z
x,-y,1/2+z
1/2+x,1/2+y,z
1/2-x,1/2+y,1/2-z
1/2-x,1/2-y,-z
1/2+x,1/2-y,1/2+z
loop_
_atom_site_type_symbol
_atom_site_label
_atom_site_fract_x
_atom_site_fract_y
_atom_site_fract_z
Si Si1 0.744258 0.898769 0.351679
Si Si2 0.000000 0.703330 0.750000
Si Si3 0.890687 0.533074 0.088137
Si Si4 0.890469 0.130411 0.521547
Si Si5 0.770102 0.819210 0.663968
Si Si6 0.000000 0.248139 0.750000
O O1 0.623068 0.849211 0.220548
O O2 0.732622 0.869126 0.517054
O O3 0.930525 0.895223 0.383777
O O4 0.685154 0.973119 0.343048
O O5 0.123268 0.757863 0.858213
O O6 0.000000 0.570731 0.250000
O O7 0.745632 0.578654 0.980668
O O8 0.000000 0.500000 0.000000
O O9 0.862163 0.144484 0.334418
O O10 0.890685 0.200524 0.606996
O O11 0.612621 0.789554 0.682518
#
# Coordination Sequence:
#
# PCOD9307279 Si02
#       6
#     8   4   8   8   8   4
#     4  12  25  49  77 105 148 200 249 312 372 453
#     4  12  22  44  76 110 148 188 246 300 386 448
#     4  12  30  51  77 108 150 201 260 319 372 447
#     4  12  27  49  73 109 149 199 251 306 377 448
#     4  12  25  46  76 112 152 193 246 309 383 454
#     4  12  28  44  76 114 156 192 242 316 374 466
#
# _framework density 26.563872
#
# number of rings (size 3 to 8) (size 9 to 14) (size 15 to 20)
#    0.000    0.000    5.000    4.200    9.800    0.000 
#    3.600    0.000    0.000    0.000    0.000    0.000 
#    0.000    0.000    0.000    0.000    0.000    0.000 
#
# Total GULP energy -112092.885416 kJ/mol
# GULP energy per Si atom -5604.644271 kJ/mol
# Density = 2.650341 g / cm^3
# Si number density = 26.563872 Si / 1000 Ang^3
#
#
#
# Elastic Constant Matrix: (Units=GPa)
#
#
# Indices 1 2 3 4 5 6 
#
# 1 212.5814 58.9483 62.7479 0.0000 29.3073 0.0000
# 2 58.9483 115.2689 28.5572 0.0000 25.1540 0.0000
# 3 62.7479 28.5572 121.1997 0.0000 20.7890 0.0000
# 4 0.0000 0.0000 0.0000 34.8748 0.0000 17.3644
# 5 29.3073 25.1540 20.7890 0.0000 55.9363 0.0000
# 6 0.0000 0.0000 0.0000 17.3644 0.0000 68.0640
#
#
#
# Elastic Compliance Matrix: (Units=1/GPa)
#
#
# Indices 1 2 3 4 5 6 
#
# 1 0.006252 -0.002297 -0.002468 0.000000 -0.001326 0.000000
# 2 -0.002297 0.010773 -0.000774 0.000000 -0.003354 0.000000
# 3 -0.002468 -0.000774 0.010072 0.000000 -0.002102 0.000000
# 4 0.000000 0.000000 0.000000 0.032846 0.000000 -0.008380
# 5 -0.001326 -0.003354 -0.002102 0.000000 0.020861 0.000000
# 6 0.000000 0.000000 0.000000 -0.008380 0.000000 0.016830
#
#
# Mechanical properties :
#
#
# Convention : Reuss Voigt Hill
#
# Bulk Modulus (GPa) = 62.42570 83.28410 72.85490
# Shear Modulus (GPa) = 43.83920 51.69480 47.76700
#
# Velocity S-wave (km/s) = 4.06683 4.41620 4.24511
# Velocity P-wave (km/s) = 6.75303 7.57788 7.17731
#
# Compressibility (1/GPa) = 0.01601904
#
# Stress axis : x y z
#
# Youngs Moduli (GPa) = 159.94138 92.82043 99.28765
#
# Poissons Ratio (x) = 0.21317 0.24509
# Poissons Ratio (y) = 0.36732 0.07687
# Poissons Ratio (z) = 0.39481 0.07186
#
# Static dielectric constant tensor:
#      x y z
#    x 2.097760 0.000000 -0.014780 
#    y 0.000000 2.004780 0.000000 
#    z -0.014780 0.000000 2.166990 
# 
# From -- ./inp_files/79553.got.cif
#   From: 2010.05.17/outbox.cif.g08.bks.cpg/sg15_40_cif.got.tgz:79553.got - 2010.06.03 18:47:42.
