data_PCOD9307032
_publ_section_title
;
Structure prediction by ZEFSAII (Michael W. Deem and Ramdas Pophale) SiO2 
 PCOD9307032
Probable space group: C 2/C
;
_chemical_formula_sum "Si O2"
_cell_formula_units_Z 60
_cell_length_a 19.479583
_cell_length_b 7.697755
_cell_length_c 22.317316
_cell_angle_alpha 90.000000
_cell_angle_beta 42.069514
_cell_angle_gamma 90.000000
_cell_volume 2242.234727
_symmetry_space_group_name_H-M "C 2/C"
_symmetry_group_IT_number 15
_symmetry_cell_setting 'monoclinic'
loop_
_space_group_symop_operation_xyz
x,y,z
-x,y,1/2-z
-x,-y,-z
x,-y,1/2+z
1/2+x,1/2+y,z
1/2-x,1/2+y,1/2-z
1/2-x,1/2-y,-z
1/2+x,1/2-y,1/2+z
loop_
_atom_site_type_symbol
_atom_site_label
_atom_site_fract_x
_atom_site_fract_y
_atom_site_fract_z
Si Si1 0.723145 0.508413 0.270891
Si Si2 0.527103 0.660793 0.354550
Si Si3 0.000000 0.848429 0.750000
Si Si4 0.288688 0.311618 0.347502
Si Si5 0.929566 0.558749 0.193442
Si Si6 0.281981 0.650693 0.418637
Si Si7 0.952398 0.336438 0.989336
Si Si8 0.875743 0.838665 0.054499
O O1 0.633657 0.648191 0.320153
O O2 0.705682 0.398326 0.222467
O O3 0.839944 0.563714 0.200208
O O4 0.702275 0.428231 0.349626
O O5 0.519429 0.550459 0.299117
O O6 0.431863 0.606734 0.456802
O O7 0.531007 0.859832 0.328284
O O8 0.110428 0.761063 0.668305
O O9 0.373217 0.156490 0.285381
O O10 0.304759 0.445816 0.392637
O O11 0.165619 0.278383 0.429849
O O12 0.023016 0.643873 0.096873
O O13 0.250000 0.750000 0.500000
O O14 0.193038 0.681857 0.427338
O O15 0.026759 0.191246 0.966975
O O16 0.000000 0.500000 0.000000
#
# Coordination Sequence:
#
# PCOD9307032 Si02
#       8
#     8   8   4   8   8   8   8   8
#     4  12  23  39  70 115 155 193 249 327 394 455
#     4  12  25  44  71 106 148 204 255 312 394 468
#     4  12  26  46  74 102 140 206 266 304 382 472
#     4  12  25  43  71 113 153 204 255 321 394 470
#     4  12  24  42  70 106 156 200 247 318 399 467
#     4  12  25  47  75 108 153 205 263 319 379 474
#     4  12  21  38  71 110 158 193 242 315 406 465
#     4  12  23  42  73 115 152 197 255 322 393 466
#
# _framework density 26.75902
#
# number of rings (size 3 to 8) (size 9 to 14) (size 15 to 20)
#    0.000    0.000    8.000    2.800    0.000    0.000 
#    0.000    0.667    0.000    3.200    0.000    0.000 
#    0.000    0.000    0.000    0.000    0.000    0.000 
#
# Total GULP energy -167255.452423 kJ/mol
# GULP energy per Si atom -5575.181747 kJ/mol
# Density = 2.669812 g / cm^3
# Si number density = 26.759020 Si / 1000 Ang^3
#
#
#
# Elastic Constant Matrix: (Units=GPa)
#
#
# Indices 1 2 3 4 5 6 
#
# 1 77.5450 5.2257 15.4149 -0.0004 -11.2028 0.0005
# 2 5.2257 69.8429 24.9682 -0.0006 0.3897 0.0008
# 3 15.4149 24.9682 216.2554 0.0002 -4.9650 -0.0003
# 4 -0.0004 -0.0006 0.0002 38.3671 0.0005 5.8016
# 5 -11.2028 0.3897 -4.9650 0.0005 34.9661 -0.0009
# 6 0.0005 0.0008 -0.0003 5.8016 -0.0009 27.7940
#
#
#
# Elastic Compliance Matrix: (Units=1/GPa)
#
#
# Indices 1 2 3 4 5 6 
#
# 1 0.013725 -0.000768 -0.000791 0.000000 0.004294 0.000000
# 2 -0.000768 0.014983 -0.001690 0.000000 -0.000653 -0.000001
# 3 -0.000791 -0.001690 0.004886 0.000000 0.000459 0.000000
# 4 0.000000 0.000000 0.000000 0.026913 -0.000001 -0.005618
# 5 0.004294 -0.000653 0.000459 -0.000001 0.030047 0.000001
# 6 0.000000 -0.000001 0.000000 -0.005618 0.000001 0.037152
#
#
# Mechanical properties :
#
#
# Convention : Reuss Voigt Hill
#
# Bulk Modulus (GPa) = 36.90603 50.54010 43.72306
# Shear Modulus (GPa) = 34.90710 41.42775 38.16742
#
# Velocity S-wave (km/s) = 3.61570 3.93896 3.78079
# Velocity P-wave (km/s) = 5.59044 6.29407 5.95266
#
# Compressibility (1/GPa) = 0.02709584
#
# Stress axis : x y z
#
# Youngs Moduli (GPa) = 72.85946 66.74151 204.65656
#
# Poissons Ratio (x) = 0.05126 0.16190
# Poissons Ratio (y) = 0.05596 0.34590
# Poissons Ratio (z) = 0.05764 0.11280
#
# Static dielectric constant tensor:
#      x y z
#    x 2.071520 0.000000 0.028530 
#    y 0.000000 2.417150 0.000000 
#    z 0.028530 0.000000 2.266560 
# 
# From -- ./inp_files/279681.got.cif
#   From: 2010.05.17/outbox.cif.g08.bks.cpg/sg15_140_cif.got.tgz:279681.got - 2010.06.03 18:47:42.
