data_PCOD9307955
_publ_section_title
;
Structure prediction by ZEFSAII (Michael W. Deem and Ramdas Pophale) SiO2 
 PCOD9307955
Probable space group: C 2/C
;
_chemical_formula_sum "Si O2"
_cell_formula_units_Z 40
_cell_length_a 9.815289
_cell_length_b 21.537811
_cell_length_c 10.809093
_cell_angle_alpha 90.000000
_cell_angle_beta 49.735381
_cell_angle_gamma 90.000000
_cell_volume 1743.640358
_symmetry_space_group_name_H-M "C 2/C"
_symmetry_group_IT_number 15
_symmetry_cell_setting 'monoclinic'
loop_
_space_group_symop_operation_xyz
x,y,z
-x,y,1/2-z
-x,-y,-z
x,-y,1/2+z
1/2+x,1/2+y,z
1/2-x,1/2+y,1/2-z
1/2-x,1/2-y,-z
1/2+x,1/2-y,1/2+z
loop_
_atom_site_type_symbol
_atom_site_label
_atom_site_fract_x
_atom_site_fract_y
_atom_site_fract_z
Si Si1 0.184717 0.365985 0.568049
Si Si2 0.361414 0.810516 0.163228
Si Si3 0.000000 0.915354 0.750000
Si Si4 0.813025 0.499956 0.035368
Si Si5 0.500000 0.082553 0.750000
Si Si6 0.985536 0.182833 0.467390
O O1 0.155481 0.318133 0.473506
O O2 0.239817 0.430413 0.469582
O O3 0.336158 0.340820 0.569480
O O4 0.000000 0.375805 0.750000
O O5 0.453866 0.871574 0.165036
O O6 0.473172 0.748508 0.120440
O O7 0.171334 0.807650 0.342032
O O8 0.161776 0.960675 0.693611
O O9 0.938572 0.869327 0.894677
O O10 0.000000 0.500000 0.000000
O O11 0.847249 0.536683 0.887182
#
# Coordination Sequence:
#
# PCOD9307955 Si02
#       6
#     8   8   4   8   4   8
#     4  12  26  46  75 104 147 194 245 304 371 441
#     4  12  27  47  73 104 147 190 249 303 372 436
#     4  12  29  46  76 110 145 192 250 302 374 444
#     4  12  26  47  75 110 151 190 240 305 372 442
#     4  12  25  46  76 108 145 190 238 304 370 440
#     4  12  28  47  72 105 145 194 247 307 366 439
#
# _framework density 22.940512999999999
#
# number of rings (size 3 to 8) (size 9 to 14) (size 15 to 20)
#    0.000    0.000    5.000    4.200    5.600    2.400 
#    0.000    0.000    0.000    0.000    0.000    0.000 
#    0.000    0.000    0.000    0.000    0.000    0.000 
#
# Total GULP energy -112050.234182 kJ/mol
# GULP energy per Si atom -5602.511709 kJ/mol
# Density = 2.288830 g / cm^3
# Si number density = 22.940513 Si / 1000 Ang^3
#
#
#
# Elastic Constant Matrix: (Units=GPa)
#
#
# Indices 1 2 3 4 5 6 
#
# 1 49.1487 8.8324 -7.1220 0.0000 10.7045 0.0000
# 2 8.8324 126.5953 26.3104 0.0000 -5.6477 0.0000
# 3 -7.1220 26.3104 78.0078 0.0000 -2.5936 0.0000
# 4 0.0000 0.0000 0.0000 43.6136 0.0000 3.7461
# 5 10.7045 -5.6477 -2.5936 0.0000 33.6694 0.0000
# 6 0.0000 0.0000 0.0000 3.7461 0.0000 39.6153
#
#
#
# Elastic Compliance Matrix: (Units=1/GPa)
#
#
# Indices 1 2 3 4 5 6 
#
# 1 0.022804 -0.002479 0.002670 0.000000 -0.007460 0.000000
# 2 -0.002479 0.008813 -0.003132 0.000000 0.002025 0.000000
# 3 0.002670 -0.003132 0.014110 0.000000 -0.000287 0.000000
# 4 0.000000 0.000000 0.000000 0.023116 0.000000 -0.002186
# 5 -0.007460 0.002025 -0.000287 0.000000 0.032390 0.000000
# 6 0.000000 0.000000 0.000000 -0.002186 0.000000 0.025449
#
#
# Mechanical properties :
#
#
# Convention : Reuss Voigt Hill
#
# Bulk Modulus (GPa) = 25.09671 34.42150 29.75911
# Shear Modulus (GPa) = 34.28305 38.42841 36.35573
#
# Velocity S-wave (km/s) = 3.86998 4.09728 3.98525
# Velocity P-wave (km/s) = 5.56172 6.11726 5.84609
#
# Compressibility (1/GPa) = 0.03984586
#
# Stress axis : x y z
#
# Youngs Moduli (GPa) = 43.85289 113.46498 70.87358
#
# Poissons Ratio (x) = 0.28124 -0.18922
# Poissons Ratio (y) = 0.10870 0.22194
# Poissons Ratio (z) = -0.11708 0.35532
#
# Static dielectric constant tensor:
#      x y z
#    x 1.865180 0.000000 0.007190 
#    y 0.000000 1.807790 0.000000 
#    z 0.007190 0.000000 1.823000 
# 
# From -- ./inp_files/51681.got.cif
#   From: 2010.05.17/outbox.cif.g08.bks.cpg/sg15_26_cif.got.tgz:51681.got - 2010.06.03 18:47:42.
