data_PCOD9307787
_publ_section_title
;
Structure prediction by ZEFSAII (Michael W. Deem and Ramdas Pophale) SiO2 
 PCOD9307787
Probable space group: C 2/C
;
_chemical_formula_sum "Si O2"
_cell_formula_units_Z 48
_cell_length_a 13.463433
_cell_length_b 17.930209
_cell_length_c 18.053695
_cell_angle_alpha 90.000000
_cell_angle_beta 147.622056
_cell_angle_gamma 90.000000
_cell_volume 2333.824238
_symmetry_space_group_name_H-M "C 2/C"
_symmetry_group_IT_number 15
_symmetry_cell_setting 'monoclinic'
loop_
_space_group_symop_operation_xyz
x,y,z
-x,y,1/2-z
-x,-y,-z
x,-y,1/2+z
1/2+x,1/2+y,z
1/2-x,1/2+y,1/2-z
1/2-x,1/2-y,-z
1/2+x,1/2-y,1/2+z
loop_
_atom_site_type_symbol
_atom_site_label
_atom_site_fract_x
_atom_site_fract_y
_atom_site_fract_z
Si Si1 0.437308 0.695013 0.984841
Si Si2 0.716999 0.992644 0.645661
Si Si3 0.500000 0.933680 0.750000
Si Si4 0.140468 0.176804 0.268921
Si Si5 0.699595 0.462611 0.139729
Si Si6 0.814707 0.173613 0.504173
Si Si7 0.500000 0.411129 0.250000
O O1 0.309074 0.766408 0.889527
O O2 0.311998 0.620175 0.900574
O O3 0.589360 0.686505 0.015095
O O4 0.535862 0.697460 0.126700
O O5 0.782884 0.907286 0.690938
O O6 0.500000 0.000000 0.500000
O O7 0.771639 0.035146 0.754846
O O8 0.824774 0.034902 0.648845
O O9 0.362522 0.880327 0.617208
O O10 0.637775 0.986858 0.791228
O O11 0.000000 0.179909 0.250000
O O12 0.500000 0.500000 0.000000
O O13 0.750000 0.250000 0.500000
O O14 0.960912 0.138212 0.653475
#
# Coordination Sequence:
#
# PCOD9307787 Si02
#       7
#     8   8   4   8   8   8   4
#     4  12  29  49  75 105 149 191 243 303 368 435
#     4  12  26  45  77 108 147 191 249 300 359 431
#     4  12  25  46  73 104 140 194 242 298 363 428
#     4  12  29  51  74 106 148 194 245 302 366 437
#     4  12  24  48  74 104 145 194 243 302 361 429
#     4  12  28  44  74 107 150 187 238 298 369 432
#     4  12  25  48  71 110 146 190 242 304 353 430
#
# _framework density 20.567101000000001
#
# number of rings (size 3 to 8) (size 9 to 14) (size 15 to 20)
#    0.000    0.000    5.833    2.000   12.833    1.333 
#    0.000    0.000    0.000    0.000    0.000    0.000 
#    0.000    0.000    0.000    0.000    0.000    0.000 
#
# Total GULP energy -134349.692397 kJ/mol
# GULP energy per Si atom -5597.903850 kJ/mol
# Density = 2.052029 g / cm^3
# Si number density = 20.567101 Si / 1000 Ang^3
#
#
#
# Elastic Constant Matrix: (Units=GPa)
#
#
# Indices 1 2 3 4 5 6 
#
# 1 137.5069 48.5237 70.5371 0.0015 5.3815 -0.0001
# 2 48.5237 127.7191 52.8446 0.0026 -0.3097 0.0005
# 3 70.5371 52.8446 149.0850 0.0035 -12.9643 0.0005
# 4 0.0015 0.0026 0.0035 41.3860 0.0013 13.0395
# 5 5.3815 -0.3097 -12.9643 0.0013 44.2533 -0.0002
# 6 -0.0001 0.0005 0.0005 13.0395 -0.0002 26.2516
#
#
#
# Elastic Compliance Matrix: (Units=1/GPa)
#
#
# Indices 1 2 3 4 5 6 
#
# 1 0.010368 -0.002137 -0.004370 0.000000 -0.002556 0.000000
# 2 -0.002137 0.009652 -0.002444 0.000000 -0.000388 0.000000
# 3 -0.004370 -0.002444 0.009940 -0.000001 0.003426 0.000000
# 4 0.000000 0.000000 -0.000001 0.028646 -0.000001 -0.014229
# 5 -0.002556 -0.000388 0.003426 -0.000001 0.023909 0.000001
# 6 0.000000 0.000000 0.000000 -0.014229 0.000001 0.045161
#
#
# Mechanical properties :
#
#
# Convention : Reuss Voigt Hill
#
# Bulk Modulus (GPa) = 82.93876 84.23578 83.58727
# Shear Modulus (GPa) = 33.42312 38.53854 35.98083
#
# Velocity S-wave (km/s) = 4.03560 4.33343 4.18716
# Velocity P-wave (km/s) = 7.88214 8.12919 8.00662
#
# Compressibility (1/GPa) = 0.01205709
#
# Stress axis : x y z
#
# Youngs Moduli (GPa) = 96.44636 103.60714 100.60827
#
# Poissons Ratio (x) = 0.22142 0.43970
# Poissons Ratio (y) = 0.20612 0.24587
# Poissons Ratio (z) = 0.42151 0.25320
#
# Static dielectric constant tensor:
#      x y z
#    x 1.881180 0.000000 -0.050040 
#    y 0.000000 1.718140 0.000000 
#    z -0.050040 0.000000 1.696220 
# 
# From -- ./inp_files/206533.got.cif
#   From: 2010.05.17/outbox.cif.g08.bks.cpg/sg15_104_cif.got.tgz:206533.got - 2010.06.03 18:47:42.
