data_PCOD9307502
_publ_section_title
;
Structure prediction by ZEFSAII (Michael W. Deem and Ramdas Pophale) SiO2 
 PCOD9307502
Probable space group: C 2/C
;
_chemical_formula_sum "Si O2"
_cell_formula_units_Z 36
_cell_length_a 13.024683
_cell_length_b 20.820580
_cell_length_c 5.460649
_cell_angle_alpha 90.000000
_cell_angle_beta 93.283377
_cell_angle_gamma 90.000000
_cell_volume 1478.395924
_symmetry_space_group_name_H-M "C 2/C"
_symmetry_group_IT_number 15
_symmetry_cell_setting 'monoclinic'
loop_
_space_group_symop_operation_xyz
x,y,z
-x,y,1/2-z
-x,-y,-z
x,-y,1/2+z
1/2+x,1/2+y,z
1/2-x,1/2+y,1/2-z
1/2-x,1/2-y,-z
1/2+x,1/2-y,1/2+z
loop_
_atom_site_type_symbol
_atom_site_label
_atom_site_fract_x
_atom_site_fract_y
_atom_site_fract_z
Si Si1 0.000000 0.460749 0.750000
Si Si2 0.667856 0.124725 0.445907
Si Si3 0.000000 0.671471 0.750000
Si Si4 0.372379 0.541723 0.479361
Si Si5 0.000000 0.861068 0.250000
Si Si6 0.144402 0.253143 0.636047
O O1 0.000000 0.500000 0.500000
O O2 0.900710 0.415468 0.752132
O O3 0.594495 0.128793 0.670466
O O4 0.772112 0.086680 0.485457
O O5 0.672566 0.197957 0.357372
O O6 0.948612 0.715594 0.534481
O O7 0.371653 0.495923 0.721347
O O8 0.467075 0.590970 0.528497
O O9 0.097078 0.815150 0.206178
O O10 0.250000 0.250000 0.500000
#
# Coordination Sequence:
#
# PCOD9307502 Si02
#       6
#     4   8   4   8   4   8
#     4  12  24  42  74 106 155 209 256 320 396 466
#     4  12  26  49  75 118 159 204 273 332 404 488
#     4  12  23  46  79 115 162 203 266 330 428 486
#     4  12  31  54  83 117 164 223 277 332 399 488
#     4  12  27  56  81 119 163 212 276 342 408 492
#     4  12  28  48  82 121 156 213 263 348 419 481
#
# _framework density 24.350714
#
# number of rings (size 3 to 8) (size 9 to 14) (size 15 to 20)
#    0.000    0.000    4.444    4.000    9.333    1.778 
#    0.000    0.000    0.000    0.000    0.000    0.000 
#    0.000    0.000    0.000    0.000    0.000    0.000 
#
# Total GULP energy -100825.707130 kJ/mol
# GULP energy per Si atom -5601.428174 kJ/mol
# Density = 2.429529 g / cm^3
# Si number density = 24.350714 Si / 1000 Ang^3
#
#
#
# Elastic Constant Matrix: (Units=GPa)
#
#
# Indices 1 2 3 4 5 6 
#
# 1 151.7606 77.2340 38.8541 0.0000 -4.1012 0.0000
# 2 77.2340 153.6294 85.7027 0.0000 9.7101 0.0000
# 3 38.8541 85.7027 133.7658 0.0000 -5.5312 0.0000
# 4 0.0000 0.0000 0.0000 16.1931 0.0000 42.3908
# 5 -4.1012 9.7101 -5.5312 0.0000 45.3852 0.0000
# 6 0.0000 0.0000 0.0000 42.3908 0.0000 49.1332
#
#
#
# Elastic Compliance Matrix: (Units=1/GPa)
#
#
# Indices 1 2 3 4 5 6 
#
# 1 0.009039 -0.005059 0.000698 0.000000 0.001984 0.000000
# 2 -0.005059 0.013376 -0.007275 0.000000 -0.004206 0.000000
# 3 0.000698 -0.007275 0.012062 0.000000 0.003089 0.000000
# 4 0.000000 0.000000 0.000000 -0.049066 0.000000 0.042333
# 5 0.001984 -0.004206 0.003089 0.000000 0.023489 0.000000
# 6 0.000000 0.000000 0.000000 0.042333 0.000000 -0.016171
#
#
# Mechanical properties :
#
#
# Convention : Reuss Voigt Hill
#
# Bulk Modulus (GPa) = 89.24224 93.63750 91.43987
# Shear Modulus (GPa) = 253.35522 37.96661 145.66092
#
# Velocity S-wave (km/s) = 10.21128 3.95290 7.74260
# Velocity P-wave (km/s) = 13.25727 7.70526 10.84265
#
# Compressibility (1/GPa) = 0.01120546
#
# Stress axis : x y z
#
# Youngs Moduli (GPa) = 110.63442 74.75916 82.90734
#
# Poissons Ratio (x) = 0.37818 -0.05784
# Poissons Ratio (y) = 0.55966 0.60312
# Poissons Ratio (z) = -0.07718 0.54385
#
# Static dielectric constant tensor:
#      x y z
#    x 1.993160 0.000000 -0.060480 
#    y 0.000000 2.002380 0.000000 
#    z -0.060480 0.000000 2.027420 
# 
# From -- ./inp_files/6929.got.cif
#   From: 2010.05.17/outbox.cif.g08.bks.cpg/sg15_4_cif.got.tgz:6929.got - 2010.06.03 18:47:42.
