data_PCOD9307556
_publ_section_title
;
Structure prediction by ZEFSAII (Michael W. Deem and Ramdas Pophale) SiO2 
 PCOD9307556
Probable space group: C 2/C
;
_chemical_formula_sum "Si O2"
_cell_formula_units_Z 44
_cell_length_a 7.093046
_cell_length_b 14.004710
_cell_length_c 17.753555
_cell_angle_alpha 90.000000
_cell_angle_beta 85.211307
_cell_angle_gamma 90.000000
_cell_volume 1757.412074
_symmetry_space_group_name_H-M "C 2/C"
_symmetry_group_IT_number 15
_symmetry_cell_setting 'monoclinic'
loop_
_space_group_symop_operation_xyz
x,y,z
-x,y,1/2-z
-x,-y,-z
x,-y,1/2+z
1/2+x,1/2+y,z
1/2-x,1/2+y,1/2-z
1/2-x,1/2-y,-z
1/2+x,1/2-y,1/2+z
loop_
_atom_site_type_symbol
_atom_site_label
_atom_site_fract_x
_atom_site_fract_y
_atom_site_fract_z
Si Si1 0.624717 0.536920 0.820435
Si Si2 0.566809 0.291400 0.412039
Si Si3 0.637510 0.195333 0.866105
Si Si4 0.532857 0.107683 0.023818
Si Si5 0.000000 0.546568 0.750000
Si Si6 0.541553 0.620507 0.427133
O O1 0.500000 0.541879 0.750000
O O2 0.680162 0.641056 0.851707
O O3 0.829051 0.489842 0.795153
O O4 0.505960 0.480551 0.888498
O O5 0.356812 0.298307 0.382456
O O6 0.597909 0.177256 0.420217
O O7 0.567071 0.344183 0.494037
O O8 0.604009 0.116323 0.805186
O O9 0.551244 0.300790 0.860167
O O10 0.535264 0.162609 0.945351
O O11 0.743229 0.112519 0.049941
O O12 0.500000 0.000000 0.000000
#
# Coordination Sequence:
#
# PCOD9307556 Si02
#       6
#     8   8   8   8   4   8
#     4  12  24  41  64  96 133 172 217 269 330 396
#     4   9  19  41  65  92 129 172 216 275 328 373
#     4   9  19  38  62  90 126 168 206 267 313 389
#     4   9  17  36  66  96 125 163 218 263 321 379
#     4  12  24  40  60  90 140 170 216 260 338 386
#     4   9  20  38  67  91 127 171 218 271 320 377
#
# _framework density 25.036816000000002
#
# number of rings (size 3 to 8) (size 9 to 14) (size 15 to 20)
#    0.000    2.182    1.818    3.818    1.273    0.000 
#    0.000   17.273    2.000    0.000    0.000    0.000 
#    0.000    0.000    0.000    0.000    0.000    0.000 
#
# Total GULP energy -122820.618336 kJ/mol
# GULP energy per Si atom -5582.755379 kJ/mol
# Density = 2.497983 g / cm^3
# Si number density = 25.036816 Si / 1000 Ang^3
#
#
#
# Elastic Constant Matrix: (Units=GPa)
#
#
# Indices 1 2 3 4 5 6 
#
# 1 83.3778 -5.1912 13.0496 0.0000 5.4400 0.0000
# 2 -5.1912 105.6510 14.9126 0.0000 0.9307 0.0000
# 3 13.0496 14.9126 84.1634 0.0000 11.8109 0.0000
# 4 0.0000 0.0000 0.0000 14.0836 0.0000 -1.4994
# 5 5.4400 0.9307 11.8109 0.0000 42.2838 0.0000
# 6 0.0000 0.0000 0.0000 -1.4994 0.0000 18.0818
#
#
#
# Elastic Compliance Matrix: (Units=1/GPa)
#
#
# Indices 1 2 3 4 5 6 
#
# 1 0.012422 0.000893 -0.001933 0.000000 -0.001078 0.000000
# 2 0.000893 0.009775 -0.001899 0.000000 0.000200 0.000000
# 3 -0.001933 -0.001899 0.012986 0.000000 -0.003337 0.000000
# 4 0.000000 0.000000 0.000000 0.071637 0.000000 0.005940
# 5 -0.001078 0.000200 -0.003337 0.000000 0.024716 0.000000
# 6 0.000000 0.000000 0.000000 0.005940 0.000000 0.055797
#
#
# Mechanical properties :
#
#
# Convention : Reuss Voigt Hill
#
# Bulk Modulus (GPa) = 34.12313 35.41490 34.76902
# Shear Modulus (GPa) = 24.63303 31.58459 28.10881
#
# Velocity S-wave (km/s) = 3.14008 3.55565 3.35431
# Velocity P-wave (km/s) = 5.17741 5.57070 5.37765
#
# Compressibility (1/GPa) = 0.02930563
#
# Stress axis : x y z
#
# Youngs Moduli (GPa) = 80.50214 102.29964 77.00590
#
# Poissons Ratio (x) = -0.09132 0.14885
# Poissons Ratio (y) = -0.07186 0.14620
# Poissons Ratio (z) = 0.15561 0.19422
#
# Static dielectric constant tensor:
#      x y z
#    x 2.037610 0.000000 -0.107590 
#    y 0.000000 2.101480 0.000000 
#    z -0.107590 0.000000 1.883290 
# 
# From -- ./inp_files/188817.got.cif
#   From: 2010.05.17/outbox.cif.g08.bks.cpg/sg15_95_cif.got.tgz:188817.got - 2010.06.03 18:47:42.
