data_PCOD9307873
_publ_section_title
;
Structure prediction by ZEFSAII (Michael W. Deem and Ramdas Pophale) SiO2 
 PCOD9307873
Probable space group: C 2/C
;
_chemical_formula_sum "Si O2"
_cell_formula_units_Z 28
_cell_length_a 11.850084
_cell_length_b 14.296506
_cell_length_c 7.629788
_cell_angle_alpha 90.000000
_cell_angle_beta 115.712388
_cell_angle_gamma 90.000000
_cell_volume 1164.610019
_symmetry_space_group_name_H-M "C 2/C"
_symmetry_group_IT_number 15
_symmetry_cell_setting 'monoclinic'
loop_
_space_group_symop_operation_xyz
x,y,z
-x,y,1/2-z
-x,-y,-z
x,-y,1/2+z
1/2+x,1/2+y,z
1/2-x,1/2+y,1/2-z
1/2-x,1/2-y,-z
1/2+x,1/2-y,1/2+z
loop_
_atom_site_type_symbol
_atom_site_label
_atom_site_fract_x
_atom_site_fract_y
_atom_site_fract_z
Si Si1 0.421537 0.810454 0.017104
Si Si2 0.500000 0.921632 0.750000
Si Si3 0.387034 0.614789 0.811573
Si Si4 0.255834 0.020942 0.514574
O O1 0.500000 0.795086 0.250000
O O2 0.304923 0.881343 0.966934
O O3 0.508295 0.859311 0.928952
O O4 0.375530 0.715719 0.893354
O O5 0.380110 0.986963 0.698018
O O6 0.500000 0.619119 0.750000
O O7 0.371606 0.544480 0.966595
O O8 0.276327 0.569006 0.623474
#
# Coordination Sequence:
#
# PCOD9307873 Si02
#       4
#     8   4   8   8
#     4  12  26  51  83 116 152 201 266 319 383 458
#     4  12  24  52  84 114 150 204 266 326 374 448
#     4  12  28  49  76 116 162 205 250 319 395 462
#     4  12  25  51  81 113 154 204 262 320 382 460
#
# _framework density 24.042382
#
# number of rings (size 3 to 8) (size 9 to 14) (size 15 to 20)
#    0.000    0.000    5.714    4.286    0.000    4.571 
#    5.143    0.000    0.000    0.000    0.000    0.000 
#    0.000    0.000    0.000    0.000    0.000    0.000 
#
# Total GULP energy -78073.197827 kJ/mol
# GULP energy per Si atom -5576.656988 kJ/mol
# Density = 2.398766 g / cm^3
# Si number density = 24.042382 Si / 1000 Ang^3
#
#
#
# Elastic Constant Matrix: (Units=GPa)
#
#
# Indices 1 2 3 4 5 6 
#
# 1 168.9577 83.5808 63.9890 0.0000 -22.4190 0.0000
# 2 83.5808 177.5603 94.9739 0.0000 3.0921 0.0000
# 3 63.9890 94.9739 93.9980 0.0000 -18.0271 0.0000
# 4 0.0000 0.0000 0.0000 40.3651 0.0000 -7.0144
# 5 -22.4190 3.0921 -18.0271 0.0000 31.7188 0.0000
# 6 0.0000 0.0000 0.0000 -7.0144 0.0000 34.1168
#
#
#
# Elastic Compliance Matrix: (Units=1/GPa)
#
#
# Indices 1 2 3 4 5 6 
#
# 1 0.009011 -0.003654 -0.001293 0.000000 0.005990 0.000000
# 2 -0.003654 0.016740 -0.017098 0.000000 -0.013932 0.000000
# 3 -0.001293 -0.017098 0.032479 0.000000 0.019212 0.000000
# 4 0.000000 0.000000 0.000000 0.025692 0.000000 0.005282
# 5 0.005990 -0.013932 0.019212 0.000000 0.048038 0.000000
# 6 0.000000 0.000000 0.000000 0.005282 0.000000 0.030397
#
#
# Mechanical properties :
#
#
# Convention : Reuss Voigt Hill
#
# Bulk Modulus (GPa) = 70.72733 102.84481 86.78607
# Shear Modulus (GPa) = 23.67846 34.43831 29.05839
#
# Velocity S-wave (km/s) = 3.14166 3.78881 3.48031
# Velocity P-wave (km/s) = 6.53006 7.87461 7.23364
#
# Compressibility (1/GPa) = 0.01413881
#
# Stress axis : x y z
#
# Youngs Moduli (GPa) = 110.97625 59.73612 30.78872
#
# Poissons Ratio (x) = 0.21829 0.03982
# Poissons Ratio (y) = 0.40553 0.52644
# Poissons Ratio (z) = 0.14352 1.02140
#
# Static dielectric constant tensor:
#      x y z
#    x 1.946750 0.000000 -0.085890 
#    y 0.000000 1.919970 0.000000 
#    z -0.085890 0.000000 2.047980 
# 
# From -- ./inp_files/27787.got.cif
#   From: 2010.05.17/outbox.cif.g08.bks.cpg/sg15_14_cif.got.tgz:27787.got - 2010.06.03 18:47:42.
