data_PCOD9307275
_publ_section_title
;
Structure prediction by ZEFSAII (Michael W. Deem and Ramdas Pophale) SiO2 
 PCOD9307275
Probable space group: C 2/C
;
_chemical_formula_sum "Si O2"
_cell_formula_units_Z 36
_cell_length_a 12.553065
_cell_length_b 14.059581
_cell_length_c 10.849932
_cell_angle_alpha 90.000000
_cell_angle_beta 45.393819
_cell_angle_gamma 90.000000
_cell_volume 1363.323265
_symmetry_space_group_name_H-M "C 2/C"
_symmetry_group_IT_number 15
_symmetry_cell_setting 'monoclinic'
loop_
_space_group_symop_operation_xyz
x,y,z
-x,y,1/2-z
-x,-y,-z
x,-y,1/2+z
1/2+x,1/2+y,z
1/2-x,1/2+y,1/2-z
1/2-x,1/2-y,-z
1/2+x,1/2-y,1/2+z
loop_
_atom_site_type_symbol
_atom_site_label
_atom_site_fract_x
_atom_site_fract_y
_atom_site_fract_z
Si Si1 0.000000 0.932972 0.750000
Si Si2 0.348912 0.279451 0.035348
Si Si3 0.463058 0.045630 0.157626
Si Si4 0.620800 0.565464 0.482238
Si Si5 0.889442 0.287778 0.055376
O O1 0.036442 0.857652 0.612605
O O2 0.124475 0.011742 0.612143
O O3 0.247867 0.302095 0.238165
O O4 0.250000 0.250000 0.000000
O O5 0.460436 0.198012 0.986409
O O6 0.500000 0.985943 0.250000
O O7 0.285381 0.059816 0.294297
O O8 0.580513 0.134835 0.073426
O O9 0.500000 0.000000 0.000000
O O10 0.500000 0.500000 0.500000
O O11 0.595934 0.679725 0.508973
#
# Coordination Sequence:
#
# PCOD9307275 Si02
#       5
#     4   8   8   8   8
#     4  12  26  42  80 112 154 214 274 334 408 490
#     4  12  22  44  74 116 162 214 277 334 406 482
#     4  12  32  54  82 120 166 217 277 347 418 494
#     4  12  27  50  79 116 162 214 275 337 418 494
#     4  12  26  48  78 113 161 214 274 339 413 490
#
# _framework density 26.406061999999999
#
# number of rings (size 3 to 8) (size 9 to 14) (size 15 to 20)
#    0.000    0.000    6.667    1.333    4.667    2.667 
#    0.000    0.000    0.000    0.000    0.000    0.000 
#    0.000    0.000    0.000    0.000    0.000    0.000 
#
# Total GULP energy -100254.160645 kJ/mol
# GULP energy per Si atom -5569.675591 kJ/mol
# Density = 2.634596 g / cm^3
# Si number density = 26.406062 Si / 1000 Ang^3
#
#
#
# Elastic Constant Matrix: (Units=GPa)
#
#
# Indices 1 2 3 4 5 6 
#
# 1 77.4825 8.4732 17.9858 0.0000 -9.8404 0.0000
# 2 8.4732 122.8957 64.2682 0.0000 4.2577 0.0000
# 3 17.9858 64.2682 232.7083 0.0000 -13.0526 0.0000
# 4 0.0000 0.0000 0.0000 51.1876 0.0000 9.7990
# 5 -9.8404 4.2577 -13.0526 0.0000 43.3274 0.0000
# 6 0.0000 0.0000 0.0000 9.7990 0.0000 7.7364
#
#
#
# Elastic Compliance Matrix: (Units=1/GPa)
#
#
# Indices 1 2 3 4 5 6 
#
# 1 0.013512 -0.000669 -0.000695 0.000000 0.002925 0.000000
# 2 -0.000669 0.009677 -0.002729 0.000000 -0.001925 0.000000
# 3 -0.000695 -0.002729 0.005199 0.000000 0.001676 0.000000
# 4 0.000000 0.000000 0.000000 0.025789 0.000000 -0.032665
# 5 0.002925 -0.001925 0.001676 0.000000 0.024439 0.000000
# 6 0.000000 0.000000 0.000000 -0.032665 0.000000 0.170634
#
#
# Mechanical properties :
#
#
# Convention : Reuss Voigt Hill
#
# Bulk Modulus (GPa) = 49.50308 68.28232 58.89270
# Shear Modulus (GPa) = 18.92723 43.27422 31.10072
#
# Velocity S-wave (km/s) = 2.68017 4.05260 3.43561
# Velocity P-wave (km/s) = 5.32591 6.91468 6.17163
#
# Compressibility (1/GPa) = 0.02020077
#
# Stress axis : x y z
#
# Youngs Moduli (GPa) = 74.00687 103.33989 192.35921
#
# Poissons Ratio (x) = 0.06916 0.13377
# Poissons Ratio (y) = 0.04953 0.52490
# Poissons Ratio (z) = 0.05147 0.28199
#
# Static dielectric constant tensor:
#      x y z
#    x 2.386430 0.000000 0.089160 
#    y 0.000000 2.206320 0.000000 
#    z 0.089160 0.000000 2.013490 
# 
# From -- ./inp_files/96787.got.cif
#   From: 2010.05.17/outbox.cif.g08.bks.cpg/sg15_49_cif.got.tgz:96787.got - 2010.06.03 18:47:42.
