data_PCOD9307972
_publ_section_title
;
Structure prediction by ZEFSAII (Michael W. Deem and Ramdas Pophale) SiO2 
 PCOD9307972
Probable space group: C 2/C
;
_chemical_formula_sum "Si O2"
_cell_formula_units_Z 36
_cell_length_a 19.618400
_cell_length_b 8.527737
_cell_length_c 23.403853
_cell_angle_alpha 90.000000
_cell_angle_beta 157.007060
_cell_angle_gamma 90.000000
_cell_volume 1529.454861
_symmetry_space_group_name_H-M "C 2/C"
_symmetry_group_IT_number 15
_symmetry_cell_setting 'monoclinic'
loop_
_space_group_symop_operation_xyz
x,y,z
-x,y,1/2-z
-x,-y,-z
x,-y,1/2+z
1/2+x,1/2+y,z
1/2-x,1/2+y,1/2-z
1/2-x,1/2-y,-z
1/2+x,1/2-y,1/2+z
loop_
_atom_site_type_symbol
_atom_site_label
_atom_site_fract_x
_atom_site_fract_y
_atom_site_fract_z
Si Si1 0.267393 0.664675 0.152758
Si Si2 0.390753 0.330676 0.278111
Si Si3 0.106778 0.374818 0.408166
Si Si4 0.000000 0.649273 0.250000
Si Si5 0.469219 0.321101 0.995318
O O1 0.368750 0.515956 0.255163
O O2 0.413081 0.798821 0.252799
O O3 0.126345 0.726958 0.088133
O O4 0.157886 0.603142 0.013607
O O5 0.429131 0.257004 0.246168
O O6 0.528544 0.303728 0.434499
O O7 0.213952 0.250601 0.164749
O O8 0.250000 0.250000 0.500000
O O9 0.120567 0.528538 0.379491
O O10 0.500000 0.500000 0.000000
#
# Coordination Sequence:
#
# PCOD9307972 Si02
#       5
#     8   8   8   4   8
#     4  12  26  47  75 105 144 191 247 303 365 431
#     4  12  28  46  75 110 149 190 240 305 365 437
#     4  12  25  47  73 105 143 191 242 297 362 434
#     4  12  28  46  74 110 150 186 246 296 372 438
#     4  12  26  50  76 107 146 192 247 302 365 429
#
# _framework density 23.537800000000001
#
# number of rings (size 3 to 8) (size 9 to 14) (size 15 to 20)
#    0.000    0.000    2.222    7.333    6.222    1.778 
#    0.000    0.000    0.000    0.000    0.000    0.000 
#    0.000    0.000    0.000    0.000    0.000    0.000 
#
# Total GULP energy -100810.137413 kJ/mol
# GULP energy per Si atom -5600.563190 kJ/mol
# Density = 2.348423 g / cm^3
# Si number density = 23.537800 Si / 1000 Ang^3
#
#
#
# Elastic Constant Matrix: (Units=GPa)
#
#
# Indices 1 2 3 4 5 6 
#
# 1 117.5823 19.9989 13.5265 -0.0026 -14.5321 -0.0009
# 2 19.9989 69.0806 -15.1023 -0.0056 4.6649 -0.0022
# 3 13.5265 -15.1023 80.8239 -0.0046 -28.4091 -0.0018
# 4 -0.0026 -0.0056 -0.0046 31.4835 -0.0007 -6.4804
# 5 -14.5321 4.6649 -28.4091 -0.0007 48.3175 -0.0001
# 6 -0.0009 -0.0022 -0.0018 -6.4804 -0.0001 48.4822
#
#
#
# Elastic Compliance Matrix: (Units=1/GPa)
#
#
# Indices 1 2 3 4 5 6 
#
# 1 0.009499 -0.003206 -0.001356 0.000000 0.002369 0.000000
# 2 -0.003206 0.016177 0.003367 0.000003 -0.000546 0.000001
# 3 -0.001356 0.003367 0.016350 0.000003 0.008880 0.000001
# 4 0.000000 0.000003 0.000003 0.032661 0.000002 0.004366
# 5 0.002369 -0.000546 0.008880 0.000002 0.026683 0.000001
# 6 0.000000 0.000001 0.000001 0.004366 0.000001 0.021210
#
#
# Mechanical properties :
#
#
# Convention : Reuss Voigt Hill
#
# Bulk Modulus (GPa) = 25.22967 33.81477 29.52222
# Shear Modulus (GPa) = 36.18408 42.26090 39.22249
#
# Velocity S-wave (km/s) = 3.92506 4.24187 4.08654
# Velocity P-wave (km/s) = 5.59317 6.19586 5.90221
#
# Compressibility (1/GPa) = 0.03963587
#
# Stress axis : x y z
#
# Youngs Moduli (GPa) = 105.27599 61.81558 61.16164
#
# Poissons Ratio (x) = 0.19820 0.08294
# Poissons Ratio (y) = 0.33755 -0.20595
# Poissons Ratio (z) = 0.14276 -0.20815
#
# Static dielectric constant tensor:
#      x y z
#    x 1.893880 0.000000 -0.047680 
#    y 0.000000 1.832910 0.000000 
#    z -0.047680 0.000000 1.869350 
# 
# From -- ./inp_files/247913.got.cif
#   From: 2010.05.17/outbox.cif.g08.bks.cpg/sg15_124_cif.got.tgz:247913.got - 2010.06.03 18:47:42.
