data_PCOD9307481
_publ_section_title
;
Structure prediction by ZEFSAII (Michael W. Deem and Ramdas Pophale) SiO2 
 PCOD9307481
Probable space group: C 2/C
;
_chemical_formula_sum "Si O2"
_cell_formula_units_Z 28
_cell_length_a 12.470496
_cell_length_b 8.447247
_cell_length_c 14.376782
_cell_angle_alpha 90.000000
_cell_angle_beta 119.503848
_cell_angle_gamma 90.000000
_cell_volume 1318.077300
_symmetry_space_group_name_H-M "C 2/C"
_symmetry_group_IT_number 15
_symmetry_cell_setting 'monoclinic'
loop_
_space_group_symop_operation_xyz
x,y,z
-x,y,1/2-z
-x,-y,-z
x,-y,1/2+z
1/2+x,1/2+y,z
1/2-x,1/2+y,1/2-z
1/2-x,1/2-y,-z
1/2+x,1/2-y,1/2+z
loop_
_atom_site_type_symbol
_atom_site_label
_atom_site_fract_x
_atom_site_fract_y
_atom_site_fract_z
Si Si1 0.000000 0.493460 0.250000
Si Si2 0.665661 0.203248 0.687112
Si Si3 0.074137 0.053588 0.685656
Si Si4 0.609055 0.206740 0.461871
O O1 0.103664 0.384991 0.246997
O O2 0.057895 0.597208 0.357615
O O3 0.811196 0.172002 0.750548
O O4 0.631093 0.387621 0.678103
O O5 0.612107 0.137272 0.567006
O O6 0.000000 0.029380 0.750000
O O7 0.977311 0.138154 0.576672
O O8 0.750000 0.250000 0.500000
#
# Coordination Sequence:
#
# PCOD9307481 Si02
#       4
#     4   8   8   8
#     4  12  26  44  70 108 138 186 236 286 348 422
#     4  12  26  46  74 102 143 184 234 290 349 414
#     4  12  24  48  72 104 139 182 236 289 344 417
#     4  12  23  46  71  99 143 186 229 290 350 408
#
# _framework density 21.243064
#
# number of rings (size 3 to 8) (size 9 to 14) (size 15 to 20)
#    0.000    0.000    5.714    5.143    0.000    0.000 
#    0.000    4.286    0.000    0.000    0.000    0.000 
#    0.000    0.000    0.000    0.000    0.000    0.000 
#
# Total GULP energy -78366.103098 kJ/mol
# GULP energy per Si atom -5597.578793 kJ/mol
# Density = 2.119471 g / cm^3
# Si number density = 21.243064 Si / 1000 Ang^3
#
#
#
# Elastic Constant Matrix: (Units=GPa)
#
#
# Indices 1 2 3 4 5 6 
#
# 1 140.1004 55.2742 64.7513 0.0000 13.7687 0.0000
# 2 55.2742 99.9185 36.5072 0.0000 20.6562 0.0000
# 3 64.7513 36.5072 109.0717 0.0000 10.0713 0.0000
# 4 0.0000 0.0000 0.0000 26.3095 0.0000 -3.3652
# 5 13.7687 20.6562 10.0713 0.0000 48.0306 0.0000
# 6 0.0000 0.0000 0.0000 -3.3652 0.0000 50.0909
#
#
#
# Elastic Compliance Matrix: (Units=1/GPa)
#
#
# Indices 1 2 3 4 5 6 
#
# 1 0.011267 -0.004258 -0.005236 0.000000 -0.000301 0.000000
# 2 -0.004258 0.013901 -0.001719 0.000000 -0.004397 0.000000
# 3 -0.005236 -0.001719 0.012895 0.000000 -0.000464 0.000000
# 4 0.000000 0.000000 0.000000 0.038338 0.000000 0.002576
# 5 -0.000301 -0.004397 -0.000464 0.000000 0.022895 0.000000
# 6 0.000000 0.000000 0.000000 0.002576 0.000000 0.020137
#
#
# Mechanical properties :
#
#
# Convention : Reuss Voigt Hill
#
# Bulk Modulus (GPa) = 63.94987 73.57290 68.76138
# Shear Modulus (GPa) = 33.99749 37.72338 35.86043
#
# Velocity S-wave (km/s) = 4.00485 4.21859 4.11311
# Velocity P-wave (km/s) = 7.18013 7.64446 7.41593
#
# Compressibility (1/GPa) = 0.01563725
#
# Stress axis : x y z
#
# Youngs Moduli (GPa) = 88.75490 71.93968 77.55055
#
# Poissons Ratio (x) = 0.30629 0.40605
# Poissons Ratio (y) = 0.37788 0.13331
# Poissons Ratio (z) = 0.46471 0.12367
#
# Static dielectric constant tensor:
#      x y z
#    x 1.743170 0.000000 -0.025020 
#    y 0.000000 1.779610 0.000000 
#    z -0.025020 0.000000 1.756890 
# 
# From -- ./inp_files/93299.got.cif
#   From: 2010.05.17/outbox.cif.g08.bks.cpg/sg15_47_cif.got.tgz:93299.got - 2010.06.03 18:47:42.
