data_PCOD9307951
_publ_section_title
;
Structure prediction by ZEFSAII (Michael W. Deem and Ramdas Pophale) SiO2 
 PCOD9307951
Probable space group: C 2/C
;
_chemical_formula_sum "Si O2"
_cell_formula_units_Z 28
_cell_length_a 5.471884
_cell_length_b 22.242938
_cell_length_c 9.654828
_cell_angle_alpha 90.000000
_cell_angle_beta 101.682274
_cell_angle_gamma 90.000000
_cell_volume 1150.755076
_symmetry_space_group_name_H-M "C 2/C"
_symmetry_group_IT_number 15
_symmetry_cell_setting 'monoclinic'
loop_
_space_group_symop_operation_xyz
x,y,z
-x,y,1/2-z
-x,-y,-z
x,-y,1/2+z
1/2+x,1/2+y,z
1/2-x,1/2+y,1/2-z
1/2-x,1/2-y,-z
1/2+x,1/2-y,1/2+z
loop_
_atom_site_type_symbol
_atom_site_label
_atom_site_fract_x
_atom_site_fract_y
_atom_site_fract_z
Si Si1 0.774424 0.496513 0.089862
Si Si2 0.775193 0.873479 0.821704
Si Si3 0.500000 0.885780 0.250000
Si Si4 0.311616 0.308946 0.097432
O O1 0.765924 0.555131 0.186151
O O2 0.798651 0.434128 0.175270
O O3 0.500000 0.500000 0.000000
O O4 0.000000 0.500000 0.000000
O O5 0.500000 0.847466 0.750000
O O6 0.000000 0.853763 0.750000
O O7 0.875373 0.856055 0.984656
O O8 0.572337 0.841028 0.136479
O O9 0.500000 0.301241 0.250000
O O10 0.250000 0.250000 0.000000
#
# Coordination Sequence:
#
# PCOD9307951 Si02
#       4
#     8   8   4   8
#     4  12  25  46  75 121 167 212 266 337 421 503
#     4  12  27  49  81 122 166 213 272 341 422 501
#     4  12  28  48  84 122 168 218 284 348 424 500
#     4  12  30  54  83 116 166 229 288 354 415 503
#
# _framework density 24.331851
#
# number of rings (size 3 to 8) (size 9 to 14) (size 15 to 20)
#    0.000    0.000    4.286    4.286    6.000    1.143 
#    0.000    0.000    0.000    0.000    0.000    0.000 
#    0.000    0.000    0.000    0.000    0.000    0.000 
#
# Total GULP energy -78164.705169 kJ/mol
# GULP energy per Si atom -5583.193226 kJ/mol
# Density = 2.427647 g / cm^3
# Si number density = 24.331851 Si / 1000 Ang^3
#
#
#
# Elastic Constant Matrix: (Units=GPa)
#
#
# Indices 1 2 3 4 5 6 
#
# 1 158.9996 16.3137 65.6013 0.0000 23.6666 0.0000
# 2 16.3137 139.2530 39.5863 0.0000 17.0758 0.0000
# 3 65.6013 39.5863 158.3696 0.0000 5.1980 0.0000
# 4 0.0000 0.0000 0.0000 74.1093 0.0000 17.1096
# 5 23.6666 17.0758 5.1980 0.0000 75.7926 0.0000
# 6 0.0000 0.0000 0.0000 17.1096 0.0000 30.3785
#
#
#
# Elastic Compliance Matrix: (Units=1/GPa)
#
#
# Indices 1 2 3 4 5 6 
#
# 1 0.007966 0.000289 -0.003295 0.000000 -0.002326 0.000000
# 2 0.000289 0.007943 -0.002048 0.000000 -0.001739 0.000000
# 3 -0.003295 -0.002048 0.008161 0.000000 0.000931 0.000000
# 4 0.000000 0.000000 0.000000 0.015510 0.000000 -0.008736
# 5 -0.002326 -0.001739 0.000931 0.000000 0.014248 0.000000
# 6 0.000000 0.000000 0.000000 -0.008736 0.000000 0.037838
#
#
# Mechanical properties :
#
#
# Convention : Reuss Voigt Hill
#
# Bulk Modulus (GPa) = 71.63251 77.73609 74.68430
# Shear Modulus (GPa) = 46.97995 58.39748 52.68872
#
# Velocity S-wave (km/s) = 4.39885 4.90434 4.65846
# Velocity P-wave (km/s) = 7.43664 8.00548 7.72630
#
# Compressibility (1/GPa) = 0.01396014
#
# Stress axis : x y z
#
# Youngs Moduli (GPa) = 125.53950 125.90027 122.53730
#
# Poissons Ratio (x) = -0.03637 0.40382
# Poissons Ratio (y) = -0.03627 0.25095
# Poissons Ratio (z) = 0.41371 0.25784
#
# Static dielectric constant tensor:
#      x y z
#    x 1.767000 0.000000 -0.229510 
#    y 0.000000 1.964720 0.000000 
#    z -0.229510 0.000000 1.762570 
# 
# From -- ./inp_files/19748.got.cif
#   From: 2010.05.17/outbox.cif.g08.bks.cpg/sg15_10_cif.got.tgz:19748.got - 2010.06.03 18:47:42.
