data_PCOD9307967
_publ_section_title
;
Structure prediction by ZEFSAII (Michael W. Deem and Ramdas Pophale) SiO2 
 PCOD9307967
Probable space group: C 2/C
;
_chemical_formula_sum "Si O2"
_cell_formula_units_Z 44
_cell_length_a 22.139339
_cell_length_b 4.931952
_cell_length_c 23.549331
_cell_angle_alpha 90.000000
_cell_angle_beta 135.477107
_cell_angle_gamma 90.000000
_cell_volume 1803.019304
_symmetry_space_group_name_H-M "C 2/C"
_symmetry_group_IT_number 15
_symmetry_cell_setting 'monoclinic'
loop_
_space_group_symop_operation_xyz
x,y,z
-x,y,1/2-z
-x,-y,-z
x,-y,1/2+z
1/2+x,1/2+y,z
1/2-x,1/2+y,1/2-z
1/2-x,1/2-y,-z
1/2+x,1/2-y,1/2+z
loop_
_atom_site_type_symbol
_atom_site_label
_atom_site_fract_x
_atom_site_fract_y
_atom_site_fract_z
Si Si1 0.780975 0.154672 0.959820
Si Si2 0.263170 0.049518 0.790280
Si Si3 0.449943 0.130365 0.413034
Si Si4 0.310697 0.343318 0.147316
Si Si5 0.500000 0.556256 0.750000
Si Si6 0.484587 0.347874 0.610216
O O1 0.723462 0.348760 0.881527
O O2 0.753957 0.847735 0.930044
O O3 0.750000 0.250000 0.000000
O O4 0.883325 0.180643 0.027106
O O5 0.291507 0.303424 0.771218
O O6 0.205388 0.204658 0.797587
O O7 0.350784 0.894488 0.865213
O O8 0.479067 0.421862 0.408656
O O9 0.500000 0.000000 0.500000
O O10 0.470627 0.933341 0.374426
O O11 0.407629 0.296052 0.192117
O O12 0.495052 0.409404 0.684690
#
# Coordination Sequence:
#
# PCOD9307967 Si02
#       6
#     8   8   8   8   4   8
#     4  12  25  48  71 103 144 187 243 286 366 430
#     4  12  25  47  71 105 147 191 241 294 370 432
#     4  12  26  48  75 105 142 189 249 300 354 426
#     4  12  27  46  74 105 144 194 238 305 354 441
#     4  12  28  46  72 110 152 182 244 294 382 428
#     4  12  27  46  75 108 145 189 236 306 362 439
#
# _framework density 24.403511000000002
#
# number of rings (size 3 to 8) (size 9 to 14) (size 15 to 20)
#    0.000    0.000    1.818    8.727    2.545    2.909 
#    0.000    0.000    0.000    0.000    0.000    0.000 
#    0.000    0.000    0.000    0.000    0.000    0.000 
#
# Total GULP energy -123067.139749 kJ/mol
# GULP energy per Si atom -5593.960898 kJ/mol
# Density = 2.434797 g / cm^3
# Si number density = 24.403511 Si / 1000 Ang^3
#
#
#
# Elastic Constant Matrix: (Units=GPa)
#
#
# Indices 1 2 3 4 5 6 
#
# 1 117.7200 13.3138 24.7227 0.0051 25.6808 -0.0127
# 2 13.3138 82.8102 -1.1015 0.0066 2.9519 -0.0700
# 3 24.7227 -1.1015 66.6109 0.0004 9.2387 0.0071
# 4 0.0051 0.0066 0.0004 29.0491 0.0020 1.6407
# 5 25.6808 2.9519 9.2387 0.0020 56.1356 -0.0056
# 6 -0.0127 -0.0700 0.0071 1.6407 -0.0056 32.1393
#
#
#
# Elastic Compliance Matrix: (Units=1/GPa)
#
#
# Indices 1 2 3 4 5 6 
#
# 1 0.010242 -0.001545 -0.003263 -0.000001 -0.004067 0.000001
# 2 -0.001545 0.012337 0.000787 -0.000004 -0.000072 0.000026
# 3 -0.003263 0.000787 0.016410 0.000000 -0.001249 -0.000003
# 4 -0.000001 -0.000004 0.000000 0.034524 -0.000001 -0.001762
# 5 -0.004067 -0.000072 -0.001249 -0.000001 0.019884 0.000002
# 6 0.000001 0.000026 -0.000003 -0.001762 0.000002 0.031205
#
#
# Mechanical properties :
#
#
# Convention : Reuss Voigt Hill
#
# Bulk Modulus (GPa) = 32.31206 37.89013 35.10110
# Shear Modulus (GPa) = 34.97513 38.81187 36.89350
#
# Velocity S-wave (km/s) = 3.78987 3.99234 3.89242
# Velocity P-wave (km/s) = 5.69388 6.06728 5.88354
#
# Compressibility (1/GPa) = 0.03094820
#
# Stress axis : x y z
#
# Youngs Moduli (GPa) = 97.63749 81.05525 60.93904
#
# Poissons Ratio (x) = 0.12524 0.19883
# Poissons Ratio (y) = 0.15086 -0.04798
# Poissons Ratio (z) = 0.31857 -0.06382
#
# Static dielectric constant tensor:
#      x y z
#    x 2.040120 0.000010 -0.163390 
#    y 0.000010 1.907640 0.000070 
#    z -0.163390 0.000070 1.647460 
# 
# From -- ./inp_files/281266.got.cif
#   From: 2010.05.17/outbox.cif.g08.bks.cpg/sg15_141_cif.got.tgz:281266.got - 2010.06.03 18:47:42.
