data_PCOD9307807
_publ_section_title
;
Structure prediction by ZEFSAII (Michael W. Deem and Ramdas Pophale) SiO2 
 PCOD9307807
Probable space group: C 2/C
;
_chemical_formula_sum "Si O2"
_cell_formula_units_Z 28
_cell_length_a 18.589944
_cell_length_b 4.869876
_cell_length_c 11.898065
_cell_angle_alpha 90.000000
_cell_angle_beta 87.637037
_cell_angle_gamma 90.000000
_cell_volume 1076.224514
_symmetry_space_group_name_H-M "C 2/C"
_symmetry_group_IT_number 15
_symmetry_cell_setting 'monoclinic'
loop_
_space_group_symop_operation_xyz
x,y,z
-x,y,1/2-z
-x,-y,-z
x,-y,1/2+z
1/2+x,1/2+y,z
1/2-x,1/2+y,1/2-z
1/2-x,1/2-y,-z
1/2+x,1/2-y,1/2+z
loop_
_atom_site_type_symbol
_atom_site_label
_atom_site_fract_x
_atom_site_fract_y
_atom_site_fract_z
Si Si1 0.599125 0.548317 0.922299
Si Si2 0.500000 0.724649 0.250000
Si Si3 0.752103 0.371745 0.825524
Si Si4 0.094764 0.441561 0.568220
O O1 0.443551 0.537390 0.185766
O O2 0.594309 0.861740 0.959301
O O3 0.572434 0.358354 0.027357
O O4 0.682032 0.463019 0.898064
O O5 0.456201 0.918872 0.337609
O O6 0.747347 0.057425 0.787105
O O7 0.825447 0.426266 0.886325
#
# Coordination Sequence:
#
# PCOD9307807 Si02
#       4
#     8   4   8   8
#     4  12  27  48  76 109 147 197 246 302 368 437
#     4  12  28  50  76 108 160 188 248 302 372 444
#     4  12  24  48  78 108 148 196 246 306 366 430
#     4  12  27  48  76 109 147 197 246 302 368 437
#
# _framework density 26.016874999999999
#
# number of rings (size 3 to 8) (size 9 to 14) (size 15 to 20)
#    0.000    0.000    2.857    6.857    0.000    2.286 
#    0.000    0.000    0.000    0.000    0.000    0.000 
#    0.000    0.000    0.000    0.000    0.000    0.000 
#
# Total GULP energy -78789.520356 kJ/mol
# GULP energy per Si atom -5627.822883 kJ/mol
# Density = 2.595766 g / cm^3
# Si number density = 26.016875 Si / 1000 Ang^3
#
#
#
# Elastic Constant Matrix: (Units=GPa)
#
#
# Indices 1 2 3 4 5 6 
#
# 1 189.9925 27.7915 43.8295 0.0000 37.1481 0.0000
# 2 27.7915 107.1360 15.2097 0.0000 9.8578 0.0000
# 3 43.8295 15.2097 85.7018 0.0000 0.7603 0.0000
# 4 0.0000 0.0000 0.0000 115.0670 0.0000 122.6405
# 5 37.1481 9.8578 0.7603 0.0000 49.6584 0.0000
# 6 0.0000 0.0000 0.0000 122.6405 0.0000 213.9749
#
#
#
# Elastic Compliance Matrix: (Units=1/GPa)
#
#
# Indices 1 2 3 4 5 6 
#
# 1 0.007207 -0.000901 -0.003480 0.000000 -0.005159 0.000000
# 2 -0.000901 0.009866 -0.001279 0.000000 -0.001265 0.000000
# 3 -0.003480 -0.001279 0.013652 0.000000 0.002648 0.000000
# 4 0.000000 0.000000 0.000000 0.022334 0.000000 -0.012801
# 5 -0.005159 -0.001265 0.002648 0.000000 0.024207 0.000000
# 6 0.000000 0.000000 0.000000 -0.012801 0.000000 0.012010
#
#
# Mechanical properties :
#
#
# Convention : Reuss Voigt Hill
#
# Bulk Modulus (GPa) = 51.53473 61.83241 56.68357
# Shear Modulus (GPa) = 46.70158 95.47339 71.08749
#
# Velocity S-wave (km/s) = 4.24140 6.06435 5.23287
# Velocity P-wave (km/s) = 6.62096 8.53540 7.63840
#
# Compressibility (1/GPa) = 0.01940439
#
# Stress axis : x y z
#
# Youngs Moduli (GPa) = 138.76125 101.36284 73.25158
#
# Poissons Ratio (x) = 0.09130 0.25491
# Poissons Ratio (y) = 0.12498 0.09369
# Poissons Ratio (z) = 0.48289 0.12964
#
# Static dielectric constant tensor:
#      x y z
#    x 1.987970 0.000000 -0.036460 
#    y 0.000000 1.941240 0.000000 
#    z -0.036460 0.000000 2.037960 
# 
# From -- ./inp_files/9408.got.cif
#   From: 2010.05.17/outbox.cif.g08.bks.cpg/sg15_5_cif.got.tgz:9408.got - 2010.06.03 18:47:42.
