data_PCOD9307239
_publ_section_title
;
Structure prediction by ZEFSAII (Michael W. Deem and Ramdas Pophale) SiO2 
 PCOD9307239
Probable space group: C 2/C
;
_chemical_formula_sum "Si O2"
_cell_formula_units_Z 40
_cell_length_a 18.632997
_cell_length_b 18.704815
_cell_length_c 14.024414
_cell_angle_alpha 90.000000
_cell_angle_beta 22.671992
_cell_angle_gamma 90.000000
_cell_volume 1884.059320
_symmetry_space_group_name_H-M "C 2/C"
_symmetry_group_IT_number 15
_symmetry_cell_setting 'monoclinic'
loop_
_space_group_symop_operation_xyz
x,y,z
-x,y,1/2-z
-x,-y,-z
x,-y,1/2+z
1/2+x,1/2+y,z
1/2-x,1/2+y,1/2-z
1/2-x,1/2-y,-z
1/2+x,1/2-y,1/2+z
loop_
_atom_site_type_symbol
_atom_site_label
_atom_site_fract_x
_atom_site_fract_y
_atom_site_fract_z
Si Si1 0.707154 0.325873 0.827709
Si Si2 0.500000 0.435115 0.750000
Si Si3 0.792409 0.201242 0.855768
Si Si4 0.671539 0.028498 0.227359
Si Si5 0.000000 0.583255 0.250000
Si Si6 0.721313 0.826815 0.983095
O O1 0.790325 0.253218 0.768111
O O2 0.798993 0.393433 0.764546
O O3 0.719036 0.324562 0.700081
O O4 0.494973 0.329461 0.120648
O O5 0.635343 0.483492 0.516174
O O6 0.353330 0.384458 0.873706
O O7 0.750000 0.250000 0.000000
O O8 0.647220 0.137589 0.022433
O O9 0.602068 0.037206 0.204202
O O10 0.500000 0.000000 0.500000
O O11 0.500000 0.844067 0.250000
O O12 0.750000 0.750000 0.000000
#
# Coordination Sequence:
#
# PCOD9307239 Si02
#       6
#     8   4   8   8   4   8
#     4  12  25  44  75 107 144 194 246 301 382 435
#     4  12  30  51  77 112 152 202 258 308 384 456
#     4  12  22  43  73 111 143 183 243 314 369 435
#     4  12  29  49  74 108 154 203 252 303 381 461
#     4  12  26  45  73 104 158 188 248 312 370 434
#     4  12  27  51  78 109 154 197 253 319 372 445
#
# _framework density 21.230753
#
# number of rings (size 3 to 8) (size 9 to 14) (size 15 to 20)
#    0.000    0.000    5.000    3.600    7.000    0.800 
#    0.000    0.000    0.000    0.000    0.000    0.000 
#    0.000    0.000    0.000    0.000    0.000    0.000 
#
# Total GULP energy -111914.028630 kJ/mol
# GULP energy per Si atom -5595.701431 kJ/mol
# Density = 2.118243 g / cm^3
# Si number density = 21.230753 Si / 1000 Ang^3
#
#
#
# Elastic Constant Matrix: (Units=GPa)
#
#
# Indices 1 2 3 4 5 6 
#
# 1 116.9961 40.8971 27.0885 0.0001 0.6000 0.0048
# 2 40.8971 89.5756 48.8947 -0.0021 -10.9082 0.0045
# 3 27.0885 48.8947 138.3486 0.0019 -16.1378 0.0041
# 4 0.0001 -0.0021 0.0019 27.7954 -0.0008 -48.5440
# 5 0.6000 -10.9082 -16.1378 -0.0008 47.2229 -0.0010
# 6 0.0048 0.0045 0.0041 -48.5440 -0.0010 -6.6821
#
#
#
# Elastic Compliance Matrix: (Units=1/GPa)
#
#
# Indices 1 2 3 4 5 6 
#
# 1 0.010276 -0.004551 -0.000564 0.000000 -0.001375 0.000001
# 2 -0.004551 0.015963 -0.004493 0.000001 0.002210 -0.000001
# 3 -0.000564 -0.004493 0.009172 0.000000 0.002104 0.000001
# 4 0.000000 0.000001 0.000000 0.002628 0.000000 -0.019095
# 5 -0.001375 0.002210 0.002104 0.000000 0.022423 0.000000
# 6 0.000001 -0.000001 0.000001 -0.019095 0.000000 -0.010933
#
#
# Mechanical properties :
#
#
# Convention : Reuss Voigt Hill
#
# Bulk Modulus (GPa) = 61.74715 64.29787 63.02251
# Shear Modulus (GPa) = 67.43758 28.86990 48.15374
#
# Velocity S-wave (km/s) = 5.64208 3.69157 4.76764
# Velocity P-wave (km/s) = 8.46115 6.96572 7.74959
#
# Compressibility (1/GPa) = 0.01619508
#
# Stress axis : x y z
#
# Youngs Moduli (GPa) = 97.31597 62.64439 109.03082
#
# Poissons Ratio (x) = 0.28511 0.06148
# Poissons Ratio (y) = 0.44290 0.48985
# Poissons Ratio (z) = 0.05487 0.28145
#
# Static dielectric constant tensor:
#      x y z
#    x 1.711610 0.000010 -0.016290 
#    y 0.000010 1.715610 0.000000 
#    z -0.016290 0.000000 1.778170 
# 
# From -- ./inp_files/169081.got.cif
#   From: 2010.05.17/outbox.cif.g08.bks.cpg/sg15_85_cif.got.tgz:169081.got - 2010.06.03 18:47:42.
