data_PCOD9307348
_publ_section_title
;
Structure prediction by ZEFSAII (Michael W. Deem and Ramdas Pophale) SiO2 
 PCOD9307348
Probable space group: C 2/C
;
_chemical_formula_sum "Si O2"
_cell_formula_units_Z 56
_cell_length_a 9.175713
_cell_length_b 19.965799
_cell_length_c 16.500960
_cell_angle_alpha 90.000000
_cell_angle_beta 62.828642
_cell_angle_gamma 90.000000
_cell_volume 2689.381137
_symmetry_space_group_name_H-M "C 2/C"
_symmetry_group_IT_number 15
_symmetry_cell_setting 'monoclinic'
loop_
_space_group_symop_operation_xyz
x,y,z
-x,y,1/2-z
-x,-y,-z
x,-y,1/2+z
1/2+x,1/2+y,z
1/2-x,1/2+y,1/2-z
1/2-x,1/2-y,-z
1/2+x,1/2-y,1/2+z
loop_
_atom_site_type_symbol
_atom_site_label
_atom_site_fract_x
_atom_site_fract_y
_atom_site_fract_z
Si Si1 0.500000 0.214223 0.750000
Si Si2 0.109999 0.906056 0.092617
Si Si3 0.720536 0.698586 0.435818
Si Si4 0.742575 0.953437 0.760790
Si Si5 0.406988 0.557895 0.395264
Si Si6 0.750875 0.107158 0.761795
Si Si7 0.000000 0.350108 0.750000
Si Si8 0.111164 0.206003 0.073439
O O1 0.625799 0.164441 0.764934
O O2 0.404474 0.265722 0.832153
O O3 0.207116 0.890392 0.152287
O O4 0.921944 0.889766 0.167209
O O5 0.124576 0.984038 0.064055
O O6 0.175125 0.867054 0.998830
O O7 0.750000 0.750000 0.500000
O O8 0.563454 0.718170 0.423483
O O9 0.875292 0.691308 0.337248
O O10 0.821215 0.945952 0.829288
O O11 0.604303 0.899494 0.780461
O O12 0.896786 0.937267 0.663960
O O13 0.689301 0.030620 0.763269
O O14 0.349452 0.627396 0.447324
O O15 0.250000 0.250000 0.000000
#
# Coordination Sequence:
#
# PCOD9307348 Si02
#       8
#     4   8   8   8   8   8   4   8
#     4  12  23  40  64  93 134 166 216 274 342 383
#     4   9  20  44  70  94 131 175 225 271 330 405
#     4  12  28  45  64 101 136 177 231 271 346 405
#     4   9  18  39  66  96 127 164 221 265 335 396
#     4   9  19  42  69  91 126 174 223 269 326 396
#     4   9  19  39  70  99 129 172 211 280 331 398
#     4  12  25  42  66  95 136 178 210 288 334 401
#     4  12  27  43  65  94 130 174 226 278 328 399
#
# _framework density 20.822634999999998
#
# number of rings (size 3 to 8) (size 9 to 14) (size 15 to 20)
#    0.000    1.714    1.429    4.714    2.000    2.857 
#    5.143    1.429    0.000    0.000    0.000    0.000 
#    0.000    0.000    0.000    0.000    0.000    0.000 
#
# Total GULP energy -156366.447043 kJ/mol
# GULP energy per Si atom -5584.515966 kJ/mol
# Density = 2.077524 g / cm^3
# Si number density = 20.822635 Si / 1000 Ang^3
#
#
#
# Elastic Constant Matrix: (Units=GPa)
#
#
# Indices 1 2 3 4 5 6 
#
# 1 75.5243 37.2993 16.6934 0.0000 -9.4229 0.0000
# 2 37.2993 105.4990 35.6553 0.0000 -13.5075 0.0000
# 3 16.6934 35.6553 111.7136 0.0000 -15.5970 0.0000
# 4 0.0000 0.0000 0.0000 105.3789 0.0000 -93.0016
# 5 -9.4229 -13.5075 -15.5970 0.0000 17.9842 0.0000
# 6 0.0000 0.0000 0.0000 -93.0016 0.0000 163.7398
#
#
#
# Elastic Compliance Matrix: (Units=1/GPa)
#
#
# Indices 1 2 3 4 5 6 
#
# 1 0.016394 -0.005154 -0.000166 0.000000 0.004574 0.000000
# 2 -0.005154 0.012792 -0.002672 0.000000 0.004590 0.000000
# 3 -0.000166 -0.002672 0.010850 0.000000 0.007317 0.000000
# 4 0.000000 0.000000 0.000000 0.019028 0.000000 0.010807
# 5 0.004574 0.004590 0.007317 0.000000 0.067794 0.000000
# 6 0.000000 0.000000 0.000000 0.010807 0.000000 0.012246
#
#
# Mechanical properties :
#
#
# Convention : Reuss Voigt Hill
#
# Bulk Modulus (GPa) = 41.57649 52.44810 47.01230
# Shear Modulus (GPa) = 30.65530 70.95984 50.80757
#
# Velocity S-wave (km/s) = 3.84110 5.84399 4.94501
# Velocity P-wave (km/s) = 6.29940 8.41302 7.43174
#
# Compressibility (1/GPa) = 0.02405205
#
# Stress axis : x y z
#
# Youngs Moduli (GPa) = 60.99898 78.17603 92.16178
#
# Poissons Ratio (x) = 0.40294 0.01530
# Poissons Ratio (y) = 0.31440 0.24622
# Poissons Ratio (z) = 0.01013 0.20886
#
# Static dielectric constant tensor:
#      x y z
#    x 1.725580 0.000000 0.016990 
#    y 0.000000 1.799590 0.000000 
#    z 0.016990 0.000000 1.711880 
# 
# From -- ./inp_files/192060.got.cif
#   From: 2010.05.17/outbox.cif.g08.bks.cpg/sg15_97_cif.got.tgz:192060.got - 2010.06.03 18:47:42.
