data_PCOD9307725
_publ_section_title
;
Structure prediction by ZEFSAII (Michael W. Deem and Ramdas Pophale) SiO2 
 PCOD9307725
Probable space group: C 2/C
;
_chemical_formula_sum "Si O2"
_cell_formula_units_Z 36
_cell_length_a 13.135527
_cell_length_b 15.670970
_cell_length_c 10.187605
_cell_angle_alpha 90.000000
_cell_angle_beta 130.390430
_cell_angle_gamma 90.000000
_cell_volume 1597.235515
_symmetry_space_group_name_H-M "C 2/C"
_symmetry_group_IT_number 15
_symmetry_cell_setting 'monoclinic'
loop_
_space_group_symop_operation_xyz
x,y,z
-x,y,1/2-z
-x,-y,-z
x,-y,1/2+z
1/2+x,1/2+y,z
1/2-x,1/2+y,1/2-z
1/2-x,1/2-y,-z
1/2+x,1/2-y,1/2+z
loop_
_atom_site_type_symbol
_atom_site_label
_atom_site_fract_x
_atom_site_fract_y
_atom_site_fract_z
Si Si1 0.500000 0.960824 0.750000
Si Si2 0.479932 0.183278 0.451293
Si Si3 0.274365 0.675318 0.767755
Si Si4 0.796161 0.606846 0.512922
Si Si5 0.594502 0.505693 0.705873
O O1 0.519332 0.898949 0.642086
O O2 0.371235 0.022170 0.629226
O O3 0.390866 0.260484 0.325052
O O4 0.631893 0.209142 0.602062
O O5 0.409575 0.156562 0.528247
O O6 0.263999 0.658586 0.915540
O O7 0.304417 0.583302 0.731901
O O8 0.680721 0.577548 0.315686
O O9 0.500000 0.523280 0.750000
O O10 0.500000 0.500000 0.500000
#
# Coordination Sequence:
#
# PCOD9307725 Si02
#       5
#     4   8   8   8   8
#     4  12  24  46  76 104 136 200 248 308 360 442
#     4  12  28  44  74 107 154 190 247 306 381 440
#     4  12  27  47  71 110 149 196 241 312 376 443
#     4  12  24  48  77 103 143 195 256 297 370 446
#     4  12  27  46  75 108 147 195 253 309 366 442
#
# _framework density 22.538944000000001
#
# number of rings (size 3 to 8) (size 9 to 14) (size 15 to 20)
#    0.000    0.000    6.667    2.667    4.667    0.889 
#    0.000    0.000    0.000    0.000    0.000    0.000 
#    0.000    0.000    0.000    0.000    0.000    0.000 
#
# Total GULP energy -100855.479740 kJ/mol
# GULP energy per Si atom -5603.082208 kJ/mol
# Density = 2.248764 g / cm^3
# Si number density = 22.538944 Si / 1000 Ang^3
#
#
#
# Elastic Constant Matrix: (Units=GPa)
#
#
# Indices 1 2 3 4 5 6 
#
# 1 94.2188 3.4325 22.3022 0.0000 9.1268 0.0000
# 2 3.4325 55.2493 21.7103 0.0000 13.0334 0.0000
# 3 22.3022 21.7103 138.8942 0.0000 26.6665 0.0000
# 4 0.0000 0.0000 0.0000 28.3117 0.0000 9.2037
# 5 9.1268 13.0334 26.6665 0.0000 41.7868 0.0000
# 6 0.0000 0.0000 0.0000 9.2037 0.0000 32.8756
#
#
#
# Elastic Compliance Matrix: (Units=1/GPa)
#
#
# Indices 1 2 3 4 5 6 
#
# 1 0.011115 0.000274 -0.001533 0.000000 -0.001535 0.000000
# 2 0.000274 0.020122 -0.002248 0.000000 -0.004901 0.000000
# 3 -0.001533 -0.002248 0.008659 0.000000 -0.004490 0.000000
# 4 0.000000 0.000000 0.000000 0.038858 0.000000 -0.010878
# 5 -0.001535 -0.004901 -0.004490 0.000000 0.028660 0.000000
# 6 0.000000 0.000000 0.000000 -0.010878 0.000000 0.033463
#
#
# Mechanical properties :
#
#
# Convention : Reuss Voigt Hill
#
# Bulk Modulus (GPa) = 30.41143 42.58358 36.49750
# Shear Modulus (GPa) = 31.47561 36.65597 34.06579
#
# Velocity S-wave (km/s) = 3.74103 4.03716 3.89191
# Velocity P-wave (km/s) = 5.67297 6.37699 6.03525
#
# Compressibility (1/GPa) = 0.03288238
#
# Stress axis : x y z
#
# Youngs Moduli (GPa) = 89.96740 49.69574 115.48254
#
# Poissons Ratio (x) = -0.01361 0.17702
# Poissons Ratio (y) = -0.02464 0.25964
# Poissons Ratio (z) = 0.13791 0.11173
#
# Static dielectric constant tensor:
#      x y z
#    x 1.780800 0.000000 -0.013090 
#    y 0.000000 1.829860 0.000000 
#    z -0.013090 0.000000 1.861260 
# 
# From -- ./inp_files/39471.got.cif
#   From: 2010.05.17/outbox.cif.g08.bks.cpg/sg15_20_cif.got.tgz:39471.got - 2010.06.03 18:47:42.
