data_PCOD9307592
_publ_section_title
;
Structure prediction by ZEFSAII (Michael W. Deem and Ramdas Pophale) SiO2 
 PCOD9307592
Probable space group: C 2/C
;
_chemical_formula_sum "Si O2"
_cell_formula_units_Z 64
_cell_length_a 19.819977
_cell_length_b 22.392134
_cell_length_c 17.284280
_cell_angle_alpha 90.000000
_cell_angle_beta 21.013274
_cell_angle_gamma 90.000000
_cell_volume 2750.686565
_symmetry_space_group_name_H-M "C 2/C"
_symmetry_group_IT_number 15
_symmetry_cell_setting 'monoclinic'
loop_
_space_group_symop_operation_xyz
x,y,z
-x,y,1/2-z
-x,-y,-z
x,-y,1/2+z
1/2+x,1/2+y,z
1/2-x,1/2+y,1/2-z
1/2-x,1/2-y,-z
1/2+x,1/2-y,1/2+z
loop_
_atom_site_type_symbol
_atom_site_label
_atom_site_fract_x
_atom_site_fract_y
_atom_site_fract_z
Si Si1 0.172875 0.938476 0.268797
Si Si2 0.682269 0.783459 0.650163
Si Si3 0.535143 0.315200 0.035960
Si Si4 0.893175 0.014500 0.944178
Si Si5 0.541790 0.910983 0.792406
Si Si6 0.851676 0.322666 0.562719
Si Si7 0.215200 0.401975 0.182596
Si Si8 0.989574 0.201427 0.169666
O O1 0.222504 0.936206 0.306083
O O2 0.086861 0.873248 0.346079
O O3 0.036373 0.981157 0.364395
O O4 0.376772 0.941338 0.015000
O O5 0.750000 0.750000 0.500000
O O6 0.603428 0.740977 0.803077
O O7 0.868822 0.813484 0.483462
O O8 0.539323 0.838640 0.795209
O O9 0.700776 0.316635 0.794329
O O10 0.000000 0.027411 0.750000
O O11 0.733656 0.064588 0.122491
O O12 0.780586 0.952248 0.052222
O O13 0.500000 0.929110 0.750000
O O14 0.712119 0.325919 0.638196
O O15 0.001698 0.376607 0.411786
O O16 0.971788 0.262340 0.419238
O O17 0.349302 0.345034 0.026675
O O18 0.000000 0.213327 0.250000
#
# Coordination Sequence:
#
# PCOD9307592 Si02
#       8
#     8   8   8   8   8   8   8   8
#     4  12  26  49  78 106 153 200 256 322 382 459
#     4  12  25  39  70 112 156 202 258 310 371 453
#     4  12  24  43  69 109 156 201 249 314 378 452
#     4  12  28  55  78 106 151 204 264 328 383 460
#     4  12  25  46  73 108 149 201 256 310 385 449
#     4  12  26  47  78 115 160 199 251 319 397 472
#     4  12  29  49  79 116 148 203 262 316 396 467
#     4  12  26  49  79 116 158 202 249 319 398 473
#
# _framework density 23.266919000000001
#
# number of rings (size 3 to 8) (size 9 to 14) (size 15 to 20)
#    0.000    0.000    5.000    5.250    1.750    1.500 
#    2.250    0.000    0.000    0.000    0.000    0.000 
#    0.000    0.000    0.000    0.000    0.000    0.000 
#
# Total GULP energy -178738.632647 kJ/mol
# GULP energy per Si atom -5585.582270 kJ/mol
# Density = 2.321396 g / cm^3
# Si number density = 23.266919 Si / 1000 Ang^3
#
#
#
# Elastic Constant Matrix: (Units=GPa)
#
#
# Indices 1 2 3 4 5 6 
#
# 1 75.0380 -8.7253 31.1933 -0.0258 -9.2545 0.0143
# 2 -8.7253 74.9182 47.6605 -0.0417 -3.5963 0.0901
# 3 31.1933 47.6605 139.8037 0.0118 -8.0961 0.0378
# 4 -0.0258 -0.0417 0.0118 30.3399 0.0469 -9.8602
# 5 -9.2545 -3.5963 -8.0961 0.0469 37.9537 -0.0437
# 6 0.0143 0.0901 0.0378 -9.8602 -0.0437 9.4959
#
#
#
# Elastic Compliance Matrix: (Units=1/GPa)
#
#
# Indices 1 2 3 4 5 6 
#
# 1 0.016639 0.005539 -0.005402 0.000008 0.003430 -0.000032
# 2 0.005539 0.018894 -0.007589 -0.000027 0.001522 -0.000178
# 3 -0.005402 -0.007589 0.010963 -0.000011 0.000302 0.000026
# 4 0.000008 -0.000027 -0.000011 0.049748 -0.000005 0.051657
# 5 0.003430 0.001522 0.000302 -0.000005 0.027393 0.000100
# 6 -0.000032 -0.000178 0.000026 0.051657 0.000100 0.158950
#
#
# Mechanical properties :
#
#
# Convention : Reuss Voigt Hill
#
# Bulk Modulus (GPa) = 31.65298 47.77965 39.71632
# Shear Modulus (GPa) = 16.23256 30.19998 23.21627
#
# Velocity S-wave (km/s) = 2.64420 3.60666 3.16226
# Velocity P-wave (km/s) = 4.79127 6.15825 5.51726
#
# Compressibility (1/GPa) = 0.03159260
#
# Stress axis : x y z
#
# Youngs Moduli (GPa) = 60.09797 52.92639 91.21627
#
# Poissons Ratio (x) = -0.29318 0.49279
# Poissons Ratio (y) = -0.33291 0.69224
# Poissons Ratio (z) = 0.32468 0.40166
#
# Static dielectric constant tensor:
#      x y z
#    x 1.893170 -0.000020 -0.073640 
#    y -0.000020 1.957490 0.000070 
#    z -0.073640 0.000070 1.951970 
# 
# From -- ./inp_files/216961.got.cif
#   From: 2010.05.17/outbox.cif.g08.bks.cpg/sg15_109_cif.got.tgz:216961.got - 2010.06.03 18:47:42.
