data_PCOD9307757
_publ_section_title
;
Structure prediction by ZEFSAII (Michael W. Deem and Ramdas Pophale) SiO2 
 PCOD9307757
Probable space group: C 2/C
;
_chemical_formula_sum "Si O2"
_cell_formula_units_Z 52
_cell_length_a 20.722059
_cell_length_b 10.979470
_cell_length_c 13.976398
_cell_angle_alpha 90.000000
_cell_angle_beta 131.681065
_cell_angle_gamma 90.000000
_cell_volume 2374.912266
_symmetry_space_group_name_H-M "C 2/C"
_symmetry_group_IT_number 15
_symmetry_cell_setting 'monoclinic'
loop_
_space_group_symop_operation_xyz
x,y,z
-x,y,1/2-z
-x,-y,-z
x,-y,1/2+z
1/2+x,1/2+y,z
1/2-x,1/2+y,1/2-z
1/2-x,1/2-y,-z
1/2+x,1/2-y,1/2+z
loop_
_atom_site_type_symbol
_atom_site_label
_atom_site_fract_x
_atom_site_fract_y
_atom_site_fract_z
Si Si1 0.741982 0.211896 0.103367
Si Si2 0.110076 0.845350 0.241719
Si Si3 0.293277 0.932055 0.439154
Si Si4 0.418525 0.072633 0.234749
Si Si5 0.895890 0.642690 0.859188
Si Si6 0.000000 0.976029 0.750000
Si Si7 0.941523 0.183597 0.012268
O O1 0.818101 0.279396 0.235322
O O2 0.744322 0.066482 0.118231
O O3 0.750000 0.250000 0.000000
O O4 0.648377 0.252304 0.049024
O O5 0.213221 0.841474 0.348552
O O6 0.072865 0.711386 0.223335
O O7 0.076132 0.937100 0.288216
O O8 0.078336 0.887460 0.105772
O O9 0.334691 0.934492 0.584429
O O10 0.367158 0.893181 0.437350
O O11 0.500000 0.035955 0.250000
O O12 0.408323 0.980682 0.311736
O O13 0.982414 0.721187 0.934749
O O14 0.030280 0.895671 0.869136
#
# Coordination Sequence:
#
# PCOD9307757 Si02
#       7
#     8   8   8   8   8   4   8
#     4  12  24  47  74 107 150 192 248 304 366 443
#     4  12  26  50  71 108 148 198 243 313 375 449
#     4  12  26  46  75 107 149 194 246 304 375 444
#     4  12  26  48  73 107 149 190 248 304 373 445
#     4  12  27  45  77 111 143 199 244 308 371 439
#     4  12  28  46  78 104 146 196 252 308 378 446
#     4  12  26  50  75 109 151 193 255 307 374 449
#
# _framework density 21.895544999999998
#
# number of rings (size 3 to 8) (size 9 to 14) (size 15 to 20)
#    0.000    0.000    3.846    6.462    1.077    1.846 
#    0.000    0.000    0.000    0.000    0.000    0.000 
#    0.000    0.000    0.000    0.000    0.000    0.000 
#
# Total GULP energy -145723.452567 kJ/mol
# GULP energy per Si atom -5604.748176 kJ/mol
# Density = 2.184571 g / cm^3
# Si number density = 21.895545 Si / 1000 Ang^3
#
#
#
# Elastic Constant Matrix: (Units=GPa)
#
#
# Indices 1 2 3 4 5 6 
#
# 1 134.0612 21.3209 13.1901 0.0000 8.3406 0.0000
# 2 21.3209 72.8716 3.3578 0.0000 -1.3463 0.0000
# 3 13.1901 3.3578 63.0380 0.0000 5.6004 0.0000
# 4 0.0000 0.0000 0.0000 30.2749 0.0000 1.1259
# 5 8.3406 -1.3463 5.6004 0.0000 39.9244 0.0000
# 6 0.0000 0.0000 0.0000 1.1259 0.0000 44.7362
#
#
#
# Elastic Compliance Matrix: (Units=1/GPa)
#
#
# Indices 1 2 3 4 5 6 
#
# 1 0.008066 -0.002323 -0.001425 0.000000 -0.001564 0.000000
# 2 -0.002323 0.014439 -0.000374 0.000000 0.001025 0.000000
# 3 -0.001425 -0.000374 0.016360 0.000000 -0.002010 0.000000
# 4 0.000000 0.000000 0.000000 0.033062 0.000000 -0.000832
# 5 -0.001564 0.001025 -0.002010 0.000000 0.025690 0.000000
# 6 0.000000 0.000000 0.000000 -0.000832 0.000000 0.022374
#
#
# Mechanical properties :
#
#
# Convention : Reuss Voigt Hill
#
# Bulk Modulus (GPa) = 32.65812 38.41205 35.53508
# Shear Modulus (GPa) = 36.11599 38.46058 37.28828
#
# Velocity S-wave (km/s) = 4.06577 4.19567 4.13123
# Velocity P-wave (km/s) = 6.08181 6.40725 6.24665
#
# Compressibility (1/GPa) = 0.03062026
#
# Stress axis : x y z
#
# Youngs Moduli (GPa) = 123.97319 69.25847 61.12427
#
# Poissons Ratio (x) = 0.16091 0.08711
# Poissons Ratio (y) = 0.28802 0.02286
# Poissons Ratio (z) = 0.17668 0.02590
#
# Static dielectric constant tensor:
#      x y z
#    x 1.787230 0.000000 0.011030 
#    y 0.000000 1.775300 0.000000 
#    z 0.011030 0.000000 1.784540 
# 
# From -- ./inp_files/167728.got.cif
#   From: 2010.05.17/outbox.cif.g08.bks.cpg/sg15_84_cif.got.tgz:167728.got - 2010.06.03 18:47:42.
