data_PCOD9307323
_publ_section_title
;
Structure prediction by ZEFSAII (Michael W. Deem and Ramdas Pophale) SiO2 
 PCOD9307323
Probable space group: C 2/C
;
_chemical_formula_sum "Si O2"
_cell_formula_units_Z 48
_cell_length_a 16.259529
_cell_length_b 13.608474
_cell_length_c 33.716030
_cell_angle_alpha 90.000000
_cell_angle_beta 16.410253
_cell_angle_gamma 90.000000
_cell_volume 2107.620636
_symmetry_space_group_name_H-M "C 2/C"
_symmetry_group_IT_number 15
_symmetry_cell_setting 'monoclinic'
loop_
_space_group_symop_operation_xyz
x,y,z
-x,y,1/2-z
-x,-y,-z
x,-y,1/2+z
1/2+x,1/2+y,z
1/2-x,1/2+y,1/2-z
1/2-x,1/2-y,-z
1/2+x,1/2-y,1/2+z
loop_
_atom_site_type_symbol
_atom_site_label
_atom_site_fract_x
_atom_site_fract_y
_atom_site_fract_z
Si Si1 0.814325 0.770026 0.922950
Si Si2 0.054389 0.286523 0.840776
Si Si3 0.974995 0.099245 0.682601
Si Si4 0.834582 0.068763 0.544379
Si Si5 0.009054 0.524631 0.541685
Si Si6 0.231032 0.489403 0.722087
O O1 0.683851 0.687567 0.953235
O O2 0.684923 0.876098 0.971376
O O3 0.167053 0.772311 0.759389
O O4 0.750000 0.750000 0.000000
O O5 0.076021 0.214894 0.792175
O O6 0.083593 0.395714 0.810892
O O7 0.750000 0.250000 0.000000
O O8 0.811209 0.065754 0.718792
O O9 0.811562 0.041337 0.792830
O O10 0.306183 0.064963 0.525616
O O11 0.982084 0.039633 0.434269
O O12 0.501941 0.035614 0.699378
O O13 0.000000 0.000000 0.500000
O O14 0.000000 0.500000 0.500000
#
# Coordination Sequence:
#
# PCOD9307323 Si02
#       6
#     8   8   8   8   8   8
#     4  12  22  49  76 101 144 204 246 294 359 446
#     4  12  24  41  75 110 133 184 265 298 335 426
#     4  12  23  44  71 101 140 192 249 288 349 442
#     4  12  26  44  69 108 146 186 233 307 370 419
#     4  12  26  44  69 108 146 186 233 307 370 419
#     4  12  23  44  71 101 140 192 249 288 349 442
#
# _framework density 22.774497
#
# number of rings (size 3 to 8) (size 9 to 14) (size 15 to 20)
#    0.000    0.000    6.667    4.000    0.000    1.333 
#    0.000    8.333    0.000    0.000    0.000    0.000 
#    0.000    0.000    0.000    0.000    0.000    0.000 
#
# Total GULP energy -134082.362554 kJ/mol
# GULP energy per Si atom -5586.765106 kJ/mol
# Density = 2.272266 g / cm^3
# Si number density = 22.774497 Si / 1000 Ang^3
#
#
#
# Elastic Constant Matrix: (Units=GPa)
#
#
# Indices 1 2 3 4 5 6 
#
# 1 90.3307 19.2908 -3.8467 -0.2189 -3.1108 0.0055
# 2 19.2908 100.3858 -12.6760 -0.0657 -7.8612 0.0439
# 3 -3.8467 -12.6760 98.9165 -0.1200 4.8808 -0.1194
# 4 -0.2189 -0.0657 -0.1200 31.7788 -0.0592 -3.1827
# 5 -3.1108 -7.8612 4.8808 -0.0592 32.2256 -0.0679
# 6 0.0055 0.0439 -0.1194 -3.1827 -0.0679 34.8259
#
#
#
# Elastic Compliance Matrix: (Units=1/GPa)
#
#
# Indices 1 2 3 4 5 6 
#
# 1 0.011557 -0.002158 0.000145 0.000078 0.000567 0.000010
# 2 -0.002158 0.010699 0.001177 0.000015 0.002223 -0.000003
# 3 0.000145 0.001177 0.010328 0.000044 -0.001263 0.000035
# 4 0.000078 0.000015 0.000044 0.031759 0.000069 0.002903
# 5 0.000567 0.002223 -0.001263 0.000069 0.031820 0.000061
# 6 0.000010 -0.000003 0.000035 0.002903 0.000061 0.028980
#
#
# Mechanical properties :
#
#
# Convention : Reuss Voigt Hill
#
# Bulk Modulus (GPa) = 32.34839 32.79657 32.57248
# Shear Modulus (GPa) = 36.46458 38.89040 37.67749
#
# Velocity S-wave (km/s) = 4.00573 4.13683 4.07181
# Velocity P-wave (km/s) = 5.96902 6.10325 6.03651
#
# Compressibility (1/GPa) = 0.03091344
#
# Stress axis : x y z
#
# Youngs Moduli (GPa) = 86.52596 93.46592 96.81973
#
# Poissons Ratio (x) = 0.20171 -0.01404
# Poissons Ratio (y) = 0.18673 -0.11400
# Poissons Ratio (z) = -0.01255 -0.11005
#
# Static dielectric constant tensor:
#      x y z
#    x 1.849050 0.000400 0.020480 
#    y 0.000400 1.868100 -0.000440 
#    z 0.020480 -0.000440 1.885870 
# 
# From -- ./inp_files/314041.got.cif
#   From: 2010.05.17/outbox.cif.g08.bks.cpg/sg15_158_cif.got.tgz:314041.got - 2010.06.03 18:47:42.
