data_PCOD9307543
_publ_section_title
;
Structure prediction by ZEFSAII (Michael W. Deem and Ramdas Pophale) SiO2 
 PCOD9307543
Probable space group: C 2/C
;
_chemical_formula_sum "Si O2"
_cell_formula_units_Z 40
_cell_length_a 12.047539
_cell_length_b 7.877162
_cell_length_c 18.243837
_cell_angle_alpha 90.000000
_cell_angle_beta 88.692702
_cell_angle_gamma 90.000000
_cell_volume 1730.897078
_symmetry_space_group_name_H-M "C 2/C"
_symmetry_group_IT_number 15
_symmetry_cell_setting 'monoclinic'
loop_
_space_group_symop_operation_xyz
x,y,z
-x,y,1/2-z
-x,-y,-z
x,-y,1/2+z
1/2+x,1/2+y,z
1/2-x,1/2+y,1/2-z
1/2-x,1/2-y,-z
1/2+x,1/2-y,1/2+z
loop_
_atom_site_type_symbol
_atom_site_label
_atom_site_fract_x
_atom_site_fract_y
_atom_site_fract_z
Si Si1 0.251727 0.158135 0.081155
Si Si2 0.609707 0.864095 0.707546
Si Si3 0.012272 0.071673 0.083073
Si Si4 0.324759 0.573266 0.693568
Si Si5 0.517137 0.975755 0.414962
O O1 0.255162 0.304525 0.141069
O O2 0.142666 0.046972 0.093498
O O3 0.359703 0.047578 0.098082
O O4 0.250000 0.250000 0.000000
O O5 0.500000 0.941746 0.750000
O O6 0.623623 0.676974 0.739976
O O7 0.731155 0.941625 0.719732
O O8 0.571563 0.905547 0.625873
O O9 0.994840 0.274406 0.095604
O O10 0.924697 0.989667 0.139955
O O11 0.000000 0.000000 0.000000
O O12 0.500000 0.000000 0.500000
#
# Coordination Sequence:
#
# PCOD9307543 Si02
#       5
#     8   8   8   8   8
#     4  12  23  50  76 115 160 198 266 325 391 479
#     4  12  29  52  77 116 162 209 270 332 406 476
#     4  12  27  48  83 120 155 207 269 334 406 477
#     4  12  28  50  77 114 157 209 266 330 405 479
#     4  12  25  51  83 112 161 208 266 334 397 474
#
# _framework density 23.109403
#
# number of rings (size 3 to 8) (size 9 to 14) (size 15 to 20)
#    0.000    0.000    8.000    0.000    2.800    4.000 
#    0.000    0.000    0.000    0.000    0.000    0.000 
#    0.000    0.000    0.000    0.000    0.000    0.000 
#
# Total GULP energy -111760.871140 kJ/mol
# GULP energy per Si atom -5588.043557 kJ/mol
# Density = 2.305680 g / cm^3
# Si number density = 23.109403 Si / 1000 Ang^3
#
#
#
# Elastic Constant Matrix: (Units=GPa)
#
#
# Indices 1 2 3 4 5 6 
#
# 1 196.9384 66.5907 52.8516 0.0000 -10.6866 0.0000
# 2 66.5907 80.1079 56.7628 0.0000 5.3354 0.0000
# 3 52.8516 56.7628 132.9238 0.0000 6.8528 0.0000
# 4 0.0000 0.0000 0.0000 44.5001 0.0000 -3.7027
# 5 -10.6866 5.3354 6.8528 0.0000 52.3873 0.0000
# 6 0.0000 0.0000 0.0000 -3.7027 0.0000 50.1753
#
#
#
# Elastic Compliance Matrix: (Units=1/GPa)
#
#
# Indices 1 2 3 4 5 6 
#
# 1 0.007314 -0.005856 -0.000519 0.000000 0.002156 0.000000
# 2 -0.005856 0.022624 -0.007201 0.000000 -0.002557 0.000000
# 3 -0.000519 -0.007201 0.010845 0.000000 -0.000791 0.000000
# 4 0.000000 0.000000 0.000000 0.022611 0.000000 0.001669
# 5 0.002156 -0.002557 -0.000791 0.000000 0.019892 0.000000
# 6 0.000000 0.000000 0.000000 0.001669 0.000000 0.020053
#
#
# Mechanical properties :
#
#
# Convention : Reuss Voigt Hill
#
# Bulk Modulus (GPa) = 73.35722 84.70893 79.03307
# Shear Modulus (GPa) = 37.02772 44.99686 41.01229
#
# Velocity S-wave (km/s) = 4.00719 4.41741 4.21729
# Velocity P-wave (km/s) = 7.29537 7.92169 7.61497
#
# Compressibility (1/GPa) = 0.01363192
#
# Stress axis : x y z
#
# Youngs Moduli (GPa) = 136.72426 44.20135 92.20776
#
# Poissons Ratio (x) = 0.25884 0.04781
# Poissons Ratio (y) = 0.80066 0.66398
# Poissons Ratio (z) = 0.07090 0.31829
#
# Static dielectric constant tensor:
#      x y z
#    x 1.227610 0.000000 0.010390 
#    y 0.000000 2.802040 0.000000 
#    z 0.010390 0.000000 1.827600 
# 
# From -- ./inp_files/235696.got.cif
#   From: 2010.05.17/outbox.cif.g08.bks.cpg/sg15_118_cif.got.tgz:235696.got - 2010.06.03 18:47:42.
