data_PCOD9307778
_publ_section_title
;
Structure prediction by ZEFSAII (Michael W. Deem and Ramdas Pophale) SiO2 
 PCOD9307778
Probable space group: C 2/C
;
_chemical_formula_sum "Si O2"
_cell_formula_units_Z 40
_cell_length_a 7.685419
_cell_length_b 14.694392
_cell_length_c 23.146685
_cell_angle_alpha 90.000000
_cell_angle_beta 141.692331
_cell_angle_gamma 90.000000
_cell_volume 1620.385868
_symmetry_space_group_name_H-M "C 2/C"
_symmetry_group_IT_number 15
_symmetry_cell_setting 'monoclinic'
loop_
_space_group_symop_operation_xyz
x,y,z
-x,y,1/2-z
-x,-y,-z
x,-y,1/2+z
1/2+x,1/2+y,z
1/2-x,1/2+y,1/2-z
1/2-x,1/2-y,-z
1/2+x,1/2-y,1/2+z
loop_
_atom_site_type_symbol
_atom_site_label
_atom_site_fract_x
_atom_site_fract_y
_atom_site_fract_z
Si Si1 0.594997 0.898590 0.015954
Si Si2 0.501470 0.843675 0.117775
Si Si3 0.365043 0.337734 0.990351
Si Si4 0.046887 0.463930 0.694148
Si Si5 0.483982 0.677164 0.183497
O O1 0.869875 0.903867 0.047355
O O2 0.327160 0.852473 0.914770
O O3 0.619258 0.851661 0.084058
O O4 0.500000 0.000000 0.000000
O O5 0.615416 0.750911 0.174900
O O6 0.551182 0.939055 0.163151
O O7 0.162975 0.829346 0.036647
O O8 0.163531 0.391302 0.892742
O O9 0.250000 0.250000 0.000000
O O10 0.343013 0.414322 0.766697
O O11 0.000000 0.475164 0.750000
O O12 0.500000 0.723983 0.250000
#
# Coordination Sequence:
#
# PCOD9307778 Si02
#       5
#     8   8   8   8   8
#     4  12  25  46  76 105 142 192 242 290 351 434
#     4  12  26  49  73 104 146 193 238 295 353 438
#     4  12  25  47  76 106 140 192 242 288 357 433
#     4  12  27  45  71 107 143 187 234 299 363 416
#     4  12  24  48  69 104 148 183 238 303 357 417
#
# _framework density 24.685476999999999
#
# number of rings (size 3 to 8) (size 9 to 14) (size 15 to 20)
#    0.000    0.000    6.000    3.000    5.600    0.000 
#    0.000    1.000    0.000    0.000    0.000    0.000 
#    0.000    0.000    0.000    0.000    0.000    0.000 
#
# Total GULP energy -111713.346378 kJ/mol
# GULP energy per Si atom -5585.667319 kJ/mol
# Density = 2.462929 g / cm^3
# Si number density = 24.685477 Si / 1000 Ang^3
#
#
#
# Elastic Constant Matrix: (Units=GPa)
#
#
# Indices 1 2 3 4 5 6 
#
# 1 87.8313 -33.8381 38.6214 0.0000 -27.2611 0.0000
# 2 -33.8381 94.7147 49.2020 0.0000 7.2964 0.0000
# 3 38.6214 49.2020 93.5080 0.0005 -28.4265 0.0000
# 4 0.0000 0.0000 0.0005 5.3729 0.0001 -2.9553
# 5 -27.2611 7.2964 -28.4265 0.0001 52.8211 0.0000
# 6 0.0000 0.0000 0.0000 -2.9553 0.0000 36.1967
#
#
#
# Elastic Compliance Matrix: (Units=1/GPa)
#
#
# Indices 1 2 3 4 5 6 
#
# 1 0.034302 0.027590 -0.029247 0.000003 -0.001847 0.000000
# 2 0.027590 0.039548 -0.035314 0.000004 -0.010229 0.000000
# 3 -0.029247 -0.035314 0.045732 -0.000005 0.014395 0.000000
# 4 0.000003 0.000004 -0.000005 0.194870 -0.000002 0.015910
# 5 -0.001847 -0.010229 0.014395 -0.000002 0.027138 0.000000
# 6 0.000000 0.000000 0.000000 0.015910 0.000000 0.028926
#
#
# Mechanical properties :
#
#
# Convention : Reuss Voigt Hill
#
# Bulk Modulus (GPa) = 21.91064 42.66938 32.29001
# Shear Modulus (GPa) = 10.87736 33.68273 22.28004
#
# Velocity S-wave (km/s) = 2.10141 3.69789 3.00752
# Velocity P-wave (km/s) = 3.84488 5.96282 5.01689
#
# Compressibility (1/GPa) = 0.04563993
#
# Stress axis : x y z
#
# Youngs Moduli (GPa) = 29.15290 25.28588 21.86670
#
# Poissons Ratio (x) = -0.69764 0.63953
# Poissons Ratio (y) = -0.80433 0.77220
# Poissons Ratio (z) = 0.85262 0.89295
#
# Static dielectric constant tensor:
#      x y z
#    x 2.724320 0.000000 -0.143770 
#    y 0.000000 2.110090 0.000000 
#    z -0.143770 0.000000 2.035520 
# 
# From -- ./inp_files/264529.got.cif
#   From: 2010.05.17/outbox.cif.g08.bks.cpg/sg15_133_cif.got.tgz:264529.got - 2010.06.03 18:47:42.
