data_PCOD9307016
_publ_section_title
;
Structure prediction by ZEFSAII (Michael W. Deem and Ramdas Pophale) SiO2 
 PCOD9307016
Probable space group: C 2/C
;
_chemical_formula_sum "Si O2"
_cell_formula_units_Z 48
_cell_length_a 9.970906
_cell_length_b 15.561882
_cell_length_c 14.888920
_cell_angle_alpha 90.000000
_cell_angle_beta 78.507077
_cell_angle_gamma 90.000000
_cell_volume 2263.932913
_symmetry_space_group_name_H-M "C 2/C"
_symmetry_group_IT_number 15
_symmetry_cell_setting 'monoclinic'
loop_
_space_group_symop_operation_xyz
x,y,z
-x,y,1/2-z
-x,-y,-z
x,-y,1/2+z
1/2+x,1/2+y,z
1/2-x,1/2+y,1/2-z
1/2-x,1/2-y,-z
1/2+x,1/2-y,1/2+z
loop_
_atom_site_type_symbol
_atom_site_label
_atom_site_fract_x
_atom_site_fract_y
_atom_site_fract_z
Si Si1 0.240335 0.511498 0.208578
Si Si2 0.597197 0.047693 0.056314
Si Si3 0.473065 0.658300 0.151114
Si Si4 0.184901 0.983664 0.604184
Si Si5 0.459607 0.629139 0.662208
Si Si6 0.087240 0.740714 0.008852
O O1 0.347520 0.589196 0.169623
O O2 0.221083 0.520270 0.318786
O O3 0.313940 0.418930 0.182048
O O4 0.114879 0.521845 0.157289
O O5 0.743859 0.023018 0.992082
O O6 0.558246 0.146364 0.048622
O O7 0.500000 0.000000 0.000000
O O8 0.500000 0.683757 0.250000
O O9 0.607626 0.606135 0.100340
O O10 0.441819 0.737510 0.090858
O O11 0.065690 0.049966 0.645714
O O12 0.500000 0.675538 0.750000
O O13 0.497992 0.691251 0.576537
O O14 0.250000 0.750000 0.000000
#
# Coordination Sequence:
#
# PCOD9307016 Si02
#       6
#     8   8   8   8   8   8
#     4   9  18  37  63  85 113 153 200 245 285 344
#     4  12  25  39  53  85 124 161 191 228 305 364
#     4   9  18  36  64  92 109 146 207 252 285 332
#     4   9  18  37  63  85 113 153 200 245 285 344
#     4   9  18  36  64  92 109 146 207 252 285 332
#     4  12  21  37  61  89 120 152 195 242 292 347
#
# _framework density 21.202041999999999
#
# number of rings (size 3 to 8) (size 9 to 14) (size 15 to 20)
#    0.000    2.000    3.333    3.000    0.000    3.333 
#    6.000    3.333    0.000    0.000    0.000    0.000 
#    0.000    0.000    0.000    0.000    0.000    0.000 
#
# Total GULP energy -133904.337466 kJ/mol
# GULP energy per Si atom -5579.347394 kJ/mol
# Density = 2.115379 g / cm^3
# Si number density = 21.202042 Si / 1000 Ang^3
#
#
#
# Elastic Constant Matrix: (Units=GPa)
#
#
# Indices 1 2 3 4 5 6 
#
# 1 41.3994 16.4836 27.6667 0.0000 26.1798 0.0000
# 2 16.4836 77.9618 36.4439 0.0000 26.8326 0.0000
# 3 27.6667 36.4439 124.9304 0.0000 30.5815 0.0000
# 4 0.0000 0.0000 0.0000 17.3159 0.0000 13.0972
# 5 26.1798 26.8326 30.5815 0.0000 41.1205 0.0000
# 6 0.0000 0.0000 0.0000 13.0972 0.0000 8.7646
#
#
#
# Elastic Compliance Matrix: (Units=1/GPa)
#
#
# Indices 1 2 3 4 5 6 
#
# 1 0.041649 0.001385 -0.003564 0.000000 -0.024769 0.000000
# 2 0.001385 0.017349 -0.002911 0.000000 -0.010038 0.000000
# 3 -0.003564 -0.002911 0.010542 0.000000 -0.003671 0.000000
# 4 0.000000 0.000000 0.000000 -0.443298 0.000000 0.662437
# 5 -0.024769 -0.010038 -0.003671 0.000000 0.049369 0.000000
# 6 0.000000 0.000000 0.000000 0.662437 0.000000 -0.875809
#
#
# Mechanical properties :
#
#
# Convention : Reuss Voigt Hill
#
# Bulk Modulus (GPa) = 16.84621 45.05333 30.94977
# Shear Modulus (GPa) = -4.27266 24.35335 10.04035
#
# Velocity S-wave (km/s) = -1.42112 3.39282 2.17849
# Velocity P-wave (km/s) = 2.29565 6.05343 4.57788
#
# Compressibility (1/GPa) = 0.05936052
#
# Stress axis : x y z
#
# Youngs Moduli (GPa) = 24.01037 57.63870 94.86289
#
# Poissons Ratio (x) = -0.07984 0.33811
# Poissons Ratio (y) = -0.03326 0.27610
# Poissons Ratio (z) = 0.08558 0.16776
#
# Static dielectric constant tensor:
#      x y z
#    x 1.816130 0.000000 0.005090 
#    y 0.000000 1.695710 0.000000 
#    z 0.005090 0.000000 1.788330 
# 
# From -- ./inp_files/143650.got.cif
#   From: 2010.05.17/outbox.cif.g08.bks.cpg/sg15_72_cif.got.tgz:143650.got - 2010.06.03 18:47:42.
