data_PCOD9307994
_publ_section_title
;
Structure prediction by ZEFSAII (Michael W. Deem and Ramdas Pophale) SiO2 
 PCOD9307994
Probable space group: C 2/C
;
_chemical_formula_sum "Si O2"
_cell_formula_units_Z 36
_cell_length_a 28.621071
_cell_length_b 6.911048
_cell_length_c 15.414072
_cell_angle_alpha 90.000000
_cell_angle_beta 146.349716
_cell_angle_gamma 90.000000
_cell_volume 1689.479093
_symmetry_space_group_name_H-M "C 2/C"
_symmetry_group_IT_number 15
_symmetry_cell_setting 'monoclinic'
loop_
_space_group_symop_operation_xyz
x,y,z
-x,y,1/2-z
-x,-y,-z
x,-y,1/2+z
1/2+x,1/2+y,z
1/2-x,1/2+y,1/2-z
1/2-x,1/2-y,-z
1/2+x,1/2-y,1/2+z
loop_
_atom_site_type_symbol
_atom_site_label
_atom_site_fract_x
_atom_site_fract_y
_atom_site_fract_z
Si Si1 0.811091 0.631744 0.532988
Si Si2 0.832149 0.968942 0.437473
Si Si3 0.500000 0.308376 0.250000
Si Si4 0.701007 0.707119 0.793700
Si Si5 0.946934 0.578819 0.336875
O O1 0.750000 0.750000 0.500000
O O2 0.768308 0.426563 0.447087
O O3 0.898013 0.598167 0.716585
O O4 0.822166 0.759360 0.465233
O O5 0.915842 0.065901 0.606012
O O6 0.753130 0.107552 0.338744
O O7 0.834077 0.926186 0.338380
O O8 0.493362 0.182546 0.328202
O O9 0.624126 0.778913 0.733451
O O10 0.000000 0.500000 0.500000
#
# Coordination Sequence:
#
# PCOD9307994 Si02
#       5
#     8   8   4   8   8
#     4  12  25  47  79 104 146 199 249 305 371 441
#     4  12  27  47  79 109 149 198 249 306 375 447
#     4  12  30  50  70 112 160 192 246 318 374 438
#     4  12  26  51  76 112 147 198 255 302 372 459
#     4  12  30  48  76 112 155 195 252 310 373 446
#
# _framework density 21.308342
#
# number of rings (size 3 to 8) (size 9 to 14) (size 15 to 20)
#    0.000    0.000    6.667    2.000   12.444    0.889 
#    0.000    0.000    0.000    0.000    0.000    0.000 
#    0.000    0.000    0.000    0.000    0.000    0.000 
#
# Total GULP energy -100733.841453 kJ/mol
# GULP energy per Si atom -5596.324525 kJ/mol
# Density = 2.125984 g / cm^3
# Si number density = 21.308342 Si / 1000 Ang^3
#
#
#
# Elastic Constant Matrix: (Units=GPa)
#
#
# Indices 1 2 3 4 5 6 
#
# 1 105.7576 36.2175 25.5039 0.0000 -12.5814 0.0000
# 2 36.2175 93.3177 39.4700 0.0000 -4.8441 0.0000
# 3 25.5039 39.4700 136.8330 0.0000 -20.5118 0.0000
# 4 0.0000 0.0000 0.0000 25.5389 0.0000 -3.8344
# 5 -12.5814 -4.8441 -20.5118 0.0000 33.5109 0.0000
# 6 0.0000 0.0000 0.0000 -3.8344 0.0000 46.9950
#
#
#
# Elastic Compliance Matrix: (Units=1/GPa)
#
#
# Indices 1 2 3 4 5 6 
#
# 1 0.011351 -0.004043 -0.000438 0.000000 0.003409 0.000000
# 2 -0.004043 0.013651 -0.003431 0.000000 -0.001645 0.000000
# 3 -0.000438 -0.003431 0.009117 0.000000 0.004920 0.000000
# 4 0.000000 0.000000 0.000000 0.039641 0.000000 0.003234
# 5 0.003409 -0.001645 0.004920 0.000000 0.033895 0.000000
# 6 0.000000 0.000000 0.000000 0.003234 0.000000 0.021543
#
#
# Mechanical properties :
#
#
# Convention : Reuss Voigt Hill
#
# Bulk Modulus (GPa) = 54.66010 59.81014 57.23512
# Shear Modulus (GPa) = 33.08603 36.85676 34.97140
#
# Velocity S-wave (km/s) = 3.94474 4.16346 4.05558
# Velocity P-wave (km/s) = 6.81584 7.15838 6.98921
#
# Compressibility (1/GPa) = 0.01829488
#
# Stress axis : x y z
#
# Youngs Moduli (GPa) = 88.09411 73.25509 109.68534
#
# Poissons Ratio (x) = 0.29619 0.04809
# Poissons Ratio (y) = 0.35618 0.37629
# Poissons Ratio (z) = 0.03863 0.25131
#
# Static dielectric constant tensor:
#      x y z
#    x 1.798200 0.000000 -0.031740 
#    y 0.000000 1.767380 0.000000 
#    z -0.031740 0.000000 1.764660 
# 
# From -- ./inp_files/180272.got.cif
#   From: 2010.05.17/outbox.cif.g08.bks.cpg/sg15_91_cif.got.tgz:180272.got - 2010.06.03 18:47:42.
