data_PCOD9307042
_publ_section_title
;
Structure prediction by ZEFSAII (Michael W. Deem and Ramdas Pophale) SiO2 
 PCOD9307042
Probable space group: C 2/C
;
_chemical_formula_sum "Si O2"
_cell_formula_units_Z 44
_cell_length_a 22.427075
_cell_length_b 6.823244
_cell_length_c 13.952518
_cell_angle_alpha 90.000000
_cell_angle_beta 48.889163
_cell_angle_gamma 90.000000
_cell_volume 1608.659951
_symmetry_space_group_name_H-M "C 2/C"
_symmetry_group_IT_number 15
_symmetry_cell_setting 'monoclinic'
loop_
_space_group_symop_operation_xyz
x,y,z
-x,y,1/2-z
-x,-y,-z
x,-y,1/2+z
1/2+x,1/2+y,z
1/2-x,1/2+y,1/2-z
1/2-x,1/2-y,-z
1/2+x,1/2-y,1/2+z
loop_
_atom_site_type_symbol
_atom_site_label
_atom_site_fract_x
_atom_site_fract_y
_atom_site_fract_z
Si Si1 0.090332 0.494627 0.824967
Si Si2 0.290749 0.020302 0.649436
Si Si3 0.161469 0.858562 0.647426
Si Si4 0.495056 0.330060 0.900775
Si Si5 0.500000 0.992446 0.250000
Si Si6 0.158959 0.040055 0.440819
O O1 0.141242 0.415048 0.858238
O O2 0.148084 0.632927 0.696301
O O3 0.032060 0.663692 0.929873
O O4 0.045871 0.389109 0.783423
O O5 0.221891 0.046995 0.800590
O O6 0.326297 0.226834 0.577060
O O7 0.241269 0.924542 0.616741
O O8 0.074371 0.932926 0.776122
O O9 0.169162 0.946912 0.534166
O O10 0.542646 0.174179 0.638122
O O11 0.571061 0.520125 0.000592
#
# Coordination Sequence:
#
# PCOD9307042 Si02
#       6
#     8   8   8   8   4   8
#     4   8  16  36  57  91 110 141 213 243 289 337
#     4  12  24  32  56  99 124 154 193 243 316 354
#     4   9  19  40  60  89 115 159 198 252 292 342
#     4   8  15  37  65  83 103 161 217 241 275 339
#     4   6  12  32  56  86  94 144 208 238 274 314
#     4  12  21  40  61  89 128 153 199 254 290 365
#
# _framework density 27.351958
#
# number of rings (size 3 to 8) (size 9 to 14) (size 15 to 20)
#    2.182    0.000    5.455    0.545    0.000    3.636 
#    0.000    0.000    0.000    4.364    4.727    2.545 
#    0.000    0.000    0.000    0.000    0.000    0.000 
#
# Total GULP energy -122534.151732 kJ/mol
# GULP energy per Si atom -5569.734170 kJ/mol
# Density = 2.728970 g / cm^3
# Si number density = 27.351958 Si / 1000 Ang^3
#
#
#
# Elastic Constant Matrix: (Units=GPa)
#
#
# Indices 1 2 3 4 5 6 
#
# 1 183.2690 25.3039 34.0203 -0.0029 9.6638 0.0019
# 2 25.3039 95.4225 14.5499 -0.0090 3.5978 0.0078
# 3 34.0203 14.5499 103.6264 -0.0024 12.9395 0.0029
# 4 -0.0029 -0.0090 -0.0024 17.1586 0.0011 -1.6174
# 5 9.6638 3.5978 12.9395 0.0011 63.1172 -0.0010
# 6 0.0019 0.0078 0.0029 -1.6174 -0.0010 24.2739
#
#
#
# Elastic Compliance Matrix: (Units=1/GPa)
#
#
# Indices 1 2 3 4 5 6 
#
# 1 0.005982 -0.001306 -0.001719 0.000000 -0.000489 0.000000
# 2 -0.001306 0.011000 -0.001090 0.000005 -0.000204 -0.000003
# 3 -0.001719 -0.001090 0.010598 0.000001 -0.001847 -0.000001
# 4 0.000000 0.000005 0.000001 0.058648 -0.000001 0.003908
# 5 -0.000489 -0.000204 -0.001847 -0.000001 0.016309 0.000001
# 6 0.000000 -0.000003 -0.000001 0.003908 0.000001 0.041457
#
#
# Mechanical properties :
#
#
# Convention : Reuss Voigt Hill
#
# Bulk Modulus (GPa) = 51.68225 58.89623 55.28924
# Shear Modulus (GPa) = 31.51114 41.47288 36.49201
#
# Velocity S-wave (km/s) = 3.39789 3.89815 3.65658
# Velocity P-wave (km/s) = 5.85922 6.46840 6.17133
#
# Compressibility (1/GPa) = 0.01934900
#
# Stress axis : x y z
#
# Youngs Moduli (GPa) = 167.17715 90.91017 94.35484
#
# Poissons Ratio (x) = 0.11869 0.16223
# Poissons Ratio (y) = 0.21827 0.10289
# Poissons Ratio (z) = 0.28744 0.09913
#
# Static dielectric constant tensor:
#      x y z
#    x 2.309190 0.000000 0.066980 
#    y 0.000000 2.165800 0.000000 
#    z 0.066980 0.000000 2.395730 
# 
# From -- ./inp_files/165716.got.cif
#   From: 2010.05.17/outbox.cif.g08.bks.cpg/sg15_83_cif.got.tgz:165716.got - 2010.06.03 18:47:42.
