data_PCOD9307868
_publ_section_title
;
Structure prediction by ZEFSAII (Michael W. Deem and Ramdas Pophale) SiO2 
 PCOD9307868
Probable space group: C 2/C
;
_chemical_formula_sum "Si O2"
_cell_formula_units_Z 28
_cell_length_a 5.019572
_cell_length_b 16.818241
_cell_length_c 13.754164
_cell_angle_alpha 90.000000
_cell_angle_beta 111.468924
_cell_angle_gamma 90.000000
_cell_volume 1080.567927
_symmetry_space_group_name_H-M "C 2/C"
_symmetry_group_IT_number 15
_symmetry_cell_setting 'monoclinic'
loop_
_space_group_symop_operation_xyz
x,y,z
-x,y,1/2-z
-x,-y,-z
x,-y,1/2+z
1/2+x,1/2+y,z
1/2-x,1/2+y,1/2-z
1/2-x,1/2-y,-z
1/2+x,1/2-y,1/2+z
loop_
_atom_site_type_symbol
_atom_site_label
_atom_site_fract_x
_atom_site_fract_y
_atom_site_fract_z
Si Si1 0.410153 0.117384 0.342742
Si Si2 0.616403 0.354423 0.436357
Si Si3 0.439775 0.762947 0.132990
Si Si4 0.000000 0.024951 0.750000
O O1 0.500000 0.153076 0.250000
O O2 0.675799 0.112591 0.452110
O O3 0.172118 0.174029 0.359902
O O4 0.269887 0.033271 0.298874
O O5 0.337688 0.311191 0.440138
O O6 0.510925 0.421058 0.347278
O O7 0.795138 0.289045 0.398028
O O8 0.500000 0.794923 0.250000
#
# Coordination Sequence:
#
# PCOD9307868 Si02
#       4
#     8   8   8   4
#     4  12  29  48  77 116 155 198 254 318 379 447
#     4  12  28  50  80 110 151 205 254 309 380 450
#     4  12  24  51  79 111 147 197 263 314 370 445
#     4  12  28  48  76 110 162 200 248 312 380 464
#
# _framework density 25.912299999999998
#
# number of rings (size 3 to 8) (size 9 to 14) (size 15 to 20)
#    0.000    0.000    4.286    4.286    8.000    1.143 
#    0.000    0.000    0.000    0.000    0.000    0.000 
#    0.000    0.000    0.000    0.000    0.000    0.000 
#
# Total GULP energy -78585.437575 kJ/mol
# GULP energy per Si atom -5613.245541 kJ/mol
# Density = 2.585332 g / cm^3
# Si number density = 25.912300 Si / 1000 Ang^3
#
#
#
# Elastic Constant Matrix: (Units=GPa)
#
#
# Indices 1 2 3 4 5 6 
#
# 1 140.5154 56.6726 31.0186 0.0000 -18.9903 0.0000
# 2 56.6726 155.5979 77.6123 0.0000 11.6252 0.0000
# 3 31.0186 77.6123 207.8518 0.0000 7.1019 0.0000
# 4 0.0000 0.0000 0.0000 53.4393 0.0000 16.4430
# 5 -18.9903 11.6252 7.1019 0.0000 60.6535 0.0000
# 6 0.0000 0.0000 0.0000 16.4430 0.0000 33.9996
#
#
#
# Elastic Compliance Matrix: (Units=1/GPa)
#
#
# Indices 1 2 3 4 5 6 
#
# 1 0.009026 -0.003463 -0.000174 0.000000 0.003510 0.000000
# 2 -0.003463 0.009311 -0.002873 0.000000 -0.002532 0.000000
# 3 -0.000174 -0.002873 0.005917 0.000000 -0.000197 0.000000
# 4 0.000000 0.000000 0.000000 0.021984 0.000000 -0.010632
# 5 0.003510 -0.002532 -0.000197 0.000000 0.018094 0.000000
# 6 0.000000 0.000000 0.000000 -0.010632 0.000000 0.034554
#
#
# Mechanical properties :
#
#
# Convention : Reuss Voigt Hill
#
# Bulk Modulus (GPa) = 89.02319 92.73024 90.87671
# Shear Modulus (GPa) = 43.23359 52.19592 47.71475
#
# Velocity S-wave (km/s) = 4.08911 4.49300 4.29580
# Velocity P-wave (km/s) = 7.53157 7.92338 7.72996
#
# Compressibility (1/GPa) = 0.01123303
#
# Stress axis : x y z
#
# Youngs Moduli (GPa) = 110.78921 107.40511 169.01460
#
# Poissons Ratio (x) = 0.37195 0.02938
# Poissons Ratio (y) = 0.38367 0.48562
# Poissons Ratio (z) = 0.01926 0.30860
#
# Static dielectric constant tensor:
#      x y z
#    x 2.022000 0.000000 0.013370 
#    y 0.000000 2.011830 0.000000 
#    z 0.013370 0.000000 2.111000 
# 
# From -- ./inp_files/128081.got.cif
#   From: 2010.05.17/outbox.cif.g08.bks.cpg/sg15_65_cif.got.tgz:128081.got - 2010.06.03 18:47:42.
