data_PCOD9307150
_publ_section_title
;
Structure prediction by ZEFSAII (Michael W. Deem and Ramdas Pophale) SiO2 
 PCOD9307150
Probable space group: C 2/C
;
_chemical_formula_sum "Si O2"
_cell_formula_units_Z 32
_cell_length_a 20.429904
_cell_length_b 13.514586
_cell_length_c 5.781738
_cell_angle_alpha 90.000000
_cell_angle_beta 76.226967
_cell_angle_gamma 90.000000
_cell_volume 1550.446983
_symmetry_space_group_name_H-M "C 2/C"
_symmetry_group_IT_number 15
_symmetry_cell_setting 'monoclinic'
loop_
_space_group_symop_operation_xyz
x,y,z
-x,y,1/2-z
-x,-y,-z
x,-y,1/2+z
1/2+x,1/2+y,z
1/2-x,1/2+y,1/2-z
1/2-x,1/2-y,-z
1/2+x,1/2-y,1/2+z
loop_
_atom_site_type_symbol
_atom_site_label
_atom_site_fract_x
_atom_site_fract_y
_atom_site_fract_z
Si Si1 0.703320 0.451350 0.202297
Si Si2 0.923982 0.362097 0.231319
Si Si3 0.349808 0.070168 0.407820
Si Si4 0.682816 0.758081 0.901788
O O1 0.683973 0.501941 0.467442
O O2 0.679608 0.338397 0.245965
O O3 0.785205 0.449089 0.126699
O O4 0.890219 0.468910 0.324528
O O5 0.881729 0.274329 0.382284
O O6 0.000000 0.361851 0.250000
O O7 0.907613 0.361171 0.974629
O O8 0.316900 0.141779 0.245544
O O9 0.750000 0.750000 0.000000
#
# Coordination Sequence:
#
# PCOD9307150 Si02
#       4
#     8   8   8   8
#     4  12  24  42  66  98 134 179 233 286 333 392
#     4  12  25  41  66 103 144 179 220 278 358 433
#     4  12  22  39  66  98 143 177 218 280 352 422
#     4  12  25  40  64  99 137 184 232 280 343 416
#
# _framework density 20.639209999999999
#
# number of rings (size 3 to 8) (size 9 to 14) (size 15 to 20)
#    0.000    0.000    7.500    3.000    3.500    0.000 
#    0.000    0.000    0.000    1.500    0.000    0.000 
#    0.000    0.000    0.000    0.000    0.000    0.000 
#
# Total GULP energy -89218.403797 kJ/mol
# GULP energy per Si atom -5576.150237 kJ/mol
# Density = 2.059223 g / cm^3
# Si number density = 20.639210 Si / 1000 Ang^3
#
#
#
# Elastic Constant Matrix: (Units=GPa)
#
#
# Indices 1 2 3 4 5 6 
#
# 1 122.1572 54.4500 35.9711 0.0000 9.5059 0.0000
# 2 54.4500 92.1065 40.2743 0.0000 8.0858 0.0000
# 3 35.9711 40.2743 93.3654 0.0000 17.4900 0.0000
# 4 0.0000 0.0000 0.0000 40.3064 0.0000 0.8395
# 5 9.5059 8.0858 17.4900 0.0000 17.9706 0.0000
# 6 0.0000 0.0000 0.0000 0.8395 0.0000 30.9206
#
#
#
# Elastic Compliance Matrix: (Units=1/GPa)
#
#
# Indices 1 2 3 4 5 6 
#
# 1 0.011416 -0.005933 -0.001477 0.000000 -0.001932 0.000000
# 2 -0.005933 0.016468 -0.004914 0.000000 0.000511 0.000000
# 3 -0.001477 -0.004914 0.015701 0.000000 -0.012289 0.000000
# 4 0.000000 0.000000 0.000000 0.024824 0.000000 -0.000674
# 5 -0.001932 0.000511 -0.012289 0.000000 0.068399 0.000000
# 6 0.000000 0.000000 0.000000 -0.000674 0.000000 0.032359
#
#
# Mechanical properties :
#
#
# Convention : Reuss Voigt Hill
#
# Bulk Modulus (GPa) = 52.80452 63.22444 58.01448
# Shear Modulus (GPa) = 24.98398 29.63510 27.30954
#
# Velocity S-wave (km/s) = 3.48301 3.79339 3.64151
# Velocity P-wave (km/s) = 6.46647 7.06301 6.77131
#
# Compressibility (1/GPa) = 0.01893777
#
# Stress axis : x y z
#
# Youngs Moduli (GPa) = 87.59519 60.72299 63.68907
#
# Poissons Ratio (x) = 0.36029 0.09407
# Poissons Ratio (y) = 0.51974 0.31294
# Poissons Ratio (z) = 0.12938 0.29836
#
# Static dielectric constant tensor:
#      x y z
#    x 1.705540 0.000000 0.078630 
#    y 0.000000 1.727670 0.000000 
#    z 0.078630 0.000000 2.179370 
# 
# From -- ./inp_files/9449.got.cif
#   From: 2010.05.17/outbox.cif.g08.bks.cpg/sg15_5_cif.got.tgz:9449.got - 2010.06.03 18:47:42.
