data_PCOD9307783
_publ_section_title
;
Structure prediction by ZEFSAII (Michael W. Deem and Ramdas Pophale) SiO2 
 PCOD9307783
Probable space group: C 2/C
;
_chemical_formula_sum "Si O2"
_cell_formula_units_Z 60
_cell_length_a 16.561413
_cell_length_b 11.479572
_cell_length_c 13.647829
_cell_angle_alpha 90.000000
_cell_angle_beta 102.655936
_cell_angle_gamma 90.000000
_cell_volume 2531.654543
_symmetry_space_group_name_H-M "C 2/C"
_symmetry_group_IT_number 15
_symmetry_cell_setting 'monoclinic'
loop_
_space_group_symop_operation_xyz
x,y,z
-x,y,1/2-z
-x,-y,-z
x,-y,1/2+z
1/2+x,1/2+y,z
1/2-x,1/2+y,1/2-z
1/2-x,1/2-y,-z
1/2+x,1/2-y,1/2+z
loop_
_atom_site_type_symbol
_atom_site_label
_atom_site_fract_x
_atom_site_fract_y
_atom_site_fract_z
Si Si1 0.780312 0.225002 0.265977
Si Si2 0.530518 0.223857 0.659751
Si Si3 0.463286 0.021071 0.096148
Si Si4 0.500000 0.199906 0.250000
Si Si5 0.624178 0.375460 0.247641
Si Si6 0.179561 0.930674 0.895777
Si Si7 0.544902 0.623657 0.514637
Si Si8 0.275701 0.122066 0.049986
O O1 0.870935 0.279847 0.303438
O O2 0.715709 0.329202 0.257096
O O3 0.758684 0.133111 0.347524
O O4 0.772696 0.161502 0.158964
O O5 0.500000 0.290291 0.750000
O O6 0.515801 0.283265 0.550428
O O7 0.475410 0.106490 0.646025
O O8 0.521515 0.112434 0.168608
O O9 0.371213 0.076386 0.074768
O O10 0.500000 0.000000 0.000000
O O11 0.575302 0.282146 0.300115
O O12 0.625461 0.497558 0.301813
O O13 0.577136 0.366270 0.132770
O O14 0.121737 0.871665 0.960571
O O15 0.230684 0.026592 0.969930
O O16 0.500000 0.500000 0.500000
O O17 0.250000 0.250000 0.000000
#
# Coordination Sequence:
#
# PCOD9307783 Si02
#       8
#     8   8   8   4   8   8   8   8
#     4  12  27  49  76 110 158 208 258 320 409 483
#     4  12  26  49  75 112 158 200 255 331 395 466
#     4  12  27  44  75 112 157 203 256 324 404 476
#     4  12  24  48  72 110 148 204 256 318 396 482
#     4  12  27  47  78 108 152 202 262 322 397 487
#     4  12  26  46  77 109 147 198 257 323 388 474
#     4  12  27  49  79 110 147 199 264 328 391 473
#     4  12  25  50  76 111 154 206 262 326 399 487
#
# _framework density 23.699915000000001
#
# number of rings (size 3 to 8) (size 9 to 14) (size 15 to 20)
#    0.000    0.000    4.667    4.800    3.733    2.667 
#    0.000    0.000    0.000    0.000    0.000    0.000 
#    0.000    0.000    0.000    0.000    0.000    0.000 
#
# Total GULP energy -167829.536435 kJ/mol
# GULP energy per Si atom -5594.317881 kJ/mol
# Density = 2.364597 g / cm^3
# Si number density = 23.699915 Si / 1000 Ang^3
#
#
#
# Elastic Constant Matrix: (Units=GPa)
#
#
# Indices 1 2 3 4 5 6 
#
# 1 128.7109 25.6379 24.2504 0.0000 6.4512 0.0000
# 2 25.6379 74.3793 0.4713 0.0000 11.3843 0.0000
# 3 24.2504 0.4713 108.9698 0.0000 -10.6596 0.0000
# 4 0.0000 0.0000 0.0000 37.6249 0.0000 -0.5049
# 5 6.4512 11.3843 -10.6596 0.0000 48.5248 0.0000
# 6 0.0000 0.0000 0.0000 -0.5049 0.0000 43.6548
#
#
#
# Elastic Compliance Matrix: (Units=1/GPa)
#
#
# Indices 1 2 3 4 5 6 
#
# 1 0.008770 -0.002866 -0.002031 0.000000 -0.000940 0.000000
# 2 -0.002866 0.014898 0.000275 0.000000 -0.003054 0.000000
# 3 -0.002031 0.000275 0.009860 0.000000 0.002372 0.000000
# 4 0.000000 0.000000 0.000000 0.026582 0.000000 0.000307
# 5 -0.000940 -0.003054 0.002372 0.000000 0.021970 0.000000
# 6 0.000000 0.000000 0.000000 0.000307 0.000000 0.022911
#
#
# Mechanical properties :
#
#
# Convention : Reuss Voigt Hill
#
# Bulk Modulus (GPa) = 41.18209 45.86435 43.52322
# Shear Modulus (GPa) = 40.87271 43.40758 42.14015
#
# Velocity S-wave (km/s) = 4.15733 4.28430 4.22129
# Velocity P-wave (km/s) = 6.36071 6.62328 6.49332
#
# Compressibility (1/GPa) = 0.02428240
#
# Stress axis : x y z
#
# Youngs Moduli (GPa) = 114.02394 67.12194 101.42302
#
# Poissons Ratio (x) = 0.19239 0.20602
# Poissons Ratio (y) = 0.32682 -0.02786
# Poissons Ratio (z) = 0.23161 -0.01844
#
# Static dielectric constant tensor:
#      x y z
#    x 1.910040 0.000000 -0.016700 
#    y 0.000000 1.917090 0.000000 
#    z -0.016700 0.000000 1.929050 
# 
# From -- ./inp_files/161387.got.cif
#   From: 2010.05.17/outbox.cif.g08.bks.cpg/sg15_81_cif.got.tgz:161387.got - 2010.06.03 18:47:42.
