data_PCOD9307590
_publ_section_title
;
Structure prediction by ZEFSAII (Michael W. Deem and Ramdas Pophale) SiO2 
 PCOD9307590
Probable space group: C 2/C
;
_chemical_formula_sum "Si O2"
_cell_formula_units_Z 60
_cell_length_a 15.848339
_cell_length_b 17.231194
_cell_length_c 17.243423
_cell_angle_alpha 90.000000
_cell_angle_beta 31.127841
_cell_angle_gamma 90.000000
_cell_volume 2434.280353
_symmetry_space_group_name_H-M "C 2/C"
_symmetry_group_IT_number 15
_symmetry_cell_setting 'monoclinic'
loop_
_space_group_symop_operation_xyz
x,y,z
-x,y,1/2-z
-x,-y,-z
x,-y,1/2+z
1/2+x,1/2+y,z
1/2-x,1/2+y,1/2-z
1/2-x,1/2-y,-z
1/2+x,1/2-y,1/2+z
loop_
_atom_site_type_symbol
_atom_site_label
_atom_site_fract_x
_atom_site_fract_y
_atom_site_fract_z
Si Si1 0.130588 0.801435 0.075516
Si Si2 0.500000 0.596738 0.250000
Si Si3 0.894814 0.394245 0.906097
Si Si4 0.710902 0.661638 0.207705
Si Si5 0.719676 0.085116 0.838682
Si Si6 0.452734 0.752562 0.030752
Si Si7 0.180427 0.459877 0.767055
Si Si8 0.914042 0.967849 0.442074
O O1 0.162342 0.700369 0.061518
O O2 0.187231 0.898726 0.022667
O O3 0.000000 0.809950 0.250000
O O4 0.071018 0.789394 0.033515
O O5 0.635649 0.650406 0.182884
O O6 0.429455 0.540324 0.372691
O O7 0.000000 0.429333 0.750000
O O8 0.072332 0.389287 0.817822
O O9 0.816306 0.437538 0.043828
O O10 0.586908 0.695736 0.368081
O O11 0.747273 0.576700 0.212144
O O12 0.871393 0.712875 0.089168
O O13 0.675934 0.175930 0.868884
O O14 0.909775 0.067387 0.678500
O O15 0.617116 0.041142 0.852531
O O16 0.313490 0.482315 0.598479
#
# Coordination Sequence:
#
# PCOD9307590 Si02
#       8
#     8   4   8   8   8   8   8   8
#     4  12  24  43  71 111 156 193 238 311 392 474
#     4  12  30  48  82 108 148 200 272 334 372 454
#     4  12  24  43  68 109 154 192 244 310 377 456
#     4  12  27  52  76 109 151 203 263 323 393 458
#     4  12  26  45  76 111 151 207 258 306 384 467
#     4  12  27  48  76 110 156 204 249 316 397 475
#     4  12  25  47  76 107 157 205 255 318 384 468
#     4  12  26  47  72 114 151 203 258 323 381 459
#
# _framework density 24.647940999999999
#
# number of rings (size 3 to 8) (size 9 to 14) (size 15 to 20)
#    0.000    0.000    6.667    2.400    0.000    1.600 
#    2.400    0.000    0.000    0.000    0.000    0.000 
#    0.000    0.000    0.000    0.000    0.000    0.000 
#
# Total GULP energy -167557.391342 kJ/mol
# GULP energy per Si atom -5585.246378 kJ/mol
# Density = 2.459184 g / cm^3
# Si number density = 24.647941 Si / 1000 Ang^3
#
#
#
# Elastic Constant Matrix: (Units=GPa)
#
#
# Indices 1 2 3 4 5 6 
#
# 1 150.5573 39.1323 53.9520 -0.0008 -8.7425 0.0009
# 2 39.1323 89.3039 53.4755 -0.0008 4.6073 0.0000
# 3 53.9520 53.4755 172.6721 -0.0043 6.1573 0.0028
# 4 -0.0008 -0.0008 -0.0043 42.3554 0.0034 3.2394
# 5 -8.7425 4.6073 6.1573 0.0034 33.7427 -0.0018
# 6 0.0009 0.0000 0.0028 3.2394 -0.0018 56.6524
#
#
#
# Elastic Compliance Matrix: (Units=1/GPa)
#
#
# Indices 1 2 3 4 5 6 
#
# 1 0.008141 -0.002614 -0.001834 0.000000 0.002801 0.000000
# 2 -0.002614 0.014627 -0.003642 0.000000 -0.002010 0.000000
# 3 -0.001834 -0.003642 0.007541 0.000001 -0.001354 0.000000
# 4 0.000000 0.000000 0.000001 0.023713 -0.000003 -0.001356
# 5 0.002801 -0.002010 -0.001354 -0.000003 0.030883 0.000001
# 6 0.000000 0.000000 0.000000 -0.001356 0.000001 0.017729
#
#
# Mechanical properties :
#
#
# Convention : Reuss Voigt Hill
#
# Bulk Modulus (GPa) = 70.77109 78.40589 74.58849
# Shear Modulus (GPa) = 40.47800 44.28166 42.37983
#
# Velocity S-wave (km/s) = 4.05686 4.24319 4.15107
# Velocity P-wave (km/s) = 7.12175 7.47567 7.30085
#
# Compressibility (1/GPa) = 0.01413006
#
# Stress axis : x y z
#
# Youngs Moduli (GPa) = 122.83137 68.36518 132.61674
#
# Poissons Ratio (x) = 0.17868 0.24325
# Poissons Ratio (y) = 0.32103 0.48295
# Poissons Ratio (z) = 0.22530 0.24897
#
# Static dielectric constant tensor:
#      x y z
#    x 2.081350 0.000000 -0.129700 
#    y 0.000000 2.044520 0.000000 
#    z -0.129700 0.000000 2.003560 
# 
# From -- ./inp_files/211735.got.cif
#   From: 2010.05.17/outbox.cif.g08.bks.cpg/sg15_106_cif.got.tgz:211735.got - 2010.06.03 18:47:42.
