data_PCOD9307420
_publ_section_title
;
Structure prediction by ZEFSAII (Michael W. Deem and Ramdas Pophale) SiO2 
 PCOD9307420
Probable space group: C 2/C
;
_chemical_formula_sum "Si O2"
_cell_formula_units_Z 36
_cell_length_a 13.565665
_cell_length_b 6.662618
_cell_length_c 23.116822
_cell_angle_alpha 90.000000
_cell_angle_beta 131.385674
_cell_angle_gamma 90.000000
_cell_volume 1567.600580
_symmetry_space_group_name_H-M "C 2/C"
_symmetry_group_IT_number 15
_symmetry_cell_setting 'monoclinic'
loop_
_space_group_symop_operation_xyz
x,y,z
-x,y,1/2-z
-x,-y,-z
x,-y,1/2+z
1/2+x,1/2+y,z
1/2-x,1/2+y,1/2-z
1/2-x,1/2-y,-z
1/2+x,1/2-y,1/2+z
loop_
_atom_site_type_symbol
_atom_site_label
_atom_site_fract_x
_atom_site_fract_y
_atom_site_fract_z
Si Si1 0.583937 0.682190 0.502950
Si Si2 0.296039 0.134128 0.073942
Si Si3 0.000000 0.188164 0.250000
Si Si4 0.051197 0.584109 0.655812
Si Si5 0.732654 0.017020 0.631062
O O1 0.500000 0.500000 0.500000
O O2 0.723724 0.578774 0.544548
O O3 0.514314 0.770329 0.418642
O O4 0.624827 0.871659 0.558977
O O5 0.242653 0.263104 0.106791
O O6 0.450791 0.098629 0.128238
O O7 0.250000 0.250000 0.000000
O O8 0.060756 0.314973 0.221510
O O9 0.121678 0.064746 0.321566
O O10 0.188573 0.525271 0.680437
#
# Coordination Sequence:
#
# PCOD9307420 Si02
#       5
#     8   8   4   8   8
#     4  12  23  46  79 111 142 186 249 314 362 424
#     4  12  23  43  78 109 145 185 244 310 368 426
#     4  12  30  48  70 108 154 198 240 288 368 464
#     4  12  26  48  76 108 149 192 247 304 372 432
#     4  12  27  49  74 109 146 197 246 301 369 439
#
# _framework density 22.965035
#
# number of rings (size 3 to 8) (size 9 to 14) (size 15 to 20)
#    0.000    0.000    6.667    4.000    0.000    6.222 
#    0.000    0.000    0.000    0.000    0.000    0.000 
#    0.000    0.000    0.000    0.000    0.000    0.000 
#
# Total GULP energy -100675.467925 kJ/mol
# GULP energy per Si atom -5593.081551 kJ/mol
# Density = 2.291277 g / cm^3
# Si number density = 22.965035 Si / 1000 Ang^3
#
#
#
# Elastic Constant Matrix: (Units=GPa)
#
#
# Indices 1 2 3 4 5 6 
#
# 1 124.3407 23.6215 -12.4990 0.0000 -5.9551 0.0000
# 2 23.6215 82.3718 12.2149 0.0000 -1.6350 0.0000
# 3 -12.4990 12.2149 33.7383 0.0000 -6.6395 0.0000
# 4 0.0000 0.0000 0.0000 15.0279 0.0000 -2.0977
# 5 -5.9551 -1.6350 -6.6395 0.0000 41.3498 0.0000
# 6 0.0000 0.0000 0.0000 -2.0977 0.0000 53.0499
#
#
#
# Elastic Compliance Matrix: (Units=1/GPa)
#
#
# Indices 1 2 3 4 5 6 
#
# 1 0.009289 -0.003374 0.005060 0.000000 0.002017 0.000000
# 2 -0.003374 0.014057 -0.006532 0.000000 -0.000979 0.000000
# 3 0.005060 -0.006532 0.035080 0.000000 0.006103 0.000000
# 4 0.000000 0.000000 0.000000 0.066912 0.000000 0.002646
# 5 0.002017 -0.000979 0.006103 0.000000 0.025416 0.000000
# 6 0.000000 0.000000 0.000000 0.002646 0.000000 0.018955
#
#
# Mechanical properties :
#
#
# Convention : Reuss Voigt Hill
#
# Bulk Modulus (GPa) = 20.51990 31.90285 26.21138
# Shear Modulus (GPa) = 25.55652 36.35975 30.95813
#
# Velocity S-wave (km/s) = 3.33955 3.98334 3.67557
# Velocity P-wave (km/s) = 4.88107 5.92268 5.42692
#
# Compressibility (1/GPa) = 0.04873317
#
# Stress axis : x y z
#
# Youngs Moduli (GPa) = 107.65946 71.14012 28.50609
#
# Poissons Ratio (x) = 0.24002 -0.14423
# Poissons Ratio (y) = 0.36323 0.18620
# Poissons Ratio (z) = -0.54470 0.46467
#
# Static dielectric constant tensor:
#      x y z
#    x 1.884800 0.000000 0.026220 
#    y 0.000000 2.001730 0.000000 
#    z 0.026220 0.000000 1.891000 
# 
# From -- ./inp_files/241529.got.cif
#   From: 2010.05.17/outbox.cif.g08.bks.cpg/sg15_121_cif.got.tgz:241529.got - 2010.06.03 18:47:42.
