data_PCOD9307114
_publ_section_title
;
Structure prediction by ZEFSAII (Michael W. Deem and Ramdas Pophale) SiO2 
 PCOD9307114
Probable space group: C 2/C
;
_chemical_formula_sum "Si O2"
_cell_formula_units_Z 44
_cell_length_a 9.688991
_cell_length_b 27.788305
_cell_length_c 17.774174
_cell_angle_alpha 90.000000
_cell_angle_beta 151.423826
_cell_angle_gamma 90.000000
_cell_volume 2289.046808
_symmetry_space_group_name_H-M "C 2/C"
_symmetry_group_IT_number 15
_symmetry_cell_setting 'monoclinic'
loop_
_space_group_symop_operation_xyz
x,y,z
-x,y,1/2-z
-x,-y,-z
x,-y,1/2+z
1/2+x,1/2+y,z
1/2-x,1/2+y,1/2-z
1/2-x,1/2-y,-z
1/2+x,1/2-y,1/2+z
loop_
_atom_site_type_symbol
_atom_site_label
_atom_site_fract_x
_atom_site_fract_y
_atom_site_fract_z
Si Si1 0.910447 0.825193 0.531927
Si Si2 0.791791 0.362472 0.838637
Si Si3 0.955189 0.465063 0.550046
Si Si4 0.373630 0.481293 0.359763
Si Si5 0.500000 0.898682 0.250000
Si Si6 0.674242 0.772035 0.563972
O O1 0.721058 0.864337 0.399104
O O2 0.718709 0.799399 0.505703
O O3 0.989042 0.778320 0.520355
O O4 0.173517 0.851751 0.698762
O O5 0.500000 0.367907 0.750000
O O6 0.944472 0.313562 0.938935
O O7 0.974123 0.410132 0.935600
O O8 0.636994 0.470493 0.430569
O O9 0.000000 0.500000 0.500000
O O10 0.172785 0.480488 0.721007
O O11 0.500000 0.500000 0.500000
O O12 0.180260 0.434328 0.282711
O O13 0.000000 0.760786 0.750000
#
# Coordination Sequence:
#
# PCOD9307114 Si02
#       6
#     8   8   8   8   4   8
#     4   9  17  30  54  88 117 153 205 248 303 369
#     4   9  19  33  58  85 120 154 207 252 309 358
#     4  12  25  43  63  92 128 170 211 262 315 373
#     4  12  25  43  63  90 131 167 212 260 312 379
#     4  12  22  34  64  90 122 160 210 250 316 368
#     4   8  15  30  52  86 115 153 199 259 295 361
#
# _framework density 19.221973999999999
#
# number of rings (size 3 to 8) (size 9 to 14) (size 15 to 20)
#    0.000    2.182    2.727    2.727    5.091    0.000 
#    0.000    0.000    0.000    1.091    9.455    0.000 
#    0.000    0.000    0.000    0.000    0.000    0.000 
#
# Total GULP energy -122704.311457 kJ/mol
# GULP energy per Si atom -5577.468703 kJ/mol
# Density = 1.917822 g / cm^3
# Si number density = 19.221974 Si / 1000 Ang^3
#
#
#
# Elastic Constant Matrix: (Units=GPa)
#
#
# Indices 1 2 3 4 5 6 
#
# 1 72.9596 32.1510 10.3424 0.0000 9.7025 0.0003
# 2 32.1510 140.6387 35.5461 -0.0004 -3.1242 0.0003
# 3 10.3424 35.5461 45.3129 -0.0002 -14.7827 0.0012
# 4 0.0000 -0.0004 -0.0002 39.5505 0.0000 -3.6316
# 5 9.7025 -3.1242 -14.7827 0.0000 29.3181 0.0005
# 6 0.0003 0.0003 0.0012 -3.6316 0.0005 18.2110
#
#
#
# Elastic Compliance Matrix: (Units=1/GPa)
#
#
# Indices 1 2 3 4 5 6 
#
# 1 0.016625 -0.002954 -0.004039 0.000000 -0.007853 0.000000
# 2 -0.002954 0.009630 -0.007453 0.000000 -0.001754 0.000000
# 3 -0.004039 -0.007453 0.034726 0.000000 0.018052 -0.000003
# 4 0.000000 0.000000 0.000000 0.025756 0.000000 0.005136
# 5 -0.007853 -0.001754 0.018052 0.000000 0.045623 -0.000002
# 6 0.000000 0.000000 -0.000003 0.005136 -0.000002 0.055936
#
#
# Mechanical properties :
#
#
# Convention : Reuss Voigt Hill
#
# Bulk Modulus (GPa) = 31.16253 46.11001 38.63627
# Shear Modulus (GPa) = 21.94093 29.47403 25.70748
#
# Velocity S-wave (km/s) = 3.38220 3.92005 3.66102
# Velocity P-wave (km/s) = 5.61244 6.67303 6.16558
#
# Compressibility (1/GPa) = 0.03208982
#
# Stress axis : x y z
#
# Youngs Moduli (GPa) = 60.15052 103.83773 28.79672
#
# Poissons Ratio (x) = 0.30675 0.11631
# Poissons Ratio (y) = 0.17769 0.21461
# Poissons Ratio (z) = 0.24296 0.77386
#
# Static dielectric constant tensor:
#      x y z
#    x 1.718260 0.000000 -0.038550 
#    y 0.000000 1.688220 0.000000 
#    z -0.038550 0.000000 1.696030 
# 
# From -- ./inp_files/138815.got.cif
#   From: 2010.05.17/outbox.cif.g08.bks.cpg/sg15_70_cif.got.tgz:138815.got - 2010.06.03 18:47:42.
