data_PCOD9307550
_publ_section_title
;
Structure prediction by ZEFSAII (Michael W. Deem and Ramdas Pophale) SiO2 
 PCOD9307550
Probable space group: C 2/C
;
_chemical_formula_sum "Si O2"
_cell_formula_units_Z 40
_cell_length_a 13.618865
_cell_length_b 11.854327
_cell_length_c 11.961543
_cell_angle_alpha 90.000000
_cell_angle_beta 66.012171
_cell_angle_gamma 90.000000
_cell_volume 1764.315497
_symmetry_space_group_name_H-M "C 2/C"
_symmetry_group_IT_number 15
_symmetry_cell_setting 'monoclinic'
loop_
_space_group_symop_operation_xyz
x,y,z
-x,y,1/2-z
-x,-y,-z
x,-y,1/2+z
1/2+x,1/2+y,z
1/2-x,1/2+y,1/2-z
1/2-x,1/2-y,-z
1/2+x,1/2-y,1/2+z
loop_
_atom_site_type_symbol
_atom_site_label
_atom_site_fract_x
_atom_site_fract_y
_atom_site_fract_z
Si Si1 0.422623 0.761595 0.059302
Si Si2 0.161426 0.951886 0.037640
Si Si3 0.605447 0.913898 0.647027
Si Si4 0.808021 0.799635 0.261323
Si Si5 0.861469 0.194334 0.484971
O O1 0.319833 0.784390 0.183361
O O2 0.399046 0.637492 0.014997
O O3 0.421866 0.849498 0.956361
O O4 0.533441 0.770480 0.073236
O O5 0.170872 0.888945 0.151111
O O6 0.281663 0.974388 0.931889
O O7 0.113750 0.074014 0.080193
O O8 0.500000 0.970397 0.750000
O O9 0.638792 0.815693 0.719149
O O10 0.853448 0.829847 0.121305
O O11 0.750000 0.250000 0.500000
#
# Coordination Sequence:
#
# PCOD9307550 Si02
#       5
#     8   8   8   8   8
#     4   9  19  39  62  84 118 156 198 239 288 346
#     4   9  21  37  60  91 111 153 207 235 285 353
#     4   9  15  35  65  86 108 156 201 239 281 344
#     4   9  20  39  61  85 120 151 199 245 284 345
#     4  12  24  38  57  89 125 154 192 239 302 342
#
# _framework density 22.671682000000001
#
# number of rings (size 3 to 8) (size 9 to 14) (size 15 to 20)
#    0.000    2.400    2.000    3.000    0.000    4.000 
#    3.600    4.000    0.000    0.000    0.000    0.000 
#    0.000    0.000    0.000    0.000    0.000    0.000 
#
# Total GULP energy -111722.072567 kJ/mol
# GULP energy per Si atom -5586.103628 kJ/mol
# Density = 2.262008 g / cm^3
# Si number density = 22.671682 Si / 1000 Ang^3
#
#
#
# Elastic Constant Matrix: (Units=GPa)
#
#
# Indices 1 2 3 4 5 6 
#
# 1 119.5559 -5.6189 10.6396 0.0000 -13.4326 0.0000
# 2 -5.6189 25.3997 -7.4895 0.0000 10.3389 0.0000
# 3 10.6396 -7.4895 51.2436 0.0000 -21.7513 0.0000
# 4 0.0000 0.0000 0.0000 5.2596 0.0000 -5.4801
# 5 -13.4326 10.3389 -21.7513 0.0000 23.4158 0.0000
# 6 0.0000 0.0000 0.0000 -5.4801 0.0000 8.1956
#
#
#
# Elastic Compliance Matrix: (Units=1/GPa)
#
#
# Indices 1 2 3 4 5 6 
#
# 1 0.008950 -0.000189 0.000543 0.000000 0.005722 0.000000
# 2 -0.000189 0.048335 -0.003304 0.000000 -0.024519 0.000000
# 3 0.000543 -0.003304 0.032475 0.000000 0.031937 0.000000
# 4 0.000000 0.000000 0.000000 0.626857 0.000000 0.419156
# 5 0.005722 -0.024519 0.031937 0.000000 0.086481 0.000000
# 6 0.000000 0.000000 0.000000 0.419156 0.000000 0.402291
#
#
# Mechanical properties :
#
#
# Convention : Reuss Voigt Hill
#
# Bulk Modulus (GPa) = 11.92467 21.25129 16.58798
# Shear Modulus (GPa) = 4.03472 20.61874 12.32673
#
# Velocity S-wave (km/s) = 1.33548 3.01898 2.33428
# Velocity P-wave (km/s) = 2.76571 4.64178 3.82069
#
# Compressibility (1/GPa) = 0.08385979
#
# Stress axis : x y z
#
# Youngs Moduli (GPa) = 111.73208 20.68894 30.79270
#
# Poissons Ratio (x) = 0.00391 -0.01672
# Poissons Ratio (y) = 0.02113 0.10174
# Poissons Ratio (z) = -0.06066 0.06836
#
# Static dielectric constant tensor:
#      x y z
#    x 1.888370 0.000000 -0.016020 
#    y 0.000000 1.837340 0.000000 
#    z -0.016020 0.000000 1.794660 
# 
# From -- ./inp_files/85510.got.cif
#   From: 2010.05.17/outbox.cif.g08.bks.cpg/sg15_43_cif.got.tgz:85510.got - 2010.06.03 18:47:42.
