data_PCOD9307937
_publ_section_title
;
Structure prediction by ZEFSAII (Michael W. Deem and Ramdas Pophale) SiO2 
 PCOD9307937
Probable space group: C 2/C
;
_chemical_formula_sum "Si O2"
_cell_formula_units_Z 36
_cell_length_a 17.749210
_cell_length_b 5.330057
_cell_length_c 14.534513
_cell_angle_alpha 90.000000
_cell_angle_beta 89.079977
_cell_angle_gamma 90.000000
_cell_volume 1374.850177
_symmetry_space_group_name_H-M "C 2/C"
_symmetry_group_IT_number 15
_symmetry_cell_setting 'monoclinic'
loop_
_space_group_symop_operation_xyz
x,y,z
-x,y,1/2-z
-x,-y,-z
x,-y,1/2+z
1/2+x,1/2+y,z
1/2-x,1/2+y,1/2-z
1/2-x,1/2-y,-z
1/2+x,1/2-y,1/2+z
loop_
_atom_site_type_symbol
_atom_site_label
_atom_site_fract_x
_atom_site_fract_y
_atom_site_fract_z
Si Si1 0.726197 0.286254 0.395075
Si Si2 0.472492 0.261212 0.355663
Si Si3 0.000000 0.500000 0.500000
Si Si4 0.106998 0.259690 0.171227
Si Si5 0.129555 0.710687 0.875407
O O1 0.750000 0.250000 0.500000
O O2 0.804850 0.305787 0.339021
O O3 0.680568 0.542524 0.383222
O O4 0.681934 0.035981 0.367577
O O5 0.500000 0.256114 0.250000
O O6 0.533351 0.243249 0.433562
O O7 0.415162 0.487094 0.363182
O O8 0.438098 0.980181 0.381709
O O9 0.931286 0.680331 0.544179
O O10 0.086258 0.270991 0.278767
#
# Coordination Sequence:
#
# PCOD9307937 Si02
#       5
#     8   8   4   8   8
#     4  12  25  46  72 107 145 193 251 311 377 451
#     4  12  26  47  73 109 150 195 251 311 382 457
#     4  12  28  48  76 110 154 198 252 310 384 462
#     4  12  25  48  73 106 148 195 253 313 377 452
#     4  12  26  45  73 107 146 198 248 307 380 451
#
# _framework density 26.184673
#
# number of rings (size 3 to 8) (size 9 to 14) (size 15 to 20)
#    0.000    0.000    2.222    8.000    0.000    1.778 
#    0.000    0.000    0.000    0.000    0.000    0.000 
#    0.000    0.000    0.000    0.000    0.000    0.000 
#
# Total GULP energy -100660.582178 kJ/mol
# GULP energy per Si atom -5592.254565 kJ/mol
# Density = 2.612508 g / cm^3
# Si number density = 26.184673 Si / 1000 Ang^3
#
#
#
# Elastic Constant Matrix: (Units=GPa)
#
#
# Indices 1 2 3 4 5 6 
#
# 1 145.0401 118.2414 19.9461 0.0000 -16.5915 0.0000
# 2 118.2414 257.3647 39.8997 0.0000 3.5710 0.0000
# 3 19.9461 39.8997 166.1683 0.0000 -13.1731 0.0000
# 4 0.0000 0.0000 0.0000 39.6236 0.0000 20.2717
# 5 -16.5915 3.5710 -13.1731 0.0000 45.0295 0.0000
# 6 0.0000 0.0000 0.0000 20.2717 0.0000 54.7260
#
#
#
# Elastic Compliance Matrix: (Units=1/GPa)
#
#
# Indices 1 2 3 4 5 6 
#
# 1 0.012015 -0.005636 0.000305 0.000000 0.004963 0.000000
# 2 -0.005636 0.006697 -0.001165 0.000000 -0.002949 0.000000
# 3 0.000305 -0.001165 0.006426 0.000000 0.002085 0.000000
# 4 0.000000 0.000000 0.000000 0.031139 0.000000 -0.011534
# 5 0.004963 -0.002949 0.002085 0.000000 0.024880 0.000000
# 6 0.000000 0.000000 0.000000 -0.011534 0.000000 0.022545
#
#
# Mechanical properties :
#
#
# Convention : Reuss Voigt Hill
#
# Bulk Modulus (GPa) = 82.34091 102.74974 92.54533
# Shear Modulus (GPa) = 41.40967 53.90821 47.65894
#
# Velocity S-wave (km/s) = 3.98106 4.54229 4.27090
# Velocity P-wave (km/s) = 7.25577 8.17530 7.72922
#
# Compressibility (1/GPa) = 0.01214463
#
# Stress axis : x y z
#
# Youngs Moduli (GPa) = 83.22604 149.32927 155.60637
#
# Poissons Ratio (x) = 0.84167 -0.04739
# Poissons Ratio (y) = 0.46909 0.18131
# Poissons Ratio (z) = -0.02535 0.17399
#
# Static dielectric constant tensor:
#      x y z
#    x 1.990100 0.000000 -0.559510 
#    y 0.000000 2.165210 0.000000 
#    z -0.559510 0.000000 0.156800 
# 
# From -- ./inp_files/165102.got.cif
#   From: 2010.05.17/outbox.cif.g08.bks.cpg/sg15_83_cif.got.tgz:165102.got - 2010.06.03 18:47:42.
