data_PCOD9307761
_publ_section_title
;
Structure prediction by ZEFSAII (Michael W. Deem and Ramdas Pophale) SiO2 
 PCOD9307761
Probable space group: C 2/C
;
_chemical_formula_sum "Si O2"
_cell_formula_units_Z 48
_cell_length_a 24.513840
_cell_length_b 12.911533
_cell_length_c 13.025584
_cell_angle_alpha 90.000000
_cell_angle_beta 146.711406
_cell_angle_gamma 90.000000
_cell_volume 2262.794477
_symmetry_space_group_name_H-M "C 2/C"
_symmetry_group_IT_number 15
_symmetry_cell_setting 'monoclinic'
loop_
_space_group_symop_operation_xyz
x,y,z
-x,y,1/2-z
-x,-y,-z
x,-y,1/2+z
1/2+x,1/2+y,z
1/2-x,1/2+y,1/2-z
1/2-x,1/2-y,-z
1/2+x,1/2-y,1/2+z
loop_
_atom_site_type_symbol
_atom_site_label
_atom_site_fract_x
_atom_site_fract_y
_atom_site_fract_z
Si Si1 0.686871 0.487290 0.044039
Si Si2 0.512620 0.232324 0.462713
Si Si3 0.500000 0.373769 0.250000
Si Si4 0.500000 0.886207 0.250000
Si Si5 0.863315 0.563479 0.963262
Si Si6 0.184822 0.354249 0.885778
Si Si7 0.363508 0.721017 0.151508
O O1 0.756142 0.463817 0.249855
O O2 0.753362 0.553027 0.068274
O O3 0.594315 0.558006 0.925915
O O4 0.645310 0.382224 0.929273
O O5 0.479273 0.304715 0.316631
O O6 0.588769 0.149268 0.535247
O O7 0.411328 0.174314 0.334131
O O8 0.569644 0.292674 0.641531
O O9 0.420832 0.813389 0.183133
O O10 0.564591 0.964615 0.420733
O O11 0.853050 0.608098 0.062183
O O12 0.250000 0.250000 0.000000
O O13 0.250000 0.750000 0.000000
#
# Coordination Sequence:
#
# PCOD9307761 Si02
#       7
#     8   8   4   4   8   8   8
#     4  12  28  45  72 107 144 187 238 294 369 430
#     4  12  24  49  73 102 145 184 240 299 350 436
#     4  12  26  48  68 106 142 186 232 292 362 430
#     4  12  26  48  72 108 148 196 244 300 362 436
#     4  12  25  45  78 105 141 191 247 295 355 433
#     4  12  24  47  75 111 137 192 244 299 360 433
#     4  12  28  46  71 108 148 187 239 304 368 426
#
# _framework density 21.212707999999999
#
# number of rings (size 3 to 8) (size 9 to 14) (size 15 to 20)
#    0.000    0.000    6.667    2.500    4.667    6.000 
#    0.000    0.000    0.000    0.000    0.000    0.000 
#    0.000    0.000    0.000    0.000    0.000    0.000 
#
# Total GULP energy -134351.572197 kJ/mol
# GULP energy per Si atom -5597.982175 kJ/mol
# Density = 2.116443 g / cm^3
# Si number density = 21.212708 Si / 1000 Ang^3
#
#
#
# Elastic Constant Matrix: (Units=GPa)
#
#
# Indices 1 2 3 4 5 6 
#
# 1 38.6784 20.0774 20.8270 0.0000 11.9483 0.0000
# 2 20.0774 112.1927 47.1643 0.0000 0.4916 0.0000
# 3 20.8270 47.1643 168.2822 0.0000 -0.3745 0.0000
# 4 0.0000 0.0000 0.0000 45.1291 0.0000 16.0668
# 5 11.9483 0.4916 -0.3745 0.0000 40.1663 0.0000
# 6 0.0000 0.0000 0.0000 16.0668 0.0000 21.7267
#
#
#
# Elastic Compliance Matrix: (Units=1/GPa)
#
#
# Indices 1 2 3 4 5 6 
#
# 1 0.032765 -0.004656 -0.002772 0.000000 -0.009715 0.000000
# 2 -0.004656 0.010766 -0.002438 0.000000 0.001230 0.000000
# 3 -0.002772 -0.002438 0.006971 0.000000 0.000919 0.000000
# 4 0.000000 0.000000 0.000000 0.030077 0.000000 -0.022242
# 5 -0.009715 0.001230 0.000919 0.000000 0.027780 0.000000
# 6 0.000000 0.000000 0.000000 -0.022242 0.000000 0.062474
#
#
# Mechanical properties :
#
#
# Convention : Reuss Voigt Hill
#
# Bulk Modulus (GPa) = 32.49933 55.03228 43.76580
# Shear Modulus (GPa) = 24.89774 36.81006 30.85390
#
# Velocity S-wave (km/s) = 3.42967 4.17019 3.81793
# Velocity P-wave (km/s) = 5.57113 7.01333 6.33341
#
# Compressibility (1/GPa) = 0.03076987
#
# Stress axis : x y z
#
# Youngs Moduli (GPa) = 30.52075 92.88431 143.45311
#
# Poissons Ratio (x) = 0.43243 0.39763
# Poissons Ratio (y) = 0.14209 0.34981
# Poissons Ratio (z) = 0.08460 0.22650
#
# Static dielectric constant tensor:
#      x y z
#    x 1.897260 0.000000 -0.014320 
#    y 0.000000 1.751970 0.000000 
#    z -0.014320 0.000000 1.723240 
# 
# From -- ./inp_files/151880.got.cif
#   From: 2010.05.17/outbox.cif.g08.bks.cpg/sg15_76_cif.got.tgz:151880.got - 2010.06.03 18:47:42.
