data_PCOD9307317
_publ_section_title
;
Structure prediction by ZEFSAII (Michael W. Deem and Ramdas Pophale) SiO2 
 PCOD9307317
Probable space group: C 2/C
;
_chemical_formula_sum "Si O2"
_cell_formula_units_Z 44
_cell_length_a 20.963998
_cell_length_b 10.374887
_cell_length_c 8.232085
_cell_angle_alpha 90.000000
_cell_angle_beta 65.211273
_cell_angle_gamma 90.000000
_cell_volume 1625.497130
_symmetry_space_group_name_H-M "C 2/C"
_symmetry_group_IT_number 15
_symmetry_cell_setting 'monoclinic'
loop_
_space_group_symop_operation_xyz
x,y,z
-x,y,1/2-z
-x,-y,-z
x,-y,1/2+z
1/2+x,1/2+y,z
1/2-x,1/2+y,1/2-z
1/2-x,1/2-y,-z
1/2+x,1/2-y,1/2+z
loop_
_atom_site_type_symbol
_atom_site_label
_atom_site_fract_x
_atom_site_fract_y
_atom_site_fract_z
Si Si1 0.572663 0.464568 0.767763
Si Si2 0.670035 0.406469 0.378569
Si Si3 0.772495 0.640535 0.243486
Si Si4 0.000000 0.396776 0.250000
Si Si5 0.533819 0.759644 0.533744
Si Si6 0.136782 0.448255 0.560621
O O1 0.500000 0.476550 0.750000
O O2 0.627378 0.393303 0.590614
O O3 0.555713 0.378436 0.942493
O O4 0.387239 0.409959 0.206039
O O5 0.705399 0.548102 0.336400
O O6 0.726282 0.291786 0.300328
O O7 0.817465 0.562709 0.062369
O O8 0.816232 0.626543 0.361834
O O9 0.989579 0.318380 0.428899
O O10 0.932566 0.485092 0.293058
O O11 0.603922 0.845882 0.472192
O O12 0.500000 0.758853 0.750000
#
# Coordination Sequence:
#
# PCOD9307317 Si02
#       6
#     8   8   8   4   8   8
#     4  12  30  55  88 125 179 227 289 378 447 523
#     4  12  32  58  85 128 173 234 302 358 447 534
#     4  12  30  52  88 121 172 235 296 363 434 532
#     4  12  22  48  76 134 178 232 286 372 430 526
#     4  12  26  46  84 126 177 229 291 354 445 521
#     4  12  25  46  82 124 172 228 297 359 436 517
#
# _framework density 27.068642000000001
#
# number of rings (size 3 to 8) (size 9 to 14) (size 15 to 20)
#    0.000    0.000    3.636    4.364    7.636    3.636 
#    1.636    0.000    0.000    0.000    0.000    0.000 
#    0.000    0.000    0.000    0.000    0.000    0.000 
#
# Total GULP energy -123438.803360 kJ/mol
# GULP energy per Si atom -5610.854698 kJ/mol
# Density = 2.700703 g / cm^3
# Si number density = 27.068642 Si / 1000 Ang^3
#
#
#
# Elastic Constant Matrix: (Units=GPa)
#
#
# Indices 1 2 3 4 5 6 
#
# 1 130.1963 49.0693 55.1783 0.0000 10.5084 0.0000
# 2 49.0693 157.3497 55.6268 0.0000 3.8313 0.0000
# 3 55.1783 55.6268 167.7771 0.0000 4.0455 0.0000
# 4 0.0000 0.0000 0.0000 31.6585 0.0000 -6.0960
# 5 10.5084 3.8313 4.0455 0.0000 45.1028 0.0000
# 6 0.0000 0.0000 0.0000 -6.0960 0.0000 41.9091
#
#
#
# Elastic Compliance Matrix: (Units=1/GPa)
#
#
# Indices 1 2 3 4 5 6 
#
# 1 0.009655 -0.002106 -0.002432 0.000000 -0.001852 0.000000
# 2 -0.002106 0.007666 -0.001849 0.000000 0.000005 0.000000
# 3 -0.002432 -0.001849 0.007372 0.000000 0.000063 0.000000
# 4 0.000000 0.000000 0.000000 0.032497 0.000000 0.004727
# 5 -0.001852 0.000005 0.000063 0.000000 0.022597 0.000000
# 6 0.000000 0.000000 0.000000 0.004727 0.000000 0.024549
#
#
# Mechanical properties :
#
#
# Convention : Reuss Voigt Hill
#
# Bulk Modulus (GPa) = 83.91019 86.11910 85.01465
# Shear Modulus (GPa) = 41.29423 43.43066 42.36245
#
# Velocity S-wave (km/s) = 3.91005 4.00992 3.96030
# Velocity P-wave (km/s) = 7.17293 7.30229 7.23790
#
# Compressibility (1/GPa) = 0.01191750
#
# Stress axis : x y z
#
# Youngs Moduli (GPa) = 103.57615 130.45404 135.65193
#
# Poissons Ratio (x) = 0.27471 0.32996
# Poissons Ratio (y) = 0.21811 0.25083
# Poissons Ratio (z) = 0.25194 0.24122
#
# Static dielectric constant tensor:
#      x y z
#    x 2.140780 0.000000 0.024440 
#    y 0.000000 2.163460 0.000000 
#    z 0.024440 0.000000 2.105390 
# 
# From -- ./inp_files/61410.got.cif
#   From: 2010.05.17/outbox.cif.g08.bks.cpg/sg15_31_cif.got.tgz:61410.got - 2010.06.03 18:47:42.
