data_PCOD9307891
_publ_section_title
;
Structure prediction by ZEFSAII (Michael W. Deem and Ramdas Pophale) SiO2 
 PCOD9307891
Probable space group: C 2/C
;
_chemical_formula_sum "Si O2"
_cell_formula_units_Z 44
_cell_length_a 21.438511
_cell_length_b 4.916161
_cell_length_c 22.148157
_cell_angle_alpha 90.000000
_cell_angle_beta 133.236006
_cell_angle_gamma 90.000000
_cell_volume 1700.633367
_symmetry_space_group_name_H-M "C 2/C"
_symmetry_group_IT_number 15
_symmetry_cell_setting 'monoclinic'
loop_
_space_group_symop_operation_xyz
x,y,z
-x,y,1/2-z
-x,-y,-z
x,-y,1/2+z
1/2+x,1/2+y,z
1/2-x,1/2+y,1/2-z
1/2-x,1/2-y,-z
1/2+x,1/2-y,1/2+z
loop_
_atom_site_type_symbol
_atom_site_label
_atom_site_fract_x
_atom_site_fract_y
_atom_site_fract_z
Si Si1 0.500000 0.313231 0.750000
Si Si2 0.531921 0.921715 0.453186
Si Si3 0.538863 0.582102 0.650189
Si Si4 0.718397 0.883326 0.081352
Si Si5 0.308418 0.861579 0.095661
Si Si6 0.796200 0.179152 0.297338
O O1 0.524878 0.498946 0.709453
O O2 0.587950 0.160190 0.830645
O O3 0.473344 0.101536 0.370307
O O4 0.626481 0.018326 0.497600
O O5 0.500000 0.000000 0.500000
O O6 0.524845 0.602857 0.433685
O O7 0.628423 0.478716 0.684765
O O8 0.775719 0.667097 0.083673
O O9 0.691786 0.735186 0.124872
O O10 0.773977 0.156291 0.124930
O O11 0.250000 0.750000 0.000000
O O12 0.782100 0.473962 0.260719
#
# Coordination Sequence:
#
# PCOD9307891 Si02
#       6
#     4   8   8   8   8   8
#     4  12  28  52  78 114 164 212 268 316 404 478
#     4  12  25  46  76 113 151 203 255 331 400 466
#     4  12  27  45  74 111 152 203 262 318 395 478
#     4  12  25  46  75 106 149 192 261 320 388 459
#     4  12  28  50  77 111 155 210 260 321 385 476
#     4  12  25  43  68 104 144 191 251 322 392 447
#
# _framework density 25.872714999999999
#
# number of rings (size 3 to 8) (size 9 to 14) (size 15 to 20)
#    0.000    0.000    1.818    8.727    2.545    4.364 
#    0.000    0.000    0.000    0.000    0.000    0.000 
#    0.000    0.000    0.000    0.000    0.000    0.000 
#
# Total GULP energy -123206.345585 kJ/mol
# GULP energy per Si atom -5600.288436 kJ/mol
# Density = 2.581383 g / cm^3
# Si number density = 25.872715 Si / 1000 Ang^3
#
#
#
# Elastic Constant Matrix: (Units=GPa)
#
#
# Indices 1 2 3 4 5 6 
#
# 1 132.6362 23.7098 54.1661 0.0128 21.2826 -0.0023
# 2 23.7098 117.6069 17.9682 -0.0988 20.0804 0.1893
# 3 54.1661 17.9682 119.0525 0.0158 24.1528 -0.0121
# 4 0.0128 -0.0988 0.0158 -12.5830 -0.0560 86.3453
# 5 21.2826 20.0804 24.1528 -0.0560 61.8988 0.0896
# 6 -0.0023 0.1893 -0.0121 86.3453 0.0896 -85.8649
#
#
#
# Elastic Compliance Matrix: (Units=1/GPa)
#
#
# Indices 1 2 3 4 5 6 
#
# 1 0.009551 -0.001090 -0.003895 0.000001 -0.001411 -0.000003
# 2 -0.001090 0.009202 -0.000395 -0.000010 -0.002457 0.000008
# 3 -0.003895 -0.000395 0.010788 0.000002 -0.002742 -0.000003
# 4 0.000001 -0.000010 0.000002 0.013469 -0.000005 0.013544
# 5 -0.001411 -0.002457 -0.002742 -0.000005 0.018507 0.000009
# 6 -0.000003 0.000008 -0.000003 0.013544 0.000009 0.001974
#
#
# Mechanical properties :
#
#
# Convention : Reuss Voigt Hill
#
# Bulk Modulus (GPa) = 53.24075 62.33154 57.78614
# Shear Modulus (GPa) = 62.10371 10.92026 36.51199
#
# Velocity S-wave (km/s) = 4.90466 2.05668 3.76069
# Velocity P-wave (km/s) = 7.25926 5.45745 6.42186
#
# Compressibility (1/GPa) = 0.01878261
#
# Stress axis : x y z
#
# Youngs Moduli (GPa) = 104.69930 108.66834 92.69878
#
# Poissons Ratio (x) = 0.11840 0.36105
# Poissons Ratio (y) = 0.11408 0.03659
# Poissons Ratio (z) = 0.40780 0.04290
#
# Static dielectric constant tensor:
#      x y z
#    x 1.441080 -0.000200 0.100320 
#    y -0.000200 1.999310 0.000040 
#    z 0.100320 0.000040 2.132240 
# 
# From -- ./inp_files/281262.got.cif
#   From: 2010.05.17/outbox.cif.g08.bks.cpg/sg15_141_cif.got.tgz:281262.got - 2010.06.03 18:47:42.
