data_PCOD9307104
_publ_section_title
;
Structure prediction by ZEFSAII (Michael W. Deem and Ramdas Pophale) SiO2 
 PCOD9307104
Probable space group: C 2/C
;
_chemical_formula_sum "Si O2"
_cell_formula_units_Z 36
_cell_length_a 14.229954
_cell_length_b 9.058577
_cell_length_c 20.606288
_cell_angle_alpha 90.000000
_cell_angle_beta 32.562315
_cell_angle_gamma 90.000000
_cell_volume 1429.618968
_symmetry_space_group_name_H-M "C 2/C"
_symmetry_group_IT_number 15
_symmetry_cell_setting 'monoclinic'
loop_
_space_group_symop_operation_xyz
x,y,z
-x,y,1/2-z
-x,-y,-z
x,-y,1/2+z
1/2+x,1/2+y,z
1/2-x,1/2+y,1/2-z
1/2-x,1/2-y,-z
1/2+x,1/2-y,1/2+z
loop_
_atom_site_type_symbol
_atom_site_label
_atom_site_fract_x
_atom_site_fract_y
_atom_site_fract_z
Si Si1 0.000000 0.183110 0.750000
Si Si2 0.828589 0.544499 0.414384
Si Si3 0.922281 0.007466 0.684547
Si Si4 0.837953 0.114001 0.602337
Si Si5 0.069247 0.293559 0.066986
O O1 0.101972 0.296373 0.644584
O O2 0.876828 0.075043 0.780301
O O3 0.628121 0.545446 0.554819
O O4 0.812893 0.453889 0.355177
O O5 0.942828 0.460605 0.401888
O O6 0.817225 0.095832 0.690935
O O7 0.929351 0.829720 0.673287
O O8 0.898327 0.259947 0.528027
O O9 0.000000 0.000000 0.500000
O O10 0.250000 0.250000 0.000000
#
# Coordination Sequence:
#
# PCOD9307104 Si02
#       5
#     4   8   8   8   8
#     4  12  22  30  46  76 108 132 154 204 254 292
#     4   9  18  34  51  73  99 128 167 205 242 293
#     4   9  18  34  53  72  98 132 165 201 248 291
#     4   7  13  31  55  70  90 126 163 203 242 283
#     4   7  13  30  55  70  87 127 166 198 236 287
#
# _framework density 25.181536999999999
#
# number of rings (size 3 to 8) (size 9 to 14) (size 15 to 20)
#    0.000    4.444    0.000    0.667    0.000    0.889 
#    0.000   14.444    0.000    0.000    0.000    1.556 
#    0.000    0.000    0.000    0.000    0.000    0.000 
#
# Total GULP energy -100294.319795 kJ/mol
# GULP energy per Si atom -5571.906655 kJ/mol
# Density = 2.512422 g / cm^3
# Si number density = 25.181537 Si / 1000 Ang^3
#
#
#
# Elastic Constant Matrix: (Units=GPa)
#
#
# Indices 1 2 3 4 5 6 
#
# 1 132.5227 72.9397 35.4724 0.0001 34.6225 0.0000
# 2 72.9397 136.5324 34.0997 0.0001 13.8383 -0.0001
# 3 35.4724 34.0997 32.8168 0.0002 -9.3628 0.0000
# 4 0.0001 0.0001 0.0002 30.1830 -0.0001 12.9969
# 5 34.6225 13.8383 -9.3628 -0.0001 52.1023 0.0000
# 6 0.0000 -0.0001 0.0000 12.9969 0.0000 48.4532
#
#
#
# Elastic Compliance Matrix: (Units=1/GPa)
#
#
# Indices 1 2 3 4 5 6 
#
# 1 0.019509 -0.003202 -0.022363 0.000000 -0.016132 0.000000
# 2 -0.003202 0.011653 -0.009406 0.000000 -0.002658 0.000000
# 3 -0.022363 -0.009406 0.073120 0.000000 0.030498 0.000000
# 4 0.000000 0.000000 0.000000 0.037458 0.000000 -0.010047
# 5 -0.016132 -0.002658 0.030498 0.000000 0.036099 0.000000
# 6 0.000000 0.000000 0.000000 -0.010047 0.000000 0.023334
#
#
# Mechanical properties :
#
#
# Convention : Reuss Voigt Hill
#
# Bulk Modulus (GPa) = 29.12041 65.21061 47.16551
# Shear Modulus (GPa) = 17.69526 36.77171 27.23348
#
# Velocity S-wave (km/s) = 2.65374 3.82549 3.29216
# Velocity P-wave (km/s) = 4.58029 6.74276 5.76385
#
# Compressibility (1/GPa) = 0.03434017
#
# Stress axis : x y z
#
# Youngs Moduli (GPa) = 51.25962 85.81142 13.67610
#
# Poissons Ratio (x) = 0.27475 0.30584
# Poissons Ratio (y) = 0.16412 0.12864
# Poissons Ratio (z) = 1.14631 0.80718
#
# Static dielectric constant tensor:
#      x y z
#    x 2.020090 0.000000 0.049430 
#    y 0.000000 2.078160 0.000000 
#    z 0.049430 0.000000 2.250390 
# 
# From -- ./inp_files/241875.got.cif
#   From: 2010.05.17/outbox.cif.g08.bks.cpg/sg15_121_cif.got.tgz:241875.got - 2010.06.03 18:47:42.
