data_PCOD9307934
_publ_section_title
;
Structure prediction by ZEFSAII (Michael W. Deem and Ramdas Pophale) SiO2 
 PCOD9307934
Probable space group: C 2/C
;
_chemical_formula_sum "Si O2"
_cell_formula_units_Z 44
_cell_length_a 6.740691
_cell_length_b 31.001211
_cell_length_c 11.328416
_cell_angle_alpha 90.000000
_cell_angle_beta 68.052756
_cell_angle_gamma 90.000000
_cell_volume 2195.732735
_symmetry_space_group_name_H-M "C 2/C"
_symmetry_group_IT_number 15
_symmetry_cell_setting 'monoclinic'
loop_
_space_group_symop_operation_xyz
x,y,z
-x,y,1/2-z
-x,-y,-z
x,-y,1/2+z
1/2+x,1/2+y,z
1/2-x,1/2+y,1/2-z
1/2-x,1/2-y,-z
1/2+x,1/2-y,1/2+z
loop_
_atom_site_type_symbol
_atom_site_label
_atom_site_fract_x
_atom_site_fract_y
_atom_site_fract_z
Si Si1 0.576293 0.450941 0.475980
Si Si2 0.500000 0.926249 0.250000
Si Si3 0.500000 0.413141 0.750000
Si Si4 0.748937 0.384431 0.087910
Si Si5 0.000000 0.195615 0.750000
Si Si6 0.384162 0.148302 0.161849
Si Si7 0.768576 0.759041 0.858685
O O1 0.500000 0.500000 0.500000
O O2 0.814323 0.450010 0.366464
O O3 0.571291 0.436509 0.614102
O O4 0.419910 0.418887 0.432688
O O5 0.359045 0.900492 0.184798
O O6 0.299727 0.384070 0.759068
O O7 0.641481 0.338307 0.142179
O O8 0.943760 0.375881 0.956172
O O9 0.881064 0.227278 0.684819
O O10 0.500000 0.165950 0.250000
O O11 0.282917 0.190291 0.129312
O O12 0.000000 0.752772 0.750000
O O13 0.750000 0.750000 0.000000
#
# Coordination Sequence:
#
# PCOD9307934 Si02
#       7
#     8   4   4   8   4   8   8
#     4  12  29  49  77 112 145 188 246 301 365 433
#     4  12  26  50  75 105 150 194 233 299 362 438
#     4  12  26  47  75 106 146 194 236 302 366 430
#     4  12  27  46  76 107 146 199 241 294 368 444
#     4  12  28  45  72 107 148 190 249 293 364 436
#     4  12  25  46  72 103 146 190 246 295 360 424
#     4  12  29  45  70 106 147 190 242 304 354 426
#
# _framework density 20.038868999999998
#
# number of rings (size 3 to 8) (size 9 to 14) (size 15 to 20)
#    0.000    0.000    7.273    1.091   11.455    3.636 
#    0.000    0.000    0.000    0.000    0.000    0.000 
#    0.000    0.000    0.000    0.000    0.000    0.000 
#
# Total GULP energy -122783.332637 kJ/mol
# GULP energy per Si atom -5581.060574 kJ/mol
# Density = 1.999326 g / cm^3
# Si number density = 20.038869 Si / 1000 Ang^3
#
#
#
# Elastic Constant Matrix: (Units=GPa)
#
#
# Indices 1 2 3 4 5 6 
#
# 1 103.4423 45.3592 62.3884 0.0000 -16.2305 0.0000
# 2 45.3592 110.3689 44.9776 0.0000 -9.3021 0.0000
# 3 62.3884 44.9776 149.2098 0.0000 -12.2319 0.0000
# 4 0.0000 0.0000 0.0000 -9.6999 0.0000 -10.9960
# 5 -16.2305 -9.3021 -12.2319 0.0000 55.9647 0.0000
# 6 0.0000 0.0000 0.0000 -10.9960 0.0000 5.0641
#
#
#
# Elastic Compliance Matrix: (Units=1/GPa)
#
#
# Indices 1 2 3 4 5 6 
#
# 1 0.014621 -0.003862 -0.004739 0.000000 0.002563 0.000000
# 2 -0.003862 0.011411 -0.001794 0.000000 0.000385 0.000000
# 3 -0.004739 -0.001794 0.009253 0.000000 0.000350 0.000000
# 4 0.000000 0.000000 0.000000 -0.029783 0.000000 -0.064670
# 5 0.002563 0.000385 0.000350 0.000000 0.018752 0.000000
# 6 0.000000 0.000000 0.000000 -0.064670 0.000000 0.057047
#
#
# Mechanical properties :
#
#
# Convention : Reuss Voigt Hill
#
# Bulk Modulus (GPa) = 68.98464 74.27459 71.62962
# Shear Modulus (GPa) = 46.76348 24.28552 35.52450
#
# Velocity S-wave (km/s) = 4.83602 3.48504 4.21501
# Velocity P-wave (km/s) = 8.10450 7.30341 7.71436
#
# Compressibility (1/GPa) = 0.01449598
#
# Stress axis : x y z
#
# Youngs Moduli (GPa) = 68.39496 87.63584 108.07417
#
# Poissons Ratio (x) = 0.33841 0.51220
# Poissons Ratio (y) = 0.26411 0.19383
# Poissons Ratio (z) = 0.32414 0.15718
#
# Static dielectric constant tensor:
#      x y z
#    x 1.719130 0.000000 0.004000 
#    y 0.000000 1.648040 0.000000 
#    z 0.004000 0.000000 1.693620 
# 
# From -- ./inp_files/73927.got.cif
#   From: 2010.05.17/outbox.cif.g08.bks.cpg/sg15_37_cif.got.tgz:73927.got - 2010.06.03 18:47:42.
