data_PCOD9307739
_publ_section_title
;
Structure prediction by ZEFSAII (Michael W. Deem and Ramdas Pophale) SiO2 
 PCOD9307739
Probable space group: C 2/C
;
_chemical_formula_sum "Si O2"
_cell_formula_units_Z 40
_cell_length_a 17.007462
_cell_length_b 9.048124
_cell_length_c 10.979758
_cell_angle_alpha 90.000000
_cell_angle_beta 78.662812
_cell_angle_gamma 90.000000
_cell_volume 1656.657694
_symmetry_space_group_name_H-M "C 2/C"
_symmetry_group_IT_number 15
_symmetry_cell_setting 'monoclinic'
loop_
_space_group_symop_operation_xyz
x,y,z
-x,y,1/2-z
-x,-y,-z
x,-y,1/2+z
1/2+x,1/2+y,z
1/2-x,1/2+y,1/2-z
1/2-x,1/2-y,-z
1/2+x,1/2-y,1/2+z
loop_
_atom_site_type_symbol
_atom_site_label
_atom_site_fract_x
_atom_site_fract_y
_atom_site_fract_z
Si Si1 0.000000 0.296636 0.750000
Si Si2 0.277754 0.550601 0.628394
Si Si3 0.841749 0.731165 0.680254
Si Si4 0.562617 0.291233 0.483558
Si Si5 0.115409 0.525453 0.051650
Si Si6 0.500000 0.306174 0.750000
O O1 0.972567 0.202276 0.641932
O O2 0.928737 0.401563 0.819586
O O3 0.234894 0.641704 0.748710
O O4 0.314704 0.397868 0.664635
O O5 0.348514 0.643488 0.547221
O O6 0.205715 0.518535 0.557909
O O7 0.876616 0.653430 0.550767
O O8 0.914358 0.727319 0.754890
O O9 0.514405 0.368613 0.608910
O O10 0.568988 0.115375 0.510836
#
# Coordination Sequence:
#
# PCOD9307739 Si02
#       6
#     4   8   8   8   8   4
#     4  12  25  47  80 114 151 197 256 304 371 445
#     4  12  28  48  77 109 155 195 252 309 382 441
#     4  12  27  49  75 114 149 200 249 315 369 450
#     4  12  27  48  78 113 148 202 247 314 368 450
#     4  12  24  46  78 114 149 200 251 310 366 451
#     4  12  27  51  78 110 153 199 254 302 379 447
#
# _framework density 24.145
#
# number of rings (size 3 to 8) (size 9 to 14) (size 15 to 20)
#    0.000    0.000    4.000    6.000    2.800    1.600 
#    0.000    0.000    0.000    0.000    0.000    0.000 
#    0.000    0.000    0.000    0.000    0.000    0.000 
#
# Total GULP energy -112041.626810 kJ/mol
# GULP energy per Si atom -5602.081340 kJ/mol
# Density = 2.409004 g / cm^3
# Si number density = 24.145000 Si / 1000 Ang^3
#
#
#
# Elastic Constant Matrix: (Units=GPa)
#
#
# Indices 1 2 3 4 5 6 
#
# 1 135.1868 45.6111 53.8816 0.0000 -4.9407 0.0000
# 2 45.6111 140.7824 46.9419 0.0000 -20.3315 0.0000
# 3 53.8816 46.9419 181.5665 0.0000 -10.2962 0.0000
# 4 0.0000 0.0000 0.0000 16.2083 0.0000 -9.9967
# 5 -4.9407 -20.3315 -10.2962 0.0000 45.8325 0.0000
# 6 0.0000 0.0000 0.0000 -9.9967 0.0000 -6.1273
#
#
#
# Elastic Compliance Matrix: (Units=1/GPa)
#
#
# Indices 1 2 3 4 5 6 
#
# 1 0.008989 -0.002285 -0.002106 0.000000 -0.000518 0.000000
# 2 -0.002285 0.008795 -0.001406 0.000000 0.003339 0.000000
# 3 -0.002106 -0.001406 0.006531 0.000000 0.000616 0.000000
# 4 0.000000 0.000000 0.000000 0.030752 0.000000 -0.050172
# 5 -0.000518 0.003339 0.000616 0.000000 0.023382 0.000000
# 6 0.000000 0.000000 0.000000 -0.050172 0.000000 -0.081348
#
#
# Mechanical properties :
#
#
# Convention : Reuss Voigt Hill
#
# Bulk Modulus (GPa) = 78.61667 83.37832 80.99749
# Shear Modulus (GPa) = 386.53336 31.92277 209.22806
#
# Velocity S-wave (km/s) = 12.66633 3.64005 9.31896
# Velocity P-wave (km/s) = 15.70177 7.23007 12.22333
#
# Compressibility (1/GPa) = 0.01271995
#
# Stress axis : x y z
#
# Youngs Moduli (GPa) = 111.25314 113.70742 153.11151
#
# Poissons Ratio (x) = 0.25978 0.32247
# Poissons Ratio (y) = 0.25417 0.21533
# Poissons Ratio (z) = 0.23431 0.15992
#
# Static dielectric constant tensor:
#      x y z
#    x 1.870910 0.000000 0.018950 
#    y 0.000000 1.905490 0.000000 
#    z 0.018950 0.000000 1.952050 
# 
# From -- ./inp_files/102747.got.cif
#   From: 2010.05.17/outbox.cif.g08.bks.cpg/sg15_52_cif.got.tgz:102747.got - 2010.06.03 18:47:42.
