data_PCOD9307397
_publ_section_title
;
Structure prediction by ZEFSAII (Michael W. Deem and Ramdas Pophale) SiO2 
 PCOD9307397
Probable space group: C 2/C
;
_chemical_formula_sum "Si O2"
_cell_formula_units_Z 40
_cell_length_a 8.473046
_cell_length_b 28.382896
_cell_length_c 12.732684
_cell_angle_alpha 90.000000
_cell_angle_beta 34.169103
_cell_angle_gamma 90.000000
_cell_volume 1719.777115
_symmetry_space_group_name_H-M "C 2/C"
_symmetry_group_IT_number 15
_symmetry_cell_setting 'monoclinic'
loop_
_space_group_symop_operation_xyz
x,y,z
-x,y,1/2-z
-x,-y,-z
x,-y,1/2+z
1/2+x,1/2+y,z
1/2-x,1/2+y,1/2-z
1/2-x,1/2-y,-z
1/2+x,1/2-y,1/2+z
loop_
_atom_site_type_symbol
_atom_site_label
_atom_site_fract_x
_atom_site_fract_y
_atom_site_fract_z
Si Si1 0.813067 0.954250 0.619551
Si Si2 0.640022 0.194952 0.287115
Si Si3 0.302217 0.104094 0.120893
Si Si4 0.147268 0.886268 0.281504
Si Si5 0.811855 0.789864 0.123738
O O1 0.500000 0.961258 0.750000
O O2 0.771284 0.939121 0.763027
O O3 0.967009 0.912555 0.469875
O O4 0.000000 0.000000 0.500000
O O5 0.500000 0.197401 0.250000
O O6 0.562758 0.146292 0.384888
O O7 0.577281 0.240813 0.390200
O O8 0.974206 0.195952 0.085156
O O9 0.000000 0.121515 0.250000
O O10 0.533779 0.094039 0.904854
O O11 0.172313 0.831506 0.299644
O O12 0.000000 0.893614 0.250000
O O13 0.500000 0.785386 0.250000
#
# Coordination Sequence:
#
# PCOD9307397 Si02
#       5
#     8   8   8   8   8
#     4  12  29  52  78 109 146 186 242 303 365 439
#     4  12  23  43  67 103 150 194 247 298 352 427
#     4  12  26  46  74 108 149 191 244 303 364 431
#     4  12  25  47  74 104 148 194 238 298 367 428
#     4  12  24  40  68 105 149 192 245 300 353 424
#
# _framework density 23.258827
#
# number of rings (size 3 to 8) (size 9 to 14) (size 15 to 20)
#    0.000    0.000    4.000    6.600    2.800    1.600 
#    0.000    0.000    0.000    0.000    0.000    0.000 
#    0.000    0.000    0.000    0.000    0.000    0.000 
#
# Total GULP energy -112102.216025 kJ/mol
# GULP energy per Si atom -5605.110801 kJ/mol
# Density = 2.320589 g / cm^3
# Si number density = 23.258827 Si / 1000 Ang^3
#
#
#
# Elastic Constant Matrix: (Units=GPa)
#
#
# Indices 1 2 3 4 5 6 
#
# 1 46.0558 10.3550 0.7081 0.0000 -18.8266 0.0000
# 2 10.3550 102.8164 18.5972 0.0000 -1.9687 0.0000
# 3 0.7081 18.5972 154.6714 0.0000 -12.2427 0.0000
# 4 0.0000 0.0000 0.0000 34.3042 0.0000 -4.2847
# 5 -18.8266 -1.9687 -12.2427 0.0000 36.5655 0.0000
# 6 0.0000 0.0000 0.0000 -4.2847 0.0000 5.1400
#
#
#
# Elastic Compliance Matrix: (Units=1/GPa)
#
#
# Indices 1 2 3 4 5 6 
#
# 1 0.028443 -0.002830 0.001394 0.000000 0.014959 0.000000
# 2 -0.002830 0.010225 -0.001323 0.000000 -0.001350 0.000000
# 3 0.001394 -0.001323 0.006851 0.000000 0.002940 0.000000
# 4 0.000000 0.000000 0.000000 0.032539 0.000000 0.027124
# 5 0.014959 -0.001350 0.002940 0.000000 0.035962 0.000000
# 6 0.000000 0.000000 0.000000 0.027124 0.000000 0.217161
#
#
# Mechanical properties :
#
#
# Convention : Reuss Voigt Hill
#
# Bulk Modulus (GPa) = 25.00060 40.31824 32.65942
# Shear Modulus (GPa) = 14.28443 33.46084 23.87263
#
# Velocity S-wave (km/s) = 2.48090 3.79704 3.20721
# Velocity P-wave (km/s) = 4.35645 6.04943 5.27135
#
# Compressibility (1/GPa) = 0.03999904
#
# Stress axis : x y z
#
# Youngs Moduli (GPa) = 35.15864 97.80307 145.96889
#
# Poissons Ratio (x) = 0.27681 -0.20350
# Poissons Ratio (y) = 0.09951 0.19315
# Poissons Ratio (z) = -0.04902 0.12942
#
# Static dielectric constant tensor:
#      x y z
#    x 1.892080 0.000000 -0.023600 
#    y 0.000000 1.858380 0.000000 
#    z -0.023600 0.000000 1.909350 
# 
# From -- ./inp_files/139702.got.cif
#   From: 2010.05.17/outbox.cif.g08.bks.cpg/sg15_70_cif.got.tgz:139702.got - 2010.06.03 18:47:42.
