data_PCOD9307800
_publ_section_title
;
Structure prediction by ZEFSAII (Michael W. Deem and Ramdas Pophale) SiO2 
 PCOD9307800
Probable space group: C 2/C
;
_chemical_formula_sum "Si O2"
_cell_formula_units_Z 48
_cell_length_a 28.573645
_cell_length_b 10.147317
_cell_length_c 22.483559
_cell_angle_alpha 90.000000
_cell_angle_beta 161.609681
_cell_angle_gamma 90.000000
_cell_volume 2056.675368
_symmetry_space_group_name_H-M "C 2/C"
_symmetry_group_IT_number 15
_symmetry_cell_setting 'monoclinic'
loop_
_space_group_symop_operation_xyz
x,y,z
-x,y,1/2-z
-x,-y,-z
x,-y,1/2+z
1/2+x,1/2+y,z
1/2-x,1/2+y,1/2-z
1/2-x,1/2-y,-z
1/2+x,1/2-y,1/2+z
loop_
_atom_site_type_symbol
_atom_site_label
_atom_site_fract_x
_atom_site_fract_y
_atom_site_fract_z
Si Si1 0.000000 0.449804 0.750000
Si Si2 0.151379 0.124160 0.624838
Si Si3 0.013268 0.120920 0.894055
Si Si4 0.561309 0.132642 0.607281
Si Si5 0.699551 0.120556 0.902830
Si Si6 0.770577 0.328542 0.381052
Si Si7 0.000000 0.979050 0.250000
O O1 0.113788 0.533976 0.847836
O O2 0.896738 0.372595 0.578952
O O3 0.282760 0.162700 0.738012
O O4 0.230672 0.069098 0.780417
O O5 0.052036 0.244699 0.529274
O O6 0.047637 0.016283 0.468170
O O7 0.878486 0.196165 0.762168
O O8 0.970156 0.099037 0.773924
O O9 0.163101 0.203626 0.073002
O O10 0.597007 0.122843 0.720705
O O11 0.500000 0.000000 0.500000
O O12 0.750000 0.250000 0.000000
O O13 0.852779 0.062100 0.063001
#
# Coordination Sequence:
#
# PCOD9307800 Si02
#       7
#     4   8   8   8   8   8   4
#     4  12  28  46  78 112 156 210 264 330 406 482
#     4  12  27  50  81 113 160 205 267 327 402 484
#     4  12  27  50  77 113 156 208 261 333 400 482
#     4  12  28  51  82 118 162 213 266 337 403 487
#     4  12  27  48  79 115 159 205 269 329 409 486
#     4  12  28  48  76 110 155 204 265 325 401 477
#     4  12  24  48  76 106 160 196 260 326 400 476
#
# _framework density 23.338636999999999
#
# number of rings (size 3 to 8) (size 9 to 14) (size 15 to 20)
#    0.000    0.000    3.333    5.500    4.667    2.667 
#    0.000    0.000    0.000    0.000    0.000    0.000 
#    0.000    0.000    0.000    0.000    0.000    0.000 
#
# Total GULP energy -134285.120899 kJ/mol
# GULP energy per Si atom -5595.213371 kJ/mol
# Density = 2.328552 g / cm^3
# Si number density = 23.338637 Si / 1000 Ang^3
#
#
#
# Elastic Constant Matrix: (Units=GPa)
#
#
# Indices 1 2 3 4 5 6 
#
# 1 122.9400 46.6457 31.4855 0.0003 -2.8766 0.0010
# 2 46.6457 97.9966 49.4773 0.0002 10.1149 0.0006
# 3 31.4855 49.4773 112.6055 0.0004 0.9081 0.0013
# 4 0.0003 0.0002 0.0004 13.4538 0.0002 -44.9626
# 5 -2.8766 10.1149 0.9081 0.0002 79.8614 0.0009
# 6 0.0010 0.0006 0.0013 -44.9626 0.0009 -186.9471
#
#
#
# Elastic Compliance Matrix: (Units=1/GPa)
#
#
# Indices 1 2 3 4 5 6 
#
# 1 0.010067 -0.004451 -0.000867 0.000000 0.000936 0.000000
# 2 -0.004451 0.015288 -0.005456 0.000000 -0.002035 0.000000
# 3 -0.000867 -0.005456 0.011516 0.000000 0.000529 0.000000
# 4 0.000000 0.000000 0.000000 0.041207 0.000000 -0.009911
# 5 0.000936 -0.002035 0.000529 0.000000 0.012807 0.000000
# 6 0.000000 0.000000 0.000000 -0.009911 0.000000 -0.002965
#
#
# Mechanical properties :
#
#
# Convention : Reuss Voigt Hill
#
# Bulk Modulus (GPa) = 65.26152 65.41767 65.33960
# Shear Modulus (GPa) = 43.63983 -4.99748 19.32117
#
# Velocity S-wave (km/s) = 4.32887 -1.46490 2.88038
# Velocity P-wave (km/s) = 7.28073 5.02288 6.25454
#
# Compressibility (1/GPa) = 0.01532296
#
# Stress axis : x y z
#
# Youngs Moduli (GPa) = 99.33856 65.41175 86.83506
#
# Poissons Ratio (x) = 0.29113 0.07526
# Poissons Ratio (y) = 0.44212 0.47380
# Poissons Ratio (z) = 0.08610 0.35691
#
# Static dielectric constant tensor:
#      x y z
#    x 1.928960 0.000000 -0.137880 
#    y 0.000000 1.940800 0.000000 
#    z -0.137880 0.000000 2.085690 
# 
# From -- ./inp_files/257681.got.cif
#   From: 2010.05.17/outbox.cif.g08.bks.cpg/sg15_129_cif.got.tgz:257681.got - 2010.06.03 18:47:42.
