data_PCOD9307161
_publ_section_title
;
Structure prediction by ZEFSAII (Michael W. Deem and Ramdas Pophale) SiO2 
 PCOD9307161
Probable space group: C 2/C
;
_chemical_formula_sum "Si O2"
_cell_formula_units_Z 56
_cell_length_a 30.942153
_cell_length_b 8.099539
_cell_length_c 22.554608
_cell_angle_alpha 90.000000
_cell_angle_beta 25.297200
_cell_angle_gamma 90.000000
_cell_volume 2415.421408
_symmetry_space_group_name_H-M "C 2/C"
_symmetry_group_IT_number 15
_symmetry_cell_setting 'monoclinic'
loop_
_space_group_symop_operation_xyz
x,y,z
-x,y,1/2-z
-x,-y,-z
x,-y,1/2+z
1/2+x,1/2+y,z
1/2-x,1/2+y,1/2-z
1/2-x,1/2-y,-z
1/2+x,1/2-y,1/2+z
loop_
_atom_site_type_symbol
_atom_site_label
_atom_site_fract_x
_atom_site_fract_y
_atom_site_fract_z
Si Si1 0.205949 0.982078 0.743304
Si Si2 0.333388 0.658162 0.595619
Si Si3 0.477287 0.195475 0.710081
Si Si4 0.990403 0.862299 0.201574
Si Si5 0.652521 0.915249 0.637761
Si Si6 0.832859 0.060362 0.338153
Si Si7 0.223819 0.837253 0.896705
O O1 0.278672 0.834320 0.677628
O O2 0.171888 0.895377 0.724445
O O3 0.137675 0.051841 0.881616
O O4 0.244946 0.160918 0.670329
O O5 0.428846 0.713352 0.437241
O O6 0.263571 0.521185 0.648485
O O7 0.500000 0.156324 0.750000
O O8 0.375389 0.301225 0.829037
O O9 0.439013 0.030111 0.725506
O O10 0.913064 0.719280 0.315804
O O11 0.897382 0.823362 0.454864
O O12 0.000000 0.970592 0.250000
O O13 0.925392 0.932776 0.228704
O O14 0.720702 0.855459 0.608278
O O15 0.729271 0.995430 0.495047
#
# Coordination Sequence:
#
# PCOD9307161 Si02
#       7
#     8   8   8   8   8   8   8
#     4  12  26  47  73 105 142 202 246 302 368 439
#     4  12  26  48  74 105 148 194 251 301 368 442
#     4  12  25  46  72 110 149 192 244 308 370 441
#     4  12  22  40  68 105 145 186 237 295 361 439
#     4  12  24  43  72 111 146 191 245 304 372 443
#     4  12  23  43  69 104 148 188 243 299 368 439
#     4  12  24  47  74 105 152 191 243 308 372 436
#
# _framework density 23.184360999999999
#
# number of rings (size 3 to 8) (size 9 to 14) (size 15 to 20)
#    0.000    0.000    5.714    6.000    0.000    0.571 
#    0.000    0.714    0.000    0.000    0.000    0.000 
#    0.000    0.000    0.000    0.000    0.000    0.000 
#
# Total GULP energy -155879.903032 kJ/mol
# GULP energy per Si atom -5567.139394 kJ/mol
# Density = 2.313159 g / cm^3
# Si number density = 23.184361 Si / 1000 Ang^3
#
#
#
# Elastic Constant Matrix: (Units=GPa)
#
#
# Indices 1 2 3 4 5 6 
#
# 1 108.4113 27.8438 38.3041 0.0003 -2.0387 0.0003
# 2 27.8438 110.8150 33.3972 0.0012 -7.3699 -0.0005
# 3 38.3041 33.3972 76.9862 -0.0004 2.1642 0.0003
# 4 0.0003 0.0012 -0.0004 27.7209 0.0004 -1.9175
# 5 -2.0387 -7.3699 2.1642 0.0004 24.0549 -0.0006
# 6 0.0003 -0.0005 0.0003 -1.9175 -0.0006 36.3912
#
#
#
# Elastic Compliance Matrix: (Units=1/GPa)
#
#
# Indices 1 2 3 4 5 6 
#
# 1 0.011383 -0.001236 -0.005157 0.000000 0.001050 0.000000
# 2 -0.001236 0.010835 -0.004186 -0.000001 0.003592 0.000000
# 3 -0.005157 -0.004186 0.017464 0.000001 -0.003291 0.000000
# 4 0.000000 -0.000001 0.000001 0.036206 -0.000001 0.001908
# 5 0.001050 0.003592 -0.003291 -0.000001 0.043057 0.000001
# 6 0.000000 0.000000 0.000000 0.001908 0.000001 0.027580
#
#
# Mechanical properties :
#
#
# Convention : Reuss Voigt Hill
#
# Bulk Modulus (GPa) = 53.98587 55.03363 54.50975
# Shear Modulus (GPa) = 28.75901 30.74454 29.75178
#
# Velocity S-wave (km/s) = 3.52582 3.64550 3.58616
# Velocity P-wave (km/s) = 6.31753 6.44271 6.38043
#
# Compressibility (1/GPa) = 0.01852337
#
# Stress axis : x y z
#
# Youngs Moduli (GPa) = 87.84675 92.29194 57.26145
#
# Poissons Ratio (x) = 0.11409 0.29530
# Poissons Ratio (y) = 0.10860 0.23971
# Poissons Ratio (z) = 0.45303 0.38636
#
# Static dielectric constant tensor:
#      x y z
#    x 1.891880 0.000000 0.067730 
#    y 0.000000 2.146650 0.000000 
#    z 0.067730 0.000000 1.859910 
# 
# From -- ./inp_files/258969.got.cif
#   From: 2010.05.17/outbox.cif.g08.bks.cpg/sg15_130_cif.got.tgz:258969.got - 2010.06.03 18:47:42.
