data_PCOD9307567
_publ_section_title
;
Structure prediction by ZEFSAII (Michael W. Deem and Ramdas Pophale) SiO2 
 PCOD9307567
Probable space group: C 2/C
;
_chemical_formula_sum "Si O2"
_cell_formula_units_Z 40
_cell_length_a 8.997629
_cell_length_b 27.587879
_cell_length_c 15.424121
_cell_angle_alpha 90.000000
_cell_angle_beta 150.060135
_cell_angle_gamma 90.000000
_cell_volume 1910.848998
_symmetry_space_group_name_H-M "C 2/C"
_symmetry_group_IT_number 15
_symmetry_cell_setting 'monoclinic'
loop_
_space_group_symop_operation_xyz
x,y,z
-x,y,1/2-z
-x,-y,-z
x,-y,1/2+z
1/2+x,1/2+y,z
1/2-x,1/2+y,1/2-z
1/2-x,1/2-y,-z
1/2+x,1/2-y,1/2+z
loop_
_atom_site_type_symbol
_atom_site_label
_atom_site_fract_x
_atom_site_fract_y
_atom_site_fract_z
Si Si1 0.846763 0.395712 0.585108
Si Si2 0.640034 0.946557 0.566609
Si Si3 0.478318 0.213441 0.360874
Si Si4 0.359579 0.118552 0.775163
Si Si5 0.478491 0.778654 0.055992
O O1 0.927253 0.339239 0.619910
O O2 0.487339 0.397350 0.403418
O O3 0.000000 0.415720 0.750000
O O4 0.997095 0.419777 0.577408
O O5 0.532576 0.917911 0.426615
O O6 0.000000 0.947639 0.750000
O O7 0.500000 0.000000 0.500000
O O8 0.750000 0.250000 0.500000
O O9 0.363041 0.209334 0.402015
O O10 0.236134 0.238788 0.179221
O O11 0.500000 0.118684 0.750000
O O12 0.399136 0.172582 0.836215
O O13 0.250000 0.750000 0.000000
#
# Coordination Sequence:
#
# PCOD9307567 Si02
#       5
#     8   8   8   8   8
#     4  12  26  46  74 108 149 193 247 303 366 436
#     4  12  28  52  82 111 144 189 244 307 375 438
#     4  12  24  41  65  99 145 194 244 293 363 426
#     4  12  26  47  72 108 151 193 245 306 364 436
#     4  12  26  41  63 101 145 194 246 299 357 436
#
# _framework density 20.933104
#
# number of rings (size 3 to 8) (size 9 to 14) (size 15 to 20)
#    0.000    0.000    4.000    6.600    5.600    0.800 
#    0.000    4.000    0.000    0.000    0.000    0.000 
#    0.000    0.000    0.000    0.000    0.000    0.000 
#
# Total GULP energy -111920.123586 kJ/mol
# GULP energy per Si atom -5596.006179 kJ/mol
# Density = 2.088546 g / cm^3
# Si number density = 20.933104 Si / 1000 Ang^3
#
#
#
# Elastic Constant Matrix: (Units=GPa)
#
#
# Indices 1 2 3 4 5 6 
#
# 1 163.4577 43.9156 71.7827 0.0000 -9.4789 0.0000
# 2 43.9156 128.9794 51.2516 0.0000 4.5672 0.0000
# 3 71.7827 51.2516 150.0353 0.0000 7.0892 0.0000
# 4 0.0000 0.0000 0.0000 29.9385 0.0000 4.0637
# 5 -9.4789 4.5672 7.0892 0.0000 57.0341 0.0000
# 6 0.0000 0.0000 0.0000 4.0637 0.0000 33.5403
#
#
#
# Elastic Compliance Matrix: (Units=1/GPa)
#
#
# Indices 1 2 3 4 5 6 
#
# 1 0.008154 -0.001455 -0.003494 0.000000 0.001906 0.000000
# 2 -0.001455 0.009237 -0.002427 0.000000 -0.000680 0.000000
# 3 -0.003494 -0.002427 0.009238 0.000000 -0.001535 0.000000
# 4 0.000000 0.000000 0.000000 0.033960 0.000000 -0.004115
# 5 0.001906 -0.000680 -0.001535 0.000000 0.018095 0.000000
# 6 0.000000 0.000000 0.000000 -0.004115 0.000000 0.030313
#
#
# Mechanical properties :
#
#
# Convention : Reuss Voigt Hill
#
# Bulk Modulus (GPa) = 84.19900 86.26355 85.23128
# Shear Modulus (GPa) = 39.15134 42.47075 40.81104
#
# Velocity S-wave (km/s) = 4.32940 4.50920 4.42021
# Velocity P-wave (km/s) = 8.08095 8.27098 8.17652
#
# Compressibility (1/GPa) = 0.01187662
#
# Stress axis : x y z
#
# Youngs Moduli (GPa) = 122.64378 108.25837 108.24498
#
# Poissons Ratio (x) = 0.15755 0.37820
# Poissons Ratio (y) = 0.17849 0.26271
# Poissons Ratio (z) = 0.42851 0.26274
#
# Static dielectric constant tensor:
#      x y z
#    x 1.714140 0.000000 0.029720 
#    y 0.000000 1.696160 0.000000 
#    z 0.029720 0.000000 1.631420 
# 
# From -- ./inp_files/139684.got.cif
#   From: 2010.05.17/outbox.cif.g08.bks.cpg/sg15_70_cif.got.tgz:139684.got - 2010.06.03 18:47:42.
