data_PCOD9307589
_publ_section_title
;
Structure prediction by ZEFSAII (Michael W. Deem and Ramdas Pophale) SiO2 
 PCOD9307589
Probable space group: C 2/C
;
_chemical_formula_sum "Si O2"
_cell_formula_units_Z 40
_cell_length_a 22.459165
_cell_length_b 7.577724
_cell_length_c 9.165630
_cell_angle_alpha 90.000000
_cell_angle_beta 98.601677
_cell_angle_gamma 90.000000
_cell_volume 1542.346979
_symmetry_space_group_name_H-M "C 2/C"
_symmetry_group_IT_number 15
_symmetry_cell_setting 'monoclinic'
loop_
_space_group_symop_operation_xyz
x,y,z
-x,y,1/2-z
-x,-y,-z
x,-y,1/2+z
1/2+x,1/2+y,z
1/2-x,1/2+y,1/2-z
1/2-x,1/2-y,-z
1/2+x,1/2-y,1/2+z
loop_
_atom_site_type_symbol
_atom_site_label
_atom_site_fract_x
_atom_site_fract_y
_atom_site_fract_z
Si Si1 0.770610 0.098791 0.390062
Si Si2 0.336612 0.091304 0.809242
Si Si3 0.557260 0.669339 0.860008
Si Si4 0.586593 0.955014 0.420571
Si Si5 0.385727 0.602580 0.915651
O O1 0.750000 0.250000 0.500000
O O2 0.714629 0.027781 0.279623
O O3 0.813016 0.211835 0.298977
O O4 0.816810 0.937322 0.443485
O O5 0.397486 0.079126 0.740618
O O6 0.353438 0.027682 0.975848
O O7 0.500000 0.601006 0.750000
O O8 0.609658 0.645717 0.755363
O O9 0.545418 0.872225 0.902105
O O10 0.577033 0.563336 0.009167
O O11 0.580596 0.768283 0.495905
#
# Coordination Sequence:
#
# PCOD9307589 Si02
#       5
#     8   8   8   8   8
#     4  12  26  42  72 109 153 197 249 297 383 463
#     4  12  24  43  68 105 148 194 240 303 366 458
#     4  12  28  51  77 109 146 199 263 323 380 437
#     4  12  26  47  72 107 152 194 252 307 377 448
#     4  12  27  48  77 107 152 197 249 321 374 456
#
# _framework density 25.934501999999998
#
# number of rings (size 3 to 8) (size 9 to 14) (size 15 to 20)
#    0.000    0.000    6.000    3.000    5.600    3.200 
#    0.000    0.000    0.000    0.000    0.000    0.000 
#    0.000    0.000    0.000    0.000    0.000    0.000 
#
# Total GULP energy -111781.466307 kJ/mol
# GULP energy per Si atom -5589.073315 kJ/mol
# Density = 2.587547 g / cm^3
# Si number density = 25.934502 Si / 1000 Ang^3
#
#
#
# Elastic Constant Matrix: (Units=GPa)
#
#
# Indices 1 2 3 4 5 6 
#
# 1 62.5760 3.6184 12.7327 0.0000 11.9905 0.0000
# 2 3.6184 120.7211 28.1548 0.0000 -15.1437 0.0000
# 3 12.7327 28.1548 89.9351 0.0000 10.9347 0.0000
# 4 0.0000 0.0000 0.0000 51.7245 0.0000 11.8060
# 5 11.9905 -15.1437 10.9347 0.0000 39.5500 0.0000
# 6 0.0000 0.0000 0.0000 11.8060 0.0000 22.0571
#
#
#
# Elastic Compliance Matrix: (Units=1/GPa)
#
#
# Indices 1 2 3 4 5 6 
#
# 1 0.017329 -0.000792 -0.001583 0.000000 -0.005120 0.000000
# 2 -0.000792 0.009756 -0.003544 0.000000 0.004956 0.000000
# 3 -0.001583 -0.003544 0.012996 0.000000 -0.004470 0.000000
# 4 0.000000 0.000000 0.000000 0.022024 0.000000 -0.011788
# 5 -0.005120 0.004956 -0.004470 0.000000 0.029970 0.000000
# 6 0.000000 0.000000 0.000000 -0.011788 0.000000 0.051647
#
#
# Mechanical properties :
#
#
# Convention : Reuss Voigt Hill
#
# Bulk Modulus (GPa) = 35.40837 40.24935 37.82886
# Shear Modulus (GPa) = 30.30756 37.91475 34.11115
#
# Velocity S-wave (km/s) = 3.42222 3.82768 3.63061
# Velocity P-wave (km/s) = 5.41277 5.92353 5.67390
#
# Compressibility (1/GPa) = 0.02824191
#
# Stress axis : x y z
#
# Youngs Moduli (GPa) = 57.70515 102.50533 76.94462
#
# Poissons Ratio (x) = 0.08123 0.12179
# Poissons Ratio (y) = 0.04573 0.27272
# Poissons Ratio (z) = 0.09134 0.36332
#
# Static dielectric constant tensor:
#      x y z
#    x 2.087720 0.000000 -0.061540 
#    y 0.000000 2.092370 0.000000 
#    z -0.061540 0.000000 1.971520 
# 
# From -- ./inp_files/60070.got.cif
#   From: 2010.05.17/outbox.cif.g08.bks.cpg/sg15_31_cif.got.tgz:60070.got - 2010.06.03 18:47:42.
