data_PCOD9307220
_publ_section_title
;
Structure prediction by ZEFSAII (Michael W. Deem and Ramdas Pophale) SiO2 
 PCOD9307220
Probable space group: C 2/C
;
_chemical_formula_sum "Si O2"
_cell_formula_units_Z 40
_cell_length_a 11.332617
_cell_length_b 12.526678
_cell_length_c 18.256222
_cell_angle_alpha 90.000000
_cell_angle_beta 45.597180
_cell_angle_gamma 90.000000
_cell_volume 1851.576786
_symmetry_space_group_name_H-M "C 2/C"
_symmetry_group_IT_number 15
_symmetry_cell_setting 'monoclinic'
loop_
_space_group_symop_operation_xyz
x,y,z
-x,y,1/2-z
-x,-y,-z
x,-y,1/2+z
1/2+x,1/2+y,z
1/2-x,1/2+y,1/2-z
1/2-x,1/2-y,-z
1/2+x,1/2-y,1/2+z
loop_
_atom_site_type_symbol
_atom_site_label
_atom_site_fract_x
_atom_site_fract_y
_atom_site_fract_z
Si Si1 0.684359 0.530551 0.648546
Si Si2 0.000000 0.466063 0.750000
Si Si3 0.195549 0.300746 0.864297
Si Si4 0.656092 0.139378 0.049527
Si Si5 0.104597 0.360635 0.318897
Si Si6 0.750000 0.750000 0.000000
O O1 0.500000 0.565332 0.750000
O O2 0.700755 0.404944 0.656667
O O3 0.737584 0.553366 0.542210
O O4 0.812173 0.594197 0.644036
O O5 0.121697 0.395482 0.647410
O O6 0.095693 0.542162 0.765100
O O7 0.286369 0.233945 0.762373
O O8 0.021647 0.343545 0.910879
O O9 0.188246 0.231646 0.940984
O O10 0.750000 0.250000 0.000000
O O11 0.920971 0.317520 0.410033
#
# Coordination Sequence:
#
# PCOD9307220 Si02
#       6
#     8   4   8   8   8   4
#     4  12  26  48  73 109 151 198 254 307 391 449
#     4  12  26  48  74 106 150 194 254 308 380 454
#     4  12  25  45  73 108 147 193 248 314 371 451
#     4  12  28  48  74 106 153 202 245 317 382 458
#     4  12  25  46  75 111 149 194 254 314 371 456
#     4  12  22  42  74 104 144 186 246 300 374 426
#
# _framework density 21.603207999999999
#
# number of rings (size 3 to 8) (size 9 to 14) (size 15 to 20)
#    0.000    0.000    6.000    4.200    4.200    0.000 
#    3.600    2.000    0.000    0.000    0.000    0.000 
#    0.000    0.000    0.000    0.000    0.000    0.000 
#
# Total GULP energy -111460.537694 kJ/mol
# GULP energy per Si atom -5573.026885 kJ/mol
# Density = 2.155404 g / cm^3
# Si number density = 21.603208 Si / 1000 Ang^3
#
#
#
# Elastic Constant Matrix: (Units=GPa)
#
#
# Indices 1 2 3 4 5 6 
#
# 1 56.1989 -6.3552 37.9114 0.0000 -5.7189 0.0000
# 2 -6.3552 82.4716 53.9109 0.0000 2.1015 0.0000
# 3 37.9114 53.9109 152.4376 0.0000 10.8494 0.0000
# 4 0.0000 0.0000 0.0000 -46.3636 0.0000 -29.1319
# 5 -5.7189 2.1015 10.8494 0.0000 43.8306 0.0000
# 6 0.0000 0.0000 0.0000 -29.1319 0.0000 23.4497
#
#
#
# Elastic Compliance Matrix: (Units=1/GPa)
#
#
# Indices 1 2 3 4 5 6 
#
# 1 0.025810 0.008192 -0.009699 0.000000 0.005376 0.000000
# 2 0.008192 0.018389 -0.008707 0.000000 0.002343 0.000000
# 3 -0.009699 -0.008707 0.012329 0.000000 -0.003900 0.000000
# 4 0.000000 0.000000 0.000000 -0.012113 0.000000 -0.015048
# 5 0.005376 0.002343 -0.003900 0.000000 0.024370 0.000000
# 6 0.000000 0.000000 0.000000 -0.015048 0.000000 0.023950
#
#
# Mechanical properties :
#
#
# Convention : Reuss Voigt Hill
#
# Bulk Modulus (GPa) = 27.70116 51.33803 39.51960
# Shear Modulus (GPa) = 39.93744 17.89276 28.91510
#
# Velocity S-wave (km/s) = 4.30429 2.88105 3.66247
# Velocity P-wave (km/s) = 6.12806 5.90618 6.01814
#
# Compressibility (1/GPa) = 0.03609957
#
# Stress axis : x y z
#
# Youngs Moduli (GPa) = 38.74462 54.38051 81.10847
#
# Poissons Ratio (x) = -0.44548 0.78665
# Poissons Ratio (y) = -0.31739 0.70625
# Poissons Ratio (z) = 0.37577 0.47352
#
# Static dielectric constant tensor:
#      x y z
#    x 1.759310 0.000000 0.032950 
#    y 0.000000 1.821290 0.000000 
#    z 0.032950 0.000000 1.808540 
# 
# From -- ./inp_files/237392.got.cif
#   From: 2010.05.17/outbox.cif.g08.bks.cpg/sg15_119_cif.got.tgz:237392.got - 2010.06.03 18:47:42.
