data_PCOD9307108
_publ_section_title
;
Structure prediction by ZEFSAII (Michael W. Deem and Ramdas Pophale) SiO2 
 PCOD9307108
Probable space group: C 2/C
;
_chemical_formula_sum "Si O2"
_cell_formula_units_Z 36
_cell_length_a 8.258105
_cell_length_b 11.764864
_cell_length_c 15.745660
_cell_angle_alpha 90.000000
_cell_angle_beta 121.632463
_cell_angle_gamma 90.000000
_cell_volume 1302.498062
_symmetry_space_group_name_H-M "C 2/C"
_symmetry_group_IT_number 15
_symmetry_cell_setting 'monoclinic'
loop_
_space_group_symop_operation_xyz
x,y,z
-x,y,1/2-z
-x,-y,-z
x,-y,1/2+z
1/2+x,1/2+y,z
1/2-x,1/2+y,1/2-z
1/2-x,1/2-y,-z
1/2+x,1/2-y,1/2+z
loop_
_atom_site_type_symbol
_atom_site_label
_atom_site_fract_x
_atom_site_fract_y
_atom_site_fract_z
Si Si1 0.500000 0.250001 0.750000
Si Si2 0.901958 0.662779 0.384040
Si Si3 0.866120 0.662781 0.884039
Si Si4 0.764444 0.422449 0.617763
Si Si5 0.971085 0.077553 0.617765
O O1 0.322523 0.329859 0.679915
O O2 0.462691 0.170144 0.820084
O O3 0.985020 0.638197 0.500001
O O4 0.486872 0.914455 0.653565
O O5 0.960907 0.792777 0.377898
O O6 0.794888 0.792779 0.877898
O O7 0.679739 0.585547 0.846433
O O8 0.655717 0.500001 0.655715
O O9 0.664274 0.451967 0.499999
#
# Coordination Sequence:
#
# PCOD9307108 Si02
#       5
#     4   8   8   8   8
#     4  12  22  34  52  82 132 176 202 250 324 390
#     4   9  19  35  56  85 120 161 212 263 314 381
#     4   9  19  35  56  85 120 161 212 263 314 381
#     4   8  15  33  60  84 111 155 211 270 324 370
#     4   8  15  33  60  84 111 155 211 270 324 370
#
# _framework density 27.639195999999998
#
# number of rings (size 3 to 8) (size 9 to 14) (size 15 to 20)
#    0.000    3.111    0.000    3.333    0.000    3.556 
#    0.000    6.667    0.000   10.667    0.000    0.000 
#    0.000    7.111    0.000    0.000    0.000    0.000 
#
# Total GULP energy -100928.014219 kJ/mol
# GULP energy per Si atom -5607.111901 kJ/mol
# Density = 2.757629 g / cm^3
# Si number density = 27.639196 Si / 1000 Ang^3
#
#
#
# Elastic Constant Matrix: (Units=GPa)
#
#
# Indices 1 2 3 4 5 6 
#
# 1 314.7133 91.9791 134.8363 0.0000 0.0008 0.0000
# 2 91.9791 155.2514 42.2733 0.0000 0.0005 0.0000
# 3 134.8363 42.2733 145.8537 0.0000 0.0019 0.0000
# 4 0.0000 0.0000 0.0000 13.3185 0.0000 -0.0002
# 5 0.0008 0.0005 0.0019 0.0000 72.4181 0.0000
# 6 0.0000 0.0000 0.0000 -0.0002 0.0000 62.0312
#
#
#
# Elastic Compliance Matrix: (Units=1/GPa)
#
#
# Indices 1 2 3 4 5 6 
#
# 1 0.005865 -0.002170 -0.004793 0.000000 0.000000 0.000000
# 2 -0.002170 0.007796 -0.000254 0.000000 0.000000 0.000000
# 3 -0.004793 -0.000254 0.011361 0.000000 0.000000 0.000000
# 4 0.000000 0.000000 0.000000 0.075083 0.000000 0.000000
# 5 0.000000 0.000000 0.000000 0.000000 0.013809 0.000000
# 6 0.000000 0.000000 0.000000 0.000000 0.000000 0.016121
#
#
# Mechanical properties :
#
#
# Convention : Reuss Voigt Hill
#
# Bulk Modulus (GPa) = 94.44200 128.22177 111.33189
# Shear Modulus (GPa) = 33.78424 52.66888 43.22656
#
# Velocity S-wave (km/s) = 3.49998 4.37004 3.95898
# Velocity P-wave (km/s) = 7.11174 8.48263 7.82726
#
# Compressibility (1/GPa) = 0.01058851
#
# Stress axis : x y z
#
# Youngs Moduli (GPa) = 170.49359 128.27604 88.02029
#
# Poissons Ratio (x) = 0.27832 0.42192
# Poissons Ratio (y) = 0.36993 0.02232
# Poissons Ratio (z) = 0.81725 0.03253
#
# Static dielectric constant tensor:
#      x y z
#    x 2.151720 0.000000 0.000000 
#    y 0.000000 2.114760 0.000000 
#    z 0.000000 0.000000 2.154390 
# 
# From -- ./inp_files/188569.got.cif
#   From: 2010.05.17/outbox.cif.g08.bks.cpg/sg15_95_cif.got.tgz:188569.got - 2010.06.03 18:47:42.
