data_PCOD9307029
_publ_section_title
;
Structure prediction by ZEFSAII (Michael W. Deem and Ramdas Pophale) SiO2 
 PCOD9307029
Probable space group: C 2/C
;
_chemical_formula_sum "Si O2"
_cell_formula_units_Z 48
_cell_length_a 20.459186
_cell_length_b 18.950968
_cell_length_c 14.903696
_cell_angle_alpha 90.000000
_cell_angle_beta 27.397170
_cell_angle_gamma 90.000000
_cell_volume 2659.002575
_symmetry_space_group_name_H-M "C 2/C"
_symmetry_group_IT_number 15
_symmetry_cell_setting 'monoclinic'
loop_
_space_group_symop_operation_xyz
x,y,z
-x,y,1/2-z
-x,-y,-z
x,-y,1/2+z
1/2+x,1/2+y,z
1/2-x,1/2+y,1/2-z
1/2-x,1/2-y,-z
1/2+x,1/2-y,1/2+z
loop_
_atom_site_type_symbol
_atom_site_label
_atom_site_fract_x
_atom_site_fract_y
_atom_site_fract_z
Si Si1 0.188510 0.321921 0.369387
Si Si2 0.512545 0.308714 0.035797
Si Si3 0.247456 0.016457 0.490998
Si Si4 0.500000 0.112784 0.250000
Si Si5 0.839279 0.527936 0.693887
Si Si6 0.000000 0.873399 0.250000
Si Si7 0.134323 0.950826 0.812995
O O1 0.348668 0.301869 0.203601
O O2 0.184036 0.396612 0.323722
O O3 0.107189 0.261341 0.413952
O O4 0.093662 0.338344 0.572184
O O5 0.515307 0.330693 0.138262
O O6 0.582867 0.371416 0.891932
O O7 0.390191 0.060433 0.335704
O O8 0.132372 0.074990 0.604566
O O9 0.276692 0.968460 0.369797
O O10 0.193445 0.973712 0.643693
O O11 0.752757 0.471099 0.741215
O O12 0.000000 0.500000 0.500000
O O13 0.000000 0.000000 0.000000
#
# Coordination Sequence:
#
# PCOD9307029 Si02
#       7
#     8   8   8   4   8   4   8
#     4  12  27  43  61  96 136 173 212 267 327 391
#     4  12  27  42  63  94 136 172 214 267 329 390
#     4  12  22  38  70 100 123 164 219 274 317 374
#     4  12  21  42  64  96 135 160 216 272 323 390
#     4  12  23  40  69  95 128 171 217 265 322 380
#     4  12  21  38  68  96 121 168 210 268 337 382
#     4  12  21  44  65  93 129 168 220 269 311 387
#
# _framework density 18.051881000000002
#
# number of rings (size 3 to 8) (size 9 to 14) (size 15 to 20)
#    0.000    0.000   10.000    0.500    4.667    1.333 
#    0.000    0.833    0.000    0.000    0.000    0.000 
#    0.000    0.000    0.000    0.000    0.000    0.000 
#
# Total GULP energy -134114.389241 kJ/mol
# GULP energy per Si atom -5588.099552 kJ/mol
# Density = 1.801079 g / cm^3
# Si number density = 18.051881 Si / 1000 Ang^3
#
#
#
# Elastic Constant Matrix: (Units=GPa)
#
#
# Indices 1 2 3 4 5 6 
#
# 1 86.3284 17.7036 59.2425 -0.0001 -7.3165 0.0000
# 2 17.7036 86.8627 34.2952 -0.0001 -9.7834 0.0001
# 3 59.2425 34.2952 108.3846 -0.0002 -16.3126 0.0002
# 4 -0.0001 -0.0001 -0.0002 22.4424 0.0001 -10.7759
# 5 -7.3165 -9.7834 -16.3126 0.0001 49.6110 0.0000
# 6 0.0000 0.0001 0.0002 -10.7759 0.0000 25.0646
#
#
#
# Elastic Compliance Matrix: (Units=1/GPa)
#
#
# Indices 1 2 3 4 5 6 
#
# 1 0.018559 0.000217 -0.010305 0.000000 -0.000608 0.000000
# 2 0.000217 0.013237 -0.004113 0.000000 0.001290 0.000000
# 3 -0.010305 -0.004113 0.016633 0.000000 0.003138 0.000000
# 4 0.000000 0.000000 0.000000 0.056150 0.000000 0.024140
# 5 -0.000608 0.001290 0.003138 0.000000 0.021353 0.000000
# 6 0.000000 0.000000 0.000000 0.024140 0.000000 0.050275
#
#
# Mechanical properties :
#
#
# Convention : Reuss Voigt Hill
#
# Bulk Modulus (GPa) = 49.92970 56.00646 52.96808
# Shear Modulus (GPa) = 23.66479 30.77924 27.22201
#
# Velocity S-wave (km/s) = 3.62461 4.13370 3.88749
# Velocity P-wave (km/s) = 6.72578 7.34002 7.03960
#
# Compressibility (1/GPa) = 0.02002816
#
# Stress axis : x y z
#
# Youngs Moduli (GPa) = 53.88212 75.54351 60.12254
#
# Poissons Ratio (x) = -0.01642 0.61954
# Poissons Ratio (y) = -0.01171 0.24730
# Poissons Ratio (z) = 0.55524 0.31073
#
# Static dielectric constant tensor:
#      x y z
#    x 1.697380 0.000010 -0.115480 
#    y 0.000010 1.609520 -0.000010 
#    z -0.115480 -0.000010 2.024730 
# 
# From -- ./inp_files/40973.got.cif
#   From: 2010.05.17/outbox.cif.g08.bks.cpg/sg15_21_cif.got.tgz:40973.got - 2010.06.03 18:47:42.
