data_PCOD9307947
_publ_section_title
;
Structure prediction by ZEFSAII (Michael W. Deem and Ramdas Pophale) SiO2 
 PCOD9307947
Probable space group: C 2/C
;
_chemical_formula_sum "Si O2"
_cell_formula_units_Z 48
_cell_length_a 12.052341
_cell_length_b 14.977095
_cell_length_c 14.223813
_cell_angle_alpha 90.000000
_cell_angle_beta 64.232902
_cell_angle_gamma 90.000000
_cell_volume 2312.234130
_symmetry_space_group_name_H-M "C 2/C"
_symmetry_group_IT_number 15
_symmetry_cell_setting 'monoclinic'
loop_
_space_group_symop_operation_xyz
x,y,z
-x,y,1/2-z
-x,-y,-z
x,-y,1/2+z
1/2+x,1/2+y,z
1/2-x,1/2+y,1/2-z
1/2-x,1/2-y,-z
1/2+x,1/2-y,1/2+z
loop_
_atom_site_type_symbol
_atom_site_label
_atom_site_fract_x
_atom_site_fract_y
_atom_site_fract_z
Si Si1 0.000000 0.583472 0.750000
Si Si2 0.769763 0.677312 0.911056
Si Si3 0.747451 0.679971 0.226689
Si Si4 0.538543 0.945378 0.893672
Si Si5 0.209133 0.340020 0.568061
Si Si6 0.000000 0.091366 0.250000
Si Si7 0.385841 0.493360 0.972047
O O1 0.091487 0.644582 0.656612
O O2 0.062830 0.516407 0.801191
O O3 0.731049 0.724136 0.828077
O O4 0.750000 0.750000 0.000000
O O5 0.694413 0.590014 0.963893
O O6 0.837991 0.611436 0.140017
O O7 0.779495 0.675815 0.324379
O O8 0.606721 0.650997 0.258650
O O9 0.426691 0.878452 0.906888
O O10 0.500000 0.000000 0.000000
O O11 0.250000 0.250000 0.500000
O O12 0.303600 0.418522 0.505884
O O13 0.936128 0.030443 0.351321
O O14 0.500000 0.500000 0.000000
#
# Coordination Sequence:
#
# PCOD9307947 Si02
#       7
#     4   8   8   8   8   4   8
#     4  12  25  48  73 108 152 190 253 310 367 448
#     4  12  26  44  75 110 144 198 248 302 371 443
#     4  12  25  46  74 111 148 191 252 306 368 455
#     4  12  25  49  77 105 147 198 249 310 380 443
#     4  12  28  51  74 111 150 193 250 319 382 442
#     4  12  25  46  77 106 150 202 245 302 375 442
#     4  12  26  48  72 109 152 193 248 306 373 447
#
# _framework density 20.759142000000001
#
# number of rings (size 3 to 8) (size 9 to 14) (size 15 to 20)
#    0.000    0.000    6.667    2.500    4.667    1.333 
#    0.000    0.000    0.000    0.000    0.000    0.000 
#    0.000    0.000    0.000    0.000    0.000    0.000 
#
# Total GULP energy -134379.533528 kJ/mol
# GULP energy per Si atom -5599.147230 kJ/mol
# Density = 2.071189 g / cm^3
# Si number density = 20.759142 Si / 1000 Ang^3
#
#
#
# Elastic Constant Matrix: (Units=GPa)
#
#
# Indices 1 2 3 4 5 6 
#
# 1 109.5287 46.6898 30.6877 0.0000 -12.6171 0.0000
# 2 46.6898 164.2104 64.5346 0.0000 -11.6680 0.0000
# 3 30.6877 64.5346 124.2963 0.0000 -2.6966 0.0000
# 4 0.0000 0.0000 0.0000 33.8623 0.0000 3.0351
# 5 -12.6171 -11.6680 -2.6966 0.0000 43.1857 0.0000
# 6 0.0000 0.0000 0.0000 3.0351 0.0000 27.2046
#
#
#
# Elastic Compliance Matrix: (Units=1/GPa)
#
#
# Indices 1 2 3 4 5 6 
#
# 1 0.010803 -0.002351 -0.001394 0.000000 0.002434 0.000000
# 2 -0.002351 0.008308 -0.003704 0.000000 0.001327 0.000000
# 3 -0.001394 -0.003704 0.010296 0.000000 -0.000765 0.000000
# 4 0.000000 0.000000 0.000000 0.029830 0.000000 -0.003328
# 5 0.002434 0.001327 -0.000765 0.000000 0.024178 0.000000
# 6 0.000000 0.000000 0.000000 -0.003328 0.000000 0.037130
#
#
# Mechanical properties :
#
#
# Convention : Reuss Voigt Hill
#
# Bulk Modulus (GPa) = 68.92185 75.76220 72.34203
# Shear Modulus (GPa) = 35.64318 37.92541 36.78429
#
# Velocity S-wave (km/s) = 4.14815 4.27889 4.21403
# Velocity P-wave (km/s) = 7.49771 7.80941 7.65515
#
# Compressibility (1/GPa) = 0.01450919
#
# Stress axis : x y z
#
# Youngs Moduli (GPa) = 92.56630 120.36162 97.12361
#
# Poissons Ratio (x) = 0.28296 0.13537
# Poissons Ratio (y) = 0.21762 0.35979
# Poissons Ratio (z) = 0.12902 0.44587
#
# Static dielectric constant tensor:
#      x y z
#    x 1.751860 0.000000 0.016400 
#    y 0.000000 1.740570 0.000000 
#    z 0.016400 0.000000 1.725610 
# 
# From -- ./inp_files/144098.got.cif
#   From: 2010.05.17/outbox.cif.g08.bks.cpg/sg15_73_cif.got.tgz:144098.got - 2010.06.03 18:47:42.
