data_PCOD9307990
_publ_section_title
;
Structure prediction by ZEFSAII (Michael W. Deem and Ramdas Pophale) SiO2 
 PCOD9307990
Probable space group: C 2/C
;
_chemical_formula_sum "Si O2"
_cell_formula_units_Z 28
_cell_length_a 9.448394
_cell_length_b 12.721318
_cell_length_c 14.512263
_cell_angle_alpha 90.000000
_cell_angle_beta 141.050110
_cell_angle_gamma 90.000000
_cell_volume 1096.547833
_symmetry_space_group_name_H-M "C 2/C"
_symmetry_group_IT_number 15
_symmetry_cell_setting 'monoclinic'
loop_
_space_group_symop_operation_xyz
x,y,z
-x,y,1/2-z
-x,-y,-z
x,-y,1/2+z
1/2+x,1/2+y,z
1/2-x,1/2+y,1/2-z
1/2-x,1/2-y,-z
1/2+x,1/2-y,1/2+z
loop_
_atom_site_type_symbol
_atom_site_label
_atom_site_fract_x
_atom_site_fract_y
_atom_site_fract_z
Si Si1 0.721113 0.833538 0.565733
Si Si2 0.000000 0.624024 0.250000
Si Si3 0.112395 0.027466 0.957048
Si Si4 0.255543 0.295667 0.232442
O O1 0.750000 0.750000 0.500000
O O2 0.771343 0.766797 0.683797
O O3 0.454196 0.856758 0.418877
O O4 0.866055 0.932430 0.603915
O O5 0.128769 0.556645 0.390357
O O6 0.188815 0.700024 0.306333
O O7 0.963965 0.124408 0.846236
O O8 0.000000 0.000000 0.000000
#
# Coordination Sequence:
#
# PCOD9307990 Si02
#       4
#     8   4   8   8
#     4  12  26  48  79 111 157 204 260 320 394 466
#     4  12  26  50  72 112 160 196 268 330 382 470
#     4  12  25  47  77 111 152 208 256 317 396 463
#     4  12  26  51  76 114 156 205 260 326 388 466
#
# _framework density 25.534683999999999
#
# number of rings (size 3 to 8) (size 9 to 14) (size 15 to 20)
#    0.000    0.000    5.714    3.429    0.000    1.143 
#   10.286    0.000    0.000    0.000    0.000    0.000 
#    0.000    0.000    0.000    0.000    0.000    0.000 
#
# Total GULP energy -78372.367511 kJ/mol
# GULP energy per Si atom -5598.026251 kJ/mol
# Density = 2.547657 g / cm^3
# Si number density = 25.534684 Si / 1000 Ang^3
#
#
#
# Elastic Constant Matrix: (Units=GPa)
#
#
# Indices 1 2 3 4 5 6 
#
# 1 89.0686 45.1369 23.1777 0.0000 -20.5425 -0.0001
# 2 45.1369 154.7062 52.4214 -0.0001 -10.5860 -0.0001
# 3 23.1777 52.4214 152.5669 -0.0001 3.7188 -0.0002
# 4 0.0000 -0.0001 -0.0001 40.6836 -0.0001 7.7798
# 5 -20.5425 -10.5860 3.7188 -0.0001 44.2192 -0.0001
# 6 -0.0001 -0.0001 -0.0002 7.7798 -0.0001 66.3665
#
#
#
# Elastic Compliance Matrix: (Units=1/GPa)
#
#
# Indices 1 2 3 4 5 6 
#
# 1 0.014702 -0.003469 -0.001190 0.000000 0.006100 0.000000
# 2 -0.003469 0.008309 -0.002342 0.000000 0.000575 0.000000
# 3 -0.001190 -0.002342 0.007583 0.000000 -0.001751 0.000000
# 4 0.000000 0.000000 0.000000 0.025144 0.000000 -0.002947
# 5 0.006100 0.000575 -0.001751 0.000000 0.025733 0.000000
# 6 0.000000 0.000000 0.000000 -0.002947 0.000000 0.015413
#
#
# Mechanical properties :
#
#
# Convention : Reuss Voigt Hill
#
# Bulk Modulus (GPa) = 60.27240 70.86817 65.57029
# Shear Modulus (GPa) = 42.94975 48.62758 45.78866
#
# Velocity S-wave (km/s) = 4.10569 4.36865 4.23921
# Velocity P-wave (km/s) = 6.79198 7.29799 7.04953
#
# Compressibility (1/GPa) = 0.01659134
#
# Stress axis : x y z
#
# Youngs Moduli (GPa) = 68.01977 120.35525 131.87934
#
# Poissons Ratio (x) = 0.41747 0.15698
# Poissons Ratio (y) = 0.23594 0.30885
# Poissons Ratio (z) = 0.08096 0.28186
#
# Static dielectric constant tensor:
#      x y z
#    x 2.089930 0.000000 0.156800 
#    y 0.000000 1.950850 0.000000 
#    z 0.156800 0.000000 2.276250 
# 
# From -- ./inp_files/55108.got.cif
#   From: 2010.05.17/outbox.cif.g08.bks.cpg/sg15_28_cif.got.tgz:55108.got - 2010.06.03 18:47:42.
