data_PCOD9307085
_publ_section_title
;
Structure prediction by ZEFSAII (Michael W. Deem and Ramdas Pophale) SiO2 
 PCOD9307085
Probable space group: C 2/C
;
_chemical_formula_sum "Si O2"
_cell_formula_units_Z 40
_cell_length_a 12.398990
_cell_length_b 19.282176
_cell_length_c 9.658021
_cell_angle_alpha 90.000000
_cell_angle_beta 138.930275
_cell_angle_gamma 90.000000
_cell_volume 1516.982760
_symmetry_space_group_name_H-M "C 2/C"
_symmetry_group_IT_number 15
_symmetry_cell_setting 'monoclinic'
loop_
_space_group_symop_operation_xyz
x,y,z
-x,y,1/2-z
-x,-y,-z
x,-y,1/2+z
1/2+x,1/2+y,z
1/2-x,1/2+y,1/2-z
1/2-x,1/2-y,-z
1/2+x,1/2-y,1/2+z
loop_
_atom_site_type_symbol
_atom_site_label
_atom_site_fract_x
_atom_site_fract_y
_atom_site_fract_z
Si Si1 0.000000 0.626776 0.250000
Si Si2 0.333194 0.010866 0.253843
Si Si3 0.784918 0.720624 0.857450
Si Si4 0.803538 0.639264 0.598944
Si Si5 0.500000 0.653404 0.750000
Si Si6 0.132781 0.875969 0.652742
O O1 0.136921 0.573527 0.326711
O O2 0.065942 0.673358 0.439284
O O3 0.289855 0.938808 0.143932
O O4 0.500000 0.000000 0.500000
O O5 0.212151 0.047811 0.241202
O O6 0.641185 0.704049 0.825782
O O7 0.751079 0.689493 0.672748
O O8 0.810096 0.801890 0.858915
O O9 0.671981 0.646877 0.348935
O O10 0.000000 0.649765 0.750000
O O11 0.484794 0.607787 0.594601
#
# Coordination Sequence:
#
# PCOD9307085 Si02
#       6
#     4   8   8   8   4   8
#     4  12  21  44  80 112 148 205 276 316 365 462
#     4  12  22  44  82 114 144 200 277 323 367 450
#     4  12  28  47  78 116 164 208 259 324 391 472
#     4  12  26  48  80 119 151 205 268 332 382 452
#     4  12  29  46  72 114 156 211 242 320 403 456
#     4  12  27  48  76 114 160 206 264 319 396 467
#
# _framework density 26.368130000000001
#
# number of rings (size 3 to 8) (size 9 to 14) (size 15 to 20)
#    0.000    0.000    7.000    1.800    5.600    0.800 
#    0.000    4.000    0.000    0.000    0.000    0.000 
#    0.000    0.000    0.000    0.000    0.000    0.000 
#
# Total GULP energy -111445.745256 kJ/mol
# GULP energy per Si atom -5572.287263 kJ/mol
# Density = 2.630812 g / cm^3
# Si number density = 26.368130 Si / 1000 Ang^3
#
#
#
# Elastic Constant Matrix: (Units=GPa)
#
#
# Indices 1 2 3 4 5 6 
#
# 1 78.9291 17.0020 6.9236 0.0000 -19.6644 0.0000
# 2 17.0020 139.0260 10.8314 0.0000 -8.0656 0.0000
# 3 6.9236 10.8314 151.6013 0.0000 -45.1818 0.0000
# 4 0.0000 0.0000 0.0000 33.3086 0.0000 -2.3862
# 5 -19.6644 -8.0656 -45.1818 0.0000 41.5052 0.0000
# 6 0.0000 0.0000 0.0000 -2.3862 0.0000 38.9761
#
#
#
# Elastic Compliance Matrix: (Units=1/GPa)
#
#
# Indices 1 2 3 4 5 6 
#
# 1 0.015096 -0.001480 0.002164 0.000000 0.009221 0.000000
# 2 -0.001480 0.007422 -0.000358 0.000000 0.000352 0.000000
# 3 0.002164 -0.000358 0.010077 0.000000 0.011926 0.000000
# 4 0.000000 0.000000 0.000000 0.030155 0.000000 0.001846
# 5 0.009221 0.000352 0.011926 0.000000 0.041512 0.000000
# 6 0.000000 0.000000 0.000000 0.001846 0.000000 0.025770
#
#
# Mechanical properties :
#
#
# Convention : Reuss Voigt Hill
#
# Bulk Modulus (GPa) = 30.07676 48.78561 39.43118
# Shear Modulus (GPa) = 35.59699 45.07793 40.33746
#
# Velocity S-wave (km/s) = 3.67822 4.13917 3.91548
# Velocity P-wave (km/s) = 5.42866 6.43316 5.95214
#
# Compressibility (1/GPa) = 0.03324826
#
# Stress axis : x y z
#
# Youngs Moduli (GPa) = 66.24392 134.73184 99.23390
#
# Poissons Ratio (x) = 0.19938 -0.21477
# Poissons Ratio (y) = 0.09803 0.03552
# Poissons Ratio (z) = -0.14337 0.04822
#
# Static dielectric constant tensor:
#      x y z
#    x 2.352220 0.000000 0.174470 
#    y 0.000000 2.004010 0.000000 
#    z 0.174470 0.000000 2.529130 
# 
# From -- ./inp_files/118889.got.cif
#   From: 2010.05.17/outbox.cif.g08.bks.cpg/sg15_60_cif.got.tgz:118889.got - 2010.06.03 18:47:42.
