data_PCOD9307178
_publ_section_title
;
Structure prediction by ZEFSAII (Michael W. Deem and Ramdas Pophale) SiO2 
 PCOD9307178
Probable space group: C 2/C
;
_chemical_formula_sum "Si O2"
_cell_formula_units_Z 44
_cell_length_a 21.023209
_cell_length_b 18.137054
_cell_length_c 16.586013
_cell_angle_alpha 90.000000
_cell_angle_beta 160.723653
_cell_angle_gamma 90.000000
_cell_volume 2087.785275
_symmetry_space_group_name_H-M "C 2/C"
_symmetry_group_IT_number 15
_symmetry_cell_setting 'monoclinic'
loop_
_space_group_symop_operation_xyz
x,y,z
-x,y,1/2-z
-x,-y,-z
x,-y,1/2+z
1/2+x,1/2+y,z
1/2-x,1/2+y,1/2-z
1/2-x,1/2-y,-z
1/2+x,1/2-y,1/2+z
loop_
_atom_site_type_symbol
_atom_site_label
_atom_site_fract_x
_atom_site_fract_y
_atom_site_fract_z
Si Si1 0.384018 0.316115 0.690536
Si Si2 0.319848 0.683340 0.815819
Si Si3 0.309497 0.040471 0.563916
Si Si4 0.465454 0.081091 0.924402
Si Si5 0.358787 0.338834 0.926810
Si Si6 0.500000 0.423776 0.250000
O O1 0.500000 0.340104 0.750000
O O2 0.250000 0.250000 0.500000
O O3 0.268600 0.388861 0.578950
O O4 0.528921 0.291228 0.933762
O O5 0.177801 0.625475 0.688112
O O6 0.195849 0.752555 0.637264
O O7 0.453424 0.651997 0.904585
O O8 0.500000 0.009912 0.750000
O O9 0.369361 0.072699 0.722392
O O10 0.151480 0.977930 0.387641
O O11 0.670537 0.121324 0.166037
O O12 0.500000 0.000000 0.000000
O O13 0.398622 0.373614 0.061575
#
# Coordination Sequence:
#
# PCOD9307178 Si02
#       6
#     8   8   8   8   8   4
#     4  12  22  41  71 103 144 179 232 295 360 436
#     4  12  25  48  73 106 147 190 241 299 365 427
#     4  12  25  47  72 106 144 187 232 300 365 430
#     4  12  25  47  74 111 145 188 246 297 364 440
#     4  12  27  47  75 104 143 195 242 301 363 428
#     4  12  28  48  70 108 142 188 256 294 356 432
#
# _framework density 21.074963
#
# number of rings (size 3 to 8) (size 9 to 14) (size 15 to 20)
#    0.000    0.000    6.364    3.818    2.545    1.455 
#    0.000    0.000    0.000    0.000    0.000    0.000 
#    0.000    0.000    0.000    0.000    0.000    0.000 
#
# Total GULP energy -123207.865083 kJ/mol
# GULP energy per Si atom -5600.357504 kJ/mol
# Density = 2.102700 g / cm^3
# Si number density = 21.074963 Si / 1000 Ang^3
#
#
#
# Elastic Constant Matrix: (Units=GPa)
#
#
# Indices 1 2 3 4 5 6 
#
# 1 54.0188 35.6259 34.9904 0.0000 10.9473 0.0000
# 2 35.6259 133.8439 63.7861 0.0000 4.2699 0.0000
# 3 34.9904 63.7861 108.3266 0.0003 8.7792 0.0001
# 4 0.0000 0.0000 0.0003 25.4993 0.0001 -11.9378
# 5 10.9473 4.2699 8.7792 0.0001 54.8975 0.0001
# 6 0.0000 0.0000 0.0001 -11.9378 0.0001 19.2209
#
#
#
# Elastic Compliance Matrix: (Units=1/GPa)
#
#
# Indices 1 2 3 4 5 6 
#
# 1 0.025565 -0.004025 -0.005572 0.000000 -0.003894 0.000000
# 2 -0.004025 0.011021 -0.005253 0.000000 0.000786 0.000000
# 3 -0.005572 -0.005253 0.014185 0.000000 -0.000749 0.000000
# 4 0.000000 0.000000 0.000000 0.055295 0.000000 0.034343
# 5 -0.003894 0.000786 -0.000749 0.000000 0.019051 0.000000
# 6 0.000000 0.000000 0.000000 0.034343 0.000000 0.073356
#
#
# Mechanical properties :
#
#
# Convention : Reuss Voigt Hill
#
# Bulk Modulus (GPa) = 47.45919 62.77714 55.11816
# Shear Modulus (GPa) = 21.25873 30.70934 25.98403
#
# Velocity S-wave (km/s) = 3.17948 3.82140 3.51512
# Velocity P-wave (km/s) = 6.00391 7.02304 6.53337
#
# Compressibility (1/GPa) = 0.02107073
#
# Stress axis : x y z
#
# Youngs Moduli (GPa) = 39.11590 90.73414 70.49658
#
# Poissons Ratio (x) = 0.36521 0.39281
# Poissons Ratio (y) = 0.15744 0.37033
# Poissons Ratio (z) = 0.21796 0.47664
#
# Static dielectric constant tensor:
#      x y z
#    x 1.754680 0.000000 0.005330 
#    y 0.000000 1.866800 0.000000 
#    z 0.005330 0.000000 1.811720 
# 
# From -- ./inp_files/216204.got.cif
#   From: 2010.05.17/outbox.cif.g08.bks.cpg/sg15_109_cif.got.tgz:216204.got - 2010.06.03 18:47:42.
