data_PCOD9307071
_publ_section_title
;
Structure prediction by ZEFSAII (Michael W. Deem and Ramdas Pophale) SiO2 
 PCOD9307071
Probable space group: C 2/C
;
_chemical_formula_sum "Si O2"
_cell_formula_units_Z 52
_cell_length_a 10.901886
_cell_length_b 26.196450
_cell_length_c 8.981615
_cell_angle_alpha 90.000000
_cell_angle_beta 114.634941
_cell_angle_gamma 90.000000
_cell_volume 2331.598856
_symmetry_space_group_name_H-M "C 2/C"
_symmetry_group_IT_number 15
_symmetry_cell_setting 'monoclinic'
loop_
_space_group_symop_operation_xyz
x,y,z
-x,y,1/2-z
-x,-y,-z
x,-y,1/2+z
1/2+x,1/2+y,z
1/2-x,1/2+y,1/2-z
1/2-x,1/2-y,-z
1/2+x,1/2-y,1/2+z
loop_
_atom_site_type_symbol
_atom_site_label
_atom_site_fract_x
_atom_site_fract_y
_atom_site_fract_z
Si Si1 0.859123 0.654582 0.114143
Si Si2 0.283933 0.559502 0.346870
Si Si3 0.082811 0.216151 0.947101
Si Si4 0.603044 0.186495 0.668845
Si Si5 0.637424 0.359090 0.077233
Si Si6 0.000000 0.103687 0.250000
Si Si7 0.843229 0.039251 0.713966
O O1 0.810298 0.609418 0.197790
O O2 0.000000 0.673064 0.250000
O O3 0.739375 0.696695 0.032274
O O4 0.894703 0.643501 0.959277
O O5 0.428720 0.573577 0.347616
O O6 0.286233 0.548971 0.522557
O O7 0.260607 0.506595 0.249089
O O8 0.000000 0.226065 0.750000
O O9 0.006006 0.165043 0.956933
O O10 0.069847 0.260794 0.064101
O O11 0.500000 0.178145 0.750000
O O12 0.750454 0.181842 0.817755
O O13 0.658922 0.411018 0.180962
O O14 0.623476 0.367917 0.893902
O O15 0.000000 0.027541 0.750000
#
# Coordination Sequence:
#
# PCOD9307071 Si02
#       7
#     8   8   8   8   8   4   8
#     4  12  27  51  75 110 158 207 247 313 388 456
#     4  12  24  43  74 110 151 199 247 323 382 452
#     4  12  25  52  81 111 147 204 258 316 384 456
#     4  12  30  48  73 109 154 199 252 317 385 453
#     4  12  26  47  76 111 155 200 258 322 375 458
#     4  12  24  42  72 112 150 194 248 322 380 438
#     4  12  21  43  72 114 151 192 263 319 382 438
#
# _framework density 22.302294
#
# number of rings (size 3 to 8) (size 9 to 14) (size 15 to 20)
#    0.000    0.000    6.923    2.769    5.385    0.615 
#    0.000    1.538    0.000    0.000    0.000    0.000 
#    0.000    0.000    0.000    0.000    0.000    0.000 
#
# Total GULP energy -144853.373857 kJ/mol
# GULP energy per Si atom -5571.283610 kJ/mol
# Density = 2.225153 g / cm^3
# Si number density = 22.302294 Si / 1000 Ang^3
#
#
#
# Elastic Constant Matrix: (Units=GPa)
#
#
# Indices 1 2 3 4 5 6 
#
# 1 109.5485 40.1537 45.1185 0.0000 -1.1124 0.0000
# 2 40.1537 125.8580 40.8848 0.0000 -9.7548 0.0000
# 3 45.1185 40.8848 158.8232 0.0000 1.8502 0.0000
# 4 0.0000 0.0000 0.0000 39.4207 0.0000 7.4670
# 5 -1.1124 -9.7548 1.8502 0.0000 44.0678 0.0000
# 6 0.0000 0.0000 0.0000 7.4670 0.0000 0.9466
#
#
#
# Elastic Compliance Matrix: (Units=1/GPa)
#
#
# Indices 1 2 3 4 5 6 
#
# 1 0.011154 -0.002781 -0.002450 0.000000 -0.000231 0.000000
# 2 -0.002781 0.009546 -0.001692 0.000000 0.002114 0.000000
# 3 -0.002450 -0.001692 0.007437 0.000000 -0.000749 0.000000
# 4 0.000000 0.000000 0.000000 -0.051339 0.000000 0.404961
# 5 -0.000231 0.002114 -0.000749 0.000000 0.023186 0.000000
# 6 0.000000 0.000000 0.000000 0.404961 0.000000 -2.137928
#
#
# Mechanical properties :
#
#
# Convention : Reuss Voigt Hill
#
# Bulk Modulus (GPa) = 69.97300 71.83818 70.90559
# Shear Modulus (GPa) = -2.35923 34.75854 16.19966
#
# Velocity S-wave (km/s) = -1.02963 3.95209 2.69804
# Velocity P-wave (km/s) = 5.47991 7.28741 6.44732
#
# Compressibility (1/GPa) = 0.01429123
#
# Stress axis : x y z
#
# Youngs Moduli (GPa) = 89.65076 104.75462 134.46862
#
# Poissons Ratio (x) = 0.29129 0.32948
# Poissons Ratio (y) = 0.24929 0.22753
# Poissons Ratio (z) = 0.21967 0.17725
#
# Static dielectric constant tensor:
#      x y z
#    x 1.875320 0.000000 -0.004700 
#    y 0.000000 1.961930 0.000000 
#    z -0.004700 0.000000 1.920120 
# 
# From -- ./inp_files/33741.got.cif
#   From: 2010.05.17/outbox.cif.g08.bks.cpg/sg15_17_cif.got.tgz:33741.got - 2010.06.03 18:47:42.
