data_PCOD9307209
_publ_section_title
;
Structure prediction by ZEFSAII (Michael W. Deem and Ramdas Pophale) SiO2 
 PCOD9307209
Probable space group: C 2/C
;
_chemical_formula_sum "Si O2"
_cell_formula_units_Z 32
_cell_length_a 14.521402
_cell_length_b 26.036990
_cell_length_c 11.422030
_cell_angle_alpha 90.000000
_cell_angle_beta 18.288530
_cell_angle_gamma 90.000000
_cell_volume 1355.185858
_symmetry_space_group_name_H-M "C 2/C"
_symmetry_group_IT_number 15
_symmetry_cell_setting 'monoclinic'
loop_
_space_group_symop_operation_xyz
x,y,z
-x,y,1/2-z
-x,-y,-z
x,-y,1/2+z
1/2+x,1/2+y,z
1/2-x,1/2+y,1/2-z
1/2-x,1/2-y,-z
1/2+x,1/2-y,1/2+z
loop_
_atom_site_type_symbol
_atom_site_label
_atom_site_fract_x
_atom_site_fract_y
_atom_site_fract_z
Si Si1 0.380425 0.639504 0.149833
Si Si2 0.500000 0.785784 0.250000
Si Si3 0.500000 0.942556 0.750000
Si Si4 0.415554 0.032843 0.990453
Si Si5 0.000000 0.901171 0.750000
Si Si6 0.500000 0.625649 0.750000
O O1 0.293032 0.580401 0.235447
O O2 0.545740 0.632600 0.076391
O O3 0.124304 0.677486 0.498399
O O4 0.489801 0.655110 0.888025
O O5 0.250000 0.750000 0.500000
O O6 0.703489 0.908238 0.587612
O O7 0.295253 0.985146 0.058970
O O8 0.711989 0.062894 0.588385
O O9 0.500000 0.000000 0.000000
#
# Coordination Sequence:
#
# PCOD9307209 Si02
#       6
#     8   4   4   8   4   4
#     4  12  26  46  71 110 142 194 243 314 364 441
#     4  12  28  52  85 106 132 185 258 318 376 434
#     4  12  23  40  58 108 146 218 234 283 334 440
#     4  12  23  36  65 101 157 198 252 286 348 433
#     4  12  22  42  68  99 154 201 256 289 349 430
#     4  12  29  42  71 103 160 184 242 296 379 426
#
# _framework density 23.612995999999999
#
# number of rings (size 3 to 8) (size 9 to 14) (size 15 to 20)
#    0.000    0.000    7.500    3.000    0.000    2.000 
#    0.000    1.250    0.000    0.000    0.000    0.000 
#    0.000    0.000    0.000    0.000    0.000    0.000 
#
# Total GULP energy -89141.235460 kJ/mol
# GULP energy per Si atom -5571.327216 kJ/mol
# Density = 2.355925 g / cm^3
# Si number density = 23.612996 Si / 1000 Ang^3
#
#
#
# Elastic Constant Matrix: (Units=GPa)
#
#
# Indices 1 2 3 4 5 6 
#
# 1 185.3991 41.0853 39.0959 0.2933 21.2020 0.2525
# 2 41.0853 99.7351 45.4731 0.0976 2.8693 0.0586
# 3 39.0959 45.4731 77.4678 0.7526 3.4389 0.5950
# 4 0.2933 0.0976 0.7526 28.0986 -0.2467 -19.7222
# 5 21.2020 2.8693 3.4389 -0.2467 60.0855 -0.2308
# 6 0.2525 0.0586 0.5950 -19.7222 -0.2308 16.3180
#
#
#
# Elastic Compliance Matrix: (Units=1/GPa)
#
#
# Indices 1 2 3 4 5 6 
#
# 1 0.006453 -0.001581 -0.002230 -0.000330 -0.002077 -0.000441
# 2 -0.001581 0.014102 -0.007541 0.002310 0.000337 0.003046
# 3 -0.002230 -0.007541 0.018574 -0.005799 0.000031 -0.007624
# 4 -0.000330 0.002310 -0.005799 0.236889 0.002411 0.286550
# 5 -0.002077 0.000337 0.000031 0.002411 0.017380 0.003190
# 6 -0.000441 0.003046 -0.007624 0.286550 0.003190 0.407930
#
#
# Mechanical properties :
#
#
# Convention : Reuss Voigt Hill
#
# Bulk Modulus (GPa) = 60.88044 68.21227 64.54636
# Shear Modulus (GPa) = 6.85395 36.69695 21.77545
#
# Velocity S-wave (km/s) = 1.70556 3.94648 3.04004
# Velocity P-wave (km/s) = 5.45134 7.05100 6.30213
#
# Compressibility (1/GPa) = 0.01642564
#
# Stress axis : x y z
#
# Youngs Moduli (GPa) = 154.96616 70.91020 53.83968
#
# Poissons Ratio (x) = 0.11214 0.12004
# Poissons Ratio (y) = 0.24506 0.40599
# Poissons Ratio (z) = 0.34551 0.53471
#
# Static dielectric constant tensor:
#      x y z
#    x 2.255170 -0.000050 0.208190 
#    y -0.000050 1.812610 0.000130 
#    z 0.208190 0.000130 2.112260 
# 
# From -- ./inp_files/4150.got.cif
#   From: 2010.05.17/outbox.cif.g08.bks.cpg/sg15_3_cif.got.tgz:4150.got - 2010.06.03 18:47:42.
