data_PCOD9307696
_publ_section_title
;
Structure prediction by ZEFSAII (Michael W. Deem and Ramdas Pophale) SiO2 
 PCOD9307696
Probable space group: C 2/C
;
_chemical_formula_sum "Si O2"
_cell_formula_units_Z 40
_cell_length_a 8.949131
_cell_length_b 16.765545
_cell_length_c 10.736256
_cell_angle_alpha 90.000000
_cell_angle_beta 95.329736
_cell_angle_gamma 90.000000
_cell_volume 1603.872020
_symmetry_space_group_name_H-M "C 2/C"
_symmetry_group_IT_number 15
_symmetry_cell_setting 'monoclinic'
loop_
_space_group_symop_operation_xyz
x,y,z
-x,y,1/2-z
-x,-y,-z
x,-y,1/2+z
1/2+x,1/2+y,z
1/2-x,1/2+y,1/2-z
1/2-x,1/2-y,-z
1/2+x,1/2-y,1/2+z
loop_
_atom_site_type_symbol
_atom_site_label
_atom_site_fract_x
_atom_site_fract_y
_atom_site_fract_z
Si Si1 0.995077 0.888271 0.437589
Si Si2 0.270890 0.013224 0.690623
Si Si3 0.153918 0.569861 0.542948
Si Si4 0.641875 0.363864 0.822560
Si Si5 0.956589 0.701513 0.390666
O O1 0.874110 0.930376 0.339370
O O2 0.931579 0.910484 0.568624
O O3 0.987611 0.793170 0.422174
O O4 0.168868 0.908636 0.444407
O O5 0.364869 0.045111 0.815115
O O6 0.352706 0.999064 0.564228
O O7 0.213025 0.926907 0.733020
O O8 0.051346 0.642438 0.486159
O O9 0.500000 0.319176 0.750000
O O10 0.778648 0.312857 0.884104
O O11 0.000000 0.685490 0.250000
#
# Coordination Sequence:
#
# PCOD9307696 Si02
#       5
#     8   8   8   8   8
#     4  12  25  45  76 107 147 194 253 298 369 444
#     4  12  24  45  77 107 142 197 249 297 366 438
#     4  12  25  46  77 107 150 191 252 307 366 435
#     4  12  24  46  73 102 148 195 246 305 365 437
#     4  12  26  47  70 111 151 194 241 311 375 436
#
# _framework density 24.939646
#
# number of rings (size 3 to 8) (size 9 to 14) (size 15 to 20)
#    0.000    0.000    6.000    4.800    0.000    2.400 
#    3.600    0.000    0.000    0.000    0.000    0.000 
#    0.000    0.000    0.000    0.000    0.000    0.000 
#
# Total GULP energy -112081.717073 kJ/mol
# GULP energy per Si atom -5604.085854 kJ/mol
# Density = 2.488288 g / cm^3
# Si number density = 24.939646 Si / 1000 Ang^3
#
#
#
# Elastic Constant Matrix: (Units=GPa)
#
#
# Indices 1 2 3 4 5 6 
#
# 1 153.7712 50.0203 57.3295 0.0000 36.1877 0.0000
# 2 50.0203 134.1884 46.7328 0.0000 38.9480 0.0000
# 3 57.3295 46.7328 180.8735 0.0000 20.6121 0.0000
# 4 0.0000 0.0000 0.0000 24.0725 0.0000 3.1615
# 5 36.1877 38.9480 20.6121 0.0000 65.8708 0.0000
# 6 0.0000 0.0000 0.0000 3.1615 0.0000 30.0015
#
#
#
# Elastic Compliance Matrix: (Units=1/GPa)
#
#
# Indices 1 2 3 4 5 6 
#
# 1 0.008467 -0.001584 -0.001920 0.000000 -0.003114 0.000000
# 2 -0.001584 0.009882 -0.001540 0.000000 -0.004491 0.000000
# 3 -0.001920 -0.001540 0.006544 0.000000 -0.000083 0.000000
# 4 0.000000 0.000000 0.000000 0.042124 0.000000 -0.004439
# 5 -0.003114 -0.004491 -0.000083 0.000000 0.019574 0.000000
# 6 0.000000 0.000000 0.000000 -0.004439 0.000000 0.033800
#
#
# Mechanical properties :
#
#
# Convention : Reuss Voigt Hill
#
# Bulk Modulus (GPa) = 67.53059 86.33315 76.93187
# Shear Modulus (GPa) = 36.92414 44.97232 40.94823
#
# Velocity S-wave (km/s) = 3.85195 4.25107 4.05642
# Velocity P-wave (km/s) = 6.84980 7.66730 7.27005
#
# Compressibility (1/GPa) = 0.01480810
#
# Stress axis : x y z
#
# Youngs Moduli (GPa) = 118.10667 101.19070 152.80279
#
# Poissons Ratio (x) = 0.16025 0.29332
# Poissons Ratio (y) = 0.18704 0.23524
# Poissons Ratio (z) = 0.22671 0.15579
#
# Static dielectric constant tensor:
#      x y z
#    x 2.011620 0.000000 -0.036340 
#    y 0.000000 1.931750 0.000000 
#    z -0.036340 0.000000 2.032600 
# 
# From -- ./inp_files/76887.got.cif
#   From: 2010.05.17/outbox.cif.g08.bks.cpg/sg15_39_cif.got.tgz:76887.got - 2010.06.03 18:47:42.
