data_PCOD9307353
_publ_section_title
;
Structure prediction by ZEFSAII (Michael W. Deem and Ramdas Pophale) SiO2 
 PCOD9307353
Probable space group: C 2/C
;
_chemical_formula_sum "Si O2"
_cell_formula_units_Z 40
_cell_length_a 14.818232
_cell_length_b 14.194742
_cell_length_c 10.099337
_cell_angle_alpha 90.000000
_cell_angle_beta 110.222474
_cell_angle_gamma 90.000000
_cell_volume 1993.357026
_symmetry_space_group_name_H-M "C 2/C"
_symmetry_group_IT_number 15
_symmetry_cell_setting 'monoclinic'
loop_
_space_group_symop_operation_xyz
x,y,z
-x,y,1/2-z
-x,-y,-z
x,-y,1/2+z
1/2+x,1/2+y,z
1/2-x,1/2+y,1/2-z
1/2-x,1/2-y,-z
1/2+x,1/2-y,1/2+z
loop_
_atom_site_type_symbol
_atom_site_label
_atom_site_fract_x
_atom_site_fract_y
_atom_site_fract_z
Si Si1 0.011898 0.248869 0.908535
Si Si2 0.799550 0.289617 0.894304
Si Si3 0.595335 0.459770 0.485091
Si Si4 0.285099 0.484002 0.690245
Si Si5 0.795956 0.307529 0.399941
O O1 0.000000 0.278073 0.750000
O O2 0.907818 0.252697 0.924449
O O3 0.063402 0.146446 0.933319
O O4 0.090265 0.312762 0.020699
O O5 0.790524 0.402624 0.884017
O O6 0.733991 0.252078 0.741891
O O7 0.750000 0.250000 0.000000
O O8 0.500000 0.500000 0.500000
O O9 0.676332 0.468206 0.640982
O O10 0.628132 0.517609 0.372659
O O11 0.245055 0.588452 0.644216
O O12 0.750000 0.250000 0.500000
#
# Coordination Sequence:
#
# PCOD9307353 Si02
#       5
#     8   8   8   8   8
#     4  12  24  44  74 100 138 195 235 275 348 433
#     4  12  26  44  68 109 147 173 229 308 357 397
#     4  12  23  40  68 102 134 177 241 282 343 415
#     4  12  24  43  69 101 137 184 225 294 350 406
#     4  12  23  46  72  98 139 188 239 281 341 435
#
# _framework density 20.066652000000001
#
# number of rings (size 3 to 8) (size 9 to 14) (size 15 to 20)
#    0.000    0.000    6.000    5.400    0.000    1.600 
#    0.000    0.000    0.000    0.000    0.000    0.000 
#    0.000    0.000    0.000    0.000    0.000    0.000 
#
# Total GULP energy -111802.944482 kJ/mol
# GULP energy per Si atom -5590.147224 kJ/mol
# Density = 2.002098 g / cm^3
# Si number density = 20.066652 Si / 1000 Ang^3
#
#
#
# Elastic Constant Matrix: (Units=GPa)
#
#
# Indices 1 2 3 4 5 6 
#
# 1 115.6380 5.1383 48.0101 0.0000 4.7682 0.0000
# 2 5.1383 99.4412 19.3141 0.0000 6.1960 0.0000
# 3 48.0101 19.3141 128.9563 0.0000 -4.8942 0.0000
# 4 0.0000 0.0000 0.0000 24.7331 0.0000 7.6922
# 5 4.7682 6.1960 -4.8942 0.0000 39.9564 0.0000
# 6 0.0000 0.0000 0.0000 7.6922 0.0000 35.0732
#
#
#
# Elastic Compliance Matrix: (Units=1/GPa)
#
#
# Indices 1 2 3 4 5 6 
#
# 1 0.010356 0.000348 -0.003975 0.000000 -0.001777 0.000000
# 2 0.000348 0.010500 -0.001774 0.000000 -0.001887 0.000000
# 3 -0.003975 -0.001774 0.009573 0.000000 0.001922 0.000000
# 4 0.000000 0.000000 0.000000 0.043391 0.000000 -0.009517
# 5 -0.001777 -0.001887 0.001922 0.000000 0.025767 0.000000
# 6 0.000000 0.000000 0.000000 -0.009517 0.000000 0.030599
#
#
# Mechanical properties :
#
#
# Convention : Reuss Voigt Hill
#
# Bulk Modulus (GPa) = 50.94992 54.32897 52.63944
# Shear Modulus (GPa) = 33.89115 38.05739 35.97427
#
# Velocity S-wave (km/s) = 4.11412 4.35966 4.23867
# Velocity P-wave (km/s) = 6.92917 7.24398 7.08832
#
# Compressibility (1/GPa) = 0.01962712
#
# Stress axis : x y z
#
# Youngs Moduli (GPa) = 96.56448 95.23528 104.46032
#
# Poissons Ratio (x) = -0.03311 0.41522
# Poissons Ratio (y) = -0.03357 0.18528
# Poissons Ratio (z) = 0.38384 0.16892
#
# Static dielectric constant tensor:
#      x y z
#    x 1.742820 0.000000 0.015680 
#    y 0.000000 1.790260 0.000000 
#    z 0.015680 0.000000 1.692410 
# 
# From -- ./inp_files/37804.got.cif
#   From: 2010.05.17/outbox.cif.g08.bks.cpg/sg15_19_cif.got.tgz:37804.got - 2010.06.03 18:47:42.
