data_PCOD9307477
_publ_section_title
;
Structure prediction by ZEFSAII (Michael W. Deem and Ramdas Pophale) SiO2 
 PCOD9307477
Probable space group: C 2/C
;
_chemical_formula_sum "Si O2"
_cell_formula_units_Z 48
_cell_length_a 25.104694
_cell_length_b 11.551930
_cell_length_c 19.631916
_cell_angle_alpha 90.000000
_cell_angle_beta 21.886799
_cell_angle_gamma 90.000000
_cell_volume 2122.353783
_symmetry_space_group_name_H-M "C 2/C"
_symmetry_group_IT_number 15
_symmetry_cell_setting 'monoclinic'
loop_
_space_group_symop_operation_xyz
x,y,z
-x,y,1/2-z
-x,-y,-z
x,-y,1/2+z
1/2+x,1/2+y,z
1/2-x,1/2+y,1/2-z
1/2-x,1/2-y,-z
1/2+x,1/2-y,1/2+z
loop_
_atom_site_type_symbol
_atom_site_label
_atom_site_fract_x
_atom_site_fract_y
_atom_site_fract_z
Si Si1 0.500000 0.964037 0.750000
Si Si2 0.718904 0.822779 0.827210
Si Si3 0.464947 0.758818 0.575782
Si Si4 0.701164 0.644805 0.605255
Si Si5 0.518611 0.017292 0.880257
Si Si6 0.257386 0.306749 0.068663
Si Si7 0.500000 0.485202 0.750000
O O1 0.646169 0.903923 0.553715
O O2 0.546726 0.016954 0.765767
O O3 0.619382 0.747643 0.895160
O O4 0.705173 0.794566 0.923293
O O5 0.879074 0.797881 0.614401
O O6 0.643532 0.947296 0.910133
O O7 0.381259 0.689636 0.732250
O O8 0.457797 0.893656 0.611413
O O9 0.750000 0.750000 0.500000
O O10 0.594271 0.562569 0.689583
O O11 0.627442 0.125227 0.762930
O O12 0.250000 0.250000 0.000000
O O13 0.383981 0.400015 0.920359
#
# Coordination Sequence:
#
# PCOD9307477 Si02
#       7
#     4   8   8   8   8   8   4
#     4  12  23  45  78 108 140 196 249 299 368 440
#     4  12  28  48  74 108 148 197 250 306 374 453
#     4  12  28  47  75 110 153 194 243 311 384 451
#     4  12  26  46  76 113 150 191 251 309 375 454
#     4  12  25  48  76 105 151 199 242 308 380 438
#     4  12  26  51  76 111 148 198 259 310 368 450
#     4  12  27  45  80 112 148 192 259 319 370 444
#
# _framework density 22.616399999999999
#
# number of rings (size 3 to 8) (size 9 to 14) (size 15 to 20)
#    0.000    0.000    5.000    4.000    4.667    0.000 
#    0.000    2.500    0.000    0.000    0.000    0.000 
#    0.000    0.000    0.000    0.000    0.000    0.000 
#
# Total GULP energy -133856.024213 kJ/mol
# GULP energy per Si atom -5577.334342 kJ/mol
# Density = 2.256492 g / cm^3
# Si number density = 22.616400 Si / 1000 Ang^3
#
#
#
# Elastic Constant Matrix: (Units=GPa)
#
#
# Indices 1 2 3 4 5 6 
#
# 1 68.3783 -0.5977 48.3532 0.0000 2.0481 0.0000
# 2 -0.5977 51.9756 44.3031 0.0000 -3.9950 0.0000
# 3 48.3532 44.3031 180.8698 0.0000 -4.9046 -0.0001
# 4 0.0000 0.0000 0.0000 44.4295 0.0000 -0.6050
# 5 2.0481 -3.9950 -4.9046 0.0000 38.8192 0.0001
# 6 0.0000 0.0000 -0.0001 -0.6050 0.0001 62.5574
#
#
#
# Elastic Compliance Matrix: (Units=1/GPa)
#
#
# Indices 1 2 3 4 5 6 
#
# 1 0.019409 0.005786 -0.006640 0.000000 -0.001268 0.000000
# 2 0.005786 0.026161 -0.007917 0.000000 0.001387 0.000000
# 3 -0.006640 -0.007917 0.009262 0.000000 0.000706 0.000000
# 4 0.000000 0.000000 0.000000 0.022511 0.000000 0.000218
# 5 -0.001268 0.001387 0.000706 0.000000 0.026059 0.000000
# 6 0.000000 0.000000 0.000000 0.000218 0.000000 0.015987
#
#
# Mechanical properties :
#
#
# Convention : Reuss Voigt Hill
#
# Bulk Modulus (GPa) = 26.81744 53.92676 40.37210
# Shear Modulus (GPa) = 33.47553 43.10557 38.29055
#
# Velocity S-wave (km/s) = 3.85144 4.37045 4.11913
# Velocity P-wave (km/s) = 5.62684 7.02592 6.36494
#
# Compressibility (1/GPa) = 0.03728916
#
# Stress axis : x y z
#
# Youngs Moduli (GPa) = 51.52339 38.22419 107.96281
#
# Poissons Ratio (x) = -0.22116 0.71690
# Poissons Ratio (y) = -0.29810 0.85477
# Poissons Ratio (z) = 0.34213 0.30263
#
# Static dielectric constant tensor:
#      x y z
#    x 1.957930 0.000000 0.057020 
#    y 0.000000 1.394750 0.000000 
#    z 0.057020 0.000000 1.816410 
# 
# From -- ./inp_files/257604.got.cif
#   From: 2010.05.17/outbox.cif.g08.bks.cpg/sg15_129_cif.got.tgz:257604.got - 2010.06.03 18:47:42.
