data_PCOD9307840
_publ_section_title
;
Structure prediction by ZEFSAII (Michael W. Deem and Ramdas Pophale) SiO2 
 PCOD9307840
Probable space group: C 2/C
;
_chemical_formula_sum "Si O2"
_cell_formula_units_Z 60
_cell_length_a 26.149627
_cell_length_b 10.863885
_cell_length_c 16.427258
_cell_angle_alpha 90.000000
_cell_angle_beta 30.636002
_cell_angle_gamma 90.000000
_cell_volume 2378.099142
_symmetry_space_group_name_H-M "C 2/C"
_symmetry_group_IT_number 15
_symmetry_cell_setting 'monoclinic'
loop_
_space_group_symop_operation_xyz
x,y,z
-x,y,1/2-z
-x,-y,-z
x,-y,1/2+z
1/2+x,1/2+y,z
1/2-x,1/2+y,1/2-z
1/2-x,1/2-y,-z
1/2+x,1/2-y,1/2+z
loop_
_atom_site_type_symbol
_atom_site_label
_atom_site_fract_x
_atom_site_fract_y
_atom_site_fract_z
Si Si1 0.511041 0.994487 0.086143
Si Si2 0.417508 0.597431 0.142924
Si Si3 0.340246 0.667435 0.413158
Si Si4 0.887035 0.098567 0.871728
Si Si5 0.449539 0.753873 0.640969
Si Si6 0.500000 0.824266 0.250000
Si Si7 0.242946 0.491200 0.293672
Si Si8 0.747887 0.717065 0.325189
O O1 0.472173 0.128611 0.164126
O O2 0.467653 0.899106 0.212307
O O3 0.626503 0.983701 0.951648
O O4 0.500000 0.000000 0.000000
O O5 0.420197 0.642305 0.231078
O O6 0.308445 0.536603 0.280103
O O7 0.500000 0.500000 0.000000
O O8 0.449369 0.714279 0.044228
O O9 0.250000 0.750000 0.500000
O O10 0.320173 0.526205 0.467227
O O11 0.401307 0.739850 0.398718
O O12 0.907151 0.144113 0.753138
O O13 0.000000 0.075649 0.750000
O O14 0.829880 0.211853 0.993676
O O15 0.361517 0.790454 0.700341
O O16 0.284575 0.590584 0.173133
O O17 0.249123 0.344763 0.274477
#
# Coordination Sequence:
#
# PCOD9307840 Si02
#       8
#     8   8   8   8   8   4   8   8
#     4  12  27  50  77 116 166 215 273 351 424 504
#     4  12  24  49  83 113 160 214 275 344 421 513
#     4  12  28  50  78 119 165 210 276 351 425 505
#     4  12  26  48  77 113 155 212 268 339 411 508
#     4  12  26  50  76 115 156 209 273 339 421 498
#     4  12  30  48  80 116 166 220 272 350 438 502
#     4  12  26  49  76 119 155 217 276 338 419 507
#     4  12  28  45  80 111 158 209 274 339 418 500
#
# _framework density 25.230233999999999
#
# number of rings (size 3 to 8) (size 9 to 14) (size 15 to 20)
#    0.000    0.000    4.667    4.400    4.667    3.200 
#    0.000    0.000    0.000    0.000    0.000    0.000 
#    0.000    0.000    0.000    0.000    0.000    0.000 
#
# Total GULP energy -167473.140401 kJ/mol
# GULP energy per Si atom -5582.438013 kJ/mol
# Density = 2.517281 g / cm^3
# Si number density = 25.230234 Si / 1000 Ang^3
#
#
#
# Elastic Constant Matrix: (Units=GPa)
#
#
# Indices 1 2 3 4 5 6 
#
# 1 103.8459 54.5445 22.1803 0.0000 -12.3075 0.0000
# 2 54.5445 141.1399 24.9084 -0.0001 15.6669 0.0000
# 3 22.1803 24.9084 61.6680 0.0000 -10.1435 0.0000
# 4 0.0000 -0.0001 0.0000 42.9209 0.0000 -8.4131
# 5 -12.3075 15.6669 -10.1435 0.0000 47.7916 0.0000
# 6 0.0000 0.0000 0.0000 -8.4131 0.0000 48.5030
#
#
#
# Elastic Compliance Matrix: (Units=1/GPa)
#
#
# Indices 1 2 3 4 5 6 
#
# 1 0.013437 -0.005402 -0.001855 0.000000 0.004838 0.000000
# 2 -0.005402 0.010328 -0.003123 0.000000 -0.005440 0.000000
# 3 -0.001855 -0.003123 0.018894 0.000000 0.004556 0.000000
# 4 0.000000 0.000000 0.000000 0.024119 0.000000 0.004183
# 5 0.004838 -0.005440 0.004556 0.000000 0.024920 0.000000
# 6 0.000000 0.000000 0.000000 0.004183 0.000000 0.021343
#
#
# Mechanical properties :
#
#
# Convention : Reuss Voigt Hill
#
# Bulk Modulus (GPa) = 45.66746 56.65778 51.16262
# Shear Modulus (GPa) = 35.43556 41.51113 38.47334
#
# Velocity S-wave (km/s) = 3.75172 4.06062 3.90922
# Velocity P-wave (km/s) = 6.07509 6.67008 6.37952
#
# Compressibility (1/GPa) = 0.02189743
#
# Stress axis : x y z
#
# Youngs Moduli (GPa) = 74.42278 96.82446 52.92669
#
# Poissons Ratio (x) = 0.52308 0.09818
# Poissons Ratio (y) = 0.40206 0.16530
# Poissons Ratio (z) = 0.13806 0.30241
#
# Static dielectric constant tensor:
#      x y z
#    x 2.200430 0.000000 0.101030 
#    y 0.000000 2.111470 0.000000 
#    z 0.101030 0.000000 2.097020 
# 
# From -- ./inp_files/222547.got.cif
#   From: 2010.05.17/outbox.cif.g08.bks.cpg/sg15_112_cif.got.tgz:222547.got - 2010.06.03 18:47:42.
