data_PCOD9307272
_publ_section_title
;
Structure prediction by ZEFSAII (Michael W. Deem and Ramdas Pophale) SiO2 
 PCOD9307272
Probable space group: C 2/C
;
_chemical_formula_sum "Si O2"
_cell_formula_units_Z 36
_cell_length_a 13.314530
_cell_length_b 8.227708
_cell_length_c 16.039494
_cell_angle_alpha 90.000000
_cell_angle_beta 56.189450
_cell_angle_gamma 90.000000
_cell_volume 1459.939090
_symmetry_space_group_name_H-M "C 2/C"
_symmetry_group_IT_number 15
_symmetry_cell_setting 'monoclinic'
loop_
_space_group_symop_operation_xyz
x,y,z
-x,y,1/2-z
-x,-y,-z
x,-y,1/2+z
1/2+x,1/2+y,z
1/2-x,1/2+y,1/2-z
1/2-x,1/2-y,-z
1/2+x,1/2-y,1/2+z
loop_
_atom_site_type_symbol
_atom_site_label
_atom_site_fract_x
_atom_site_fract_y
_atom_site_fract_z
Si Si1 0.601815 0.623450 0.492263
Si Si2 0.678276 0.213451 0.791112
Si Si3 0.097915 0.634175 0.388073
Si Si4 0.312940 0.924574 0.469383
Si Si5 0.500000 0.823095 0.250000
O O1 0.500000 0.500000 0.500000
O O2 0.674127 0.698411 0.380839
O O3 0.527553 0.772550 0.567062
O O4 0.700998 0.546071 0.507580
O O5 0.802294 0.234026 0.685613
O O6 0.574733 0.286795 0.779603
O O7 0.636916 0.027423 0.821176
O O8 0.114108 0.582762 0.477302
O O9 0.250000 0.750000 0.500000
O O10 0.403840 0.924181 0.348939
#
# Coordination Sequence:
#
# PCOD9307272 Si02
#       5
#     8   8   8   8   4
#     4  12  24  47  75 108 151 204 260 320 390 474
#     4  12  26  46  74 109 153 200 260 321 393 464
#     4  12  26  49  73 112 155 203 257 329 386 472
#     4  12  24  45  76 110 150 203 254 315 398 460
#     4  12  22  44  74 104 146 198 250 312 384 466
#
# _framework density 24.658563999999998
#
# number of rings (size 3 to 8) (size 9 to 14) (size 15 to 20)
#    0.000    0.000    6.667    3.333    0.000    0.889 
#    4.000    0.000    0.000    0.000    0.000    0.000 
#    0.000    0.000    0.000    0.000    0.000    0.000 
#
# Total GULP energy -100793.535222 kJ/mol
# GULP energy per Si atom -5599.640846 kJ/mol
# Density = 2.460244 g / cm^3
# Si number density = 24.658564 Si / 1000 Ang^3
#
#
#
# Elastic Constant Matrix: (Units=GPa)
#
#
# Indices 1 2 3 4 5 6 
#
# 1 133.5682 35.4169 45.5615 0.0000 -9.2037 0.0000
# 2 35.4169 116.8606 53.8269 0.0000 -12.3648 0.0000
# 3 45.5615 53.8269 169.3983 0.0000 -15.9874 0.0000
# 4 0.0000 0.0000 0.0000 39.1652 0.0000 -0.7138
# 5 -9.2037 -12.3648 -15.9874 0.0000 40.7577 0.0000
# 6 0.0000 0.0000 0.0000 -0.7138 0.0000 49.4212
#
#
#
# Elastic Compliance Matrix: (Units=1/GPa)
#
#
# Indices 1 2 3 4 5 6 
#
# 1 0.008575 -0.001745 -0.001681 0.000000 0.000747 0.000000
# 2 -0.001745 0.010517 -0.002709 0.000000 0.001734 0.000000
# 3 -0.001681 -0.002709 0.007376 0.000000 0.001692 0.000000
# 4 0.000000 0.000000 0.000000 0.025540 0.000000 0.000369
# 5 0.000747 0.001734 0.001692 0.000000 0.025894 0.000000
# 6 0.000000 0.000000 0.000000 0.000369 0.000000 0.020240
#
#
# Mechanical properties :
#
#
# Convention : Reuss Voigt Hill
#
# Bulk Modulus (GPa) = 70.43643 76.60421 73.52032
# Shear Modulus (GPa) = 43.42414 44.87029 44.14722
#
# Velocity S-wave (km/s) = 4.20100 4.27038 4.23583
# Velocity P-wave (km/s) = 7.22204 7.44636 7.33506
#
# Compressibility (1/GPa) = 0.01419720
#
# Stress axis : x y z
#
# Youngs Moduli (GPa) = 116.62451 95.08112 135.57822
#
# Poissons Ratio (x) = 0.16594 0.22792
# Poissons Ratio (y) = 0.20354 0.36726
# Poissons Ratio (z) = 0.19606 0.25756
#
# Static dielectric constant tensor:
#      x y z
#    x 2.068680 0.000000 0.014250 
#    y 0.000000 1.997920 0.000000 
#    z 0.014250 0.000000 1.918750 
# 
# From -- ./inp_files/202457.got.cif
#   From: 2010.05.17/outbox.cif.g08.bks.cpg/sg15_102_cif.got.tgz:202457.got - 2010.06.03 18:47:42.
