data_PCOD9307116
_publ_section_title
;
Structure prediction by ZEFSAII (Michael W. Deem and Ramdas Pophale) SiO2 
 PCOD9307116
Probable space group: C 2/C
;
_chemical_formula_sum "Si O2"
_cell_formula_units_Z 40
_cell_length_a 20.112181
_cell_length_b 17.728106
_cell_length_c 7.616111
_cell_angle_alpha 90.000000
_cell_angle_beta 136.333297
_cell_angle_gamma 90.000000
_cell_volume 1874.971403
_symmetry_space_group_name_H-M "C 2/C"
_symmetry_group_IT_number 15
_symmetry_cell_setting 'monoclinic'
loop_
_space_group_symop_operation_xyz
x,y,z
-x,y,1/2-z
-x,-y,-z
x,-y,1/2+z
1/2+x,1/2+y,z
1/2-x,1/2+y,1/2-z
1/2-x,1/2-y,-z
1/2+x,1/2-y,1/2+z
loop_
_atom_site_type_symbol
_atom_site_label
_atom_site_fract_x
_atom_site_fract_y
_atom_site_fract_z
Si Si1 0.891085 0.320779 0.083861
Si Si2 0.304198 0.390227 0.737661
Si Si3 0.391956 0.232023 0.986662
Si Si4 0.801480 0.164583 0.820488
Si Si5 0.578147 0.460749 0.028678
O O1 0.885194 0.296481 0.275051
O O2 0.000000 0.343843 0.250000
O O3 0.805232 0.381243 0.902854
O O4 0.860504 0.242796 0.930237
O O5 0.363283 0.319624 0.927194
O O6 0.305696 0.374603 0.525900
O O7 0.353457 0.468425 0.886884
O O8 0.308593 0.186298 0.927798
O O9 0.500000 0.220424 0.250000
O O10 0.850217 0.105492 0.783668
O O11 0.500000 0.422256 0.750000
O O12 0.500000 0.500000 0.000000
#
# Coordination Sequence:
#
# PCOD9307116 Si02
#       5
#     8   8   8   8   8
#     4   9  18  35  59  77 107 145 181 221 270 317
#     4   9  19  36  54  80 109 144 181 219 267 326
#     4   9  18  36  58  79 108 141 183 227 264 313
#     4   9  19  36  55  79 111 146 176 219 276 320
#     4  12  22  35  57  81 112 144 177 221 274 322
#
# _framework density 21.333658
#
# number of rings (size 3 to 8) (size 9 to 14) (size 15 to 20)
#    0.000    2.400    2.000    3.600    2.800    0.000 
#    3.600    3.000    0.000    4.800    0.000    0.000 
#    0.000    0.000    0.000    0.000    0.000    0.000 
#
# Total GULP energy -111515.951891 kJ/mol
# GULP energy per Si atom -5575.797595 kJ/mol
# Density = 2.128510 g / cm^3
# Si number density = 21.333658 Si / 1000 Ang^3
#
#
#
# Elastic Constant Matrix: (Units=GPa)
#
#
# Indices 1 2 3 4 5 6 
#
# 1 91.2858 44.0765 36.1945 0.0000 44.2334 0.0000
# 2 44.0765 84.9550 58.4304 0.0000 33.6094 0.0000
# 3 36.1945 58.4304 108.1840 0.0000 53.0823 0.0000
# 4 0.0000 0.0000 0.0000 9.3226 0.0000 7.4127
# 5 44.2334 33.6094 53.0823 0.0000 52.5121 0.0000
# 6 0.0000 0.0000 0.0000 7.4127 0.0000 24.6811
#
#
#
# Elastic Compliance Matrix: (Units=1/GPa)
#
#
# Indices 1 2 3 4 5 6 
#
# 1 0.022034 -0.008225 0.007132 0.000000 -0.020506 0.000000
# 2 -0.008225 0.022127 -0.011209 0.000000 0.004097 0.000000
# 3 0.007132 -0.011209 0.024482 0.000000 -0.023581 0.000000
# 4 0.000000 0.000000 0.000000 0.140918 0.000000 -0.042323
# 5 -0.020506 0.004097 -0.023581 0.000000 0.057530 0.000000
# 6 0.000000 0.000000 0.000000 -0.042323 0.000000 0.053228
#
#
# Mechanical properties :
#
#
# Convention : Reuss Voigt Hill
#
# Bulk Modulus (GPa) = 22.70749 62.42530 42.56639
# Shear Modulus (GPa) = 13.90418 27.01805 20.46111
#
# Velocity S-wave (km/s) = 2.55571 3.56258 3.10029
# Velocity P-wave (km/s) = 4.40181 6.80056 5.72816
#
# Compressibility (1/GPa) = 0.04403833
#
# Stress axis : x y z
#
# Youngs Moduli (GPa) = 45.38382 45.19425 40.84625
#
# Poissons Ratio (x) = 0.37170 -0.29130
# Poissons Ratio (y) = 0.37326 0.45786
# Poissons Ratio (z) = -0.32366 0.50660
#
# Static dielectric constant tensor:
#      x y z
#    x 1.931520 0.000000 -0.058220 
#    y 0.000000 1.720730 0.000000 
#    z -0.058220 0.000000 2.123500 
# 
# From -- ./inp_files/29217.got.cif
#   From: 2010.05.17/outbox.cif.g08.bks.cpg/sg15_15_cif.got.tgz:29217.got - 2010.06.03 18:47:42.
