data_PCOD9307035
_publ_section_title
;
Structure prediction by ZEFSAII (Michael W. Deem and Ramdas Pophale) SiO2 
 PCOD9307035
Probable space group: C 2/C
;
_chemical_formula_sum "Si O2"
_cell_formula_units_Z 40
_cell_length_a 11.676467
_cell_length_b 22.064147
_cell_length_c 10.651756
_cell_angle_alpha 90.000000
_cell_angle_beta 143.117716
_cell_angle_gamma 90.000000
_cell_volume 1647.009912
_symmetry_space_group_name_H-M "C 2/C"
_symmetry_group_IT_number 15
_symmetry_cell_setting 'monoclinic'
loop_
_space_group_symop_operation_xyz
x,y,z
-x,y,1/2-z
-x,-y,-z
x,-y,1/2+z
1/2+x,1/2+y,z
1/2-x,1/2+y,1/2-z
1/2-x,1/2-y,-z
1/2+x,1/2-y,1/2+z
loop_
_atom_site_type_symbol
_atom_site_label
_atom_site_fract_x
_atom_site_fract_y
_atom_site_fract_z
Si Si1 0.527943 0.714289 0.557241
Si Si2 0.291747 0.137275 0.661014
Si Si3 0.873182 0.554884 0.435820
Si Si4 0.000000 0.941873 0.750000
Si Si5 0.000000 0.254085 0.250000
Si Si6 0.656608 0.159617 0.284069
O O1 0.709083 0.669752 0.712438
O O2 0.472062 0.720689 0.359008
O O3 0.576622 0.781560 0.641325
O O4 0.365184 0.685176 0.500238
O O5 0.331741 0.194306 0.602947
O O6 0.121909 0.097523 0.455609
O O7 0.476907 0.097003 0.854866
O O8 0.681409 0.529840 0.335506
O O9 0.810023 0.600800 0.271696
O O10 0.000000 0.500000 0.500000
O O11 0.500000 0.144462 0.250000
#
# Coordination Sequence:
#
# PCOD9307035 Si02
#       6
#     8   8   8   4   4   8
#     4  12  23  40  70 110 147 186 234 297 369 431
#     4  12  23  42  73 113 144 177 234 301 364 423
#     4  12  28  50  72 104 142 188 253 302 355 430
#     4  12  23  48  80 102 140 188 233 314 376 406
#     4  12  21  38  76 114 148 172 231 308 360 422
#     4  12  25  44  67 102 152 198 237 289 361 444
#
# _framework density 24.286436999999999
#
# number of rings (size 3 to 8) (size 9 to 14) (size 15 to 20)
#    0.000    0.000    8.000    1.800    0.000    2.400 
#    3.600    0.000    0.000    0.000    0.000    0.000 
#    0.000    0.000    0.000    0.000    0.000    0.000 
#
# Total GULP energy -111674.629066 kJ/mol
# GULP energy per Si atom -5583.731453 kJ/mol
# Density = 2.423116 g / cm^3
# Si number density = 24.286437 Si / 1000 Ang^3
#
#
#
# Elastic Constant Matrix: (Units=GPa)
#
#
# Indices 1 2 3 4 5 6 
#
# 1 155.4843 31.5919 23.6819 0.0000 51.0688 0.0000
# 2 31.5919 80.6777 -7.9074 0.0000 14.1431 0.0000
# 3 23.6819 -7.9074 71.5938 0.0000 28.9710 0.0000
# 4 0.0000 0.0000 0.0000 8.0148 0.0000 22.0819
# 5 51.0688 14.1431 28.9710 0.0000 45.5407 0.0000
# 6 0.0000 0.0000 0.0000 22.0819 0.0000 30.2448
#
#
#
# Elastic Compliance Matrix: (Units=1/GPa)
#
#
# Indices 1 2 3 4 5 6 
#
# 1 0.010593 -0.001932 0.001140 0.000000 -0.012005 0.000000
# 2 -0.001932 0.014455 0.004276 0.000000 -0.005043 0.000000
# 3 0.001140 0.004276 0.020358 0.000000 -0.015558 0.000000
# 4 0.000000 0.000000 0.000000 -0.123345 0.000000 0.090055
# 5 -0.012005 -0.005043 -0.015558 0.000000 0.046884 0.000000
# 6 0.000000 0.000000 0.000000 0.090055 0.000000 -0.032686
#
#
# Mechanical properties :
#
#
# Convention : Reuss Voigt Hill
#
# Bulk Modulus (GPa) = 19.09282 44.72094 31.90688
# Shear Modulus (GPa) = -93.89433 34.11935 -29.88749
#
# Velocity S-wave (km/s) = -6.22456 3.75223 -3.51183
# Velocity P-wave (km/s) = 6.61677 6.10133 1.81044
#
# Compressibility (1/GPa) = 0.05237572
#
# Stress axis : x y z
#
# Youngs Moduli (GPa) = 94.39930 69.18179 49.11969
#
# Poissons Ratio (x) = 0.13365 -0.05601
# Poissons Ratio (y) = 0.18237 -0.21005
# Poissons Ratio (z) = -0.10765 -0.29584
#
# Static dielectric constant tensor:
#      x y z
#    x 2.092280 0.000000 0.070380 
#    y 0.000000 1.892690 0.000000 
#    z 0.070380 0.000000 2.149180 
# 
# From -- ./inp_files/89904.got.cif
#   From: 2010.05.17/outbox.cif.g08.bks.cpg/sg15_45_cif.got.tgz:89904.got - 2010.06.03 18:47:42.
