data_PCOD9307708
_publ_section_title
;
Structure prediction by ZEFSAII (Michael W. Deem and Ramdas Pophale) SiO2 
 PCOD9307708
Probable space group: C 2/C
;
_chemical_formula_sum "Si O2"
_cell_formula_units_Z 36
_cell_length_a 19.341194
_cell_length_b 7.445133
_cell_length_c 18.782378
_cell_angle_alpha 90.000000
_cell_angle_beta 149.557674
_cell_angle_gamma 90.000000
_cell_volume 1370.352148
_symmetry_space_group_name_H-M "C 2/C"
_symmetry_group_IT_number 15
_symmetry_cell_setting 'monoclinic'
loop_
_space_group_symop_operation_xyz
x,y,z
-x,y,1/2-z
-x,-y,-z
x,-y,1/2+z
1/2+x,1/2+y,z
1/2-x,1/2+y,1/2-z
1/2-x,1/2-y,-z
1/2+x,1/2-y,1/2+z
loop_
_atom_site_type_symbol
_atom_site_label
_atom_site_fract_x
_atom_site_fract_y
_atom_site_fract_z
Si Si1 0.801311 0.531215 0.721286
Si Si2 0.419530 0.945535 0.568939
Si Si3 0.665970 0.456039 0.746293
Si Si4 0.116780 0.940367 0.429967
Si Si5 0.000000 0.758263 0.750000
O O1 0.695469 0.498014 0.690340
O O2 0.826166 0.742340 0.740024
O O3 0.742004 0.472354 0.593120
O O4 0.943688 0.427127 0.857664
O O5 0.382267 0.413212 0.632591
O O6 0.291675 0.963697 0.403000
O O7 0.455155 0.119118 0.648402
O O8 0.519162 0.514995 0.644700
O O9 0.105266 0.729587 0.404581
#
# Coordination Sequence:
#
# PCOD9307708 Si02
#       5
#     8   8   8   8   4
#     4  12  24  46  71 105 144 183 236 296 355 418
#     4  12  26  46  72 105 140 189 236 291 352 420
#     4  12  24  46  71 105 144 183 236 296 355 418
#     4  12  26  46  72 105 140 189 236 291 352 420
#     4  12  26  50  72 104 152 182 250 276 360 424
#
# _framework density 26.270620000000001
#
# number of rings (size 3 to 8) (size 9 to 14) (size 15 to 20)
#    0.000    0.000    4.444    6.000    0.000    3.556 
#    0.000    4.444    0.000    0.000    0.000    0.000 
#    0.000    0.000    0.000    0.000    0.000    0.000 
#
# Total GULP energy -100824.003382 kJ/mol
# GULP energy per Si atom -5601.333521 kJ/mol
# Density = 2.621083 g / cm^3
# Si number density = 26.270620 Si / 1000 Ang^3
#
#
#
# Elastic Constant Matrix: (Units=GPa)
#
#
# Indices 1 2 3 4 5 6 
#
# 1 105.0067 2.9642 17.9203 0.0000 18.0522 0.0000
# 2 2.9642 200.4468 4.0165 0.0000 -15.1378 0.0000
# 3 17.9203 4.0165 100.1304 0.0000 6.8635 0.0000
# 4 0.0000 0.0000 0.0000 22.6945 0.0000 -6.4412
# 5 18.0522 -15.1378 6.8635 0.0000 49.1150 0.0000
# 6 0.0000 0.0000 0.0000 -6.4412 0.0000 18.2241
#
#
#
# Elastic Compliance Matrix: (Units=1/GPa)
#
#
# Indices 1 2 3 4 5 6 
#
# 1 0.010451 -0.000405 -0.001598 0.000000 -0.003743 0.000000
# 2 -0.000405 0.005133 -0.000254 0.000000 0.001767 0.000000
# 3 -0.001598 -0.000254 0.010347 0.000000 -0.000937 0.000000
# 4 0.000000 0.000000 0.000000 0.048977 0.000000 0.017311
# 5 -0.003743 0.001767 -0.000937 0.000000 0.022411 0.000000
# 6 0.000000 0.000000 0.000000 0.017311 0.000000 0.060991
#
#
# Mechanical properties :
#
#
# Convention : Reuss Voigt Hill
#
# Bulk Modulus (GPa) = 46.69200 50.59843 48.64521
# Shear Modulus (GPa) = 29.41803 43.38558 36.40181
#
# Velocity S-wave (km/s) = 3.34998 4.06826 3.72647
# Velocity P-wave (km/s) = 5.72497 6.43194 6.08872
#
# Compressibility (1/GPa) = 0.02141695
#
# Stress axis : x y z
#
# Youngs Moduli (GPa) = 95.68726 194.80396 96.64312
#
# Poissons Ratio (x) = 0.07893 0.15439
# Poissons Ratio (y) = 0.03877 0.02460
# Poissons Ratio (z) = 0.15287 0.04958
#
# Static dielectric constant tensor:
#      x y z
#    x 2.205420 0.000000 0.031000 
#    y 0.000000 2.016710 0.000000 
#    z 0.031000 0.000000 2.000060 
# 
# From -- ./inp_files/110222.got.cif
#   From: 2010.05.17/outbox.cif.g08.bks.cpg/sg15_56_cif.got.tgz:110222.got - 2010.06.03 18:47:42.
