data_PCOD9307471
_publ_section_title
;
Structure prediction by ZEFSAII (Michael W. Deem and Ramdas Pophale) SiO2 
 PCOD9307471
Probable space group: C 2/C
;
_chemical_formula_sum "Si O2"
_cell_formula_units_Z 32
_cell_length_a 10.739273
_cell_length_b 21.558041
_cell_length_c 5.466420
_cell_angle_alpha 90.000000
_cell_angle_beta 97.904002
_cell_angle_gamma 90.000000
_cell_volume 1253.549799
_symmetry_space_group_name_H-M "C 2/C"
_symmetry_group_IT_number 15
_symmetry_cell_setting 'monoclinic'
loop_
_space_group_symop_operation_xyz
x,y,z
-x,y,1/2-z
-x,-y,-z
x,-y,1/2+z
1/2+x,1/2+y,z
1/2-x,1/2+y,1/2-z
1/2-x,1/2-y,-z
1/2+x,1/2-y,1/2+z
loop_
_atom_site_type_symbol
_atom_site_label
_atom_site_fract_x
_atom_site_fract_y
_atom_site_fract_z
Si Si1 0.808437 0.806449 0.365256
Si Si2 0.500000 0.382511 0.750000
Si Si3 0.728510 0.538959 0.142319
Si Si4 0.000000 0.723439 0.250000
Si Si5 0.086285 0.616530 0.579779
O O1 0.750000 0.750000 0.500000
O O2 0.883202 0.768787 0.178671
O O3 0.709526 0.855652 0.243115
O O4 0.910753 0.841411 0.556227
O O5 0.402411 0.423099 0.884038
O O6 0.731154 0.504187 0.402534
O O7 0.852509 0.581152 0.133568
O O8 0.003640 0.675540 0.474143
O O9 0.000000 0.579881 0.750000
#
# Coordination Sequence:
#
# PCOD9307471 Si02
#       5
#     8   4   8   4   8
#     4  12  23  45  75 116 152 198 244 304 386 467
#     4  12  26  50  83 112 153 198 262 322 384 458
#     4  12  29  52  81 111 150 205 270 335 387 441
#     4  12  24  44  75 110 157 200 250 308 382 468
#     4  12  27  47  75 112 158 202 257 311 388 473
#
# _framework density 25.527507
#
# number of rings (size 3 to 8) (size 9 to 14) (size 15 to 20)
#    0.000    0.000    2.500    7.500    3.500    3.000 
#    0.000    0.000    0.000    0.000    0.000    0.000 
#    0.000    0.000    0.000    0.000    0.000    0.000 
#
# Total GULP energy -89641.179133 kJ/mol
# GULP energy per Si atom -5602.573696 kJ/mol
# Density = 2.546941 g / cm^3
# Si number density = 25.527507 Si / 1000 Ang^3
#
#
#
# Elastic Constant Matrix: (Units=GPa)
#
#
# Indices 1 2 3 4 5 6 
#
# 1 139.8516 58.8793 42.6289 0.0000 -27.5425 0.0000
# 2 58.8793 101.5406 50.0533 0.0000 -13.7196 0.0000
# 3 42.6289 50.0533 117.1285 0.0000 -12.5285 0.0000
# 4 0.0000 0.0000 0.0000 37.3250 0.0000 -16.3663
# 5 -27.5425 -13.7196 -12.5285 0.0000 65.3198 0.0000
# 6 0.0000 0.0000 0.0000 -16.3663 0.0000 57.4974
#
#
#
# Elastic Compliance Matrix: (Units=1/GPa)
#
#
# Indices 1 2 3 4 5 6 
#
# 1 0.010189 -0.004853 -0.001311 0.000000 0.003026 0.000000
# 2 -0.004853 0.014961 -0.004604 0.000000 0.000213 0.000000
# 3 -0.001311 -0.004604 0.011046 0.000000 0.000599 0.000000
# 4 0.000000 0.000000 0.000000 0.030612 0.000000 0.008714
# 5 0.003026 0.000213 0.000599 0.000000 0.016745 0.000000
# 6 0.000000 0.000000 0.000000 0.008714 0.000000 0.019872
#
#
# Mechanical properties :
#
#
# Convention : Reuss Voigt Hill
#
# Bulk Modulus (GPa) = 68.21387 73.51596 70.86492
# Shear Modulus (GPa) = 38.50629 45.82572 42.16600
#
# Velocity S-wave (km/s) = 3.88806 4.24152 4.06863
# Velocity P-wave (km/s) = 6.85096 7.26970 7.06344
#
# Compressibility (1/GPa) = 0.01465977
#
# Stress axis : x y z
#
# Youngs Moduli (GPa) = 98.14358 66.84080 90.52831
#
# Poissons Ratio (x) = 0.32441 0.11865
# Poissons Ratio (y) = 0.47633 0.41681
# Poissons Ratio (z) = 0.12863 0.30775
#
# Static dielectric constant tensor:
#      x y z
#    x 2.069760 0.000000 -0.066510 
#    y 0.000000 2.004140 0.000000 
#    z -0.066510 0.000000 2.069270 
# 
# From -- ./inp_files/3697.got.cif
#   From: 2010.05.17/outbox.cif.g08.bks.cpg/sg15_2_cif.got.tgz:3697.got - 2010.06.03 18:47:42.
