data_PCOD9307669
_publ_section_title
;
Structure prediction by ZEFSAII (Michael W. Deem and Ramdas Pophale) SiO2 
 PCOD9307669
Probable space group: C 2/C
;
_chemical_formula_sum "Si O2"
_cell_formula_units_Z 44
_cell_length_a 10.013269
_cell_length_b 16.793575
_cell_length_c 17.349175
_cell_angle_alpha 90.000000
_cell_angle_beta 135.582158
_cell_angle_gamma 90.000000
_cell_volume 2041.855706
_symmetry_space_group_name_H-M "C 2/C"
_symmetry_group_IT_number 15
_symmetry_cell_setting 'monoclinic'
loop_
_space_group_symop_operation_xyz
x,y,z
-x,y,1/2-z
-x,-y,-z
x,-y,1/2+z
1/2+x,1/2+y,z
1/2-x,1/2+y,1/2-z
1/2-x,1/2-y,-z
1/2+x,1/2-y,1/2+z
loop_
_atom_site_type_symbol
_atom_site_label
_atom_site_fract_x
_atom_site_fract_y
_atom_site_fract_z
Si Si1 0.057139 0.202183 0.436456
Si Si2 0.500000 0.953660 0.750000
Si Si3 0.325598 0.461445 0.472240
Si Si4 0.304098 0.530787 0.632394
Si Si5 0.235451 0.377867 0.713300
Si Si6 0.379744 0.199339 0.992176
O O1 0.250000 0.250000 0.500000
O O2 0.137801 0.130827 0.521092
O O3 0.938985 0.162860 0.316709
O O4 0.908410 0.252155 0.425509
O O5 0.641688 0.901959 0.756391
O O6 0.371834 0.007820 0.642425
O O7 0.500000 0.500000 0.500000
O O8 0.334387 0.485870 0.564628
O O9 0.500000 0.560613 0.750000
O O10 0.238386 0.460182 0.664261
O O11 0.190102 0.610587 0.561478
O O12 0.089178 0.316490 0.614187
O O13 0.250000 0.250000 0.000000
#
# Coordination Sequence:
#
# PCOD9307669 Si02
#       6
#     8   4   8   8   8   8
#     4  12  28  47  72 111 161 190 251 327 397 439
#     4  12  24  44  80 104 152 196 276 304 370 452
#     4  12  24  48  73 111 147 203 254 315 377 469
#     4  12  25  47  81 106 145 203 265 300 375 470
#     4  12  26  49  76 106 153 207 253 319 379 471
#     4  12  28  46  76 113 152 194 255 316 396 449
#
# _framework density 21.549023999999999
#
# number of rings (size 3 to 8) (size 9 to 14) (size 15 to 20)
#    0.000    0.000    5.455    3.818    5.091    1.455 
#    0.000    0.000    0.000    0.000    0.000    0.000 
#    0.000    0.000    0.000    0.000    0.000    0.000 
#
# Total GULP energy -122918.831620 kJ/mol
# GULP energy per Si atom -5587.219619 kJ/mol
# Density = 2.149998 g / cm^3
# Si number density = 21.549024 Si / 1000 Ang^3
#
#
#
# Elastic Constant Matrix: (Units=GPa)
#
#
# Indices 1 2 3 4 5 6 
#
# 1 122.9786 61.8534 30.8388 0.0000 -10.9655 0.0000
# 2 61.8534 138.3133 27.8501 0.0000 6.5199 0.0000
# 3 30.8388 27.8501 135.7805 0.0000 21.6066 0.0000
# 4 0.0000 0.0000 0.0000 38.4397 0.0000 -0.5288
# 5 -10.9655 6.5199 21.6066 0.0000 42.9492 0.0000
# 6 0.0000 0.0000 0.0000 -0.5288 0.0000 50.4257
#
#
#
# Elastic Compliance Matrix: (Units=1/GPa)
#
#
# Indices 1 2 3 4 5 6 
#
# 1 0.011680 -0.004969 -0.002422 0.000000 0.004955 0.000000
# 2 -0.004969 0.009662 -0.000454 0.000000 -0.002507 0.000000
# 3 -0.002422 -0.000454 0.008800 0.000000 -0.004976 0.000000
# 4 0.000000 0.000000 0.000000 0.026019 0.000000 0.000273
# 5 0.004955 -0.002507 -0.004976 0.000000 0.027432 0.000000
# 6 0.000000 0.000000 0.000000 0.000273 0.000000 0.019834
#
#
# Mechanical properties :
#
#
# Convention : Reuss Voigt Hill
#
# Bulk Modulus (GPa) = 69.19945 70.90635 70.05290
# Shear Modulus (GPa) = 40.34392 44.79825 42.57108
#
# Velocity S-wave (km/s) = 4.33158 4.56444 4.44953
# Velocity P-wave (km/s) = 7.56300 7.79455 7.67965
#
# Compressibility (1/GPa) = 0.01445098
#
# Stress axis : x y z
#
# Youngs Moduli (GPa) = 85.61695 103.50063 113.63656
#
# Poissons Ratio (x) = 0.51431 0.27523
# Poissons Ratio (y) = 0.42544 0.05162
# Poissons Ratio (z) = 0.20737 0.04701
#
# Static dielectric constant tensor:
#      x y z
#    x 1.791560 0.000000 -0.005710 
#    y 0.000000 1.767620 0.000000 
#    z -0.005710 0.000000 1.772380 
# 
# From -- ./inp_files/199637.got.cif
#   From: 2010.05.17/outbox.cif.g08.bks.cpg/sg15_100_cif.got.tgz:199637.got - 2010.06.03 18:47:42.
