data_PCOD9307461
_publ_section_title
;
Structure prediction by ZEFSAII (Michael W. Deem and Ramdas Pophale) SiO2 
 PCOD9307461
Probable space group: C 2/C
;
_chemical_formula_sum "Si O2"
_cell_formula_units_Z 40
_cell_length_a 12.730716
_cell_length_b 11.388842
_cell_length_c 27.587366
_cell_angle_alpha 90.000000
_cell_angle_beta 152.559284
_cell_angle_gamma 90.000000
_cell_volume 1843.248633
_symmetry_space_group_name_H-M "C 2/C"
_symmetry_group_IT_number 15
_symmetry_cell_setting 'monoclinic'
loop_
_space_group_symop_operation_xyz
x,y,z
-x,y,1/2-z
-x,-y,-z
x,-y,1/2+z
1/2+x,1/2+y,z
1/2-x,1/2+y,1/2-z
1/2-x,1/2-y,-z
1/2+x,1/2-y,1/2+z
loop_
_atom_site_type_symbol
_atom_site_label
_atom_site_fract_x
_atom_site_fract_y
_atom_site_fract_z
Si Si1 0.309752 0.350144 0.713076
Si Si2 0.567356 0.407052 0.913407
Si Si3 0.926261 0.837267 0.047528
Si Si4 0.257086 0.318799 0.871382
Si Si5 0.556522 0.069338 0.572793
O O1 0.500000 0.360424 0.750000
O O2 0.422040 0.347031 0.811540
O O3 0.157931 0.236991 0.639141
O O4 0.215174 0.677832 0.622555
O O5 0.452773 0.367443 0.916249
O O6 0.830172 0.384404 0.007207
O O7 0.547781 0.548297 0.908804
O O8 0.821390 0.861321 0.951539
O O9 0.167567 0.529392 0.151938
O O10 0.750000 0.750000 0.000000
O O11 0.000000 0.352151 0.750000
O O12 0.500000 0.000000 0.500000
#
# Coordination Sequence:
#
# PCOD9307461 Si02
#       5
#     8   8   8   8   8
#     4  12  25  43  72 103 134 185 238 289 350 425
#     4  12  27  45  73 103 144 188 233 296 367 423
#     4  12  25  49  69 102 145 185 235 296 357 428
#     4  12  27  46  71 106 143 187 237 294 365 426
#     4  12  23  45  71 101 140 184 241 295 340 426
#
# _framework density 21.700818000000002
#
# number of rings (size 3 to 8) (size 9 to 14) (size 15 to 20)
#    0.000    0.000    6.000    3.000    5.600    0.800 
#    0.000    0.000    0.000    0.000    0.000    0.000 
#    0.000    0.000    0.000    0.000    0.000    0.000 
#
# Total GULP energy -111912.816080 kJ/mol
# GULP energy per Si atom -5595.640804 kJ/mol
# Density = 2.165143 g / cm^3
# Si number density = 21.700818 Si / 1000 Ang^3
#
#
#
# Elastic Constant Matrix: (Units=GPa)
#
#
# Indices 1 2 3 4 5 6 
#
# 1 121.6623 -18.9962 38.6163 -0.0001 -1.9311 0.0000
# 2 -18.9962 53.6230 -5.4271 0.0002 12.9277 0.0000
# 3 38.6163 -5.4271 100.0848 0.0008 5.0214 -0.0002
# 4 -0.0001 0.0002 0.0008 0.0057 -0.0002 0.7947
# 5 -1.9311 12.9277 5.0214 -0.0002 40.0858 0.0000
# 6 0.0000 0.0000 -0.0002 0.7947 0.0000 46.7252
#
#
#
# Elastic Compliance Matrix: (Units=1/GPa)
#
#
# Indices 1 2 3 4 5 6 
#
# 1 0.009862 0.003147 -0.003630 -0.000375 -0.000085 0.000006
# 2 0.003147 0.021431 0.000289 0.000678 -0.006796 -0.000012
# 3 -0.003630 0.000289 0.011493 0.001207 -0.001708 -0.000020
# 4 -0.000375 0.000678 0.001207********** -0.000916 2.188305
# 5 -0.000085 -0.006796 -0.001708 -0.000916 0.027348 0.000016
# 6 0.000006 -0.000012 -0.000020 2.188305 0.000016 -0.015817
#
#
# Mechanical properties :
#
#
# Convention : Reuss Voigt Hill
#
# Bulk Modulus (GPa) = 23.58640 33.75068 28.66854
# Shear Modulus (GPa) = -0.03888 34.77516 17.36814
#
# Velocity S-wave (km/s) = -0.13400 4.00744 2.83211
# Velocity P-wave (km/s) = 3.29675 6.08270 4.89223
#
# Compressibility (1/GPa) = 0.04239731
#
# Stress axis : x y z
#
# Youngs Moduli (GPa) = 101.40300 46.66115 87.00573
#
# Poissons Ratio (x) = -0.14683 0.31584
# Poissons Ratio (y) = -0.31908 -0.02514
# Poissons Ratio (z) = 0.36810 -0.01348
#
# Static dielectric constant tensor:
#      x y z
#    x 1.981470 0.000000 0.053350 
#    y 0.000000 1.916550 0.000000 
#    z 0.053350 0.000000 1.815820 
# 
# From -- ./inp_files/269066.got.cif
#   From: 2010.05.17/outbox.cif.g08.bks.cpg/sg15_135_cif.got.tgz:269066.got - 2010.06.03 18:47:42.
