data_PCOD9307079
_publ_section_title
;
Structure prediction by ZEFSAII (Michael W. Deem and Ramdas Pophale) SiO2 
 PCOD9307079
Probable space group: C 2/C
;
_chemical_formula_sum "Si O2"
_cell_formula_units_Z 60
_cell_length_a 16.750691
_cell_length_b 8.826284
_cell_length_c 19.229259
_cell_angle_alpha 90.000000
_cell_angle_beta 108.858031
_cell_angle_gamma 90.000000
_cell_volume 2690.371674
_symmetry_space_group_name_H-M "C 2/C"
_symmetry_group_IT_number 15
_symmetry_cell_setting 'monoclinic'
loop_
_space_group_symop_operation_xyz
x,y,z
-x,y,1/2-z
-x,-y,-z
x,-y,1/2+z
1/2+x,1/2+y,z
1/2-x,1/2+y,1/2-z
1/2-x,1/2-y,-z
1/2+x,1/2-y,1/2+z
loop_
_atom_site_type_symbol
_atom_site_label
_atom_site_fract_x
_atom_site_fract_y
_atom_site_fract_z
Si Si1 0.915117 0.683168 0.255908
Si Si2 0.655525 0.920915 0.630342
Si Si3 0.000000 0.178503 0.250000
Si Si4 0.283328 0.336296 0.441244
Si Si5 0.918294 0.582143 0.007865
Si Si6 0.606239 0.911859 0.356802
Si Si7 0.162721 0.973662 0.305461
Si Si8 0.168386 0.138066 0.968367
O O1 0.914039 0.603121 0.330184
O O2 0.901742 0.551464 0.197062
O O3 0.845582 0.813150 0.235614
O O4 0.000000 0.758479 0.250000
O O5 0.653456 0.771729 0.581754
O O6 0.643152 0.061946 0.575272
O O7 0.748781 0.947171 0.686670
O O8 0.966882 0.290671 0.179501
O O9 0.917172 0.076547 0.238932
O O10 0.250000 0.250000 0.500000
O O11 0.199400 0.347488 0.371219
O O12 0.318678 0.497242 0.475918
O O13 0.892944 0.478529 0.065839
O O14 0.910266 0.753803 0.032905
O O15 0.000000 0.500000 0.000000
O O16 0.159491 0.930788 0.387729
O O17 0.250000 0.250000 0.000000
#
# Coordination Sequence:
#
# PCOD9307079 Si02
#       8
#     8   8   4   8   8   8   8   8
#     4  12  27  48  71 101 150 197 245 304 375 444
#     4  12  27  45  72 111 145 192 252 315 371 459
#     4  12  26  40  72 106 148 194 234 300 380 450
#     4  12  21  44  73 107 143 181 248 313 374 442
#     4  12  26  46  72 106 143 187 257 314 375 447
#     4  12  23  45  70  98 142 194 233 296 380 438
#     4  12  24  46  72 107 150 196 250 301 382 462
#     4  12  21  45  79 106 138 198 250 314 380 450
#
# _framework density 22.301749999999998
#
# number of rings (size 3 to 8) (size 9 to 14) (size 15 to 20)
#    0.000    0.000    9.333    0.800    1.867    0.000 
#    2.400    0.667    0.000    0.000    0.000    0.000 
#    0.000    0.000    0.000    0.000    0.000    0.000 
#
# Total GULP energy -167593.965715 kJ/mol
# GULP energy per Si atom -5586.465524 kJ/mol
# Density = 2.225099 g / cm^3
# Si number density = 22.301750 Si / 1000 Ang^3
#
#
#
# Elastic Constant Matrix: (Units=GPa)
#
#
# Indices 1 2 3 4 5 6 
#
# 1 73.7438 28.8946 14.3919 0.0000 -5.9246 0.0000
# 2 28.8946 108.7334 15.7287 0.0000 -0.0007 0.0000
# 3 14.3919 15.7287 68.9047 0.0000 -6.6755 0.0000
# 4 0.0000 0.0000 0.0000 43.5882 0.0000 10.8892
# 5 -5.9246 -0.0007 -6.6755 0.0000 43.8520 0.0000
# 6 0.0000 0.0000 0.0000 10.8892 0.0000 27.4017
#
#
#
# Elastic Compliance Matrix: (Units=1/GPa)
#
#
# Indices 1 2 3 4 5 6 
#
# 1 0.015639 -0.003835 -0.002219 0.000000 0.001775 0.000000
# 2 -0.003835 0.010456 -0.001660 0.000000 -0.000771 0.000000
# 3 -0.002219 -0.001660 0.015556 0.000000 0.002068 0.000000
# 4 0.000000 0.000000 0.000000 0.025471 0.000000 -0.010122
# 5 0.001775 -0.000771 0.002068 0.000000 0.023359 0.000000
# 6 0.000000 0.000000 0.000000 -0.010122 0.000000 0.040516
#
#
# Mechanical properties :
#
#
# Convention : Reuss Voigt Hill
#
# Bulk Modulus (GPa) = 38.13630 41.04579 39.59104
# Shear Modulus (GPa) = 32.22369 35.79283 34.00826
#
# Velocity S-wave (km/s) = 3.80530 4.01051 3.90925
# Velocity P-wave (km/s) = 6.03692 6.31587 6.17797
#
# Compressibility (1/GPa) = 0.02622174
#
# Stress axis : x y z
#
# Youngs Moduli (GPa) = 63.94391 95.63846 64.28511
#
# Poissons Ratio (x) = 0.36675 0.14265
# Poissons Ratio (y) = 0.24521 0.10674
# Poissons Ratio (z) = 0.14190 0.15881
#
# Static dielectric constant tensor:
#      x y z
#    x 2.001100 0.000000 0.140710 
#    y 0.000000 1.862440 0.000000 
#    z 0.140710 0.000000 1.934480 
# 
# From -- ./inp_files/247527.got.cif
#   From: 2010.05.17/outbox.cif.g08.bks.cpg/sg15_124_cif.got.tgz:247527.got - 2010.06.03 18:47:42.
