data_PCOD9307295
_publ_section_title
;
Structure prediction by ZEFSAII (Michael W. Deem and Ramdas Pophale) SiO2 
 PCOD9307295
Probable space group: C 2/C
;
_chemical_formula_sum "Si O2"
_cell_formula_units_Z 56
_cell_length_a 23.749083
_cell_length_b 13.487757
_cell_length_c 10.170298
_cell_angle_alpha 90.000000
_cell_angle_beta 54.483771
_cell_angle_gamma 90.000000
_cell_volume 2651.664160
_symmetry_space_group_name_H-M "C 2/C"
_symmetry_group_IT_number 15
_symmetry_cell_setting 'monoclinic'
loop_
_space_group_symop_operation_xyz
x,y,z
-x,y,1/2-z
-x,-y,-z
x,-y,1/2+z
1/2+x,1/2+y,z
1/2-x,1/2+y,1/2-z
1/2-x,1/2-y,-z
1/2+x,1/2-y,1/2+z
loop_
_atom_site_type_symbol
_atom_site_label
_atom_site_fract_x
_atom_site_fract_y
_atom_site_fract_z
Si Si1 0.378849 0.292890 0.280213
Si Si2 0.328085 0.855252 0.624031
Si Si3 0.621151 0.207110 0.719787
Si Si4 0.500000 0.684938 0.250000
Si Si5 0.671915 0.355252 0.875969
Si Si6 0.072617 0.037264 0.959851
Si Si7 0.927383 0.537264 0.540149
Si Si8 0.500000 0.815062 0.750000
O O1 0.346716 0.219158 0.217136
O O2 0.337127 0.300466 0.472367
O O3 0.386761 0.400739 0.205246
O O4 0.455368 0.252653 0.213128
O O5 0.337127 0.800466 0.472367
O O6 0.250000 0.890939 0.750000
O O7 0.382332 0.945248 0.553567
O O8 0.544633 0.247347 0.786872
O O9 0.653284 0.280842 0.782864
O O10 0.613239 0.099261 0.794754
O O11 0.447056 0.614365 0.398956
O O12 0.617668 0.445248 0.946433
O O13 0.000000 0.000000 0.000000
O O14 0.000000 0.500000 0.500000
O O15 0.947056 0.614365 0.398956
#
# Coordination Sequence:
#
# PCOD9307295 Si02
#       8
#     8   8   8   4   8   8   8   4
#     4  12  25  47  73 102 144 185 233 293 348 419
#     4  12  28  47  71 105 143 190 234 285 355 422
#     4  12  25  47  73 102 144 185 233 293 348 419
#     4  12  22  46  70 108 138 182 234 290 354 412
#     4  12  28  47  71 105 143 190 234 285 355 422
#     4  12  24  44  73 104 143 183 237 291 347 415
#     4  12  24  44  73 104 143 183 237 291 347 415
#     4  12  22  46  70 108 138 182 234 290 354 412
#
# _framework density 21.118811999999998
#
# number of rings (size 3 to 8) (size 9 to 14) (size 15 to 20)
#    0.000    0.000    5.714    5.143    0.000    2.286 
#    0.000    0.000    0.000    0.000    0.000    0.000 
#    0.000    0.000    0.000    0.000    0.000    0.000 
#
# Total GULP energy -156850.116360 kJ/mol
# GULP energy per Si atom -5601.789870 kJ/mol
# Density = 2.107074 g / cm^3
# Si number density = 21.118812 Si / 1000 Ang^3
#
#
#
# Elastic Constant Matrix: (Units=GPa)
#
#
# Indices 1 2 3 4 5 6 
#
# 1 44.0421 -8.2378 24.4105 0.0000 -4.5886 0.0000
# 2 -8.2378 49.4853 20.8669 0.0000 8.1978 0.0000
# 3 24.4105 20.8669 127.0025 0.0000 14.0547 0.0000
# 4 0.0000 0.0000 0.0000 37.1261 0.0000 4.1063
# 5 -4.5886 8.1978 14.0547 0.0000 37.4107 0.0000
# 6 0.0000 0.0000 0.0000 4.1063 0.0000 16.4404
#
#
#
# Elastic Compliance Matrix: (Units=1/GPa)
#
#
# Indices 1 2 3 4 5 6 
#
# 1 0.028442 0.006971 -0.007125 0.000000 0.004638 0.000000
# 2 0.006971 0.023887 -0.004987 0.000000 -0.002506 0.000000
# 3 -0.007125 -0.004987 0.010474 0.000000 -0.003716 0.000000
# 4 0.000000 0.000000 0.000000 0.027700 0.000000 -0.006919
# 5 0.004638 -0.002506 -0.003716 0.000000 0.029244 0.000000
# 6 0.000000 0.000000 0.000000 -0.006919 0.000000 0.062554
#
#
# Mechanical properties :
#
#
# Convention : Reuss Voigt Hill
#
# Bulk Modulus (GPa) = 19.04056 32.73432 25.88744
# Shear Modulus (GPa) = 23.79930 30.42815 27.11373
#
# Velocity S-wave (km/s) = 3.36061 3.79992 3.58700
# Velocity P-wave (km/s) = 4.90854 5.89798 5.42586
#
# Compressibility (1/GPa) = 0.05251947
#
# Stress axis : x y z
#
# Youngs Moduli (GPa) = 35.15948 41.86457 95.47441
#
# Poissons Ratio (x) = -0.29184 0.68028
# Poissons Ratio (y) = -0.24510 0.47615
# Poissons Ratio (z) = 0.25052 0.20879
#
# Static dielectric constant tensor:
#      x y z
#    x 1.727850 0.000000 0.018030 
#    y 0.000000 1.731470 0.000000 
#    z 0.018030 0.000000 1.793900 
# 
# From -- ./inp_files/61870.got.cif
#   From: 2010.05.17/outbox.cif.g08.bks.cpg/sg15_31_cif.got.tgz:61870.got - 2010.06.03 18:47:42.
