data_PCOD9307202
_publ_section_title
;
Structure prediction by ZEFSAII (Michael W. Deem and Ramdas Pophale) SiO2 
 PCOD9307202
Probable space group: C 2/C
;
_chemical_formula_sum "Si O2"
_cell_formula_units_Z 52
_cell_length_a 24.171333
_cell_length_b 12.411339
_cell_length_c 10.286466
_cell_angle_alpha 90.000000
_cell_angle_beta 53.601953
_cell_angle_gamma 90.000000
_cell_volume 2483.904697
_symmetry_space_group_name_H-M "C 2/C"
_symmetry_group_IT_number 15
_symmetry_cell_setting 'monoclinic'
loop_
_space_group_symop_operation_xyz
x,y,z
-x,y,1/2-z
-x,-y,-z
x,-y,1/2+z
1/2+x,1/2+y,z
1/2-x,1/2+y,1/2-z
1/2-x,1/2-y,-z
1/2+x,1/2-y,1/2+z
loop_
_atom_site_type_symbol
_atom_site_label
_atom_site_fract_x
_atom_site_fract_y
_atom_site_fract_z
Si Si1 0.500000 0.539268 0.250000
Si Si2 0.221164 0.970126 0.225810
Si Si3 0.995608 0.784677 0.533523
Si Si4 0.387249 0.377039 0.484602
Si Si5 0.461313 0.945992 0.174523
Si Si6 0.193114 0.481179 0.649607
Si Si7 0.350395 0.737605 0.781817
O O1 0.497707 0.613477 0.380402
O O2 0.432814 0.464109 0.341638
O O3 0.185506 0.854946 0.252991
O O4 0.165784 0.057302 0.352492
O O5 0.278488 0.966393 0.258322
O O6 0.255017 0.001445 0.041446
O O7 0.941614 0.813004 0.496396
O O8 0.968744 0.682108 0.649658
O O9 0.069996 0.756252 0.371749
O O10 0.350387 0.301114 0.431623
O O11 0.500000 0.982771 0.250000
O O12 0.381940 0.977078 0.283537
O O13 0.500000 0.000000 0.000000
O O14 0.184891 0.352946 0.682395
#
# Coordination Sequence:
#
# PCOD9307202 Si02
#       7
#     4   8   8   8   8   8   8
#     4  12  22  42  66 110 150 182 242 308 356 414
#     4  12  27  48  71 107 147 195 235 294 359 443
#     4  12  25  42  76 110 141 187 247 307 364 413
#     4  12  25  43  74 109 145 193 241 298 363 432
#     4  12  27  49  75 108 146 186 244 308 357 428
#     4  12  29  48  76 104 150 192 241 293 366 442
#     4  12  25  48  75 105 145 192 247 297 363 431
#
# _framework density 20.934781000000001
#
# number of rings (size 3 to 8) (size 9 to 14) (size 15 to 20)
#    0.000    0.000    6.923    2.769    4.308    0.000 
#    0.000    1.538    0.000    0.000    0.000    0.000 
#    0.000    0.000    0.000    0.000    0.000    0.000 
#
# Total GULP energy -145688.212809 kJ/mol
# GULP energy per Si atom -5603.392800 kJ/mol
# Density = 2.088713 g / cm^3
# Si number density = 20.934781 Si / 1000 Ang^3
#
#
#
# Elastic Constant Matrix: (Units=GPa)
#
#
# Indices 1 2 3 4 5 6 
#
# 1 141.0586 35.4351 14.9833 0.0000 10.0765 0.0000
# 2 35.4351 69.1690 12.6472 0.0000 1.8095 0.0000
# 3 14.9833 12.6472 81.9856 0.0000 -4.3172 0.0000
# 4 0.0000 0.0000 0.0000 28.3434 0.0000 -1.5634
# 5 10.0765 1.8095 -4.3172 0.0000 41.2345 0.0000
# 6 0.0000 0.0000 0.0000 -1.5634 0.0000 -0.1263
#
#
#
# Elastic Compliance Matrix: (Units=1/GPa)
#
#
# Indices 1 2 3 4 5 6 
#
# 1 0.008353 -0.004043 -0.001006 0.000000 -0.001969 0.000000
# 2 -0.004043 0.016868 -0.001860 0.000000 0.000053 0.000000
# 3 -0.001006 -0.001860 0.012756 0.000000 0.001663 0.000000
# 4 0.000000 0.000000 0.000000 0.020967 0.000000 -0.259517
# 5 -0.001969 0.000053 0.001663 0.000000 0.024904 0.000000
# 6 0.000000 0.000000 0.000000 -0.259517 0.000000 -4.704812
#
#
# Mechanical properties :
#
#
# Convention : Reuss Voigt Hill
#
# Bulk Modulus (GPa) = 41.39829 46.48272 43.94050
# Shear Modulus (GPa) = -1.08717 29.16683 14.03983
#
# Velocity S-wave (km/s) = -0.72142 3.73664 2.59249
# Velocity P-wave (km/s) = 4.37309 6.39284 5.47688
#
# Compressibility (1/GPa) = 0.02415559
#
# Stress axis : x y z
#
# Youngs Moduli (GPa) = 119.72369 59.28541 78.39618
#
# Poissons Ratio (x) = 0.23972 0.07890
# Poissons Ratio (y) = 0.48410 0.14584
# Poissons Ratio (z) = 0.12049 0.11029
#
# Static dielectric constant tensor:
#      x y z
#    x 1.740950 0.000000 -0.006890 
#    y 0.000000 1.731170 0.000000 
#    z -0.006890 0.000000 1.734670 
# 
# From -- ./inp_files/117937.got.cif
#   From: 2010.05.17/outbox.cif.g08.bks.cpg/sg15_59_cif.got.tgz:117937.got - 2010.06.03 18:47:42.
