data_PCOD9307427
_publ_section_title
;
Structure prediction by ZEFSAII (Michael W. Deem and Ramdas Pophale) SiO2 
 PCOD9307427
Probable space group: C 2/C
;
_chemical_formula_sum "Si O2"
_cell_formula_units_Z 28
_cell_length_a 28.685417
_cell_length_b 5.276125
_cell_length_c 9.095623
_cell_angle_alpha 90.000000
_cell_angle_beta 127.346533
_cell_angle_gamma 90.000000
_cell_volume 1094.373274
_symmetry_space_group_name_H-M "C 2/C"
_symmetry_group_IT_number 15
_symmetry_cell_setting 'monoclinic'
loop_
_space_group_symop_operation_xyz
x,y,z
-x,y,1/2-z
-x,-y,-z
x,-y,1/2+z
1/2+x,1/2+y,z
1/2-x,1/2+y,1/2-z
1/2-x,1/2-y,-z
1/2+x,1/2-y,1/2+z
loop_
_atom_site_type_symbol
_atom_site_label
_atom_site_fract_x
_atom_site_fract_y
_atom_site_fract_z
Si Si1 0.000000 0.390493 0.750000
Si Si2 0.267923 0.849948 0.870746
Si Si3 0.065515 0.013061 0.062857
Si Si4 0.897146 0.676391 0.619388
O O1 0.947342 0.226966 0.582426
O O2 0.959358 0.550189 0.782242
O O3 0.266057 0.595076 0.762983
O O4 0.250000 0.750000 0.000000
O O5 0.334894 0.953557 0.004044
O O6 0.107996 0.097156 0.272594
O O7 0.088666 0.776406 0.016532
O O8 0.000000 0.000000 0.000000
#
# Coordination Sequence:
#
# PCOD9307427 Si02
#       4
#     4   8   8   8
#     4  12  24  40  72 106 144 184 236 296 384 444
#     4  12  30  55  80 114 154 211 270 326 385 459
#     4  12  23  44  64 110 147 184 233 299 379 454
#     4  12  27  43  76 102 148 190 243 307 375 454
#
# _framework density 25.585419000000002
#
# number of rings (size 3 to 8) (size 9 to 14) (size 15 to 20)
#    0.000    0.000    5.714    3.429    8.000    0.000 
#    0.000    0.000    0.000    0.000    0.000    0.000 
#    0.000    0.000    0.000    0.000    0.000    0.000 
#
# Total GULP energy -78145.838369 kJ/mol
# GULP energy per Si atom -5581.845598 kJ/mol
# Density = 2.552719 g / cm^3
# Si number density = 25.585419 Si / 1000 Ang^3
#
#
#
# Elastic Constant Matrix: (Units=GPa)
#
#
# Indices 1 2 3 4 5 6 
#
# 1 122.7192 6.0824 21.4735 0.0000 19.1627 0.0000
# 2 6.0824 81.1353 7.8287 0.0000 -5.8572 0.0000
# 3 21.4735 7.8287 67.6346 0.0000 -2.8934 0.0000
# 4 0.0000 0.0000 0.0000 42.9560 0.0000 -1.8026
# 5 19.1627 -5.8572 -2.8934 0.0000 45.8794 0.0000
# 6 0.0000 0.0000 0.0000 -1.8026 0.0000 28.4507
#
#
#
# Elastic Compliance Matrix: (Units=1/GPa)
#
#
# Indices 1 2 3 4 5 6 
#
# 1 0.009378 -0.000710 -0.003075 0.000000 -0.004201 0.000000
# 2 -0.000710 0.012622 -0.001157 0.000000 0.001835 0.000000
# 3 -0.003075 -0.001157 0.015987 0.000000 0.002145 0.000000
# 4 0.000000 0.000000 0.000000 0.023342 0.000000 0.001479
# 5 -0.004201 0.001835 0.002145 0.000000 0.023921 0.000000
# 6 0.000000 0.000000 0.000000 0.001479 0.000000 0.035242
#
#
# Mechanical properties :
#
#
# Convention : Reuss Voigt Hill
#
# Bulk Modulus (GPa) = 35.58222 38.02868 36.80545
# Shear Modulus (GPa) = 35.77969 39.19752 37.48861
#
# Velocity S-wave (km/s) = 3.74363 3.91836 3.83199
# Velocity P-wave (km/s) = 5.71172 5.94702 5.83056
#
# Compressibility (1/GPa) = 0.02810392
#
# Stress axis : x y z
#
# Youngs Moduli (GPa) = 106.63266 79.22412 62.54952
#
# Poissons Ratio (x) = 0.05622 0.19234
# Poissons Ratio (y) = 0.07567 0.07239
# Poissons Ratio (z) = 0.32790 0.09168
#
# Static dielectric constant tensor:
#      x y z
#    x 1.652420 0.000000 0.501160 
#    y 0.000000 2.937370 0.000000 
#    z 0.501160 0.000000 1.096390 
# 
# From -- ./inp_files/64268.got.cif
#   From: 2010.05.17/outbox.cif.g08.bks.cpg/sg15_33_cif.got.tgz:64268.got - 2010.06.03 18:47:42.
