data_PCOD9307797
_publ_section_title
;
Structure prediction by ZEFSAII (Michael W. Deem and Ramdas Pophale) SiO2 
 PCOD9307797
Probable space group: C 2/C
;
_chemical_formula_sum "Si O2"
_cell_formula_units_Z 36
_cell_length_a 18.456992
_cell_length_b 5.360860
_cell_length_c 18.508108
_cell_angle_alpha 90.000000
_cell_angle_beta 58.856315
_cell_angle_gamma 90.000000
_cell_volume 1567.352728
_symmetry_space_group_name_H-M "C 2/C"
_symmetry_group_IT_number 15
_symmetry_cell_setting 'monoclinic'
loop_
_space_group_symop_operation_xyz
x,y,z
-x,y,1/2-z
-x,-y,-z
x,-y,1/2+z
1/2+x,1/2+y,z
1/2-x,1/2+y,1/2-z
1/2-x,1/2-y,-z
1/2+x,1/2-y,1/2+z
loop_
_atom_site_type_symbol
_atom_site_label
_atom_site_fract_x
_atom_site_fract_y
_atom_site_fract_z
Si Si1 0.410060 0.330529 0.961742
Si Si2 0.589535 0.761264 0.315965
Si Si3 0.658017 0.165576 0.931697
Si Si4 0.346998 0.479930 0.353216
Si Si5 0.500000 0.127586 0.250000
O O1 0.490633 0.630257 0.104649
O O2 0.393641 0.068863 0.009649
O O3 0.374938 0.568195 0.023138
O O4 0.361588 0.322782 0.909662
O O5 0.639387 0.594813 0.232911
O O6 0.648559 0.850306 0.350097
O O7 0.544430 0.968395 0.289558
O O8 0.755245 0.138158 0.904905
O O9 0.425082 0.291334 0.322261
#
# Coordination Sequence:
#
# PCOD9307797 Si02
#       5
#     8   8   8   8   4
#     4  12  25  53  72 116 150 202 237 313 382 445
#     4  12  27  48  77 109 149 204 252 304 370 452
#     4  12  31  45  81 112 155 186 257 316 371 431
#     4  12  27  48  77 109 149 204 252 304 370 452
#     4  12  24  48  76 102 150 196 260 292 376 434
#
# _framework density 22.968662999999999
#
# number of rings (size 3 to 8) (size 9 to 14) (size 15 to 20)
#    0.000    0.000    4.444    4.000    9.333    0.000 
#    0.000    0.000    0.000    0.000    0.000    0.000 
#    0.000    0.000    0.000    0.000    0.000    0.000 
#
# Total GULP energy -100867.388457 kJ/mol
# GULP energy per Si atom -5603.743803 kJ/mol
# Density = 2.291639 g / cm^3
# Si number density = 22.968663 Si / 1000 Ang^3
#
#
#
# Elastic Constant Matrix: (Units=GPa)
#
#
# Indices 1 2 3 4 5 6 
#
# 1 74.0553 -9.5098 -4.8635 0.0103 5.5714 0.0060
# 2 -9.5098 79.1664 11.8123 0.0426 -21.9670 0.0238
# 3 -4.8635 11.8123 36.7331 -0.0364 -37.2588 0.0091
# 4 0.0103 0.0426 -0.0364 99.7113 -0.0458 12.9963
# 5 5.5714 -21.9670 -37.2588 -0.0458 -41.1885 0.0098
# 6 0.0060 0.0238 0.0091 12.9963 0.0098 14.8436
#
#
#
# Elastic Compliance Matrix: (Units=1/GPa)
#
#
# Indices 1 2 3 4 5 6 
#
# 1 0.013779 0.001443 0.001288 -0.000001 -0.000071 -0.000008
# 2 0.001443 0.013201 -0.005735 -0.000007 -0.001657 -0.000011
# 3 0.001288 -0.005735 0.016958 0.000002 -0.012107 0.000004
# 4 -0.000001 -0.000007 0.000002 0.011321 -0.000013 -0.009912
# 5 -0.000071 -0.001657 -0.012107 -0.000013 -0.012452 0.000030
# 6 -0.000008 -0.000011 0.000004 -0.009912 0.000030 0.076048
#
#
# Mechanical properties :
#
#
# Convention : Reuss Voigt Hill
#
# Bulk Modulus (GPa) = 26.36433 20.53699 23.45066
# Shear Modulus (GPa) = 36.36253 27.50766 31.93509
#
# Velocity S-wave (km/s) = 3.98318 3.46441 3.73282
# Velocity P-wave (km/s) = 5.71468 4.99636 5.36755
#
# Compressibility (1/GPa) = 0.03793004
#
# Stress axis : x y z
#
# Youngs Moduli (GPa) = 72.57578 75.75279 58.96969
#
# Poissons Ratio (x) = -0.10933 -0.07596
# Poissons Ratio (y) = -0.10474 0.33819
# Poissons Ratio (z) = -0.09348 0.43444
#
# Static dielectric constant tensor:
#      x y z
#    x 1.814910 -0.000010 0.022090 
#    y -0.000010 1.880810 -0.000010 
#    z 0.022090 -0.000010 1.885030 
# 
# From -- ./inp_files/207957.got.cif
#   From: 2010.05.17/outbox.cif.g08.bks.cpg/sg15_104_cif.got.tgz:207957.got - 2010.06.03 18:47:42.
