data_PCOD9307674
_publ_section_title
;
Structure prediction by ZEFSAII (Michael W. Deem and Ramdas Pophale) SiO2 
 PCOD9307674
Probable space group: C 2/C
;
_chemical_formula_sum "Si O2"
_cell_formula_units_Z 44
_cell_length_a 15.978442
_cell_length_b 4.591840
_cell_length_c 21.186431
_cell_angle_alpha 90.000000
_cell_angle_beta 91.864333
_cell_angle_gamma 90.000000
_cell_volume 1553.635123
_symmetry_space_group_name_H-M "C 2/C"
_symmetry_group_IT_number 15
_symmetry_cell_setting 'monoclinic'
loop_
_space_group_symop_operation_xyz
x,y,z
-x,y,1/2-z
-x,-y,-z
x,-y,1/2+z
1/2+x,1/2+y,z
1/2-x,1/2+y,1/2-z
1/2-x,1/2-y,-z
1/2+x,1/2-y,1/2+z
loop_
_atom_site_type_symbol
_atom_site_label
_atom_site_fract_x
_atom_site_fract_y
_atom_site_fract_z
Si Si1 0.407719 0.388203 0.424914
Si Si2 0.725996 0.866800 0.391372
Si Si3 0.002736 0.401911 0.386956
Si Si4 0.807805 0.263343 0.731156
Si Si5 0.500000 0.172319 0.250000
Si Si6 0.646298 0.694678 0.950232
O O1 0.324638 0.395255 0.381484
O O2 0.427087 0.047891 0.424256
O O3 0.393211 0.521266 0.492925
O O4 0.484843 0.562039 0.394917
O O5 0.755572 0.511510 0.275222
O O6 0.687898 0.041980 0.331840
O O7 0.718766 0.060228 0.455616
O O8 0.997597 0.481828 0.313698
O O9 0.078723 0.570005 0.421464
O O10 0.905787 0.181635 0.747313
O O11 0.815976 0.942578 0.594844
#
# Coordination Sequence:
#
# PCOD9307674 Si02
#       6
#     8   8   8   8   4   8
#     4  12  25  45  72 106 144 190 246 306 382 451
#     4  12  24  45  70 105 144 188 250 301 386 446
#     4  12  26  45  70 106 142 194 245 308 375 453
#     4  12  27  48  74 108 149 197 252 310 372 456
#     4  12  28  50  78 106 156 196 254 310 384 442
#     4  12  24  45  71 105 145 190 240 310 373 461
#
# _framework density 28.320678000000001
#
# number of rings (size 3 to 8) (size 9 to 14) (size 15 to 20)
#    0.000    0.000    1.818    8.727    0.000    1.455 
#    0.000    0.000    0.000    0.000    0.000    0.000 
#    0.000    0.000    0.000    0.000    0.000    0.000 
#
# Total GULP energy -122992.429166 kJ/mol
# GULP energy per Si atom -5590.564962 kJ/mol
# Density = 2.825622 g / cm^3
# Si number density = 28.320678 Si / 1000 Ang^3
#
#
#
# Elastic Constant Matrix: (Units=GPa)
#
#
# Indices 1 2 3 4 5 6 
#
# 1 171.3990 30.9395 23.7005 0.0000 1.4105 0.0000
# 2 30.9395 154.0696 25.1814 0.0000 -3.1632 0.0000
# 3 23.7005 25.1814 118.3637 0.0000 -15.7972 0.0000
# 4 0.0000 0.0000 0.0000 46.1071 0.0000 -13.5872
# 5 1.4105 -3.1632 -15.7972 0.0000 43.6970 0.0000
# 6 0.0000 0.0000 0.0000 -13.5872 0.0000 46.3040
#
#
#
# Elastic Compliance Matrix: (Units=1/GPa)
#
#
# Indices 1 2 3 4 5 6 
#
# 1 0.006186 -0.001076 -0.001100 0.000000 -0.000675 0.000000
# 2 -0.001076 0.006912 -0.001243 0.000000 0.000086 0.000000
# 3 -0.001100 -0.001243 0.009379 0.000000 0.003336 0.000000
# 4 0.000000 0.000000 0.000000 0.023742 0.000000 0.006967
# 5 -0.000675 0.000086 0.003336 0.000000 0.024119 0.000000
# 6 0.000000 0.000000 0.000000 0.006967 0.000000 0.023641
#
#
# Mechanical properties :
#
#
# Convention : Reuss Voigt Hill
#
# Bulk Modulus (GPa) = 63.95048 67.05280 65.50164
# Shear Modulus (GPa) = 47.15671 51.48901 49.32286
#
# Velocity S-wave (km/s) = 4.08499 4.26851 4.17776
# Velocity P-wave (km/s) = 6.69921 6.92974 6.81545
#
# Compressibility (1/GPa) = 0.01563710
#
# Stress axis : x y z
#
# Youngs Moduli (GPa) = 161.64800 144.68163 106.62647
#
# Poissons Ratio (x) = 0.15574 0.11727
# Poissons Ratio (y) = 0.17400 0.13259
# Poissons Ratio (z) = 0.17778 0.17991
#
# Static dielectric constant tensor:
#      x y z
#    x 2.462880 0.000000 -0.021580 
#    y 0.000000 2.109660 0.000000 
#    z -0.021580 0.000000 2.323080 
# 
# From -- ./inp_files/246459.got.cif
#   From: 2010.05.17/outbox.cif.g08.bks.cpg/sg15_124_cif.got.tgz:246459.got - 2010.06.03 18:47:42.
