data_PCOD9307024
_publ_section_title
;
Structure prediction by ZEFSAII (Michael W. Deem and Ramdas Pophale) SiO2 
 PCOD9307024
Probable space group: C 2/C
;
_chemical_formula_sum "Si O2"
_cell_formula_units_Z 64
_cell_length_a 9.672949
_cell_length_b 17.183189
_cell_length_c 26.323672
_cell_angle_alpha 90.000000
_cell_angle_beta 132.857119
_cell_angle_gamma 90.000000
_cell_volume 3207.332689
_symmetry_space_group_name_H-M "C 2/C"
_symmetry_group_IT_number 15
_symmetry_cell_setting 'monoclinic'
loop_
_space_group_symop_operation_xyz
x,y,z
-x,y,1/2-z
-x,-y,-z
x,-y,1/2+z
1/2+x,1/2+y,z
1/2-x,1/2+y,1/2-z
1/2-x,1/2-y,-z
1/2+x,1/2-y,1/2+z
loop_
_atom_site_type_symbol
_atom_site_label
_atom_site_fract_x
_atom_site_fract_y
_atom_site_fract_z
Si Si1 0.231833 0.915795 0.958355
Si Si2 0.304963 0.917528 0.510616
Si Si3 0.552901 0.089643 0.162527
Si Si4 0.364582 0.415558 0.813854
Si Si5 0.569485 0.204036 0.530818
Si Si6 0.064604 0.125321 0.526291
Si Si7 0.838071 0.544772 0.672867
Si Si8 0.652828 0.218290 0.325487
O O1 0.405898 0.857463 0.001442
O O2 0.084313 0.902062 0.876272
O O3 0.290994 0.005509 0.973896
O O4 0.123923 0.900768 0.984810
O O5 0.498179 0.918805 0.590672
O O6 0.298141 0.839342 0.476404
O O7 0.130773 0.915540 0.506299
O O8 0.768060 0.085690 0.234663
O O9 0.458779 0.169837 0.159111
O O10 0.447304 0.019914 0.166397
O O11 0.306558 0.495800 0.827922
O O12 0.257246 0.347519 0.818187
O O13 0.477427 0.282984 0.486835
O O14 0.694296 0.227085 0.610501
O O15 0.222809 0.100844 0.606746
O O16 0.000000 0.580263 0.750000
O O17 0.500000 0.256947 0.250000
#
# Coordination Sequence:
#
# PCOD9307024 Si02
#       8
#     8   8   8   8   8   8   8   8
#     4  12  23  40  63  89 121 161 206 246 297 358
#     4  12  23  40  63  89 121 161 206 246 297 358
#     4   9  17  33  60  90 116 154 207 250 291 356
#     4   9  17  33  60  90 116 154 207 250 291 356
#     4  12  26  39  57  93 134 156 192 250 313 358
#     4  12  21  38  65  90 115 153 207 257 289 344
#     4   9  17  33  59  94 118 148 205 264 293 332
#     4   9  18  35  59  86 120 160 200 240 303 369
#
# _framework density 19.954276
#
# number of rings (size 3 to 8) (size 9 to 14) (size 15 to 20)
#    0.000    1.500    5.000    3.750    0.000    0.000 
#    0.000    4.375    0.000    0.000    0.000    0.000 
#    0.000    0.000    0.000    0.000    0.000    0.000 
#
# Total GULP energy -178726.624030 kJ/mol
# GULP energy per Si atom -5585.207001 kJ/mol
# Density = 1.990886 g / cm^3
# Si number density = 19.954276 Si / 1000 Ang^3
#
#
#
# Elastic Constant Matrix: (Units=GPa)
#
#
# Indices 1 2 3 4 5 6 
#
# 1 41.2299 0.7804 7.7447 0.0000 12.6131 0.0000
# 2 0.7804 73.7605 34.0600 0.0000 9.4059 0.0000
# 3 7.7447 34.0600 178.9723 0.0000 30.4516 0.0000
# 4 0.0000 0.0000 0.0000 49.6683 0.0000 8.7798
# 5 12.6131 9.4059 30.4516 0.0000 18.9008 0.0000
# 6 0.0000 0.0000 0.0000 8.7798 0.0000 12.6631
#
#
#
# Elastic Compliance Matrix: (Units=1/GPa)
#
#
# Indices 1 2 3 4 5 6 
#
# 1 0.031855 0.001761 0.002828 0.000000 -0.026689 0.000000
# 2 0.001761 0.015174 -0.002038 0.000000 -0.005443 0.000000
# 3 0.002828 -0.002038 0.008268 0.000000 -0.014194 0.000000
# 4 0.000000 0.000000 0.000000 0.022946 0.000000 -0.015909
# 5 -0.026689 -0.005443 -0.014194 0.000000 0.096295 0.000000
# 6 0.000000 0.000000 0.000000 -0.015909 0.000000 0.090000
#
#
# Mechanical properties :
#
#
# Convention : Reuss Voigt Hill
#
# Bulk Modulus (GPa) = 16.55698 42.12586 29.34142
# Shear Modulus (GPa) = 17.88468 33.00492 25.44480
#
# Velocity S-wave (km/s) = 2.99705 4.07139 3.57481
# Velocity P-wave (km/s) = 4.50465 6.57713 5.63695
#
# Compressibility (1/GPa) = 0.06039747
#
# Stress axis : x y z
#
# Youngs Moduli (GPa) = 31.39257 65.90288 120.94982
#
# Poissons Ratio (x) = -0.11604 -0.34200
# Poissons Ratio (y) = -0.05527 0.24647
# Poissons Ratio (z) = -0.08877 0.13430
#
# Static dielectric constant tensor:
#      x y z
#    x 1.722480 0.000000 0.011960 
#    y 0.000000 1.671310 0.000000 
#    z 0.011960 0.000000 1.727160 
# 
# From -- ./inp_files/293082.got.cif
#   From: 2010.05.17/outbox.cif.g08.bks.cpg/sg15_147_cif.got.tgz:293082.got - 2010.06.03 18:47:42.
