data_PCOD9307435
_publ_section_title
;
Structure prediction by ZEFSAII (Michael W. Deem and Ramdas Pophale) SiO2 
 PCOD9307435
Probable space group: C 2/C
;
_chemical_formula_sum "Si O2"
_cell_formula_units_Z 40
_cell_length_a 10.430500
_cell_length_b 21.489229
_cell_length_c 16.356896
_cell_angle_alpha 90.000000
_cell_angle_beta 147.985154
_cell_angle_gamma 90.000000
_cell_volume 1943.643438
_symmetry_space_group_name_H-M "C 2/C"
_symmetry_group_IT_number 15
_symmetry_cell_setting 'monoclinic'
loop_
_space_group_symop_operation_xyz
x,y,z
-x,y,1/2-z
-x,-y,-z
x,-y,1/2+z
1/2+x,1/2+y,z
1/2-x,1/2+y,1/2-z
1/2-x,1/2-y,-z
1/2+x,1/2-y,1/2+z
loop_
_atom_site_type_symbol
_atom_site_label
_atom_site_fract_x
_atom_site_fract_y
_atom_site_fract_z
Si Si1 0.028180 0.257414 0.670028
Si Si2 0.500000 0.058483 0.750000
Si Si3 0.740495 0.122177 0.727413
Si Si4 0.586902 0.117850 0.113267
Si Si5 0.000000 0.950985 0.750000
Si Si6 0.282292 0.535712 0.501936
O O1 0.750000 0.250000 0.500000
O O2 0.000000 0.272970 0.750000
O O3 0.168171 0.193377 0.727401
O O4 0.126025 0.313132 0.667863
O O5 0.574194 0.101310 0.713428
O O6 0.281132 0.012301 0.604680
O O7 0.591218 0.114579 0.562093
O O8 0.978123 0.078472 0.866779
O O9 0.841275 0.088680 0.226310
O O10 0.449534 0.079094 0.108789
O O11 0.184465 0.993133 0.900105
#
# Coordination Sequence:
#
# PCOD9307435 Si02
#       6
#     8   4   8   8   4   8
#     4  12  25  46  75 102 129 181 238 282 335 408
#     4  12  28  41  68 113 142 174 228 286 352 408
#     4  12  24  48  70 100 144 181 225 292 340 402
#     4  12  25  46  72 101 141 183 227 286 344 405
#     4  12  24  43  72 101 138 184 224 268 362 414
#     4  12  23  44  73 100 139 185 228 277 341 417
#
# _framework density 20.579906000000001
#
# number of rings (size 3 to 8) (size 9 to 14) (size 15 to 20)
#    0.000    0.000    8.000    2.400    1.400    2.400 
#    0.000    2.000    0.000    0.000    0.000    0.000 
#    0.000    0.000    0.000    0.000    0.000    0.000 
#
# Total GULP energy -111755.356484 kJ/mol
# GULP energy per Si atom -5587.767824 kJ/mol
# Density = 2.053307 g / cm^3
# Si number density = 20.579906 Si / 1000 Ang^3
#
#
#
# Elastic Constant Matrix: (Units=GPa)
#
#
# Indices 1 2 3 4 5 6 
#
# 1 95.1173 52.4803 10.5166 -0.0013 -0.4571 -0.0019
# 2 52.4803 130.8442 17.4932 -0.0046 1.7886 -0.0041
# 3 10.5166 17.4932 58.4127 -0.0044 -14.7421 -0.0051
# 4 -0.0013 -0.0046 -0.0044 -25.8669 -0.0063 -53.0284
# 5 -0.4571 1.7886 -14.7421 -0.0063 39.2587 -0.0056
# 6 -0.0019 -0.0041 -0.0051 -53.0284 -0.0056 -0.8683
#
#
#
# Elastic Compliance Matrix: (Units=1/GPa)
#
#
# Indices 1 2 3 4 5 6 
#
# 1 0.013541 -0.005323 -0.000821 0.000000 0.000092 0.000000
# 2 -0.005323 0.010123 -0.002436 0.000000 -0.001438 0.000000
# 3 -0.000821 -0.002436 0.019909 -0.000002 0.007578 -0.000001
# 4 0.000000 0.000000 -0.000002 0.000311 -0.000004 -0.019010
# 5 0.000092 -0.001438 0.007578 -0.000004 0.028384 -0.000002
# 6 0.000000 0.000000 -0.000001 -0.019010 -0.000002 0.009273
#
#
# Mechanical properties :
#
#
# Convention : Reuss Voigt Hill
#
# Bulk Modulus (GPa) = 37.85842 49.48382 43.67112
# Shear Modulus (GPa) = 46.50906 16.09698 31.30302
#
# Velocity S-wave (km/s) = 4.75902 2.79976 3.90429
# Velocity P-wave (km/s) = 6.97377 5.87780 6.44911
#
# Compressibility (1/GPa) = 0.02641420
#
# Stress axis : x y z
#
# Youngs Moduli (GPa) = 73.84790 98.78522 50.22776
#
# Poissons Ratio (x) = 0.52582 0.04122
# Poissons Ratio (y) = 0.39308 0.12236
# Poissons Ratio (z) = 0.06061 0.24066
#
# Static dielectric constant tensor:
#      x y z
#    x 1.646000 0.000000 0.040560 
#    y 0.000000 1.683760 0.000000 
#    z 0.040560 0.000000 1.714400 
# 
# From -- ./inp_files/30534.got.cif
#   From: 2010.05.17/outbox.cif.g08.bks.cpg/sg15_16_cif.got.tgz:30534.got - 2010.06.03 18:47:42.
