data_PCOD9307735
_publ_section_title
;
Structure prediction by ZEFSAII (Michael W. Deem and Ramdas Pophale) SiO2 
 PCOD9307735
Probable space group: C 2/C
;
_chemical_formula_sum "Si O2"
_cell_formula_units_Z 40
_cell_length_a 8.894339
_cell_length_b 16.441386
_cell_length_c 12.092898
_cell_angle_alpha 90.000000
_cell_angle_beta 99.378334
_cell_angle_gamma 90.000000
_cell_volume 1744.771287
_symmetry_space_group_name_H-M "C 2/C"
_symmetry_group_IT_number 15
_symmetry_cell_setting 'monoclinic'
loop_
_space_group_symop_operation_xyz
x,y,z
-x,y,1/2-z
-x,-y,-z
x,-y,1/2+z
1/2+x,1/2+y,z
1/2-x,1/2+y,1/2-z
1/2-x,1/2-y,-z
1/2+x,1/2-y,1/2+z
loop_
_atom_site_type_symbol
_atom_site_label
_atom_site_fract_x
_atom_site_fract_y
_atom_site_fract_z
Si Si1 0.147952 0.175464 0.534397
Si Si2 0.640125 0.536311 0.349235
Si Si3 0.175753 0.373046 0.783561
Si Si4 0.825498 0.703603 0.762337
Si Si5 0.181407 0.864188 0.461168
O O1 0.250000 0.250000 0.500000
O O2 0.150599 0.101651 0.448623
O O3 0.222239 0.155656 0.661617
O O4 0.968075 0.190653 0.532526
O O5 0.500000 0.552346 0.250000
O O6 0.786245 0.549567 0.288152
O O7 0.625030 0.448638 0.401856
O O8 0.274137 0.297521 0.749618
O O9 0.000000 0.351746 0.750000
O O10 0.228620 0.382895 0.915799
O O11 0.786463 0.675753 0.880828
O O12 0.000000 0.695385 0.750000
#
# Coordination Sequence:
#
# PCOD9307735 Si02
#       5
#     8   8   8   8   8
#     4  12  24  46  77 108 148 198 254 313 376 458
#     4  12  26  49  77 111 154 203 255 314 393 466
#     4  12  27  48  74 110 154 198 257 325 383 454
#     4  12  27  47  75 111 151 202 259 319 386 463
#     4  12  28  48  79 109 156 206 260 316 392 463
#
# _framework density 22.925642
#
# number of rings (size 3 to 8) (size 9 to 14) (size 15 to 20)
#    0.000    0.000    4.000    6.000    5.600    1.600 
#    0.000    0.000    0.000    0.000    0.000    0.000 
#    0.000    0.000    0.000    0.000    0.000    0.000 
#
# Total GULP energy -112085.565186 kJ/mol
# GULP energy per Si atom -5604.278259 kJ/mol
# Density = 2.287346 g / cm^3
# Si number density = 22.925642 Si / 1000 Ang^3
#
#
#
# Elastic Constant Matrix: (Units=GPa)
#
#
# Indices 1 2 3 4 5 6 
#
# 1 165.3374 31.1677 69.4119 0.0000 -7.7265 0.0000
# 2 31.1677 96.9735 35.0486 0.0000 -2.0552 0.0000
# 3 69.4119 35.0486 177.9984 0.0000 5.5647 0.0000
# 4 0.0000 0.0000 0.0000 29.1514 0.0000 4.9611
# 5 -7.7265 -2.0552 5.5647 0.0000 47.8058 0.0000
# 6 0.0000 0.0000 0.0000 4.9611 0.0000 21.0643
#
#
#
# Elastic Compliance Matrix: (Units=1/GPa)
#
#
# Indices 1 2 3 4 5 6 
#
# 1 0.007516 -0.001409 -0.002699 0.000000 0.001468 0.000000
# 2 -0.001409 0.011392 -0.001708 0.000000 0.000461 0.000000
# 3 -0.002699 -0.001708 0.007049 0.000000 -0.001330 0.000000
# 4 0.000000 0.000000 0.000000 0.035736 0.000000 -0.008417
# 5 0.001468 0.000461 -0.001330 0.000000 0.021330 0.000000
# 6 0.000000 0.000000 0.000000 -0.008417 0.000000 0.049456
#
#
# Mechanical properties :
#
#
# Convention : Reuss Voigt Hill
#
# Bulk Modulus (GPa) = 69.81451 79.06287 74.43869
# Shear Modulus (GPa) = 33.58291 39.91637 36.74964
#
# Velocity S-wave (km/s) = 3.83150 4.17720 4.00808
# Velocity P-wave (km/s) = 7.07761 7.60440 7.34573
#
# Compressibility (1/GPa) = 0.01432367
#
# Stress axis : x y z
#
# Youngs Moduli (GPa) = 133.05567 87.78054 141.87296
#
# Poissons Ratio (x) = 0.12367 0.38295
# Poissons Ratio (y) = 0.18746 0.24234
# Poissons Ratio (z) = 0.35915 0.14994
#
# Static dielectric constant tensor:
#      x y z
#    x 1.861600 0.000000 -0.038240 
#    y 0.000000 1.870250 0.000000 
#    z -0.038240 0.000000 1.849650 
# 
# From -- ./inp_files/76911.got.cif
#   From: 2010.05.17/outbox.cif.g08.bks.cpg/sg15_39_cif.got.tgz:76911.got - 2010.06.03 18:47:42.
