data_PCOD9307133
_publ_section_title
;
Structure prediction by ZEFSAII (Michael W. Deem and Ramdas Pophale) SiO2 
 PCOD9307133
Probable space group: C 2/C
;
_chemical_formula_sum "Si O2"
_cell_formula_units_Z 32
_cell_length_a 14.685180
_cell_length_b 10.557908
_cell_length_c 20.669281
_cell_angle_alpha 90.000000
_cell_angle_beta 156.795301
_cell_angle_gamma 90.000000
_cell_volume 1262.693067
_symmetry_space_group_name_H-M "C 2/C"
_symmetry_group_IT_number 15
_symmetry_cell_setting 'monoclinic'
loop_
_space_group_symop_operation_xyz
x,y,z
-x,y,1/2-z
-x,-y,-z
x,-y,1/2+z
1/2+x,1/2+y,z
1/2-x,1/2+y,1/2-z
1/2-x,1/2-y,-z
1/2+x,1/2-y,1/2+z
loop_
_atom_site_type_symbol
_atom_site_label
_atom_site_fract_x
_atom_site_fract_y
_atom_site_fract_z
Si Si1 0.236780 0.154944 0.745296
Si Si2 0.457568 0.654849 0.289310
Si Si3 0.249491 0.274477 0.896730
Si Si4 0.842163 0.496385 0.499731
O O1 0.354673 0.261938 0.777419
O O2 0.252515 0.212538 0.827369
O O3 0.392073 0.032351 0.831715
O O4 0.971830 0.139239 0.552110
O O5 0.500000 0.732163 0.250000
O O6 0.695931 0.578975 0.455883
O O7 0.275396 0.551159 0.143313
O O8 0.000000 0.331122 0.750000
O O9 0.287465 0.150627 0.967207
#
# Coordination Sequence:
#
# PCOD9307133 Si02
#       4
#     8   8   8   8
#     4  12  22  37  69 100 126 168 221 267 317 382
#     4   8  18  38  67  93 124 158 223 255 313 375
#     4  12  24  43  63  96 133 176 212 264 319 391
#     4   9  20  40  68  92 126 169 216 256 324 391
#
# _framework density 25.342658
#
# number of rings (size 3 to 8) (size 9 to 14) (size 15 to 20)
#    1.500    0.000    5.000    2.250    0.000    0.000 
#    0.000    1.250    0.000    4.500    0.000    0.000 
#    0.000    0.000    0.000    0.000    0.000    0.000 
#
# Total GULP energy -89486.524709 kJ/mol
# GULP energy per Si atom -5592.907794 kJ/mol
# Density = 2.528498 g / cm^3
# Si number density = 25.342658 Si / 1000 Ang^3
#
#
#
# Elastic Constant Matrix: (Units=GPa)
#
#
# Indices 1 2 3 4 5 6 
#
# 1 131.8046 32.2830 38.7940 0.0154 23.5781 0.0039
# 2 32.2830 42.0501 30.1892 0.0403 13.7600 0.0073
# 3 38.7940 30.1892 184.6077 0.0283 49.1312 0.0068
# 4 0.0154 0.0403 0.0283 23.2819 -0.0005 3.8568
# 5 23.5781 13.7600 49.1312 -0.0005 44.1206 0.0005
# 6 0.0039 0.0073 0.0068 3.8568 0.0005 39.8196
#
#
#
# Elastic Compliance Matrix: (Units=1/GPa)
#
#
# Indices 1 2 3 4 5 6 
#
# 1 0.009739 -0.006346 -0.000214 0.000005 -0.002987 0.000000
# 2 -0.006346 0.031868 -0.003035 -0.000047 -0.003168 0.000000
# 3 -0.000214 -0.003035 0.008066 -0.000005 -0.007922 0.000000
# 4 0.000005 -0.000047 -0.000005 0.043652 0.000018 -0.004228
# 5 -0.002987 -0.003168 -0.007922 0.000018 0.034071 0.000000
# 6 0.000000 0.000000 0.000000 -0.004228 0.000000 0.025523
#
#
# Mechanical properties :
#
#
# Convention : Reuss Voigt Hill
#
# Bulk Modulus (GPa) = 32.80294 62.33275 47.56784
# Shear Modulus (GPa) = 27.43192 38.59082 33.01137
#
# Velocity S-wave (km/s) = 3.29362 3.90649 3.61307
# Velocity P-wave (km/s) = 5.23791 6.70798 6.01800
#
# Compressibility (1/GPa) = 0.03048508
#
# Stress axis : x y z
#
# Youngs Moduli (GPa) = 102.68515 31.37902 123.97130
#
# Poissons Ratio (x) = 0.19912 0.02650
# Poissons Ratio (y) = 0.65159 0.37623
# Poissons Ratio (z) = 0.02195 0.09523
#
# Static dielectric constant tensor:
#      x y z
#    x 2.023940 0.000000 -0.009950 
#    y 0.000000 1.962080 -0.000020 
#    z -0.009950 -0.000020 2.035580 
# 
# From -- ./inp_files/37700.got.cif
#   From: 2010.05.17/outbox.cif.g08.bks.cpg/sg15_19_cif.got.tgz:37700.got - 2010.06.03 18:47:42.
