data_PCOD9307480
_publ_section_title
;
Structure prediction by ZEFSAII (Michael W. Deem and Ramdas Pophale) SiO2 
 PCOD9307480
Probable space group: C 2/C
;
_chemical_formula_sum "Si O2"
_cell_formula_units_Z 44
_cell_length_a 11.358870
_cell_length_b 13.516806
_cell_length_c 14.271936
_cell_angle_alpha 90.000000
_cell_angle_beta 69.077564
_cell_angle_gamma 90.000000
_cell_volume 2046.770099
_symmetry_space_group_name_H-M "C 2/C"
_symmetry_group_IT_number 15
_symmetry_cell_setting 'monoclinic'
loop_
_space_group_symop_operation_xyz
x,y,z
-x,y,1/2-z
-x,-y,-z
x,-y,1/2+z
1/2+x,1/2+y,z
1/2-x,1/2+y,1/2-z
1/2-x,1/2-y,-z
1/2+x,1/2-y,1/2+z
loop_
_atom_site_type_symbol
_atom_site_label
_atom_site_fract_x
_atom_site_fract_y
_atom_site_fract_z
Si Si1 0.550222 0.701439 0.537947
Si Si2 0.753768 0.949130 0.580624
Si Si3 0.699905 0.444733 0.718061
Si Si4 0.335250 0.652519 0.457048
Si Si5 0.492702 0.075510 0.087073
Si Si6 0.500000 0.611659 0.750000
O O1 0.683253 0.645362 0.488733
O O2 0.461994 0.662140 0.480002
O O3 0.533893 0.818141 0.536062
O O4 0.496780 0.673689 0.655715
O O5 0.815076 0.945439 0.665943
O O6 0.602959 0.944429 0.630106
O O7 0.778973 0.049863 0.515199
O O8 0.647619 0.363182 0.659333
O O9 0.624253 0.542983 0.709557
O O10 0.849825 0.433449 0.661520
O O11 0.250000 0.750000 0.500000
O O12 0.500000 0.000000 0.000000
#
# Coordination Sequence:
#
# PCOD9307480 Si02
#       6
#     8   8   8   8   8   4
#     4  12  25  45  75 104 144 188 246 295 360 436
#     4  12  25  46  72 106 143 191 239 295 363 434
#     4  12  25  44  73 101 144 187 245 294 367 420
#     4  12  23  46  71 102 146 186 231 302 358 424
#     4  12  25  48  70 103 149 189 234 303 368 432
#     4  12  24  44  76 104 136 194 246 302 362 434
#
# _framework density 21.497285000000002
#
# number of rings (size 3 to 8) (size 9 to 14) (size 15 to 20)
#    0.000    0.000    7.273    2.727    2.545    0.000 
#    3.273    0.000    0.000    0.000    0.000    0.000 
#    0.000    0.000    0.000    0.000    0.000    0.000 
#
# Total GULP energy -122786.997805 kJ/mol
# GULP energy per Si atom -5581.227173 kJ/mol
# Density = 2.144836 g / cm^3
# Si number density = 21.497285 Si / 1000 Ang^3
#
#
#
# Elastic Constant Matrix: (Units=GPa)
#
#
# Indices 1 2 3 4 5 6 
#
# 1 140.9704 42.9694 30.8740 0.0000 10.7036 0.0000
# 2 42.9694 152.5112 45.0940 0.0000 -7.4616 0.0000
# 3 30.8740 45.0940 104.9638 0.0000 26.7100 0.0000
# 4 0.0000 0.0000 0.0000 5.3950 0.0000 11.8662
# 5 10.7036 -7.4616 26.7100 0.0000 42.3915 0.0000
# 6 0.0000 0.0000 0.0000 11.8662 0.0000 27.7236
#
#
#
# Elastic Compliance Matrix: (Units=1/GPa)
#
#
# Indices 1 2 3 4 5 6 
#
# 1 0.008081 -0.002050 -0.001054 0.000000 -0.001737 0.000000
# 2 -0.002050 0.008646 -0.004324 0.000000 0.004764 0.000000
# 3 -0.001054 -0.004324 0.014078 0.000000 -0.009365 0.000000
# 4 0.000000 0.000000 0.000000 3.163453 0.000000 -1.354012
# 5 -0.001737 0.004764 -0.009365 0.000000 0.030767 0.000000
# 6 0.000000 0.000000 0.000000 -1.354012 0.000000 0.615611
#
#
# Mechanical properties :
#
#
# Convention : Reuss Voigt Hill
#
# Bulk Modulus (GPa) = 62.69948 70.70224 66.70086
# Shear Modulus (GPa) = 1.29507 33.73588 17.51547
#
# Velocity S-wave (km/s) = 0.77701 3.96575 2.85753
# Velocity P-wave (km/s) = 5.48038 7.34370 6.47937
#
# Compressibility (1/GPa) = 0.01594910
#
# Stress axis : x y z
#
# Youngs Moduli (GPa) = 123.74111 115.66066 71.03395
#
# Poissons Ratio (x) = 0.23712 0.07489
# Poissons Ratio (y) = 0.25369 0.30712
# Poissons Ratio (z) = 0.13045 0.50007
#
# Static dielectric constant tensor:
#      x y z
#    x 1.784630 0.000000 -0.011970 
#    y 0.000000 1.774520 0.000000 
#    z -0.011970 0.000000 1.783130 
# 
# From -- ./inp_files/142236.got.cif
#   From: 2010.05.17/outbox.cif.g08.bks.cpg/sg15_72_cif.got.tgz:142236.got - 2010.06.03 18:47:42.
