data_PCOD9307196
_publ_section_title
;
Structure prediction by ZEFSAII (Michael W. Deem and Ramdas Pophale) SiO2 
 PCOD9307196
Probable space group: C 2/C
;
_chemical_formula_sum "Si O2"
_cell_formula_units_Z 40
_cell_length_a 16.651946
_cell_length_b 16.174521
_cell_length_c 7.443855
_cell_angle_alpha 90.000000
_cell_angle_beta 123.943071
_cell_angle_gamma 90.000000
_cell_volume 1663.256727
_symmetry_space_group_name_H-M "C 2/C"
_symmetry_group_IT_number 15
_symmetry_cell_setting 'monoclinic'
loop_
_space_group_symop_operation_xyz
x,y,z
-x,y,1/2-z
-x,-y,-z
x,-y,1/2+z
1/2+x,1/2+y,z
1/2-x,1/2+y,1/2-z
1/2-x,1/2-y,-z
1/2+x,1/2-y,1/2+z
loop_
_atom_site_type_symbol
_atom_site_label
_atom_site_fract_x
_atom_site_fract_y
_atom_site_fract_z
Si Si1 0.262886 0.556931 0.787436
Si Si2 0.041245 0.588663 0.494213
Si Si3 0.894621 0.855699 0.165931
Si Si4 0.233464 0.870382 0.822978
Si Si5 0.571965 0.768510 0.473093
O O1 0.155815 0.592151 0.630659
O O2 0.332239 0.582513 0.711560
O O3 0.244703 0.458123 0.750713
O O4 0.298773 0.598417 0.019244
O O5 0.000000 0.606676 0.250000
O O6 0.000000 0.500000 0.500000
O O7 0.997788 0.655847 0.568578
O O8 0.908285 0.779227 0.317268
O O9 0.000000 0.891016 0.250000
O O10 0.842894 0.832245 0.913343
O O11 0.325126 0.808752 0.957213
O O12 0.500000 0.717623 0.250000
#
# Coordination Sequence:
#
# PCOD9307196 Si02
#       5
#     8   8   8   8   8
#     4  12  25  48  81 116 148 202 263 319 390 459
#     4  12  22  41  78 115 154 190 246 323 399 465
#     4  12  31  51  72 109 159 214 264 312 380 458
#     4  12  25  50  80 113 151 196 260 326 385 459
#     4  12  26  47  77 117 157 198 246 320 406 465
#
# _framework density 24.049204
#
# number of rings (size 3 to 8) (size 9 to 14) (size 15 to 20)
#    0.000    0.000    6.000    4.200    2.800    3.200 
#    0.000    0.000    0.000    0.000    0.000    0.000 
#    0.000    0.000    0.000    0.000    0.000    0.000 
#
# Total GULP energy -111875.069909 kJ/mol
# GULP energy per Si atom -5593.753495 kJ/mol
# Density = 2.399447 g / cm^3
# Si number density = 24.049204 Si / 1000 Ang^3
#
#
#
# Elastic Constant Matrix: (Units=GPa)
#
#
# Indices 1 2 3 4 5 6 
#
# 1 140.9292 14.7671 61.1945 0.0000 4.0336 0.0000
# 2 14.7671 59.8481 15.6994 0.0000 5.4818 0.0000
# 3 61.1945 15.6994 201.3943 0.0000 -14.9032 0.0000
# 4 0.0000 0.0000 0.0000 39.2036 0.0000 12.1097
# 5 4.0336 5.4818 -14.9032 0.0000 49.3361 0.0000
# 6 0.0000 0.0000 0.0000 12.1097 0.0000 121.4550
#
#
#
# Elastic Compliance Matrix: (Units=1/GPa)
#
#
# Indices 1 2 3 4 5 6 
#
# 1 0.008370 -0.001279 -0.002541 0.000000 -0.001310 0.000000
# 2 -0.001279 0.017524 -0.001139 0.000000 -0.002187 0.000000
# 3 -0.002541 -0.001139 0.005985 0.000000 0.002142 0.000000
# 4 0.000000 0.000000 0.000000 0.026318 0.000000 -0.002624
# 5 -0.001310 -0.002187 0.002142 0.000000 0.021266 0.000000
# 6 0.000000 0.000000 0.000000 -0.002624 0.000000 0.008495
#
#
# Mechanical properties :
#
#
# Convention : Reuss Voigt Hill
#
# Bulk Modulus (GPa) = 45.53480 65.05484 55.29482
# Shear Modulus (GPa) = 47.53007 62.69964 55.11485
#
# Velocity S-wave (km/s) = 4.45046 5.11156 4.79242
# Velocity P-wave (km/s) = 6.73676 7.87063 7.32566
#
# Compressibility (1/GPa) = 0.02196123
#
# Stress axis : x y z
#
# Youngs Moduli (GPa) = 119.46792 57.06573 167.09312
#
# Poissons Ratio (x) = 0.07298 0.42452
# Poissons Ratio (y) = 0.15279 0.19036
# Poissons Ratio (z) = 0.30352 0.06501
#
# Static dielectric constant tensor:
#      x y z
#    x 1.906210 0.000000 -0.097760 
#    y 0.000000 1.867970 0.000000 
#    z -0.097760 0.000000 2.384850 
# 
# From -- ./inp_files/48789.got.cif
#   From: 2010.05.17/outbox.cif.g08.bks.cpg/sg15_25_cif.got.tgz:48789.got - 2010.06.03 18:47:42.
