data_PCOD9307526
_publ_section_title
;
Structure prediction by ZEFSAII (Michael W. Deem and Ramdas Pophale) SiO2 
 PCOD9307526
Probable space group: C 2/C
;
_chemical_formula_sum "Si O2"
_cell_formula_units_Z 40
_cell_length_a 11.121063
_cell_length_b 9.135311
_cell_length_c 17.600989
_cell_angle_alpha 90.000000
_cell_angle_beta 98.613481
_cell_angle_gamma 90.000000
_cell_volume 1767.993006
_symmetry_space_group_name_H-M "C 2/C"
_symmetry_group_IT_number 15
_symmetry_cell_setting 'monoclinic'
loop_
_space_group_symop_operation_xyz
x,y,z
-x,y,1/2-z
-x,-y,-z
x,-y,1/2+z
1/2+x,1/2+y,z
1/2-x,1/2+y,1/2-z
1/2-x,1/2-y,-z
1/2+x,1/2-y,1/2+z
loop_
_atom_site_type_symbol
_atom_site_label
_atom_site_fract_x
_atom_site_fract_y
_atom_site_fract_z
Si Si1 0.289075 0.841768 0.078111
Si Si2 0.776828 0.908424 0.163920
Si Si3 0.625065 0.411577 0.496988
Si Si4 0.553284 0.110614 0.564178
Si Si5 0.148138 0.199538 0.264176
O O1 0.434224 0.837799 0.094455
O O2 0.272105 0.771136 0.158984
O O3 0.250000 0.750000 0.000000
O O4 0.227939 0.997332 0.052698
O O5 0.850669 0.900175 0.091439
O O6 0.648116 0.974406 0.124338
O O7 0.723321 0.762515 0.198965
O O8 0.840079 0.024551 0.224856
O O9 0.500000 0.500000 0.500000
O O10 0.613538 0.249503 0.529325
O O11 0.500000 0.000000 0.500000
O O12 0.000000 0.231616 0.250000
#
# Coordination Sequence:
#
# PCOD9307526 Si02
#       5
#     8   8   8   8   8
#     4  12  23  48  78 104 151 199 255 315 377 459
#     4  12  28  49  75 113 154 199 253 321 392 463
#     4  12  26  46  80 114 148 203 263 319 387 466
#     4  12  24  45  76 111 146 193 263 316 376 462
#     4  12  28  51  72 110 157 202 249 320 393 461
#
# _framework density 22.624524999999998
#
# number of rings (size 3 to 8) (size 9 to 14) (size 15 to 20)
#    0.000    0.000    8.000    0.600    2.800    0.000 
#    0.000    0.000    0.000    0.000    0.000    0.000 
#    0.000    0.000    0.000    0.000    0.000    0.000 
#
# Total GULP energy -111506.086881 kJ/mol
# GULP energy per Si atom -5575.304344 kJ/mol
# Density = 2.257303 g / cm^3
# Si number density = 22.624525 Si / 1000 Ang^3
#
#
#
# Elastic Constant Matrix: (Units=GPa)
#
#
# Indices 1 2 3 4 5 6 
#
# 1 122.1460 44.2401 60.1740 0.0000 -15.8298 0.0000
# 2 44.2401 132.4598 46.7647 0.0000 -4.6209 0.0000
# 3 60.1740 46.7647 103.2095 0.0000 2.0160 0.0000
# 4 0.0000 0.0000 0.0000 33.1684 0.0000 14.5750
# 5 -15.8298 -4.6209 2.0160 0.0000 36.6823 0.0000
# 6 0.0000 0.0000 0.0000 14.5750 0.0000 45.2221
#
#
#
# Elastic Compliance Matrix: (Units=1/GPa)
#
#
# Indices 1 2 3 4 5 6 
#
# 1 0.012938 -0.001688 -0.006891 0.000000 0.005749 0.000000
# 2 -0.001688 0.009275 -0.003231 0.000000 0.000618 0.000000
# 3 -0.006891 -0.003231 0.015253 0.000000 -0.004219 0.000000
# 4 0.000000 0.000000 0.000000 0.035123 0.000000 -0.011320
# 5 0.005749 0.000618 -0.004219 0.000000 0.030052 0.000000
# 6 0.000000 0.000000 0.000000 -0.011320 0.000000 0.025762
#
#
# Mechanical properties :
#
#
# Convention : Reuss Voigt Hill
#
# Bulk Modulus (GPa) = 72.21498 73.35254 72.78376
# Shear Modulus (GPa) = 31.92085 36.79033 34.35559
#
# Velocity S-wave (km/s) = 3.76026 4.03690 3.90104
# Velocity P-wave (km/s) = 7.13029 7.36348 7.24782
#
# Compressibility (1/GPa) = 0.01384754
#
# Stress axis : x y z
#
# Youngs Moduli (GPa) = 77.29171 107.81306 65.56170
#
# Poissons Ratio (x) = 0.18197 0.45177
# Poissons Ratio (y) = 0.13045 0.21181
# Poissons Ratio (z) = 0.53260 0.34831
#
# Static dielectric constant tensor:
#      x y z
#    x 1.802160 0.000000 -0.062550 
#    y 0.000000 1.893310 0.000000 
#    z -0.062550 0.000000 1.933320 
# 
# From -- ./inp_files/235887.got.cif
#   From: 2010.05.17/outbox.cif.g08.bks.cpg/sg15_118_cif.got.tgz:235887.got - 2010.06.03 18:47:42.
