data_PCOD9307014
_publ_section_title
;
Structure prediction by ZEFSAII (Michael W. Deem and Ramdas Pophale) SiO2 
 PCOD9307014
Probable space group: C 2/C
;
_chemical_formula_sum "Si O2"
_cell_formula_units_Z 56
_cell_length_a 18.253782
_cell_length_b 17.572237
_cell_length_c 8.398509
_cell_angle_alpha 90.000000
_cell_angle_beta 77.432812
_cell_angle_gamma 90.000000
_cell_volume 2629.362105
_symmetry_space_group_name_H-M "C 2/C"
_symmetry_group_IT_number 15
_symmetry_cell_setting 'monoclinic'
loop_
_space_group_symop_operation_xyz
x,y,z
-x,y,1/2-z
-x,-y,-z
x,-y,1/2+z
1/2+x,1/2+y,z
1/2-x,1/2+y,1/2-z
1/2-x,1/2-y,-z
1/2+x,1/2-y,1/2+z
loop_
_atom_site_type_symbol
_atom_site_label
_atom_site_fract_x
_atom_site_fract_y
_atom_site_fract_z
Si Si1 0.030440 0.730712 0.555226
Si Si2 0.652060 0.985601 0.156389
Si Si3 0.394335 0.703334 0.978490
Si Si4 0.240022 0.110818 0.377860
Si Si5 0.187343 0.341847 0.321285
Si Si6 0.057958 0.435722 0.922118
Si Si7 0.321089 0.749089 0.673524
O O1 0.026561 0.646999 0.476058
O O2 0.119043 0.747625 0.495792
O O3 0.000000 0.729371 0.750000
O O4 0.982121 0.790775 0.474180
O O5 0.642894 0.911112 0.268045
O O6 0.631725 0.954467 0.993612
O O7 0.731979 0.024489 0.152831
O O8 0.589825 0.049283 0.231524
O O9 0.367426 0.723803 0.811945
O O10 0.347809 0.630423 0.063514
O O11 0.363399 0.772148 0.102191
O O12 0.273946 0.131888 0.534123
O O13 0.280485 0.170957 0.239211
O O14 0.254517 0.311046 0.179367
O O15 0.000000 0.500000 0.000000
#
# Coordination Sequence:
#
# PCOD9307014 Si02
#       7
#     8   8   8   8   8   8   8
#     4  12  23  36  50  85 121 150 183 230 293 337
#     4  12  21  37  56  82 115 151 188 232 285 341
#     4   9  19  36  59  76 108 150 198 234 268 337
#     4   9  18  36  57  81 104 147 201 236 269 333
#     4   9  18  36  57  82 107 141 197 245 274 329
#     4  12  25  35  52  81 123 157 180 221 286 350
#     4   9  19  36  59  77 103 153 197 233 277 330
#
# _framework density 21.297941000000002
#
# number of rings (size 3 to 8) (size 9 to 14) (size 15 to 20)
#    0.000    1.714    2.857    5.143    2.000    1.143 
#    2.571    2.143    0.000    0.857    0.000    0.000 
#    0.000    0.000    0.000    0.000    0.000    0.000 
#
# Total GULP energy -156318.365595 kJ/mol
# GULP energy per Si atom -5582.798771 kJ/mol
# Density = 2.124947 g / cm^3
# Si number density = 21.297941 Si / 1000 Ang^3
#
#
#
# Elastic Constant Matrix: (Units=GPa)
#
#
# Indices 1 2 3 4 5 6 
#
# 1 63.9170 7.9891 17.1324 0.0000 -7.6528 0.0000
# 2 7.9891 38.5813 5.9158 0.0000 -5.2480 0.0000
# 3 17.1324 5.9158 84.3252 0.0000 -15.5437 0.0000
# 4 0.0000 0.0000 0.0000 21.1280 0.0000 -9.5222
# 5 -7.6528 -5.2480 -15.5437 0.0000 34.8090 0.0000
# 6 0.0000 0.0000 0.0000 -9.5222 0.0000 30.7353
#
#
#
# Elastic Compliance Matrix: (Units=1/GPa)
#
#
# Indices 1 2 3 4 5 6 
#
# 1 0.017012 -0.002804 -0.002886 0.000000 0.002029 0.000000
# 2 -0.002804 0.027040 -0.000751 0.000000 0.003125 0.000000
# 3 -0.002886 -0.000751 0.013469 0.000000 0.005267 0.000000
# 4 0.000000 0.000000 0.000000 0.055012 0.000000 0.017043
# 5 0.002029 0.003125 0.005267 0.000000 0.031997 0.000000
# 6 0.000000 0.000000 0.000000 0.017043 0.000000 0.037816
#
#
# Mechanical properties :
#
#
# Convention : Reuss Voigt Hill
#
# Bulk Modulus (GPa) = 22.40217 27.65537 25.02877
# Shear Modulus (GPa) = 23.79726 27.72021 25.75873
#
# Velocity S-wave (km/s) = 3.34631 3.61161 3.48148
# Velocity P-wave (km/s) = 5.04694 5.51405 5.28566
#
# Compressibility (1/GPa) = 0.04463853
#
# Stress axis : x y z
#
# Youngs Moduli (GPa) = 58.78135 36.98195 74.24651
#
# Poissons Ratio (x) = 0.10371 0.21425
# Poissons Ratio (y) = 0.16484 0.05578
# Poissons Ratio (z) = 0.16962 0.02778
#
# Static dielectric constant tensor:
#      x y z
#    x 1.845970 0.000000 0.000140 
#    y 0.000000 1.770430 0.000000 
#    z 0.000140 0.000000 1.857120 
# 
# From -- ./inp_files/48996.got.cif
#   From: 2010.05.17/outbox.cif.g08.bks.cpg/sg15_25_cif.got.tgz:48996.got - 2010.06.03 18:47:42.
