data_PCOD9307746
_publ_section_title
;
Structure prediction by ZEFSAII (Michael W. Deem and Ramdas Pophale) SiO2 
 PCOD9307746
Probable space group: C 2/C
;
_chemical_formula_sum "Si O2"
_cell_formula_units_Z 32
_cell_length_a 14.701016
_cell_length_b 5.023380
_cell_length_c 14.152519
_cell_angle_alpha 90.000000
_cell_angle_beta 94.446075
_cell_angle_gamma 90.000000
_cell_volume 1042.001278
_symmetry_space_group_name_H-M "C 2/C"
_symmetry_group_IT_number 15
_symmetry_cell_setting 'monoclinic'
loop_
_space_group_symop_operation_xyz
x,y,z
-x,y,1/2-z
-x,-y,-z
x,-y,1/2+z
1/2+x,1/2+y,z
1/2-x,1/2+y,1/2-z
1/2-x,1/2-y,-z
1/2+x,1/2-y,1/2+z
loop_
_atom_site_type_symbol
_atom_site_label
_atom_site_fract_x
_atom_site_fract_y
_atom_site_fract_z
Si Si1 0.808570 0.789433 0.744721
Si Si2 0.079449 0.400135 0.093388
Si Si3 0.750000 0.250000 0.500000
Si Si4 0.500000 0.709473 0.750000
Si Si5 0.102974 0.847413 0.915396
O O1 0.758797 0.064447 0.720406
O O2 0.842639 0.651912 0.650896
O O3 0.877658 0.830348 0.835759
O O4 0.165005 0.458530 0.032943
O O5 0.051401 0.604396 0.175737
O O6 0.985706 0.278011 0.043207
O O7 0.828818 0.028239 0.522053
O O8 0.562766 0.532249 0.825040
#
# Coordination Sequence:
#
# PCOD9307746 Si02
#       5
#     8   8   4   4   8
#     4  12  24  46  84 116 154 210 283 329 395 495
#     4  12  26  47  77 112 153 212 268 340 403 492
#     4  12  30  46  70 116 170 204 260 338 440 474
#     4  12  24  50  82 110 146 216 286 326 388 506
#     4  12  26  47  77 112 153 212 268 340 403 492
#
# _framework density 30.710135999999999
#
# number of rings (size 3 to 8) (size 9 to 14) (size 15 to 20)
#    0.000    0.000    7.500    2.250    0.000    1.000 
#    0.000    8.750    0.000    0.000    0.000    0.000 
#    0.000    0.000    0.000    0.000    0.000    0.000 
#
# Total GULP energy -89189.927781 kJ/mol
# GULP energy per Si atom -5574.370486 kJ/mol
# Density = 3.064024 g / cm^3
# Si number density = 30.710136 Si / 1000 Ang^3
#
#
#
# Elastic Constant Matrix: (Units=GPa)
#
#
# Indices 1 2 3 4 5 6 
#
# 1 262.4157 28.7826 53.7799 0.0000 -21.7060 0.0000
# 2 28.7826 80.3024 7.1210 0.0000 -20.2462 0.0000
# 3 53.7799 7.1210 116.5435 0.0000 -52.8486 0.0000
# 4 0.0000 0.0000 0.0000 9.1662 0.0000 -36.4690
# 5 -21.7060 -20.2462 -52.8486 0.0000 44.9245 0.0000
# 6 0.0000 0.0000 0.0000 -36.4690 0.0000 31.8253
#
#
#
# Elastic Compliance Matrix: (Units=1/GPa)
#
#
# Indices 1 2 3 4 5 6 
#
# 1 0.004431 -0.001857 -0.002872 0.000000 -0.002074 0.000000
# 2 -0.001857 0.015918 0.005852 0.000000 0.013161 0.000000
# 3 -0.002872 0.005852 0.021680 0.000000 0.026754 0.000000
# 4 0.000000 0.000000 0.000000 -0.030652 0.000000 -0.035125
# 5 -0.002074 0.013161 0.026754 0.000000 0.058662 0.000000
# 6 0.000000 0.000000 0.000000 -0.035125 0.000000 -0.008828
#
#
# Mechanical properties :
#
#
# Convention : Reuss Voigt Hill
#
# Bulk Modulus (GPa) = 22.58525 70.95874 46.77200
# Shear Modulus (GPa) = 67.82146 41.82175 54.82160
#
# Velocity S-wave (km/s) = 4.70450 3.69429 4.22966
# Velocity P-wave (km/s) = 6.07290 6.43064 6.25433
#
# Compressibility (1/GPa) = 0.04427669
#
# Stress axis : x y z
#
# Youngs Moduli (GPa) = 225.66103 62.82325 46.12441
#
# Poissons Ratio (x) = 0.11664 0.13247
# Poissons Ratio (y) = 0.41897 -0.26993
# Poissons Ratio (z) = 0.64812 -0.36766
#
# Static dielectric constant tensor:
#      x y z
#    x 3.014140 0.000000 -0.204240 
#    y 0.000000 2.798340 0.000000 
#    z -0.204240 0.000000 2.602770 
# 
# From -- ./inp_files/201731.got.cif
#   From: 2010.05.17/outbox.cif.g08.bks.cpg/sg15_101_cif.got.tgz:201731.got - 2010.06.03 18:47:42.
