data_PCOD9307197
_publ_section_title
;
Structure prediction by ZEFSAII (Michael W. Deem and Ramdas Pophale) SiO2 
 PCOD9307197
Probable space group: C 2/C
;
_chemical_formula_sum "Si O2"
_cell_formula_units_Z 56
_cell_length_a 9.559101
_cell_length_b 33.308525
_cell_length_c 12.295059
_cell_angle_alpha 90.000000
_cell_angle_beta 50.047365
_cell_angle_gamma 90.000000
_cell_volume 3000.945004
_symmetry_space_group_name_H-M "C 2/C"
_symmetry_group_IT_number 15
_symmetry_cell_setting 'monoclinic'
loop_
_space_group_symop_operation_xyz
x,y,z
-x,y,1/2-z
-x,-y,-z
x,-y,1/2+z
1/2+x,1/2+y,z
1/2-x,1/2+y,1/2-z
1/2-x,1/2-y,-z
1/2+x,1/2-y,1/2+z
loop_
_atom_site_type_symbol
_atom_site_label
_atom_site_fract_x
_atom_site_fract_y
_atom_site_fract_z
Si Si1 0.119680 0.922860 0.587768
Si Si2 0.121638 0.358204 0.943400
Si Si3 0.873238 0.149795 0.114670
Si Si4 0.000000 0.546464 0.250000
Si Si5 0.358398 0.290748 0.923140
Si Si6 0.297891 0.109589 0.498952
Si Si7 0.186855 0.982372 0.362845
Si Si8 0.000000 0.054213 0.750000
O O1 0.279852 0.898391 0.565439
O O2 0.211930 0.948876 0.445281
O O3 0.000000 0.941203 0.750000
O O4 0.987443 0.889750 0.596777
O O5 0.209545 0.346968 0.783105
O O6 0.198256 0.322964 0.979975
O O7 0.909676 0.367432 0.036035
O O8 0.779798 0.141236 0.047757
O O9 0.009687 0.187625 0.054333
O O10 0.932874 0.577078 0.376078
O O11 0.839837 0.516678 0.290751
O O12 0.500000 0.287096 0.750000
O O13 0.250000 0.250000 0.000000
O O14 0.129193 0.082769 0.617031
O O15 0.135341 0.968308 0.266846
O O16 0.000000 0.000000 0.500000
#
# Coordination Sequence:
#
# PCOD9307197 Si02
#       8
#     8   8   8   4   8   8   8   4
#     4   9  19  36  61  84 112 158 211 252 302 373
#     4   9  19  34  67  90 111 162 212 240 286 376
#     4   9  16  37  65  86 117 164 204 244 292 369
#     4  12  26  40  66  82 117 172 218 261 312 380
#     4   9  19  38  62  98 128 157 197 246 300 362
#     4  12  22  42  60  90 118 159 217 255 308 372
#     4  12  26  42  56  87 121 161 206 272 337 365
#     4  12  28  42  58  84 129 154 198 281 332 366
#
# _framework density 18.660788
#
# number of rings (size 3 to 8) (size 9 to 14) (size 15 to 20)
#    0.000    1.714    4.286    1.714    5.000    0.571 
#    2.571    0.714    0.000    0.000    0.000    0.000 
#    0.000    0.000    0.000    0.000    0.000    0.000 
#
# Total GULP energy -155951.572710 kJ/mol
# GULP energy per Si atom -5569.699025 kJ/mol
# Density = 1.861832 g / cm^3
# Si number density = 18.660788 Si / 1000 Ang^3
#
#
#
# Elastic Constant Matrix: (Units=GPa)
#
#
# Indices 1 2 3 4 5 6 
#
# 1 119.7005 44.8533 6.2428 0.0000 2.0275 0.0000
# 2 44.8533 90.7307 19.8275 0.0000 0.0373 0.0000
# 3 6.2428 19.8275 22.2910 0.0000 2.2490 0.0000
# 4 0.0000 0.0000 0.0000 30.5938 0.0000 -18.5469
# 5 2.0275 0.0373 2.2490 0.0000 28.5225 0.0000
# 6 0.0000 0.0000 0.0000 -18.5469 0.0000 29.9993
#
#
#
# Elastic Compliance Matrix: (Units=1/GPa)
#
#
# Indices 1 2 3 4 5 6 
#
# 1 0.010351 -0.005590 0.002164 0.000000 -0.000899 0.000000
# 2 -0.005590 0.016725 -0.013456 0.000000 0.001436 0.000000
# 3 0.002164 -0.013456 0.056689 0.000000 -0.004606 0.000000
# 4 0.000000 0.000000 0.000000 0.052281 0.000000 0.032323
# 5 -0.000899 0.001436 -0.004606 0.000000 0.035485 0.000000
# 6 0.000000 0.000000 0.000000 0.032323 0.000000 0.053317
#
#
# Mechanical properties :
#
#
# Convention : Reuss Voigt Hill
#
# Bulk Modulus (GPa) = 19.99968 41.61882 30.80925
# Shear Modulus (GPa) = 18.16338 28.60971 23.38655
#
# Velocity S-wave (km/s) = 3.12323 3.91979 3.54396
# Velocity P-wave (km/s) = 4.87308 6.54504 5.76994
#
# Compressibility (1/GPa) = 0.05000080
#
# Stress axis : x y z
#
# Youngs Moduli (GPa) = 96.60862 59.79151 17.64019
#
# Poissons Ratio (x) = 0.33421 -0.03817
# Poissons Ratio (y) = 0.54000 0.23737
# Poissons Ratio (z) = -0.20902 0.80455
#
# Static dielectric constant tensor:
#      x y z
#    x 1.639910 0.000000 0.003800 
#    y 0.000000 1.659750 0.000000 
#    z 0.003800 0.000000 1.629370 
# 
# From -- ./inp_files/82527.got.cif
#   From: 2010.05.17/outbox.cif.g08.bks.cpg/sg15_42_cif.got.tgz:82527.got - 2010.06.03 18:47:42.
