data_PCOD9307416
_publ_section_title
;
Structure prediction by ZEFSAII (Michael W. Deem and Ramdas Pophale) SiO2 
 PCOD9307416
Probable space group: C 2/C
;
_chemical_formula_sum "Si O2"
_cell_formula_units_Z 32
_cell_length_a 18.652762
_cell_length_b 7.358662
_cell_length_c 17.165417
_cell_angle_alpha 90.000000
_cell_angle_beta 30.083145
_cell_angle_gamma 90.000000
_cell_volume 1181.016942
_symmetry_space_group_name_H-M "C 2/C"
_symmetry_group_IT_number 15
_symmetry_cell_setting 'monoclinic'
loop_
_space_group_symop_operation_xyz
x,y,z
-x,y,1/2-z
-x,-y,-z
x,-y,1/2+z
1/2+x,1/2+y,z
1/2-x,1/2+y,1/2-z
1/2-x,1/2-y,-z
1/2+x,1/2-y,1/2+z
loop_
_atom_site_type_symbol
_atom_site_label
_atom_site_fract_x
_atom_site_fract_y
_atom_site_fract_z
Si Si1 0.789283 0.595554 0.400575
Si Si2 0.194019 0.795453 0.656132
Si Si3 0.024283 0.138007 0.857050
Si Si4 0.027632 0.691066 0.512557
O O1 0.750000 0.750000 0.500000
O O2 0.815604 0.381232 0.391224
O O3 0.929169 0.674752 0.227435
O O4 0.644305 0.599228 0.485212
O O5 0.356097 0.826368 0.528854
O O6 0.105867 0.982921 0.729240
O O7 0.119141 0.739771 0.807824
O O8 0.069461 0.168920 0.904261
O O9 0.000000 0.500000 0.500000
#
# Coordination Sequence:
#
# PCOD9307416 Si02
#       4
#     8   8   8   8
#     4  12  28  50  72 105 152 212 263 310 367 462
#     4  12  25  45  74 114 153 197 249 317 397 464
#     4  12  26  47  76 112 154 196 255 320 398 463
#     4  12  23  43  75 118 157 189 244 325 407 469
#
# _framework density 27.095293000000002
#
# number of rings (size 3 to 8) (size 9 to 14) (size 15 to 20)
#    0.000    0.000    5.000    6.000    0.000    1.000 
#    0.000    2.500    0.000    0.000    0.000    0.000 
#    0.000    0.000    0.000    0.000    0.000    0.000 
#
# Total GULP energy -89537.489905 kJ/mol
# GULP energy per Si atom -5596.093119 kJ/mol
# Density = 2.703362 g / cm^3
# Si number density = 27.095293 Si / 1000 Ang^3
#
#
#
# Elastic Constant Matrix: (Units=GPa)
#
#
# Indices 1 2 3 4 5 6 
#
# 1 107.2235 34.7230 14.1474 0.0000 -7.0003 -0.0001
# 2 34.7230 224.6172 32.9003 -0.0009 12.4586 0.0004
# 3 14.1474 32.9003 81.9381 -0.0001 -14.4761 0.0001
# 4 0.0000 -0.0009 -0.0001 68.6737 0.0001 19.1238
# 5 -7.0003 12.4586 -14.4761 0.0001 41.7639 0.0000
# 6 -0.0001 0.0004 0.0001 19.1238 0.0000 50.0988
#
#
#
# Elastic Compliance Matrix: (Units=1/GPa)
#
#
# Indices 1 2 3 4 5 6 
#
# 1 0.010052 -0.001543 -0.000785 0.000000 0.001873 0.000000
# 2 -0.001543 0.005166 -0.002264 0.000000 -0.002584 0.000000
# 3 -0.000785 -0.002264 0.014216 0.000000 0.005471 0.000000
# 4 0.000000 0.000000 0.000000 0.016294 0.000000 -0.006220
# 5 0.001873 -0.002584 0.005471 0.000000 0.026925 0.000000
# 6 0.000000 0.000000 0.000000 -0.006220 0.000000 0.022335
#
#
# Mechanical properties :
#
#
# Convention : Reuss Voigt Hill
#
# Bulk Modulus (GPa) = 49.38637 64.14668 56.76652
# Shear Modulus (GPa) = 45.07725 54.24117 49.65921
#
# Velocity S-wave (km/s) = 4.08322 4.47908 4.28572
# Velocity P-wave (km/s) = 6.36370 7.10460 6.74433
#
# Compressibility (1/GPa) = 0.02024850
#
# Stress axis : x y z
#
# Youngs Moduli (GPa) = 99.48474 193.59172 70.34481
#
# Poissons Ratio (x) = 0.29866 0.05523
# Poissons Ratio (y) = 0.15348 0.15928
# Poissons Ratio (z) = 0.07812 0.43835
#
# Static dielectric constant tensor:
#      x y z
#    x 2.082170 0.000000 0.083040 
#    y 0.000000 2.877260 0.000010 
#    z 0.083040 0.000010 1.973090 
# 
# From -- ./inp_files/109183.got.cif
#   From: 2010.05.17/outbox.cif.g08.bks.cpg/sg15_55_cif.got.tgz:109183.got - 2010.06.03 18:47:42.
