data_PCOD9307496
_publ_section_title
;
Structure prediction by ZEFSAII (Michael W. Deem and Ramdas Pophale) SiO2 
 PCOD9307496
Probable space group: C 2/C
;
_chemical_formula_sum "Si O2"
_cell_formula_units_Z 44
_cell_length_a 17.505898
_cell_length_b 6.788457
_cell_length_c 16.589558
_cell_angle_alpha 90.000000
_cell_angle_beta 105.449832
_cell_angle_gamma 90.000000
_cell_volume 1900.229582
_symmetry_space_group_name_H-M "C 2/C"
_symmetry_group_IT_number 15
_symmetry_cell_setting 'monoclinic'
loop_
_space_group_symop_operation_xyz
x,y,z
-x,y,1/2-z
-x,-y,-z
x,-y,1/2+z
1/2+x,1/2+y,z
1/2-x,1/2+y,1/2-z
1/2-x,1/2-y,-z
1/2+x,1/2-y,1/2+z
loop_
_atom_site_type_symbol
_atom_site_label
_atom_site_fract_x
_atom_site_fract_y
_atom_site_fract_z
Si Si1 0.500000 0.516055 0.250000
Si Si2 0.908907 0.542806 0.458320
Si Si3 0.634737 0.225282 0.222980
Si Si4 0.221425 0.618143 0.821151
Si Si5 0.885799 0.836595 0.595225
Si Si6 0.819281 0.157920 0.466425
O O1 0.573215 0.375904 0.245008
O O2 0.532693 0.647926 0.332413
O O3 0.895525 0.669373 0.374501
O O4 0.879935 0.660987 0.529049
O O5 0.864371 0.336122 0.437189
O O6 0.000000 0.500000 0.500000
O O7 0.723353 0.312964 0.236659
O O8 0.649178 0.023817 0.275869
O O9 0.184892 0.798676 0.861111
O O10 0.279599 0.493348 0.894093
O O11 0.875481 0.036696 0.542408
O O12 0.750000 0.250000 0.500000
#
# Coordination Sequence:
#
# PCOD9307496 Si02
#       6
#     4   8   8   8   8   8
#     4  12  30  46  74 106 154 194 244 302 362 440
#     4  12  28  45  77 107 148 192 241 301 367 435
#     4  12  27  48  73 111 145 194 245 301 368 429
#     4  12  25  47  76 106 147 190 246 303 359 438
#     4  12  27  49  74 109 147 193 245 300 365 430
#     4  12  23  46  75 109 139 187 241 299 361 431
#
# _framework density 23.155094999999999
#
# number of rings (size 3 to 8) (size 9 to 14) (size 15 to 20)
#    0.000    0.000    3.636    6.000    7.636    1.455 
#    0.000    0.000    0.000    0.000    0.000    0.000 
#    0.000    0.000    0.000    0.000    0.000    0.000 
#
# Total GULP energy -123314.265322 kJ/mol
# GULP energy per Si atom -5605.193878 kJ/mol
# Density = 2.310239 g / cm^3
# Si number density = 23.155095 Si / 1000 Ang^3
#
#
#
# Elastic Constant Matrix: (Units=GPa)
#
#
# Indices 1 2 3 4 5 6 
#
# 1 66.9097 8.8762 -1.3694 0.0000 -3.9335 0.0000
# 2 8.8762 72.2106 22.2412 0.0000 -0.7518 0.0000
# 3 -1.3694 22.2412 109.5212 0.0000 21.7058 0.0000
# 4 0.0000 0.0000 0.0000 40.3650 0.0000 14.5775
# 5 -3.9335 -0.7518 21.7058 0.0000 39.7738 0.0000
# 6 0.0000 0.0000 0.0000 14.5775 0.0000 40.6302
#
#
#
# Elastic Compliance Matrix: (Units=1/GPa)
#
#
# Indices 1 2 3 4 5 6 
#
# 1 0.015290 -0.001969 0.000335 0.000000 0.001292 0.000000
# 2 -0.001969 0.015192 -0.003507 0.000000 0.002007 0.000000
# 3 0.000335 -0.003507 0.011049 0.000000 -0.006063 0.000000
# 4 0.000000 0.000000 0.000000 0.028462 0.000000 -0.010212
# 5 0.001292 0.002007 -0.006063 0.000000 0.028617 0.000000
# 6 0.000000 0.000000 0.000000 -0.010212 0.000000 0.028276
#
#
# Mechanical properties :
#
#
# Convention : Reuss Voigt Hill
#
# Bulk Modulus (GPa) = 32.00323 34.23751 33.12037
# Shear Modulus (GPa) = 33.87928 38.74670 36.31299
#
# Velocity S-wave (km/s) = 3.82926 4.09510 3.96441
# Velocity P-wave (km/s) = 5.77946 6.09738 5.94055
#
# Compressibility (1/GPa) = 0.03124685
#
# Stress axis : x y z
#
# Youngs Moduli (GPa) = 65.40413 65.82582 90.50858
#
# Poissons Ratio (x) = 0.12962 -0.03032
# Poissons Ratio (y) = 0.12879 0.31745
# Poissons Ratio (z) = -0.02191 0.23087
#
# Static dielectric constant tensor:
#      x y z
#    x 1.839970 0.000000 0.000530 
#    y 0.000000 2.034690 0.000000 
#    z 0.000530 0.000000 1.745440 
# 
# From -- ./inp_files/212949.got.cif
#   From: 2010.05.17/outbox.cif.g08.bks.cpg/sg15_107_cif.got.tgz:212949.got - 2010.06.03 18:47:42.
