data_PCOD9307638
_publ_section_title
;
Structure prediction by ZEFSAII (Michael W. Deem and Ramdas Pophale) SiO2 
 PCOD9307638
Probable space group: C 2/C
;
_chemical_formula_sum "Si O2"
_cell_formula_units_Z 32
_cell_length_a 9.196633
_cell_length_b 14.089630
_cell_length_c 11.021573
_cell_angle_alpha 90.000000
_cell_angle_beta 123.600762
_cell_angle_gamma 90.000000
_cell_volume 1189.521033
_symmetry_space_group_name_H-M "C 2/C"
_symmetry_group_IT_number 15
_symmetry_cell_setting 'monoclinic'
loop_
_space_group_symop_operation_xyz
x,y,z
-x,y,1/2-z
-x,-y,-z
x,-y,1/2+z
1/2+x,1/2+y,z
1/2-x,1/2+y,1/2-z
1/2-x,1/2-y,-z
1/2+x,1/2-y,1/2+z
loop_
_atom_site_type_symbol
_atom_site_label
_atom_site_fract_x
_atom_site_fract_y
_atom_site_fract_z
Si Si1 0.737459 0.144413 0.041312
Si Si2 0.274241 0.470192 0.955397
Si Si3 0.300693 0.796179 0.704441
Si Si4 0.347912 0.913011 0.337245
O O1 0.546232 0.115298 0.906410
O O2 0.872393 0.065094 0.052068
O O3 0.750000 0.250000 0.000000
O O4 0.730822 0.156168 0.180849
O O5 0.314955 0.360198 0.941566
O O6 0.209893 0.515509 0.796839
O O7 0.169121 0.452885 0.033873
O O8 0.500000 0.808257 0.750000
O O9 0.258095 0.685891 0.704165
#
# Coordination Sequence:
#
# PCOD9307638 Si02
#       4
#     8   8   8   8
#     4  12  25  43  70 103 138 179 232 291 347 408
#     4  12  24  44  72 101 136 184 236 281 340 422
#     4  12  25  45  70 103 141 184 234 286 349 414
#     4  12  26  45  72 105 139 181 238 291 342 417
#
# _framework density 26.901582000000001
#
# number of rings (size 3 to 8) (size 9 to 14) (size 15 to 20)
#    0.000    0.000    7.500    3.750    0.000    0.000 
#    0.000    5.000    0.000    0.000    0.000    0.000 
#    0.000    0.000    0.000    0.000    0.000    0.000 
#
# Total GULP energy -89206.130044 kJ/mol
# GULP energy per Si atom -5575.383128 kJ/mol
# Density = 2.684035 g / cm^3
# Si number density = 26.901582 Si / 1000 Ang^3
#
#
#
# Elastic Constant Matrix: (Units=GPa)
#
#
# Indices 1 2 3 4 5 6 
#
# 1 70.4514 21.4071 36.9259 0.0000 -8.2194 0.0000
# 2 21.4071 196.0602 52.9957 0.0000 -17.7597 0.0000
# 3 36.9259 52.9957 145.1394 0.0000 -48.2155 0.0000
# 4 0.0000 0.0000 0.0000 60.0702 0.0000 -13.9055
# 5 -8.2194 -17.7597 -48.2155 0.0000 35.7451 0.0000
# 6 0.0000 0.0000 0.0000 -13.9055 0.0000 39.9741
#
#
#
# Elastic Compliance Matrix: (Units=1/GPa)
#
#
# Indices 1 2 3 4 5 6 
#
# 1 0.016703 -0.000752 -0.005115 0.000000 -0.003433 0.000000
# 2 -0.000752 0.005693 -0.001821 0.000000 0.000199 0.000000
# 3 -0.005115 -0.001821 0.014794 0.000000 0.017874 0.000000
# 4 0.000000 0.000000 0.000000 0.018105 0.000000 0.006298
# 5 -0.003433 0.000199 0.017874 0.000000 0.051396 0.000000
# 6 0.000000 0.000000 0.000000 0.006298 0.000000 0.027207
#
#
# Mechanical properties :
#
#
# Convention : Reuss Voigt Hill
#
# Bulk Modulus (GPa) = 45.84401 70.47871 58.16136
# Shear Modulus (GPa) = 31.93933 47.17939 39.55936
#
# Velocity S-wave (km/s) = 3.44941 4.19236 3.83890
# Velocity P-wave (km/s) = 5.73960 7.04912 6.42779
#
# Compressibility (1/GPa) = 0.02181310
#
# Stress axis : x y z
#
# Youngs Moduli (GPa) = 59.86827 175.65742 67.59351
#
# Poissons Ratio (x) = 0.13210 0.34577
# Poissons Ratio (y) = 0.04502 0.12311
# Poissons Ratio (z) = 0.30625 0.31992
#
# Static dielectric constant tensor:
#      x y z
#    x 2.377380 0.000000 0.031380 
#    y 0.000000 2.348100 0.000000 
#    z 0.031380 0.000000 2.091570 
# 
# From -- ./inp_files/84169.got.cif
#   From: 2010.05.17/outbox.cif.g08.bks.cpg/sg15_43_cif.got.tgz:84169.got - 2010.06.03 18:47:42.
