data_PCOD9307101
_publ_section_title
;
Structure prediction by ZEFSAII (Michael W. Deem and Ramdas Pophale) SiO2 
 PCOD9307101
Probable space group: C 2/C
;
_chemical_formula_sum "Si O2"
_cell_formula_units_Z 44
_cell_length_a 20.055670
_cell_length_b 9.313552
_cell_length_c 14.460235
_cell_angle_alpha 90.000000
_cell_angle_beta 129.667557
_cell_angle_gamma 90.000000
_cell_volume 2079.140530
_symmetry_space_group_name_H-M "C 2/C"
_symmetry_group_IT_number 15
_symmetry_cell_setting 'monoclinic'
loop_
_space_group_symop_operation_xyz
x,y,z
-x,y,1/2-z
-x,-y,-z
x,-y,1/2+z
1/2+x,1/2+y,z
1/2-x,1/2+y,1/2-z
1/2-x,1/2-y,-z
1/2+x,1/2-y,1/2+z
loop_
_atom_site_type_symbol
_atom_site_label
_atom_site_fract_x
_atom_site_fract_y
_atom_site_fract_z
Si Si1 0.983709 0.638468 0.548777
Si Si2 0.679670 0.826342 0.270484
Si Si3 0.452042 0.612600 0.890726
Si Si4 0.500000 0.239407 0.250000
Si Si5 0.138638 0.496831 0.910357
Si Si6 0.234755 0.003032 0.317187
O O1 0.077968 0.698990 0.658579
O O2 0.000000 0.500000 0.500000
O O3 0.934938 0.752330 0.442109
O O4 0.929653 0.589573 0.589574
O O5 0.729698 0.675811 0.312907
O O6 0.680621 0.904858 0.369485
O O7 0.717358 0.936006 0.228622
O O8 0.505232 0.668059 0.848498
O O9 0.363327 0.550503 0.772988
O O10 0.500000 0.500000 0.000000
O O11 0.416296 0.134805 0.180290
O O12 0.212369 0.449582 0.047092
#
# Coordination Sequence:
#
# PCOD9307101 Si02
#       6
#     8   8   8   4   8   8
#     4  12  21  48  75 100 140 197 240 288 362 435
#     4  12  25  46  72 106 146 193 237 302 365 425
#     4  12  27  47  72 107 150 185 242 306 361 427
#     4  12  26  46  78 108 138 204 240 294 370 440
#     4  12  25  46  78 103 142 194 249 291 358 445
#     4  12  28  45  72 109 147 185 242 305 360 427
#
# _framework density 21.162592
#
# number of rings (size 3 to 8) (size 9 to 14) (size 15 to 20)
#    0.000    0.000    7.273    1.636    2.545    3.636 
#    0.000    0.000    0.000    0.000    0.000    0.000 
#    0.000    0.000    0.000    0.000    0.000    0.000 
#
# Total GULP energy -123157.133459 kJ/mol
# GULP energy per Si atom -5598.051521 kJ/mol
# Density = 2.111442 g / cm^3
# Si number density = 21.162592 Si / 1000 Ang^3
#
#
#
# Elastic Constant Matrix: (Units=GPa)
#
#
# Indices 1 2 3 4 5 6 
#
# 1 43.3560 31.2487 14.5906 0.0000 -9.6197 0.0000
# 2 31.2487 114.7999 39.6293 0.0000 -14.7292 0.0000
# 3 14.5906 39.6293 95.7962 0.0000 0.6411 0.0000
# 4 0.0000 0.0000 0.0000 44.6350 0.0000 -1.8891
# 5 -9.6197 -14.7292 0.6411 0.0000 50.1133 0.0000
# 6 0.0000 0.0000 0.0000 -1.8891 0.0000 32.3288
#
#
#
# Elastic Compliance Matrix: (Units=1/GPa)
#
#
# Indices 1 2 3 4 5 6 
#
# 1 0.029453 -0.006995 -0.001617 0.000000 0.003619 0.000000
# 2 -0.006995 0.012309 -0.004042 0.000000 0.002327 0.000000
# 3 -0.001617 -0.004042 0.012368 0.000000 -0.001657 0.000000
# 4 0.000000 0.000000 0.000000 0.022460 0.000000 0.001312
# 5 0.003619 0.002327 -0.001657 0.000000 0.021354 0.000000
# 6 0.000000 0.000000 0.000000 0.001312 0.000000 0.031009
#
#
# Mechanical properties :
#
#
# Convention : Reuss Voigt Hill
#
# Bulk Modulus (GPa) = 34.69429 47.20995 40.95212
# Shear Modulus (GPa) = 30.51236 36.64764 33.58000
#
# Velocity S-wave (km/s) = 3.80123 4.16591 3.98774
# Velocity P-wave (km/s) = 5.97458 6.74510 6.37150
#
# Compressibility (1/GPa) = 0.02882319
#
# Stress axis : x y z
#
# Youngs Moduli (GPa) = 33.95202 81.24330 80.85206
#
# Poissons Ratio (x) = 0.56829 0.13070
# Poissons Ratio (y) = 0.23749 0.32681
# Poissons Ratio (z) = 0.05488 0.32839
#
# Static dielectric constant tensor:
#      x y z
#    x 1.743710 0.000000 0.007300 
#    y 0.000000 1.688110 0.000000 
#    z 0.007300 0.000000 1.998580 
# 
# From -- ./inp_files/159802.got.cif
#   From: 2010.05.17/outbox.cif.g08.bks.cpg/sg15_80_cif.got.tgz:159802.got - 2010.06.03 18:47:42.
