data_PCOD9307755
_publ_section_title
;
Structure prediction by ZEFSAII (Michael W. Deem and Ramdas Pophale) SiO2 
 PCOD9307755
Probable space group: C 2/C
;
_chemical_formula_sum "Si O2"
_cell_formula_units_Z 40
_cell_length_a 16.037793
_cell_length_b 14.813208
_cell_length_c 8.577192
_cell_angle_alpha 90.000000
_cell_angle_beta 63.460498
_cell_angle_gamma 90.000000
_cell_volume 1822.974635
_symmetry_space_group_name_H-M "C 2/C"
_symmetry_group_IT_number 15
_symmetry_cell_setting 'monoclinic'
loop_
_space_group_symop_operation_xyz
x,y,z
-x,y,1/2-z
-x,-y,-z
x,-y,1/2+z
1/2+x,1/2+y,z
1/2-x,1/2+y,1/2-z
1/2-x,1/2-y,-z
1/2+x,1/2-y,1/2+z
loop_
_atom_site_type_symbol
_atom_site_label
_atom_site_fract_x
_atom_site_fract_y
_atom_site_fract_z
Si Si1 0.217035 0.728947 0.851718
Si Si2 0.268443 0.049267 0.837686
Si Si3 0.500908 0.242495 0.063077
Si Si4 0.944317 0.076319 0.454885
Si Si5 0.842041 0.377752 0.594425
O O1 0.230942 0.624345 0.798675
O O2 0.275012 0.792798 0.687530
O O3 0.250000 0.750000 0.000000
O O4 0.107856 0.748950 0.923858
O O5 0.309653 0.956725 0.738145
O O6 0.161067 0.042986 0.982755
O O7 0.327096 0.087520 0.932843
O O8 0.500000 0.236214 0.250000
O O9 0.445936 0.157263 0.039889
O O10 0.447935 0.332208 0.051539
O O11 0.000000 0.094002 0.250000
O O12 0.000000 0.000000 0.500000
#
# Coordination Sequence:
#
# PCOD9307755 Si02
#       5
#     8   8   8   8   8
#     4  12  24  47  74 103 148 189 239 303 362 431
#     4  12  26  47  73 107 149 196 239 298 371 436
#     4  12  26  46  73 107 146 192 244 301 367 432
#     4  12  25  45  77 110 144 186 249 304 363 429
#     4  12  27  48  73 107 150 190 249 301 365 442
#
# _framework density 21.942157000000002
#
# number of rings (size 3 to 8) (size 9 to 14) (size 15 to 20)
#    0.000    0.000    4.000    6.000    2.800    0.800 
#    0.000    0.000    0.000    0.000    0.000    0.000 
#    0.000    0.000    0.000    0.000    0.000    0.000 
#
# Total GULP energy -112107.509709 kJ/mol
# GULP energy per Si atom -5605.375485 kJ/mol
# Density = 2.189222 g / cm^3
# Si number density = 21.942157 Si / 1000 Ang^3
#
#
#
# Elastic Constant Matrix: (Units=GPa)
#
#
# Indices 1 2 3 4 5 6 
#
# 1 137.3089 50.0414 46.7307 0.0000 9.6707 0.0000
# 2 50.0414 117.8258 9.4810 0.0000 6.3900 0.0000
# 3 46.7307 9.4810 47.0192 0.0000 18.1302 0.0000
# 4 0.0000 0.0000 0.0000 40.0641 0.0000 3.0647
# 5 9.6707 6.3900 18.1302 0.0000 35.5817 0.0000
# 6 0.0000 0.0000 0.0000 3.0647 0.0000 44.7763
#
#
#
# Elastic Compliance Matrix: (Units=1/GPa)
#
#
# Indices 1 2 3 4 5 6 
#
# 1 0.013588 -0.004866 -0.014233 0.000000 0.004433 0.000000
# 2 -0.004866 0.010389 0.003672 0.000000 -0.002414 0.000000
# 3 -0.014233 0.003672 0.041611 0.000000 -0.017993 0.000000
# 4 0.000000 0.000000 0.000000 0.025091 0.000000 -0.001717
# 5 0.004433 -0.002414 -0.017993 0.000000 0.036501 0.000000
# 6 0.000000 0.000000 0.000000 -0.001717 0.000000 0.022451
#
#
# Mechanical properties :
#
#
# Convention : Reuss Voigt Hill
#
# Bulk Modulus (GPa) = 28.78934 57.18446 42.98690
# Shear Modulus (GPa) = 26.03323 37.14447 31.58885
#
# Velocity S-wave (km/s) = 3.44822 4.11887 3.79838
# Velocity P-wave (km/s) = 5.38541 6.98127 6.23462
#
# Compressibility (1/GPa) = 0.03473507
#
# Stress axis : x y z
#
# Youngs Moduli (GPa) = 73.59537 96.25404 24.03229
#
# Poissons Ratio (x) = 0.46837 0.34204
# Poissons Ratio (y) = 0.35811 -0.08825
# Poissons Ratio (z) = 1.04745 -0.35346
#
# Static dielectric constant tensor:
#      x y z
#    x 1.803050 0.000000 -0.027040 
#    y 0.000000 1.766960 0.000000 
#    z -0.027040 0.000000 1.814120 
# 
# From -- ./inp_files/37792.got.cif
#   From: 2010.05.17/outbox.cif.g08.bks.cpg/sg15_19_cif.got.tgz:37792.got - 2010.06.03 18:47:42.
