data_PCOD9307617
_publ_section_title
;
Structure prediction by ZEFSAII (Michael W. Deem and Ramdas Pophale) SiO2 
 PCOD9307617
Probable space group: C 2/C
;
_chemical_formula_sum "Si O2"
_cell_formula_units_Z 32
_cell_length_a 23.557555
_cell_length_b 8.141948
_cell_length_c 18.037420
_cell_angle_alpha 90.000000
_cell_angle_beta 21.591458
_cell_angle_gamma 90.000000
_cell_volume 1273.104848
_symmetry_space_group_name_H-M "C 2/C"
_symmetry_group_IT_number 15
_symmetry_cell_setting 'monoclinic'
loop_
_space_group_symop_operation_xyz
x,y,z
-x,y,1/2-z
-x,-y,-z
x,-y,1/2+z
1/2+x,1/2+y,z
1/2-x,1/2+y,1/2-z
1/2-x,1/2-y,-z
1/2+x,1/2-y,1/2+z
loop_
_atom_site_type_symbol
_atom_site_label
_atom_site_fract_x
_atom_site_fract_y
_atom_site_fract_z
Si Si1 0.657078 0.449241 0.265954
Si Si2 0.665846 0.571096 0.091298
Si Si3 0.366849 0.945908 0.220764
Si Si4 0.354475 0.230095 0.098721
O O1 0.648941 0.469616 0.188213
O O2 0.785664 0.571816 0.141719
O O3 0.688237 0.267632 0.263330
O O4 0.535623 0.786772 0.369404
O O5 0.500000 0.587391 0.250000
O O6 0.750000 0.750000 0.000000
O O7 0.790667 0.478246 0.885985
O O8 0.222859 0.880987 0.349219
O O9 0.500000 0.000000 0.000000
O O10 0.500000 0.500000 0.000000
#
# Coordination Sequence:
#
# PCOD9307617 Si02
#       4
#     8   8   8   8
#     4  12  25  44  74 107 147 186 245 298 364 430
#     4  12  26  43  75 109 143 190 248 298 351 438
#     4  12  25  44  72 106 145 185 242 293 368 424
#     4  12  24  43  75 103 142 190 236 297 366 418
#
# _framework density 25.135401000000002
#
# number of rings (size 3 to 8) (size 9 to 14) (size 15 to 20)
#    0.000    0.000    7.500    3.000    0.000    0.000 
#    0.000    1.250    5.500    0.000    0.000    0.000 
#    0.000    0.000    0.000    0.000    0.000    0.000 
#
# Total GULP energy -89187.383433 kJ/mol
# GULP energy per Si atom -5574.211465 kJ/mol
# Density = 2.507819 g / cm^3
# Si number density = 25.135401 Si / 1000 Ang^3
#
#
#
# Elastic Constant Matrix: (Units=GPa)
#
#
# Indices 1 2 3 4 5 6 
#
# 1 214.0280 30.3659 103.6578 0.0000 24.4077 0.0000
# 2 30.3659 27.4206 26.6617 0.0001 20.9106 0.0000
# 3 103.6578 26.6617 169.0475 0.0001 46.1736 0.0000
# 4 0.0000 0.0001 0.0001 28.7993 0.0000 1.4773
# 5 24.4077 20.9106 46.1736 0.0000 57.6603 0.0000
# 6 0.0000 0.0000 0.0000 1.4773 0.0000 41.8374
#
#
#
# Elastic Compliance Matrix: (Units=1/GPa)
#
#
# Indices 1 2 3 4 5 6 
#
# 1 0.007245 -0.005767 -0.004181 0.000000 0.002373 0.000000
# 2 -0.005767 0.056967 -0.000604 0.000000 -0.017734 0.000000
# 3 -0.004181 -0.000604 0.010280 0.000000 -0.006243 0.000000
# 4 0.000000 0.000000 0.000000 0.034786 0.000000 -0.001228
# 5 0.002373 -0.017734 -0.006243 0.000000 0.027769 0.000000
# 6 0.000000 0.000000 0.000000 -0.001228 0.000000 0.023945
#
#
# Mechanical properties :
#
#
# Convention : Reuss Voigt Hill
#
# Bulk Modulus (GPa) = 18.73141 81.31852 50.02497
# Shear Modulus (GPa) = 25.01340 42.31344 33.66342
#
# Velocity S-wave (km/s) = 3.15802 4.10740 3.66359
# Velocity P-wave (km/s) = 4.55695 7.41058 6.15153
#
# Compressibility (1/GPa) = 0.05338626
#
# Stress axis : x y z
#
# Youngs Moduli (GPa) = 138.02878 17.55402 97.27891
#
# Poissons Ratio (x) = 0.10124 0.40672
# Poissons Ratio (y) = 0.79605 0.05880
# Poissons Ratio (z) = 0.57710 0.01061
#
# Static dielectric constant tensor:
#      x y z
#    x 2.187920 0.000000 0.050180 
#    y 0.000000 2.295750 0.000000 
#    z 0.050180 0.000000 1.970310 
# 
# From -- ./inp_files/65750.got.cif
#   From: 2010.05.17/outbox.cif.g08.bks.cpg/sg15_33_cif.got.tgz:65750.got - 2010.06.03 18:47:42.
