data_PCOD9307164
_publ_section_title
;
Structure prediction by ZEFSAII (Michael W. Deem and Ramdas Pophale) SiO2 
 PCOD9307164
Probable space group: C 2/C
;
_chemical_formula_sum "Si O2"
_cell_formula_units_Z 48
_cell_length_a 5.985541
_cell_length_b 14.457762
_cell_length_c 27.709609
_cell_angle_alpha 90.000000
_cell_angle_beta 55.302005
_cell_angle_gamma 90.000000
_cell_volume 1971.484265
_symmetry_space_group_name_H-M "C 2/C"
_symmetry_group_IT_number 15
_symmetry_cell_setting 'monoclinic'
loop_
_space_group_symop_operation_xyz
x,y,z
-x,y,1/2-z
-x,-y,-z
x,-y,1/2+z
1/2+x,1/2+y,z
1/2-x,1/2+y,1/2-z
1/2-x,1/2-y,-z
1/2+x,1/2-y,1/2+z
loop_
_atom_site_type_symbol
_atom_site_label
_atom_site_fract_x
_atom_site_fract_y
_atom_site_fract_z
Si Si1 0.319342 0.867388 0.222183
Si Si2 0.592343 0.476502 0.935190
Si Si3 0.869778 0.116104 0.895691
Si Si4 0.257635 0.231808 0.139569
Si Si5 0.694419 0.034948 0.339110
Si Si6 0.357876 0.171782 0.022150
O O1 0.500000 0.858622 0.250000
O O2 0.493880 0.797018 0.167551
O O3 0.328894 0.976877 0.207151
O O4 0.000000 0.844411 0.250000
O O5 0.587620 0.567822 0.903712
O O6 0.371447 0.405603 0.942665
O O7 0.894423 0.440172 0.895377
O O8 0.500000 0.500000 0.000000
O O9 0.811399 0.042627 0.861100
O O10 0.006692 0.210904 0.861619
O O11 0.612911 0.129879 0.962329
O O12 0.393746 0.214242 0.070459
O O13 0.169665 0.135214 0.174947
O O14 0.250000 0.250000 0.000000
#
# Coordination Sequence:
#
# PCOD9307164 Si02
#       6
#     8   8   8   8   8   8
#     4  12  30  58  85 112 155 206 273 356 417 470
#     4  12  22  40  69 109 160 209 249 307 384 473
#     4  12  23  46  68 110 170 203 254 317 382 482
#     4  12  26  49  78 116 149 208 265 331 395 485
#     4  12  26  50  79 111 154 209 262 324 409 479
#     4  12  23  39  69 112 163 216 258 309 385 484
#
# _framework density 24.347138000000001
#
# number of rings (size 3 to 8) (size 9 to 14) (size 15 to 20)
#    0.000    0.000    5.000    6.000    0.000    2.000 
#    0.000    5.000    0.000    0.000    0.000    0.000 
#    0.000    0.000    0.000    0.000    0.000    0.000 
#
# Total GULP energy -134183.690931 kJ/mol
# GULP energy per Si atom -5590.987122 kJ/mol
# Density = 2.429172 g / cm^3
# Si number density = 24.347138 Si / 1000 Ang^3
#
#
#
# Elastic Constant Matrix: (Units=GPa)
#
#
# Indices 1 2 3 4 5 6 
#
# 1 111.7052 46.8756 38.7535 0.0003 -6.1096 0.0006
# 2 46.8756 151.8693 20.3025 -0.0014 -8.0079 0.0013
# 3 38.7535 20.3025 66.1482 -0.0006 -2.5191 0.0008
# 4 0.0003 -0.0014 -0.0006 19.6141 -0.0003 5.8348
# 5 -6.1096 -8.0079 -2.5191 -0.0003 44.9956 -0.0005
# 6 0.0006 0.0013 0.0008 5.8348 -0.0005 51.2417
#
#
#
# Elastic Compliance Matrix: (Units=1/GPa)
#
#
# Indices 1 2 3 4 5 6 
#
# 1 0.012436 -0.002947 -0.006351 -0.000001 0.000809 0.000000
# 2 -0.002947 0.007620 -0.000577 0.000001 0.000924 0.000000
# 3 -0.006351 -0.000577 0.019019 0.000001 0.000100 0.000000
# 4 -0.000001 0.000001 0.000001 0.052771 0.000000 -0.006009
# 5 0.000809 0.000924 0.000100 0.000000 0.022504 0.000000
# 6 0.000000 0.000000 0.000000 -0.006009 0.000000 0.020200
#
#
# Mechanical properties :
#
#
# Convention : Reuss Voigt Hill
#
# Bulk Modulus (GPa) = 51.74362 60.17620 55.95991
# Shear Modulus (GPa) = 31.10586 38.08970 34.59778
#
# Velocity S-wave (km/s) = 3.57823 3.95959 3.77373
# Velocity P-wave (km/s) = 6.19437 6.75826 6.48245
#
# Compressibility (1/GPa) = 0.01932605
#
# Stress axis : x y z
#
# Youngs Moduli (GPa) = 80.41056 131.23264 52.57886
#
# Poissons Ratio (x) = 0.38673 0.33391
# Poissons Ratio (y) = 0.23696 0.03034
# Poissons Ratio (z) = 0.51065 0.07574
#
# Static dielectric constant tensor:
#      x y z
#    x 2.055630 -0.000030 0.059380 
#    y -0.000030 2.093780 -0.000070 
#    z 0.059380 -0.000070 2.613470 
# 
# From -- ./inp_files/305296.got.cif
#   From: 2010.05.17/outbox.cif.g08.bks.cpg/sg15_153_cif.got.tgz:305296.got - 2010.06.03 18:47:42.
