data_PCOD9307455
_publ_section_title
;
Structure prediction by ZEFSAII (Michael W. Deem and Ramdas Pophale) SiO2 
 PCOD9307455
Probable space group: C 2/C
;
_chemical_formula_sum "Si O2"
_cell_formula_units_Z 44
_cell_length_a 9.851449
_cell_length_b 20.991057
_cell_length_c 9.142014
_cell_angle_alpha 90.000000
_cell_angle_beta 107.619021
_cell_angle_gamma 90.000000
_cell_volume 1801.815519
_symmetry_space_group_name_H-M "C 2/C"
_symmetry_group_IT_number 15
_symmetry_cell_setting 'monoclinic'
loop_
_space_group_symop_operation_xyz
x,y,z
-x,y,1/2-z
-x,-y,-z
x,-y,1/2+z
1/2+x,1/2+y,z
1/2-x,1/2+y,1/2-z
1/2-x,1/2-y,-z
1/2+x,1/2-y,1/2+z
loop_
_atom_site_type_symbol
_atom_site_label
_atom_site_fract_x
_atom_site_fract_y
_atom_site_fract_z
Si Si1 0.474145 0.317279 0.581541
Si Si2 0.275326 0.619849 0.492793
Si Si3 0.000000 0.958607 0.250000
Si Si4 0.990323 0.691654 0.071286
Si Si5 0.266472 0.009823 0.218418
Si Si6 0.197604 0.407608 0.488461
O O1 0.500000 0.288381 0.750000
O O2 0.622425 0.351004 0.595235
O O3 0.458381 0.261358 0.459164
O O4 0.346763 0.368491 0.534376
O O5 0.381387 0.586104 0.639401
O O6 0.172549 0.673855 0.520624
O O7 0.189581 0.564674 0.380898
O O8 0.906115 0.000744 0.330369
O O9 0.000000 0.685135 0.250000
O O10 0.083383 0.641999 0.009849
O O11 0.300620 0.036222 0.389365
O O12 0.324610 0.943562 0.173040
#
# Coordination Sequence:
#
# PCOD9307455 Si02
#       6
#     8   8   4   8   8   8
#     4  12  25  47  77 107 150 196 255 308 365 452
#     4  12  25  45  73 108 148 188 250 311 368 444
#     4  12  24  42  74 116 138 196 254 302 372 444
#     4  12  28  50  73 110 156 200 246 307 382 442
#     4  12  23  44  78 105 149 189 246 309 372 440
#     4  12  26  48  76 112 153 195 246 314 378 448
#
# _framework density 24.419813000000001
#
# number of rings (size 3 to 8) (size 9 to 14) (size 15 to 20)
#    0.000    0.000    7.273    2.727    1.273    2.182 
#    3.273    0.000    0.000    0.000    0.000    0.000 
#    0.000    0.000    0.000    0.000    0.000    0.000 
#
# Total GULP energy -123140.822399 kJ/mol
# GULP energy per Si atom -5597.310109 kJ/mol
# Density = 2.436423 g / cm^3
# Si number density = 24.419813 Si / 1000 Ang^3
#
#
#
# Elastic Constant Matrix: (Units=GPa)
#
#
# Indices 1 2 3 4 5 6 
#
# 1 93.4623 31.7807 7.3900 0.0000 -15.4806 0.0000
# 2 31.7807 117.9241 40.6051 0.0000 -19.6158 0.0000
# 3 7.3900 40.6051 39.7728 0.0000 -9.6613 0.0000
# 4 0.0000 0.0000 0.0000 41.0129 0.0000 -25.1162
# 5 -15.4806 -19.6158 -9.6613 0.0000 28.0063 0.0000
# 6 0.0000 0.0000 0.0000 -25.1162 0.0000 -30.9896
#
#
#
# Elastic Compliance Matrix: (Units=1/GPa)
#
#
# Indices 1 2 3 4 5 6 
#
# 1 0.012530 -0.003278 0.002339 0.000000 0.005437 0.000000
# 2 -0.003278 0.014601 -0.013374 0.000000 0.003801 0.000000
# 3 0.002339 -0.013374 0.039730 0.000000 0.005631 0.000000
# 4 0.000000 0.000000 0.000000 0.016295 0.000000 -0.013207
# 5 0.005437 0.003801 0.005631 0.000000 0.043316 0.000000
# 6 0.000000 0.000000 0.000000 -0.013207 0.000000 -0.021565
#
#
# Mechanical properties :
#
#
# Convention : Reuss Voigt Hill
#
# Bulk Modulus (GPa) = 26.15414 45.63454 35.89434
# Shear Modulus (GPa) = 34.18181 19.03150 26.60665
#
# Velocity S-wave (km/s) = 3.74539 2.79471 3.30442
# Velocity P-wave (km/s) = 5.42563 5.39833 5.41199
#
# Compressibility (1/GPa) = 0.03823486
#
# Stress axis : x y z
#
# Youngs Moduli (GPa) = 79.81059 68.48963 25.16997
#
# Poissons Ratio (x) = 0.22449 -0.05887
# Poissons Ratio (y) = 0.26160 0.33662
# Poissons Ratio (z) = -0.18667 0.91598
#
# Static dielectric constant tensor:
#      x y z
#    x 1.952910 0.000000 -0.026530 
#    y 0.000000 1.954560 0.000000 
#    z -0.026530 0.000000 1.974830 
# 
# From -- ./inp_files/78293.got.cif
#   From: 2010.05.17/outbox.cif.g08.bks.cpg/sg15_40_cif.got.tgz:78293.got - 2010.06.03 18:47:42.
