data_PCOD9307997
_publ_section_title
;
Structure prediction by ZEFSAII (Michael W. Deem and Ramdas Pophale) SiO2 
 PCOD9307997
Probable space group: C 2/C
;
_chemical_formula_sum "Si O2"
_cell_formula_units_Z 36
_cell_length_a 15.763321
_cell_length_b 18.719031
_cell_length_c 9.944607
_cell_angle_alpha 90.000000
_cell_angle_beta 147.191968
_cell_angle_gamma 90.000000
_cell_volume 1589.932112
_symmetry_space_group_name_H-M "C 2/C"
_symmetry_group_IT_number 15
_symmetry_cell_setting 'monoclinic'
loop_
_space_group_symop_operation_xyz
x,y,z
-x,y,1/2-z
-x,-y,-z
x,-y,1/2+z
1/2+x,1/2+y,z
1/2-x,1/2+y,1/2-z
1/2-x,1/2-y,-z
1/2+x,1/2-y,1/2+z
loop_
_atom_site_type_symbol
_atom_site_label
_atom_site_fract_x
_atom_site_fract_y
_atom_site_fract_z
Si Si1 0.263467 0.515985 0.461556
Si Si2 0.291351 0.363485 0.778818
Si Si3 0.117826 0.916432 0.112467
Si Si4 0.827147 0.716769 0.970196
Si Si5 0.500000 0.934950 0.250000
O O1 0.278624 0.589601 0.398698
O O2 0.341683 0.457478 0.469487
O O3 0.346045 0.531112 0.713680
O O4 0.090474 0.486968 0.266538
O O5 0.318760 0.281311 0.852583
O O6 0.133617 0.385079 0.491591
O O7 0.443633 0.387159 0.898643
O O8 0.235784 0.850628 0.291205
O O9 0.750000 0.750000 0.000000
O O10 0.000000 0.696562 0.250000
#
# Coordination Sequence:
#
# PCOD9307997 Si02
#       5
#     8   8   8   8   4
#     4  12  26  47  74 114 147 200 248 316 372 449
#     4  12  26  49  73 110 150 200 248 308 377 445
#     4  12  28  47  82 109 155 196 254 310 379 448
#     4  12  25  47  79 110 144 199 256 308 368 450
#     4  12  30  44  74 112 156 194 252 314 384 446
#
# _framework density 22.642475999999998
#
# number of rings (size 3 to 8) (size 9 to 14) (size 15 to 20)
#    0.000    0.000    6.667    2.000    7.778    0.000 
#    0.000    4.444    0.000    0.000    0.000    0.000 
#    0.000    0.000    0.000    0.000    0.000    0.000 
#
# Total GULP energy -100891.828516 kJ/mol
# GULP energy per Si atom -5605.101584 kJ/mol
# Density = 2.259094 g / cm^3
# Si number density = 22.642476 Si / 1000 Ang^3
#
#
#
# Elastic Constant Matrix: (Units=GPa)
#
#
# Indices 1 2 3 4 5 6 
#
# 1 161.6393 65.6540 64.9900 0.0000 12.5692 0.0000
# 2 65.6540 176.3622 57.1249 0.0000 3.7669 0.0000
# 3 64.9900 57.1249 138.7545 0.0000 24.6603 0.0000
# 4 0.0000 0.0000 0.0000 38.8378 0.0000 5.7481
# 5 12.5692 3.7669 24.6603 0.0000 46.3236 0.0000
# 6 0.0000 0.0000 0.0000 5.7481 0.0000 29.0871
#
#
#
# Elastic Compliance Matrix: (Units=1/GPa)
#
#
# Indices 1 2 3 4 5 6 
#
# 1 0.008255 -0.002123 -0.002900 0.000000 -0.000524 0.000000
# 2 -0.002123 0.007130 -0.002143 0.000000 0.001137 0.000000
# 3 -0.002900 -0.002143 0.010246 0.000000 -0.004493 0.000000
# 4 0.000000 0.000000 0.000000 0.026524 0.000000 -0.005242
# 5 -0.000524 0.001137 -0.004493 0.000000 0.024029 0.000000
# 6 0.000000 0.000000 0.000000 -0.005242 0.000000 0.035415
#
#
# Mechanical properties :
#
#
# Convention : Reuss Voigt Hill
#
# Bulk Modulus (GPa) = 88.49365 94.69933 91.59649
# Shear Modulus (GPa) = 38.55093 42.11551 40.33322
#
# Velocity S-wave (km/s) = 4.13073 4.31748 4.22513
# Velocity P-wave (km/s) = 7.86882 8.17121 8.02144
#
# Compressibility (1/GPa) = 0.01130025
#
# Stress axis : x y z
#
# Youngs Moduli (GPa) = 121.13225 140.24505 97.59778
#
# Poissons Ratio (x) = 0.29772 0.28300
# Poissons Ratio (y) = 0.25714 0.20919
# Poissons Ratio (z) = 0.35124 0.30060
#
# Static dielectric constant tensor:
#      x y z
#    x 1.829150 0.000000 0.000710 
#    y 0.000000 1.837220 0.000000 
#    z 0.000710 0.000000 1.835080 
# 
# From -- ./inp_files/41336.got.cif
#   From: 2010.05.17/outbox.cif.g08.bks.cpg/sg15_21_cif.got.tgz:41336.got - 2010.06.03 18:47:42.
