data_PCOD9307942
_publ_section_title
;
Structure prediction by ZEFSAII (Michael W. Deem and Ramdas Pophale) SiO2 
 PCOD9307942
Probable space group: C 2/C
;
_chemical_formula_sum "Si O2"
_cell_formula_units_Z 28
_cell_length_a 8.346761
_cell_length_b 4.887733
_cell_length_c 25.863433
_cell_angle_alpha 90.000000
_cell_angle_beta 99.252320
_cell_angle_gamma 90.000000
_cell_volume 1041.416160
_symmetry_space_group_name_H-M "C 2/C"
_symmetry_group_IT_number 15
_symmetry_cell_setting 'monoclinic'
loop_
_space_group_symop_operation_xyz
x,y,z
-x,y,1/2-z
-x,-y,-z
x,-y,1/2+z
1/2+x,1/2+y,z
1/2-x,1/2+y,1/2-z
1/2-x,1/2-y,-z
1/2+x,1/2-y,1/2+z
loop_
_atom_site_type_symbol
_atom_site_label
_atom_site_fract_x
_atom_site_fract_y
_atom_site_fract_z
Si Si1 0.912845 0.929073 0.111144
Si Si2 0.263043 0.553644 0.323232
Si Si3 0.000000 0.239443 0.250000
Si Si4 0.874145 0.432784 0.038110
O O1 0.104662 0.894611 0.134400
O O2 0.799640 0.834531 0.153111
O O3 0.846679 0.724750 0.063447
O O4 0.135139 0.083707 0.224260
O O5 0.086284 0.234220 0.411559
O O6 0.097395 0.409234 0.297988
O O7 0.750000 0.250000 0.000000
O O8 0.000000 0.500000 0.000000
#
# Coordination Sequence:
#
# PCOD9307942 Si02
#       4
#     8   8   4   8
#     4  12  26  46  76 110 152 199 253 312 378 453
#     4  12  26  47  75 112 150 200 252 314 381 455
#     4  12  26  48  76 110 152 198 252 314 380 454
#     4  12  25  46  73 109 150 198 251 312 377 450
#
# _framework density 26.886469000000002
#
# number of rings (size 3 to 8) (size 9 to 14) (size 15 to 20)
#    0.000    0.000    0.000   10.286    0.000    4.571 
#    0.000    0.000    0.000    0.000    0.000    0.000 
#    0.000    0.000    0.000    0.000    0.000    0.000 
#
# Total GULP energy -78386.007841 kJ/mol
# GULP energy per Si atom -5599.000560 kJ/mol
# Density = 2.682527 g / cm^3
# Si number density = 26.886469 Si / 1000 Ang^3
#
#
#
# Elastic Constant Matrix: (Units=GPa)
#
#
# Indices 1 2 3 4 5 6 
#
# 1 140.6576 34.1281 46.8815 0.0000 10.7588 0.0000
# 2 34.1281 118.1543 23.9339 0.0000 3.1801 0.0000
# 3 46.8815 23.9339 127.9014 0.0000 -6.9291 0.0000
# 4 0.0000 0.0000 0.0000 56.4229 0.0000 -4.5068
# 5 10.7588 3.1801 -6.9291 0.0000 73.5241 0.0000
# 6 0.0000 0.0000 0.0000 -4.5068 0.0000 48.1929
#
#
#
# Elastic Compliance Matrix: (Units=1/GPa)
#
#
# Indices 1 2 3 4 5 6 
#
# 1 0.008640 -0.001870 -0.002896 0.000000 -0.001456 0.000000
# 2 -0.001870 0.009223 -0.001053 0.000000 -0.000225 0.000000
# 3 -0.002896 -0.001053 0.009149 0.000000 0.001332 0.000000
# 4 0.000000 0.000000 0.000000 0.017857 0.000000 0.001670
# 5 -0.001456 -0.000225 0.001332 0.000000 0.013949 0.000000
# 6 0.000000 0.000000 0.000000 0.001670 0.000000 0.020906
#
#
# Mechanical properties :
#
#
# Convention : Reuss Voigt Hill
#
# Bulk Modulus (GPa) = 65.04006 66.28893 65.66449
# Shear Modulus (GPa) = 51.82140 54.41265 53.11702
#
# Velocity S-wave (km/s) = 4.39500 4.50354 4.44960
# Velocity P-wave (km/s) = 7.07091 7.19383 7.13263
#
# Compressibility (1/GPa) = 0.01537514
#
# Stress axis : x y z
#
# Youngs Moduli (GPa) = 115.74471 108.42641 109.30041
#
# Poissons Ratio (x) = 0.20273 0.31652
# Poissons Ratio (y) = 0.21641 0.11506
# Poissons Ratio (z) = 0.33518 0.11414
#
# Static dielectric constant tensor:
#      x y z
#    x 2.044300 0.000000 0.031120 
#    y 0.000000 2.080900 0.000000 
#    z 0.031120 0.000000 2.178750 
# 
# From -- ./inp_files/235131.got.cif
#   From: 2010.05.17/outbox.cif.g08.bks.cpg/sg15_118_cif.got.tgz:235131.got - 2010.06.03 18:47:42.
