data_PCOD9307436
_publ_section_title
;
Structure prediction by ZEFSAII (Michael W. Deem and Ramdas Pophale) SiO2 
 PCOD9307436
Probable space group: C 2/C
;
_chemical_formula_sum "Si O2"
_cell_formula_units_Z 48
_cell_length_a 11.842053
_cell_length_b 13.355882
_cell_length_c 18.952319
_cell_angle_alpha 90.000000
_cell_angle_beta 49.488627
_cell_angle_gamma 90.000000
_cell_volume 2278.944797
_symmetry_space_group_name_H-M "C 2/C"
_symmetry_group_IT_number 15
_symmetry_cell_setting 'monoclinic'
loop_
_space_group_symop_operation_xyz
x,y,z
-x,y,1/2-z
-x,-y,-z
x,-y,1/2+z
1/2+x,1/2+y,z
1/2-x,1/2+y,1/2-z
1/2-x,1/2-y,-z
1/2+x,1/2-y,1/2+z
loop_
_atom_site_type_symbol
_atom_site_label
_atom_site_fract_x
_atom_site_fract_y
_atom_site_fract_z
Si Si1 0.735623 0.765855 0.325995
Si Si2 0.291446 0.147966 0.444651
Si Si3 0.848587 0.982123 0.274675
Si Si4 0.118989 0.660809 0.366079
Si Si5 0.466130 0.494522 0.932079
Si Si6 0.091780 0.235316 0.028716
O O1 0.764831 0.679946 0.373535
O O2 0.809422 0.871134 0.317235
O O3 0.803685 0.725353 0.226316
O O4 0.561081 0.788687 0.386450
O O5 0.250000 0.250000 0.500000
O O6 0.459970 0.126922 0.399091
O O7 0.179812 0.062605 0.517037
O O8 0.000000 0.017810 0.250000
O O9 0.898197 0.973152 0.172719
O O10 0.720197 0.063078 0.339018
O O11 0.102561 0.730863 0.442119
O O12 0.500000 0.500000 0.000000
O O13 0.439869 0.377771 0.934432
O O14 0.250000 0.250000 0.000000
#
# Coordination Sequence:
#
# PCOD9307436 Si02
#       6
#     8   8   8   8   8   8
#     4  12  25  46  71 103 139 183 235 292 348 419
#     4  12  23  44  73 104 136 182 238 288 346 420
#     4  12  26  44  70 103 139 180 232 291 352 417
#     4  12  26  45  72 104 138 186 237 289 354 421
#     4  12  23  47  71 100 137 186 228 289 353 411
#     4  12  27  45  69 101 144 185 231 290 354 419
#
# _framework density 21.062379
#
# number of rings (size 3 to 8) (size 9 to 14) (size 15 to 20)
#    0.000    0.000    5.000    5.500    2.333    0.667 
#    0.000    0.000    0.000    0.000    0.000    0.000 
#    0.000    0.000    0.000    0.000    0.000    0.000 
#
# Total GULP energy -134077.780415 kJ/mol
# GULP energy per Si atom -5586.574184 kJ/mol
# Density = 2.101444 g / cm^3
# Si number density = 21.062379 Si / 1000 Ang^3
#
#
#
# Elastic Constant Matrix: (Units=GPa)
#
#
# Indices 1 2 3 4 5 6 
#
# 1 82.2037 -0.4987 15.3587 0.0000 -32.3527 0.0000
# 2 -0.4987 81.4191 18.4580 0.0000 -12.0997 0.0000
# 3 15.3587 18.4580 95.9595 0.0000 -12.2327 0.0000
# 4 0.0000 0.0000 0.0000 39.9824 0.0000 -10.5597
# 5 -32.3527 -12.0997 -12.2327 0.0000 48.8381 0.0000
# 6 0.0000 0.0000 0.0000 -10.5597 0.0000 31.1195
#
#
#
# Elastic Compliance Matrix: (Units=1/GPa)
#
#
# Indices 1 2 3 4 5 6 
#
# 1 0.016961 0.002173 -0.001685 0.000000 0.011352 0.000000
# 2 0.002173 0.013461 -0.002405 0.000000 0.004172 0.000000
# 3 -0.001685 -0.002405 0.011296 0.000000 0.001117 0.000000
# 4 0.000000 0.000000 0.000000 0.027473 0.000000 0.009322
# 5 0.011352 0.004172 0.001117 0.000000 0.029309 0.000000
# 6 0.000000 0.000000 0.000000 0.009322 0.000000 0.035297
#
#
# Mechanical properties :
#
#
# Convention : Reuss Voigt Hill
#
# Bulk Modulus (GPa) = 26.39789 36.24648 31.32219
# Shear Modulus (GPa) = 33.27577 39.07230 36.17403
#
# Velocity S-wave (km/s) = 3.97907 4.31173 4.14873
# Velocity P-wave (km/s) = 5.80267 6.48340 6.15246
#
# Compressibility (1/GPa) = 0.03788181
#
# Stress axis : x y z
#
# Youngs Moduli (GPa) = 58.96000 74.29041 88.52814
#
# Poissons Ratio (x) = -0.16143 0.14921
# Poissons Ratio (y) = -0.12812 0.21292
# Poissons Ratio (z) = 0.09938 0.17868
#
# Static dielectric constant tensor:
#      x y z
#    x 1.940750 0.000000 -0.160070 
#    y 0.000000 1.719920 0.000000 
#    z -0.160070 0.000000 2.176300 
# 
# From -- ./inp_files/238949.got.cif
#   From: 2010.05.17/outbox.cif.g08.bks.cpg/sg15_120_cif.got.tgz:238949.got - 2010.06.03 18:47:42.
