data_PCOD9307110
_publ_section_title
;
Structure prediction by ZEFSAII (Michael W. Deem and Ramdas Pophale) SiO2 
 PCOD9307110
Probable space group: C 2/C
;
_chemical_formula_sum "Si O2"
_cell_formula_units_Z 40
_cell_length_a 24.621765
_cell_length_b 12.547287
_cell_length_c 20.210027
_cell_angle_alpha 90.000000
_cell_angle_beta 23.907630
_cell_angle_gamma 90.000000
_cell_volume 2530.307015
_symmetry_space_group_name_H-M "C 2/C"
_symmetry_group_IT_number 15
_symmetry_cell_setting 'monoclinic'
loop_
_space_group_symop_operation_xyz
x,y,z
-x,y,1/2-z
-x,-y,-z
x,-y,1/2+z
1/2+x,1/2+y,z
1/2-x,1/2+y,1/2-z
1/2-x,1/2-y,-z
1/2+x,1/2-y,1/2+z
loop_
_atom_site_type_symbol
_atom_site_label
_atom_site_fract_x
_atom_site_fract_y
_atom_site_fract_z
Si Si1 0.705318 0.071147 0.695133
Si Si2 0.164372 0.664091 0.279337
Si Si3 0.602168 0.089912 0.497355
Si Si4 0.856682 0.354722 0.087059
Si Si5 0.646330 0.263981 0.556189
O O1 0.694568 0.116675 0.781754
O O2 0.314183 0.365891 0.032017
O O3 0.721071 0.944067 0.683509
O O4 0.559420 0.091683 0.825440
O O5 0.150009 0.637792 0.373676
O O6 0.262090 0.763928 0.162937
O O7 0.012520 0.679743 0.421835
O O8 0.652198 0.161868 0.501276
O O9 0.645068 0.966324 0.450435
O O10 0.500000 0.273767 0.750000
O O11 0.750000 0.250000 0.500000
#
# Coordination Sequence:
#
# PCOD9307110 Si02
#       5
#     8   8   8   8   8
#     4   9  18  34  51  75 106 137 172 206 262 304
#     4   9  17  32  55  76 104 133 165 221 260 301
#     4   9  18  34  51  75 106 138 171 203 267 307
#     4   9  17  32  55  76 104 134 164 220 261 302
#     4  12  22  34  54  74 106 143 171 210 248 308
#
# _framework density 15.808358999999999
#
# number of rings (size 3 to 8) (size 9 to 14) (size 15 to 20)
#    0.000    2.400    4.000    2.400    0.000    0.000 
#    3.600    2.000    0.000    2.400    0.000    0.000 
#    0.000    0.000    0.000    0.000    0.000    0.000 
#
# Total GULP energy -111467.180172 kJ/mol
# GULP energy per Si atom -5573.359009 kJ/mol
# Density = 1.577238 g / cm^3
# Si number density = 15.808359 Si / 1000 Ang^3
#
#
#
# Elastic Constant Matrix: (Units=GPa)
#
#
# Indices 1 2 3 4 5 6 
#
# 1 64.1597 39.9970 41.7581 0.0000 4.1456 0.0000
# 2 39.9970 119.7445 75.3402 0.0000 1.3275 0.0000
# 3 41.7581 75.3402 97.4931 -0.0001 2.3468 0.0000
# 4 0.0000 0.0000 -0.0001 32.8183 0.0000 -3.9951
# 5 4.1456 1.3275 2.3468 0.0000 12.3071 0.0000
# 6 0.0000 0.0000 0.0000 -3.9951 0.0000 27.8546
#
#
#
# Elastic Compliance Matrix: (Units=1/GPa)
#
#
# Indices 1 2 3 4 5 6 
#
# 1 0.022489 -0.002871 -0.007272 0.000000 -0.005879 0.000000
# 2 -0.002871 0.016626 -0.011652 0.000000 0.001396 0.000000
# 3 -0.007272 -0.011652 0.022390 0.000000 -0.000563 0.000000
# 4 0.000000 0.000000 0.000000 0.031012 0.000000 0.004448
# 5 -0.005879 0.001396 -0.000563 0.000000 0.083191 0.000000
# 6 0.000000 0.000000 0.000000 0.004448 0.000000 0.036539
#
#
# Mechanical properties :
#
#
# Convention : Reuss Voigt Hill
#
# Bulk Modulus (GPa) = 55.82171 66.17643 60.99907
# Shear Modulus (GPa) = 19.09803 22.88280 20.99041
#
# Velocity S-wave (km/s) = 3.47954 3.80875 3.64786
# Velocity P-wave (km/s) = 7.17852 7.82909 7.51085
#
# Compressibility (1/GPa) = 0.01791418
#
# Stress axis : x y z
#
# Youngs Moduli (GPa) = 44.46646 60.14826 44.66353
#
# Poissons Ratio (x) = 0.17269 0.32480
# Poissons Ratio (y) = 0.12767 0.52041
# Poissons Ratio (z) = 0.32337 0.70083
#
# Static dielectric constant tensor:
#      x y z
#    x 1.513350 0.000000 0.000280 
#    y 0.000000 1.523420 0.000000 
#    z 0.000280 0.000000 1.505490 
# 
# From -- ./inp_files/60730.got.cif
#   From: 2010.05.17/outbox.cif.g08.bks.cpg/sg15_31_cif.got.tgz:60730.got - 2010.06.03 18:47:42.
