data_PCOD9307132
_publ_section_title
;
Structure prediction by ZEFSAII (Michael W. Deem and Ramdas Pophale) SiO2 
 PCOD9307132
Probable space group: C 2/C
;
_chemical_formula_sum "Si O2"
_cell_formula_units_Z 40
_cell_length_a 19.188234
_cell_length_b 4.959111
_cell_length_c 18.690483
_cell_angle_alpha 90.000000
_cell_angle_beta 102.559488
_cell_angle_gamma 90.000000
_cell_volume 1735.963793
_symmetry_space_group_name_H-M "C 2/C"
_symmetry_group_IT_number 15
_symmetry_cell_setting 'monoclinic'
loop_
_space_group_symop_operation_xyz
x,y,z
-x,y,1/2-z
-x,-y,-z
x,-y,1/2+z
1/2+x,1/2+y,z
1/2-x,1/2+y,1/2-z
1/2-x,1/2-y,-z
1/2+x,1/2-y,1/2+z
loop_
_atom_site_type_symbol
_atom_site_label
_atom_site_fract_x
_atom_site_fract_y
_atom_site_fract_z
Si Si1 0.379252 0.339339 0.127468
Si Si2 0.898446 0.483414 0.385459
Si Si3 0.411846 0.512569 0.978191
Si Si4 0.794835 0.253287 0.745888
Si Si5 0.534946 0.155009 0.832693
O O1 0.321090 0.375002 0.176604
O O2 0.446247 0.530426 0.164390
O O3 0.395807 0.022991 0.137826
O O4 0.374590 0.427048 0.044050
O O5 0.881491 0.187526 0.410774
O O6 0.855860 0.610192 0.309274
O O7 0.979986 0.443663 0.379656
O O8 0.893806 0.687098 0.450245
O O9 0.500000 0.500000 0.000000
O O10 0.741876 0.503652 0.722120
O O11 0.500000 0.083453 0.750000
#
# Coordination Sequence:
#
# PCOD9307132 Si02
#       5
#     8   8   8   8   8
#     4  12  25  41  69 102 141 173 224 288 349 415
#     4  12  24  43  69 102 141 177 221 286 349 416
#     4  12  23  41  67 110 145 168 209 282 378 428
#     4  12  28  50  68  94 136 197 250 281 316 396
#     4  12  22  37  68 108 135 167 222 290 361 409
#
# _framework density 23.041955000000002
#
# number of rings (size 3 to 8) (size 9 to 14) (size 15 to 20)
#    0.000    0.000    6.000    4.800    2.800    0.000 
#    0.000    6.000    0.000    0.000    0.000    0.000 
#    0.000    0.000    0.000    0.000    0.000    0.000 
#
# Total GULP energy -111712.885005 kJ/mol
# GULP energy per Si atom -5585.644250 kJ/mol
# Density = 2.298951 g / cm^3
# Si number density = 23.041955 Si / 1000 Ang^3
#
#
#
# Elastic Constant Matrix: (Units=GPa)
#
#
# Indices 1 2 3 4 5 6 
#
# 1 57.5474 18.4453 24.0680 0.0000 -16.3057 0.0000
# 2 18.4453 105.5732 19.4921 0.0000 0.5132 0.0000
# 3 24.0680 19.4921 71.4079 0.0000 -27.1682 0.0000
# 4 0.0000 0.0000 0.0000 44.8133 0.0000 3.1277
# 5 -16.3057 0.5132 -27.1682 0.0000 29.3171 0.0000
# 6 0.0000 0.0000 0.0000 3.1277 0.0000 33.4135
#
#
#
# Elastic Compliance Matrix: (Units=1/GPa)
#
#
# Indices 1 2 3 4 5 6 
#
# 1 0.022490 -0.003448 -0.002868 0.000000 0.009911 0.000000
# 2 -0.003448 0.010844 -0.004016 0.000000 -0.005829 0.000000
# 3 -0.002868 -0.004016 0.023921 0.000000 0.020642 0.000000
# 4 0.000000 0.000000 0.000000 0.022462 0.000000 -0.002103
# 5 0.009911 -0.005829 0.020642 0.000000 0.058853 0.000000
# 6 0.000000 0.000000 0.000000 -0.002103 0.000000 0.030125
#
#
# Mechanical properties :
#
#
# Convention : Reuss Voigt Hill
#
# Bulk Modulus (GPa) = 27.32921 39.83772 33.58347
# Shear Modulus (GPa) = 24.80708 33.01031 28.90870
#
# Velocity S-wave (km/s) = 3.28473 3.78910 3.54589
# Velocity P-wave (km/s) = 5.12565 6.03902 5.60098
#
# Compressibility (1/GPa) = 0.03659089
#
# Stress axis : x y z
#
# Youngs Moduli (GPa) = 44.46435 92.21472 41.80497
#
# Poissons Ratio (x) = 0.31795 0.11991
# Poissons Ratio (y) = 0.15331 0.16788
# Poissons Ratio (z) = 0.12754 0.37030
#
# Static dielectric constant tensor:
#      x y z
#    x 1.898910 0.000000 -0.005370 
#    y 0.000000 1.814210 0.000000 
#    z -0.005370 0.000000 1.909680 
# 
# From -- ./inp_files/208096.got.cif
#   From: 2010.05.17/outbox.cif.g08.bks.cpg/sg15_105_cif.got.tgz:208096.got - 2010.06.03 18:47:42.
