data_PCOD9307977
_publ_section_title
;
Structure prediction by ZEFSAII (Michael W. Deem and Ramdas Pophale) SiO2 
 PCOD9307977
Probable space group: C 2/C
;
_chemical_formula_sum "Si O2"
_cell_formula_units_Z 24
_cell_length_a 24.320339
_cell_length_b 4.758169
_cell_length_c 22.305703
_cell_angle_alpha 90.000000
_cell_angle_beta 158.759993
_cell_angle_gamma 90.000000
_cell_volume 935.113537
_symmetry_space_group_name_H-M "C 2/C"
_symmetry_group_IT_number 15
_symmetry_cell_setting 'monoclinic'
loop_
_space_group_symop_operation_xyz
x,y,z
-x,y,1/2-z
-x,-y,-z
x,-y,1/2+z
1/2+x,1/2+y,z
1/2-x,1/2+y,1/2-z
1/2-x,1/2-y,-z
1/2+x,1/2-y,1/2+z
loop_
_atom_site_type_symbol
_atom_site_label
_atom_site_fract_x
_atom_site_fract_y
_atom_site_fract_z
Si Si1 0.157811 0.649120 0.677620
Si Si2 0.097939 0.986639 0.738583
Si Si3 0.932691 0.467285 0.618196
O O1 0.279665 0.393969 0.803416
O O2 0.140140 0.824951 0.720746
O O3 0.000000 0.500000 0.500000
O O4 0.987741 0.781966 0.662908
O O5 0.008868 0.277616 0.644053
O O6 0.253383 0.043995 0.931457
O O7 0.000000 0.372590 0.750000
#
# Coordination Sequence:
#
# PCOD9307977 Si02
#       3
#     8   8   8
#     4  12  27  49  74 107 144 189 242 300 359 427
#     4  12  26  46  73 107 145 191 239 296 359 427
#     4  12  25  47  74 108 146 190 239 296 358 428
#
# _framework density 25.665336
#
# number of rings (size 3 to 8) (size 9 to 14) (size 15 to 20)
#    0.000    0.000    0.000   10.000    0.000    5.333 
#    0.000    0.000    0.000    0.000    0.000    0.000 
#    0.000    0.000    0.000    0.000    0.000    0.000 
#
# Total GULP energy -67365.746048 kJ/mol
# GULP energy per Si atom -5613.812171 kJ/mol
# Density = 2.560692 g / cm^3
# Si number density = 25.665336 Si / 1000 Ang^3
#
#
#
# Elastic Constant Matrix: (Units=GPa)
#
#
# Indices 1 2 3 4 5 6 
#
# 1 -10.8212 -94.5915 -101.4420 0.0047 -46.6369 0.0028
# 2 -94.5915 16.9098 -103.9006 0.0099 -33.7698 0.0055
# 3 -101.4420 -103.9006 -3.3346 0.0039 -35.1482 0.0007
# 4 0.0047 0.0099 0.0039 113.4533 0.0019 135.1962
# 5 -46.6369 -33.7698 -35.1482 0.0019 24.1743 0.0012
# 6 0.0028 0.0055 0.0007 135.1962 0.0012 231.7441
#
#
#
# Elastic Compliance Matrix: (Units=1/GPa)
#
#
# Indices 1 2 3 4 5 6 
#
# 1 0.005691 -0.004498 -0.005052 0.000001 -0.002650 0.000000
# 2 -0.004498 0.006057 -0.003038 0.000000 -0.004634 0.000000
# 3 -0.005052 -0.003038 0.005876 0.000001 -0.005447 0.000000
# 4 0.000001 0.000000 0.000001 0.028917 0.000001 -0.016870
# 5 -0.002650 -0.004634 -0.005447 0.000001 0.021862 0.000000
# 6 0.000000 0.000000 0.000000 -0.016870 0.000000 0.014157
#
#
# Mechanical properties :
#
#
# Convention : Reuss Voigt Hill
#
# Bulk Modulus (GPa) = -132.40710 -66.34602 -99.37656
# Shear Modulus (GPa) = 47.52044 94.05357 70.78700
#
# Velocity S-wave (km/s) = 4.30762 6.06017 5.25744
# Velocity P-wave (km/s) = 5.19240 4.80219 1.39642
#
# Compressibility (1/GPa) = -0.00755246
#
# Stress axis : x y z
#
# Youngs Moduli (GPa) = 175.70356 165.10487 170.19060
#
# Poissons Ratio (x) = 0.74268 0.85986
# Poissons Ratio (y) = 0.79035 0.51698
# Poissons Ratio (z) = 0.88772 0.50153
#
# Static dielectric constant tensor:
#      x y z
#    x 2.119490 -0.000020 -0.003980 
#    y -0.000020 -6.223970 0.000010 
#    z -0.003980 0.000010 1.923920 
# 
# From -- ./inp_files/64240.got.cif
#   From: 2010.05.17/outbox.cif.g08.bks.cpg/sg15_33_cif.got.tgz:64240.got - 2010.06.03 18:47:42.
