data_PCOD9307711
_publ_section_title
;
Structure prediction by ZEFSAII (Michael W. Deem and Ramdas Pophale) SiO2 
 PCOD9307711
Probable space group: C 2/C
;
_chemical_formula_sum "Si O2"
_cell_formula_units_Z 36
_cell_length_a 8.540504
_cell_length_b 26.767593
_cell_length_c 13.497582
_cell_angle_alpha 90.000000
_cell_angle_beta 32.590936
_cell_angle_gamma 90.000000
_cell_volume 1662.054977
_symmetry_space_group_name_H-M "C 2/C"
_symmetry_group_IT_number 15
_symmetry_cell_setting 'monoclinic'
loop_
_space_group_symop_operation_xyz
x,y,z
-x,y,1/2-z
-x,-y,-z
x,-y,1/2+z
1/2+x,1/2+y,z
1/2-x,1/2+y,1/2-z
1/2-x,1/2-y,-z
1/2+x,1/2-y,1/2+z
loop_
_atom_site_type_symbol
_atom_site_label
_atom_site_fract_x
_atom_site_fract_y
_atom_site_fract_z
Si Si1 0.251588 0.273417 0.696342
Si Si2 0.344600 0.449859 0.545873
Si Si3 0.000000 0.905902 0.250000
Si Si4 0.515023 0.172160 0.517334
Si Si5 0.824014 0.858351 0.035055
O O1 0.388421 0.219681 0.644878
O O2 0.503561 0.309457 0.521442
O O3 0.000000 0.266213 0.750000
O O4 0.120232 0.302863 0.859494
O O5 0.500000 0.500000 0.500000
O O6 0.418265 0.437805 0.391300
O O7 0.481536 0.404620 0.535972
O O8 0.000000 0.452356 0.750000
O O9 0.269834 0.869210 0.129611
O O10 0.765756 0.148254 0.449853
O O11 0.500000 0.864016 0.250000
#
# Coordination Sequence:
#
# PCOD9307711 Si02
#       5
#     8   8   4   8   8
#     4  12  25  43  69 110 154 206 254 304 369 444
#     4  12  29  55  83 113 150 192 252 323 385 455
#     4  12  26  50  80 114 148 206 248 306 390 448
#     4  12  25  43  73 108 154 204 253 304 369 448
#     4  12  24  46  72 105 152 196 253 312 371 439
#
# _framework density 21.659932999999999
#
# number of rings (size 3 to 8) (size 9 to 14) (size 15 to 20)
#    0.000    0.000    3.333    7.333    0.000    0.889 
#    4.000    0.000    0.000    0.000    0.000    0.000 
#    0.000    0.000    0.000    0.000    0.000    0.000 
#
# Total GULP energy -100809.066919 kJ/mol
# GULP energy per Si atom -5600.503718 kJ/mol
# Density = 2.161063 g / cm^3
# Si number density = 21.659933 Si / 1000 Ang^3
#
#
#
# Elastic Constant Matrix: (Units=GPa)
#
#
# Indices 1 2 3 4 5 6 
#
# 1 121.6482 81.8808 60.4493 0.0000 -7.9708 0.0000
# 2 81.8808 159.1567 80.5495 0.0000 -1.2890 0.0000
# 3 60.4493 80.5495 177.8775 0.0000 0.2571 0.0000
# 4 0.0000 0.0000 0.0000 52.4780 0.0000 -30.6794
# 5 -7.9708 -1.2890 0.2571 0.0000 50.4935 0.0000
# 6 0.0000 0.0000 0.0000 -30.6794 0.0000 70.9111
#
#
#
# Elastic Compliance Matrix: (Units=1/GPa)
#
#
# Indices 1 2 3 4 5 6 
#
# 1 0.013194 -0.005840 -0.001842 0.000000 0.001943 0.000000
# 2 -0.005840 0.010739 -0.002877 0.000000 -0.000633 0.000000
# 3 -0.001842 -0.002877 0.007551 0.000000 -0.000403 0.000000
# 4 0.000000 0.000000 0.000000 0.025507 0.000000 0.011036
# 5 0.001943 -0.000633 -0.000403 0.000000 0.020097 0.000000
# 6 0.000000 0.000000 0.000000 0.011036 0.000000 0.018877
#
#
# Mechanical properties :
#
#
# Convention : Reuss Voigt Hill
#
# Bulk Modulus (GPa) = 96.47470 100.49352 98.48411
# Shear Modulus (GPa) = 41.48059 50.49669 45.98864
#
# Velocity S-wave (km/s) = 4.38091 4.83363 4.61283
# Velocity P-wave (km/s) = 8.38017 8.81186 8.59872
#
# Compressibility (1/GPa) = 0.01036541
#
# Stress axis : x y z
#
# Youngs Moduli (GPa) = 75.79307 93.12221 132.42552
#
# Poissons Ratio (x) = 0.54381 0.24394
# Poissons Ratio (y) = 0.44261 0.38103
# Poissons Ratio (z) = 0.13962 0.26795
#
# Static dielectric constant tensor:
#      x y z
#    x 1.807330 0.000000 0.059040 
#    y 0.000000 1.733550 0.000000 
#    z 0.059040 0.000000 1.856750 
# 
# From -- ./inp_files/138862.got.cif
#   From: 2010.05.17/outbox.cif.g08.bks.cpg/sg15_70_cif.got.tgz:138862.got - 2010.06.03 18:47:42.
