data_PCOD9307866
_publ_section_title
;
Structure prediction by ZEFSAII (Michael W. Deem and Ramdas Pophale) SiO2 
 PCOD9307866
Probable space group: C 2/C
;
_chemical_formula_sum "Si O2"
_cell_formula_units_Z 28
_cell_length_a 7.254899
_cell_length_b 17.276905
_cell_length_c 9.886587
_cell_angle_alpha 90.000000
_cell_angle_beta 60.245660
_cell_angle_gamma 90.000000
_cell_volume 1075.831096
_symmetry_space_group_name_H-M "C 2/C"
_symmetry_group_IT_number 15
_symmetry_cell_setting 'monoclinic'
loop_
_space_group_symop_operation_xyz
x,y,z
-x,y,1/2-z
-x,-y,-z
x,-y,1/2+z
1/2+x,1/2+y,z
1/2-x,1/2+y,1/2-z
1/2-x,1/2-y,-z
1/2+x,1/2-y,1/2+z
loop_
_atom_site_type_symbol
_atom_site_label
_atom_site_fract_x
_atom_site_fract_y
_atom_site_fract_z
Si Si1 0.234661 0.980400 0.870204
Si Si2 0.500000 0.706586 0.750000
Si Si3 0.246140 0.830298 0.675367
Si Si4 0.881207 0.407111 0.084486
O O1 0.762643 0.901077 0.715251
O O2 0.362181 0.963573 0.961132
O O3 0.692113 0.049459 0.753966
O O4 0.000000 0.000000 0.000000
O O5 0.388246 0.761137 0.680628
O O6 0.307580 0.654679 0.875341
O O7 0.388650 0.865365 0.500918
O O8 0.000000 0.807159 0.750000
#
# Coordination Sequence:
#
# PCOD9307866 Si02
#       4
#     8   4   8   8
#     4  12  24  50  84 122 163 217 280 344 417 494
#     4  12  26  54  84 118 174 216 278 350 422 484
#     4  12  28  49  81 123 168 218 277 343 423 501
#     4  12  26  51  86 122 169 217 279 351 416 494
#
# _framework density 26.026389000000002
#
# number of rings (size 3 to 8) (size 9 to 14) (size 15 to 20)
#    0.000    0.000    5.714    3.429    0.000    3.429 
#    0.000    2.857    0.000    0.000    0.000    0.000 
#    0.000    0.000    0.000    0.000    0.000    0.000 
#
# Total GULP energy -78546.006967 kJ/mol
# GULP energy per Si atom -5610.429069 kJ/mol
# Density = 2.596715 g / cm^3
# Si number density = 26.026389 Si / 1000 Ang^3
#
#
#
# Elastic Constant Matrix: (Units=GPa)
#
#
# Indices 1 2 3 4 5 6 
#
# 1 147.7925 63.9794 70.2348 0.0000 -33.2207 0.0000
# 2 63.9794 130.5595 83.0891 0.0000 -4.5732 0.0000
# 3 70.2348 83.0891 210.2548 0.0000 -43.0031 0.0000
# 4 0.0000 0.0000 0.0000 30.7133 0.0000 -2.5464
# 5 -33.2207 -4.5732 -43.0031 0.0000 64.9577 0.0000
# 6 0.0000 0.0000 0.0000 -2.5464 0.0000 45.6625
#
#
#
# Elastic Compliance Matrix: (Units=1/GPa)
#
#
# Indices 1 2 3 4 5 6 
#
# 1 0.009919 -0.004218 -0.000774 0.000000 0.004263 0.000000
# 2 -0.004218 0.012323 -0.004308 0.000000 -0.004142 0.000000
# 3 -0.000774 -0.004308 0.007604 0.000000 0.004334 0.000000
# 4 0.000000 0.000000 0.000000 0.032710 0.000000 0.001824
# 5 0.004263 -0.004142 0.004334 0.000000 0.020153 0.000000
# 6 0.000000 0.000000 0.000000 0.001824 0.000000 0.022002
#
#
# Mechanical properties :
#
#
# Convention : Reuss Voigt Hill
#
# Bulk Modulus (GPa) = 88.93441 102.57926 95.75684
# Shear Modulus (GPa) = 39.35180 46.35359 42.85269
#
# Velocity S-wave (km/s) = 3.89266 4.22479 4.06212
# Velocity P-wave (km/s) = 7.37894 7.95598 7.67289
#
# Compressibility (1/GPa) = 0.01124424
#
# Stress axis : x y z
#
# Youngs Moduli (GPa) = 100.82069 81.14936 131.51541
#
# Poissons Ratio (x) = 0.34232 0.10184
# Poissons Ratio (y) = 0.42530 0.56654
# Poissons Ratio (z) = 0.07807 0.34957
#
# Static dielectric constant tensor:
#      x y z
#    x 2.428920 0.000000 -0.230210 
#    y 0.000000 2.155460 0.000000 
#    z -0.230210 0.000000 2.158090 
# 
# From -- ./inp_files/128074.got.cif
#   From: 2010.05.17/outbox.cif.g08.bks.cpg/sg15_65_cif.got.tgz:128074.got - 2010.06.03 18:47:42.
