data_PCOD9307410
_publ_section_title
;
Structure prediction by ZEFSAII (Michael W. Deem and Ramdas Pophale) SiO2 
 PCOD9307410
Probable space group: C 2/C
;
_chemical_formula_sum "Si O2"
_cell_formula_units_Z 48
_cell_length_a 21.818726
_cell_length_b 13.874287
_cell_length_c 8.164802
_cell_angle_alpha 90.000000
_cell_angle_beta 119.889569
_cell_angle_gamma 90.000000
_cell_volume 2142.883443
_symmetry_space_group_name_H-M "C 2/C"
_symmetry_group_IT_number 15
_symmetry_cell_setting 'monoclinic'
loop_
_space_group_symop_operation_xyz
x,y,z
-x,y,1/2-z
-x,-y,-z
x,-y,1/2+z
1/2+x,1/2+y,z
1/2-x,1/2+y,1/2-z
1/2-x,1/2-y,-z
1/2+x,1/2-y,1/2+z
loop_
_atom_site_type_symbol
_atom_site_label
_atom_site_fract_x
_atom_site_fract_y
_atom_site_fract_z
Si Si1 0.617012 0.445192 0.089144
Si Si2 0.782205 0.537905 0.868656
Si Si3 0.955996 0.226311 0.859155
Si Si4 0.673300 0.858460 0.742725
Si Si5 0.785675 0.265176 0.221799
Si Si6 0.916797 0.862270 0.817002
O O1 0.698627 0.473809 0.224419
O O2 0.594269 0.367585 0.195459
O O3 0.573223 0.542174 0.060635
O O4 0.604163 0.398234 0.893206
O O5 0.821661 0.437335 0.894355
O O6 0.805027 0.624522 0.778993
O O7 0.797208 0.581736 0.065357
O O8 0.903635 0.314904 0.824524
O O9 0.000000 0.235401 0.750000
O O10 0.014160 0.203527 0.075873
O O11 0.727137 0.771936 0.772203
O O12 0.853757 0.198402 0.312591
O O13 0.750000 0.250000 0.000000
#
# Coordination Sequence:
#
# PCOD9307410 Si02
#       6
#     8   8   8   8   8   8
#     4  12  24  43  74 112 147 182 237 312 371 429
#     4  12  24  43  75 110 145 184 253 305 356 422
#     4  12  27  47  69 103 151 197 236 291 374 441
#     4  12  26  46  73 108 149 192 243 301 358 436
#     4  12  23  43  72 110 146 190 245 299 360 433
#     4  12  25  43  71 108 150 189 235 301 374 440
#
# _framework density 22.399725
#
# number of rings (size 3 to 8) (size 9 to 14) (size 15 to 20)
#    0.000    0.000    5.000    5.500    2.333    0.000 
#    0.000    5.000    0.000    0.000    0.000    0.000 
#    0.000    0.000    0.000    0.000    0.000    0.000 
#
# Total GULP energy -134396.631529 kJ/mol
# GULP energy per Si atom -5599.859647 kJ/mol
# Density = 2.234874 g / cm^3
# Si number density = 22.399725 Si / 1000 Ang^3
#
#
#
# Elastic Constant Matrix: (Units=GPa)
#
#
# Indices 1 2 3 4 5 6 
#
# 1 162.3092 63.6365 37.3881 0.0000 5.7093 0.0000
# 2 63.6365 112.8385 10.8941 0.0000 4.1110 0.0000
# 3 37.3881 10.8941 81.5995 0.0000 -2.6578 0.0000
# 4 0.0000 0.0000 0.0000 32.2031 0.0000 -7.6626
# 5 5.7093 4.1110 -2.6578 0.0000 32.8624 0.0000
# 6 0.0000 0.0000 0.0000 -7.6626 0.0000 42.5422
#
#
#
# Elastic Compliance Matrix: (Units=1/GPa)
#
#
# Indices 1 2 3 4 5 6 
#
# 1 0.008798 -0.004583 -0.003460 0.000000 -0.001235 0.000000
# 2 -0.004583 0.011414 0.000557 0.000000 -0.000587 0.000000
# 3 -0.003460 0.000557 0.013820 0.000000 0.001649 0.000000
# 4 0.000000 0.000000 0.000000 0.032443 0.000000 0.005844
# 5 -0.001235 -0.000587 0.001649 0.000000 0.030851 0.000000
# 6 0.000000 0.000000 0.000000 0.005844 0.000000 0.024559
#
#
# Mechanical properties :
#
#
# Convention : Reuss Voigt Hill
#
# Bulk Modulus (GPa) = 52.46378 64.50940 58.48659
# Shear Modulus (GPa) = 34.91366 37.84345 36.37856
#
# Velocity S-wave (km/s) = 3.95228 4.11476 4.03434
# Velocity P-wave (km/s) = 6.65581 7.17194 6.91869
#
# Compressibility (1/GPa) = 0.01906077
#
# Stress axis : x y z
#
# Youngs Moduli (GPa) = 113.65889 87.60872 72.36134
#
# Poissons Ratio (x) = 0.40150 0.25035
# Poissons Ratio (y) = 0.52088 -0.04029
# Poissons Ratio (z) = 0.39322 -0.04878
#
# Static dielectric constant tensor:
#      x y z
#    x 0.840570 0.000000 0.389380 
#    y 0.000000 1.833440 0.000000 
#    z 0.389380 0.000000 1.724540 
# 
# From -- ./inp_files/55427.got.cif
#   From: 2010.05.17/outbox.cif.g08.bks.cpg/sg15_28_cif.got.tgz:55427.got - 2010.06.03 18:47:42.
