data_PCOD9307528
_publ_section_title
;
Structure prediction by ZEFSAII (Michael W. Deem and Ramdas Pophale) SiO2 
 PCOD9307528
Probable space group: C 2/C
;
_chemical_formula_sum "Si O2"
_cell_formula_units_Z 40
_cell_length_a 7.772842
_cell_length_b 18.033665
_cell_length_c 16.298636
_cell_angle_alpha 90.000000
_cell_angle_beta 126.237763
_cell_angle_gamma 90.000000
_cell_volume 1842.712722
_symmetry_space_group_name_H-M "C 2/C"
_symmetry_group_IT_number 15
_symmetry_cell_setting 'monoclinic'
loop_
_space_group_symop_operation_xyz
x,y,z
-x,y,1/2-z
-x,-y,-z
x,-y,1/2+z
1/2+x,1/2+y,z
1/2-x,1/2+y,1/2-z
1/2-x,1/2-y,-z
1/2+x,1/2-y,1/2+z
loop_
_atom_site_type_symbol
_atom_site_label
_atom_site_fract_x
_atom_site_fract_y
_atom_site_fract_z
Si Si1 0.500000 0.876793 0.750000
Si Si2 0.500000 0.395041 0.250000
Si Si3 0.564442 0.568316 0.072982
Si Si4 0.250481 0.678705 0.186740
Si Si5 0.039960 0.197260 0.934012
Si Si6 0.712600 0.023372 0.107621
O O1 0.685493 0.930480 0.836351
O O2 0.341867 0.816697 0.748656
O O3 0.485353 0.347077 0.160785
O O4 0.302286 0.453701 0.184659
O O5 0.407551 0.555267 0.106111
O O6 0.500000 0.500000 0.000000
O O7 0.533021 0.640022 0.006999
O O8 0.500000 0.678784 0.250000
O O9 0.152721 0.745443 0.109508
O O10 0.155827 0.597661 0.140428
O O11 0.250000 0.250000 0.000000
O O12 0.500000 0.000000 0.000000
#
# Coordination Sequence:
#
# PCOD9307528 Si02
#       6
#     4   4   8   8   8   8
#     4  12  23  48  78  99 158 198 250 320 381 454
#     4  12  25  50  74 107 162 208 252 320 399 454
#     4  12  25  48  76 111 147 207 260 315 394 465
#     4  12  25  46  72 110 149 199 248 319 390 449
#     4  12  27  46  77 115 156 206 259 324 394 469
#     4  12  25  47  75 110 154 199 264 326 381 470
#
# _framework density 21.707127
#
# number of rings (size 3 to 8) (size 9 to 14) (size 15 to 20)
#    0.000    0.000    7.000    3.000    0.000    2.400 
#    1.800    0.000    0.000    0.000    0.000    0.000 
#    0.000    0.000    0.000    0.000    0.000    0.000 
#
# Total GULP energy -111484.851835 kJ/mol
# GULP energy per Si atom -5574.242592 kJ/mol
# Density = 2.165772 g / cm^3
# Si number density = 21.707127 Si / 1000 Ang^3
#
#
#
# Elastic Constant Matrix: (Units=GPa)
#
#
# Indices 1 2 3 4 5 6 
#
# 1 99.6204 16.8888 34.7507 0.0000 23.7936 0.0000
# 2 16.8888 150.5541 78.2653 0.0000 13.8509 0.0000
# 3 34.7507 78.2653 176.4077 0.0000 36.1968 0.0000
# 4 0.0000 0.0000 0.0000 55.1536 0.0000 -10.9668
# 5 23.7936 13.8509 36.1968 0.0000 42.4035 0.0000
# 6 0.0000 0.0000 0.0000 -10.9668 0.0000 24.0659
#
#
#
# Elastic Compliance Matrix: (Units=1/GPa)
#
#
# Indices 1 2 3 4 5 6 
#
# 1 0.011795 -0.000257 -0.001053 0.000000 -0.005636 0.000000
# 2 -0.000257 0.008649 -0.003924 0.000000 0.000669 0.000000
# 3 -0.001053 -0.003924 0.008769 0.000000 -0.005613 0.000000
# 4 0.000000 0.000000 0.000000 0.019938 0.000000 0.009086
# 5 -0.005636 0.000669 -0.005613 0.000000 0.031318 0.000000
# 6 0.000000 0.000000 0.000000 0.009086 0.000000 0.045693
#
#
# Mechanical properties :
#
#
# Convention : Reuss Voigt Hill
#
# Bulk Modulus (GPa) = 53.34855 76.26574 64.80714
# Shear Modulus (GPa) = 34.99488 44.10310 39.54899
#
# Velocity S-wave (km/s) = 4.01950 4.51237 4.27304
# Velocity P-wave (km/s) = 6.79498 7.89676 7.36650
#
# Compressibility (1/GPa) = 0.01874465
#
# Stress axis : x y z
#
# Youngs Moduli (GPa) = 84.78128 115.61635 114.04297
#
# Poissons Ratio (x) = 0.02974 0.12009
# Poissons Ratio (y) = 0.02181 0.44749
# Poissons Ratio (z) = 0.08928 0.45366
#
# Static dielectric constant tensor:
#      x y z
#    x 2.135180 0.000000 -0.186060 
#    y 0.000000 3.344630 0.000000 
#    z -0.186060 0.000000 1.887670 
# 
# From -- ./inp_files/232959.got.cif
#   From: 2010.05.17/outbox.cif.g08.bks.cpg/sg15_117_cif.got.tgz:232959.got - 2010.06.03 18:47:42.
