data_PCOD9307008
_publ_section_title
;
Structure prediction by ZEFSAII (Michael W. Deem and Ramdas Pophale) SiO2 
 PCOD9307008
Probable space group: C 2/C
;
_chemical_formula_sum "Si O2"
_cell_formula_units_Z 48
_cell_length_a 18.438943
_cell_length_b 4.961869
_cell_length_c 23.050374
_cell_angle_alpha 90.000000
_cell_angle_beta 63.870583
_cell_angle_gamma 90.000000
_cell_volume 1893.388168
_symmetry_space_group_name_H-M "C 2/C"
_symmetry_group_IT_number 15
_symmetry_cell_setting 'monoclinic'
loop_
_space_group_symop_operation_xyz
x,y,z
-x,y,1/2-z
-x,-y,-z
x,-y,1/2+z
1/2+x,1/2+y,z
1/2-x,1/2+y,1/2-z
1/2-x,1/2-y,-z
1/2+x,1/2-y,1/2+z
loop_
_atom_site_type_symbol
_atom_site_label
_atom_site_fract_x
_atom_site_fract_y
_atom_site_fract_z
Si Si1 0.523246 0.750811 0.324159
Si Si2 0.286144 0.928967 0.412206
Si Si3 0.919149 0.548633 0.954552
Si Si4 0.700561 0.339743 0.783414
Si Si5 0.064434 0.249483 0.658203
Si Si6 0.687999 0.089710 0.914804
O O1 0.493382 0.784657 0.401930
O O2 0.457155 0.551712 0.319436
O O3 0.612054 0.641104 0.287238
O O4 0.511189 0.051928 0.305033
O O5 0.336350 0.847835 0.452051
O O6 0.249127 0.662094 0.397665
O O7 0.354720 0.096071 0.351076
O O8 0.219181 0.160523 0.443218
O O9 0.928344 0.269795 0.915046
O O10 0.896837 0.513012 0.028668
O O11 0.757211 0.127883 0.730291
O O12 0.686580 0.210972 0.851511
#
# Coordination Sequence:
#
# PCOD9307008 Si02
#       6
#     8   8   8   8   8   8
#     4   9  19  39  59  85 118 159 201 246 308 365
#     4   9  20  33  59  97 129 147 187 243 325 392
#     4   8  21  32  65  94 126 152 183 252 329 377
#     4  12  27  45  61  81 118 172 224 263 291 348
#     4   8  18  33  61  89 125 153 177 241 317 374
#     4  12  21  36  61  92 126 161 197 249 308 373
#
# _framework density 25.351379000000001
#
# number of rings (size 3 to 8) (size 9 to 14) (size 15 to 20)
#    2.000    0.000    0.000    5.000    2.333    0.667 
#    0.000    0.833    0.000   41.000    0.000    0.000 
#    0.000    0.000    0.000    0.000    0.000    0.000 
#
# Total GULP energy -133842.849759 kJ/mol
# GULP energy per Si atom -5576.785407 kJ/mol
# Density = 2.529368 g / cm^3
# Si number density = 25.351379 Si / 1000 Ang^3
#
#
#
# Elastic Constant Matrix: (Units=GPa)
#
#
# Indices 1 2 3 4 5 6 
#
# 1 62.4358 25.6889 18.3697 0.0302 -15.2507 -0.0453
# 2 25.6889 122.9399 -13.4130 -0.1243 -7.1950 -0.0199
# 3 18.3697 -13.4130 97.4294 -0.0518 4.6194 -0.0118
# 4 0.0302 -0.1243 -0.0518 15.3168 -0.0194 -3.4340
# 5 -15.2507 -7.1950 4.6194 -0.0194 39.4007 0.0117
# 6 -0.0453 -0.0199 -0.0118 -3.4340 0.0117 25.4670
#
#
#
# Elastic Compliance Matrix: (Units=1/GPa)
#
#
# Indices 1 2 3 4 5 6 
#
# 1 0.021317 -0.004533 -0.005023 -0.000082 0.008012 0.000017
# 2 -0.004533 0.009298 0.002149 0.000094 -0.000309 0.000013
# 3 -0.005023 0.002149 0.011645 0.000065 -0.002917 0.000008
# 4 -0.000082 0.000094 0.000065 0.067324 0.000008 0.009078
# 5 0.008012 -0.000309 -0.002917 0.000008 0.028767 0.000001
# 6 0.000017 0.000013 0.000008 0.009078 0.000001 0.040491
#
#
# Mechanical properties :
#
#
# Convention : Reuss Voigt Hill
#
# Bulk Modulus (GPa) = 36.43582 38.23290 37.33436
# Shear Modulus (GPa) = 24.65427 32.84753 28.75090
#
# Velocity S-wave (km/s) = 3.12188 3.60347 3.37129
# Velocity P-wave (km/s) = 5.23435 5.69450 5.46926
#
# Compressibility (1/GPa) = 0.02744552
#
# Stress axis : x y z
#
# Youngs Moduli (GPa) = 46.91158 107.55144 85.87239
#
# Poissons Ratio (x) = 0.48758 0.43135
# Poissons Ratio (y) = 0.21267 -0.18458
# Poissons Ratio (z) = 0.23564 -0.23118
#
# Static dielectric constant tensor:
#      x y z
#    x 2.013710 0.000000 0.035090 
#    y 0.000000 1.920010 -0.000050 
#    z 0.035090 -0.000050 2.127790 
# 
# From -- ./inp_files/301564.got.cif
#   From: 2010.05.17/outbox.cif.g08.bks.cpg/sg15_151_cif.got.tgz:301564.got - 2010.06.03 18:47:42.
