data_PCOD9307939
_publ_section_title
;
Structure prediction by ZEFSAII (Michael W. Deem and Ramdas Pophale) SiO2 
 PCOD9307939
Probable space group: C 2/C
;
_chemical_formula_sum "Si O2"
_cell_formula_units_Z 52
_cell_length_a 14.378101
_cell_length_b 15.689705
_cell_length_c 10.547946
_cell_angle_alpha 90.000000
_cell_angle_beta 109.111501
_cell_angle_gamma 90.000000
_cell_volume 2248.341817
_symmetry_space_group_name_H-M "C 2/C"
_symmetry_group_IT_number 15
_symmetry_cell_setting 'monoclinic'
loop_
_space_group_symop_operation_xyz
x,y,z
-x,y,1/2-z
-x,-y,-z
x,-y,1/2+z
1/2+x,1/2+y,z
1/2-x,1/2+y,1/2-z
1/2-x,1/2-y,-z
1/2+x,1/2-y,1/2+z
loop_
_atom_site_type_symbol
_atom_site_label
_atom_site_fract_x
_atom_site_fract_y
_atom_site_fract_z
Si Si1 0.235893 0.537922 0.503618
Si Si2 0.566241 0.918587 0.515834
Si Si3 0.500000 0.191389 0.750000
Si Si4 0.685406 0.305037 0.864279
Si Si5 0.904426 0.940637 0.491948
Si Si6 0.848552 0.328650 0.719816
Si Si7 0.108570 0.861126 0.265262
O O1 0.171782 0.458988 0.524547
O O2 0.312803 0.503688 0.434477
O O3 0.171250 0.608477 0.404828
O O4 0.304757 0.581454 0.639965
O O5 0.523103 0.863761 0.383426
O O6 0.571582 0.867014 0.648315
O O7 0.500000 0.000000 0.500000
O O8 0.597416 0.246264 0.775542
O O9 0.755125 0.321376 0.774213
O O10 0.750000 0.250000 0.000000
O O11 0.626094 0.388919 0.893019
O O12 0.894554 0.865104 0.386819
O O13 0.000000 0.000000 0.500000
O O14 0.876242 0.235087 0.684144
O O15 0.000000 0.894819 0.250000
#
# Coordination Sequence:
#
# PCOD9307939 Si02
#       7
#     8   8   4   8   8   8   8
#     4  12  27  47  72 108 146 192 243 307 377 434
#     4  12  27  47  73 104 142 192 247 306 361 440
#     4  12  26  44  76 104 138 190 248 288 370 436
#     4  12  25  49  75 106 146 197 246 302 366 454
#     4  12  25  46  72 108 149 187 246 310 377 447
#     4  12  27  48  73 101 151 191 245 304 363 452
#     4  12  27  46  73 107 148 193 244 305 379 452
#
# _framework density 23.128157000000002
#
# number of rings (size 3 to 8) (size 9 to 14) (size 15 to 20)
#    0.000    0.000    6.154    2.308    6.462    1.231 
#    0.000    0.000    0.000    0.000    0.000    0.000 
#    0.000    0.000    0.000    0.000    0.000    0.000 
#
# Total GULP energy -145299.409453 kJ/mol
# GULP energy per Si atom -5588.438825 kJ/mol
# Density = 2.307552 g / cm^3
# Si number density = 23.128157 Si / 1000 Ang^3
#
#
#
# Elastic Constant Matrix: (Units=GPa)
#
#
# Indices 1 2 3 4 5 6 
#
# 1 92.0961 8.3022 19.1822 0.0000 21.8429 0.0000
# 2 8.3022 98.6336 28.9375 0.0000 22.7282 0.0000
# 3 19.1822 28.9375 90.0724 0.0000 23.3316 0.0000
# 4 0.0000 0.0000 0.0000 53.8377 0.0000 1.8296
# 5 21.8429 22.7282 23.3316 0.0000 33.3078 0.0000
# 6 0.0000 0.0000 0.0000 1.8296 0.0000 44.8364
#
#
#
# Elastic Compliance Matrix: (Units=1/GPa)
#
#
# Indices 1 2 3 4 5 6 
#
# 1 0.013002 0.001172 -0.000892 0.000000 -0.008702 0.000000
# 2 0.001172 0.012478 -0.002265 0.000000 -0.007697 0.000000
# 3 -0.000892 -0.002265 0.014010 0.000000 -0.007684 0.000000
# 4 0.000000 0.000000 0.000000 0.018600 0.000000 -0.000759
# 5 -0.008702 -0.007697 -0.007684 0.000000 0.046364 0.000000
# 6 0.000000 0.000000 0.000000 -0.000759 0.000000 0.022334
#
#
# Mechanical properties :
#
#
# Convention : Reuss Voigt Hill
#
# Bulk Modulus (GPa) = 28.15126 43.73841 35.94483
# Shear Modulus (GPa) = 35.06384 41.35508 38.20946
#
# Velocity S-wave (km/s) = 3.89789 4.23316 4.06898
# Velocity P-wave (km/s) = 5.69705 6.54563 6.13603
#
# Compressibility (1/GPa) = 0.03552239
#
# Stress axis : x y z
#
# Youngs Moduli (GPa) = 76.91026 80.14178 71.37786
#
# Poissons Ratio (x) = -0.09396 0.06363
# Poissons Ratio (y) = -0.09017 0.16165
# Poissons Ratio (z) = 0.06857 0.18150
#
# Static dielectric constant tensor:
#      x y z
#    x 1.781500 0.000000 0.001230 
#    y 0.000000 1.840980 0.000000 
#    z 0.001230 0.000000 1.871350 
# 
# From -- ./inp_files/98451.got.cif
#   From: 2010.05.17/outbox.cif.g08.bks.cpg/sg15_50_cif.got.tgz:98451.got - 2010.06.03 18:47:42.
