data_PCOD9307883
_publ_section_title
;
Structure prediction by ZEFSAII (Michael W. Deem and Ramdas Pophale) SiO2 
 PCOD9307883
Probable space group: C 2/C
;
_chemical_formula_sum "Si O2"
_cell_formula_units_Z 40
_cell_length_a 14.729030
_cell_length_b 12.444560
_cell_length_c 24.961042
_cell_angle_alpha 90.000000
_cell_angle_beta 157.098796
_cell_angle_gamma 90.000000
_cell_volume 1780.434371
_symmetry_space_group_name_H-M "C 2/C"
_symmetry_group_IT_number 15
_symmetry_cell_setting 'monoclinic'
loop_
_space_group_symop_operation_xyz
x,y,z
-x,y,1/2-z
-x,-y,-z
x,-y,1/2+z
1/2+x,1/2+y,z
1/2-x,1/2+y,1/2-z
1/2-x,1/2-y,-z
1/2+x,1/2-y,1/2+z
loop_
_atom_site_type_symbol
_atom_site_label
_atom_site_fract_x
_atom_site_fract_y
_atom_site_fract_z
Si Si1 0.777038 0.155247 0.608686
Si Si2 0.531031 0.424955 0.566905
Si Si3 0.671833 0.182067 0.195804
Si Si4 0.578001 0.447234 0.875799
Si Si5 0.495471 0.184692 0.937719
O O1 0.585090 0.202023 0.464192
O O2 0.629079 0.125736 0.581109
O O3 0.000000 0.223565 0.750000
O O4 0.305799 0.211582 0.788293
O O5 0.500000 0.500000 0.500000
O O6 0.790608 0.397891 0.732373
O O7 0.401689 0.467681 0.549607
O O8 0.439875 0.304194 0.506117
O O9 0.834910 0.119789 0.240872
O O10 0.107677 0.055274 0.859046
O O11 0.785539 0.372716 0.968098
#
# Coordination Sequence:
#
# PCOD9307883 Si02
#       5
#     8   8   8   8   8
#     4  12  25  40  66  99 134 179 211 275 334 390
#     4   8  18  44  67  95 131 168 216 273 329 383
#     4   8  22  43  61  95 132 161 232 261 317 395
#     4   9  21  39  71  94 132 166 223 271 321 389
#     4   9  21  42  68  95 132 169 223 267 330 386
#
# _framework density 22.466428000000001
#
# number of rings (size 3 to 8) (size 9 to 14) (size 15 to 20)
#    2.400    0.000    0.000    3.000    5.600    0.800 
#   10.800    1.000    4.400    0.000    0.000    0.000 
#    0.000    0.000    0.000    0.000    0.000    0.000 
#
# Total GULP energy -111343.192184 kJ/mol
# GULP energy per Si atom -5567.159609 kJ/mol
# Density = 2.241529 g / cm^3
# Si number density = 22.466428 Si / 1000 Ang^3
#
#
#
# Elastic Constant Matrix: (Units=GPa)
#
#
# Indices 1 2 3 4 5 6 
#
# 1 136.0877 39.1204 22.8643 0.0009 11.0392 0.0002
# 2 39.1204 40.1764 5.2369 0.0034 -0.0144 -0.0002
# 3 22.8643 5.2369 118.2050 0.0134 -9.0669 -0.0011
# 4 0.0009 0.0034 0.0134 12.8716 -0.0018 16.9440
# 5 11.0392 -0.0144 -9.0669 -0.0018 15.9511 0.0001
# 6 0.0002 -0.0002 -0.0011 16.9440 0.0001 41.2528
#
#
#
# Elastic Compliance Matrix: (Units=1/GPa)
#
#
# Indices 1 2 3 4 5 6 
#
# 1 0.011738 -0.011106 -0.002512 0.000008 -0.009562 -0.000003
# 2 -0.011106 0.035548 0.001218 -0.000020 0.008411 0.000008
# 3 -0.002512 0.001218 0.009437 -0.000020 0.007103 0.000009
# 4 0.000008 -0.000020 -0.000020 0.169147 0.000002 -0.069475
# 5 -0.009562 0.008411 0.007103 0.000002 0.073354 -0.000001
# 6 -0.000003 0.000008 0.000009 -0.069475 -0.000001 0.052777
#
#
# Mechanical properties :
#
#
# Convention : Reuss Voigt Hill
#
# Bulk Modulus (GPa) = 31.32379 47.65695 39.49037
# Shear Modulus (GPa) = 12.90519 29.16493 21.03506
#
# Velocity S-wave (km/s) = 2.39931 3.60690 3.06320
# Velocity P-wave (km/s) = 4.65278 6.21328 5.48877
#
# Compressibility (1/GPa) = 0.03192462
#
# Stress axis : x y z
#
# Youngs Moduli (GPa) = 85.19048 28.13070 105.96976
#
# Poissons Ratio (x) = 0.31242 0.26619
# Poissons Ratio (y) = 0.94611 -0.12911
# Poissons Ratio (z) = 0.21399 -0.03427
#
# Static dielectric constant tensor:
#      x y z
#    x 1.855070 0.000000 -0.058420 
#    y 0.000000 1.888250 0.000000 
#    z -0.058420 0.000000 1.898070 
# 
# From -- ./inp_files/296646.got.cif
#   From: 2010.05.17/outbox.cif.g08.bks.cpg/sg15_149_cif.got.tgz:296646.got - 2010.06.03 18:47:42.
