data_PCOD9307060
_publ_section_title
;
Structure prediction by ZEFSAII (Michael W. Deem and Ramdas Pophale) SiO2 
 PCOD9307060
Probable space group: C 2/C
;
_chemical_formula_sum "Si O2"
_cell_formula_units_Z 44
_cell_length_a 22.199471
_cell_length_b 7.875770
_cell_length_c 12.071508
_cell_angle_alpha 90.000000
_cell_angle_beta 115.200634
_cell_angle_gamma 90.000000
_cell_volume 1909.679527
_symmetry_space_group_name_H-M "C 2/C"
_symmetry_group_IT_number 15
_symmetry_cell_setting 'monoclinic'
loop_
_space_group_symop_operation_xyz
x,y,z
-x,y,1/2-z
-x,-y,-z
x,-y,1/2+z
1/2+x,1/2+y,z
1/2-x,1/2+y,1/2-z
1/2-x,1/2-y,-z
1/2+x,1/2-y,1/2+z
loop_
_atom_site_type_symbol
_atom_site_label
_atom_site_fract_x
_atom_site_fract_y
_atom_site_fract_z
Si Si1 0.124455 0.791596 0.166297
Si Si2 0.262263 0.199974 0.638315
Si Si3 0.401027 0.666756 0.329080
Si Si4 0.688726 0.138894 0.412649
Si Si5 0.584268 0.026717 0.499670
Si Si6 0.000000 0.649038 0.750000
O O1 0.195264 0.796439 0.157246
O O2 0.138058 0.757032 0.306125
O O3 0.087582 0.630227 0.086436
O O4 0.089253 0.972762 0.128332
O O5 0.250000 0.250000 0.500000
O O6 0.322686 0.307605 0.738183
O O7 0.288253 0.006822 0.653403
O O8 0.442727 0.731190 0.255944
O O9 0.422426 0.796934 0.441740
O O10 0.750000 0.250000 0.500000
O O11 0.653360 0.048021 0.487265
O O12 0.530783 0.971985 0.367274
#
# Coordination Sequence:
#
# PCOD9307060 Si02
#       6
#     8   8   8   8   8   4
#     4  12  25  44  73 109 148 188 246 313 373 433
#     4  12  21  42  69 108 151 183 238 306 367 442
#     4  12  27  46  74 108 143 196 248 301 371 447
#     4  12  24  41  71 109 150 192 237 305 379 440
#     4  12  25  50  71 107 144 197 249 301 372 439
#     4  12  26  52  76 100 152 202 254 302 366 446
#
# _framework density 23.040514999999999
#
# number of rings (size 3 to 8) (size 9 to 14) (size 15 to 20)
#    0.000    0.000    5.455    4.909    0.000    2.182 
#    0.000    4.545    0.000    0.000    0.000    0.000 
#    0.000    0.000    0.000    0.000    0.000    0.000 
#
# Total GULP energy -123287.173579 kJ/mol
# GULP energy per Si atom -5603.962435 kJ/mol
# Density = 2.298807 g / cm^3
# Si number density = 23.040515 Si / 1000 Ang^3
#
#
#
# Elastic Constant Matrix: (Units=GPa)
#
#
# Indices 1 2 3 4 5 6 
#
# 1 84.3631 19.6300 9.1996 0.0000 -9.2967 0.0000
# 2 19.6300 182.8975 59.6750 0.0000 -1.4382 0.0000
# 3 9.1996 59.6750 117.8385 0.0000 8.0107 0.0000
# 4 0.0000 0.0000 0.0000 27.2258 0.0000 -8.7338
# 5 -9.2967 -1.4382 8.0107 0.0000 30.4404 0.0000
# 6 0.0000 0.0000 0.0000 -8.7338 0.0000 16.5800
#
#
#
# Elastic Compliance Matrix: (Units=1/GPa)
#
#
# Indices 1 2 3 4 5 6 
#
# 1 0.012624 -0.001094 -0.000703 0.000000 0.003989 0.000000
# 2 -0.001094 0.006688 -0.003360 0.000000 0.000866 0.000000
# 3 -0.000703 -0.003360 0.010455 0.000000 -0.003125 0.000000
# 4 0.000000 0.000000 0.000000 0.044199 0.000000 0.023282
# 5 0.003989 0.000866 -0.003125 0.000000 0.034933 0.000000
# 6 0.000000 0.000000 0.000000 0.023282 0.000000 0.072578
#
#
# Mechanical properties :
#
#
# Convention : Reuss Voigt Hill
#
# Bulk Modulus (GPa) = 51.40567 62.45648 56.93108
# Shear Modulus (GPa) = 25.21733 34.62219 29.91976
#
# Velocity S-wave (km/s) = 3.31188 3.88063 3.60748
# Velocity P-wave (km/s) = 6.08146 6.87351 6.48958
#
# Compressibility (1/GPa) = 0.01945311
#
# Stress axis : x y z
#
# Youngs Moduli (GPa) = 79.21217 149.51602 95.64578
#
# Poissons Ratio (x) = 0.16362 0.06719
# Poissons Ratio (y) = 0.08669 0.32141
# Poissons Ratio (z) = 0.05565 0.50244
#
# Static dielectric constant tensor:
#      x y z
#    x 1.886640 0.000000 0.020740 
#    y 0.000000 1.831010 0.000000 
#    z 0.020740 0.000000 1.876140 
# 
# From -- ./inp_files/116871.got.cif
#   From: 2010.05.17/outbox.cif.g08.bks.cpg/sg15_59_cif.got.tgz:116871.got - 2010.06.03 18:47:42.
