data_PCOD9307218
_publ_section_title
;
Structure prediction by ZEFSAII (Michael W. Deem and Ramdas Pophale) SiO2 
 PCOD9307218
Probable space group: C 2/C
;
_chemical_formula_sum "Si O2"
_cell_formula_units_Z 36
_cell_length_a 8.003974
_cell_length_b 15.999357
_cell_length_c 12.305626
_cell_angle_alpha 90.000000
_cell_angle_beta 65.258278
_cell_angle_gamma 90.000000
_cell_volume 1431.182950
_symmetry_space_group_name_H-M "C 2/C"
_symmetry_group_IT_number 15
_symmetry_cell_setting 'monoclinic'
loop_
_space_group_symop_operation_xyz
x,y,z
-x,y,1/2-z
-x,-y,-z
x,-y,1/2+z
1/2+x,1/2+y,z
1/2-x,1/2+y,1/2-z
1/2-x,1/2-y,-z
1/2+x,1/2-y,1/2+z
loop_
_atom_site_type_symbol
_atom_site_label
_atom_site_fract_x
_atom_site_fract_y
_atom_site_fract_z
Si Si1 0.240322 0.661657 0.938175
Si Si2 0.403780 0.110873 0.157935
Si Si3 0.288645 0.791523 0.300353
Si Si4 0.000000 0.906699 0.750000
Si Si5 0.445639 0.403877 0.010741
O O1 0.233715 0.672392 0.813008
O O2 0.432818 0.626237 0.922454
O O3 0.250000 0.750000 0.000000
O O4 0.071812 0.605738 0.028114
O O5 0.500000 0.100029 0.250000
O O6 0.330454 0.206548 0.161924
O O7 0.214687 0.057972 0.192068
O O8 0.500000 0.766806 0.250000
O O9 0.245057 0.859781 0.405471
O O10 0.998475 0.874160 0.624674
O O11 0.500000 0.500000 0.000000
#
# Coordination Sequence:
#
# PCOD9307218 Si02
#       5
#     8   8   8   4   8
#     4  12  23  44  75 108 144 191 249 310 370 439
#     4  12  22  42  73 112 143 182 241 309 376 429
#     4  12  25  44  74 110 149 190 245 312 381 447
#     4  12  26  46  74 106 146 186 250 308 364 452
#     4  12  28  48  72 105 151 204 247 307 379 457
#
# _framework density 25.154018000000001
#
# number of rings (size 3 to 8) (size 9 to 14) (size 15 to 20)
#    0.000    0.000    7.778    2.000    3.111    1.778 
#    4.000    2.222    0.000    0.000    0.000    0.000 
#    0.000    0.000    0.000    0.000    0.000    0.000 
#
# Total GULP energy -100459.062808 kJ/mol
# GULP energy per Si atom -5581.059045 kJ/mol
# Density = 2.509677 g / cm^3
# Si number density = 25.154018 Si / 1000 Ang^3
#
#
#
# Elastic Constant Matrix: (Units=GPa)
#
#
# Indices 1 2 3 4 5 6 
#
# 1 126.2422 -12.6508 10.9718 0.0000 0.9238 0.0000
# 2 -12.6508 74.1298 10.0115 0.0000 4.5092 0.0000
# 3 10.9718 10.0115 174.5530 0.0000 6.5228 0.0000
# 4 0.0000 0.0000 0.0000 17.6909 0.0000 4.2841
# 5 0.9238 4.5092 6.5228 0.0000 56.3613 0.0000
# 6 0.0000 0.0000 0.0000 4.2841 0.0000 7.7325
#
#
#
# Elastic Compliance Matrix: (Units=1/GPa)
#
#
# Indices 1 2 3 4 5 6 
#
# 1 0.008122 0.001477 -0.000588 0.000000 -0.000183 0.000000
# 2 0.001477 0.013920 -0.000852 0.000000 -0.001039 0.000000
# 3 -0.000588 -0.000852 0.005837 0.000000 -0.000598 0.000000
# 4 0.000000 0.000000 0.000000 0.065285 0.000000 -0.036171
# 5 -0.000183 -0.001039 -0.000598 0.000000 0.017898 0.000000
# 6 0.000000 0.000000 0.000000 -0.036171 0.000000 0.149365
#
#
# Mechanical properties :
#
#
# Convention : Reuss Voigt Hill
#
# Bulk Modulus (GPa) = 35.77707 43.50998 39.64353
# Shear Modulus (GPa) = 18.54103 40.79646 29.66874
#
# Velocity S-wave (km/s) = 2.71790 4.03161 3.43809
# Velocity P-wave (km/s) = 4.90952 6.24554 5.61739
#
# Compressibility (1/GPa) = 0.02795086
#
# Stress axis : x y z
#
# Youngs Moduli (GPa) = 123.12647 71.83818 171.31728
#
# Poissons Ratio (x) = -0.10608 0.10079
# Poissons Ratio (y) = -0.18181 0.14603
# Poissons Ratio (z) = 0.07244 0.06123
#
# Static dielectric constant tensor:
#      x y z
#    x 2.053800 0.000000 -0.045210 
#    y 0.000000 1.978930 0.000000 
#    z -0.045210 0.000000 1.877460 
# 
# From -- ./inp_files/76579.got.cif
#   From: 2010.05.17/outbox.cif.g08.bks.cpg/sg15_39_cif.got.tgz:76579.got - 2010.06.03 18:47:42.
