data_PCOD9307045
_publ_section_title
;
Structure prediction by ZEFSAII (Michael W. Deem and Ramdas Pophale) SiO2 
 PCOD9307045
Probable space group: C 2/C
;
_chemical_formula_sum "Si O2"
_cell_formula_units_Z 24
_cell_length_a 8.820362
_cell_length_b 17.150607
_cell_length_c 6.813653
_cell_angle_alpha 90.000000
_cell_angle_beta 76.623363
_cell_angle_gamma 90.000000
_cell_volume 1002.768910
_symmetry_space_group_name_H-M "C 2/C"
_symmetry_group_IT_number 15
_symmetry_cell_setting 'monoclinic'
loop_
_space_group_symop_operation_xyz
x,y,z
-x,y,1/2-z
-x,-y,-z
x,-y,1/2+z
1/2+x,1/2+y,z
1/2-x,1/2+y,1/2-z
1/2-x,1/2-y,-z
1/2+x,1/2-y,1/2+z
loop_
_atom_site_type_symbol
_atom_site_label
_atom_site_fract_x
_atom_site_fract_y
_atom_site_fract_z
Si Si1 0.385866 0.107762 0.437191
Si Si2 0.804682 0.330173 0.571966
Si Si3 0.622388 0.488044 0.587256
O O1 0.500000 0.060327 0.250000
O O2 0.514817 0.149841 0.528699
O O3 0.306673 0.168854 0.310425
O O4 0.258604 0.053002 0.565294
O O5 0.750000 0.250000 0.500000
O O6 0.694045 0.401520 0.545374
O O7 0.577697 0.489780 0.853632
#
# Coordination Sequence:
#
# PCOD9307045 Si02
#       3
#     8   8   8
#     4   8  20  40  69  94 123 175 227 256 329 397
#     4   9  20  41  66  93 132 168 222 276 324 383
#     4  12  21  40  67  97 134 170 218 272 329 402
#
# _framework density 23.933729
#
# number of rings (size 3 to 8) (size 9 to 14) (size 15 to 20)
#    2.000    0.000    3.333    1.000    0.000    0.000 
#    6.000    6.667    0.000    0.000    0.000    0.000 
#    0.000    0.000    0.000    0.000    0.000    0.000 
#
# Total GULP energy -66863.472395 kJ/mol
# GULP energy per Si atom -5571.956033 kJ/mol
# Density = 2.387925 g / cm^3
# Si number density = 23.933729 Si / 1000 Ang^3
#
#
#
# Elastic Constant Matrix: (Units=GPa)
#
#
# Indices 1 2 3 4 5 6 
#
# 1 203.6305 143.3987 80.6476 0.0000 23.1539 0.0000
# 2 143.3987 223.7035 84.7291 0.0000 20.5115 0.0000
# 3 80.6476 84.7291 140.4339 0.0000 -1.9791 0.0000
# 4 0.0000 0.0000 0.0000 18.8712 0.0000 23.1201
# 5 23.1539 20.5115 -1.9791 0.0000 42.5590 0.0000
# 6 0.0000 0.0000 0.0000 23.1201 0.0000 28.6832
#
#
#
# Elastic Compliance Matrix: (Units=1/GPa)
#
#
# Indices 1 2 3 4 5 6 
#
# 1 0.009856 -0.005025 -0.002671 0.000000 -0.003064 0.000000
# 2 -0.005025 0.008754 -0.002418 0.000000 -0.001598 0.000000
# 3 -0.002671 -0.002418 0.010157 0.000000 0.003091 0.000000
# 4 0.000000 0.000000 0.000000 4.250136 0.000000 -3.425824
# 5 -0.003064 -0.001598 0.003091 0.000000 0.026078 0.000000
# 6 0.000000 0.000000 0.000000 -3.425824 0.000000 2.796250
#
#
# Mechanical properties :
#
#
# Convention : Reuss Voigt Hill
#
# Bulk Modulus (GPa) = 117.12596 131.70208 124.41402
# Shear Modulus (GPa) = 0.70182 35.28884 17.99533
#
# Velocity S-wave (km/s) = 0.54210 3.84401 2.74502
# Velocity P-wave (km/s) = 7.03105 8.65154 7.88305
#
# Compressibility (1/GPa) = 0.00853782
#
# Stress axis : x y z
#
# Youngs Moduli (GPa) = 101.46015 114.23575 98.44964
#
# Poissons Ratio (x) = 0.57405 0.26300
# Poissons Ratio (y) = 0.50985 0.23807
# Poissons Ratio (z) = 0.27104 0.27625
#
# Static dielectric constant tensor:
#      x y z
#    x 1.904050 0.000000 0.045910 
#    y 0.000000 1.774110 0.000000 
#    z 0.045910 0.000000 2.260880 
# 
# From -- ./inp_files/3259.got.cif
#   From: 2010.05.17/outbox.cif.g08.bks.cpg/sg15_2_cif.got.tgz:3259.got - 2010.06.03 18:47:42.
