data_PCOD9307025
_publ_section_title
;
Structure prediction by ZEFSAII (Michael W. Deem and Ramdas Pophale) SiO2 
 PCOD9307025
Probable space group: C 2/C
;
_chemical_formula_sum "Si O2"
_cell_formula_units_Z 44
_cell_length_a 7.979155
_cell_length_b 17.627619
_cell_length_c 21.506253
_cell_angle_alpha 90.000000
_cell_angle_beta 142.909082
_cell_angle_gamma 90.000000
_cell_volume 1824.279395
_symmetry_space_group_name_H-M "C 2/C"
_symmetry_group_IT_number 15
_symmetry_cell_setting 'monoclinic'
loop_
_space_group_symop_operation_xyz
x,y,z
-x,y,1/2-z
-x,-y,-z
x,-y,1/2+z
1/2+x,1/2+y,z
1/2-x,1/2+y,1/2-z
1/2-x,1/2-y,-z
1/2+x,1/2-y,1/2+z
loop_
_atom_site_type_symbol
_atom_site_label
_atom_site_fract_x
_atom_site_fract_y
_atom_site_fract_z
Si Si1 0.025725 0.641436 0.607557
Si Si2 0.197865 0.986245 0.659261
Si Si3 0.500000 0.256841 0.250000
Si Si4 0.280816 0.110860 0.974730
Si Si5 0.197766 0.523612 0.180237
Si Si6 0.098683 0.843667 0.547840
O O1 0.267572 0.689028 0.712713
O O2 0.124500 0.639804 0.564426
O O3 0.023371 0.554148 0.628655
O O4 0.718550 0.673187 0.527548
O O5 0.500000 0.026589 0.750000
O O6 0.148668 0.930843 0.586685
O O7 0.242507 0.937598 0.735610
O O8 0.945255 0.042890 0.596023
O O9 0.678611 0.205894 0.349483
O O10 0.147037 0.163310 0.988541
O O11 0.556113 0.077946 0.089134
O O12 0.500000 0.496893 0.250000
#
# Coordination Sequence:
#
# PCOD9307025 Si02
#       6
#     8   8   4   8   8   8
#     4  12  25  44  68  97 134 179 223 276 331 396
#     4  12  21  38  66 100 136 169 213 271 340 397
#     4  12  26  50  66  92 136 184 234 268 324 398
#     4  12  24  43  70 105 136 168 220 284 344 396
#     4  12  21  38  66 100 136 169 213 271 340 397
#     4  12  25  44  68  97 134 179 223 276 331 396
#
# _framework density 24.119112999999999
#
# number of rings (size 3 to 8) (size 9 to 14) (size 15 to 20)
#    0.000    0.000    7.273    3.818    0.000    0.727 
#    0.000    1.818    0.000    0.000    0.000    0.000 
#    0.000    0.000    0.000    0.000    0.000    0.000 
#
# Total GULP energy -122980.777147 kJ/mol
# GULP energy per Si atom -5590.035325 kJ/mol
# Density = 2.406422 g / cm^3
# Si number density = 24.119113 Si / 1000 Ang^3
#
#
#
# Elastic Constant Matrix: (Units=GPa)
#
#
# Indices 1 2 3 4 5 6 
#
# 1 127.2715 39.2925 59.4731 -0.0004 -10.5294 -0.0001
# 2 39.2925 58.8685 17.2686 0.0004 11.4545 0.0001
# 3 59.4731 17.2686 131.2118 0.0004 33.8884 0.0003
# 4 -0.0004 0.0004 0.0004 35.2548 0.0000 5.1985
# 5 -10.5294 11.4545 33.8884 0.0000 45.5036 -0.0001
# 6 -0.0001 0.0001 0.0003 5.1985 -0.0001 -0.5200
#
#
#
# Elastic Compliance Matrix: (Units=1/GPa)
#
#
# Indices 1 2 3 4 5 6 
#
# 1 0.017208 -0.011332 -0.009996 0.000001 0.014279 -0.000004
# 2 -0.011332 0.025557 0.005091 -0.000001 -0.012847 0.000002
# 3 -0.009996 0.005091 0.015366 -0.000001 -0.015039 0.000004
# 4 0.000001 -0.000001 -0.000001 0.011465 0.000001 0.114610
# 5 0.014279 -0.012847 -0.015039 0.000001 0.039714 -0.000006
# 6 -0.000004 0.000002 0.000004 0.114610 -0.000006 -0.777255
#
#
# Mechanical properties :
#
#
# Convention : Reuss Voigt Hill
#
# Bulk Modulus (GPa) = 38.97644 61.04668 50.01156
# Shear Modulus (GPa) = -7.97554 29.46885 10.74666
#
# Velocity S-wave (km/s) = -1.82041 3.49922 2.11313
# Velocity P-wave (km/s) = 3.43169 6.45690 5.17050
#
# Compressibility (1/GPa) = 0.02565653
#
# Stress axis : x y z
#
# Youngs Moduli (GPa) = 58.11141 39.12819 65.07753
#
# Poissons Ratio (x) = 0.44340 0.65054
# Poissons Ratio (y) = 0.65852 -0.33130
# Poissons Ratio (z) = 0.58091 -0.19919
#
# Static dielectric constant tensor:
#      x y z
#    x 2.032170 0.000000 -0.008040 
#    y 0.000000 1.963390 0.000000 
#    z -0.008040 0.000000 1.888140 
# 
# From -- ./inp_files/266466.got.cif
#   From: 2010.05.17/outbox.cif.g08.bks.cpg/sg15_134_cif.got.tgz:266466.got - 2010.06.03 18:47:42.
