data_PCOD9307517
_publ_section_title
;
Structure prediction by ZEFSAII (Michael W. Deem and Ramdas Pophale) SiO2 
 PCOD9307517
Probable space group: C 2/C
;
_chemical_formula_sum "Si O2"
_cell_formula_units_Z 36
_cell_length_a 24.012120
_cell_length_b 5.845520
_cell_length_c 10.654694
_cell_angle_alpha 90.000000
_cell_angle_beta 88.031177
_cell_angle_gamma 90.000000
_cell_volume 1494.645449
_symmetry_space_group_name_H-M "C 2/C"
_symmetry_group_IT_number 15
_symmetry_cell_setting 'monoclinic'
loop_
_space_group_symop_operation_xyz
x,y,z
-x,y,1/2-z
-x,-y,-z
x,-y,1/2+z
1/2+x,1/2+y,z
1/2-x,1/2+y,1/2-z
1/2-x,1/2-y,-z
1/2+x,1/2-y,1/2+z
loop_
_atom_site_type_symbol
_atom_site_label
_atom_site_fract_x
_atom_site_fract_y
_atom_site_fract_z
Si Si1 0.437827 0.363838 0.370826
Si Si2 0.553254 0.863213 0.885563
Si Si3 0.500000 0.250927 0.750000
Si Si4 0.719221 0.059835 0.760296
Si Si5 0.350736 0.939009 0.979580
O O1 0.427060 0.310633 0.224548
O O2 0.488438 0.198974 0.412474
O O3 0.469434 0.601280 0.358374
O O4 0.382650 0.301018 0.448850
O O5 0.547339 0.101251 0.811429
O O6 0.599804 0.889446 0.984961
O O7 0.748229 0.311619 0.740196
O O8 0.678742 0.024664 0.643933
O O9 0.689156 0.076726 0.897758
#
# Coordination Sequence:
#
# PCOD9307517 Si02
#       5
#     8   8   4   8   8
#     4   9  19  39  63 107 151 189 231 290 352 461
#     4   9  19  39  63 107 151 189 231 290 352 461
#     4   8  18  36  60 102 170 178 240 280 350 424
#     4  12  30  57  75 110 141 190 257 332 366 426
#     4  12  23  47  78 103 141 198 242 300 389 433
#
# _framework density 24.085981
#
# number of rings (size 3 to 8) (size 9 to 14) (size 15 to 20)
#    0.000    2.222    2.222    2.000    0.000    2.667 
#   16.000    0.000    0.000    0.000    0.000    0.000 
#    0.000    0.000    0.000    0.000    0.000    0.000 
#
# Total GULP energy -100501.197809 kJ/mol
# GULP energy per Si atom -5583.399878 kJ/mol
# Density = 2.403116 g / cm^3
# Si number density = 24.085981 Si / 1000 Ang^3
#
#
#
# Elastic Constant Matrix: (Units=GPa)
#
#
# Indices 1 2 3 4 5 6 
#
# 1 104.1662 49.7805 68.0534 0.0000 -2.9163 0.0000
# 2 49.7805 108.7582 22.7615 0.0000 -7.7560 0.0000
# 3 68.0534 22.7615 136.0444 0.0000 4.7411 0.0000
# 4 0.0000 0.0000 0.0000 38.1297 0.0000 -8.0246
# 5 -2.9163 -7.7560 4.7411 0.0000 80.5531 0.0000
# 6 0.0000 0.0000 0.0000 -8.0246 0.0000 21.1240
#
#
#
# Elastic Compliance Matrix: (Units=1/GPa)
#
#
# Indices 1 2 3 4 5 6 
#
# 1 0.017851 -0.006491 -0.007860 0.000000 0.000484 0.000000
# 2 -0.006491 0.011972 0.001215 0.000000 0.000846 0.000000
# 3 -0.007860 0.001215 0.011108 0.000000 -0.000821 0.000000
# 4 0.000000 0.000000 0.000000 0.028505 0.000000 0.010828
# 5 0.000484 0.000846 -0.000821 0.000000 0.012562 0.000000
# 6 0.000000 0.000000 0.000000 0.010828 0.000000 0.051453
#
#
# Mechanical properties :
#
#
# Convention : Reuss Voigt Hill
#
# Bulk Modulus (GPa) = 68.22718 70.01773 69.12246
# Shear Modulus (GPa) = 30.37476 41.85293 36.11385
#
# Velocity S-wave (km/s) = 3.55505 4.17303 3.87637
# Velocity P-wave (km/s) = 6.72600 7.23546 6.98538
#
# Compressibility (1/GPa) = 0.01465691
#
# Stress axis : x y z
#
# Youngs Moduli (GPa) = 56.01922 83.52840 90.02538
#
# Poissons Ratio (x) = 0.54219 0.70764
# Poissons Ratio (y) = 0.36363 -0.10934
# Poissons Ratio (z) = 0.44034 -0.10145
#
# Static dielectric constant tensor:
#      x y z
#    x 1.903360 0.000000 -0.011970 
#    y 0.000000 2.046370 0.000000 
#    z -0.011970 0.000000 1.980260 
# 
# From -- ./inp_files/115666.got.cif
#   From: 2010.05.17/outbox.cif.g08.bks.cpg/sg15_58_cif.got.tgz:115666.got - 2010.06.03 18:47:42.
