data_PCOD9307709
_publ_section_title
;
Structure prediction by ZEFSAII (Michael W. Deem and Ramdas Pophale) SiO2 
 PCOD9307709
Probable space group: C 2/C
;
_chemical_formula_sum "Si O2"
_cell_formula_units_Z 44
_cell_length_a 24.705542
_cell_length_b 5.126129
_cell_length_c 15.894912
_cell_angle_alpha 90.000000
_cell_angle_beta 69.297239
_cell_angle_gamma 90.000000
_cell_volume 1883.007043
_symmetry_space_group_name_H-M "C 2/C"
_symmetry_group_IT_number 15
_symmetry_cell_setting 'monoclinic'
loop_
_space_group_symop_operation_xyz
x,y,z
-x,y,1/2-z
-x,-y,-z
x,-y,1/2+z
1/2+x,1/2+y,z
1/2-x,1/2+y,1/2-z
1/2-x,1/2-y,-z
1/2+x,1/2-y,1/2+z
loop_
_atom_site_type_symbol
_atom_site_label
_atom_site_fract_x
_atom_site_fract_y
_atom_site_fract_z
Si Si1 0.000000 0.242673 0.750000
Si Si2 0.595851 0.892616 0.265033
Si Si3 0.189927 0.341529 0.493410
Si Si4 0.623234 0.334715 0.585212
Si Si5 0.786660 0.503262 0.210703
Si Si6 0.503619 0.367849 0.587499
O O1 0.056404 0.419676 0.730310
O O2 0.003949 0.072985 0.664030
O O3 0.611028 0.658438 0.192151
O O4 0.654156 0.013091 0.268833
O O5 0.552356 0.807119 0.363039
O O6 0.250000 0.250000 0.500000
O O7 0.170218 0.609572 0.547171
O O8 0.198071 0.402595 0.390744
O O9 0.144953 0.108200 0.536665
O O10 0.566375 0.240166 0.565394
O O11 0.755622 0.783369 0.226862
O O12 0.500000 0.500000 0.500000
#
# Coordination Sequence:
#
# PCOD9307709 Si02
#       6
#     4   8   8   8   8   8
#     4  12  24  48  74 108 160 202 258 320 402 456
#     4  12  26  46  74 108 153 203 255 322 395 465
#     4  12  26  46  72 106 144 198 256 311 386 456
#     4  12  24  46  71 106 145 197 247 318 379 455
#     4  12  28  49  75 111 148 203 258 325 392 468
#     4  12  27  45  74 113 154 205 260 322 396 471
#
# _framework density 23.366879999999998
#
# number of rings (size 3 to 8) (size 9 to 14) (size 15 to 20)
#    0.000    0.000    3.636    6.000    5.091    0.727 
#    0.000    0.000    0.000    0.000    0.000    0.000 
#    0.000    0.000    0.000    0.000    0.000    0.000 
#
# Total GULP energy -123324.291164 kJ/mol
# GULP energy per Si atom -5605.649598 kJ/mol
# Density = 2.331370 g / cm^3
# Si number density = 23.366880 Si / 1000 Ang^3
#
#
#
# Elastic Constant Matrix: (Units=GPa)
#
#
# Indices 1 2 3 4 5 6 
#
# 1 154.5831 3.6563 14.5319 0.0000 -1.5576 0.0000
# 2 3.6563 77.1682 8.3372 0.0000 -5.9885 0.0000
# 3 14.5319 8.3372 90.6982 0.0000 8.0692 0.0000
# 4 0.0000 0.0000 0.0000 39.6773 0.0000 -8.8875
# 5 -1.5576 -5.9885 8.0692 0.0000 39.3526 0.0000
# 6 0.0000 0.0000 0.0000 -8.8875 0.0000 28.1291
#
#
#
# Elastic Compliance Matrix: (Units=1/GPa)
#
#
# Indices 1 2 3 4 5 6 
#
# 1 0.006579 -0.000160 -0.001080 0.000000 0.000458 0.000000
# 2 -0.000160 0.013297 -0.001402 0.000000 0.002305 0.000000
# 3 -0.001080 -0.001402 0.011561 0.000000 -0.002627 0.000000
# 4 0.000000 0.000000 0.000000 0.027123 0.000000 0.008570
# 5 0.000458 0.002305 -0.002627 0.000000 0.026319 0.000000
# 6 0.000000 0.000000 0.000000 0.008570 0.000000 0.038258
#
#
# Mechanical properties :
#
#
# Convention : Reuss Voigt Hill
#
# Bulk Modulus (GPa) = 38.23520 41.72226 39.97873
# Shear Modulus (GPa) = 36.45992 41.16007 38.80999
#
# Velocity S-wave (km/s) = 3.95438 4.20154 4.07983
# Velocity P-wave (km/s) = 6.10311 6.43672 6.27213
#
# Compressibility (1/GPa) = 0.02615391
#
# Stress axis : x y z
#
# Youngs Moduli (GPa) = 152.00025 75.20752 86.49639
#
# Poissons Ratio (x) = 0.01200 0.09343
# Poissons Ratio (y) = 0.02425 0.12124
# Poissons Ratio (z) = 0.16418 0.10542
#
# Static dielectric constant tensor:
#      x y z
#    x 1.877480 0.000000 -0.075320 
#    y 0.000000 1.906890 0.000000 
#    z -0.075320 0.000000 1.974820 
# 
# From -- ./inp_files/217698.got.cif
#   From: 2010.05.17/outbox.cif.g08.bks.cpg/sg15_109_cif.got.tgz:217698.got - 2010.06.03 18:47:42.
