data_PCOD9307559
_publ_section_title
;
Structure prediction by ZEFSAII (Michael W. Deem and Ramdas Pophale) SiO2 
 PCOD9307559
Probable space group: C 2/C
;
_chemical_formula_sum "Si O2"
_cell_formula_units_Z 24
_cell_length_a 7.460245
_cell_length_b 5.662563
_cell_length_c 17.549185
_cell_angle_alpha 90.000000
_cell_angle_beta 101.136366
_cell_angle_gamma 90.000000
_cell_volume 727.390242
_symmetry_space_group_name_H-M "C 2/C"
_symmetry_group_IT_number 15
_symmetry_cell_setting 'monoclinic'
loop_
_space_group_symop_operation_xyz
x,y,z
-x,y,1/2-z
-x,-y,-z
x,-y,1/2+z
1/2+x,1/2+y,z
1/2-x,1/2+y,1/2-z
1/2-x,1/2-y,-z
1/2+x,1/2-y,1/2+z
loop_
_atom_site_type_symbol
_atom_site_label
_atom_site_fract_x
_atom_site_fract_y
_atom_site_fract_z
Si Si1 0.658062 0.030763 0.607424
Si Si2 0.698947 0.583620 0.553379
Si Si3 0.074772 0.698179 0.335455
O O1 0.697767 0.912029 0.526863
O O2 0.828095 0.051863 0.680436
O O3 0.444045 0.073371 0.614892
O O4 0.603749 0.729104 0.624458
O O5 0.500000 0.500000 0.500000
O O6 0.728108 0.308592 0.594403
O O7 0.000000 0.603164 0.250000
#
# Coordination Sequence:
#
# PCOD9307559 Si02
#       3
#     8   8   8
#     4   9  24  41  64  93 124 176 215 271 323 407
#     4   8  22  42  68  89 130 168 230 257 336 390
#     4  12  24  40  66  94 136 164 220 275 340 386
#
# _framework density 32.994670999999997
#
# number of rings (size 3 to 8) (size 9 to 14) (size 15 to 20)
#    2.000    0.000    0.000    2.000    4.667    9.333 
#    0.000    0.000    0.000    0.000    0.000    0.000 
#    0.000    0.000    0.000    0.000    0.000    0.000 
#
# Total GULP energy -66869.633140 kJ/mol
# GULP energy per Si atom -5572.469428 kJ/mol
# Density = 3.291957 g / cm^3
# Si number density = 32.994671 Si / 1000 Ang^3
#
#
#
# Elastic Constant Matrix: (Units=GPa)
#
#
# Indices 1 2 3 4 5 6 
#
# 1 290.3609 136.3838 88.6297 0.0000 -1.0061 0.0000
# 2 136.3838 214.2988 86.7295 0.0000 10.2305 0.0000
# 3 88.6297 86.7295 319.5294 0.0000 1.5370 0.0000
# 4 0.0000 0.0000 0.0000 61.6547 0.0000 19.8164
# 5 -1.0061 10.2305 1.5370 0.0000 46.4646 0.0000
# 6 0.0000 0.0000 0.0000 19.8164 0.0000 152.0774
#
#
#
# Elastic Compliance Matrix: (Units=1/GPa)
#
#
# Indices 1 2 3 4 5 6 
#
# 1 0.005038 -0.003007 -0.000585 0.000000 0.000791 0.000000
# 2 -0.003007 0.007095 -0.001084 0.000000 -0.001591 0.000000
# 3 -0.000585 -0.001084 0.003586 0.000000 0.000107 0.000000
# 4 0.000000 0.000000 0.000000 0.016928 0.000000 -0.002206
# 5 0.000791 -0.001591 0.000107 0.000000 0.021886 0.000000
# 6 0.000000 0.000000 0.000000 -0.002206 0.000000 0.006863
#
#
# Mechanical properties :
#
#
# Convention : Reuss Voigt Hill
#
# Bulk Modulus (GPa) = 157.08302 160.85280 158.96791
# Shear Modulus (GPa) = 68.61598 86.20241 77.40919
#
# Velocity S-wave (km/s) = 4.56522 5.11692 4.84892
# Velocity P-wave (km/s) = 8.68909 9.15246 8.92378
#
# Compressibility (1/GPa) = 0.00636606
#
# Stress axis : x y z
#
# Youngs Moduli (GPa) = 198.50213 140.94737 278.89676
#
# Poissons Ratio (x) = 0.42385 0.16313
# Poissons Ratio (y) = 0.59692 0.30232
# Poissons Ratio (z) = 0.11611 0.15279
#
# Static dielectric constant tensor:
#      x y z
#    x 2.545630 0.000000 0.134930 
#    y 0.000000 2.829830 0.000000 
#    z 0.134930 0.000000 2.674170 
# 
# From -- ./inp_files/74781.got.cif
#   From: 2010.05.17/outbox.cif.g08.bks.cpg/sg15_38_cif.got.tgz:74781.got - 2010.06.03 18:47:42.
