data_PCOD9307498
_publ_section_title
;
Structure prediction by ZEFSAII (Michael W. Deem and Ramdas Pophale) SiO2 
 PCOD9307498
Probable space group: C 2/C
;
_chemical_formula_sum "Si O2"
_cell_formula_units_Z 60
_cell_length_a 20.991386
_cell_length_b 11.030828
_cell_length_c 18.055174
_cell_angle_alpha 90.000000
_cell_angle_beta 40.293918
_cell_angle_gamma 90.000000
_cell_volume 2703.707391
_symmetry_space_group_name_H-M "C 2/C"
_symmetry_group_IT_number 15
_symmetry_cell_setting 'monoclinic'
loop_
_space_group_symop_operation_xyz
x,y,z
-x,y,1/2-z
-x,-y,-z
x,-y,1/2+z
1/2+x,1/2+y,z
1/2-x,1/2+y,1/2-z
1/2-x,1/2-y,-z
1/2+x,1/2-y,1/2+z
loop_
_atom_site_type_symbol
_atom_site_label
_atom_site_fract_x
_atom_site_fract_y
_atom_site_fract_z
Si Si1 0.565110 0.846788 0.990583
Si Si2 0.034336 0.026825 0.551536
Si Si3 0.590912 0.432883 0.716470
Si Si4 0.100822 0.336184 0.234876
Si Si5 0.799183 0.112029 0.644347
Si Si6 0.500000 0.043329 0.250000
Si Si7 0.270238 0.947638 0.130089
Si Si8 0.547970 0.807281 0.560274
O O1 0.626160 0.723570 0.927131
O O2 0.647231 0.948861 0.931937
O O3 0.505774 0.860730 0.965666
O O4 0.490635 0.841642 0.126154
O O5 0.022021 0.165486 0.585693
O O6 0.148963 0.991660 0.450700
O O7 0.000000 0.000000 0.500000
O O8 0.963730 0.935812 0.657035
O O9 0.500000 0.486060 0.750000
O O10 0.607854 0.291316 0.684597
O O11 0.690075 0.508871 0.640637
O O12 0.196809 0.349808 0.199566
O O13 0.087854 0.449237 0.191206
O O14 0.782034 0.073354 0.744416
O O15 0.483722 0.124373 0.336984
O O16 0.335015 0.830227 0.052565
#
# Coordination Sequence:
#
# PCOD9307498 Si02
#       8
#     8   8   8   8   8   4   8   8
#     4  12  23  46  76 107 145 191 259 322 358 441
#     4  12  25  49  74 106 147 195 255 308 363 449
#     4  12  26  46  75 108 152 196 248 312 376 447
#     4  12  24  49  75 110 148 190 254 319 371 447
#     4  12  25  42  81 112 139 192 259 320 372 431
#     4  12  28  48  70 110 158 202 228 312 400 448
#     4  12  25  43  73 111 147 197 251 312 383 439
#     4  12  26  48  73 108 159 194 249 312 385 455
#
# _framework density 22.191749999999999
#
# number of rings (size 3 to 8) (size 9 to 14) (size 15 to 20)
#    0.000    0.000    8.667    1.200    2.800    1.067 
#    2.400    4.000    0.000    0.000    0.000    0.000 
#    0.000    0.000    0.000    0.000    0.000    0.000 
#
# Total GULP energy -167705.803577 kJ/mol
# GULP energy per Si atom -5590.193453 kJ/mol
# Density = 2.214124 g / cm^3
# Si number density = 22.191750 Si / 1000 Ang^3
#
#
#
# Elastic Constant Matrix: (Units=GPa)
#
#
# Indices 1 2 3 4 5 6 
#
# 1 140.1223 30.8845 16.6218 0.0000 -22.7409 0.0000
# 2 30.8845 110.7520 8.7531 0.0000 -12.1700 0.0000
# 3 16.6218 8.7531 46.0054 0.0000 -24.3500 0.0000
# 4 0.0000 0.0000 0.0000 21.4532 0.0000 4.3848
# 5 -22.7409 -12.1700 -24.3500 0.0000 37.2049 0.0000
# 6 0.0000 0.0000 0.0000 4.3848 0.0000 29.7177
#
#
#
# Elastic Compliance Matrix: (Units=1/GPa)
#
#
# Indices 1 2 3 4 5 6 
#
# 1 0.008265 -0.001812 -0.000430 0.000000 0.004178 0.000000
# 2 -0.001812 0.009765 -0.000151 0.000000 0.001988 0.000000
# 3 -0.000430 -0.000151 0.033286 0.000000 0.021473 0.000000
# 4 0.000000 0.000000 0.000000 0.048062 0.000000 -0.007091
# 5 0.004178 0.001988 0.021473 0.000000 0.044135 0.000000
# 6 0.000000 0.000000 0.000000 -0.007091 0.000000 0.034696
#
#
# Mechanical properties :
#
#
# Convention : Reuss Voigt Hill
#
# Bulk Modulus (GPa) = 21.49179 45.48871 33.49025
# Shear Modulus (GPa) = 25.18813 33.71653 29.45233
#
# Velocity S-wave (km/s) = 3.37266 3.90208 3.64699
# Velocity P-wave (km/s) = 4.98719 6.39095 5.73220
#
# Compressibility (1/GPa) = 0.04652939
#
# Stress axis : x y z
#
# Youngs Moduli (GPa) = 120.99231 102.40889 30.04264
#
# Poissons Ratio (x) = 0.18554 0.01293
# Poissons Ratio (y) = 0.21920 0.00454
# Poissons Ratio (z) = 0.05206 0.01548
#
# Static dielectric constant tensor:
#      x y z
#    x 1.829710 0.000000 -0.040220 
#    y 0.000000 1.859330 0.000000 
#    z -0.040220 0.000000 1.773930 
# 
# From -- ./inp_files/215196.got.cif
#   From: 2010.05.17/outbox.cif.g08.bks.cpg/sg15_108_cif.got.tgz:215196.got - 2010.06.03 18:47:42.
