data_PCOD9307653
_publ_section_title
;
Structure prediction by ZEFSAII (Michael W. Deem and Ramdas Pophale) SiO2 
 PCOD9307653
Probable space group: C 2/C
;
_chemical_formula_sum "Si O2"
_cell_formula_units_Z 44
_cell_length_a 12.779726
_cell_length_b 24.182485
_cell_length_c 9.141905
_cell_angle_alpha 90.000000
_cell_angle_beta 41.242650
_cell_angle_gamma 90.000000
_cell_volume 1862.554082
_symmetry_space_group_name_H-M "C 2/C"
_symmetry_group_IT_number 15
_symmetry_cell_setting 'monoclinic'
loop_
_space_group_symop_operation_xyz
x,y,z
-x,y,1/2-z
-x,-y,-z
x,-y,1/2+z
1/2+x,1/2+y,z
1/2-x,1/2+y,1/2-z
1/2-x,1/2-y,-z
1/2+x,1/2-y,1/2+z
loop_
_atom_site_type_symbol
_atom_site_label
_atom_site_fract_x
_atom_site_fract_y
_atom_site_fract_z
Si Si1 0.337348 0.841556 0.642301
Si Si2 0.500000 0.107049 0.250000
Si Si3 0.716716 0.449107 0.232935
Si Si4 0.980021 0.845254 0.104208
Si Si5 0.679662 0.051452 0.540526
Si Si6 0.874885 0.228512 0.486263
O O1 0.402880 0.860210 0.729499
O O2 0.345257 0.890157 0.514319
O O3 0.430098 0.786629 0.497226
O O4 0.150457 0.830983 0.857826
O O5 0.367203 0.075556 0.485738
O O6 0.568502 0.409635 0.352239
O O7 0.747164 0.446248 0.374494
O O8 0.715585 0.511641 0.173410
O O9 0.000000 0.828086 0.250000
O O10 0.847038 0.812350 0.150505
O O11 0.500000 0.029245 0.750000
O O12 0.750000 0.250000 0.500000
O O13 0.000000 0.198783 0.250000
#
# Coordination Sequence:
#
# PCOD9307653 Si02
#       6
#     8   4   8   8   8   8
#     4  12  27  47  75 108 148 191 248 307 374 437
#     4  12  24  44  74 108 144 196 246 300 368 446
#     4  12  26  45  74 107 148 196 250 301 371 435
#     4  12  29  49  71 110 157 190 245 312 372 441
#     4  12  24  45  76 108 147 194 251 308 356 444
#     4  12  27  49  76 107 145 193 248 303 368 439
#
# _framework density 23.623474999999999
#
# number of rings (size 3 to 8) (size 9 to 14) (size 15 to 20)
#    0.000    0.000    6.364    3.273    3.818    1.455 
#    0.000    0.000    0.000    0.000    0.000    0.000 
#    0.000    0.000    0.000    0.000    0.000    0.000 
#
# Total GULP energy -122973.532182 kJ/mol
# GULP energy per Si atom -5589.706008 kJ/mol
# Density = 2.356971 g / cm^3
# Si number density = 23.623475 Si / 1000 Ang^3
#
#
#
# Elastic Constant Matrix: (Units=GPa)
#
#
# Indices 1 2 3 4 5 6 
#
# 1 122.0176 7.5401 48.2116 0.0000 49.3676 0.0000
# 2 7.5401 96.4180 27.9574 0.0000 35.2197 0.0000
# 3 48.2116 27.9574 73.9126 0.0000 30.7852 0.0000
# 4 0.0000 0.0000 0.0000 15.9896 0.0000 -28.2287
# 5 49.3676 35.2197 30.7852 0.0000 51.5822 0.0000
# 6 0.0000 0.0000 0.0000 -28.2287 0.0000 -45.7311
#
#
#
# Elastic Compliance Matrix: (Units=1/GPa)
#
#
# Indices 1 2 3 4 5 6 
#
# 1 0.017521 0.006986 -0.006787 0.000000 -0.017488 0.000000
# 2 0.006986 0.016771 -0.004453 0.000000 -0.015479 0.000000
# 3 -0.006787 -0.004453 0.020853 0.000000 -0.002909 0.000000
# 4 0.000000 0.000000 0.000000 0.029927 0.000000 -0.018473
# 5 -0.017488 -0.015479 -0.002909 0.000000 0.048429 0.000000
# 6 0.000000 0.000000 0.000000 -0.018473 0.000000 -0.010464
#
#
# Mechanical properties :
#
#
# Convention : Reuss Voigt Hill
#
# Bulk Modulus (GPa) = 21.44274 51.08515 36.26395
# Shear Modulus (GPa) = 33.99267 18.27740 26.13503
#
# Velocity S-wave (km/s) = 3.79745 2.78456 3.32974
# Velocity P-wave (km/s) = 5.32203 5.65774 5.49245
#
# Compressibility (1/GPa) = 0.04663582
#
# Stress axis : x y z
#
# Youngs Moduli (GPa) = 57.07376 59.62801 47.95568
#
# Poissons Ratio (x) = -0.41656 0.32548
# Poissons Ratio (y) = -0.39871 0.21355
# Poissons Ratio (z) = 0.38737 0.26553
#
# Static dielectric constant tensor:
#      x y z
#    x 1.909050 0.000000 -0.052130 
#    y 0.000000 1.929720 0.000000 
#    z -0.052130 0.000000 1.931150 
# 
# From -- ./inp_files/34021.got.cif
#   From: 2010.05.17/outbox.cif.g08.bks.cpg/sg15_18_cif.got.tgz:34021.got - 2010.06.03 18:47:42.
