data_PCOD9307096
_publ_section_title
;
Structure prediction by ZEFSAII (Michael W. Deem and Ramdas Pophale) SiO2 
 PCOD9307096
Probable space group: C 2/C
;
_chemical_formula_sum "Si O2"
_cell_formula_units_Z 44
_cell_length_a 12.379301
_cell_length_b 15.433384
_cell_length_c 11.875867
_cell_angle_alpha 90.000000
_cell_angle_beta 94.591162
_cell_angle_gamma 90.000000
_cell_volume 2261.657420
_symmetry_space_group_name_H-M "C 2/C"
_symmetry_group_IT_number 15
_symmetry_cell_setting 'monoclinic'
loop_
_space_group_symop_operation_xyz
x,y,z
-x,y,1/2-z
-x,-y,-z
x,-y,1/2+z
1/2+x,1/2+y,z
1/2-x,1/2+y,1/2-z
1/2-x,1/2-y,-z
1/2+x,1/2-y,1/2+z
loop_
_atom_site_type_symbol
_atom_site_label
_atom_site_fract_x
_atom_site_fract_y
_atom_site_fract_z
Si Si1 0.817704 0.339001 0.023116
Si Si2 0.439385 0.195330 0.947405
Si Si3 0.775917 0.608726 0.771555
Si Si4 0.622013 0.233471 0.309203
Si Si5 0.500000 0.674356 0.250000
Si Si6 0.270839 0.588319 0.197225
O O1 0.818409 0.362409 0.153498
O O2 0.942871 0.333652 0.000285
O O3 0.750000 0.250000 0.000000
O O4 0.762040 0.407116 0.936427
O O5 0.367272 0.126206 0.873616
O O6 0.467121 0.268016 0.855767
O O7 0.379252 0.223887 0.055792
O O8 0.677061 0.674249 0.787216
O O9 0.744738 0.508834 0.762880
O O10 0.500000 0.229732 0.250000
O O11 0.695520 0.158060 0.257741
O O12 0.394198 0.618672 0.215953
#
# Coordination Sequence:
#
# PCOD9307096 Si02
#       6
#     8   8   8   8   4   8
#     4  12  21  47  72  98 140 188 228 278 344 414
#     4  12  22  44  74  95 139 186 228 281 343 407
#     4  12  27  43  70 105 137 181 234 279 345 412
#     4  12  25  45  68 102 140 176 227 292 340 399
#     4  12  24  48  72  96 136 190 228 278 344 414
#     4  12  28  45  69 105 138 179 230 285 347 407
#
# _framework density 19.45476
#
# number of rings (size 3 to 8) (size 9 to 14) (size 15 to 20)
#    0.000    0.000    9.091    0.545    3.818    2.182 
#    0.000    1.818    0.000    0.000    0.000    0.000 
#    0.000    0.000    0.000    0.000    0.000    0.000 
#
# Total GULP energy -122957.786044 kJ/mol
# GULP energy per Si atom -5588.990275 kJ/mol
# Density = 1.941048 g / cm^3
# Si number density = 19.454760 Si / 1000 Ang^3
#
#
#
# Elastic Constant Matrix: (Units=GPa)
#
#
# Indices 1 2 3 4 5 6 
#
# 1 128.0797 38.9210 18.0976 0.0000 18.6591 0.0000
# 2 38.9210 106.9611 9.0237 0.0000 6.5044 0.0000
# 3 18.0976 9.0237 92.8822 0.0000 -5.9702 0.0000
# 4 0.0000 0.0000 0.0000 23.2730 0.0000 -1.7852
# 5 18.6591 6.5044 -5.9702 0.0000 39.1685 0.0000
# 6 0.0000 0.0000 0.0000 -1.7852 0.0000 8.2016
#
#
#
# Elastic Compliance Matrix: (Units=1/GPa)
#
#
# Indices 1 2 3 4 5 6 
#
# 1 0.009644 -0.003087 -0.001860 0.000000 -0.004365 0.000000
# 2 -0.003087 0.010531 -0.000444 0.000000 -0.000346 0.000000
# 3 -0.001860 -0.000444 0.011345 0.000000 0.002689 0.000000
# 4 0.000000 0.000000 0.000000 0.043698 0.000000 0.009511
# 5 -0.004365 -0.000346 0.002689 0.000000 0.028078 0.000000
# 6 0.000000 0.000000 0.000000 0.009511 0.000000 0.123998
#
#
# Mechanical properties :
#
#
# Convention : Reuss Voigt Hill
#
# Bulk Modulus (GPa) = 48.21922 51.11197 49.66559
# Shear Modulus (GPa) = 20.40915 31.58732 25.99824
#
# Velocity S-wave (km/s) = 3.24243 4.03380 3.65957
# Velocity P-wave (km/s) = 6.23353 6.92998 6.59096
#
# Compressibility (1/GPa) = 0.02073862
#
# Stress axis : x y z
#
# Youngs Moduli (GPa) = 103.68618 94.95783 88.14715
#
# Poissons Ratio (x) = 0.29314 0.16394
# Poissons Ratio (y) = 0.32009 0.03912
# Poissons Ratio (z) = 0.19284 0.04215
#
# Static dielectric constant tensor:
#      x y z
#    x 1.717950 0.000000 0.005630 
#    y 0.000000 1.688960 0.000000 
#    z 0.005630 0.000000 1.690360 
# 
# From -- ./inp_files/86052.got.cif
#   From: 2010.05.17/outbox.cif.g08.bks.cpg/sg15_44_cif.got.tgz:86052.got - 2010.06.03 18:47:42.
