data_PCOD9307214
_publ_section_title
;
Structure prediction by ZEFSAII (Michael W. Deem and Ramdas Pophale) SiO2 
 PCOD9307214
Probable space group: C 2/C
;
_chemical_formula_sum "Si O2"
_cell_formula_units_Z 44
_cell_length_a 24.782517
_cell_length_b 15.014395
_cell_length_c 12.908859
_cell_angle_alpha 90.000000
_cell_angle_beta 156.891160
_cell_angle_gamma 90.000000
_cell_volume 1885.200572
_symmetry_space_group_name_H-M "C 2/C"
_symmetry_group_IT_number 15
_symmetry_cell_setting 'monoclinic'
loop_
_space_group_symop_operation_xyz
x,y,z
-x,y,1/2-z
-x,-y,-z
x,-y,1/2+z
1/2+x,1/2+y,z
1/2-x,1/2+y,1/2-z
1/2-x,1/2-y,-z
1/2+x,1/2-y,1/2+z
loop_
_atom_site_type_symbol
_atom_site_label
_atom_site_fract_x
_atom_site_fract_y
_atom_site_fract_z
Si Si1 0.928101 0.591403 0.836155
Si Si2 0.000000 0.146857 0.250000
Si Si3 0.214598 0.983872 0.101867
Si Si4 0.413018 0.745361 0.922553
Si Si5 0.028661 0.089570 0.616669
Si Si6 0.219049 0.631866 0.140042
O O1 0.790696 0.582733 0.659924
O O2 0.876514 0.613801 0.628729
O O3 0.030594 0.671657 0.042185
O O4 0.000000 0.500000 0.000000
O O5 0.032904 0.204319 0.207935
O O6 0.118258 0.081014 0.496787
O O7 0.307708 0.043788 0.338231
O O8 0.121221 0.053731 0.874062
O O9 0.386319 0.665082 0.795912
O O10 0.313767 0.786191 0.838163
O O11 0.879784 0.128398 0.389262
O O12 0.000000 0.000000 0.500000
#
# Coordination Sequence:
#
# PCOD9307214 Si02
#       6
#     8   4   8   8   8   8
#     4  12  26  46  69 106 148 197 241 303 373 442
#     4  12  22  42  72 108 134 192 250 294 364 438
#     4  12  25  45  76 105 146 196 244 305 374 439
#     4  12  26  43  73 110 146 194 251 301 369 445
#     4  12  24  47  73 111 144 194 250 306 366 441
#     4  12  24  47  74 104 155 190 245 308 367 441
#
# _framework density 23.339691999999999
#
# number of rings (size 3 to 8) (size 9 to 14) (size 15 to 20)
#    0.000    0.000    9.091    0.000    2.545    2.182 
#    0.000    0.000    4.000    0.000    0.000    0.000 
#    0.000    0.000    0.000    0.000    0.000    0.000 
#
# Total GULP energy -122701.553599 kJ/mol
# GULP energy per Si atom -5577.343345 kJ/mol
# Density = 2.328657 g / cm^3
# Si number density = 23.339692 Si / 1000 Ang^3
#
#
#
# Elastic Constant Matrix: (Units=GPa)
#
#
# Indices 1 2 3 4 5 6 
#
# 1 125.6855 64.3700 25.3211 0.0000 10.2200 0.0000
# 2 64.3700 129.8292 -0.1914 0.0000 5.9505 0.0000
# 3 25.3211 -0.1914 36.8881 0.0000 10.9292 0.0000
# 4 0.0000 0.0000 0.0000 29.5350 0.0000 -1.0810
# 5 10.2200 5.9505 10.9292 0.0000 33.8728 0.0000
# 6 0.0000 0.0000 0.0000 -1.0810 0.0000 58.6330
#
#
#
# Elastic Compliance Matrix: (Units=1/GPa)
#
#
# Indices 1 2 3 4 5 6 
#
# 1 0.013114 -0.006520 -0.009070 0.000000 0.000115 0.000000
# 2 -0.006520 0.011015 0.005002 0.000000 -0.001581 0.000000
# 3 -0.009070 0.005002 0.036278 0.000000 -0.009847 0.000000
# 4 0.000000 0.000000 0.000000 0.033881 0.000000 0.000625
# 5 0.000115 -0.001581 -0.009847 0.000000 0.032943 0.000000
# 6 0.000000 0.000000 0.000000 0.000625 0.000000 0.017067
#
#
# Mechanical properties :
#
#
# Convention : Reuss Voigt Hill
#
# Bulk Modulus (GPa) = 25.49063 52.37802 38.93433
# Shear Modulus (GPa) = 28.00320 37.93504 32.96912
#
# Velocity S-wave (km/s) = 3.46759 4.03593 3.76250
# Velocity P-wave (km/s) = 5.19399 6.64896 5.96599
#
# Compressibility (1/GPa) = 0.03923011
#
# Stress axis : x y z
#
# Youngs Moduli (GPa) = 76.25635 90.78396 27.56473
#
# Poissons Ratio (x) = 0.59195 0.25000
# Poissons Ratio (y) = 0.49723 -0.13787
# Poissons Ratio (z) = 0.69161 -0.45406
#
# Static dielectric constant tensor:
#      x y z
#    x 1.977220 0.000000 0.092300 
#    y 0.000000 1.893220 0.000000 
#    z 0.092300 0.000000 1.988750 
# 
# From -- ./inp_files/182374.got.cif
#   From: 2010.05.17/outbox.cif.g08.bks.cpg/sg15_92_cif.got.tgz:182374.got - 2010.06.03 18:47:42.
