data_PCOD9307187
_publ_section_title
;
Structure prediction by ZEFSAII (Michael W. Deem and Ramdas Pophale) SiO2 
 PCOD9307187
Probable space group: C 2/C
;
_chemical_formula_sum "Si O2"
_cell_formula_units_Z 44
_cell_length_a 22.158209
_cell_length_b 18.207903
_cell_length_c 14.450122
_cell_angle_alpha 90.000000
_cell_angle_beta 159.110193
_cell_angle_gamma 90.000000
_cell_volume 2078.801825
_symmetry_space_group_name_H-M "C 2/C"
_symmetry_group_IT_number 15
_symmetry_cell_setting 'monoclinic'
loop_
_space_group_symop_operation_xyz
x,y,z
-x,y,1/2-z
-x,-y,-z
x,-y,1/2+z
1/2+x,1/2+y,z
1/2-x,1/2+y,1/2-z
1/2-x,1/2-y,-z
1/2+x,1/2-y,1/2+z
loop_
_atom_site_type_symbol
_atom_site_label
_atom_site_fract_x
_atom_site_fract_y
_atom_site_fract_z
Si Si1 0.155953 0.097504 0.544247
Si Si2 0.500000 0.074782 0.750000
Si Si3 0.032103 0.821687 0.398287
Si Si4 0.338695 0.533229 0.325337
Si Si5 0.677033 0.711681 0.732504
Si Si6 0.377909 0.810470 0.227402
O O1 0.140596 0.139576 0.619712
O O2 0.297198 0.143011 0.693775
O O3 0.184360 0.014140 0.614461
O O4 0.000000 0.102222 0.250000
O O5 0.336561 0.029401 0.482400
O O6 0.567199 0.129804 0.768252
O O7 0.129182 0.882331 0.599327
O O8 0.145146 0.749525 0.538462
O O9 0.000000 0.853465 0.250000
O O10 0.866887 0.803591 0.223275
O O11 0.500000 0.500000 0.500000
O O12 0.537575 0.768224 0.495736
O O13 0.250000 0.750000 0.000000
#
# Coordination Sequence:
#
# PCOD9307187 Si02
#       6
#     8   4   8   8   8   8
#     4  12  24  41  72 104 141 190 241 297 368 430
#     4  12  26  46  72 104 150 192 250 304 364 454
#     4  12  26  48  72 103 145 189 240 299 375 442
#     4  12  26  49  70 104 148 195 242 303 370 447
#     4  12  23  44  71 105 139 183 243 302 360 439
#     4  12  22  41  73 106 139 177 243 313 362 420
#
# _framework density 21.166039000000001
#
# number of rings (size 3 to 8) (size 9 to 14) (size 15 to 20)
#    0.000    0.000    7.273    4.364    0.000    0.727 
#    4.909    0.000    0.000    0.000    0.000    0.000 
#    0.000    0.000    0.000    0.000    0.000    0.000 
#
# Total GULP energy -122924.482010 kJ/mol
# GULP energy per Si atom -5587.476455 kJ/mol
# Density = 2.111786 g / cm^3
# Si number density = 21.166039 Si / 1000 Ang^3
#
#
#
# Elastic Constant Matrix: (Units=GPa)
#
#
# Indices 1 2 3 4 5 6 
#
# 1 147.7642 28.3084 23.8068 0.0000 2.5843 0.0000
# 2 28.3084 72.9991 12.0045 0.0000 10.1069 0.0000
# 3 23.8068 12.0045 86.5857 0.0000 -0.2764 0.0000
# 4 0.0000 0.0000 0.0000 55.2529 0.0000 -18.5732
# 5 2.5843 10.1069 -0.2764 0.0000 22.1136 0.0000
# 6 0.0000 0.0000 0.0000 -18.5732 0.0000 61.5253
#
#
#
# Elastic Compliance Matrix: (Units=1/GPa)
#
#
# Indices 1 2 3 4 5 6 
#
# 1 0.007552 -0.002694 -0.001702 0.000000 0.000327 0.000000
# 2 -0.002694 0.015958 -0.001494 0.000000 -0.006997 0.000000
# 3 -0.001702 -0.001494 0.012228 0.000000 0.001035 0.000000
# 4 0.000000 0.000000 0.000000 0.020143 0.000000 0.006081
# 5 0.000327 -0.006997 0.001035 0.000000 0.048394 0.000000
# 6 0.000000 0.000000 0.000000 0.006081 0.000000 0.018089
#
#
# Mechanical properties :
#
#
# Convention : Reuss Voigt Hill
#
# Bulk Modulus (GPa) = 41.74027 48.39870 45.06949
# Shear Modulus (GPa) = 35.17921 43.99365 39.58643
#
# Velocity S-wave (km/s) = 4.08126 4.56400 4.32937
# Velocity P-wave (km/s) = 6.47859 7.11965 6.80667
#
# Compressibility (1/GPa) = 0.02395768
#
# Stress axis : x y z
#
# Youngs Moduli (GPa) = 132.41271 62.66428 81.78198
#
# Poissons Ratio (x) = 0.16883 0.13918
# Poissons Ratio (y) = 0.35674 0.12219
# Poissons Ratio (z) = 0.22535 0.09362
#
# Static dielectric constant tensor:
#      x y z
#    x 1.897850 0.000000 -0.159770 
#    y 0.000000 1.783470 0.000000 
#    z -0.159770 0.000000 1.922070 
# 
# From -- ./inp_files/174291.got.cif
#   From: 2010.05.17/outbox.cif.g08.bks.cpg/sg15_88_cif.got.tgz:174291.got - 2010.06.03 18:47:42.
