data_PCOD9307731
_publ_section_title
;
Structure prediction by ZEFSAII (Michael W. Deem and Ramdas Pophale) SiO2 
 PCOD9307731
Probable space group: C 2/C
;
_chemical_formula_sum "Si O2"
_cell_formula_units_Z 32
_cell_length_a 12.232648
_cell_length_b 7.157322
_cell_length_c 23.547090
_cell_angle_alpha 90.000000
_cell_angle_beta 37.329020
_cell_angle_gamma 90.000000
_cell_volume 1250.147300
_symmetry_space_group_name_H-M "C 2/C"
_symmetry_group_IT_number 15
_symmetry_cell_setting 'monoclinic'
loop_
_space_group_symop_operation_xyz
x,y,z
-x,y,1/2-z
-x,-y,-z
x,-y,1/2+z
1/2+x,1/2+y,z
1/2-x,1/2+y,1/2-z
1/2-x,1/2-y,-z
1/2+x,1/2-y,1/2+z
loop_
_atom_site_type_symbol
_atom_site_label
_atom_site_fract_x
_atom_site_fract_y
_atom_site_fract_z
Si Si1 0.696052 0.194498 0.642363
Si Si2 0.864140 0.057357 0.161101
Si Si3 0.166582 0.463063 0.359374
Si Si4 0.735390 0.974787 0.507166
O O1 0.500000 0.159570 0.750000
O O2 0.839734 0.110123 0.627465
O O3 0.548318 0.016295 0.552855
O O4 0.714250 0.076791 0.577364
O O5 0.801712 0.241987 0.153711
O O6 0.745053 0.031191 0.266221
O O7 0.073330 0.059971 0.092014
O O8 0.263281 0.585265 0.367103
O O9 0.750000 0.750000 0.500000
#
# Coordination Sequence:
#
# PCOD9307731 Si02
#       4
#     8   8   8   8
#     4  12  26  48  73 112 151 198 262 308 383 465
#     4  12  24  46  76 106 151 202 248 319 386 445
#     4  12  25  48  73 107 150 200 253 318 382 454
#     4  12  25  48  76 107 156 200 252 318 379 459
#
# _framework density 25.596982000000001
#
# number of rings (size 3 to 8) (size 9 to 14) (size 15 to 20)
#    0.000    0.000    7.500    1.500    0.000    2.000 
#    4.500    0.000    0.000    0.000    0.000    0.000 
#    0.000    0.000    0.000    0.000    0.000    0.000 
#
# Total GULP energy -89701.656164 kJ/mol
# GULP energy per Si atom -5606.353510 kJ/mol
# Density = 2.553872 g / cm^3
# Si number density = 25.596982 Si / 1000 Ang^3
#
#
#
# Elastic Constant Matrix: (Units=GPa)
#
#
# Indices 1 2 3 4 5 6 
#
# 1 112.7506 3.7427 23.8690 0.0000 3.1438 0.0000
# 2 3.7427 150.5372 23.8186 0.0000 12.2300 0.0000
# 3 23.8690 23.8186 130.8436 0.0000 -7.7592 0.0000
# 4 0.0000 0.0000 0.0000 15.3499 0.0000 -14.8009
# 5 3.1438 12.2300 -7.7592 0.0000 33.7769 0.0000
# 6 0.0000 0.0000 0.0000 -14.8009 0.0000 41.6663
#
#
#
# Elastic Compliance Matrix: (Units=1/GPa)
#
#
# Indices 1 2 3 4 5 6 
#
# 1 0.009283 0.000163 -0.001802 0.000000 -0.001337 0.000000
# 2 0.000163 0.007114 -0.001499 0.000000 -0.002936 0.000000
# 3 -0.001802 -0.001499 0.008401 0.000000 0.002640 0.000000
# 4 0.000000 0.000000 0.000000 0.099086 0.000000 0.035198
# 5 -0.001337 -0.002936 0.002640 0.000000 0.031400 0.000000
# 6 0.000000 0.000000 0.000000 0.035198 0.000000 0.036503
#
#
# Mechanical properties :
#
#
# Convention : Reuss Voigt Hill
#
# Bulk Modulus (GPa) = 53.99134 55.22132 54.60633
# Shear Modulus (GPa) = 24.48127 41.00535 32.74331
#
# Velocity S-wave (km/s) = 3.09595 4.00679 3.58045
# Velocity P-wave (km/s) = 5.82396 6.55942 6.20260
#
# Compressibility (1/GPa) = 0.01852149
#
# Stress axis : x y z
#
# Youngs Moduli (GPa) = 107.72909 140.55838 119.03442
#
# Poissons Ratio (x) = -0.02291 0.21454
# Poissons Ratio (y) = -0.01756 0.17842
# Poissons Ratio (z) = 0.19416 0.21069
#
# Static dielectric constant tensor:
#      x y z
#    x 1.950540 0.000000 0.032230 
#    y 0.000000 2.033340 0.000000 
#    z 0.032230 0.000000 1.976850 
# 
# From -- ./inp_files/201969.got.cif
#   From: 2010.05.17/outbox.cif.g08.bks.cpg/sg15_101_cif.got.tgz:201969.got - 2010.06.03 18:47:42.
