data_PCOD9307515
_publ_section_title
;
Structure prediction by ZEFSAII (Michael W. Deem and Ramdas Pophale) SiO2 
 PCOD9307515
Probable space group: C 2/C
;
_chemical_formula_sum "Si O2"
_cell_formula_units_Z 44
_cell_length_a 12.973579
_cell_length_b 20.700660
_cell_length_c 15.384367
_cell_angle_alpha 90.000000
_cell_angle_beta 154.318660
_cell_angle_gamma 90.000000
_cell_volume 1790.515395
_symmetry_space_group_name_H-M "C 2/C"
_symmetry_group_IT_number 15
_symmetry_cell_setting 'monoclinic'
loop_
_space_group_symop_operation_xyz
x,y,z
-x,y,1/2-z
-x,-y,-z
x,-y,1/2+z
1/2+x,1/2+y,z
1/2-x,1/2+y,1/2-z
1/2-x,1/2-y,-z
1/2+x,1/2-y,1/2+z
loop_
_atom_site_type_symbol
_atom_site_label
_atom_site_fract_x
_atom_site_fract_y
_atom_site_fract_z
Si Si1 0.332302 0.989220 0.455687
Si Si2 0.975495 0.305165 0.463547
Si Si3 0.543519 0.658883 0.095818
Si Si4 0.524640 0.614160 0.630382
Si Si5 0.182822 0.378736 0.463298
Si Si6 0.000000 0.589690 0.250000
O O1 0.739184 0.940970 0.563225
O O2 0.466777 0.953313 0.637433
O O3 0.113454 0.947642 0.250977
O O4 0.500000 0.000000 0.500000
O O5 0.005765 0.228582 0.485149
O O6 0.720454 0.331238 0.299389
O O7 0.176777 0.339244 0.674054
O O8 0.042378 0.328277 0.417107
O O9 0.464238 0.605626 0.965850
O O10 0.403491 0.651826 0.079353
O O11 0.248287 0.628536 0.436594
O O12 0.000000 0.399747 0.250000
#
# Coordination Sequence:
#
# PCOD9307515 Si02
#       6
#     8   8   8   8   8   4
#     4  12  26  52  79 115 163 215 267 327 400 484
#     4  12  24  47  77 116 162 208 260 331 410 489
#     4  12  25  46  80 117 162 205 261 333 406 484
#     4  12  27  51  78 111 158 206 273 322 398 474
#     4  12  23  47  76 121 164 212 255 324 414 489
#     4  12  30  52  78 108 160 210 274 338 388 474
#
# _framework density 24.573931000000002
#
# number of rings (size 3 to 8) (size 9 to 14) (size 15 to 20)
#    0.000    0.000    6.364    2.727    0.000    3.636 
#    0.000    0.909    0.000    0.000    0.000    0.000 
#    0.000    0.000    0.000    0.000    0.000    0.000 
#
# Total GULP energy -123235.538608 kJ/mol
# GULP energy per Si atom -5601.615391 kJ/mol
# Density = 2.451800 g / cm^3
# Si number density = 24.573931 Si / 1000 Ang^3
#
#
#
# Elastic Constant Matrix: (Units=GPa)
#
#
# Indices 1 2 3 4 5 6 
#
# 1 111.9265 33.4164 55.9492 0.0011 -0.6655 0.0002
# 2 33.4164 89.8353 47.2801 0.0002 5.2603 -0.0001
# 3 55.9492 47.2801 176.7804 0.0058 18.2464 -0.0001
# 4 0.0011 0.0002 0.0058 24.8726 0.0017 -11.6552
# 5 -0.6655 5.2603 18.2464 0.0017 59.9484 0.0000
# 6 0.0002 -0.0001 -0.0001 -11.6552 0.0000 28.9238
#
#
#
# Elastic Compliance Matrix: (Units=1/GPa)
#
#
# Indices 1 2 3 4 5 6 
#
# 1 0.011227 -0.002690 -0.002964 0.000000 0.001263 0.000000
# 2 -0.002690 0.013600 -0.002746 0.000001 -0.000387 0.000000
# 3 -0.002964 -0.002746 0.007545 -0.000002 -0.002088 -0.000001
# 4 0.000000 0.000001 -0.000002 0.049564 -0.000001 0.019972
# 5 0.001263 -0.000387 -0.002088 -0.000001 0.017365 0.000000
# 6 0.000000 0.000000 -0.000001 0.019972 0.000000 0.042622
#
#
# Mechanical properties :
#
#
# Convention : Reuss Voigt Hill
#
# Bulk Modulus (GPa) = 64.22026 72.42598 68.32312
# Shear Modulus (GPa) = 30.50412 38.87538 34.68975
#
# Velocity S-wave (km/s) = 3.52706 3.98172 3.76127
# Velocity P-wave (km/s) = 6.54042 7.11867 6.83566
#
# Compressibility (1/GPa) = 0.01557141
#
# Stress axis : x y z
#
# Youngs Moduli (GPa) = 89.07325 73.52944 132.54182
#
# Poissons Ratio (x) = 0.19780 0.39286
# Poissons Ratio (y) = 0.23961 0.36396
# Poissons Ratio (z) = 0.26402 0.20191
#
# Static dielectric constant tensor:
#      x y z
#    x 1.972700 0.000000 -0.005260 
#    y 0.000000 1.903200 0.000000 
#    z -0.005260 0.000000 2.016800 
# 
# From -- ./inp_files/148640.got.cif
#   From: 2010.05.17/outbox.cif.g08.bks.cpg/sg15_75_cif.got.tgz:148640.got - 2010.06.03 18:47:42.
