data_PCOD9307242
_publ_section_title
;
Structure prediction by ZEFSAII (Michael W. Deem and Ramdas Pophale) SiO2 
 PCOD9307242
Probable space group: C 2/C
;
_chemical_formula_sum "Si O2"
_cell_formula_units_Z 48
_cell_length_a 9.678641
_cell_length_b 11.681745
_cell_length_c 20.288856
_cell_angle_alpha 90.000000
_cell_angle_beta 49.546455
_cell_angle_gamma 90.000000
_cell_volume 1745.523390
_symmetry_space_group_name_H-M "C 2/C"
_symmetry_group_IT_number 15
_symmetry_cell_setting 'monoclinic'
loop_
_space_group_symop_operation_xyz
x,y,z
-x,y,1/2-z
-x,-y,-z
x,-y,1/2+z
1/2+x,1/2+y,z
1/2-x,1/2+y,1/2-z
1/2-x,1/2-y,-z
1/2+x,1/2-y,1/2+z
loop_
_atom_site_type_symbol
_atom_site_label
_atom_site_fract_x
_atom_site_fract_y
_atom_site_fract_z
Si Si1 0.101284 0.570977 0.896905
Si Si2 0.000000 0.433487 0.750000
Si Si3 0.250000 0.750000 0.500000
Si Si4 0.323174 0.632942 0.950290
Si Si5 0.258405 0.562142 0.566091
Si Si6 0.825453 0.776419 0.227441
Si Si7 0.825741 0.856590 0.836523
O O1 0.165492 0.591356 0.950493
O O2 0.224023 0.646301 0.811233
O O3 0.154102 0.438412 0.874016
O O4 0.898591 0.612008 0.938959
O O5 0.136686 0.510158 0.662517
O O6 0.116318 0.343811 0.757459
O O7 0.367935 0.678885 0.523797
O O8 0.146085 0.824960 0.596341
O O9 0.500604 0.656251 0.853016
O O10 0.250000 0.750000 0.000000
O O11 0.350289 0.541177 0.999329
O O12 0.701775 0.751725 0.202530
O O13 0.000000 0.918228 0.750000
#
# Coordination Sequence:
#
# PCOD9307242 Si02
#       7
#     8   4   4   8   8   8   8
#     4  12  24  46  76 103 150 199 250 305 387 454
#     4  12  24  50  70 114 146 198 250 316 380 460
#     4  12  30  46  72 106 152 198 260 298 392 452
#     4  12  22  43  75 110 142 188 258 313 368 450
#     4  12  27  47  73 109 154 202 247 319 382 456
#     4  12  25  46  78 112 150 197 257 316 380 466
#     4  12  27  50  73 108 153 201 253 319 386 456
#
# _framework density 27.498913000000002
#
# number of rings (size 3 to 8) (size 9 to 14) (size 15 to 20)
#    0.000    0.000    6.667    2.500    5.833    0.000 
#    3.000    0.833    0.000    0.000    0.000    0.000 
#    0.000    0.000    0.000    0.000    0.000    0.000 
#
# Total GULP energy -134195.618553 kJ/mol
# GULP energy per Si atom -5591.484106 kJ/mol
# Density = 2.743632 g / cm^3
# Si number density = 27.498913 Si / 1000 Ang^3
#
#
#
# Elastic Constant Matrix: (Units=GPa)
#
#
# Indices 1 2 3 4 5 6 
#
# 1 87.2334 -3.5735 16.3163 0.0000 3.6799 0.0000
# 2 -3.5735 142.6318 57.5307 0.0000 15.0120 0.0000
# 3 16.3163 57.5307 213.2410 0.0000 13.2524 0.0000
# 4 0.0000 0.0000 0.0000 -8.0732 0.0000 3.5674
# 5 3.6799 15.0120 13.2524 0.0000 47.4855 0.0000
# 6 0.0000 0.0000 0.0000 3.5674 0.0000 47.1263
#
#
#
# Elastic Compliance Matrix: (Units=1/GPa)
#
#
# Indices 1 2 3 4 5 6 
#
# 1 0.011732 0.000814 -0.001063 0.000000 -0.000870 0.000000
# 2 0.000814 0.008101 -0.002122 0.000000 -0.002032 0.000000
# 3 -0.001063 -0.002122 0.005390 0.000000 -0.000751 0.000000
# 4 0.000000 0.000000 0.000000 -0.119857 0.000000 0.009073
# 5 -0.000870 -0.002032 -0.000751 0.000000 0.021979 0.000000
# 6 0.000000 0.000000 0.000000 0.009073 0.000000 0.020533
#
#
# Mechanical properties :
#
#
# Convention : Reuss Voigt Hill
#
# Bulk Modulus (GPa) = 48.82257 64.85037 56.83647
# Shear Modulus (GPa) = -123.29467 42.16322 -40.56572
#
# Velocity S-wave (km/s) = -6.70325 3.91995 -3.84497
# Velocity P-wave (km/s) = 6.48987 6.64244 1.00089
#
# Compressibility (1/GPa) = 0.02048233
#
# Stress axis : x y z
#
# Youngs Moduli (GPa) = 85.23367 123.43992 185.52954
#
# Poissons Ratio (x) = -0.10053 0.19729
# Poissons Ratio (y) = -0.06942 0.39363
# Poissons Ratio (z) = 0.09064 0.26190
#
# Static dielectric constant tensor:
#      x y z
#    x 2.274210 0.000000 0.035160 
#    y 0.000000 2.568240 0.000000 
#    z 0.035160 0.000000 2.251240 
# 
# From -- ./inp_files/237464.got.cif
#   From: 2010.05.17/outbox.cif.g08.bks.cpg/sg15_119_cif.got.tgz:237464.got - 2010.06.03 18:47:42.
