data_PCOD9307205
_publ_section_title
;
Structure prediction by ZEFSAII (Michael W. Deem and Ramdas Pophale) SiO2 
 PCOD9307205
Probable space group: C 2/C
;
_chemical_formula_sum "Si O2"
_cell_formula_units_Z 40
_cell_length_a 12.519951
_cell_length_b 4.905677
_cell_length_c 24.421041
_cell_angle_alpha 90.000000
_cell_angle_beta 86.655501
_cell_angle_gamma 90.000000
_cell_volume 1497.357266
_symmetry_space_group_name_H-M "C 2/C"
_symmetry_group_IT_number 15
_symmetry_cell_setting 'monoclinic'
loop_
_space_group_symop_operation_xyz
x,y,z
-x,y,1/2-z
-x,-y,-z
x,-y,1/2+z
1/2+x,1/2+y,z
1/2-x,1/2+y,1/2-z
1/2-x,1/2-y,-z
1/2+x,1/2-y,1/2+z
loop_
_atom_site_type_symbol
_atom_site_label
_atom_site_fract_x
_atom_site_fract_y
_atom_site_fract_z
Si Si1 0.586747 0.928556 0.464850
Si Si2 0.014901 0.529068 0.343149
Si Si3 0.215837 0.325540 0.282152
Si Si4 0.342190 0.614203 0.485631
Si Si5 0.616244 0.522569 0.139417
O O1 0.565175 0.003228 0.402346
O O2 0.453198 0.827559 0.486890
O O3 0.636975 0.627549 0.471724
O O4 0.705964 0.107269 0.475743
O O5 0.279599 0.412392 0.334291
O O6 0.980432 0.838018 0.335686
O O7 0.910494 0.335911 0.348134
O O8 0.268854 0.512931 0.233640
O O9 0.095293 0.416577 0.295792
O O10 0.376292 0.486425 0.425574
#
# Coordination Sequence:
#
# PCOD9307205 Si02
#       5
#     8   8   8   8   8
#     4  12  22  42  67 101 145 179 227 278 347 426
#     4  12  26  45  76 103 141 188 231 289 355 428
#     4  12  29  50  71 102 137 178 242 307 355 411
#     4  12  24  40  67 103 145 187 230 284 343 431
#     4  12  25  46  72 104 139 186 239 284 356 430
#
# _framework density 26.713732
#
# number of rings (size 3 to 8) (size 9 to 14) (size 15 to 20)
#    0.000    0.000    4.000    6.000    0.000    8.000 
#    0.000    0.000    0.000    0.000    0.000    0.000 
#    0.000    0.000    0.000    0.000    0.000    0.000 
#
# Total GULP energy -112080.266355 kJ/mol
# GULP energy per Si atom -5604.013318 kJ/mol
# Density = 2.665293 g / cm^3
# Si number density = 26.713732 Si / 1000 Ang^3
#
#
#
# Elastic Constant Matrix: (Units=GPa)
#
#
# Indices 1 2 3 4 5 6 
#
# 1 108.0747 6.2031 -6.4899 0.0000 -8.6146 0.0000
# 2 6.2031 124.0739 12.7033 0.0000 13.7180 0.0000
# 3 -6.4899 12.7033 40.1932 0.0000 12.6551 0.0000
# 4 0.0000 0.0000 0.0000 36.5265 0.0000 7.5938
# 5 -8.6146 13.7180 12.6551 0.0000 48.1881 0.0000
# 6 0.0000 0.0000 0.0000 7.5938 0.0000 54.9680
#
#
#
# Elastic Compliance Matrix: (Units=1/GPa)
#
#
# Indices 1 2 3 4 5 6 
#
# 1 0.009501 -0.000781 0.001282 0.000000 0.001584 0.000000
# 2 -0.000781 0.008544 -0.002199 0.000000 -0.001995 0.000000
# 3 0.001282 -0.002199 0.027812 0.000000 -0.006449 0.000000
# 4 0.000000 0.000000 0.000000 0.028187 0.000000 -0.003894
# 5 0.001584 -0.001995 -0.006449 0.000000 0.023297 0.000000
# 6 0.000000 0.000000 0.000000 -0.003894 0.000000 0.018730
#
#
# Mechanical properties :
#
#
# Convention : Reuss Voigt Hill
#
# Bulk Modulus (GPa) = 23.55045 33.01943 28.28494
# Shear Modulus (GPa) = 37.41919 45.26487 41.34203
#
# Velocity S-wave (km/s) = 3.74672 4.12083 3.93822
# Velocity P-wave (km/s) = 5.24902 5.91852 5.59380
#
# Compressibility (1/GPa) = 0.04246204
#
# Stress axis : x y z
#
# Youngs Moduli (GPa) = 105.25222 117.03534 35.95537
#
# Poissons Ratio (x) = 0.09146 -0.04611
# Poissons Ratio (y) = 0.08225 0.07905
# Poissons Ratio (z) = -0.13496 0.25732
#
# Static dielectric constant tensor:
#      x y z
#    x 2.262760 0.000000 0.040270 
#    y 0.000000 1.952060 0.000000 
#    z 0.040270 0.000000 1.978420 
# 
# From -- ./inp_files/309333.got.cif
#   From: 2010.05.17/outbox.cif.g08.bks.cpg/sg15_155_cif.got.tgz:309333.got - 2010.06.03 18:47:42.
