data_PCOD9307383
_publ_section_title
;
Structure prediction by ZEFSAII (Michael W. Deem and Ramdas Pophale) SiO2 
 PCOD9307383
Probable space group: C 2/C
;
_chemical_formula_sum "Si O2"
_cell_formula_units_Z 52
_cell_length_a 6.084095
_cell_length_b 25.435563
_cell_length_c 18.633646
_cell_angle_alpha 90.000000
_cell_angle_beta 126.528592
_cell_angle_gamma 90.000000
_cell_volume 2317.146294
_symmetry_space_group_name_H-M "C 2/C"
_symmetry_group_IT_number 15
_symmetry_cell_setting 'monoclinic'
loop_
_space_group_symop_operation_xyz
x,y,z
-x,y,1/2-z
-x,-y,-z
x,-y,1/2+z
1/2+x,1/2+y,z
1/2-x,1/2+y,1/2-z
1/2-x,1/2-y,-z
1/2+x,1/2-y,1/2+z
loop_
_atom_site_type_symbol
_atom_site_label
_atom_site_fract_x
_atom_site_fract_y
_atom_site_fract_z
Si Si1 0.069202 0.831089 0.115118
Si Si2 0.743991 0.463214 0.651523
Si Si3 0.575805 0.925173 0.373189
Si Si4 0.500000 0.199314 0.250000
Si Si5 0.500000 0.622653 0.750000
Si Si6 0.670017 0.867670 0.920775
Si Si7 0.000000 0.249879 0.250000
Si Si8 0.339254 0.054440 0.450163
O O1 0.240103 0.883369 0.131600
O O2 0.954143 0.840005 0.172525
O O3 0.288774 0.784470 0.161258
O O4 0.833606 0.832333 0.009583
O O5 0.829539 0.516963 0.630607
O O6 0.674669 0.419191 0.578929
O O7 0.454009 0.466762 0.633473
O O8 0.000000 0.447069 0.750000
O O9 0.263930 0.913676 0.292710
O O10 0.612714 0.917254 0.464536
O O11 0.395119 0.165839 0.161831
O O12 0.779050 0.224422 0.265171
O O13 0.426618 0.899938 0.911743
O O14 0.500000 0.000000 0.500000
#
# Coordination Sequence:
#
# PCOD9307383 Si02
#       8
#     8   8   8   4   4   8   4   8
#     4  12  25  47  79 113 150 200 258 343 404 483
#     4  12  26  42  67 111 164 209 255 309 387 489
#     4  12  24  40  73 112 160 205 261 316 399 471
#     4  12  33  56  83 116 155 214 268 351 408 490
#     4  12  23  42  71 114 158 207 260 327 400 470
#     4  12  27  49  78 110 157 210 260 315 405 483
#     4  12  30  56  84 114 159 197 282 354 426 466
#     4  12  25  43  72 108 161 209 256 313 381 484
#
# _framework density 22.441396000000001
#
# number of rings (size 3 to 8) (size 9 to 14) (size 15 to 20)
#    0.000    0.000    6.923    2.769    4.308    1.846 
#    0.000    0.000    0.000    0.000    0.000    0.000 
#    0.000    0.000    0.000    0.000    0.000    0.000 
#
# Total GULP energy -144942.134768 kJ/mol
# GULP energy per Si atom -5574.697491 kJ/mol
# Density = 2.239032 g / cm^3
# Si number density = 22.441396 Si / 1000 Ang^3
#
#
#
# Elastic Constant Matrix: (Units=GPa)
#
#
# Indices 1 2 3 4 5 6 
#
# 1 94.0587 56.3882 74.8765 0.0000 -8.7640 0.0000
# 2 56.3882 75.9095 43.1544 0.0000 -10.6130 0.0000
# 3 74.8765 43.1544 150.9145 0.0000 -4.2936 0.0000
# 4 0.0000 0.0000 0.0000 -145.5041 0.0000 -89.0059
# 5 -8.7640 -10.6130 -4.2936 0.0000 46.9001 0.0000
# 6 0.0000 0.0000 0.0000 -89.0059 0.0000 -12.8044
#
#
#
# Elastic Compliance Matrix: (Units=1/GPa)
#
#
# Indices 1 2 3 4 5 6 
#
# 1 0.026584 -0.014500 -0.009019 0.000000 0.000861 0.000000
# 2 -0.014500 0.024120 0.000376 0.000000 0.002783 0.000000
# 3 -0.009019 0.000376 0.010977 0.000000 -0.000595 0.000000
# 4 0.000000 0.000000 0.000000 0.002113 0.000000 -0.014690
# 5 0.000861 0.002783 -0.000595 0.000000 0.022058 0.000000
# 6 0.000000 0.000000 0.000000 -0.014690 0.000000 0.024015
#
#
# Mechanical properties :
#
#
# Convention : Reuss Voigt Hill
#
# Bulk Modulus (GPa) = 64.95581 74.41343 69.68462
# Shear Modulus (GPa) = 31.00112 -12.51744 9.24184
#
# Velocity S-wave (km/s) = 3.72079 -2.36431 2.03154
# Velocity P-wave (km/s) = 6.88959 5.07718 6.05162
#
# Compressibility (1/GPa) = 0.01539508
#
# Stress axis : x y z
#
# Youngs Moduli (GPa) = 37.61600 41.45944 91.10329
#
# Poissons Ratio (x) = 0.60117 0.82167
# Poissons Ratio (y) = 0.54544 -0.03428
# Poissons Ratio (z) = 0.33926 -0.01560
#
# Static dielectric constant tensor:
#      x y z
#    x 2.079960 0.000000 0.009890 
#    y 0.000000 1.856330 0.000000 
#    z 0.009890 0.000000 1.836910 
# 
# From -- ./inp_files/228654.got.cif
#   From: 2010.05.17/outbox.cif.g08.bks.cpg/sg15_115_cif.got.tgz:228654.got - 2010.06.03 18:47:42.
