data_PCOD9307599
_publ_section_title
;
Structure prediction by ZEFSAII (Michael W. Deem and Ramdas Pophale) SiO2 
 PCOD9307599
Probable space group: C 2/C
;
_chemical_formula_sum "Si O2"
_cell_formula_units_Z 56
_cell_length_a 19.470526
_cell_length_b 18.063029
_cell_length_c 20.241654
_cell_angle_alpha 90.000000
_cell_angle_beta 20.706518
_cell_angle_gamma 90.000000
_cell_volume 2517.117547
_symmetry_space_group_name_H-M "C 2/C"
_symmetry_group_IT_number 15
_symmetry_cell_setting 'monoclinic'
loop_
_space_group_symop_operation_xyz
x,y,z
-x,y,1/2-z
-x,-y,-z
x,-y,1/2+z
1/2+x,1/2+y,z
1/2-x,1/2+y,1/2-z
1/2-x,1/2-y,-z
1/2+x,1/2-y,1/2+z
loop_
_atom_site_type_symbol
_atom_site_label
_atom_site_fract_x
_atom_site_fract_y
_atom_site_fract_z
Si Si1 0.481651 0.918654 0.487732
Si Si2 0.855786 0.086054 0.821689
Si Si3 0.507983 0.170651 0.393974
Si Si4 0.331603 0.261164 0.867312
Si Si5 0.384423 0.580508 0.264006
Si Si6 0.040419 0.841286 0.030641
Si Si7 0.302074 0.636607 0.609290
O O1 0.537559 0.858073 0.491346
O O2 0.261431 0.910311 0.665508
O O3 0.618754 0.907486 0.301961
O O4 0.500000 0.000000 0.500000
O O5 0.000000 0.110744 0.750000
O O6 0.948300 0.103081 0.666630
O O7 0.839309 0.997132 0.838951
O O8 0.652075 0.129913 0.007020
O O9 0.728489 0.147634 0.181124
O O10 0.494454 0.259066 0.408489
O O11 0.597921 0.244551 0.617853
O O12 0.339608 0.348786 0.848541
O O13 0.268864 0.212434 0.860765
O O14 0.593848 0.590152 0.042233
O O15 0.940021 0.848602 0.048923
#
# Coordination Sequence:
#
# PCOD9307599 Si02
#       7
#     8   8   8   8   8   8   8
#     4  12  24  43  70 110 146 184 246 312 364 425
#     4  12  29  49  71 104 147 192 240 308 377 432
#     4  12  24  46  73 107 144 180 243 303 363 436
#     4  12  25  46  69 107 150 199 242 289 361 452
#     4  12  26  45  74 103 148 194 245 296 366 438
#     4  12  25  47  77 106 139 185 248 305 366 430
#     4  12  26  43  76 107 146 193 242 301 363 431
#
# _framework density 22.247669999999999
#
# number of rings (size 3 to 8) (size 9 to 14) (size 15 to 20)
#    0.000    0.000    7.143    2.143    4.000    2.286 
#    0.000    0.000    0.000    0.000    0.000    0.000 
#    0.000    0.000    0.000    0.000    0.000    0.000 
#
# Total GULP energy -156536.598499 kJ/mol
# GULP energy per Si atom -5590.592804 kJ/mol
# Density = 2.219703 g / cm^3
# Si number density = 22.247670 Si / 1000 Ang^3
#
#
#
# Elastic Constant Matrix: (Units=GPa)
#
#
# Indices 1 2 3 4 5 6 
#
# 1 119.1709 10.8263 13.2894 0.0230 -20.3083 0.0259
# 2 10.8263 102.4038 11.4112 0.0439 13.2170 0.0775
# 3 13.2894 11.4112 111.9958 0.0600 3.2426 0.0306
# 4 0.0230 0.0439 0.0600 14.7346 -0.0077 -15.4472
# 5 -20.3083 13.2170 3.2426 -0.0077 42.5547 -0.0497
# 6 0.0259 0.0775 0.0306 -15.4472 -0.0497 19.9752
#
#
#
# Elastic Compliance Matrix: (Units=1/GPa)
#
#
# Indices 1 2 3 4 5 6 
#
# 1 0.009527 -0.001542 -0.001121 0.000028 0.005111 0.000030
# 2 -0.001542 0.010524 -0.000775 -0.000410 -0.003946 -0.000365
# 3 -0.001121 -0.000775 0.009170 -0.000245 -0.000994 -0.000202
# 4 0.000028 -0.000410 -0.000245 0.358572 0.000549 0.277292
# 5 0.005111 -0.003946 -0.000994 0.000549 0.027240 0.000503
# 6 0.000030 -0.000365 -0.000202 0.277292 0.000503 0.264499
#
#
# Mechanical properties :
#
#
# Convention : Reuss Voigt Hill
#
# Bulk Modulus (GPa) = 44.75218 44.95826 44.85522
# Shear Modulus (GPa) = 7.20608 35.32248 21.26428
#
# Velocity S-wave (km/s) = 1.80168 3.98891 3.09495
# Velocity P-wave (km/s) = 4.94845 6.43950 5.74258
#
# Compressibility (1/GPa) = 0.02234528
#
# Stress axis : x y z
#
# Youngs Moduli (GPa) = 104.95979 95.01739 109.05285
#
# Poissons Ratio (x) = 0.14652 0.12229
# Poissons Ratio (y) = 0.16185 0.08449
# Poissons Ratio (z) = 0.11770 0.07362
#
# Static dielectric constant tensor:
#      x y z
#    x 1.837190 -0.000040 -0.148870 
#    y -0.000040 1.767950 0.000030 
#    z -0.148870 0.000030 2.493250 
# 
# From -- ./inp_files/253335.got.cif
#   From: 2010.05.17/outbox.cif.g08.bks.cpg/sg15_127_cif.got.tgz:253335.got - 2010.06.03 18:47:42.
