data_PCOD9307443
_publ_section_title
;
Structure prediction by ZEFSAII (Michael W. Deem and Ramdas Pophale) SiO2 
 PCOD9307443
Probable space group: C 2/C
;
_chemical_formula_sum "Si O2"
_cell_formula_units_Z 24
_cell_length_a 12.833406
_cell_length_b 4.900344
_cell_length_c 14.888904
_cell_angle_alpha 90.000000
_cell_angle_beta 108.012982
_cell_angle_gamma 90.000000
_cell_volume 890.441869
_symmetry_space_group_name_H-M "C 2/C"
_symmetry_group_IT_number 15
_symmetry_cell_setting 'monoclinic'
loop_
_space_group_symop_operation_xyz
x,y,z
-x,y,1/2-z
-x,-y,-z
x,-y,1/2+z
1/2+x,1/2+y,z
1/2-x,1/2+y,1/2-z
1/2-x,1/2-y,-z
1/2+x,1/2-y,1/2+z
loop_
_atom_site_type_symbol
_atom_site_label
_atom_site_fract_x
_atom_site_fract_y
_atom_site_fract_z
Si Si1 0.819845 0.069212 0.249203
Si Si2 0.191752 0.969561 0.455300
Si Si3 0.553846 0.719648 0.047228
O O1 0.728252 0.304130 0.213421
O O2 0.852331 0.972699 0.159517
O O3 0.907238 0.201754 0.338999
O O4 0.250000 0.250000 0.500000
O O5 0.066131 0.028668 0.471066
O O6 0.188686 0.721308 0.537078
O O7 0.500000 0.000000 0.000000
#
# Coordination Sequence:
#
# PCOD9307443 Si02
#       3
#     8   8   8
#     4  12  23  44  74 104 138 195 250 291 355 448
#     4  12  23  44  74 104 138 194 249 292 356 445
#     4  12  26  44  70 108 153 180 235 315 370 415
#
# _framework density 26.952909999999999
#
# number of rings (size 3 to 8) (size 9 to 14) (size 15 to 20)
#    0.000    0.000    6.667    4.000    0.000    1.333 
#    0.000    3.333    0.000    0.000    0.000    0.000 
#    0.000    0.000    0.000    0.000    0.000    0.000 
#
# Total GULP energy -67179.130882 kJ/mol
# GULP energy per Si atom -5598.260907 kJ/mol
# Density = 2.689156 g / cm^3
# Si number density = 26.952910 Si / 1000 Ang^3
#
#
#
# Elastic Constant Matrix: (Units=GPa)
#
#
# Indices 1 2 3 4 5 6 
#
# 1 206.5366 37.1459 107.7963 0.0000 -23.8942 0.0000
# 2 37.1459 184.9465 90.7294 0.0000 0.2635 0.0000
# 3 107.7963 90.7294 257.0152 0.0000 9.5700 0.0000
# 4 0.0000 0.0000 0.0000 37.5211 0.0000 8.8671
# 5 -23.8942 0.2635 9.5700 0.0000 48.7029 0.0000
# 6 0.0000 0.0000 0.0000 8.8671 0.0000 80.0656
#
#
#
# Elastic Compliance Matrix: (Units=1/GPa)
#
#
# Indices 1 2 3 4 5 6 
#
# 1 0.006889 0.000122 -0.003081 0.000000 0.003984 0.000000
# 2 0.000122 0.006550 -0.002382 0.000000 0.000492 0.000000
# 3 -0.003081 -0.002382 0.006124 0.000000 -0.002702 0.000000
# 4 0.000000 0.000000 0.000000 0.027368 0.000000 -0.003031
# 5 0.003984 0.000492 -0.002702 0.000000 0.023016 0.000000
# 6 0.000000 0.000000 0.000000 -0.003031 0.000000 0.012825
#
#
# Mechanical properties :
#
#
# Convention : Reuss Voigt Hill
#
# Bulk Modulus (GPa) = 112.58356 124.42684 118.50520
# Shear Modulus (GPa) = 51.85982 60.77970 56.31976
#
# Velocity S-wave (km/s) = 4.39120 4.75387 4.57613
# Velocity P-wave (km/s) = 8.22018 8.74054 8.48435
#
# Compressibility (1/GPa) = 0.00888229
#
# Stress axis : x y z
#
# Youngs Moduli (GPa) = 145.16728 152.66684 163.28383
#
# Poissons Ratio (x) = -0.01863 0.50302
# Poissons Ratio (y) = -0.01772 0.38891
# Poissons Ratio (z) = 0.44721 0.36363
#
# Static dielectric constant tensor:
#      x y z
#    x 2.578000 0.000000 -0.007310 
#    y 0.000000 2.388010 0.000000 
#    z -0.007310 0.000000 1.970200 
# 
# From -- ./inp_files/149478.got.cif
#   From: 2010.05.17/outbox.cif.g08.bks.cpg/sg15_75_cif.got.tgz:149478.got - 2010.06.03 18:47:42.
