data_PCOD9307954
_publ_section_title
;
Structure prediction by ZEFSAII (Michael W. Deem and Ramdas Pophale) SiO2 
 PCOD9307954
Probable space group: C 2/C
;
_chemical_formula_sum "Si O2"
_cell_formula_units_Z 20
_cell_length_a 16.058760
_cell_length_b 11.313074
_cell_length_c 8.949507
_cell_angle_alpha 90.000000
_cell_angle_beta 148.266133
_cell_angle_gamma 90.000000
_cell_volume 855.177781
_symmetry_space_group_name_H-M "C 2/C"
_symmetry_group_IT_number 15
_symmetry_cell_setting 'monoclinic'
loop_
_space_group_symop_operation_xyz
x,y,z
-x,y,1/2-z
-x,-y,-z
x,-y,1/2+z
1/2+x,1/2+y,z
1/2-x,1/2+y,1/2-z
1/2-x,1/2-y,-z
1/2+x,1/2-y,1/2+z
loop_
_atom_site_type_symbol
_atom_site_label
_atom_site_fract_x
_atom_site_fract_y
_atom_site_fract_z
Si Si1 0.170304 0.013506 0.836347
Si Si2 0.500000 0.298172 0.250000
Si Si3 0.127084 0.594727 0.633768
O O1 0.293608 0.048448 0.897726
O O2 0.143184 0.118691 0.914574
O O3 0.000000 0.000000 0.500000
O O4 0.236878 0.903982 0.032616
O O5 0.549480 0.217198 0.465345
O O6 0.000000 0.500000 0.500000
#
# Coordination Sequence:
#
# PCOD9307954 Si02
#       3
#     8   4   8
#     4  12  25  49  73 108 148 192 245 303 359 442
#     4  12  26  46  82 104 152 192 248 298 380 420
#     4  12  25  46  76 107 149 191 247 302 361 441
#
# _framework density 23.386951
#
# number of rings (size 3 to 8) (size 9 to 14) (size 15 to 20)
#    0.000    0.000    8.000    1.200    0.000    1.600 
#    0.000    4.000    0.000    0.000    0.000    0.000 
#    0.000    0.000    0.000    0.000    0.000    0.000 
#
# Total GULP energy -55984.202677 kJ/mol
# GULP energy per Si atom -5598.420268 kJ/mol
# Density = 2.333372 g / cm^3
# Si number density = 23.386951 Si / 1000 Ang^3
#
#
#
# Elastic Constant Matrix: (Units=GPa)
#
#
# Indices 1 2 3 4 5 6 
#
# 1 166.8001 27.7456 -11.4695 0.0000 23.2245 0.0000
# 2 27.7456 88.5635 32.7599 0.0000 6.9760 0.0000
# 3 -11.4695 32.7599 135.1041 0.0000 -2.2822 0.0000
# 4 0.0000 0.0000 0.0000 47.8158 0.0000 -15.1424
# 5 23.2245 6.9760 -2.2822 0.0000 28.1307 0.0000
# 6 0.0000 0.0000 0.0000 -15.1424 0.0000 49.5820
#
#
#
# Elastic Compliance Matrix: (Units=1/GPa)
#
#
# Indices 1 2 3 4 5 6 
#
# 1 0.007174 -0.002223 0.001059 0.000000 -0.005285 0.000000
# 2 -0.002223 0.013411 -0.003471 0.000000 -0.001772 0.000000
# 3 0.001059 -0.003471 0.008344 0.000000 0.000664 0.000000
# 4 0.000000 0.000000 0.000000 0.023153 0.000000 0.007071
# 5 -0.005285 -0.001772 0.000664 0.000000 0.040405 0.000000
# 6 0.000000 0.000000 0.000000 0.007071 0.000000 0.022328
#
#
# Mechanical properties :
#
#
# Convention : Reuss Voigt Hill
#
# Bulk Modulus (GPa) = 50.86489 54.28218 52.57354
# Shear Modulus (GPa) = 38.27388 47.86782 43.07085
#
# Velocity S-wave (km/s) = 4.04982 4.52904 4.29611
# Velocity P-wave (km/s) = 6.60791 7.11410 6.86567
#
# Compressibility (1/GPa) = 0.01965992
#
# Stress axis : x y z
#
# Youngs Moduli (GPa) = 139.39947 74.56556 119.84222
#
# Poissons Ratio (x) = 0.16573 -0.12687
# Poissons Ratio (y) = 0.30984 0.41591
# Poissons Ratio (z) = -0.14758 0.25878
#
# Static dielectric constant tensor:
#      x y z
#    x 1.826040 0.000000 -0.009620 
#    y 0.000000 1.871370 0.000000 
#    z -0.009620 0.000000 1.984260 
# 
# From -- ./inp_files/20697.got.cif
#   From: 2010.05.17/outbox.cif.g08.bks.cpg/sg15_11_cif.got.tgz:20697.got - 2010.06.03 18:47:42.
