data_PCOD9307880
_publ_section_title
;
Structure prediction by ZEFSAII (Michael W. Deem and Ramdas Pophale) SiO2 
 PCOD9307880
Probable space group: C 2/C
;
_chemical_formula_sum "Si O2"
_cell_formula_units_Z 32
_cell_length_a 16.516652
_cell_length_b 7.475419
_cell_length_c 13.576387
_cell_angle_alpha 90.000000
_cell_angle_beta 36.150735
_cell_angle_gamma 90.000000
_cell_volume 988.846090
_symmetry_space_group_name_H-M "C 2/C"
_symmetry_group_IT_number 15
_symmetry_cell_setting 'monoclinic'
loop_
_space_group_symop_operation_xyz
x,y,z
-x,y,1/2-z
-x,-y,-z
x,-y,1/2+z
1/2+x,1/2+y,z
1/2-x,1/2+y,1/2-z
1/2-x,1/2-y,-z
1/2+x,1/2-y,1/2+z
loop_
_atom_site_type_symbol
_atom_site_label
_atom_site_fract_x
_atom_site_fract_y
_atom_site_fract_z
Si Si1 0.632384 0.259762 0.167039
Si Si2 0.198272 0.867499 0.860866
Si Si3 0.340814 0.671439 0.322400
Si Si4 0.929739 0.267867 0.533113
O O1 0.500000 0.167270 0.250000
O O2 0.795645 0.184702 0.020609
O O3 0.362538 0.178563 0.216530
O O4 0.610655 0.468472 0.213405
O O5 0.082437 0.731790 0.939667
O O6 0.132626 0.062389 0.917534
O O7 0.250000 0.750000 0.500000
O O8 0.227533 0.639807 0.343188
O O9 0.522986 0.783329 0.337556
#
# Coordination Sequence:
#
# PCOD9307880 Si02
#       4
#     8   8   8   8
#     4  12  25  40  58  94 137 159 195 267 330 355
#     4   8  16  37  59  92 115 159 222 235 300 372
#     4   8  18  39  63  91 119 163 213 256 291 386
#     4   6  15  34  63  87 109 152 233 242 280 350
#
# _framework density 32.360951999999997
#
# number of rings (size 3 to 8) (size 9 to 14) (size 15 to 20)
#    3.000    0.000    0.000    1.500    0.000    2.000 
#    0.000    3.750    0.000    0.000    0.000    0.000 
#    0.000    0.000    0.000    0.000    0.000    0.000 
#
# Total GULP energy -89352.754338 kJ/mol
# GULP energy per Si atom -5584.547146 kJ/mol
# Density = 3.228730 g / cm^3
# Si number density = 32.360952 Si / 1000 Ang^3
#
#
#
# Elastic Constant Matrix: (Units=GPa)
#
#
# Indices 1 2 3 4 5 6 
#
# 1 317.1679 46.7779 131.8857 0.0000 -35.8008 0.0000
# 2 46.7779 105.1143 72.0254 -0.0001 -0.4290 0.0000
# 3 131.8857 72.0254 353.6954 0.0000 9.5436 0.0000
# 4 0.0000 -0.0001 0.0000 56.1339 0.0000 -1.8248
# 5 -35.8008 -0.4290 9.5436 0.0000 104.4863 0.0000
# 6 0.0000 0.0000 0.0000 -1.8248 0.0000 63.6257
#
#
#
# Elastic Compliance Matrix: (Units=1/GPa)
#
#
# Indices 1 2 3 4 5 6 
#
# 1 0.004014 -0.000845 -0.001365 0.000000 0.001497 0.000000
# 2 -0.000845 0.011241 -0.001972 0.000000 -0.000063 0.000000
# 3 -0.001365 -0.001972 0.003760 0.000000 -0.000819 0.000000
# 4 0.000000 0.000000 0.000000 0.017831 0.000000 0.000511
# 5 0.001497 -0.000063 -0.000819 0.000000 0.010158 0.000000
# 6 0.000000 0.000000 0.000000 0.000511 0.000000 0.015732
#
#
# Mechanical properties :
#
#
# Convention : Reuss Voigt Hill
#
# Bulk Modulus (GPa) = 93.89439 141.92843 117.91141
# Shear Modulus (GPa) = 66.97925 79.86843 73.42384
#
# Velocity S-wave (km/s) = 4.55439 4.97334 4.76847
# Velocity P-wave (km/s) = 7.53222 8.77108 8.17515
#
# Compressibility (1/GPa) = 0.01065026
#
# Stress axis : x y z
#
# Youngs Moduli (GPa) = 249.12306 88.96336 265.95446
#
# Poissons Ratio (x) = 0.07516 0.36306
# Poissons Ratio (y) = 0.21047 0.52453
# Poissons Ratio (z) = 0.34008 0.17546
#
# Static dielectric constant tensor:
#      x y z
#    x 3.414540 0.000000 0.387060 
#    y 0.000000 2.180680 0.000000 
#    z 0.387060 0.000000 2.483100 
# 
# From -- ./inp_files/149959.got.cif
#   From: 2010.05.17/outbox.cif.g08.bks.cpg/sg15_75_cif.got.tgz:149959.got - 2010.06.03 18:47:42.
