data_PCOD9307879
_publ_section_title
;
Structure prediction by ZEFSAII (Michael W. Deem and Ramdas Pophale) SiO2 
 PCOD9307879
Probable space group: C 2/C
;
_chemical_formula_sum "Si O2"
_cell_formula_units_Z 48
_cell_length_a 28.746053
_cell_length_b 13.243038
_cell_length_c 22.542672
_cell_angle_alpha 90.000000
_cell_angle_beta 164.458568
_cell_angle_gamma 90.000000
_cell_volume 2299.327855
_symmetry_space_group_name_H-M "C 2/C"
_symmetry_group_IT_number 15
_symmetry_cell_setting 'monoclinic'
loop_
_space_group_symop_operation_xyz
x,y,z
-x,y,1/2-z
-x,-y,-z
x,-y,1/2+z
1/2+x,1/2+y,z
1/2-x,1/2+y,1/2-z
1/2-x,1/2-y,-z
1/2+x,1/2-y,1/2+z
loop_
_atom_site_type_symbol
_atom_site_label
_atom_site_fract_x
_atom_site_fract_y
_atom_site_fract_z
Si Si1 0.837787 0.163098 0.884539
Si Si2 0.463405 0.115975 0.373247
Si Si3 0.134483 0.043661 0.038581
Si Si4 0.599845 0.983028 0.928468
Si Si5 0.832222 0.185901 0.654146
Si Si6 0.834774 0.867973 0.791929
O O1 0.657839 0.120266 0.636827
O O2 0.790644 0.272551 0.851450
O O3 0.896292 0.076067 0.002173
O O4 0.986100 0.168741 0.017163
O O5 0.322556 0.070497 0.244236
O O6 0.410279 0.230149 0.293497
O O7 0.470066 0.052195 0.320780
O O8 0.128790 0.077054 0.100791
O O9 0.987939 0.111028 0.826678
O O10 0.500000 0.030364 0.750000
O O11 0.740922 0.054905 0.132021
O O12 0.693292 0.883132 0.017403
O O13 0.750000 0.250000 0.500000
#
# Coordination Sequence:
#
# PCOD9307879 Si02
#       6
#     8   8   8   8   8   8
#     4  12  25  44  71 104 142 187 242 299 360 422
#     4  12  25  39  72 110 145 185 240 294 363 436
#     4  12  25  43  73 110 148 186 242 304 362 424
#     4  12  26  48  71 101 146 196 237 297 368 433
#     4  12  25  46  71 107 146 189 237 295 368 430
#     4  12  26  45  73 103 143 190 242 302 361 431
#
# _framework density 20.875667
#
# number of rings (size 3 to 8) (size 9 to 14) (size 15 to 20)
#    0.000    0.000    6.667    4.000    2.333    0.000 
#    0.000    0.833    3.667    0.000    0.000    0.000 
#    0.000    0.000    0.000    0.000    0.000    0.000 
#
# Total GULP energy -134397.369815 kJ/mol
# GULP energy per Si atom -5599.890409 kJ/mol
# Density = 2.082815 g / cm^3
# Si number density = 20.875667 Si / 1000 Ang^3
#
#
#
# Elastic Constant Matrix: (Units=GPa)
#
#
# Indices 1 2 3 4 5 6 
#
# 1 103.6472 26.4644 55.2464 0.0020 25.1290 0.0007
# 2 26.4644 107.4599 28.6823 0.0029 1.2986 0.0012
# 3 55.2464 28.6823 96.5494 0.0008 7.7288 0.0013
# 4 0.0020 0.0029 0.0008 36.4235 0.0005 -7.9773
# 5 25.1290 1.2986 7.7288 0.0005 45.6512 -0.0001
# 6 0.0007 0.0012 0.0013 -7.9773 -0.0001 30.4511
#
#
#
# Elastic Compliance Matrix: (Units=1/GPa)
#
#
# Indices 1 2 3 4 5 6 
#
# 1 0.016288 -0.001731 -0.008203 0.000000 -0.007528 0.000000
# 2 -0.001731 0.010293 -0.002150 -0.000001 0.001024 0.000000
# 3 -0.008203 -0.002150 0.015534 0.000000 0.001947 0.000000
# 4 0.000000 -0.000001 0.000000 0.029126 0.000000 0.007630
# 5 -0.007528 0.001024 0.001947 0.000000 0.025690 0.000000
# 6 0.000000 0.000000 0.000000 0.007630 0.000000 0.034838
#
#
# Mechanical properties :
#
#
# Convention : Reuss Voigt Hill
#
# Bulk Modulus (GPa) = 55.71582 58.71586 57.21584
# Shear Modulus (GPa) = 30.87965 35.65603 33.26784
#
# Velocity S-wave (km/s) = 3.85023 4.13730 3.99635
# Velocity P-wave (km/s) = 6.82005 7.14217 6.98296
#
# Compressibility (1/GPa) = 0.01794822
#
# Stress axis : x y z
#
# Youngs Moduli (GPa) = 61.39671 97.14980 64.37474
#
# Poissons Ratio (x) = 0.16814 0.52807
# Poissons Ratio (y) = 0.10626 0.13838
# Poissons Ratio (z) = 0.50365 0.20883
#
# Static dielectric constant tensor:
#      x y z
#    x 1.745300 0.000000 -0.020260 
#    y 0.000000 1.755310 0.000000 
#    z -0.020260 0.000000 1.797300 
# 
# From -- ./inp_files/257642.got.cif
#   From: 2010.05.17/outbox.cif.g08.bks.cpg/sg15_129_cif.got.tgz:257642.got - 2010.06.03 18:47:42.
