data_PCOD9307776
_publ_section_title
;
Structure prediction by ZEFSAII (Michael W. Deem and Ramdas Pophale) SiO2 
 PCOD9307776
Probable space group: C 2/C
;
_chemical_formula_sum "Si O2"
_cell_formula_units_Z 44
_cell_length_a 5.367374
_cell_length_b 17.826768
_cell_length_c 20.220989
_cell_angle_alpha 90.000000
_cell_angle_beta 110.817036
_cell_angle_gamma 90.000000
_cell_volume 1808.499620
_symmetry_space_group_name_H-M "C 2/C"
_symmetry_group_IT_number 15
_symmetry_cell_setting 'monoclinic'
loop_
_space_group_symop_operation_xyz
x,y,z
-x,y,1/2-z
-x,-y,-z
x,-y,1/2+z
1/2+x,1/2+y,z
1/2-x,1/2+y,1/2-z
1/2-x,1/2-y,-z
1/2+x,1/2-y,1/2+z
loop_
_atom_site_type_symbol
_atom_site_label
_atom_site_fract_x
_atom_site_fract_y
_atom_site_fract_z
Si Si1 0.000000 0.218480 0.250000
Si Si2 0.724495 0.032613 0.068968
Si Si3 0.540642 0.389917 0.093663
Si Si4 0.455655 0.898785 0.822000
Si Si5 0.600324 0.817209 0.136848
Si Si6 0.464728 0.669805 0.444383
O O1 0.772562 0.164799 0.199827
O O2 0.129545 0.269642 0.206165
O O3 0.639615 0.036839 0.137140
O O4 0.789704 0.116987 0.053401
O O5 0.975912 0.977912 0.083293
O O6 0.500000 0.000000 0.000000
O O7 0.851404 0.372041 0.125093
O O8 0.367275 0.356930 0.137431
O O9 0.427325 0.348252 0.017699
O O10 0.500000 0.921580 0.750000
O O11 0.718071 0.862268 0.878451
O O12 0.509756 0.755939 0.073268
#
# Coordination Sequence:
#
# PCOD9307776 Si02
#       6
#     4   8   8   8   8   8
#     4  12  26  50  74 110 146 218 264 320 382 490
#     4  12  26  48  78 117 158 203 259 328 399 476
#     4  12  28  46  75 121 160 192 250 338 404 441
#     4  12  24  47  81 110 148 207 279 317 379 481
#     4  12  27  48  77 111 157 204 261 319 390 469
#     4  12  25  46  82 111 150 210 266 313 384 493
#
# _framework density 24.329560000000001
#
# number of rings (size 3 to 8) (size 9 to 14) (size 15 to 20)
#    0.000    0.000    5.455    3.818    2.545    0.000 
#    1.636    1.818    0.000    0.000    0.000    0.000 
#    0.000    0.000    0.000    0.000    0.000    0.000 
#
# Total GULP energy -123433.313059 kJ/mol
# GULP energy per Si atom -5610.605139 kJ/mol
# Density = 2.427418 g / cm^3
# Si number density = 24.329560 Si / 1000 Ang^3
#
#
#
# Elastic Constant Matrix: (Units=GPa)
#
#
# Indices 1 2 3 4 5 6 
#
# 1 118.6456 35.1119 44.6574 0.0000 -14.0140 0.0000
# 2 35.1119 96.2240 9.5934 0.0000 -10.4529 0.0000
# 3 44.6574 9.5934 116.1281 0.0000 -19.4354 0.0000
# 4 0.0000 0.0000 0.0000 35.3894 0.0000 -10.1672
# 5 -14.0140 -10.4529 -19.4354 0.0000 51.9369 0.0000
# 6 0.0000 0.0000 0.0000 -10.1672 0.0000 49.0167
#
#
#
# Elastic Compliance Matrix: (Units=1/GPa)
#
#
# Indices 1 2 3 4 5 6 
#
# 1 0.011007 -0.003547 -0.003800 0.000000 0.000834 0.000000
# 2 -0.003547 0.011801 0.000668 0.000000 0.001668 0.000000
# 3 -0.003800 0.000668 0.010528 0.000000 0.003049 0.000000
# 4 0.000000 0.000000 0.000000 0.030048 0.000000 0.006233
# 5 0.000834 0.001668 0.003049 0.000000 0.020956 0.000000
# 6 0.000000 0.000000 0.000000 0.006233 0.000000 0.021694
#
#
# Mechanical properties :
#
#
# Convention : Reuss Voigt Hill
#
# Bulk Modulus (GPa) = 50.05468 56.63588 53.34528
# Shear Modulus (GPa) = 39.66667 43.37759 41.52213
#
# Velocity S-wave (km/s) = 4.04219 4.22704 4.13565
# Velocity P-wave (km/s) = 6.51183 6.86680 6.69167
#
# Compressibility (1/GPa) = 0.01997815
#
# Stress axis : x y z
#
# Youngs Moduli (GPa) = 90.85103 84.73652 94.98864
#
# Poissons Ratio (x) = 0.30056 0.36097
# Poissons Ratio (y) = 0.32225 -0.06348
# Poissons Ratio (z) = 0.34525 -0.05663
#
# Static dielectric constant tensor:
#      x y z
#    x 1.946960 0.000000 -0.023970 
#    y 0.000000 1.909770 0.000000 
#    z -0.023970 0.000000 1.932220 
# 
# From -- ./inp_files/227006.got.cif
#   From: 2010.05.17/outbox.cif.g08.bks.cpg/sg15_114_cif.got.tgz:227006.got - 2010.06.03 18:47:42.
