data_PCOD9307493
_publ_section_title
;
Structure prediction by ZEFSAII (Michael W. Deem and Ramdas Pophale) SiO2 
 PCOD9307493
Probable space group: C 2/C
;
_chemical_formula_sum "Si O2"
_cell_formula_units_Z 40
_cell_length_a 16.376918
_cell_length_b 8.898460
_cell_length_c 12.430330
_cell_angle_alpha 90.000000
_cell_angle_beta 84.510043
_cell_angle_gamma 90.000000
_cell_volume 1803.154693
_symmetry_space_group_name_H-M "C 2/C"
_symmetry_group_IT_number 15
_symmetry_cell_setting 'monoclinic'
loop_
_space_group_symop_operation_xyz
x,y,z
-x,y,1/2-z
-x,-y,-z
x,-y,1/2+z
1/2+x,1/2+y,z
1/2-x,1/2+y,1/2-z
1/2-x,1/2-y,-z
1/2+x,1/2-y,1/2+z
loop_
_atom_site_type_symbol
_atom_site_label
_atom_site_fract_x
_atom_site_fract_y
_atom_site_fract_z
Si Si1 0.917023 0.298938 0.817310
Si Si2 0.833782 0.188036 0.439401
Si Si3 0.879562 0.625906 0.727964
Si Si4 0.504679 0.822869 0.473632
Si Si5 0.726963 0.365263 0.098529
O O1 0.904346 0.473206 0.787014
O O2 0.832494 0.214824 0.807497
O O3 0.000000 0.246638 0.750000
O O4 0.935262 0.269249 0.940292
O O5 0.750000 0.250000 0.500000
O O6 0.846266 0.256016 0.318505
O O7 0.915929 0.245302 0.489471
O O8 0.820771 0.010326 0.438290
O O9 0.954072 0.691416 0.647887
O O10 0.809446 0.587125 0.649792
O O11 0.500000 0.000000 0.500000
O O12 0.750000 0.250000 0.000000
#
# Coordination Sequence:
#
# PCOD9307493 Si02
#       5
#     8   8   8   8   8
#     4  12  25  44  73 105 144 189 241 309 367 436
#     4  12  27  45  75 106 142 198 249 306 378 443
#     4  12  24  48  76 103 149 198 247 305 375 451
#     4  12  23  46  75 106 143 194 251 301 372 452
#     4  12  27  48  69 108 150 189 247 309 368 446
#
# _framework density 22.183344999999999
#
# number of rings (size 3 to 8) (size 9 to 14) (size 15 to 20)
#    0.000    0.000    6.000    4.200    2.800    2.400 
#    0.000    0.000    0.000    0.000    0.000    0.000 
#    0.000    0.000    0.000    0.000    0.000    0.000 
#
# Total GULP energy -111892.668999 kJ/mol
# GULP energy per Si atom -5594.633450 kJ/mol
# Density = 2.213285 g / cm^3
# Si number density = 22.183345 Si / 1000 Ang^3
#
#
#
# Elastic Constant Matrix: (Units=GPa)
#
#
# Indices 1 2 3 4 5 6 
#
# 1 162.6575 50.1608 45.5579 0.0000 -12.1125 0.0000
# 2 50.1608 110.1713 32.8264 0.0000 -16.9524 0.0000
# 3 45.5579 32.8264 119.0747 0.0000 -20.2093 0.0000
# 4 0.0000 0.0000 0.0000 27.1533 0.0000 -2.1849
# 5 -12.1125 -16.9524 -20.2093 0.0000 62.9922 0.0000
# 6 0.0000 0.0000 0.0000 -2.1849 0.0000 42.8481
#
#
#
# Elastic Compliance Matrix: (Units=1/GPa)
#
#
# Indices 1 2 3 4 5 6 
#
# 1 0.007619 -0.002831 -0.002131 0.000000 0.000019 0.000000
# 2 -0.002831 0.011158 -0.001666 0.000000 0.001924 0.000000
# 3 -0.002131 -0.001666 0.010076 0.000000 0.002374 0.000000
# 4 0.000000 0.000000 0.000000 0.036980 0.000000 0.001886
# 5 0.000019 0.001924 0.002374 0.000000 0.017158 0.000000
# 6 0.000000 0.000000 0.000000 0.001886 0.000000 0.023434
#
#
# Mechanical properties :
#
#
# Convention : Reuss Voigt Hill
#
# Bulk Modulus (GPa) = 64.11963 72.11040 68.11502
# Shear Modulus (GPa) = 40.03775 44.15596 42.09685
#
# Velocity S-wave (km/s) = 4.25297 4.46634 4.36096
# Velocity P-wave (km/s) = 7.28589 7.69251 7.49196
#
# Compressibility (1/GPa) = 0.01559585
#
# Stress axis : x y z
#
# Youngs Moduli (GPa) = 131.24484 89.61937 99.24646
#
# Poissons Ratio (x) = 0.25371 0.21154
# Poissons Ratio (y) = 0.37156 0.16539
# Poissons Ratio (z) = 0.27974 0.14934
#
# Static dielectric constant tensor:
#      x y z
#    x 1.890450 0.000000 0.042230 
#    y 0.000000 1.816300 0.000000 
#    z 0.042230 0.000000 1.850620 
# 
# From -- ./inp_files/102676.got.cif
#   From: 2010.05.17/outbox.cif.g08.bks.cpg/sg15_52_cif.got.tgz:102676.got - 2010.06.03 18:47:42.
