data_PCOD9307351
_publ_section_title
;
Structure prediction by ZEFSAII (Michael W. Deem and Ramdas Pophale) SiO2 
 PCOD9307351
Probable space group: C 2/C
;
_chemical_formula_sum "Si O2"
_cell_formula_units_Z 40
_cell_length_a 4.980754
_cell_length_b 18.959473
_cell_length_c 18.889110
_cell_angle_alpha 90.000000
_cell_angle_beta 99.043913
_cell_angle_gamma 90.000000
_cell_volume 1761.570086
_symmetry_space_group_name_H-M "C 2/C"
_symmetry_group_IT_number 15
_symmetry_cell_setting 'monoclinic'
loop_
_space_group_symop_operation_xyz
x,y,z
-x,y,1/2-z
-x,-y,-z
x,-y,1/2+z
1/2+x,1/2+y,z
1/2-x,1/2+y,1/2-z
1/2-x,1/2-y,-z
1/2+x,1/2-y,1/2+z
loop_
_atom_site_type_symbol
_atom_site_label
_atom_site_fract_x
_atom_site_fract_y
_atom_site_fract_z
Si Si1 0.788667 0.729157 0.800193
Si Si2 0.420778 0.641443 0.395207
Si Si3 0.187962 0.578346 0.632960
Si Si4 0.603987 0.925399 0.676907
Si Si5 0.871766 0.928090 0.463282
O O1 0.500000 0.731549 0.750000
O O2 0.817868 0.781828 0.867646
O O3 0.853718 0.649844 0.826307
O O4 0.000000 0.752762 0.750000
O O5 0.639361 0.614006 0.346428
O O6 0.558312 0.632482 0.477073
O O7 0.157349 0.591016 0.382176
O O8 0.176270 0.507903 0.679236
O O9 0.473129 0.583687 0.604025
O O10 0.947401 0.569521 0.565437
O O11 0.500000 0.902724 0.750000
O O12 0.000000 0.000000 0.500000
#
# Coordination Sequence:
#
# PCOD9307351 Si02
#       5
#     8   8   8   8   8
#     4  12  27  48  66  98 141 178 223 283 337 402
#     4  12  25  42  70  96 137 178 221 278 337 393
#     4  12  25  43  71  98 136 179 221 281 340 391
#     4  12  23  40  66  99 128 176 230 272 329 401
#     4  12  23  44  70 104 137 172 227 286 328 400
#
# _framework density 22.707015999999999
#
# number of rings (size 3 to 8) (size 9 to 14) (size 15 to 20)
#    0.000    0.000    4.000    7.200    0.000    3.200 
#    0.000    0.000    0.000    0.000    0.000    0.000 
#    0.000    0.000    0.000    0.000    0.000    0.000 
#
# Total GULP energy -112046.628641 kJ/mol
# GULP energy per Si atom -5602.331432 kJ/mol
# Density = 2.265533 g / cm^3
# Si number density = 22.707016 Si / 1000 Ang^3
#
#
#
# Elastic Constant Matrix: (Units=GPa)
#
#
# Indices 1 2 3 4 5 6 
#
# 1 110.0796 18.1331 1.3993 0.0000 7.1094 0.0000
# 2 18.1331 92.3397 6.1182 0.0000 -3.0947 0.0000
# 3 1.3993 6.1182 30.6348 0.0000 -2.2494 0.0000
# 4 0.0000 0.0000 0.0000 40.6956 0.0000 0.5708
# 5 7.1094 -3.0947 -2.2494 0.0000 35.4511 0.0000
# 6 0.0000 0.0000 0.0000 0.5708 0.0000 26.0794
#
#
#
# Elastic Compliance Matrix: (Units=1/GPa)
#
#
# Indices 1 2 3 4 5 6 
#
# 1 0.009540 -0.001930 -0.000204 0.000000 -0.002095 0.000000
# 2 -0.001930 0.011389 -0.002095 0.000000 0.001248 0.000000
# 3 -0.000204 -0.002095 0.033215 0.000000 0.001966 0.000000
# 4 0.000000 0.000000 0.000000 0.024580 0.000000 -0.000538
# 5 -0.002095 0.001248 0.001966 0.000000 0.028862 0.000000
# 6 0.000000 0.000000 0.000000 -0.000538 0.000000 0.038356
#
#
# Mechanical properties :
#
#
# Convention : Reuss Voigt Hill
#
# Bulk Modulus (GPa) = 21.88849 31.59501 26.74175
# Shear Modulus (GPa) = 29.47616 34.27213 31.87415
#
# Velocity S-wave (km/s) = 3.60684 3.88921 3.75068
# Velocity P-wave (km/s) = 5.19674 5.84058 5.52804
#
# Compressibility (1/GPa) = 0.04568612
#
# Stress axis : x y z
#
# Youngs Moduli (GPa) = 104.82014 87.80228 30.10721
#
# Poissons Ratio (x) = 0.16947 0.00614
# Poissons Ratio (y) = 0.20231 0.06307
# Poissons Ratio (z) = 0.02139 0.18392
#
# Static dielectric constant tensor:
#      x y z
#    x 1.793130 0.000000 0.004430 
#    y 0.000000 1.829050 0.000000 
#    z 0.004430 0.000000 1.936100 
# 
# From -- ./inp_files/184400.got.cif
#   From: 2010.05.17/outbox.cif.g08.bks.cpg/sg15_93_cif.got.tgz:184400.got - 2010.06.03 18:47:42.
