data_PCOD9307876
_publ_section_title
;
Structure prediction by ZEFSAII (Michael W. Deem and Ramdas Pophale) SiO2 
 PCOD9307876
Probable space group: C 2/C
;
_chemical_formula_sum "Si O2"
_cell_formula_units_Z 32
_cell_length_a 14.203024
_cell_length_b 7.155269
_cell_length_c 23.305922
_cell_angle_alpha 90.000000
_cell_angle_beta 149.021851
_cell_angle_gamma 90.000000
_cell_volume 1219.092449
_symmetry_space_group_name_H-M "C 2/C"
_symmetry_group_IT_number 15
_symmetry_cell_setting 'monoclinic'
loop_
_space_group_symop_operation_xyz
x,y,z
-x,y,1/2-z
-x,-y,-z
x,-y,1/2+z
1/2+x,1/2+y,z
1/2-x,1/2+y,1/2-z
1/2-x,1/2-y,-z
1/2+x,1/2-y,1/2+z
loop_
_atom_site_type_symbol
_atom_site_label
_atom_site_fract_x
_atom_site_fract_y
_atom_site_fract_z
Si Si1 0.771320 0.473338 0.019383
Si Si2 0.398514 0.924565 0.890193
Si Si3 0.064594 0.178280 0.718754
Si Si4 0.784170 0.969513 0.376464
O O1 0.794070 0.488973 0.099716
O O2 0.941938 0.555877 0.073253
O O3 0.750000 0.250000 0.000000
O O4 0.795891 0.231984 0.852753
O O5 0.599816 0.592860 0.906057
O O6 0.235734 0.057617 0.788505
O O7 0.500000 0.000000 0.000000
O O8 0.171307 0.377262 0.782464
O O9 0.000000 0.131577 0.750000
O O10 0.000000 0.000000 0.500000
#
# Coordination Sequence:
#
# PCOD9307876 Si02
#       4
#     8   8   8   8
#     4  12  26  54  91 127 182 241 300 374 463 540
#     4  12  24  54  83 126 180 222 305 375 435 550
#     4  12  26  50  83 124 178 235 292 367 461 529
#     4  12  26  52  81 123 177 227 295 377 432 541
#
# _framework density 26.249036
#
# number of rings (size 3 to 8) (size 9 to 14) (size 15 to 20)
#    0.000    0.000    7.500    0.000    0.000    7.000 
#   22.500    2.500    5.500    0.000    0.000    0.000 
#    0.000    0.000    0.000    0.000    0.000    0.000 
#
# Total GULP energy -89568.943522 kJ/mol
# GULP energy per Si atom -5598.058970 kJ/mol
# Density = 2.618929 g / cm^3
# Si number density = 26.249036 Si / 1000 Ang^3
#
#
#
# Elastic Constant Matrix: (Units=GPa)
#
#
# Indices 1 2 3 4 5 6 
#
# 1 216.0069 125.1738 95.4284 0.0000 16.4767 0.0000
# 2 125.1738 257.6588 133.4867 0.0000 -14.7165 0.0000
# 3 95.4284 133.4867 225.9091 0.0001 21.6419 0.0000
# 4 0.0000 0.0000 0.0001 18.4680 0.0000 7.0886
# 5 16.4767 -14.7165 21.6419 0.0000 61.0431 0.0000
# 6 0.0000 0.0000 0.0000 7.0886 0.0000 45.5902
#
#
#
# Elastic Compliance Matrix: (Units=1/GPa)
#
#
# Indices 1 2 3 4 5 6 
#
# 1 0.006975 -0.003035 -0.000934 0.000000 -0.002283 0.000000
# 2 -0.003035 0.007346 -0.003423 0.000000 0.003804 0.000000
# 3 -0.000934 -0.003423 0.007141 0.000000 -0.003105 0.000000
# 4 0.000000 0.000000 0.000000 0.057584 0.000000 -0.008954
# 5 -0.002283 0.003804 -0.003105 0.000000 0.019016 0.000000
# 6 0.000000 0.000000 0.000000 -0.008954 0.000000 0.023327
#
#
# Mechanical properties :
#
#
# Convention : Reuss Voigt Hill
#
# Bulk Modulus (GPa) = 149.75072 156.41695 153.08384
# Shear Modulus (GPa) = 36.12691 48.05266 42.08978
#
# Velocity S-wave (km/s) = 3.71389 4.28325 4.00869
# Velocity P-wave (km/s) = 8.69279 9.17500 8.93714
#
# Compressibility (1/GPa) = 0.00667776
#
# Stress axis : x y z
#
# Youngs Moduli (GPa) = 143.36608 136.12413 140.02751
#
# Poissons Ratio (x) = 0.41312 0.13085
# Poissons Ratio (y) = 0.43510 0.47934
# Poissons Ratio (z) = 0.13397 0.46598
#
# Static dielectric constant tensor:
#      x y z
#    x 2.612520 0.000000 -0.605990 
#    y 0.000000 2.147290 0.000000 
#    z -0.605990 0.000000 2.508110 
# 
# From -- ./inp_files/272984.got.cif
#   From: 2010.05.17/outbox.cif.g08.bks.cpg/sg15_137_cif.got.tgz:272984.got - 2010.06.03 18:47:42.
