data_PCOD9307447
_publ_section_title
;
Structure prediction by ZEFSAII (Michael W. Deem and Ramdas Pophale) SiO2 
 PCOD9307447
Probable space group: C 2/C
;
_chemical_formula_sum "Si O2"
_cell_formula_units_Z 64
_cell_length_a 12.648408
_cell_length_b 15.718641
_cell_length_c 27.237671
_cell_angle_alpha 90.000000
_cell_angle_beta 34.206943
_cell_angle_gamma 90.000000
_cell_volume 3044.380992
_symmetry_space_group_name_H-M "C 2/C"
_symmetry_group_IT_number 15
_symmetry_cell_setting 'monoclinic'
loop_
_space_group_symop_operation_xyz
x,y,z
-x,y,1/2-z
-x,-y,-z
x,-y,1/2+z
1/2+x,1/2+y,z
1/2-x,1/2+y,1/2-z
1/2-x,1/2-y,-z
1/2+x,1/2-y,1/2+z
loop_
_atom_site_type_symbol
_atom_site_label
_atom_site_fract_x
_atom_site_fract_y
_atom_site_fract_z
Si Si1 0.219051 0.015363 0.407105
Si Si2 0.281987 0.713334 0.846121
Si Si3 0.801822 0.321758 0.352949
Si Si4 0.792121 0.183342 0.441519
Si Si5 0.580473 0.760214 0.527077
Si Si6 0.680805 0.631009 0.325002
Si Si7 0.007887 0.583310 0.373869
Si Si8 0.946500 0.443052 0.067250
O O1 0.297967 0.919153 0.373487
O O2 0.231529 0.069763 0.351636
O O3 0.323645 0.066033 0.410814
O O4 0.000000 0.000000 0.500000
O O5 0.500000 0.729001 0.750000
O O6 0.185931 0.771517 0.841653
O O7 0.241275 0.613101 0.862946
O O8 0.184575 0.743126 0.934468
O O9 0.812288 0.244474 0.387299
O O10 0.600159 0.302917 0.403359
O O11 0.000000 0.315138 0.250000
O O12 0.750000 0.250000 0.500000
O O13 0.611882 0.125181 0.505571
O O14 0.970042 0.123588 0.385393
O O15 0.750000 0.750000 0.500000
O O16 0.506967 0.851195 0.574941
O O17 0.832351 0.614950 0.224636
O O18 0.057292 0.495809 0.381391
O O19 0.000000 0.500000 0.000000
#
# Coordination Sequence:
#
# PCOD9307447 Si02
#       8
#     8   8   8   8   8   8   8   8
#     4  12  25  45  70 103 151 193 248 312 373 434
#     4  12  25  46  73 102 144 190 242 298 374 447
#     4  12  25  44  71 109 144 189 248 312 366 443
#     4  12  23  44  74  98 140 193 238 285 377 437
#     4  12  24  46  73 104 147 191 243 306 378 446
#     4  12  25  45  72 107 141 190 244 307 367 445
#     4  12  25  45  70 105 143 186 245 303 365 440
#     4  12  25  47  72 101 147 190 238 300 361 445
#
# _framework density 21.022335999999999
#
# number of rings (size 3 to 8) (size 9 to 14) (size 15 to 20)
#    0.000    0.000    3.750    7.875    0.000    1.000 
#    6.750    0.625    0.000    0.000    0.000    0.000 
#    0.000    0.000    0.000    0.000    0.000    0.000 
#
# Total GULP energy -178687.681629 kJ/mol
# GULP energy per Si atom -5583.990051 kJ/mol
# Density = 2.097449 g / cm^3
# Si number density = 21.022336 Si / 1000 Ang^3
#
#
#
# Elastic Constant Matrix: (Units=GPa)
#
#
# Indices 1 2 3 4 5 6 
#
# 1 69.7933 11.8058 30.5368 0.0002 -4.4077 -0.0004
# 2 11.8058 97.3909 25.3618 0.0003 12.8158 -0.0002
# 3 30.5368 25.3618 149.6818 0.0004 -0.4884 0.0005
# 4 0.0002 0.0003 0.0004 26.8230 0.0001 14.9966
# 5 -4.4077 12.8158 -0.4884 0.0001 34.7019 -0.0002
# 6 -0.0004 -0.0002 0.0005 14.9966 -0.0002 31.5294
#
#
#
# Elastic Compliance Matrix: (Units=1/GPa)
#
#
# Indices 1 2 3 4 5 6 
#
# 1 0.016061 -0.001498 -0.003015 0.000000 0.002551 0.000000
# 2 -0.001498 0.011465 -0.001652 0.000000 -0.004448 0.000000
# 3 -0.003015 -0.001652 0.007577 0.000000 0.000334 0.000000
# 4 0.000000 0.000000 0.000000 0.050787 0.000000 -0.024156
# 5 0.002551 -0.004448 0.000334 0.000000 0.030788 0.000000
# 6 0.000000 0.000000 0.000000 -0.024156 0.000000 0.043206
#
#
# Mechanical properties :
#
#
# Convention : Reuss Voigt Hill
#
# Bulk Modulus (GPa) = 43.90694 50.25275 47.07985
# Shear Modulus (GPa) = 27.80814 35.22166 31.51490
#
# Velocity S-wave (km/s) = 3.64096 4.09765 3.87604
# Velocity P-wave (km/s) = 6.21343 6.80765 6.51731
#
# Compressibility (1/GPa) = 0.02277544
#
# Stress axis : x y z
#
# Youngs Moduli (GPa) = 62.26098 87.22360 131.98210
#
# Poissons Ratio (x) = 0.13062 0.39788
# Poissons Ratio (y) = 0.09324 0.21798
# Poissons Ratio (z) = 0.18769 0.14406
#
# Static dielectric constant tensor:
#      x y z
#    x 1.989680 -0.000020 -0.060710 
#    y -0.000020 1.802940 0.000010 
#    z -0.060710 0.000010 1.752430 
# 
# From -- ./inp_files/293040.got.cif
#   From: 2010.05.17/outbox.cif.g08.bks.cpg/sg15_147_cif.got.tgz:293040.got - 2010.06.03 18:47:42.
