data_PCOD9307175
_publ_section_title
;
Structure prediction by ZEFSAII (Michael W. Deem and Ramdas Pophale) SiO2 
 PCOD9307175
Probable space group: C 2/C
;
_chemical_formula_sum "Si O2"
_cell_formula_units_Z 32
_cell_length_a 24.635780
_cell_length_b 9.694064
_cell_length_c 18.318329
_cell_angle_alpha 90.000000
_cell_angle_beta 159.600196
_cell_angle_gamma 90.000000
_cell_volume 1524.918443
_symmetry_space_group_name_H-M "C 2/C"
_symmetry_group_IT_number 15
_symmetry_cell_setting 'monoclinic'
loop_
_space_group_symop_operation_xyz
x,y,z
-x,y,1/2-z
-x,-y,-z
x,-y,1/2+z
1/2+x,1/2+y,z
1/2-x,1/2+y,1/2-z
1/2-x,1/2-y,-z
1/2+x,1/2-y,1/2+z
loop_
_atom_site_type_symbol
_atom_site_label
_atom_site_fract_x
_atom_site_fract_y
_atom_site_fract_z
Si Si1 0.165647 0.108498 0.418672
Si Si2 0.824644 0.735682 0.359114
Si Si3 0.107172 0.909712 0.689036
Si Si4 0.681266 0.004755 0.247632
O O1 0.250000 0.250000 0.500000
O O2 0.134611 0.028566 0.303595
O O3 0.000000 0.136335 0.250000
O O4 0.745158 0.616235 0.708992
O O5 0.767038 0.636705 0.351956
O O6 0.764754 0.655304 0.212484
O O7 0.731463 0.973733 0.393157
O O8 0.005273 0.771619 0.576341
O O9 0.000000 0.000000 0.500000
O O10 0.500000 0.000000 0.000000
#
# Coordination Sequence:
#
# PCOD9307175 Si02
#       4
#     8   8   8   8
#     4  12  22  41  68 102 129 174 229 272 324 406
#     4  12  22  41  68  95 132 173 219 269 336 388
#     4  12  23  41  68  96 133 174 217 276 335 387
#     4  12  25  41  70 100 137 174 227 275 336 399
#
# _framework density 20.984728
#
# number of rings (size 3 to 8) (size 9 to 14) (size 15 to 20)
#    0.000    0.000   10.000    0.000    0.000    0.000 
#    0.000    1.250    5.500    0.000    0.000    0.000 
#    0.000    0.000    0.000    0.000    0.000    0.000 
#
# Total GULP energy -89274.662297 kJ/mol
# GULP energy per Si atom -5579.666394 kJ/mol
# Density = 2.093697 g / cm^3
# Si number density = 20.984728 Si / 1000 Ang^3
#
#
#
# Elastic Constant Matrix: (Units=GPa)
#
#
# Indices 1 2 3 4 5 6 
#
# 1 138.8460 25.9274 65.6406 0.0000 -31.5475 0.0000
# 2 25.9274 52.2890 29.6896 0.0000 -35.7951 0.0000
# 3 65.6406 29.6896 117.5591 0.0000 -40.0136 0.0000
# 4 0.0000 0.0000 0.0000 29.6463 0.0000 -1.2948
# 5 -31.5475 -35.7951 -40.0136 0.0000 48.3744 0.0000
# 6 0.0000 0.0000 0.0000 -1.2948 0.0000 39.0219
#
#
#
# Elastic Compliance Matrix: (Units=1/GPa)
#
#
# Indices 1 2 3 4 5 6 
#
# 1 0.010050 -0.000991 -0.004704 0.000000 0.001929 0.000000
# 2 -0.000991 0.038855 0.000427 0.000000 0.028457 0.000000
# 3 -0.004704 0.000427 0.014042 0.000000 0.008863 0.000000
# 4 0.000000 0.000000 0.000000 0.033780 0.000000 0.001121
# 5 0.001929 0.028457 0.008863 0.000000 0.050318 0.000000
# 6 0.000000 0.000000 0.000000 0.001121 0.000000 0.025664
#
#
# Mechanical properties :
#
#
# Convention : Reuss Voigt Hill
#
# Bulk Modulus (GPa) = 19.08100 61.24548 40.16324
# Shear Modulus (GPa) = 24.91086 35.90430 30.40758
#
# Velocity S-wave (km/s) = 3.44916 4.14088 3.81075
# Velocity P-wave (km/s) = 4.99748 7.21884 6.20832
#
# Compressibility (1/GPa) = 0.05240815
#
# Stress axis : x y z
#
# Youngs Moduli (GPa) = 99.50545 25.73704 71.21499
#
# Poissons Ratio (x) = 0.02552 0.33503
# Poissons Ratio (y) = 0.09865 -0.03040
# Poissons Ratio (z) = 0.46812 -0.01099
#
# Static dielectric constant tensor:
#      x y z
#    x 1.856530 0.000000 0.029940 
#    y 0.000000 1.817210 0.000000 
#    z 0.029940 0.000000 1.826170 
# 
# From -- ./inp_files/242202.got.cif
#   From: 2010.05.17/outbox.cif.g08.bks.cpg/sg15_122_cif.got.tgz:242202.got - 2010.06.03 18:47:42.
