data_PCOD9307604
_publ_section_title
;
Structure prediction by ZEFSAII (Michael W. Deem and Ramdas Pophale) SiO2 
 PCOD9307604
Probable space group: C 2/C
;
_chemical_formula_sum "Si O2"
_cell_formula_units_Z 40
_cell_length_a 28.283203
_cell_length_b 7.268500
_cell_length_c 9.403296
_cell_angle_alpha 90.000000
_cell_angle_beta 64.149151
_cell_angle_gamma 90.000000
_cell_volume 1739.655535
_symmetry_space_group_name_H-M "C 2/C"
_symmetry_group_IT_number 15
_symmetry_cell_setting 'monoclinic'
loop_
_space_group_symop_operation_xyz
x,y,z
-x,y,1/2-z
-x,-y,-z
x,-y,1/2+z
1/2+x,1/2+y,z
1/2-x,1/2+y,1/2-z
1/2-x,1/2-y,-z
1/2+x,1/2-y,1/2+z
loop_
_atom_site_type_symbol
_atom_site_label
_atom_site_fract_x
_atom_site_fract_y
_atom_site_fract_z
Si Si1 0.114597 0.997268 0.194556
Si Si2 0.047022 0.916460 0.035958
Si Si3 0.146328 0.388796 0.788811
Si Si4 0.962214 0.503203 0.917783
Si Si5 0.306961 0.800907 0.484246
O O1 0.132677 0.791297 0.212129
O O2 0.096342 0.085364 0.365847
O O3 0.160835 0.112205 0.066330
O O4 0.065630 0.023462 0.150919
O O5 0.043391 0.712739 0.104156
O O6 0.000000 0.000000 0.000000
O O7 0.164035 0.549540 0.656937
O O8 0.093424 0.422792 0.953468
O O9 0.190149 0.362992 0.854414
O O10 0.000000 0.593323 0.750000
O O11 0.000000 0.500000 0.000000
O O12 0.250000 0.750000 0.500000
#
# Coordination Sequence:
#
# PCOD9307604 Si02
#       5
#     8   8   8   8   8
#     4  12  26  49  73 111 155 198 255 318 379 455
#     4  12  24  43  71 109 154 203 251 305 378 461
#     4  12  27  53  79 111 159 198 258 324 379 467
#     4  12  25  42  72 109 149 200 247 302 381 454
#     4  12  30  51  83 113 148 205 262 323 391 449
#
# _framework density 22.993057
#
# number of rings (size 3 to 8) (size 9 to 14) (size 15 to 20)
#    0.000    0.000    4.000    6.600    2.800    0.800 
#    0.000    0.000    0.000    0.000    0.000    0.000 
#    0.000    0.000    0.000    0.000    0.000    0.000 
#
# Total GULP energy -111687.181240 kJ/mol
# GULP energy per Si atom -5584.359062 kJ/mol
# Density = 2.294072 g / cm^3
# Si number density = 22.993057 Si / 1000 Ang^3
#
#
#
# Elastic Constant Matrix: (Units=GPa)
#
#
# Indices 1 2 3 4 5 6 
#
# 1 152.4453 39.5182 26.3518 0.0000 27.9237 0.0000
# 2 39.5182 114.3497 25.3975 0.0000 -6.8565 0.0000
# 3 26.3518 25.3975 93.5214 0.0000 28.8435 0.0000
# 4 0.0000 0.0000 0.0000 21.2244 0.0000 1.4146
# 5 27.9237 -6.8565 28.8435 0.0000 42.0869 0.0000
# 6 0.0000 0.0000 0.0000 1.4146 0.0000 31.0841
#
#
#
# Elastic Compliance Matrix: (Units=1/GPa)
#
#
# Indices 1 2 3 4 5 6 
#
# 1 0.008587 -0.003498 0.000587 0.000000 -0.006669 0.000000
# 2 -0.003498 0.011331 -0.004281 0.000000 0.007101 0.000000
# 3 0.000587 -0.004281 0.015248 0.000000 -0.011537 0.000000
# 4 0.000000 0.000000 0.000000 0.047259 0.000000 -0.002151
# 5 -0.006669 0.007101 -0.011537 0.000000 0.037249 0.000000
# 6 0.000000 0.000000 0.000000 -0.002151 0.000000 0.032269
#
#
# Mechanical properties :
#
#
# Convention : Reuss Voigt Hill
#
# Bulk Modulus (GPa) = 48.11941 60.31682 54.21811
# Shear Modulus (GPa) = 28.85950 36.81565 32.83757
#
# Velocity S-wave (km/s) = 3.54664 4.00580 3.78319
# Velocity P-wave (km/s) = 6.14368 6.90542 6.53565
#
# Compressibility (1/GPa) = 0.02078163
#
# Stress axis : x y z
#
# Youngs Moduli (GPa) = 116.46093 88.25643 65.58129
#
# Poissons Ratio (x) = 0.30870 -0.03852
# Poissons Ratio (y) = 0.40736 0.28078
# Poissons Ratio (z) = -0.06841 0.37787
#
# Static dielectric constant tensor:
#      x y z
#    x 1.888910 0.000000 -0.052540 
#    y 0.000000 1.906340 0.000000 
#    z -0.052540 0.000000 1.933710 
# 
# From -- ./inp_files/68248.got.cif
#   From: 2010.05.17/outbox.cif.g08.bks.cpg/sg15_35_cif.got.tgz:68248.got - 2010.06.03 18:47:42.
