data_PCOD9307003
_publ_section_title
;
Structure prediction by ZEFSAII (Michael W. Deem and Ramdas Pophale) SiO2 
 PCOD9307003
Probable space group: C 2/C
;
_chemical_formula_sum "Si O2"
_cell_formula_units_Z 48
_cell_length_a 10.638449
_cell_length_b 21.374603
_cell_length_c 14.109080
_cell_angle_alpha 90.000000
_cell_angle_beta 43.576277
_cell_angle_gamma 90.000000
_cell_volume 2211.544716
_symmetry_space_group_name_H-M "C 2/C"
_symmetry_group_IT_number 15
_symmetry_cell_setting 'monoclinic'
loop_
_space_group_symop_operation_xyz
x,y,z
-x,y,1/2-z
-x,-y,-z
x,-y,1/2+z
1/2+x,1/2+y,z
1/2-x,1/2+y,1/2-z
1/2-x,1/2-y,-z
1/2+x,1/2-y,1/2+z
loop_
_atom_site_type_symbol
_atom_site_label
_atom_site_fract_x
_atom_site_fract_y
_atom_site_fract_z
Si Si1 0.348834 0.842824 0.675185
Si Si2 0.309599 0.606367 0.672986
Si Si3 0.206169 0.733224 0.632603
Si Si4 0.802015 0.072186 0.076144
Si Si5 0.733794 0.857933 0.418339
Si Si6 0.000000 0.530566 0.750000
Si Si7 0.000000 0.252590 0.750000
O O1 0.220983 0.797547 0.684280
O O2 0.260611 0.895455 0.790568
O O3 0.517422 0.865304 0.519367
O O4 0.452194 0.796012 0.689201
O O5 0.318416 0.675950 0.619985
O O6 0.479304 0.566384 0.540846
O O7 0.326724 0.609773 0.776919
O O8 0.115510 0.574849 0.756301
O O9 0.250000 0.750000 0.500000
O O10 0.000000 0.711032 0.750000
O O11 0.663328 0.015751 0.128477
O O12 0.772808 0.117123 0.001630
O O13 0.822075 0.789394 0.364908
#
# Coordination Sequence:
#
# PCOD9307003 Si02
#       7
#     8   8   8   8   8   4   4
#     4  12  24  40  71 103 143 178 226 290 354 409
#     4  12  26  44  73 100 136 187 231 283 349 412
#     4  12  25  44  66 103 146 182 222 277 350 432
#     4  12  24  48  69 101 134 180 238 292 343 404
#     4  12  22  41  67 104 138 173 230 289 349 410
#     4  12  27  50  68  96 144 185 242 280 336 418
#     4  12  21  34  68 106 140 169 220 288 354 406
#
# _framework density 21.704287000000001
#
# number of rings (size 3 to 8) (size 9 to 14) (size 15 to 20)
#    0.000    0.000    7.500    3.000    2.333    0.667 
#    0.000    0.000    0.000    0.000    0.000    0.000 
#    0.000    0.000    0.000    0.000    0.000    0.000 
#
# Total GULP energy -133926.272844 kJ/mol
# GULP energy per Si atom -5580.261369 kJ/mol
# Density = 2.165489 g / cm^3
# Si number density = 21.704287 Si / 1000 Ang^3
#
#
#
# Elastic Constant Matrix: (Units=GPa)
#
#
# Indices 1 2 3 4 5 6 
#
# 1 87.5338 19.2216 25.6991 0.0000 -4.9994 0.0000
# 2 19.2216 53.2954 29.6228 0.0000 10.3830 0.0000
# 3 25.6991 29.6228 118.0832 0.0001 -0.6055 0.0000
# 4 0.0000 0.0000 0.0001 -1.4938 0.0000 -23.9104
# 5 -4.9994 10.3830 -0.6055 0.0000 40.7677 0.0000
# 6 0.0000 0.0000 0.0000 -23.9104 0.0000 34.4559
#
#
#
# Elastic Compliance Matrix: (Units=1/GPa)
#
#
# Indices 1 2 3 4 5 6 
#
# 1 0.013022 -0.004236 -0.001758 0.000000 0.002649 0.000000
# 2 -0.004236 0.024557 -0.005274 0.000000 -0.006852 0.000000
# 3 -0.001758 -0.005274 0.010181 0.000000 0.001279 0.000000
# 4 0.000000 0.000000 0.000000 -0.055291 0.000000 -0.038369
# 5 0.002649 -0.006852 0.001279 0.000000 0.026618 0.000000
# 6 0.000000 0.000000 0.000000 -0.038369 0.000000 0.002397
#
#
# Mechanical properties :
#
#
# Convention : Reuss Voigt Hill
#
# Bulk Modulus (GPa) = 39.64293 45.33325 42.48809
# Shear Modulus (GPa) = 95.37121 27.03723 61.20422
#
# Velocity S-wave (km/s) = 6.63601 3.53329 5.31605
# Velocity P-wave (km/s) = 8.77611 6.13006 7.56960
#
# Compressibility (1/GPa) = 0.02522518
#
# Stress axis : x y z
#
# Youngs Moduli (GPa) = 76.79519 40.72125 98.22464
#
# Poissons Ratio (x) = 0.17248 0.17266
# Poissons Ratio (y) = 0.32527 0.51802
# Poissons Ratio (z) = 0.13499 0.21476
#
# Static dielectric constant tensor:
#      x y z
#    x 1.813130 0.000000 -0.047500 
#    y 0.000000 1.818300 0.000000 
#    z -0.047500 0.000000 1.813050 
# 
# From -- ./inp_files/147418.got.cif
#   From: 2010.05.17/outbox.cif.g08.bks.cpg/sg15_74_cif.got.tgz:147418.got - 2010.06.03 18:47:42.
