data_PCOD9307345
_publ_section_title
;
Structure prediction by ZEFSAII (Michael W. Deem and Ramdas Pophale) SiO2 
 PCOD9307345
Probable space group: C 2/C
;
_chemical_formula_sum "Si O2"
_cell_formula_units_Z 56
_cell_length_a 22.675470
_cell_length_b 13.738975
_cell_length_c 22.600779
_cell_angle_alpha 90.000000
_cell_angle_beta 22.181198
_cell_angle_gamma 90.000000
_cell_volume 2658.235698
_symmetry_space_group_name_H-M "C 2/C"
_symmetry_group_IT_number 15
_symmetry_cell_setting 'monoclinic'
loop_
_space_group_symop_operation_xyz
x,y,z
-x,y,1/2-z
-x,-y,-z
x,-y,1/2+z
1/2+x,1/2+y,z
1/2-x,1/2+y,1/2-z
1/2-x,1/2-y,-z
1/2+x,1/2-y,1/2+z
loop_
_atom_site_type_symbol
_atom_site_label
_atom_site_fract_x
_atom_site_fract_y
_atom_site_fract_z
Si Si1 0.791483 0.142648 0.988006
Si Si2 0.166343 0.520563 0.812672
Si Si3 0.143354 0.114371 0.280465
Si Si4 0.454935 0.298921 0.151847
Si Si5 0.428793 0.076793 0.216031
Si Si6 0.216106 0.041754 0.623780
Si Si7 0.856912 0.796164 0.111139
O O1 0.844599 0.081814 0.881980
O O2 0.903919 0.157265 0.940151
O O3 0.750000 0.250000 0.000000
O O4 0.650056 0.081702 0.147203
O O5 0.302061 0.467091 0.723131
O O6 0.165157 0.475007 0.748601
O O7 0.213230 0.632268 0.760767
O O8 0.000000 0.500000 0.000000
O O9 0.277046 0.197012 0.163000
O O10 0.975890 0.157706 0.453389
O O11 0.144532 0.055732 0.217713
O O12 0.438022 0.190320 0.190787
O O13 0.313317 0.368955 0.303134
O O14 0.457142 0.290385 0.079079
O O15 0.599267 0.030627 0.054995
#
# Coordination Sequence:
#
# PCOD9307345 Si02
#       7
#     8   8   8   8   8   8   8
#     4  12  25  41  65 103 143 186 225 283 355 425
#     4  12  23  43  68 104 139 182 232 292 368 428
#     4  12  26  44  68 101 143 186 237 296 360 425
#     4  12  23  40  67 103 142 182 224 289 358 423
#     4  12  23  39  68 100 139 181 224 283 362 426
#     4  12  26  42  63 100 143 185 237 278 346 438
#     4  12  27  44  70 104 143 186 237 298 361 432
#
# _framework density 21.066604999999999
#
# number of rings (size 3 to 8) (size 9 to 14) (size 15 to 20)
#    0.000    0.000    7.143    3.000    4.000    0.000 
#    0.000    0.000    0.000    0.857    0.000    0.000 
#    0.000    0.000    0.000    0.000    0.000    0.000 
#
# Total GULP energy -156516.752554 kJ/mol
# GULP energy per Si atom -5589.884020 kJ/mol
# Density = 2.101866 g / cm^3
# Si number density = 21.066605 Si / 1000 Ang^3
#
#
#
# Elastic Constant Matrix: (Units=GPa)
#
#
# Indices 1 2 3 4 5 6 
#
# 1 115.4165 44.5260 43.2202 0.0038 14.8545 0.0011
# 2 44.5260 95.5459 27.1703 0.0156 18.7766 0.0013
# 3 43.2202 27.1703 86.2690 0.0183 25.0116 -0.0060
# 4 0.0038 0.0156 0.0183 29.6137 -0.0066 -6.8268
# 5 14.8545 18.7766 25.0116 -0.0066 35.3255 0.0011
# 6 0.0011 0.0013 -0.0060 -6.8268 0.0011 -2.5100
#
#
#
# Elastic Compliance Matrix: (Units=1/GPa)
#
#
# Indices 1 2 3 4 5 6 
#
# 1 0.012094 -0.004386 -0.004881 0.000005 0.000702 0.000003
# 2 -0.004386 0.013674 -0.000676 -0.000004 -0.004946 0.000015
# 3 -0.004881 -0.000676 0.017051 -0.000014 -0.009661 -0.000010
# 4 0.000005 -0.000004 -0.000014 0.020755 0.000016 -0.056450
# 5 0.000702 -0.004946 -0.009661 0.000016 0.037482 -0.000005
# 6 0.000003 0.000015 -0.000010 -0.056450 -0.000005 -0.244874
#
#
# Mechanical properties :
#
#
# Convention : Reuss Voigt Hill
#
# Bulk Modulus (GPa) = 43.60357 58.56271 51.08314
# Shear Modulus (GPa) = -42.99627 24.64017 -9.17805
#
# Velocity S-wave (km/s) = -4.52261 3.42370 -2.08953
# Velocity P-wave (km/s) = 2.55521 6.59455 4.29878
#
# Compressibility (1/GPa) = 0.02293390
#
# Stress axis : x y z
#
# Youngs Moduli (GPa) = 82.68751 73.13134 58.64868
#
# Poissons Ratio (x) = 0.32074 0.28626
# Poissons Ratio (y) = 0.36265 0.03962
# Poissons Ratio (z) = 0.40360 0.04940
#
# Static dielectric constant tensor:
#      x y z
#    x 1.850610 0.000000 0.058930 
#    y 0.000000 1.743850 0.000010 
#    z 0.058930 0.000010 2.210250 
# 
# From -- ./inp_files/282088.got.cif
#   From: 2010.05.17/outbox.cif.g08.bks.cpg/sg15_142_cif.got.tgz:282088.got - 2010.06.03 18:47:42.
