data_PCOD9307993
_publ_section_title
;
Structure prediction by ZEFSAII (Michael W. Deem and Ramdas Pophale) SiO2 
 PCOD9307993
Probable space group: C 2/C
;
_chemical_formula_sum "Si O2"
_cell_formula_units_Z 48
_cell_length_a 14.246245
_cell_length_b 11.940140
_cell_length_c 19.310743
_cell_angle_alpha 90.000000
_cell_angle_beta 41.809589
_cell_angle_gamma 90.000000
_cell_volume 2189.835042
_symmetry_space_group_name_H-M "C 2/C"
_symmetry_group_IT_number 15
_symmetry_cell_setting 'monoclinic'
loop_
_space_group_symop_operation_xyz
x,y,z
-x,y,1/2-z
-x,-y,-z
x,-y,1/2+z
1/2+x,1/2+y,z
1/2-x,1/2+y,1/2-z
1/2-x,1/2-y,-z
1/2+x,1/2-y,1/2+z
loop_
_atom_site_type_symbol
_atom_site_label
_atom_site_fract_x
_atom_site_fract_y
_atom_site_fract_z
Si Si1 0.000000 0.813243 0.250000
Si Si2 0.000000 0.467443 0.250000
Si Si3 0.706488 0.939135 0.405772
Si Si4 0.181831 0.450066 0.780609
Si Si5 0.273038 0.117567 0.985222
Si Si6 0.998615 0.993517 0.081864
Si Si7 0.022148 0.731625 0.095355
O O1 0.866357 0.893104 0.307519
O O2 0.945489 0.731746 0.340718
O O3 0.892754 0.522620 0.251731
O O4 0.893475 0.405999 0.361783
O O5 0.625996 0.841441 0.491882
O O6 0.641836 0.967160 0.366152
O O7 0.697976 0.050217 0.458789
O O8 0.348655 0.458682 0.686625
O O9 0.128867 0.326699 0.829699
O O10 0.250000 0.250000 0.000000
O O11 0.127424 0.061224 0.041752
O O12 0.018393 0.862441 0.084874
O O13 0.000000 0.000000 0.000000
#
# Coordination Sequence:
#
# PCOD9307993 Si02
#       7
#     4   4   8   8   8   8   8
#     4  12  25  47  78 114 150 201 249 326 384 462
#     4  12  27  51  76 116 148 207 259 316 386 466
#     4  12  26  49  76 114 151 200 259 319 389 459
#     4  12  27  50  77 113 156 200 266 313 392 455
#     4  12  29  51  79 112 162 201 257 320 391 461
#     4  12  28  48  75 116 151 204 256 314 388 461
#     4  12  27  45  79 109 155 197 259 318 377 459
#
# _framework density 21.919460000000001
#
# number of rings (size 3 to 8) (size 9 to 14) (size 15 to 20)
#    0.000    0.000    6.667    1.500    4.667    3.333 
#    0.000    0.000    0.000    0.000    0.000    0.000 
#    0.000    0.000    0.000    0.000    0.000    0.000 
#
# Total GULP energy -134073.627733 kJ/mol
# GULP energy per Si atom -5586.401156 kJ/mol
# Density = 2.186957 g / cm^3
# Si number density = 21.919460 Si / 1000 Ang^3
#
#
#
# Elastic Constant Matrix: (Units=GPa)
#
#
# Indices 1 2 3 4 5 6 
#
# 1 103.8755 28.8214 36.5278 0.0000 2.5509 0.0000
# 2 28.8214 135.3395 48.7396 0.0000 -20.5146 0.0000
# 3 36.5278 48.7396 119.5410 0.0000 -5.7047 0.0000
# 4 0.0000 0.0000 0.0000 17.0250 0.0000 -8.2100
# 5 2.5509 -20.5146 -5.7047 0.0000 48.0792 0.0000
# 6 0.0000 0.0000 0.0000 -8.2100 0.0000 35.3019
#
#
#
# Elastic Compliance Matrix: (Units=1/GPa)
#
#
# Indices 1 2 3 4 5 6 
#
# 1 0.011099 -0.001591 -0.002819 0.000000 -0.001602 0.000000
# 2 -0.001591 0.009441 -0.003185 0.000000 0.003735 0.000000
# 3 -0.002819 -0.003185 0.010527 0.000000 0.000040 0.000000
# 4 0.000000 0.000000 0.000000 0.066157 0.000000 0.015386
# 5 -0.001602 0.003735 0.000040 0.000000 0.022482 0.000000
# 6 0.000000 0.000000 0.000000 0.015386 0.000000 0.031905
#
#
# Mechanical properties :
#
#
# Convention : Reuss Voigt Hill
#
# Bulk Modulus (GPa) = 62.98554 65.21484 64.10019
# Shear Modulus (GPa) = 29.05391 36.39237 32.72314
#
# Velocity S-wave (km/s) = 3.64467 4.07907 3.86797
# Velocity P-wave (km/s) = 6.81974 7.21122 7.01821
#
# Compressibility (1/GPa) = 0.01587666
#
# Stress axis : x y z
#
# Youngs Moduli (GPa) = 90.09709 105.92418 94.99222
#
# Poissons Ratio (x) = 0.16855 0.26780
# Poissons Ratio (y) = 0.14337 0.30253
# Poissons Ratio (z) = 0.25400 0.33734
#
# Static dielectric constant tensor:
#      x y z
#    x 1.847670 0.000000 0.036290 
#    y 0.000000 1.783530 0.000000 
#    z 0.036290 0.000000 1.820420 
# 
# From -- ./inp_files/243938.got.cif
#   From: 2010.05.17/outbox.cif.g08.bks.cpg/sg15_122_cif.got.tgz:243938.got - 2010.06.03 18:47:42.
