data_PCOD9307825
_publ_section_title
;
Structure prediction by ZEFSAII (Michael W. Deem and Ramdas Pophale) SiO2 
 PCOD9307825
Probable space group: C 2/C
;
_chemical_formula_sum "Si O2"
_cell_formula_units_Z 40
_cell_length_a 5.679303
_cell_length_b 18.102110
_cell_length_c 15.583042
_cell_angle_alpha 90.000000
_cell_angle_beta 72.518983
_cell_angle_gamma 90.000000
_cell_volume 1528.063224
_symmetry_space_group_name_H-M "C 2/C"
_symmetry_group_IT_number 15
_symmetry_cell_setting 'monoclinic'
loop_
_space_group_symop_operation_xyz
x,y,z
-x,y,1/2-z
-x,-y,-z
x,-y,1/2+z
1/2+x,1/2+y,z
1/2-x,1/2+y,1/2-z
1/2-x,1/2-y,-z
1/2+x,1/2-y,1/2+z
loop_
_atom_site_type_symbol
_atom_site_label
_atom_site_fract_x
_atom_site_fract_y
_atom_site_fract_z
Si Si1 0.205967 0.974707 0.408240
Si Si2 0.049474 0.601591 0.989013
Si Si3 0.510413 0.673180 0.648191
Si Si4 0.695103 0.293330 0.593408
Si Si5 0.732629 0.118755 0.164142
O O1 0.530184 0.037617 0.570614
O O2 0.193879 0.032624 0.330770
O O3 0.685043 0.891471 0.566942
O O4 0.000000 0.000000 0.500000
O O5 0.636378 0.605620 0.879766
O O6 0.785386 0.626313 0.053665
O O7 0.500000 0.665017 0.750000
O O8 0.375263 0.749010 0.636762
O O9 0.789295 0.660560 0.583309
O O10 0.750000 0.250000 0.500000
O O11 0.423983 0.314159 0.655175
O O12 0.500000 0.131075 0.250000
#
# Coordination Sequence:
#
# PCOD9307825 Si02
#       5
#     8   8   8   8   8
#     4  12  24  50  79 117 166 222 276 347 429 516
#     4  12  24  48  82 113 163 219 273 345 425 508
#     4  12  29  48  83 120 159 221 283 358 431 509
#     4  12  24  55  79 110 164 216 285 343 424 513
#     4  12  29  48  82 125 164 220 280 351 425 513
#
# _framework density 26.176929000000001
#
# number of rings (size 3 to 8) (size 9 to 14) (size 15 to 20)
#    0.000    0.000    8.000    1.200    2.800    1.600 
#    3.600    0.000    0.000    0.000    0.000    0.000 
#    0.000    0.000    0.000    0.000    0.000    0.000 
#
# Total GULP energy -111575.063590 kJ/mol
# GULP energy per Si atom -5578.753179 kJ/mol
# Density = 2.611735 g / cm^3
# Si number density = 26.176929 Si / 1000 Ang^3
#
#
#
# Elastic Constant Matrix: (Units=GPa)
#
#
# Indices 1 2 3 4 5 6 
#
# 1 115.5082 54.0483 68.7424 0.0000 0.6434 0.0000
# 2 54.0483 118.4729 44.5547 0.0000 -4.3936 0.0000
# 3 68.7424 44.5547 186.6723 0.0000 -16.4694 0.0000
# 4 0.0000 0.0000 0.0000 38.7592 0.0000 -7.0723
# 5 0.6434 -4.3936 -16.4694 0.0000 57.5302 0.0000
# 6 0.0000 0.0000 0.0000 -7.0723 0.0000 71.4516
#
#
#
# Elastic Compliance Matrix: (Units=1/GPa)
#
#
# Indices 1 2 3 4 5 6 
#
# 1 0.013121 -0.004587 -0.003879 0.000000 -0.001607 0.000000
# 2 -0.004587 0.010877 -0.000851 0.000000 0.000638 0.000000
# 3 -0.003879 -0.000851 0.007168 0.000000 0.002030 0.000000
# 4 0.000000 0.000000 0.000000 0.026275 0.000000 0.002601
# 5 -0.001607 0.000638 0.002030 0.000000 0.018030 0.000000
# 6 0.000000 0.000000 0.000000 0.002601 0.000000 0.014253
#
#
# Mechanical properties :
#
#
# Convention : Reuss Voigt Hill
#
# Bulk Modulus (GPa) = 79.79076 83.92712 81.85894
# Shear Modulus (GPa) = 44.43116 50.43539 47.43327
#
# Velocity S-wave (km/s) = 4.12435 4.39419 4.26141
# Velocity P-wave (km/s) = 7.29574 7.60765 7.45333
#
# Compressibility (1/GPa) = 0.01253278
#
# Stress axis : x y z
#
# Youngs Moduli (GPa) = 76.21354 91.93825 139.51768
#
# Poissons Ratio (x) = 0.42170 0.54117
# Poissons Ratio (y) = 0.34957 0.11868
# Poissons Ratio (z) = 0.29562 0.07821
#
# Static dielectric constant tensor:
#      x y z
#    x 2.321650 0.000000 -0.023630 
#    y 0.000000 2.370200 0.000000 
#    z -0.023630 0.000000 1.926340 
# 
# From -- ./inp_files/227446.got.cif
#   From: 2010.05.17/outbox.cif.g08.bks.cpg/sg15_114_cif.got.tgz:227446.got - 2010.06.03 18:47:42.
