data_PCOD9307448
_publ_section_title
;
Structure prediction by ZEFSAII (Michael W. Deem and Ramdas Pophale) SiO2 
 PCOD9307448
Probable space group: C 2/C
;
_chemical_formula_sum "Si O2"
_cell_formula_units_Z 40
_cell_length_a 20.655345
_cell_length_b 8.558918
_cell_length_c 9.577301
_cell_angle_alpha 90.000000
_cell_angle_beta 75.993907
_cell_angle_gamma 90.000000
_cell_volume 1642.808936
_symmetry_space_group_name_H-M "C 2/C"
_symmetry_group_IT_number 15
_symmetry_cell_setting 'monoclinic'
loop_
_space_group_symop_operation_xyz
x,y,z
-x,y,1/2-z
-x,-y,-z
x,-y,1/2+z
1/2+x,1/2+y,z
1/2-x,1/2+y,1/2-z
1/2-x,1/2-y,-z
1/2+x,1/2-y,1/2+z
loop_
_atom_site_type_symbol
_atom_site_label
_atom_site_fract_x
_atom_site_fract_y
_atom_site_fract_z
Si Si1 0.544289 0.628211 0.611382
Si Si2 0.639373 0.099466 0.742997
Si Si3 0.225724 0.421647 0.470625
Si Si4 0.078702 0.688538 0.354543
Si Si5 0.354961 0.372244 0.958558
O O1 0.500000 0.534541 0.750000
O O2 0.509337 0.267462 0.443250
O O3 0.582728 0.742983 0.696099
O O4 0.595619 0.511145 0.519006
O O5 0.671432 0.995875 0.602937
O O6 0.579731 0.996807 0.839554
O O7 0.876987 0.766653 0.814931
O O8 0.694726 0.102394 0.834333
O O9 0.250000 0.250000 0.500000
O O10 0.286558 0.545114 0.451645
O O11 0.139919 0.752891 0.414026
#
# Coordination Sequence:
#
# PCOD9307448 Si02
#       5
#     8   8   8   8   8
#     4   8  22  42  69  97 137 176 234 290 351 405
#     4  12  25  45  67 111 140 188 230 295 357 424
#     4  12  28  41  72 104 147 186 235 292 358 424
#     4   9  22  45  66 100 137 181 234 291 344 418
#     4  12  23  44  74  98 143 186 241 281 360 427
#
# _framework density 24.348541999999998
#
# number of rings (size 3 to 8) (size 9 to 14) (size 15 to 20)
#    1.200    0.000    2.000    3.600    8.400    0.000 
#    3.600    4.000    0.000    0.000    0.000    0.000 
#    0.000    0.000    0.000    0.000    0.000    0.000 
#
# Total GULP energy -111568.249394 kJ/mol
# GULP energy per Si atom -5578.412470 kJ/mol
# Density = 2.429312 g / cm^3
# Si number density = 24.348542 Si / 1000 Ang^3
#
#
#
# Elastic Constant Matrix: (Units=GPa)
#
#
# Indices 1 2 3 4 5 6 
#
# 1 82.4990 60.4649 29.1729 0.0000 21.5449 0.0000
# 2 60.4649 118.5490 33.7100 0.0000 15.8470 0.0000
# 3 29.1729 33.7100 41.5201 0.0000 27.3068 0.0000
# 4 0.0000 0.0000 0.0000 33.4740 0.0000 13.4563
# 5 21.5449 15.8470 27.3068 0.0000 41.3125 0.0000
# 6 0.0000 0.0000 0.0000 13.4563 0.0000 20.4371
#
#
#
# Elastic Compliance Matrix: (Units=1/GPa)
#
#
# Indices 1 2 3 4 5 6 
#
# 1 0.021685 -0.009070 -0.004818 0.000000 -0.004646 0.000000
# 2 -0.009070 0.014970 -0.009050 0.000000 0.004969 0.000000
# 3 -0.004818 -0.009050 0.054630 0.000000 -0.030126 0.000000
# 4 0.000000 0.000000 0.000000 0.040627 0.000000 -0.026750
# 5 -0.004646 0.004969 -0.030126 0.000000 0.044635 0.000000
# 6 0.000000 0.000000 0.000000 -0.026750 0.000000 0.066544
#
#
# Mechanical properties :
#
#
# Convention : Reuss Voigt Hill
#
# Bulk Modulus (GPa) = 22.02089 54.36263 38.19176
# Shear Modulus (GPa) = 16.44175 26.99273 21.71724
#
# Velocity S-wave (km/s) = 2.60141 3.33317 2.98976
# Velocity P-wave (km/s) = 4.25285 6.09825 5.25716
#
# Compressibility (1/GPa) = 0.04541143
#
# Stress axis : x y z
#
# Youngs Moduli (GPa) = 46.11390 66.79875 18.30482
#
# Poissons Ratio (x) = 0.60583 0.08819
# Poissons Ratio (y) = 0.41823 0.16566
# Poissons Ratio (z) = 0.22216 0.60454
#
# Static dielectric constant tensor:
#      x y z
#    x 2.029520 0.000000 0.026570 
#    y 0.000000 1.956990 0.000000 
#    z 0.026570 0.000000 2.150680 
# 
# From -- ./inp_files/64524.got.cif
#   From: 2010.05.17/outbox.cif.g08.bks.cpg/sg15_33_cif.got.tgz:64524.got - 2010.06.03 18:47:42.
