data_PCOD9307995
_publ_section_title
;
Structure prediction by ZEFSAII (Michael W. Deem and Ramdas Pophale) SiO2 
 PCOD9307995
Probable space group: C 2/C
;
_chemical_formula_sum "Si O2"
_cell_formula_units_Z 32
_cell_length_a 17.236092
_cell_length_b 6.416931
_cell_length_c 13.936655
_cell_angle_alpha 90.000000
_cell_angle_beta 122.513746
_cell_angle_gamma 90.000000
_cell_volume 1299.832879
_symmetry_space_group_name_H-M "C 2/C"
_symmetry_group_IT_number 15
_symmetry_cell_setting 'monoclinic'
loop_
_space_group_symop_operation_xyz
x,y,z
-x,y,1/2-z
-x,-y,-z
x,-y,1/2+z
1/2+x,1/2+y,z
1/2-x,1/2+y,1/2-z
1/2-x,1/2-y,-z
1/2+x,1/2-y,1/2+z
loop_
_atom_site_type_symbol
_atom_site_label
_atom_site_fract_x
_atom_site_fract_y
_atom_site_fract_z
Si Si1 0.977077 0.426668 0.876739
Si Si2 0.855680 0.919206 0.387109
Si Si3 0.341008 0.738606 0.214590
Si Si4 0.083009 0.061658 0.876120
O O1 0.900531 0.248385 0.845750
O O2 0.926630 0.600857 0.779124
O O3 0.065220 0.305821 0.889076
O O4 0.000000 0.500000 0.000000
O O5 0.755220 0.856126 0.355660
O O6 0.845156 0.128739 0.320653
O O7 0.918691 0.951579 0.522112
O O8 0.338672 0.555671 0.132524
O O9 0.000000 0.011097 0.750000
#
# Coordination Sequence:
#
# PCOD9307995 Si02
#       4
#     8   8   8   8
#     4  12  25  47  79 106 158 206 247 321 381 448
#     4  12  25  51  75 113 158 200 258 313 386 461
#     4  12  26  50  77 113 157 201 256 315 388 457
#     4  12  26  47  78 117 151 196 266 313 375 462
#
# _framework density 24.618548000000001
#
# number of rings (size 3 to 8) (size 9 to 14) (size 15 to 20)
#    0.000    0.000    7.500    3.000    0.000    3.000 
#    0.000    3.750    0.000    0.000    0.000    0.000 
#    0.000    0.000    0.000    0.000    0.000    0.000 
#
# Total GULP energy -89401.712500 kJ/mol
# GULP energy per Si atom -5587.607031 kJ/mol
# Density = 2.456251 g / cm^3
# Si number density = 24.618548 Si / 1000 Ang^3
#
#
#
# Elastic Constant Matrix: (Units=GPa)
#
#
# Indices 1 2 3 4 5 6 
#
# 1 101.7203 61.3455 31.1756 0.0000 -15.6298 0.0000
# 2 61.3455 124.5890 46.5516 0.0000 -7.7185 0.0000
# 3 31.1756 46.5516 127.7150 0.0000 -19.7035 0.0000
# 4 0.0000 0.0000 0.0000 39.5172 0.0000 -25.2032
# 5 -15.6298 -7.7185 -19.7035 0.0000 31.3757 0.0000
# 6 0.0000 0.0000 0.0000 -25.2032 0.0000 60.0825
#
#
#
# Elastic Compliance Matrix: (Units=1/GPa)
#
#
# Indices 1 2 3 4 5 6 
#
# 1 0.014936 -0.006909 -0.000268 0.000000 0.005572 0.000000
# 2 -0.006909 0.012489 -0.003236 0.000000 -0.002402 0.000000
# 3 -0.000268 -0.003236 0.009890 0.000000 0.005281 0.000000
# 4 0.000000 0.000000 0.000000 0.034548 0.000000 0.014492
# 5 0.005572 -0.002402 0.005281 0.000000 0.037373 0.000000
# 6 0.000000 0.000000 0.000000 0.014492 0.000000 0.022723
#
#
# Mechanical properties :
#
#
# Convention : Reuss Voigt Hill
#
# Bulk Modulus (GPa) = 60.64913 70.24108 65.44510
# Shear Modulus (GPa) = 31.58961 40.52520 36.05740
#
# Velocity S-wave (km/s) = 3.58601 4.06165 3.83122
# Velocity P-wave (km/s) = 6.46800 7.11264 6.79797
#
# Compressibility (1/GPa) = 0.01648828
#
# Stress axis : x y z
#
# Youngs Moduli (GPa) = 66.95331 80.07358 101.11632
#
# Poissons Ratio (x) = 0.55321 0.02709
# Poissons Ratio (y) = 0.46257 0.32722
# Poissons Ratio (z) = 0.01794 0.25912
#
# Static dielectric constant tensor:
#      x y z
#    x 2.040060 0.000000 -0.040350 
#    y 0.000000 2.025240 0.000000 
#    z -0.040350 0.000000 1.918130 
# 
# From -- ./inp_files/165185.got.cif
#   From: 2010.05.17/outbox.cif.g08.bks.cpg/sg15_83_cif.got.tgz:165185.got - 2010.06.03 18:47:42.
