data_PCOD9307581
_publ_section_title
;
Structure prediction by ZEFSAII (Michael W. Deem and Ramdas Pophale) SiO2 
 PCOD9307581
Probable space group: C 2/C
;
_chemical_formula_sum "Si O2"
_cell_formula_units_Z 44
_cell_length_a 5.695090
_cell_length_b 22.527855
_cell_length_c 15.058480
_cell_angle_alpha 90.000000
_cell_angle_beta 100.261005
_cell_angle_gamma 90.000000
_cell_volume 1901.076258
_symmetry_space_group_name_H-M "C 2/C"
_symmetry_group_IT_number 15
_symmetry_cell_setting 'monoclinic'
loop_
_space_group_symop_operation_xyz
x,y,z
-x,y,1/2-z
-x,-y,-z
x,-y,1/2+z
1/2+x,1/2+y,z
1/2-x,1/2+y,1/2-z
1/2-x,1/2-y,-z
1/2+x,1/2-y,1/2+z
loop_
_atom_site_type_symbol
_atom_site_label
_atom_site_fract_x
_atom_site_fract_y
_atom_site_fract_z
Si Si1 0.818522 0.240759 0.807415
Si Si2 0.394461 0.190135 0.032858
Si Si3 0.040486 0.098084 0.082244
Si Si4 0.000000 0.839025 0.750000
Si Si5 0.737571 0.508419 0.698626
Si Si6 0.667198 0.126982 0.901553
O O1 0.695668 0.290193 0.737395
O O2 0.696770 0.184647 0.842838
O O3 0.000000 0.213089 0.750000
O O4 0.891772 0.280418 0.897448
O O5 0.255272 0.143810 0.083839
O O6 0.250000 0.250000 0.000000
O O7 0.455645 0.149829 0.951463
O O8 0.917355 0.119049 0.165411
O O9 0.140474 0.033429 0.112206
O O10 0.873162 0.110422 0.987196
O O11 0.500000 0.514277 0.750000
O O12 0.823215 0.570634 0.662070
O O13 0.000000 0.483152 0.750000
#
# Coordination Sequence:
#
# PCOD9307581 Si02
#       6
#     8   8   8   4   8   8
#     4  12  25  41  70 107 149 195 245 314 393 469
#     4  12  25  44  74 115 149 195 256 326 395 477
#     4  12  26  48  78 105 154 203 268 323 397 472
#     4  12  24  42  72 108 148 196 248 324 390 466
#     4  12  32  54  81 114 158 212 272 331 397 469
#     4  12  28  48  75 110 158 203 265 325 397 471
#
# _framework density 23.144783
#
# number of rings (size 3 to 8) (size 9 to 14) (size 15 to 20)
#    0.000    0.000    6.364    2.727    8.909    0.727 
#    0.000    0.000    0.000    0.000    0.000    0.000 
#    0.000    0.000    0.000    0.000    0.000    0.000 
#
# Total GULP energy -122484.141805 kJ/mol
# GULP energy per Si atom -5567.460991 kJ/mol
# Density = 2.309210 g / cm^3
# Si number density = 23.144783 Si / 1000 Ang^3
#
#
#
# Elastic Constant Matrix: (Units=GPa)
#
#
# Indices 1 2 3 4 5 6 
#
# 1 69.2270 29.3279 25.1348 0.0000 -16.7594 0.0000
# 2 29.3279 138.5053 31.8622 0.0000 -5.5842 0.0000
# 3 25.1348 31.8622 90.1477 0.0000 -7.5708 0.0000
# 4 0.0000 0.0000 0.0000 457.2872 0.0000 -318.9267
# 5 -16.7594 -5.5842 -7.5708 0.0000 36.9543 0.0000
# 6 0.0000 0.0000 0.0000 -318.9267 0.0000 276.7955
#
#
#
# Elastic Compliance Matrix: (Units=1/GPa)
#
#
# Indices 1 2 3 4 5 6 
#
# 1 0.018731 -0.002842 -0.003603 0.000000 0.007327 0.000000
# 2 -0.002842 0.008305 -0.002183 0.000000 -0.000481 0.000000
# 3 -0.003603 -0.002183 0.012927 0.000000 0.000684 0.000000
# 4 0.000000 0.000000 0.000000 0.011134 0.000000 0.012828
# 5 0.007327 -0.000481 0.000684 0.000000 0.030451 0.000000
# 6 0.000000 0.000000 0.000000 0.012828 0.000000 0.018394
#
#
# Mechanical properties :
#
#
# Convention : Reuss Voigt Hill
#
# Bulk Modulus (GPa) = 44.04054 52.28110 48.16082
# Shear Modulus (GPa) = 40.07506 168.31106 104.19306
#
# Velocity S-wave (km/s) = 4.16564 8.53691 6.71682
# Velocity P-wave (km/s) = 6.49664 10.94575 9.00044
#
# Compressibility (1/GPa) = 0.02270635
#
# Stress axis : x y z
#
# Youngs Moduli (GPa) = 53.38675 120.41570 77.36029
#
# Poissons Ratio (x) = 0.34223 0.27871
# Poissons Ratio (y) = 0.15173 0.16889
# Poissons Ratio (z) = 0.19234 0.26289
#
# Static dielectric constant tensor:
#      x y z
#    x 1.707820 0.000000 0.043510 
#    y 0.000000 1.819030 0.000000 
#    z 0.043510 0.000000 1.966160 
# 
# From -- ./inp_files/185000.got.cif
#   From: 2010.05.17/outbox.cif.g08.bks.cpg/sg15_93_cif.got.tgz:185000.got - 2010.06.03 18:47:42.
