data_PCOD9307278
_publ_section_title
;
Structure prediction by ZEFSAII (Michael W. Deem and Ramdas Pophale) SiO2 
 PCOD9307278
Probable space group: C 2/C
;
_chemical_formula_sum "Si O2"
_cell_formula_units_Z 44
_cell_length_a 23.009303
_cell_length_b 5.254508
_cell_length_c 17.896218
_cell_angle_alpha 90.000000
_cell_angle_beta 67.764864
_cell_angle_gamma 90.000000
_cell_volume 2002.803252
_symmetry_space_group_name_H-M "C 2/C"
_symmetry_group_IT_number 15
_symmetry_cell_setting 'monoclinic'
loop_
_space_group_symop_operation_xyz
x,y,z
-x,y,1/2-z
-x,-y,-z
x,-y,1/2+z
1/2+x,1/2+y,z
1/2-x,1/2+y,1/2-z
1/2-x,1/2-y,-z
1/2+x,1/2-y,1/2+z
loop_
_atom_site_type_symbol
_atom_site_label
_atom_site_fract_x
_atom_site_fract_y
_atom_site_fract_z
Si Si1 0.126396 0.078391 0.952263
Si Si2 0.117974 0.459848 0.203693
Si Si3 0.751220 0.309850 0.298487
Si Si4 0.039895 0.741521 0.363435
Si Si5 0.000000 0.901865 0.750000
Si Si6 0.905121 0.572830 0.444469
O O1 0.191916 0.115747 0.877747
O O2 0.071190 0.126465 0.918791
O O3 0.120629 0.302351 0.015812
O O4 0.117992 0.801142 0.991656
O O5 0.184127 0.332327 0.187422
O O6 0.094438 0.604307 0.289374
O O7 0.117938 0.627410 0.128784
O O8 0.062042 0.265078 0.214057
O O9 0.754657 0.527824 0.232770
O O10 0.981156 0.563591 0.412285
O O11 0.008998 0.933937 0.319633
#
# Coordination Sequence:
#
# PCOD9307278 Si02
#       6
#     8   8   8   8   4   8
#     4  12  28  46  73 107 150 191 236 302 373 424
#     4  12  26  44  79 103 147 196 246 301 354 438
#     4  12  27  50  76 106 142 196 254 295 354 445
#     4  12  24  46  73 107 143 198 242 299 354 442
#     4  12  22  44  76 110 138 184 262 286 364 410
#     4  12  26  46  70 114 148 185 237 306 374 420
#
# _framework density 21.969207999999998
#
# number of rings (size 3 to 8) (size 9 to 14) (size 15 to 20)
#    0.000    0.000    5.455    4.364    2.545    1.455 
#    0.000    0.000    0.000    0.000    0.000    0.000 
#    0.000    0.000    0.000    0.000    0.000    0.000 
#
# Total GULP energy -123246.668084 kJ/mol
# GULP energy per Si atom -5602.121277 kJ/mol
# Density = 2.191921 g / cm^3
# Si number density = 21.969208 Si / 1000 Ang^3
#
#
#
# Elastic Constant Matrix: (Units=GPa)
#
#
# Indices 1 2 3 4 5 6 
#
# 1 112.0614 3.3786 11.5244 0.0006 -34.3379 -0.0047
# 2 3.3786 45.7070 -5.5164 0.0006 22.4257 -0.0008
# 3 11.5244 -5.5164 75.1480 -0.0011 -3.2573 0.0000
# 4 0.0006 0.0006 -0.0011 47.4046 0.0031 -2.6842
# 5 -34.3379 22.4257 -3.2573 0.0031 -24.5993 -0.0037
# 6 -0.0047 -0.0008 0.0000 -2.6842 -0.0037 5.4859
#
#
#
# Elastic Compliance Matrix: (Units=1/GPa)
#
#
# Indices 1 2 3 4 5 6 
#
# 1 0.006844 0.002742 -0.001147 0.000000 -0.006902 0.000002
# 2 0.002742 0.016436 0.001262 0.000000 0.010989 0.000012
# 3 -0.001147 0.001262 0.013617 0.000000 0.000950 0.000000
# 4 0.000000 0.000000 0.000000 0.021696 0.000000 0.010616
# 5 -0.006902 0.010989 0.000950 0.000000 -0.021125 -0.000018
# 6 0.000002 0.000012 0.000000 0.010616 -0.000018 0.187481
#
#
# Mechanical properties :
#
#
# Convention : Reuss Voigt Hill
#
# Bulk Modulus (GPa) = 23.46804 27.96551 25.71677
# Shear Modulus (GPa) = 21.41884 20.56023 20.98953
#
# Velocity S-wave (km/s) = 3.12580 3.06251 3.09432
# Velocity P-wave (km/s) = 4.87165 5.02617 4.94951
#
# Compressibility (1/GPa) = 0.04261114
#
# Stress axis : x y z
#
# Youngs Moduli (GPa) = 146.11093 60.84071 73.43833
#
# Poissons Ratio (x) = -0.16682 0.08427
# Poissons Ratio (y) = -0.40063 -0.09271
# Poissons Ratio (z) = 0.16766 -0.07680
#
# Static dielectric constant tensor:
#      x y z
#    x 1.760430 0.000000 -0.005660 
#    y 0.000000 1.817010 0.000000 
#    z -0.005660 0.000000 1.864480 
# 
# From -- ./inp_files/212817.got.cif
#   From: 2010.05.17/outbox.cif.g08.bks.cpg/sg15_107_cif.got.tgz:212817.got - 2010.06.03 18:47:42.
