data_PCOD9307821
_publ_section_title
;
Structure prediction by ZEFSAII (Michael W. Deem and Ramdas Pophale) SiO2 
 PCOD9307821
Probable space group: C 2/C
;
_chemical_formula_sum "Si O2"
_cell_formula_units_Z 36
_cell_length_a 23.991864
_cell_length_b 11.187029
_cell_length_c 12.897888
_cell_angle_alpha 90.000000
_cell_angle_beta 152.555321
_cell_angle_gamma 90.000000
_cell_volume 1595.498822
_symmetry_space_group_name_H-M "C 2/C"
_symmetry_group_IT_number 15
_symmetry_cell_setting 'monoclinic'
loop_
_space_group_symop_operation_xyz
x,y,z
-x,y,1/2-z
-x,-y,-z
x,-y,1/2+z
1/2+x,1/2+y,z
1/2-x,1/2+y,1/2-z
1/2-x,1/2-y,-z
1/2+x,1/2-y,1/2+z
loop_
_atom_site_type_symbol
_atom_site_label
_atom_site_fract_x
_atom_site_fract_y
_atom_site_fract_z
Si Si1 0.500000 0.972986 0.250000
Si Si2 0.829311 0.334125 0.359955
Si Si3 0.619027 0.560865 0.397111
Si Si4 0.738371 0.830608 0.880160
Si Si5 0.039988 0.292037 0.141767
O O1 0.566651 0.887703 0.276850
O O2 0.595449 0.059125 0.463868
O O3 0.820015 0.223956 0.422946
O O4 0.887521 0.307045 0.344907
O O5 0.693181 0.374404 0.110742
O O6 0.500000 0.503604 0.250000
O O7 0.711520 0.461277 0.509707
O O8 0.574015 0.662051 0.243197
O O9 0.599646 0.821009 0.615403
O O10 0.750000 0.750000 0.000000
#
# Coordination Sequence:
#
# PCOD9307821 Si02
#       5
#     4   8   8   8   8
#     4  12  24  48  80 110 154 204 272 326 394 480
#     4  12  27  48  79 112 157 208 266 331 401 477
#     4  12  27  50  79 113 159 209 264 329 401 475
#     4  12  29  49  74 117 159 207 269 328 399 478
#     4  12  26  52  77 113 156 212 269 326 404 476
#
# _framework density 22.563478
#
# number of rings (size 3 to 8) (size 9 to 14) (size 15 to 20)
#    0.000    0.000    5.556    2.667    7.778    2.667 
#    0.000    0.000    0.000    0.000    0.000    0.000 
#    0.000    0.000    0.000    0.000    0.000    0.000 
#
# Total GULP energy -100787.323271 kJ/mol
# GULP energy per Si atom -5599.295737 kJ/mol
# Density = 2.251212 g / cm^3
# Si number density = 22.563478 Si / 1000 Ang^3
#
#
#
# Elastic Constant Matrix: (Units=GPa)
#
#
# Indices 1 2 3 4 5 6 
#
# 1 110.9570 28.5418 40.4060 0.0000 -4.4064 0.0000
# 2 28.5418 112.7889 73.3030 0.0000 6.9966 0.0000
# 3 40.4060 73.3030 129.1227 0.0000 1.0789 0.0000
# 4 0.0000 0.0000 0.0000 35.6302 0.0000 -2.1265
# 5 -4.4064 6.9966 1.0789 0.0000 30.6604 0.0000
# 6 0.0000 0.0000 0.0000 -2.1265 0.0000 25.8924
#
#
#
# Elastic Compliance Matrix: (Units=1/GPa)
#
#
# Indices 1 2 3 4 5 6 
#
# 1 0.010314 -0.000973 -0.002690 0.000000 0.001799 0.000000
# 2 -0.000973 0.014409 -0.007849 0.000000 -0.003152 0.000000
# 3 -0.002690 -0.007849 0.013034 0.000000 0.000946 0.000000
# 4 0.000000 0.000000 0.000000 0.028204 0.000000 0.002316
# 5 0.001799 -0.003152 0.000946 0.000000 0.033560 0.000000
# 6 0.000000 0.000000 0.000000 0.002316 0.000000 0.038812
#
#
# Mechanical properties :
#
#
# Convention : Reuss Voigt Hill
#
# Bulk Modulus (GPa) = 67.87696 70.81891 69.34794
# Shear Modulus (GPa) = 30.07171 32.47779 31.27475
#
# Velocity S-wave (km/s) = 3.65466 3.79805 3.72705
# Velocity P-wave (km/s) = 6.92508 7.11957 7.02300
#
# Compressibility (1/GPa) = 0.01473254
#
# Stress axis : x y z
#
# Youngs Moduli (GPa) = 96.95656 69.39989 76.71987
#
# Poissons Ratio (x) = 0.06755 0.20637
# Poissons Ratio (y) = 0.09437 0.60219
# Poissons Ratio (z) = 0.26081 0.54473
#
# Static dielectric constant tensor:
#      x y z
#    x 1.830490 0.000000 0.005430 
#    y 0.000000 1.860740 0.000000 
#    z 0.005430 0.000000 1.839590 
# 
# From -- ./inp_files/117861.got.cif
#   From: 2010.05.17/outbox.cif.g08.bks.cpg/sg15_59_cif.got.tgz:117861.got - 2010.06.03 18:47:42.
