data_PCOD9307780
_publ_section_title
;
Structure prediction by ZEFSAII (Michael W. Deem and Ramdas Pophale) SiO2 
 PCOD9307780
Probable space group: C 2/C
;
_chemical_formula_sum "Si O2"
_cell_formula_units_Z 40
_cell_length_a 13.067339
_cell_length_b 8.580073
_cell_length_c 14.886539
_cell_angle_alpha 90.000000
_cell_angle_beta 70.173143
_cell_angle_gamma 90.000000
_cell_volume 1570.121020
_symmetry_space_group_name_H-M "C 2/C"
_symmetry_group_IT_number 15
_symmetry_cell_setting 'monoclinic'
loop_
_space_group_symop_operation_xyz
x,y,z
-x,y,1/2-z
-x,-y,-z
x,-y,1/2+z
1/2+x,1/2+y,z
1/2-x,1/2+y,1/2-z
1/2-x,1/2-y,-z
1/2+x,1/2-y,1/2+z
loop_
_atom_site_type_symbol
_atom_site_label
_atom_site_fract_x
_atom_site_fract_y
_atom_site_fract_z
Si Si1 0.599723 0.862602 0.782445
Si Si2 0.686848 0.466191 0.202293
Si Si3 0.436604 0.856931 0.977671
Si Si4 0.409826 0.561648 0.096733
Si Si5 0.762185 0.934079 0.007316
O O1 0.500000 0.931672 0.750000
O O2 0.662590 0.718017 0.718261
O O3 0.524123 0.786699 0.883097
O O4 0.692949 0.973057 0.799281
O O5 0.598906 0.548474 0.294378
O O6 0.673800 0.513727 0.101896
O O7 0.399504 0.737563 0.064277
O O8 0.500000 0.000000 0.000000
O O9 0.336030 0.943453 0.963064
O O10 0.500000 0.500000 0.000000
O O11 0.310062 0.459155 0.091022
O O12 0.750000 0.750000 0.000000
#
# Coordination Sequence:
#
# PCOD9307780 Si02
#       5
#     8   8   8   8   8
#     4  12  26  49  76 112 155 207 265 331 399 468
#     4  12  26  48  79 113 156 205 270 325 398 485
#     4  12  24  48  70 105 154 201 254 326 391 462
#     4  12  25  46  76 107 155 206 259 331 396 469
#     4  12  26  48  78 115 156 203 264 328 402 479
#
# _framework density 25.475743999999999
#
# number of rings (size 3 to 8) (size 9 to 14) (size 15 to 20)
#    0.000    0.000    4.000    6.600    0.000    0.000 
#    0.000    1.000    0.000    0.000    0.000    0.000 
#    0.000    0.000    0.000    0.000    0.000    0.000 
#
# Total GULP energy -111725.326961 kJ/mol
# GULP energy per Si atom -5586.266348 kJ/mol
# Density = 2.541776 g / cm^3
# Si number density = 25.475744 Si / 1000 Ang^3
#
#
#
# Elastic Constant Matrix: (Units=GPa)
#
#
# Indices 1 2 3 4 5 6 
#
# 1 70.1447 5.0420 25.5107 0.0000 -0.3928 0.0000
# 2 5.0420 126.5745 22.5316 0.0000 -8.0189 0.0000
# 3 25.5107 22.5316 180.9317 0.0000 -19.1311 0.0000
# 4 0.0000 0.0000 0.0000 44.7359 0.0000 2.4165
# 5 -0.3928 -8.0189 -19.1311 0.0000 42.0743 0.0000
# 6 0.0000 0.0000 0.0000 2.4165 0.0000 39.1046
#
#
#
# Elastic Compliance Matrix: (Units=1/GPa)
#
#
# Indices 1 2 3 4 5 6 
#
# 1 0.015066 -0.000268 -0.002186 0.000000 -0.000905 0.000000
# 2 -0.000268 0.008136 -0.000853 0.000000 0.001160 0.000000
# 3 -0.002186 -0.000853 0.006221 0.000000 0.002646 0.000000
# 4 0.000000 0.000000 0.000000 0.022428 0.000000 -0.001386
# 5 -0.000905 0.001160 0.002646 0.000000 0.025183 0.000000
# 6 0.000000 0.000000 0.000000 -0.001386 0.000000 0.025658
#
#
# Mechanical properties :
#
#
# Convention : Reuss Voigt Hill
#
# Bulk Modulus (GPa) = 43.84327 53.75770 48.80049
# Shear Modulus (GPa) = 42.76774 46.82075 44.79424
#
# Velocity S-wave (km/s) = 4.10172 4.29167 4.19777
# Velocity P-wave (km/s) = 6.29915 6.76057 6.53393
#
# Compressibility (1/GPa) = 0.02280852
#
# Stress axis : x y z
#
# Youngs Moduli (GPa) = 66.37618 122.90318 160.74122
#
# Poissons Ratio (x) = 0.03297 0.35145
# Poissons Ratio (y) = 0.01780 0.13707
# Poissons Ratio (z) = 0.14513 0.10480
#
# Static dielectric constant tensor:
#      x y z
#    x 2.110570 0.000000 -0.116380 
#    y 0.000000 1.952000 0.000000 
#    z -0.116380 0.000000 2.094650 
# 
# From -- ./inp_files/202494.got.cif
#   From: 2010.05.17/outbox.cif.g08.bks.cpg/sg15_102_cif.got.tgz:202494.got - 2010.06.03 18:47:42.
