data_PCOD9307605
_publ_section_title
;
Structure prediction by ZEFSAII (Michael W. Deem and Ramdas Pophale) SiO2 
 PCOD9307605
Probable space group: C 2/C
;
_chemical_formula_sum "Si O2"
_cell_formula_units_Z 40
_cell_length_a 27.201195
_cell_length_b 5.213928
_cell_length_c 12.484277
_cell_angle_alpha 90.000000
_cell_angle_beta 63.481758
_cell_angle_gamma 90.000000
_cell_volume 1584.304390
_symmetry_space_group_name_H-M "C 2/C"
_symmetry_group_IT_number 15
_symmetry_cell_setting 'monoclinic'
loop_
_space_group_symop_operation_xyz
x,y,z
-x,y,1/2-z
-x,-y,-z
x,-y,1/2+z
1/2+x,1/2+y,z
1/2-x,1/2+y,1/2-z
1/2-x,1/2-y,-z
1/2+x,1/2-y,1/2+z
loop_
_atom_site_type_symbol
_atom_site_label
_atom_site_fract_x
_atom_site_fract_y
_atom_site_fract_z
Si Si1 0.241741 0.497163 0.936540
Si Si2 0.126943 0.422029 0.933601
Si Si3 0.480786 0.901885 0.903261
Si Si4 0.443488 0.473837 0.305368
Si Si5 0.645177 0.579260 0.278318
O O1 0.180971 0.483990 0.948964
O O2 0.289986 0.463134 0.802971
O O3 0.250000 0.750000 0.000000
O O4 0.250000 0.250000 0.000000
O O5 0.130491 0.155996 0.868764
O O6 0.128192 0.648795 0.844062
O O7 0.072558 0.413584 0.060739
O O8 0.444594 0.641590 0.922648
O O9 0.500000 0.000000 0.000000
O O10 0.465192 0.214719 0.212284
O O11 0.500000 0.643192 0.250000
O O12 0.389066 0.554748 0.299509
#
# Coordination Sequence:
#
# PCOD9307605 Si02
#       5
#     8   8   8   8   8
#     4  12  26  46  68 100 137 183 235 295 356 423
#     4  12  24  43  71  97 139 182 232 293 350 424
#     4   9  18  41  67 101 141 185 238 285 363 414
#     4   8  20  39  65 103 141 187 232 294 348 426
#     4  12  24  44  68 103 135 183 238 285 355 426
#
# _framework density 25.247672000000001
#
# number of rings (size 3 to 8) (size 9 to 14) (size 15 to 20)
#    1.200    0.000    2.000    4.800    0.000    0.800 
#    0.000    3.000    0.000    0.000    0.000    0.000 
#    0.000    0.000    0.000    0.000    0.000    0.000 
#
# Total GULP energy -111381.179165 kJ/mol
# GULP energy per Si atom -5569.058958 kJ/mol
# Density = 2.519021 g / cm^3
# Si number density = 25.247672 Si / 1000 Ang^3
#
#
#
# Elastic Constant Matrix: (Units=GPa)
#
#
# Indices 1 2 3 4 5 6 
#
# 1 185.4547 7.2527 33.3358 0.0000 17.8874 0.0000
# 2 7.2527 141.2163 33.3324 0.0000 -8.0947 0.0000
# 3 33.3358 33.3324 71.7297 0.0000 -32.1318 0.0000
# 4 0.0000 0.0000 0.0000 36.2185 0.0000 -6.9404
# 5 17.8874 -8.0947 -32.1318 0.0000 66.5420 0.0000
# 6 0.0000 0.0000 0.0000 -6.9404 0.0000 40.0678
#
#
#
# Elastic Compliance Matrix: (Units=1/GPa)
#
#
# Indices 1 2 3 4 5 6 
#
# 1 0.006755 0.000679 -0.005399 0.000000 -0.004340 0.000000
# 2 0.000679 0.008079 -0.004735 0.000000 -0.001486 0.000000
# 3 -0.005399 -0.004735 0.024299 0.000000 0.012609 0.000000
# 4 0.000000 0.000000 0.000000 0.028558 0.000000 0.004947
# 5 -0.004340 -0.001486 0.012609 0.000000 0.022102 0.000000
# 6 0.000000 0.000000 0.000000 0.004947 0.000000 0.025815
#
#
# Mechanical properties :
#
#
# Convention : Reuss Voigt Hill
#
# Bulk Modulus (GPa) = 49.45232 60.69360 55.07296
# Shear Modulus (GPa) = 35.39588 50.19764 42.79676
#
# Velocity S-wave (km/s) = 3.74832 4.46377 4.12160
# Velocity P-wave (km/s) = 6.19376 7.11748 6.67162
#
# Compressibility (1/GPa) = 0.02022150
#
# Stress axis : x y z
#
# Youngs Moduli (GPa) = 148.04612 123.77711 41.15410
#
# Poissons Ratio (x) = -0.08400 0.22218
# Poissons Ratio (y) = -0.10047 0.19488
# Poissons Ratio (z) = 0.79926 0.58614
#
# Static dielectric constant tensor:
#      x y z
#    x 2.146480 0.000000 -0.428660 
#    y 0.000000 2.132520 0.000000 
#    z -0.428660 0.000000 1.511600 
# 
# From -- ./inp_files/120753.got.cif
#   From: 2010.05.17/outbox.cif.g08.bks.cpg/sg15_61_cif.got.tgz:120753.got - 2010.06.03 18:47:42.
