data_PCOD9307058
_publ_section_title
;
Structure prediction by ZEFSAII (Michael W. Deem and Ramdas Pophale) SiO2 
 PCOD9307058
Probable space group: C 2/C
;
_chemical_formula_sum "Si O2"
_cell_formula_units_Z 32
_cell_length_a 23.198507
_cell_length_b 7.972903
_cell_length_c 9.816809
_cell_angle_alpha 90.000000
_cell_angle_beta 47.710303
_cell_angle_gamma 90.000000
_cell_volume 1343.176445
_symmetry_space_group_name_H-M "C 2/C"
_symmetry_group_IT_number 15
_symmetry_cell_setting 'monoclinic'
loop_
_space_group_symop_operation_xyz
x,y,z
-x,y,1/2-z
-x,-y,-z
x,-y,1/2+z
1/2+x,1/2+y,z
1/2-x,1/2+y,1/2-z
1/2-x,1/2-y,-z
1/2+x,1/2-y,1/2+z
loop_
_atom_site_type_symbol
_atom_site_label
_atom_site_fract_x
_atom_site_fract_y
_atom_site_fract_z
Si Si1 0.763995 0.421111 0.397765
Si Si2 0.935193 0.765393 0.445938
Si Si3 0.333202 0.565013 0.718840
Si Si4 0.587233 0.120621 0.296595
O O1 0.750000 0.250000 0.500000
O O2 0.713553 0.551327 0.566204
O O3 0.726997 0.413793 0.308236
O O4 0.854098 0.472618 0.256299
O O5 0.891824 0.662527 0.396150
O O6 0.000000 0.867184 0.250000
O O7 0.993322 0.640135 0.434111
O O8 0.883615 0.897185 0.609044
O O9 0.388036 0.725740 0.645555
#
# Coordination Sequence:
#
# PCOD9307058 Si02
#       4
#     8   8   8   8
#     4  12  26  38  67 100 140 180 230 276 346 406
#     4   8  20  39  73  90 135 176 231 271 353 391
#     4  12  21  42  67 103 131 179 228 281 342 410
#     4   9  21  42  65  93 137 177 218 283 336 401
#
# _framework density 23.824121999999999
#
# number of rings (size 3 to 8) (size 9 to 14) (size 15 to 20)
#    1.500    0.000    2.500    3.000    3.500    0.000 
#    0.000    1.250   22.000    0.000    0.000    0.000 
#    0.000    0.000    0.000    0.000    0.000    0.000 
#
# Total GULP energy -89312.463987 kJ/mol
# GULP energy per Si atom -5582.028999 kJ/mol
# Density = 2.376990 g / cm^3
# Si number density = 23.824122 Si / 1000 Ang^3
#
#
#
# Elastic Constant Matrix: (Units=GPa)
#
#
# Indices 1 2 3 4 5 6 
#
# 1 206.0766 61.9989 51.9594 0.0000 13.6917 0.0000
# 2 61.9989 77.2136 -18.5371 0.0000 5.0858 0.0000
# 3 51.9594 -18.5371 78.2179 0.0000 -13.5786 0.0000
# 4 0.0000 0.0000 0.0000 10.0248 0.0000 -4.0177
# 5 13.6917 5.0858 -13.5786 0.0000 41.3140 0.0000
# 6 0.0000 0.0000 0.0000 -4.0177 0.0000 22.1667
#
#
#
# Elastic Compliance Matrix: (Units=1/GPa)
#
#
# Indices 1 2 3 4 5 6 
#
# 1 0.011820 -0.011901 -0.011770 0.000000 -0.006321 0.000000
# 2 -0.011901 0.025731 0.014994 0.000000 0.005704 0.000000
# 3 -0.011770 0.014994 0.025997 0.000000 0.010599 0.000000
# 4 0.000000 0.000000 0.000000 0.107566 0.000000 0.019496
# 5 -0.006321 0.005704 0.010599 0.000000 0.029081 0.000000
# 6 0.000000 0.000000 0.000000 0.019496 0.000000 0.048646
#
#
# Mechanical properties :
#
#
# Convention : Reuss Voigt Hill
#
# Bulk Modulus (GPa) = 21.64766 61.37229 41.50998
# Shear Modulus (GPa) = 17.75615 32.44024 25.09819
#
# Velocity S-wave (km/s) = 2.73298 3.69406 3.24925
# Velocity P-wave (km/s) = 4.36636 6.63410 5.61589
#
# Compressibility (1/GPa) = 0.04619436
#
# Stress axis : x y z
#
# Youngs Moduli (GPa) = 84.59900 38.86426 38.46621
#
# Poissons Ratio (x) = 0.46251 0.45274
# Poissons Ratio (y) = 1.00678 -0.57675
# Poissons Ratio (z) = 0.99572 -0.58272
#
# Static dielectric constant tensor:
#      x y z
#    x 1.852170 0.000000 -0.035990 
#    y 0.000000 2.698940 0.000000 
#    z -0.035990 0.000000 2.003760 
# 
# From -- ./inp_files/59714.got.cif
#   From: 2010.05.17/outbox.cif.g08.bks.cpg/sg15_30_cif.got.tgz:59714.got - 2010.06.03 18:47:42.
