data_PCOD9307171
_publ_section_title
;
Structure prediction by ZEFSAII (Michael W. Deem and Ramdas Pophale) SiO2 
 PCOD9307171
Probable space group: C 2/C
;
_chemical_formula_sum "Si O2"
_cell_formula_units_Z 28
_cell_length_a 12.233810
_cell_length_b 7.124605
_cell_length_c 10.780801
_cell_angle_alpha 90.000000
_cell_angle_beta 77.841906
_cell_angle_gamma 90.000000
_cell_volume 918.589558
_symmetry_space_group_name_H-M "C 2/C"
_symmetry_group_IT_number 15
_symmetry_cell_setting 'monoclinic'
loop_
_space_group_symop_operation_xyz
x,y,z
-x,y,1/2-z
-x,-y,-z
x,-y,1/2+z
1/2+x,1/2+y,z
1/2-x,1/2+y,1/2-z
1/2-x,1/2-y,-z
1/2+x,1/2-y,1/2+z
loop_
_atom_site_type_symbol
_atom_site_label
_atom_site_fract_x
_atom_site_fract_y
_atom_site_fract_z
Si Si1 0.315385 0.995393 0.755284
Si Si2 0.984191 0.708317 0.056249
Si Si3 0.250000 0.250000 0.500000
Si Si4 0.112495 0.898358 0.658402
O O1 0.404007 0.841893 0.689104
O O2 0.228164 0.011553 0.659730
O O3 0.364259 0.199224 0.773791
O O4 0.258797 0.916132 0.890402
O O5 0.109767 0.776556 0.039590
O O6 0.000000 0.500000 0.000000
O O7 0.918058 0.828956 0.970872
O O8 0.000000 0.975928 0.750000
#
# Coordination Sequence:
#
# PCOD9307171 Si02
#       4
#     8   8   4   8
#     4  12  25  45  76 108 146 195 240 306 367 436
#     4  12  23  45  73 104 145 196 241 296 367 432
#     4  12  22  40  76 102 140 188 240 290 364 430
#     4  12  24  47  74 105 149 189 244 302 367 435
#
# _framework density 30.481511000000001
#
# number of rings (size 3 to 8) (size 9 to 14) (size 15 to 20)
#    0.000    0.000    8.571    1.714    0.000    0.000 
#    0.000    8.571    0.000    0.000    0.000    0.000 
#    0.000    0.000    0.000    0.000    0.000    0.000 
#
# Total GULP energy -78434.128748 kJ/mol
# GULP energy per Si atom -5602.437768 kJ/mol
# Density = 3.041213 g / cm^3
# Si number density = 30.481511 Si / 1000 Ang^3
#
#
#
# Elastic Constant Matrix: (Units=GPa)
#
#
# Indices 1 2 3 4 5 6 
#
# 1 291.8306 62.3276 62.9005 0.0000 11.3064 0.0000
# 2 62.3276 109.5924 -13.6119 0.0000 8.9500 0.0000
# 3 62.9005 -13.6119 120.7313 0.0000 -18.5334 0.0000
# 4 0.0000 0.0000 0.0000 -8.5140 0.0000 -10.1986
# 5 11.3064 8.9500 -18.5334 0.0000 93.8049 0.0000
# 6 0.0000 0.0000 0.0000 -10.1986 0.0000 69.1019
#
#
#
# Elastic Compliance Matrix: (Units=1/GPa)
#
#
# Indices 1 2 3 4 5 6 
#
# 1 0.004730 -0.002984 -0.002933 0.000000 -0.000865 0.000000
# 2 -0.002984 0.011181 0.002791 0.000000 -0.000156 0.000000
# 3 -0.002933 0.002791 0.010456 0.000000 0.002153 0.000000
# 4 0.000000 0.000000 0.000000 -0.099808 0.000000 -0.014730
# 5 -0.000865 -0.000156 0.002153 0.000000 0.011205 0.000000
# 6 0.000000 0.000000 0.000000 -0.014730 0.000000 0.012297
#
#
# Mechanical properties :
#
#
# Convention : Reuss Voigt Hill
#
# Bulk Modulus (GPa) = 49.71316 82.82076 66.26696
# Shear Modulus (GPa) = -135.19831 58.24776 -38.47527
#
# Velocity S-wave (km/s) = -6.66712 4.37615 -3.55667
# Velocity P-wave (km/s) = 6.55154 7.26389 2.21827
#
# Compressibility (1/GPa) = 0.02011540
#
# Stress axis : x y z
#
# Youngs Moduli (GPa) = 211.43524 89.43831 95.63645
#
# Poissons Ratio (x) = 0.26684 0.28052
# Poissons Ratio (y) = 0.63082 -0.26693
# Poissons Ratio (z) = 0.62019 -0.24963
#
# Static dielectric constant tensor:
#      x y z
#    x 2.398910 0.000000 0.028430 
#    y 0.000000 4.353050 0.000000 
#    z 0.028430 0.000000 2.531150 
# 
# From -- ./inp_files/83549.got.cif
#   From: 2010.05.17/outbox.cif.g08.bks.cpg/sg15_42_cif.got.tgz:83549.got - 2010.06.03 18:47:42.
