data_PCOD9307828
_publ_section_title
;
Structure prediction by ZEFSAII (Michael W. Deem and Ramdas Pophale) SiO2 
 PCOD9307828
Probable space group: C 2/C
;
_chemical_formula_sum "Si O2"
_cell_formula_units_Z 40
_cell_length_a 9.775435
_cell_length_b 16.708447
_cell_length_c 10.637629
_cell_angle_alpha 90.000000
_cell_angle_beta 103.582659
_cell_angle_gamma 90.000000
_cell_volume 1688.875498
_symmetry_space_group_name_H-M "C 2/C"
_symmetry_group_IT_number 15
_symmetry_cell_setting 'monoclinic'
loop_
_space_group_symop_operation_xyz
x,y,z
-x,y,1/2-z
-x,-y,-z
x,-y,1/2+z
1/2+x,1/2+y,z
1/2-x,1/2+y,1/2-z
1/2-x,1/2-y,-z
1/2+x,1/2-y,1/2+z
loop_
_atom_site_type_symbol
_atom_site_label
_atom_site_fract_x
_atom_site_fract_y
_atom_site_fract_z
Si Si1 0.500000 0.681859 0.750000
Si Si2 0.343307 0.943967 0.751844
Si Si3 0.682190 0.839894 0.500960
Si Si4 0.894328 0.946918 0.399209
Si Si5 0.000000 0.274771 0.250000
Si Si6 0.747049 0.289211 0.636347
O O1 0.507279 0.621563 0.637309
O O2 0.365833 0.737309 0.731319
O O3 0.500000 0.974651 0.750000
O O4 0.356538 0.884386 0.876381
O O5 0.293549 0.880575 0.635544
O O6 0.213892 0.007966 0.721492
O O7 0.750000 0.750000 0.500000
O O8 0.793426 0.901241 0.471081
O O9 0.557513 0.830964 0.373688
O O10 0.000000 0.000000 0.500000
O O11 0.111265 0.220220 0.196824
O O12 0.750000 0.250000 0.500000
#
# Coordination Sequence:
#
# PCOD9307828 Si02
#       6
#     4   8   8   8   4   8
#     4  12  24  49  69 108 146 198 258 308 378 481
#     4  12  27  48  76 114 160 206 259 332 403 469
#     4  12  27  50  77 113 155 208 267 321 394 483
#     4  12  28  46  76 112 156 204 257 325 398 465
#     4  12  26  45  81 112 148 206 270 330 390 473
#     4  12  26  44  77 111 152 200 265 321 393 473
#
# _framework density 23.684398000000002
#
# number of rings (size 3 to 8) (size 9 to 14) (size 15 to 20)
#    0.000    0.000    5.000    3.600    7.000    1.600 
#    0.000    0.000    0.000    0.000    0.000    0.000 
#    0.000    0.000    0.000    0.000    0.000    0.000 
#
# Total GULP energy -111643.638432 kJ/mol
# GULP energy per Si atom -5582.181922 kJ/mol
# Density = 2.363049 g / cm^3
# Si number density = 23.684398 Si / 1000 Ang^3
#
#
#
# Elastic Constant Matrix: (Units=GPa)
#
#
# Indices 1 2 3 4 5 6 
#
# 1 122.5164 30.8354 14.0542 0.0000 6.1891 0.0000
# 2 30.8354 86.7634 5.3287 0.0000 11.2220 0.0000
# 3 14.0542 5.3287 74.7765 0.0000 0.1475 0.0000
# 4 0.0000 0.0000 0.0000 49.1491 0.0000 3.2550
# 5 6.1891 11.2220 0.1475 0.0000 36.4889 0.0000
# 6 0.0000 0.0000 0.0000 3.2550 0.0000 22.7216
#
#
#
# Elastic Compliance Matrix: (Units=1/GPa)
#
#
# Indices 1 2 3 4 5 6 
#
# 1 0.009139 -0.003079 -0.001497 0.000000 -0.000597 0.000000
# 2 -0.003079 0.013094 -0.000348 0.000000 -0.003503 0.000000
# 3 -0.001497 -0.000348 0.013679 0.000000 0.000306 0.000000
# 4 0.000000 0.000000 0.000000 0.020541 0.000000 -0.002943
# 5 -0.000597 -0.003503 0.000306 0.000000 0.028583 0.000000
# 6 0.000000 0.000000 0.000000 -0.002943 0.000000 0.044433
#
#
# Mechanical properties :
#
#
# Convention : Reuss Voigt Hill
#
# Bulk Modulus (GPa) = 38.36543 42.72142 40.54343
# Shear Modulus (GPa) = 33.78286 37.26110 35.52198
#
# Velocity S-wave (km/s) = 3.78084 3.97070 3.87693
# Velocity P-wave (km/s) = 5.94083 6.25291 6.09887
#
# Compressibility (1/GPa) = 0.02606513
#
# Stress axis : x y z
#
# Youngs Moduli (GPa) = 109.42173 76.36936 73.10620
#
# Poissons Ratio (x) = 0.23512 0.10945
# Poissons Ratio (y) = 0.33688 0.02541
# Poissons Ratio (z) = 0.16381 0.02654
#
# Static dielectric constant tensor:
#      x y z
#    x 1.937350 0.000000 0.042970 
#    y 0.000000 2.280210 0.000000 
#    z 0.042970 0.000000 2.022850 
# 
# From -- ./inp_files/76961.got.cif
#   From: 2010.05.17/outbox.cif.g08.bks.cpg/sg15_39_cif.got.tgz:76961.got - 2010.06.03 18:47:42.
