data_PCOD9307191
_publ_section_title
;
Structure prediction by ZEFSAII (Michael W. Deem and Ramdas Pophale) SiO2 
 PCOD9307191
Probable space group: C 2/C
;
_chemical_formula_sum "Si O2"
_cell_formula_units_Z 48
_cell_length_a 19.192611
_cell_length_b 6.284246
_cell_length_c 31.018216
_cell_angle_alpha 90.000000
_cell_angle_beta 146.765139
_cell_angle_gamma 90.000000
_cell_volume 2050.415431
_symmetry_space_group_name_H-M "C 2/C"
_symmetry_group_IT_number 15
_symmetry_cell_setting 'monoclinic'
loop_
_space_group_symop_operation_xyz
x,y,z
-x,y,1/2-z
-x,-y,-z
x,-y,1/2+z
1/2+x,1/2+y,z
1/2-x,1/2+y,1/2-z
1/2-x,1/2-y,-z
1/2+x,1/2-y,1/2+z
loop_
_atom_site_type_symbol
_atom_site_label
_atom_site_fract_x
_atom_site_fract_y
_atom_site_fract_z
Si Si1 0.207116 0.727025 0.288252
Si Si2 0.586410 0.763908 0.961333
Si Si3 0.615253 0.377204 0.082294
Si Si4 0.864596 0.893808 0.578997
Si Si5 0.069566 0.593987 0.657369
Si Si6 0.258716 0.484617 0.114284
O O1 0.272469 0.534107 0.347995
O O2 0.104942 0.602366 0.206818
O O3 0.312515 0.836097 0.311381
O O4 0.171581 0.894266 0.307187
O O5 0.449822 0.682960 0.906403
O O6 0.635868 0.609987 0.949713
O O7 0.550598 0.004233 0.931100
O O8 0.680946 0.793411 0.050445
O O9 0.663577 0.169640 0.082083
O O10 0.500000 0.500000 0.000000
O O11 0.750000 0.750000 0.500000
O O12 0.840454 0.928131 0.617046
O O13 0.005136 0.793421 0.647122
#
# Coordination Sequence:
#
# PCOD9307191 Si02
#       6
#     8   8   8   8   8   8
#     4  12  27  47  76 107 149 197 257 316 373 456
#     4  12  23  45  76 107 146 195 252 307 370 447
#     4  12  22  41  74 110 142 189 255 306 361 443
#     4  12  27  47  77 113 153 197 251 312 385 461
#     4  12  27  48  77 107 149 203 250 312 388 452
#     4  12  26  43  76 115 146 191 255 317 374 452
#
# _framework density 23.409889
#
# number of rings (size 3 to 8) (size 9 to 14) (size 15 to 20)
#    0.000    0.000    6.667    4.000    0.000    0.000 
#    0.000    5.000    0.000    0.000    0.000    0.000 
#    0.000    0.000    0.000    0.000    0.000    0.000 
#
# Total GULP energy -134108.522764 kJ/mol
# GULP energy per Si atom -5587.855115 kJ/mol
# Density = 2.335661 g / cm^3
# Si number density = 23.409889 Si / 1000 Ang^3
#
#
#
# Elastic Constant Matrix: (Units=GPa)
#
#
# Indices 1 2 3 4 5 6 
#
# 1 155.8562 49.3848 25.3861 -0.0003 -27.0507 0.0002
# 2 49.3848 75.8237 20.3789 -0.0011 -12.3743 0.0014
# 3 25.3861 20.3789 82.7422 -0.0004 -22.9643 0.0001
# 4 -0.0003 -0.0011 -0.0004 45.5042 0.0009 7.7925
# 5 -27.0507 -12.3743 -22.9643 0.0009 24.5160 -0.0001
# 6 0.0002 0.0014 0.0001 7.7925 -0.0001 49.9781
#
#
#
# Elastic Compliance Matrix: (Units=1/GPa)
#
#
# Indices 1 2 3 4 5 6 
#
# 1 0.009317 -0.004872 0.000692 0.000000 0.008470 0.000000
# 2 -0.004872 0.017186 -0.002463 0.000000 0.000992 -0.000001
# 3 0.000692 -0.002463 0.016684 0.000000 0.015149 0.000000
# 4 0.000000 0.000000 0.000000 0.022579 -0.000001 -0.003520
# 5 0.008470 0.000992 0.015149 -0.000001 0.064826 0.000000
# 6 0.000000 -0.000001 0.000000 -0.003520 0.000000 0.020558
#
#
# Mechanical properties :
#
#
# Convention : Reuss Voigt Hill
#
# Bulk Modulus (GPa) = 33.44309 56.08019 44.76164
# Shear Modulus (GPa) = 28.66937 38.61781 33.64359
#
# Velocity S-wave (km/s) = 3.50332 4.06598 3.79509
# Velocity P-wave (km/s) = 5.53907 6.78607 6.19403
#
# Compressibility (1/GPa) = 0.02990155
#
# Stress axis : x y z
#
# Youngs Moduli (GPa) = 107.32768 58.18854 59.93621
#
# Poissons Ratio (x) = 0.28351 -0.04148
# Poissons Ratio (y) = 0.52292 0.14760
# Poissons Ratio (z) = -0.07427 0.14330
#
# Static dielectric constant tensor:
#      x y z
#    x 1.997900 0.000010 -0.112560 
#    y 0.000010 2.219440 -0.000010 
#    z -0.112560 -0.000010 1.972050 
# 
# From -- ./inp_files/317106.got.cif
#   From: 2010.05.17/outbox.cif.g08.bks.cpg/sg15_159_cif.got.tgz:317106.got - 2010.06.03 18:47:42.
