data_PCOD9307365
_publ_section_title
;
Structure prediction by ZEFSAII (Michael W. Deem and Ramdas Pophale) SiO2 
 PCOD9307365
Probable space group: C 2/C
;
_chemical_formula_sum "Si O2"
_cell_formula_units_Z 40
_cell_length_a 28.717776
_cell_length_b 5.032916
_cell_length_c 16.683435
_cell_angle_alpha 90.000000
_cell_angle_beta 131.551730
_cell_angle_gamma 90.000000
_cell_volume 1804.533211
_symmetry_space_group_name_H-M "C 2/C"
_symmetry_group_IT_number 15
_symmetry_cell_setting 'monoclinic'
loop_
_space_group_symop_operation_xyz
x,y,z
-x,y,1/2-z
-x,-y,-z
x,-y,1/2+z
1/2+x,1/2+y,z
1/2-x,1/2+y,1/2-z
1/2-x,1/2-y,-z
1/2+x,1/2-y,1/2+z
loop_
_atom_site_type_symbol
_atom_site_label
_atom_site_fract_x
_atom_site_fract_y
_atom_site_fract_z
Si Si1 0.745825 0.936478 0.801865
Si Si2 0.615191 0.085838 0.244327
Si Si3 0.878996 0.874636 0.997898
Si Si4 0.933408 0.083114 0.391147
Si Si5 0.928515 0.612281 0.640293
O O1 0.744204 0.722063 0.728132
O O2 0.805034 0.864573 0.924478
O O3 0.682546 0.932124 0.780227
O O4 0.500000 0.895534 0.250000
O O5 0.612928 0.988963 0.332726
O O6 0.570806 0.880750 0.145953
O O7 0.411406 0.619024 0.797290
O O8 0.888155 0.946294 0.915283
O O9 0.909866 0.098751 0.088030
O O10 0.913635 0.401737 0.553507
O O11 0.000000 0.000000 0.500000
#
# Coordination Sequence:
#
# PCOD9307365 Si02
#       5
#     8   8   8   8   8
#     4  12  23  44  68  98 132 168 229 280 316 386
#     4  12  24  43  67  95 135 175 213 278 330 379
#     4  12  24  42  69  94 132 177 218 269 332 384
#     4  12  23  41  68  98 126 175 229 266 322 396
#     4  12  26  44  64  99 139 171 215 273 334 397
#
# _framework density 22.166395000000001
#
# number of rings (size 3 to 8) (size 9 to 14) (size 15 to 20)
#    0.000    0.000    4.000    7.200    0.000    1.600 
#    0.000    0.000    0.000    0.000    0.000    0.000 
#    0.000    0.000    0.000    0.000    0.000    0.000 
#
# Total GULP energy -112063.298177 kJ/mol
# GULP energy per Si atom -5603.164909 kJ/mol
# Density = 2.211594 g / cm^3
# Si number density = 22.166395 Si / 1000 Ang^3
#
#
#
# Elastic Constant Matrix: (Units=GPa)
#
#
# Indices 1 2 3 4 5 6 
#
# 1 53.1934 3.3504 -5.8447 -0.0004 5.0417 -0.0004
# 2 3.3504 57.9697 8.3461 -0.0140 14.0562 0.0002
# 3 -5.8447 8.3461 59.2259 -0.0055 17.5859 0.0004
# 4 -0.0004 -0.0140 -0.0055 23.1013 -0.0023 7.6077
# 5 5.0417 14.0562 17.5859 -0.0023 50.0370 0.0003
# 6 -0.0004 0.0002 0.0004 7.6077 0.0003 13.3207
#
#
#
# Elastic Compliance Matrix: (Units=1/GPa)
#
#
# Indices 1 2 3 4 5 6 
#
# 1 0.019424 -0.000875 0.002845 0.000000 -0.002711 0.000000
# 2 -0.000875 0.018626 -0.001322 0.000013 -0.004680 -0.000008
# 3 0.002845 -0.001322 0.019345 0.000004 -0.006714 -0.000003
# 4 0.000000 0.000013 0.000004 0.053315 -0.000002 -0.030449
# 5 -0.002711 -0.004680 -0.006714 -0.000002 0.023933 0.000001
# 6 0.000000 -0.000008 -0.000003 -0.030449 0.000001 0.092461
#
#
# Mechanical properties :
#
#
# Convention : Reuss Voigt Hill
#
# Bulk Modulus (GPa) = 17.03781 20.23250 18.63515
# Shear Modulus (GPa) = 20.37730 28.26094 24.31912
#
# Velocity S-wave (km/s) = 3.03527 3.57451 3.31587
# Velocity P-wave (km/s) = 4.47066 5.11699 4.80470
#
# Compressibility (1/GPa) = 0.05869300
#
# Stress axis : x y z
#
# Youngs Moduli (GPa) = 51.48257 53.68857 51.69228
#
# Poissons Ratio (x) = 0.04697 -0.14708
# Poissons Ratio (y) = 0.04504 0.06831
# Poissons Ratio (z) = -0.14648 0.07095
#
# Static dielectric constant tensor:
#      x y z
#    x 1.870690 0.000000 0.007430 
#    y 0.000000 1.778800 0.000000 
#    z 0.007430 0.000000 1.794000 
# 
# From -- ./inp_files/223330.got.cif
#   From: 2010.05.17/outbox.cif.g08.bks.cpg/sg15_112_cif.got.tgz:223330.got - 2010.06.03 18:47:42.
