data_PCOD9307452
_publ_section_title
;
Structure prediction by ZEFSAII (Michael W. Deem and Ramdas Pophale) SiO2 
 PCOD9307452
Probable space group: C 2/C
;
_chemical_formula_sum "Si O2"
_cell_formula_units_Z 40
_cell_length_a 26.072815
_cell_length_b 8.124179
_cell_length_c 8.618912
_cell_angle_alpha 90.000000
_cell_angle_beta 55.257684
_cell_angle_gamma 90.000000
_cell_volume 1500.187332
_symmetry_space_group_name_H-M "C 2/C"
_symmetry_group_IT_number 15
_symmetry_cell_setting 'monoclinic'
loop_
_space_group_symop_operation_xyz
x,y,z
-x,y,1/2-z
-x,-y,-z
x,-y,1/2+z
1/2+x,1/2+y,z
1/2-x,1/2+y,1/2-z
1/2-x,1/2-y,-z
1/2+x,1/2-y,1/2+z
loop_
_atom_site_type_symbol
_atom_site_label
_atom_site_fract_x
_atom_site_fract_y
_atom_site_fract_z
Si Si1 0.597494 0.363394 0.966438
Si Si2 0.718844 0.136865 0.269323
Si Si3 0.468315 0.844205 0.140547
Si Si4 0.857150 0.577072 0.393005
Si Si5 0.172527 0.062260 0.038464
O O1 0.538450 0.310077 0.964359
O O2 0.607852 0.519277 0.060085
O O3 0.653241 0.395302 0.745689
O O4 0.606816 0.206942 0.063112
O O5 0.663826 0.143356 0.236701
O O6 0.710586 0.291304 0.394759
O O7 0.702495 0.985138 0.410138
O O8 0.782253 0.095438 0.067708
O O9 0.500000 0.810772 0.250000
O O10 0.399450 0.915988 0.293527
O O11 0.500000 0.000000 0.000000
#
# Coordination Sequence:
#
# PCOD9307452 Si02
#       5
#     8   8   8   8   8
#     4  12  26  48  73 110 151 193 249 313 367 443
#     4  12  24  43  72 109 155 203 239 294 372 453
#     4  12  24  47  81 109 136 192 261 316 371 432
#     4  12  23  44  76 108 148 194 253 305 365 447
#     4  12  27  46  72 112 161 199 243 298 373 456
#
# _framework density 26.663336000000001
#
# number of rings (size 3 to 8) (size 9 to 14) (size 15 to 20)
#    0.000    0.000    6.000    3.600    0.000    4.800 
#    0.000    3.000    0.000    0.000    0.000    0.000 
#    0.000    0.000    0.000    0.000    0.000    0.000 
#
# Total GULP energy -112064.192469 kJ/mol
# GULP energy per Si atom -5603.209623 kJ/mol
# Density = 2.660265 g / cm^3
# Si number density = 26.663336 Si / 1000 Ang^3
#
#
#
# Elastic Constant Matrix: (Units=GPa)
#
#
# Indices 1 2 3 4 5 6 
#
# 1 105.4532 3.3706 16.7777 0.0000 41.0793 0.0000
# 2 3.3706 72.4237 20.1556 0.0000 16.8838 0.0000
# 3 16.7777 20.1556 80.4463 0.0000 20.6127 0.0000
# 4 0.0000 0.0000 0.0000 38.9028 0.0000 -7.1063
# 5 41.0793 16.8838 20.6127 0.0000 59.5659 0.0000
# 6 0.0000 0.0000 0.0000 -7.1063 0.0000 52.7343
#
#
#
# Elastic Compliance Matrix: (Units=1/GPa)
#
#
# Indices 1 2 3 4 5 6 
#
# 1 0.013185 0.001784 -0.000809 0.000000 -0.009318 0.000000
# 2 0.001784 0.015663 -0.003120 0.000000 -0.004590 0.000000
# 3 -0.000809 -0.003120 0.014278 0.000000 -0.003498 0.000000
# 4 0.000000 0.000000 0.000000 0.026354 0.000000 0.003551
# 5 -0.009318 -0.004590 -0.003498 0.000000 0.025726 0.000000
# 6 0.000000 0.000000 0.000000 0.003551 0.000000 0.019442
#
#
# Mechanical properties :
#
#
# Convention : Reuss Voigt Hill
#
# Bulk Modulus (GPa) = 25.75044 37.65900 31.70472
# Shear Modulus (GPa) = 37.91260 44.77520 41.34390
#
# Velocity S-wave (km/s) = 3.77490 4.10235 3.94202
# Velocity P-wave (km/s) = 5.35522 6.04926 5.71279
#
# Compressibility (1/GPa) = 0.03883428
#
# Stress axis : x y z
#
# Youngs Moduli (GPa) = 75.84646 63.84443 70.04009
#
# Poissons Ratio (x) = -0.11389 0.05667
# Poissons Ratio (y) = -0.13530 0.21854
# Poissons Ratio (z) = 0.06136 0.19921
#
# Static dielectric constant tensor:
#      x y z
#    x 2.198160 0.000000 -0.058750 
#    y 0.000000 2.098860 0.000000 
#    z -0.058750 0.000000 2.034980 
# 
# From -- ./inp_files/60063.got.cif
#   From: 2010.05.17/outbox.cif.g08.bks.cpg/sg15_31_cif.got.tgz:60063.got - 2010.06.03 18:47:42.
