data_PCOD9307181
_publ_section_title
;
Structure prediction by ZEFSAII (Michael W. Deem and Ramdas Pophale) SiO2 
 PCOD9307181
Probable space group: C 2/C
;
_chemical_formula_sum "Si O2"
_cell_formula_units_Z 40
_cell_length_a 14.252836
_cell_length_b 5.760833
_cell_length_c 21.151491
_cell_angle_alpha 90.000000
_cell_angle_beta 85.453829
_cell_angle_gamma 90.000000
_cell_volume 1731.246956
_symmetry_space_group_name_H-M "C 2/C"
_symmetry_group_IT_number 15
_symmetry_cell_setting 'monoclinic'
loop_
_space_group_symop_operation_xyz
x,y,z
-x,y,1/2-z
-x,-y,-z
x,-y,1/2+z
1/2+x,1/2+y,z
1/2-x,1/2+y,1/2-z
1/2-x,1/2-y,-z
1/2+x,1/2-y,1/2+z
loop_
_atom_site_type_symbol
_atom_site_label
_atom_site_fract_x
_atom_site_fract_y
_atom_site_fract_z
Si Si1 0.769235 0.840240 0.069896
Si Si2 0.617820 0.141318 0.123313
Si Si3 0.739129 0.187259 0.785445
Si Si4 0.082338 0.815762 0.985166
Si Si5 0.917642 0.497255 0.627473
O O1 0.838242 0.679011 0.106534
O O2 0.674327 0.898835 0.112366
O O3 0.828176 0.073749 0.054542
O O4 0.750000 0.750000 0.000000
O O5 0.680706 0.298752 0.165007
O O6 0.510776 0.115346 0.151523
O O7 0.613804 0.235587 0.052183
O O8 0.747212 0.440597 0.751483
O O9 0.635800 0.165767 0.821954
O O10 0.047565 0.621779 0.938536
O O11 0.000000 0.000000 0.000000
#
# Coordination Sequence:
#
# PCOD9307181 Si02
#       5
#     8   8   8   8   8
#     4  12  22  41  71 111 163 199 237 307 386 480
#     4  12  25  49  77 114 152 206 246 326 397 461
#     4  12  30  56  80 109 152 213 280 328 375 451
#     4  12  23  41  73 120 156 187 247 308 399 487
#     4  12  26  49  75 114 154 197 257 316 396 469
#
# _framework density 23.104733
#
# number of rings (size 3 to 8) (size 9 to 14) (size 15 to 20)
#    0.000    0.000    6.000    4.800    0.000    2.400 
#    0.000    6.000    0.000    0.000    0.000    0.000 
#    0.000    0.000    0.000    0.000    0.000    0.000 
#
# Total GULP energy -111929.990991 kJ/mol
# GULP energy per Si atom -5596.499550 kJ/mol
# Density = 2.305215 g / cm^3
# Si number density = 23.104733 Si / 1000 Ang^3
#
#
#
# Elastic Constant Matrix: (Units=GPa)
#
#
# Indices 1 2 3 4 5 6 
#
# 1 140.1461 36.7587 27.1290 0.0000 -3.6438 0.0000
# 2 36.7587 98.2933 44.6958 0.0000 0.7649 0.0000
# 3 27.1290 44.6958 81.4640 0.0000 -13.6315 0.0000
# 4 0.0000 0.0000 0.0000 35.6980 0.0000 -9.7548
# 5 -3.6438 0.7649 -13.6315 0.0000 14.9189 0.0000
# 6 0.0000 0.0000 0.0000 -9.7548 0.0000 50.7029
#
#
#
# Elastic Compliance Matrix: (Units=1/GPa)
#
#
# Indices 1 2 3 4 5 6 
#
# 1 0.008037 -0.002502 -0.001126 0.000000 0.001062 0.000000
# 2 -0.002502 0.015400 -0.009268 0.000000 -0.009868 0.000000
# 3 -0.001126 -0.009268 0.020976 0.000000 0.019366 0.000000
# 4 0.000000 0.000000 0.000000 0.029567 0.000000 0.005688
# 5 0.001062 -0.009868 0.019366 0.000000 0.085489 0.000000
# 6 0.000000 0.000000 0.000000 0.005688 0.000000 0.020817
#
#
# Mechanical properties :
#
#
# Convention : Reuss Voigt Hill
#
# Bulk Modulus (GPa) = 53.70020 59.67447 56.68734
# Shear Modulus (GPa) = 23.55329 34.35196 28.95262
#
# Velocity S-wave (km/s) = 3.19629 3.86008 3.54376
# Velocity P-wave (km/s) = 6.07571 6.76394 6.42904
#
# Compressibility (1/GPa) = 0.01862190
#
# Stress axis : x y z
#
# Youngs Moduli (GPa) = 124.42093 64.93439 47.67463
#
# Poissons Ratio (x) = 0.16246 0.05369
# Poissons Ratio (y) = 0.31129 0.44183
# Poissons Ratio (z) = 0.14011 0.60178
#
# Static dielectric constant tensor:
#      x y z
#    x 1.927040 0.000000 -0.025270 
#    y 0.000000 1.943250 0.000000 
#    z -0.025270 0.000000 1.895490 
# 
# From -- ./inp_files/271654.got.cif
#   From: 2010.05.17/outbox.cif.g08.bks.cpg/sg15_136_cif.got.tgz:271654.got - 2010.06.03 18:47:42.
