data_PCOD9307542
_publ_section_title
;
Structure prediction by ZEFSAII (Michael W. Deem and Ramdas Pophale) SiO2 
 PCOD9307542
Probable space group: C 2/C
;
_chemical_formula_sum "Si O2"
_cell_formula_units_Z 40
_cell_length_a 9.420002
_cell_length_b 16.419437
_cell_length_c 11.966574
_cell_angle_alpha 90.000000
_cell_angle_beta 77.454471
_cell_angle_gamma 90.000000
_cell_volume 1806.691282
_symmetry_space_group_name_H-M "C 2/C"
_symmetry_group_IT_number 15
_symmetry_cell_setting 'monoclinic'
loop_
_space_group_symop_operation_xyz
x,y,z
-x,y,1/2-z
-x,-y,-z
x,-y,1/2+z
1/2+x,1/2+y,z
1/2-x,1/2+y,1/2-z
1/2-x,1/2-y,-z
1/2+x,1/2-y,1/2+z
loop_
_atom_site_type_symbol
_atom_site_label
_atom_site_fract_x
_atom_site_fract_y
_atom_site_fract_z
Si Si1 0.500000 0.618882 0.750000
Si Si2 0.619586 0.877339 0.994168
Si Si3 0.819588 0.669857 0.426643
Si Si4 0.648541 0.476820 0.036712
Si Si5 0.702270 0.245837 0.300985
Si Si6 0.000000 0.327264 0.250000
O O1 0.390787 0.562856 0.837400
O O2 0.407264 0.677035 0.682655
O O3 0.569042 0.872769 0.131995
O O4 0.464938 0.867114 0.957649
O O5 0.702014 0.802793 0.916931
O O6 0.729547 0.953490 0.968299
O O7 0.750000 0.750000 0.500000
O O8 0.708173 0.596951 0.453551
O O9 0.846563 0.691375 0.294292
O O10 0.500000 0.500000 0.000000
O O11 0.862996 0.273484 0.237839
#
# Coordination Sequence:
#
# PCOD9307542 Si02
#       6
#     4   8   8   8   8   4
#     4  12  24  51  73 108 152 202 246 314 374 466
#     4  12  26  48  73 114 148 202 249 316 384 451
#     4  12  23  50  76 105 148 205 251 306 372 465
#     4  12  29  45  74 112 159 193 249 315 392 446
#     4  12  25  46  80 108 147 197 258 307 379 451
#     4  12  26  43  77 108 154 186 260 312 372 456
#
# _framework density 22.13992
#
# number of rings (size 3 to 8) (size 9 to 14) (size 15 to 20)
#    0.000    0.000    6.000    2.400    5.600    0.000 
#    3.600    0.000    0.000    0.000    0.000    0.000 
#    0.000    0.000    0.000    0.000    0.000    0.000 
#
# Total GULP energy -111681.042427 kJ/mol
# GULP energy per Si atom -5584.052121 kJ/mol
# Density = 2.208953 g / cm^3
# Si number density = 22.139920 Si / 1000 Ang^3
#
#
#
# Elastic Constant Matrix: (Units=GPa)
#
#
# Indices 1 2 3 4 5 6 
#
# 1 146.1675 96.1841 25.7015 0.0000 -14.6427 0.0000
# 2 96.1841 160.8816 78.6103 0.0000 -13.3507 0.0000
# 3 25.7015 78.6103 144.1051 0.0000 -22.0667 0.0000
# 4 0.0000 0.0000 0.0000 28.8953 0.0000 -7.6003
# 5 -14.6427 -13.3507 -22.0667 0.0000 42.0684 0.0000
# 6 0.0000 0.0000 0.0000 -7.6003 0.0000 107.8851
#
#
#
# Elastic Compliance Matrix: (Units=1/GPa)
#
#
# Indices 1 2 3 4 5 6 
#
# 1 0.012211 -0.008468 0.002915 0.000000 0.003092 0.000000
# 2 -0.008468 0.014351 -0.006602 0.000000 -0.001857 0.000000
# 3 0.002915 -0.006602 0.010716 0.000000 0.004541 0.000000
# 4 0.000000 0.000000 0.000000 0.035261 0.000000 0.002484
# 5 0.003092 -0.001857 0.004541 0.000000 0.026640 0.000000
# 6 0.000000 0.000000 0.000000 0.002484 0.000000 0.009444
#
#
# Mechanical properties :
#
#
# Convention : Reuss Voigt Hill
#
# Bulk Modulus (GPa) = 77.11837 94.68289 85.90063
# Shear Modulus (GPa) = 36.42825 52.48029 44.45427
#
# Velocity S-wave (km/s) = 4.06071 4.87395 4.48580
# Velocity P-wave (km/s) = 7.54279 8.63321 8.10636
#
# Compressibility (1/GPa) = 0.01296708
#
# Stress axis : x y z
#
# Youngs Moduli (GPa) = 81.89262 69.68387 93.31548
#
# Poissons Ratio (x) = 0.59010 -0.27202
# Poissons Ratio (y) = 0.69349 0.61609
# Poissons Ratio (z) = -0.23873 0.46007
#
# Static dielectric constant tensor:
#      x y z
#    x 1.950150 0.000000 0.006900 
#    y 0.000000 1.829460 0.000000 
#    z 0.006900 0.000000 1.833090 
# 
# From -- ./inp_files/76754.got.cif
#   From: 2010.05.17/outbox.cif.g08.bks.cpg/sg15_39_cif.got.tgz:76754.got - 2010.06.03 18:47:42.
