data_PCOD9307705
_publ_section_title
;
Structure prediction by ZEFSAII (Michael W. Deem and Ramdas Pophale) SiO2 
 PCOD9307705
Probable space group: C 2/C
;
_chemical_formula_sum "Si O2"
_cell_formula_units_Z 64
_cell_length_a 12.105931
_cell_length_b 15.599192
_cell_length_c 27.640059
_cell_angle_alpha 90.000000
_cell_angle_beta 35.897285
_cell_angle_gamma 90.000000
_cell_volume 3060.443182
_symmetry_space_group_name_H-M "C 2/C"
_symmetry_group_IT_number 15
_symmetry_cell_setting 'monoclinic'
loop_
_space_group_symop_operation_xyz
x,y,z
-x,y,1/2-z
-x,-y,-z
x,-y,1/2+z
1/2+x,1/2+y,z
1/2-x,1/2+y,1/2-z
1/2-x,1/2-y,-z
1/2+x,1/2-y,1/2+z
loop_
_atom_site_type_symbol
_atom_site_label
_atom_site_fract_x
_atom_site_fract_y
_atom_site_fract_z
Si Si1 0.194872 0.972683 0.405395
Si Si2 0.338780 0.712424 0.838062
Si Si3 0.782143 0.280731 0.345452
Si Si4 0.805259 0.182502 0.439116
Si Si5 0.567489 0.785436 0.591151
Si Si6 0.718514 0.621069 0.317624
Si Si7 0.021739 0.534869 0.355735
Si Si8 0.962083 0.435239 0.057335
O O1 0.219922 0.042424 0.354474
O O2 0.374219 0.979906 0.377305
O O3 0.201768 0.876067 0.383507
O O4 0.000000 0.000000 0.500000
O O5 0.500000 0.665757 0.750000
O O6 0.419144 0.748789 0.859474
O O7 0.284222 0.794913 0.824462
O O8 0.170875 0.645937 0.907161
O O9 0.779081 0.227140 0.396384
O O10 0.632920 0.238402 0.361509
O O11 0.000000 0.284376 0.250000
O O12 0.750000 0.250000 0.500000
O O13 0.665252 0.104019 0.496143
O O14 0.014829 0.147985 0.370944
O O15 0.750000 0.750000 0.500000
O O16 0.592099 0.887275 0.580379
O O17 0.840029 0.585180 0.229782
O O18 0.110604 0.481551 0.368067
O O19 0.000000 0.500000 0.000000
#
# Coordination Sequence:
#
# PCOD9307705 Si02
#       8
#     8   8   8   8   8   8   8   8
#     4  12  25  42  70 107 145 186 247 307 363 424
#     4  12  25  46  76 105 143 196 242 298 377 436
#     4  12  27  45  69 110 146 191 248 310 368 437
#     4  12  25  46  75 101 146 199 242 296 376 441
#     4  12  25  45  74 104 148 191 248 301 362 447
#     4  12  24  46  75 106 143 191 246 306 366 434
#     4  12  24  46  70 104 144 188 242 303 360 433
#     4  12  28  47  71 107 151 192 242 302 369 443
#
# _framework density 20.912004
#
# number of rings (size 3 to 8) (size 9 to 14) (size 15 to 20)
#    0.000    0.000    3.750    7.125    0.000    3.000 
#    0.000    0.625    0.000    0.000    0.000    0.000 
#    0.000    0.000    0.000    0.000    0.000    0.000 
#
# Total GULP energy -178997.326820 kJ/mol
# GULP energy per Si atom -5593.666463 kJ/mol
# Density = 2.086441 g / cm^3
# Si number density = 20.912004 Si / 1000 Ang^3
#
#
#
# Elastic Constant Matrix: (Units=GPa)
#
#
# Indices 1 2 3 4 5 6 
#
# 1 140.3326 33.2012 39.0610 -0.0001 12.4039 0.0003
# 2 33.2012 74.6739 11.3315 0.0000 27.9014 0.0005
# 3 39.0610 11.3315 105.2874 0.0005 6.9317 0.0007
# 4 -0.0001 0.0000 0.0005 38.7021 0.0002 2.8733
# 5 12.4039 27.9014 6.9317 0.0002 29.4810 -0.0003
# 6 0.0003 0.0005 0.0007 2.8733 -0.0003 41.1265
#
#
#
# Elastic Compliance Matrix: (Units=1/GPa)
#
#
# Indices 1 2 3 4 5 6 
#
# 1 0.008745 -0.003603 -0.002883 0.000000 0.000409 0.000000
# 2 -0.003603 0.022297 0.000230 0.000000 -0.019641 0.000000
# 3 -0.002883 0.000230 0.010642 0.000000 -0.001507 0.000000
# 4 0.000000 0.000000 0.000000 0.025973 0.000000 -0.001815
# 5 0.000409 -0.019641 -0.001507 0.000000 0.052691 0.000001
# 6 0.000000 0.000000 0.000000 -0.001815 0.000001 0.024442
#
#
# Mechanical properties :
#
#
# Convention : Reuss Voigt Hill
#
# Bulk Modulus (GPa) = 34.28070 54.16460 44.22265
# Shear Modulus (GPa) = 29.93531 37.64193 33.78862
#
# Velocity S-wave (km/s) = 3.78761 4.24726 4.02400
# Velocity P-wave (km/s) = 5.96292 7.07176 6.54088
#
# Compressibility (1/GPa) = 0.02917094
#
# Stress axis : x y z
#
# Youngs Moduli (GPa) = 114.35246 44.84843 93.96752
#
# Poissons Ratio (x) = 0.16160 0.27095
# Poissons Ratio (y) = 0.41205 -0.02163
# Poissons Ratio (z) = 0.32973 -0.01032
#
# Static dielectric constant tensor:
#      x y z
#    x 1.681450 0.000010 -0.021390 
#    y 0.000010 1.670990 0.000000 
#    z -0.021390 0.000000 1.777730 
# 
# From -- ./inp_files/293041.got.cif
#   From: 2010.05.17/outbox.cif.g08.bks.cpg/sg15_147_cif.got.tgz:293041.got - 2010.06.03 18:47:42.
