data_PCOD9307084
_publ_section_title
;
Structure prediction by ZEFSAII (Michael W. Deem and Ramdas Pophale) SiO2 
 PCOD9307084
Probable space group: C 2/C
;
_chemical_formula_sum "Si O2"
_cell_formula_units_Z 32
_cell_length_a 15.309962
_cell_length_b 16.070834
_cell_length_c 11.349586
_cell_angle_alpha 90.000000
_cell_angle_beta 27.051233
_cell_angle_gamma 90.000000
_cell_volume 1269.990962
_symmetry_space_group_name_H-M "C 2/C"
_symmetry_group_IT_number 15
_symmetry_cell_setting 'monoclinic'
loop_
_space_group_symop_operation_xyz
x,y,z
-x,y,1/2-z
-x,-y,-z
x,-y,1/2+z
1/2+x,1/2+y,z
1/2-x,1/2+y,1/2-z
1/2-x,1/2-y,-z
1/2+x,1/2-y,1/2+z
loop_
_atom_site_type_symbol
_atom_site_label
_atom_site_fract_x
_atom_site_fract_y
_atom_site_fract_z
Si Si1 0.633037 0.924559 0.381675
Si Si2 0.808239 0.297890 0.812193
Si Si3 0.505331 0.364740 0.482371
Si Si4 0.784765 0.651529 0.965147
O O1 0.485426 0.859612 0.616567
O O2 0.724397 0.888563 0.151832
O O3 0.500000 0.000000 0.500000
O O4 0.821450 0.930629 0.237432
O O5 0.634291 0.347959 0.961009
O O6 0.887194 0.225013 0.631683
O O7 0.750000 0.250000 0.000000
O O8 0.365716 0.381285 0.758939
O O9 0.000000 0.635475 0.750000
O O10 0.750000 0.750000 0.000000
#
# Coordination Sequence:
#
# PCOD9307084 Si02
#       4
#     8   8   8   8
#     4  12  28  48  75 119 160 199 269 346 416 473
#     4  12  25  46  75 116 154 212 272 328 402 496
#     4  12  23  45  80 108 153 211 272 325 393 489
#     4  12  21  44  79 109 145 203 271 327 388 488
#
# _framework density 25.197030000000002
#
# number of rings (size 3 to 8) (size 9 to 14) (size 15 to 20)
#    0.000    0.000    7.500    3.000    0.000    1.000 
#    4.500    2.500    0.000    0.000    0.000    0.000 
#    0.000    0.000    0.000    0.000    0.000    0.000 
#
# Total GULP energy -89693.501543 kJ/mol
# GULP energy per Si atom -5605.843846 kJ/mol
# Density = 2.513968 g / cm^3
# Si number density = 25.197030 Si / 1000 Ang^3
#
#
#
# Elastic Constant Matrix: (Units=GPa)
#
#
# Indices 1 2 3 4 5 6 
#
# 1 155.3511 26.8279 95.4252 0.0005 -33.6842 0.0024
# 2 26.8279 100.8796 74.7127 0.0002 -1.0067 0.0023
# 3 95.4252 74.7127 209.0019 0.0020 -21.6216 -0.0011
# 4 0.0005 0.0002 0.0020 33.9967 -0.0016 -17.0490
# 5 -33.6842 -1.0067 -21.6216 -0.0016 69.9535 -0.0006
# 6 0.0024 0.0023 -0.0011 -17.0490 -0.0006 35.7691
#
#
#
# Elastic Compliance Matrix: (Units=1/GPa)
#
#
# Indices 1 2 3 4 5 6 
#
# 1 0.009701 0.000649 -0.004315 0.000000 0.003347 -0.000001
# 2 0.000649 0.013648 -0.005292 0.000000 -0.001127 -0.000001
# 3 -0.004315 -0.005292 0.008702 0.000000 0.000536 0.000001
# 4 0.000000 0.000000 0.000000 0.038654 0.000001 0.018424
# 5 0.003347 -0.001127 0.000536 0.000001 0.016056 0.000001
# 6 -0.000001 -0.000001 0.000001 0.018424 0.000001 0.036739
#
#
# Mechanical properties :
#
#
# Convention : Reuss Voigt Hill
#
# Bulk Modulus (GPa) = 70.74206 95.46269 83.10237
# Shear Modulus (GPa) = 34.21659 45.82831 40.02245
#
# Velocity S-wave (km/s) = 3.68905 4.26936 3.98977
# Velocity P-wave (km/s) = 6.80308 7.89126 7.36729
#
# Compressibility (1/GPa) = 0.01413586
#
# Stress axis : x y z
#
# Youngs Moduli (GPa) = 103.07953 73.27032 114.91618
#
# Poissons Ratio (x) = -0.04758 0.49589
# Poissons Ratio (y) = -0.06694 0.60812
# Poissons Ratio (z) = 0.44481 0.38774
#
# Static dielectric constant tensor:
#      x y z
#    x 2.123650 0.000000 -0.024840 
#    y 0.000000 2.068090 0.000000 
#    z -0.024840 0.000000 1.951160 
# 
# From -- ./inp_files/105607.got.cif
#   From: 2010.05.17/outbox.cif.g08.bks.cpg/sg15_53_cif.got.tgz:105607.got - 2010.06.03 18:47:42.
