data_PCOD9307264
_publ_section_title
;
Structure prediction by ZEFSAII (Michael W. Deem and Ramdas Pophale) SiO2 
 PCOD9307264
Probable space group: C 2/C
;
_chemical_formula_sum "Si O2"
_cell_formula_units_Z 60
_cell_length_a 22.085959
_cell_length_b 5.096872
_cell_length_c 22.827101
_cell_angle_alpha 90.000000
_cell_angle_beta 93.986616
_cell_angle_gamma 90.000000
_cell_volume 2563.413228
_symmetry_space_group_name_H-M "C 2/C"
_symmetry_group_IT_number 15
_symmetry_cell_setting 'monoclinic'
loop_
_space_group_symop_operation_xyz
x,y,z
-x,y,1/2-z
-x,-y,-z
x,-y,1/2+z
1/2+x,1/2+y,z
1/2-x,1/2+y,1/2-z
1/2-x,1/2-y,-z
1/2+x,1/2-y,1/2+z
loop_
_atom_site_type_symbol
_atom_site_label
_atom_site_fract_x
_atom_site_fract_y
_atom_site_fract_z
Si Si1 0.654951 0.597041 0.934019
Si Si2 0.399201 0.094356 0.632656
Si Si3 0.000000 0.952868 0.250000
Si Si4 0.769076 0.669260 0.280219
Si Si5 0.634028 0.572175 0.065383
Si Si6 0.034758 0.296117 0.141733
Si Si7 0.893901 0.412492 0.756637
Si Si8 0.715188 0.061011 0.089390
O O1 0.621573 0.358524 0.900177
O O2 0.725832 0.510169 0.945372
O O3 0.642148 0.856359 0.894788
O O4 0.628321 0.642068 0.996705
O O5 0.471147 0.063074 0.621203
O O6 0.387644 0.114155 0.702110
O O7 0.944160 0.770600 0.232214
O O8 0.985272 0.113297 0.306204
O O9 0.771032 0.371422 0.257865
O O10 0.836480 0.762025 0.268950
O O11 0.757459 0.663474 0.347635
O O12 0.571319 0.629209 0.095706
O O13 0.665779 0.284123 0.069082
O O14 0.680810 0.785404 0.095033
O O15 0.081396 0.484324 0.179598
#
# Coordination Sequence:
#
# PCOD9307264 Si02
#       8
#     8   8   4   8   8   8   8   8
#     4  12  27  47  72 104 144 192 244 303 360 423
#     4  12  25  45  70 104 145 190 237 304 367 422
#     4  12  22  44  72 104 136 188 242 286 350 428
#     4  12  26  42  68 108 146 178 223 295 365 422
#     4  12  27  47  75 104 140 193 250 296 354 432
#     4  12  26  43  74 106 143 192 244 295 362 440
#     4  12  24  44  70 104 141 188 237 288 356 442
#     4  12  24  48  72 103 140 194 245 294 358 435
#
# _framework density 23.406292000000001
#
# number of rings (size 3 to 8) (size 9 to 14) (size 15 to 20)
#    0.000    0.000    4.000    6.400    1.867    1.067 
#    0.000    0.000    0.000    0.000    0.000    0.000 
#    0.000    0.000    0.000    0.000    0.000    0.000 
#
# Total GULP energy -167741.131836 kJ/mol
# GULP energy per Si atom -5591.371061 kJ/mol
# Density = 2.335302 g / cm^3
# Si number density = 23.406292 Si / 1000 Ang^3
#
#
#
# Elastic Constant Matrix: (Units=GPa)
#
#
# Indices 1 2 3 4 5 6 
#
# 1 99.3663 12.6908 25.5742 0.0000 -33.1455 0.0000
# 2 12.6908 87.1362 -2.7383 0.0000 -1.1516 0.0000
# 3 25.5742 -2.7383 37.0277 0.0000 -24.8394 0.0000
# 4 0.0000 0.0000 0.0000 29.7467 0.0000 17.9837
# 5 -33.1455 -1.1516 -24.8394 0.0000 39.9747 0.0000
# 6 0.0000 0.0000 0.0000 17.9837 0.0000 -91.5150
#
#
#
# Elastic Compliance Matrix: (Units=1/GPa)
#
#
# Indices 1 2 3 4 5 6 
#
# 1 0.014509 -0.002101 -0.003681 0.000000 0.009683 0.000000
# 2 -0.002101 0.011858 0.002381 0.000000 0.000079 0.000000
# 3 -0.003681 0.002381 0.047541 0.000000 0.026557 0.000000
# 4 0.000000 0.000000 0.000000 0.030047 0.000000 0.005905
# 5 0.009683 0.000079 0.026557 0.000000 0.049549 0.000000
# 6 0.000000 0.000000 0.000000 0.005905 0.000000 -0.009767
#
#
# Mechanical properties :
#
#
# Convention : Reuss Voigt Hill
#
# Bulk Modulus (GPa) = 14.90171 32.73150 23.81661
# Shear Modulus (GPa) = 28.91704 8.17484 18.54594
#
# Velocity S-wave (km/s) = 3.51869 1.87087 2.81792
# Velocity P-wave (km/s) = 4.78421 4.32219 4.55905
#
# Compressibility (1/GPa) = 0.06710639
#
# Stress axis : x y z
#
# Youngs Moduli (GPa) = 68.92096 84.33019 21.03455
#
# Poissons Ratio (x) = 0.17717 0.07743
# Poissons Ratio (y) = 0.14480 -0.05009
# Poissons Ratio (z) = 0.25371 -0.20080
#
# Static dielectric constant tensor:
#      x y z
#    x 1.896310 0.000000 0.014880 
#    y 0.000000 1.905470 0.000000 
#    z 0.014880 0.000000 1.887230 
# 
# From -- ./inp_files/278952.got.cif
#   From: 2010.05.17/outbox.cif.g08.bks.cpg/sg15_140_cif.got.tgz:278952.got - 2010.06.03 18:47:42.
