data_PCOD9307376
_publ_section_title
;
Structure prediction by ZEFSAII (Michael W. Deem and Ramdas Pophale) SiO2 
 PCOD9307376
Probable space group: C 2/C
;
_chemical_formula_sum "Si O2"
_cell_formula_units_Z 56
_cell_length_a 19.057440
_cell_length_b 5.047275
_cell_length_c 28.562240
_cell_angle_alpha 90.000000
_cell_angle_beta 79.431827
_cell_angle_gamma 90.000000
_cell_volume 2700.746520
_symmetry_space_group_name_H-M "C 2/C"
_symmetry_group_IT_number 15
_symmetry_cell_setting 'monoclinic'
loop_
_space_group_symop_operation_xyz
x,y,z
-x,y,1/2-z
-x,-y,-z
x,-y,1/2+z
1/2+x,1/2+y,z
1/2-x,1/2+y,1/2-z
1/2-x,1/2-y,-z
1/2+x,1/2-y,1/2+z
loop_
_atom_site_type_symbol
_atom_site_label
_atom_site_fract_x
_atom_site_fract_y
_atom_site_fract_z
Si Si1 0.487718 0.751579 0.643084
Si Si2 0.452202 0.249959 0.710485
Si Si3 0.334798 0.197831 0.982267
Si Si4 0.714228 0.836417 0.379315
Si Si5 0.711363 0.330181 0.771774
Si Si6 0.859109 0.804629 0.418423
Si Si7 0.869714 0.161655 0.580682
O O1 0.477396 0.513888 0.680955
O O2 0.569437 0.770213 0.617579
O O3 0.440258 0.693833 0.602975
O O4 0.460101 0.013754 0.672285
O O5 0.500000 0.196383 0.750000
O O6 0.369767 0.288948 0.734532
O O7 0.362866 0.403892 0.940261
O O8 0.345575 0.903544 0.961796
O O9 0.250000 0.250000 0.000000
O O10 0.374197 0.253327 0.026252
O O11 0.714472 0.753887 0.325423
O O12 0.791179 0.798028 0.392793
O O13 0.659674 0.636011 0.411563
O O14 0.687965 0.135919 0.389798
O O15 0.736673 0.630471 0.762004
#
# Coordination Sequence:
#
# PCOD9307376 Si02
#       7
#     8   8   8   8   8   8   8
#     4  12  26  48  65  99 136 176 216 265 336 396
#     4  12  27  47  69  96 137 175 212 273 335 388
#     4  12  23  42  67 102 131 170 224 276 323 375
#     4  12  23  43  67  97 131 177 217 266 325 388
#     4  12  26  43  70 102 129 168 224 271 321 391
#     4  12  26  41  69 100 132 173 225 269 321 393
#     4  12  23  43  71  90 136 178 212 268 330 389
#
# _framework density 20.735009000000002
#
# number of rings (size 3 to 8) (size 9 to 14) (size 15 to 20)
#    0.000    0.000    5.714    4.286    4.000    1.143 
#    0.000    0.000    0.000    0.000    0.000    0.000 
#    0.000    0.000    0.000    0.000    0.000    0.000 
#
# Total GULP energy -156850.495448 kJ/mol
# GULP energy per Si atom -5601.803409 kJ/mol
# Density = 2.068782 g / cm^3
# Si number density = 20.735009 Si / 1000 Ang^3
#
#
#
# Elastic Constant Matrix: (Units=GPa)
#
#
# Indices 1 2 3 4 5 6 
#
# 1 342.2374 70.5511 -47.8047 0.0016 56.9726 -0.0001
# 2 70.5511 84.9696 -33.8053 0.0005 -1.5871 -0.0001
# 3 -47.8047 -33.8053 53.2293 -0.0005 7.6971 0.0000
# 4 0.0016 0.0005 -0.0005 80.6995 0.0001 -2.4050
# 5 56.9726 -1.5871 7.6971 0.0001 46.2640 0.0000
# 6 -0.0001 -0.0001 0.0000 -2.4050 0.0000 21.6332
#
#
#
# Elastic Compliance Matrix: (Units=1/GPa)
#
#
# Indices 1 2 3 4 5 6 
#
# 1 0.005292 -0.002971 0.003917 0.000000 -0.007270 0.000000
# 2 -0.002971 0.017476 0.008007 0.000000 0.002927 0.000000
# 3 0.003917 0.008007 0.028739 0.000000 -0.009330 0.000000
# 4 0.000000 0.000000 0.000000 0.012433 0.000000 0.001382
# 5 -0.007270 0.002927 -0.009330 0.000000 0.032221 0.000000
# 6 0.000000 0.000000 0.000000 0.001382 0.000000 0.046379
#
#
# Mechanical properties :
#
#
# Convention : Reuss Voigt Hill
#
# Bulk Modulus (GPa) = 14.40658 50.92428 32.66543
# Shear Modulus (GPa) = 33.83587 62.48568 48.16077
#
# Velocity S-wave (km/s) = 4.04397 5.49552 4.82465
# Velocity P-wave (km/s) = 5.36357 8.05485 6.84282
#
# Compressibility (1/GPa) = 0.06941274
#
# Stress axis : x y z
#
# Youngs Moduli (GPa) = 188.96727 57.21975 34.79613
#
# Poissons Ratio (x) = 0.17002 -0.13629
# Poissons Ratio (y) = 0.56150 -0.27862
# Poissons Ratio (z) = -0.74015 -0.45818
#
# Static dielectric constant tensor:
#      x y z
#    x 1.696480 0.000000 0.008860 
#    y 0.000000 1.694930 0.000000 
#    z 0.008860 0.000000 1.708990 
# 
# From -- ./inp_files/297714.got.cif
#   From: 2010.05.17/outbox.cif.g08.bks.cpg/sg15_149_cif.got.tgz:297714.got - 2010.06.03 18:47:42.
