data_PCOD9307723
_publ_section_title
;
Structure prediction by ZEFSAII (Michael W. Deem and Ramdas Pophale) SiO2 
 PCOD9307723
Probable space group: C 2/C
;
_chemical_formula_sum "Si O2"
_cell_formula_units_Z 40
_cell_length_a 16.066071
_cell_length_b 10.568891
_cell_length_c 9.205043
_cell_angle_alpha 90.000000
_cell_angle_beta 100.728202
_cell_angle_gamma 90.000000
_cell_volume 1535.701795
_symmetry_space_group_name_H-M "C 2/C"
_symmetry_group_IT_number 15
_symmetry_cell_setting 'monoclinic'
loop_
_space_group_symop_operation_xyz
x,y,z
-x,y,1/2-z
-x,-y,-z
x,-y,1/2+z
1/2+x,1/2+y,z
1/2-x,1/2+y,1/2-z
1/2-x,1/2-y,-z
1/2+x,1/2-y,1/2+z
loop_
_atom_site_type_symbol
_atom_site_label
_atom_site_fract_x
_atom_site_fract_y
_atom_site_fract_z
Si Si1 0.780733 0.405286 0.130213
Si Si2 0.978337 0.248708 0.410362
Si Si3 0.376243 0.276992 0.331042
Si Si4 0.106251 0.511646 0.092040
Si Si5 0.322296 0.642047 0.512439
O O1 0.718969 0.285313 0.133255
O O2 0.816809 0.440078 0.299938
O O3 0.859901 0.421497 0.045173
O O4 0.718020 0.512140 0.050463
O O5 0.960896 0.397470 0.444996
O O6 0.891005 0.180896 0.416221
O O7 0.000000 0.242997 0.250000
O O8 0.052214 0.186671 0.530658
O O9 0.403213 0.132549 0.304133
O O10 0.370586 0.356613 0.182534
O O11 0.250000 0.750000 0.500000
#
# Coordination Sequence:
#
# PCOD9307723 Si02
#       5
#     8   8   8   8   8
#     4  12  25  44  78 108 149 199 260 306 375 453
#     4  12  28  46  75 115 156 193 251 320 388 446
#     4  12  26  45  74 112 150 199 249 321 382 440
#     4  12  24  46  75 108 152 197 257 308 373 459
#     4  12  24  49  75 107 153 209 253 308 377 465
#
# _framework density 26.046721999999999
#
# number of rings (size 3 to 8) (size 9 to 14) (size 15 to 20)
#    0.000    0.000    6.000    3.000    2.800    2.400 
#    0.000    0.000    0.000    0.000    0.000    0.000 
#    0.000    0.000    0.000    0.000    0.000    0.000 
#
# Total GULP energy -111987.578434 kJ/mol
# GULP energy per Si atom -5599.378922 kJ/mol
# Density = 2.598744 g / cm^3
# Si number density = 26.046722 Si / 1000 Ang^3
#
#
#
# Elastic Constant Matrix: (Units=GPa)
#
#
# Indices 1 2 3 4 5 6 
#
# 1 127.3263 2.4500 36.4472 0.0000 -19.6210 0.0000
# 2 2.4500 30.0421 10.3991 0.0000 2.3620 0.0000
# 3 36.4472 10.3991 134.9106 0.0000 -3.6674 0.0000
# 4 0.0000 0.0000 0.0000 35.1452 0.0000 15.4959
# 5 -19.6210 2.3620 -3.6674 0.0000 57.1035 0.0000
# 6 0.0000 0.0000 0.0000 15.4959 0.0000 53.2918
#
#
#
# Elastic Compliance Matrix: (Units=1/GPa)
#
#
# Indices 1 2 3 4 5 6 
#
# 1 0.008978 -0.000156 -0.002334 0.000000 0.002941 0.000000
# 2 -0.000156 0.034346 -0.002650 0.000000 -0.001644 0.000000
# 3 -0.002334 -0.002650 0.008243 0.000000 -0.000163 0.000000
# 4 0.000000 0.000000 0.000000 0.032638 0.000000 -0.009490
# 5 0.002941 -0.001644 -0.000163 0.000000 0.018580 0.000000
# 6 0.000000 0.000000 0.000000 -0.009490 0.000000 0.021524
#
#
# Mechanical properties :
#
#
# Convention : Reuss Voigt Hill
#
# Bulk Modulus (GPa) = 24.22013 43.43019 33.82516
# Shear Modulus (GPa) = 33.70407 45.30694 39.50550
#
# Velocity S-wave (km/s) = 3.60110 4.17519 3.89873
# Velocity P-wave (km/s) = 5.15844 6.32085 5.76900
#
# Compressibility (1/GPa) = 0.04128796
#
# Stress axis : x y z
#
# Youngs Moduli (GPa) = 111.38220 29.11555 121.32113
#
# Poissons Ratio (x) = 0.00453 0.28311
# Poissons Ratio (y) = 0.01734 0.32151
# Poissons Ratio (z) = 0.25992 0.07716
#
# Static dielectric constant tensor:
#      x y z
#    x 2.155900 0.000000 -0.011380 
#    y 0.000000 2.023170 0.000000 
#    z -0.011380 0.000000 2.184910 
# 
# From -- ./inp_files/46260.got.cif
#   From: 2010.05.17/outbox.cif.g08.bks.cpg/sg15_24_cif.got.tgz:46260.got - 2010.06.03 18:47:42.
