data_PCOD9307771
_publ_section_title
;
Structure prediction by ZEFSAII (Michael W. Deem and Ramdas Pophale) SiO2 
 PCOD9307771
Probable space group: C 2/C
;
_chemical_formula_sum "Si O2"
_cell_formula_units_Z 24
_cell_length_a 11.385002
_cell_length_b 17.884262
_cell_length_c 5.187315
_cell_angle_alpha 90.000000
_cell_angle_beta 64.705807
_cell_angle_gamma 90.000000
_cell_volume 954.939035
_symmetry_space_group_name_H-M "C 2/C"
_symmetry_group_IT_number 15
_symmetry_cell_setting 'monoclinic'
loop_
_space_group_symop_operation_xyz
x,y,z
-x,y,1/2-z
-x,-y,-z
x,-y,1/2+z
1/2+x,1/2+y,z
1/2-x,1/2+y,1/2-z
1/2-x,1/2-y,-z
1/2+x,1/2-y,1/2+z
loop_
_atom_site_type_symbol
_atom_site_label
_atom_site_fract_x
_atom_site_fract_y
_atom_site_fract_z
Si Si1 0.500000 0.414051 0.250000
Si Si2 0.364674 0.206895 0.535339
Si Si3 0.289649 0.039009 0.510198
Si Si4 0.500000 0.691511 0.250000
O O1 0.367191 0.460366 0.372645
O O2 0.508918 0.361903 0.494620
O O3 0.500000 0.212217 0.250000
O O4 0.250000 0.250000 0.500000
O O5 0.328781 0.120097 0.577421
O O6 0.387260 0.250416 0.780888
O O7 0.336076 0.020532 0.178794
#
# Coordination Sequence:
#
# PCOD9307771 Si02
#       4
#     4   8   8   4
#     4  12  24  47  78 111 152 198 260 322 374 451
#     4  12  28  50  81 114 154 202 261 319 381 459
#     4  12  28  47  74 111 159 202 251 312 389 458
#     4  12  24  47  82 111 148 194 268 318 378 437
#
# _framework density 25.132497000000001
#
# number of rings (size 3 to 8) (size 9 to 14) (size 15 to 20)
#    0.000    0.000    5.000    3.000    4.667    4.000 
#    0.000    0.000    0.000    0.000    0.000    0.000 
#    0.000    0.000    0.000    0.000    0.000    0.000 
#
# Total GULP energy -67245.614719 kJ/mol
# GULP energy per Si atom -5603.801227 kJ/mol
# Density = 2.507529 g / cm^3
# Si number density = 25.132497 Si / 1000 Ang^3
#
#
#
# Elastic Constant Matrix: (Units=GPa)
#
#
# Indices 1 2 3 4 5 6 
#
# 1 120.4762 20.7053 55.9124 0.0000 25.9841 0.0000
# 2 20.7053 93.4705 20.8891 0.0000 36.6302 0.0000
# 3 55.9124 20.8891 116.6469 0.0000 38.1715 0.0000
# 4 0.0000 0.0000 0.0000 7.6703 0.0000 29.1559
# 5 25.9841 36.6302 38.1715 0.0000 67.1937 0.0000
# 6 0.0000 0.0000 0.0000 29.1559 0.0000 52.2827
#
#
#
# Elastic Compliance Matrix: (Units=1/GPa)
#
#
# Indices 1 2 3 4 5 6 
#
# 1 0.010867 -0.000962 -0.004708 0.000000 -0.001003 0.000000
# 2 -0.000962 0.013690 0.000405 0.000000 -0.007321 0.000000
# 3 -0.004708 0.000405 0.012571 0.000000 -0.005541 0.000000
# 4 0.000000 0.000000 0.000000 -0.116431 0.000000 0.064929
# 5 -0.001003 -0.007321 -0.005541 0.000000 0.022409 0.000000
# 6 0.000000 0.000000 0.000000 0.064929 0.000000 -0.017081
#
#
# Mechanical properties :
#
#
# Convention : Reuss Voigt Hill
#
# Bulk Modulus (GPa) = 37.59689 58.40080 47.99885
# Shear Modulus (GPa) = -91.61002 40.96846 -25.32078
#
# Velocity S-wave (km/s) = -6.04400 4.04183 -3.17754
# Velocity P-wave (km/s) = 5.80643 6.71338 2.38273
#
# Compressibility (1/GPa) = 0.02659794
#
# Stress axis : x y z
#
# Youngs Moduli (GPa) = 92.01954 73.04474 79.55119
#
# Poissons Ratio (x) = 0.07026 0.37456
# Poissons Ratio (y) = 0.08851 -0.03224
# Poissons Ratio (z) = 0.43327 -0.02960
#
# Static dielectric constant tensor:
#      x y z
#    x 2.074910 0.000000 0.040130 
#    y 0.000000 1.942910 0.000000 
#    z 0.040130 0.000000 2.104940 
# 
# From -- ./inp_files/3236.got.cif
#   From: 2010.05.17/outbox.cif.g08.bks.cpg/sg15_2_cif.got.tgz:3236.got - 2010.06.03 18:47:42.
