data_PCOD9307798
_publ_section_title
;
Structure prediction by ZEFSAII (Michael W. Deem and Ramdas Pophale) SiO2 
 PCOD9307798
Probable space group: C 2/C
;
_chemical_formula_sum "Si O2"
_cell_formula_units_Z 36
_cell_length_a 25.285367
_cell_length_b 6.716712
_cell_length_c 13.610382
_cell_angle_alpha 90.000000
_cell_angle_beta 141.144146
_cell_angle_gamma 90.000000
_cell_volume 1450.158162
_symmetry_space_group_name_H-M "C 2/C"
_symmetry_group_IT_number 15
_symmetry_cell_setting 'monoclinic'
loop_
_space_group_symop_operation_xyz
x,y,z
-x,y,1/2-z
-x,-y,-z
x,-y,1/2+z
1/2+x,1/2+y,z
1/2-x,1/2+y,1/2-z
1/2-x,1/2-y,-z
1/2+x,1/2-y,1/2+z
loop_
_atom_site_type_symbol
_atom_site_label
_atom_site_fract_x
_atom_site_fract_y
_atom_site_fract_z
Si Si1 0.867639 0.930538 0.479630
Si Si2 0.179243 0.912127 0.375596
Si Si3 0.500000 0.858615 0.250000
Si Si4 0.804032 0.754316 0.751995
Si Si5 0.578571 0.057767 0.180455
O O1 0.782758 0.813988 0.323779
O O2 0.946045 0.782606 0.599031
O O3 0.852740 0.991213 0.570803
O O4 0.867942 0.134285 0.418337
O O5 0.250000 0.750000 0.500000
O O6 0.103255 0.789060 0.215893
O O7 0.214824 0.082296 0.357728
O O8 0.558973 0.989773 0.264054
O O9 0.845943 0.569171 0.758015
O O10 0.500000 0.000000 0.000000
#
# Coordination Sequence:
#
# PCOD9307798 Si02
#       5
#     8   8   4   8   8
#     4  12  27  46  79 107 148 196 243 305 366 441
#     4  12  24  48  76 103 142 195 243 298 363 431
#     4  12  28  48  74 114 148 192 252 302 370 432
#     4  12  27  51  73 110 149 192 249 297 370 442
#     4  12  29  47  75 109 151 193 243 309 365 435
#
# _framework density 24.824878999999999
#
# number of rings (size 3 to 8) (size 9 to 14) (size 15 to 20)
#    0.000    0.000    4.444    4.667    9.333    1.778 
#    0.000    0.000    0.000    0.000    0.000    0.000 
#    0.000    0.000    0.000    0.000    0.000    0.000 
#
# Total GULP energy -100979.679165 kJ/mol
# GULP energy per Si atom -5609.982176 kJ/mol
# Density = 2.476838 g / cm^3
# Si number density = 24.824879 Si / 1000 Ang^3
#
#
#
# Elastic Constant Matrix: (Units=GPa)
#
#
# Indices 1 2 3 4 5 6 
#
# 1 74.8551 20.6762 -5.5451 0.0000 -8.4468 0.0000
# 2 20.6762 88.6208 4.7175 0.0000 -0.6437 0.0000
# 3 -5.5451 4.7175 69.7051 0.0000 5.7137 0.0000
# 4 0.0000 0.0000 0.0000 57.6472 0.0000 -6.5548
# 5 -8.4468 -0.6437 5.7137 0.0000 43.6465 0.0000
# 6 0.0000 0.0000 0.0000 -6.5548 0.0000 31.8329
#
#
#
# Elastic Compliance Matrix: (Units=1/GPa)
#
#
# Indices 1 2 3 4 5 6 
#
# 1 0.014705 -0.003475 0.001189 0.000000 0.002639 0.000000
# 2 -0.003475 0.012149 -0.001070 0.000000 -0.000353 0.000000
# 3 0.001189 -0.001070 0.014653 0.000000 -0.001704 0.000000
# 4 0.000000 0.000000 0.000000 0.017763 0.000000 0.003658
# 5 0.002639 -0.000353 -0.001704 0.000000 0.023640 0.000000
# 6 0.000000 0.000000 0.000000 0.003658 0.000000 0.032167
#
#
# Mechanical properties :
#
#
# Convention : Reuss Voigt Hill
#
# Bulk Modulus (GPa) = 28.73991 30.31978 29.52985
# Shear Modulus (GPa) = 37.48497 40.84747 39.16622
#
# Velocity S-wave (km/s) = 3.89006 4.06078 3.97634
# Velocity P-wave (km/s) = 5.63728 5.85035 5.74480
#
# Compressibility (1/GPa) = 0.03479482
#
# Stress axis : x y z
#
# Youngs Moduli (GPa) = 68.00502 82.31036 68.24645
#
# Poissons Ratio (x) = 0.28602 -0.08112
# Poissons Ratio (y) = 0.23631 0.07300
# Poissons Ratio (z) = -0.08083 0.08805
#
# Static dielectric constant tensor:
#      x y z
#    x 1.953210 0.000000 0.024140 
#    y 0.000000 1.904420 0.000000 
#    z 0.024140 0.000000 2.033000 
# 
# From -- ./inp_files/179926.got.cif
#   From: 2010.05.17/outbox.cif.g08.bks.cpg/sg15_90_cif.got.tgz:179926.got - 2010.06.03 18:47:42.
