data_PCOD9307905
_publ_section_title
;
Structure prediction by ZEFSAII (Michael W. Deem and Ramdas Pophale) SiO2 
 PCOD9307905
Probable space group: C 2/C
;
_chemical_formula_sum "Si O2"
_cell_formula_units_Z 56
_cell_length_a 19.456486
_cell_length_b 14.076031
_cell_length_c 16.314834
_cell_angle_alpha 90.000000
_cell_angle_beta 148.271316
_cell_angle_gamma 90.000000
_cell_volume 2349.786522
_symmetry_space_group_name_H-M "C 2/C"
_symmetry_group_IT_number 15
_symmetry_cell_setting 'monoclinic'
loop_
_space_group_symop_operation_xyz
x,y,z
-x,y,1/2-z
-x,-y,-z
x,-y,1/2+z
1/2+x,1/2+y,z
1/2-x,1/2+y,1/2-z
1/2-x,1/2-y,-z
1/2+x,1/2-y,1/2+z
loop_
_atom_site_type_symbol
_atom_site_label
_atom_site_fract_x
_atom_site_fract_y
_atom_site_fract_z
Si Si1 0.017383 0.702594 0.635587
Si Si2 0.001563 0.370451 0.564847
Si Si3 0.551885 0.701376 0.716861
Si Si4 0.712376 0.937120 0.024179
Si Si5 0.837622 0.480483 0.195957
Si Si6 0.723137 0.359536 0.835545
Si Si7 0.609422 0.443773 0.558256
O O1 0.039235 0.672033 0.563013
O O2 0.095124 0.618024 0.759466
O O3 0.096497 0.798572 0.733128
O O4 0.860584 0.696882 0.487122
O O5 0.880515 0.393486 0.501017
O O6 0.086879 0.287688 0.693392
O O7 0.080185 0.468183 0.649377
O O8 0.500000 0.740691 0.750000
O O9 0.669235 0.634453 0.861019
O O10 0.453090 0.634056 0.565693
O O11 0.761045 0.041014 0.101822
O O12 0.653868 0.954203 0.875482
O O13 0.692741 0.482785 0.087053
O O14 0.697410 0.388931 0.714859
O O15 0.500000 0.500000 0.500000
#
# Coordination Sequence:
#
# PCOD9307905 Si02
#       7
#     8   8   8   8   8   8   8
#     4  12  28  46  77 106 142 199 258 305 365 437
#     4  12  26  44  73 107 147 191 239 297 370 447
#     4  12  26  43  71 112 146 187 235 295 371 447
#     4  12  27  47  74 104 153 191 239 305 374 438
#     4  12  26  48  72 105 146 194 242 304 372 440
#     4  12  27  49  72 110 144 197 254 309 367 433
#     4  12  25  44  73 106 148 190 244 306 366 436
#
# _framework density 23.831952999999999
#
# number of rings (size 3 to 8) (size 9 to 14) (size 15 to 20)
#    0.000    0.000    7.143    2.571    6.000    1.714 
#    0.000    0.000    0.000    0.000    0.000    0.000 
#    0.000    0.000    0.000    0.000    0.000    0.000 
#
# Total GULP energy -156739.646052 kJ/mol
# GULP energy per Si atom -5597.844502 kJ/mol
# Density = 2.377771 g / cm^3
# Si number density = 23.831953 Si / 1000 Ang^3
#
#
#
# Elastic Constant Matrix: (Units=GPa)
#
#
# Indices 1 2 3 4 5 6 
#
# 1 58.8189 -4.3107 0.7905 0.0000 4.6419 0.0000
# 2 -4.3107 83.1568 18.2454 0.0000 -4.5108 0.0000
# 3 0.7905 18.2454 41.3530 0.0000 -8.1955 0.0000
# 4 0.0000 0.0000 0.0000 52.7010 0.0000 1.0404
# 5 4.6419 -4.5108 -8.1955 0.0000 35.6105 0.0000
# 6 0.0000 0.0000 0.0000 1.0404 0.0000 25.1455
#
#
#
# Elastic Compliance Matrix: (Units=1/GPa)
#
#
# Indices 1 2 3 4 5 6 
#
# 1 0.017285 0.001044 -0.001269 0.000000 -0.002413 0.000000
# 2 0.001044 0.013382 -0.005883 0.000000 0.000205 0.000000
# 3 -0.001269 -0.005883 0.027963 0.000000 0.005856 0.000000
# 4 0.000000 0.000000 0.000000 0.018990 0.000000 -0.000786
# 5 -0.002413 0.000205 0.005856 0.000000 0.029770 0.000000
# 6 0.000000 0.000000 0.000000 -0.000786 0.000000 0.039801
#
#
# Mechanical properties :
#
#
# Convention : Reuss Voigt Hill
#
# Bulk Modulus (GPa) = 21.54632 23.64212 22.59422
# Shear Modulus (GPa) = 28.59117 33.93164 31.26141
#
# Velocity S-wave (km/s) = 3.46742 3.77740 3.62573
# Velocity P-wave (km/s) = 5.00912 5.38209 5.19895
#
# Compressibility (1/GPa) = 0.04641163
#
# Stress axis : x y z
#
# Youngs Moduli (GPa) = 57.85256 74.72958 35.76202
#
# Poissons Ratio (x) = -0.07799 0.04539
# Poissons Ratio (y) = -0.06038 0.21040
# Poissons Ratio (z) = 0.07342 0.43967
#
# Static dielectric constant tensor:
#      x y z
#    x 1.909760 0.000000 0.047060 
#    y 0.000000 1.915970 0.000000 
#    z 0.047060 0.000000 1.964240 
# 
# From -- ./inp_files/215764.got.cif
#   From: 2010.05.17/outbox.cif.g08.bks.cpg/sg15_108_cif.got.tgz:215764.got - 2010.06.03 18:47:42.
