data_PCOD9307694
_publ_section_title
;
Structure prediction by ZEFSAII (Michael W. Deem and Ramdas Pophale) SiO2 
 PCOD9307694
Probable space group: C 2/C
;
_chemical_formula_sum "Si O2"
_cell_formula_units_Z 32
_cell_length_a 13.292159
_cell_length_b 9.877784
_cell_length_c 10.503581
_cell_angle_alpha 90.000000
_cell_angle_beta 71.131305
_cell_angle_gamma 90.000000
_cell_volume 1304.980231
_symmetry_space_group_name_H-M "C 2/C"
_symmetry_group_IT_number 15
_symmetry_cell_setting 'monoclinic'
loop_
_space_group_symop_operation_xyz
x,y,z
-x,y,1/2-z
-x,-y,-z
x,-y,1/2+z
1/2+x,1/2+y,z
1/2-x,1/2+y,1/2-z
1/2-x,1/2-y,-z
1/2+x,1/2-y,1/2+z
loop_
_atom_site_type_symbol
_atom_site_label
_atom_site_fract_x
_atom_site_fract_y
_atom_site_fract_z
Si Si1 0.860755 0.340576 0.447323
Si Si2 0.244976 0.745405 0.152441
Si Si3 0.661935 0.005418 0.799609
Si Si4 0.971516 0.890477 0.617781
O O1 0.750000 0.250000 0.500000
O O2 0.868152 0.465241 0.543615
O O3 0.879902 0.403225 0.299818
O O4 0.952872 0.236690 0.439540
O O5 0.159096 0.643117 0.239949
O O6 0.352138 0.666479 0.153719
O O7 0.236810 0.896329 0.210647
O O8 0.250000 0.750000 0.000000
O O9 0.000000 0.935846 0.750000
O O10 0.000000 0.000000 0.500000
#
# Coordination Sequence:
#
# PCOD9307694 Si02
#       4
#     8   8   8   8
#     4  12  25  47  75 108 149 194 245 308 366 442
#     4  12  27  46  75 111 147 195 247 303 376 441
#     4  12  24  45  77 103 149 192 244 297 375 429
#     4  12  28  49  76 110 149 195 253 306 372 450
#
# _framework density 24.521443000000001
#
# number of rings (size 3 to 8) (size 9 to 14) (size 15 to 20)
#    0.000    0.000    7.500    1.500    3.500    1.000 
#    4.500    0.000    0.000    0.000    0.000    0.000 
#    0.000    0.000    0.000    0.000    0.000    0.000 
#
# Total GULP energy -89239.377757 kJ/mol
# GULP energy per Si atom -5577.461110 kJ/mol
# Density = 2.446563 g / cm^3
# Si number density = 24.521443 Si / 1000 Ang^3
#
#
#
# Elastic Constant Matrix: (Units=GPa)
#
#
# Indices 1 2 3 4 5 6 
#
# 1 51.6358 5.0537 28.7172 0.0000 18.4377 0.0000
# 2 5.0537 156.6683 60.8744 0.0000 21.5945 0.0000
# 3 28.7172 60.8744 136.9415 0.0000 49.9395 0.0000
# 4 0.0000 0.0000 0.0000 82.0030 0.0000 12.9273
# 5 18.4377 21.5945 49.9395 0.0000 41.5011 0.0000
# 6 0.0000 0.0000 0.0000 12.9273 0.0000 36.8387
#
#
#
# Elastic Compliance Matrix: (Units=1/GPa)
#
#
# Indices 1 2 3 4 5 6 
#
# 1 0.023554 0.001364 -0.002621 0.000000 -0.008020 0.000000
# 2 0.001364 0.007796 -0.003655 0.000000 -0.000264 0.000000
# 3 -0.002621 -0.003655 0.014895 0.000000 -0.014857 0.000000
# 4 0.000000 0.000000 0.000000 0.012909 0.000000 -0.004530
# 5 -0.008020 -0.000264 -0.014857 0.000000 0.045675 0.000000
# 6 0.000000 0.000000 0.000000 -0.004530 0.000000 0.028735
#
#
# Mechanical properties :
#
#
# Convention : Reuss Voigt Hill
#
# Bulk Modulus (GPa) = 27.45677 59.39292 43.42485
# Shear Modulus (GPa) = 32.14867 48.77524 40.46196
#
# Velocity S-wave (km/s) = 3.62476 4.46475 4.06651
# Velocity P-wave (km/s) = 5.36096 7.13107 6.30841
#
# Compressibility (1/GPa) = 0.03642089
#
# Stress axis : x y z
#
# Youngs Moduli (GPa) = 42.45488 128.27893 67.13699
#
# Poissons Ratio (x) = -0.17498 0.17596
# Poissons Ratio (y) = -0.05791 0.24539
# Poissons Ratio (z) = 0.11127 0.46887
#
# Static dielectric constant tensor:
#      x y z
#    x 2.116790 0.000000 -0.056160 
#    y 0.000000 2.308700 0.000000 
#    z -0.056160 0.000000 2.015350 
# 
# From -- ./inp_files/93412.got.cif
#   From: 2010.05.17/outbox.cif.g08.bks.cpg/sg15_47_cif.got.tgz:93412.got - 2010.06.03 18:47:42.
