data_PCOD9307227
_publ_section_title
;
Structure prediction by ZEFSAII (Michael W. Deem and Ramdas Pophale) SiO2 
 PCOD9307227
Probable space group: C 2/C
;
_chemical_formula_sum "Si O2"
_cell_formula_units_Z 40
_cell_length_a 14.471133
_cell_length_b 17.097071
_cell_length_c 14.469145
_cell_angle_alpha 90.000000
_cell_angle_beta 28.774280
_cell_angle_gamma 90.000000
_cell_volume 1723.206585
_symmetry_space_group_name_H-M "C 2/C"
_symmetry_group_IT_number 15
_symmetry_cell_setting 'monoclinic'
loop_
_space_group_symop_operation_xyz
x,y,z
-x,y,1/2-z
-x,-y,-z
x,-y,1/2+z
1/2+x,1/2+y,z
1/2-x,1/2+y,1/2-z
1/2-x,1/2-y,-z
1/2+x,1/2-y,1/2+z
loop_
_atom_site_type_symbol
_atom_site_label
_atom_site_fract_x
_atom_site_fract_y
_atom_site_fract_z
Si Si1 0.506585 0.855685 0.495706
Si Si2 0.143130 0.894459 0.708181
Si Si3 0.316046 0.335462 0.470715
Si Si4 0.451143 0.327324 0.060598
Si Si5 0.405017 0.029138 0.424035
O O1 0.359333 0.861421 0.538419
O O2 0.458593 0.767174 0.570509
O O3 0.733007 0.853866 0.271644
O O4 0.483060 0.930361 0.586377
O O5 0.000000 0.873572 0.750000
O O6 0.217038 0.983154 0.626518
O O7 0.022655 0.863595 0.901681
O O8 0.500000 0.350072 0.250000
O O9 0.250000 0.250000 0.500000
O O10 0.383621 0.352885 0.513792
O O11 0.166248 0.394764 0.564760
O O12 0.500000 0.984686 0.250000
#
# Coordination Sequence:
#
# PCOD9307227 Si02
#       5
#     8   8   8   8   8
#     4  12  26  50  79 116 147 204 260 326 383 458
#     4  12  31  52  72 110 158 218 259 313 382 459
#     4  12  22  42  78 118 152 191 246 324 400 460
#     4  12  25  49  83 113 158 195 265 318 390 459
#     4  12  27  48  78 115 161 196 254 321 401 468
#
# _framework density 23.212539
#
# number of rings (size 3 to 8) (size 9 to 14) (size 15 to 20)
#    0.000    0.000    6.000    3.000    2.800    1.600 
#    0.000    0.000    0.000    0.000    0.000    0.000 
#    0.000    0.000    0.000    0.000    0.000    0.000 
#
# Total GULP energy -111337.330744 kJ/mol
# GULP energy per Si atom -5566.866537 kJ/mol
# Density = 2.315971 g / cm^3
# Si number density = 23.212539 Si / 1000 Ang^3
#
#
#
# Elastic Constant Matrix: (Units=GPa)
#
#
# Indices 1 2 3 4 5 6 
#
# 1 177.9930 22.8531 27.9796 0.0001 4.8967 -0.0009
# 2 22.8531 34.1758 18.4150 0.0216 7.4757 -0.0216
# 3 27.9796 18.4150 122.5632 0.0117 1.1234 -0.0138
# 4 0.0001 0.0216 0.0117 -5.1993 -0.0036 35.3468
# 5 4.8967 7.4757 1.1234 -0.0036 43.6397 0.0050
# 6 -0.0009 -0.0216 -0.0138 35.3468 0.0050 -4.6398
#
#
#
# Elastic Compliance Matrix: (Units=1/GPa)
#
#
# Indices 1 2 3 4 5 6 
#
# 1 0.006229 -0.003688 -0.000868 -0.000002 -0.000045 0.000002
# 2 -0.003688 0.035313 -0.004413 0.000018 -0.005522 -0.000018
# 3 -0.000868 -0.004413 0.009014 0.000001 0.000621 0.000000
# 4 -0.000002 0.000018 0.000001 0.003787 -0.000006 0.028848
# 5 -0.000045 -0.005522 0.000621 -0.000006 0.023850 0.000005
# 6 0.000002 -0.000018 0.000000 0.028848 0.000005 0.004243
#
#
# Mechanical properties :
#
#
# Convention : Reuss Voigt Hill
#
# Bulk Modulus (GPa) = 30.65732 52.58081 41.61906
# Shear Modulus (GPa) = 44.94502 24.45907 34.70205
#
# Velocity S-wave (km/s) = 4.40505 3.24960 3.87068
# Velocity P-wave (km/s) = 6.25368 6.06473 6.15993
#
# Compressibility (1/GPa) = 0.03261864
#
# Stress axis : x y z
#
# Youngs Moduli (GPa) = 160.53042 28.31854 110.93283
#
# Poissons Ratio (x) = 0.10445 0.09624
# Poissons Ratio (y) = 0.59208 0.48956
# Poissons Ratio (z) = 0.13926 0.12497
#
# Static dielectric constant tensor:
#      x y z
#    x 1.934410 -0.000050 0.008670 
#    y -0.000050 2.129790 -0.000150 
#    z 0.008670 -0.000150 1.538170 
# 
# From -- ./inp_files/155351.got.cif
#   From: 2010.05.17/outbox.cif.g08.bks.cpg/sg15_78_cif.got.tgz:155351.got - 2010.06.03 18:47:42.
