data_PCOD9307813
_publ_section_title
;
Structure prediction by ZEFSAII (Michael W. Deem and Ramdas Pophale) SiO2 
 PCOD9307813
Probable space group: C 2/C
;
_chemical_formula_sum "Si O2"
_cell_formula_units_Z 40
_cell_length_a 18.195759
_cell_length_b 16.248427
_cell_length_c 11.767892
_cell_angle_alpha 90.000000
_cell_angle_beta 27.330645
_cell_angle_gamma 90.000000
_cell_volume 1597.389769
_symmetry_space_group_name_H-M "C 2/C"
_symmetry_group_IT_number 15
_symmetry_cell_setting 'monoclinic'
loop_
_space_group_symop_operation_xyz
x,y,z
-x,y,1/2-z
-x,-y,-z
x,-y,1/2+z
1/2+x,1/2+y,z
1/2-x,1/2+y,1/2-z
1/2-x,1/2-y,-z
1/2+x,1/2-y,1/2+z
loop_
_atom_site_type_symbol
_atom_site_label
_atom_site_fract_x
_atom_site_fract_y
_atom_site_fract_z
Si Si1 0.287250 0.308635 0.264399
Si Si2 0.840589 0.380573 0.645449
Si Si3 0.408272 0.420718 0.712455
Si Si4 0.656207 0.407877 0.102199
Si Si5 0.687532 0.169599 0.658279
O O1 0.310482 0.211556 0.233651
O O2 0.254923 0.348166 0.430816
O O3 0.171824 0.318178 0.314823
O O4 0.448264 0.358124 0.009021
O O5 0.724883 0.404127 0.701303
O O6 0.020867 0.372201 0.353580
O O7 0.785498 0.434492 0.829251
O O8 0.421903 0.518016 0.716041
O O9 0.328934 0.392559 0.939149
O O10 0.500000 0.371785 0.250000
O O11 0.750000 0.250000 0.500000
#
# Coordination Sequence:
#
# PCOD9307813 Si02
#       5
#     8   8   8   8   8
#     4  12  24  48  79 107 147 204 256 311 390 461
#     4  12  26  48  75 111 151 202 256 320 384 458
#     4  12  26  47  78 107 149 204 259 313 391 458
#     4  12  28  49  76 112 159 201 261 324 391 470
#     4  12  25  45  75 110 148 192 258 319 371 462
#
# _framework density 25.040852000000001
#
# number of rings (size 3 to 8) (size 9 to 14) (size 15 to 20)
#    0.000    0.000    6.000    3.600    2.800    1.600 
#    3.600    0.000    0.000    0.000    0.000    0.000 
#    0.000    0.000    0.000    0.000    0.000    0.000 
#
# Total GULP energy -111726.493954 kJ/mol
# GULP energy per Si atom -5586.324698 kJ/mol
# Density = 2.498386 g / cm^3
# Si number density = 25.040852 Si / 1000 Ang^3
#
#
#
# Elastic Constant Matrix: (Units=GPa)
#
#
# Indices 1 2 3 4 5 6 
#
# 1 172.1652 21.1937 36.7348 0.0000 4.8191 0.0001
# 2 21.1937 99.5906 -0.1721 0.0001 -2.3387 0.0000
# 3 36.7348 -0.1721 112.6554 0.0003 -3.7713 0.0000
# 4 0.0000 0.0001 0.0003 37.2130 -0.0001 12.0840
# 5 4.8191 -2.3387 -3.7713 -0.0001 44.1488 0.0000
# 6 0.0001 0.0000 0.0000 12.0840 0.0000 35.8784
#
#
#
# Elastic Compliance Matrix: (Units=1/GPa)
#
#
# Indices 1 2 3 4 5 6 
#
# 1 0.006465 -0.001402 -0.002143 0.000000 -0.000963 0.000000
# 2 -0.001402 0.010358 0.000498 0.000000 0.000744 0.000000
# 3 -0.002143 0.000498 0.009612 0.000000 0.001081 0.000000
# 4 0.000000 0.000000 0.000000 0.030172 0.000000 -0.010162
# 5 -0.000963 0.000744 0.001081 0.000000 0.022888 0.000000
# 6 0.000000 0.000000 0.000000 -0.010162 0.000000 0.031295
#
#
# Mechanical properties :
#
#
# Convention : Reuss Voigt Hill
#
# Bulk Modulus (GPa) = 49.16007 55.54712 52.35360
# Shear Modulus (GPa) = 40.43229 45.22503 42.82866
#
# Velocity S-wave (km/s) = 4.02263 4.25438 4.14013
# Velocity P-wave (km/s) = 6.42262 6.80909 6.61867
#
# Compressibility (1/GPa) = 0.02034171
#
# Stress axis : x y z
#
# Youngs Moduli (GPa) = 154.67699 96.54532 104.03421
#
# Poissons Ratio (x) = 0.13537 0.22290
# Poissons Ratio (y) = 0.21688 -0.05180
# Poissons Ratio (z) = 0.33140 -0.04807
#
# Static dielectric constant tensor:
#      x y z
#    x 2.045910 0.000000 0.006570 
#    y 0.000000 2.036250 0.000000 
#    z 0.006570 0.000000 2.035940 
# 
# From -- ./inp_files/106808.got.cif
#   From: 2010.05.17/outbox.cif.g08.bks.cpg/sg15_54_cif.got.tgz:106808.got - 2010.06.03 18:47:42.
