data_PCOD9307274
_publ_section_title
;
Structure prediction by ZEFSAII (Michael W. Deem and Ramdas Pophale) SiO2 
 PCOD9307274
Probable space group: C 2/C
;
_chemical_formula_sum "Si O2"
_cell_formula_units_Z 44
_cell_length_a 22.685071
_cell_length_b 5.274680
_cell_length_c 18.620795
_cell_angle_alpha 90.000000
_cell_angle_beta 67.250547
_cell_angle_gamma 90.000000
_cell_volume 2054.763267
_symmetry_space_group_name_H-M "C 2/C"
_symmetry_group_IT_number 15
_symmetry_cell_setting 'monoclinic'
loop_
_space_group_symop_operation_xyz
x,y,z
-x,y,1/2-z
-x,-y,-z
x,-y,1/2+z
1/2+x,1/2+y,z
1/2-x,1/2+y,1/2-z
1/2-x,1/2-y,-z
1/2+x,1/2-y,1/2+z
loop_
_atom_site_type_symbol
_atom_site_label
_atom_site_fract_x
_atom_site_fract_y
_atom_site_fract_z
Si Si1 0.537697 0.703415 0.616254
Si Si2 0.620008 0.024655 0.190613
Si Si3 0.389024 0.526192 0.057612
Si Si4 0.748167 0.501715 0.951151
Si Si5 0.580997 0.972336 0.867419
Si Si6 0.500000 0.652118 0.250000
O O1 0.592654 0.768173 0.647711
O O2 0.566676 0.580155 0.532257
O O3 0.494457 0.945192 0.615837
O O4 0.492351 0.519972 0.683197
O O5 0.618910 0.080446 0.275681
O O6 0.690396 0.971701 0.129172
O O7 0.564797 0.810962 0.210484
O O8 0.316503 0.515119 0.064126
O O9 0.405973 0.258112 0.084609
O O10 0.400436 0.761337 0.106106
O O11 0.750000 0.750000 0.000000
O O12 0.750000 0.250000 0.000000
#
# Coordination Sequence:
#
# PCOD9307274 Si02
#       6
#     8   8   8   8   8   4
#     4  12  24  45  73 109 145 198 245 300 362 451
#     4  12  26  44  79 103 148 196 249 304 360 447
#     4  12  28  46  73 106 152 192 240 305 376 427
#     4  12  27  50  76 106 141 196 255 296 357 449
#     4  12  26  46  69 114 149 188 238 309 377 428
#     4  12  22  44  74 112 142 186 260 296 368 422
#
# _framework density 21.413658000000002
#
# number of rings (size 3 to 8) (size 9 to 14) (size 15 to 20)
#    0.000    0.000    5.455    4.364    2.545    1.455 
#    0.000    0.000    0.000    0.000    0.000    0.000 
#    0.000    0.000    0.000    0.000    0.000    0.000 
#
# Total GULP energy -123136.614489 kJ/mol
# GULP energy per Si atom -5597.118840 kJ/mol
# Density = 2.136492 g / cm^3
# Si number density = 21.413658 Si / 1000 Ang^3
#
#
#
# Elastic Constant Matrix: (Units=GPa)
#
#
# Indices 1 2 3 4 5 6 
#
# 1 118.2851 30.9898 57.6109 0.0009 -8.8674 -0.0009
# 2 30.9898 103.2193 33.1368 -0.0042 9.8572 -0.0033
# 3 57.6109 33.1368 165.5950 -0.0004 -9.1232 -0.0033
# 4 0.0009 -0.0042 -0.0004 41.5654 -0.0007 10.8487
# 5 -8.8674 9.8572 -9.1232 -0.0007 45.9368 0.0003
# 6 -0.0009 -0.0033 -0.0033 10.8487 0.0003 21.7473
#
#
#
# Elastic Compliance Matrix: (Units=1/GPa)
#
#
# Indices 1 2 3 4 5 6 
#
# 1 0.010770 -0.002408 -0.003157 0.000000 0.001969 0.000000
# 2 -0.002408 0.011224 -0.001584 0.000001 -0.003188 0.000001
# 3 -0.003157 -0.001584 0.007521 0.000000 0.001224 0.000001
# 4 0.000000 0.000001 0.000000 0.027660 0.000000 -0.013798
# 5 0.001969 -0.003188 0.001224 0.000000 0.023076 -0.000001
# 6 0.000000 0.000001 0.000001 -0.013798 -0.000001 0.052866
#
#
# Mechanical properties :
#
#
# Convention : Reuss Voigt Hill
#
# Bulk Modulus (GPa) = 65.71025 70.06383 67.88704
# Shear Modulus (GPa) = 32.78955 39.54069 36.16512
#
# Velocity S-wave (km/s) = 3.91736 4.30177 4.11406
# Velocity P-wave (km/s) = 7.15637 7.58050 7.37149
#
# Compressibility (1/GPa) = 0.01521833
#
# Stress axis : x y z
#
# Youngs Moduli (GPa) = 92.84975 89.09461 132.95403
#
# Poissons Ratio (x) = 0.21456 0.41968
# Poissons Ratio (y) = 0.22360 0.21058
# Poissons Ratio (z) = 0.29309 0.14111
#
# Static dielectric constant tensor:
#      x y z
#    x 1.789670 -0.000010 0.032320 
#    y -0.000010 1.827450 -0.000010 
#    z 0.032320 -0.000010 1.772520 
# 
# From -- ./inp_files/212854.got.cif
#   From: 2010.05.17/outbox.cif.g08.bks.cpg/sg15_107_cif.got.tgz:212854.got - 2010.06.03 18:47:42.
