data_PCOD9307829
_publ_section_title
;
Structure prediction by ZEFSAII (Michael W. Deem and Ramdas Pophale) SiO2 
 PCOD9307829
Probable space group: C 2/C
;
_chemical_formula_sum "Si O2"
_cell_formula_units_Z 40
_cell_length_a 14.641343
_cell_length_b 9.332730
_cell_length_c 13.465171
_cell_angle_alpha 90.000000
_cell_angle_beta 108.658450
_cell_angle_gamma 90.000000
_cell_volume 1743.228697
_symmetry_space_group_name_H-M "C 2/C"
_symmetry_group_IT_number 15
_symmetry_cell_setting 'monoclinic'
loop_
_space_group_symop_operation_xyz
x,y,z
-x,y,1/2-z
-x,-y,-z
x,-y,1/2+z
1/2+x,1/2+y,z
1/2-x,1/2+y,1/2-z
1/2-x,1/2-y,-z
1/2+x,1/2-y,1/2+z
loop_
_atom_site_type_symbol
_atom_site_label
_atom_site_fract_x
_atom_site_fract_y
_atom_site_fract_z
Si Si1 0.027172 0.422613 0.110753
Si Si2 0.089572 0.721795 0.215850
Si Si3 0.802142 0.794667 0.821749
Si Si4 0.894733 0.941738 0.454887
Si Si5 0.342512 0.273251 0.603274
O O1 0.070828 0.552115 0.191865
O O2 0.112819 0.311656 0.116415
O O3 0.932313 0.338561 0.120571
O O4 0.000000 0.500000 0.000000
O O5 0.192009 0.745352 0.304924
O O6 0.098208 0.800898 0.112373
O O7 0.000000 0.776132 0.250000
O O8 0.814104 0.792331 0.706548
O O9 0.823505 0.948979 0.876255
O O10 0.874215 0.919246 0.563573
O O11 0.000000 0.000000 0.500000
O O12 0.250000 0.250000 0.500000
#
# Coordination Sequence:
#
# PCOD9307829 Si02
#       5
#     8   8   8   8   8
#     4  12  24  49  73 107 145 191 245 296 362 439
#     4  12  27  45  70 105 146 187 242 304 361 423
#     4  12  26  49  75 105 149 196 241 301 368 438
#     4  12  26  47  71 110 142 187 247 301 363 436
#     4  12  25  48  78 104 146 198 244 295 368 447
#
# _framework density 22.945927000000001
#
# number of rings (size 3 to 8) (size 9 to 14) (size 15 to 20)
#    0.000    0.000    6.000    3.000    5.600    0.000 
#    0.000    2.000    0.000    0.000    0.000    0.000 
#    0.000    0.000    0.000    0.000    0.000    0.000 
#
# Total GULP energy -111749.069264 kJ/mol
# GULP energy per Si atom -5587.453463 kJ/mol
# Density = 2.289370 g / cm^3
# Si number density = 22.945927 Si / 1000 Ang^3
#
#
#
# Elastic Constant Matrix: (Units=GPa)
#
#
# Indices 1 2 3 4 5 6 
#
# 1 159.5807 31.1238 37.5009 0.0000 19.4823 0.0000
# 2 31.1238 91.7291 30.7135 0.0000 6.9905 0.0000
# 3 37.5009 30.7135 78.9355 0.0000 7.3116 0.0000
# 4 0.0000 0.0000 0.0000 55.3406 0.0000 4.7442
# 5 19.4823 6.9905 7.3116 0.0000 43.0365 0.0000
# 6 0.0000 0.0000 0.0000 4.7442 0.0000 11.3747
#
#
#
# Elastic Compliance Matrix: (Units=1/GPa)
#
#
# Indices 1 2 3 4 5 6 
#
# 1 0.007525 -0.001419 -0.002772 0.000000 -0.002705 0.000000
# 2 -0.001419 0.012866 -0.004265 0.000000 -0.000723 0.000000
# 3 -0.002772 -0.004265 0.015712 0.000000 -0.000722 0.000000
# 4 0.000000 0.000000 0.000000 0.018740 0.000000 -0.007816
# 5 -0.002705 -0.000723 -0.000722 0.000000 0.024701 0.000000
# 6 0.000000 0.000000 0.000000 -0.007816 0.000000 0.091174
#
#
# Mechanical properties :
#
#
# Convention : Reuss Voigt Hill
#
# Bulk Modulus (GPa) = 52.10899 58.76905 55.43902
# Shear Modulus (GPa) = 25.76952 37.34417 31.55685
#
# Velocity S-wave (km/s) = 3.35484 4.03859 3.71249
# Velocity P-wave (km/s) = 6.14535 6.88582 6.52610
#
# Compressibility (1/GPa) = 0.01919055
#
# Stress axis : x y z
#
# Youngs Moduli (GPa) = 132.89282 77.72258 63.64536
#
# Poissons Ratio (x) = 0.11027 0.17645
# Poissons Ratio (y) = 0.18855 0.27146
# Poissons Ratio (z) = 0.36842 0.33150
#
# Static dielectric constant tensor:
#      x y z
#    x 1.822490 0.000000 0.040330 
#    y 0.000000 1.816730 0.000000 
#    z 0.040330 0.000000 1.871750 
# 
# From -- ./inp_files/150607.got.cif
#   From: 2010.05.17/outbox.cif.g08.bks.cpg/sg15_76_cif.got.tgz:150607.got - 2010.06.03 18:47:42.
