data_PCOD9307308
_publ_section_title
;
Structure prediction by ZEFSAII (Michael W. Deem and Ramdas Pophale) SiO2 
 PCOD9307308
Probable space group: C 2/C
;
_chemical_formula_sum "Si O2"
_cell_formula_units_Z 36
_cell_length_a 13.218618
_cell_length_b 16.796246
_cell_length_c 7.624126
_cell_angle_alpha 90.000000
_cell_angle_beta 116.823897
_cell_angle_gamma 90.000000
_cell_volume 1510.590610
_symmetry_space_group_name_H-M "C 2/C"
_symmetry_group_IT_number 15
_symmetry_cell_setting 'monoclinic'
loop_
_space_group_symop_operation_xyz
x,y,z
-x,y,1/2-z
-x,-y,-z
x,-y,1/2+z
1/2+x,1/2+y,z
1/2-x,1/2+y,1/2-z
1/2-x,1/2-y,-z
1/2+x,1/2-y,1/2+z
loop_
_atom_site_type_symbol
_atom_site_label
_atom_site_fract_x
_atom_site_fract_y
_atom_site_fract_z
Si Si1 0.844447 0.252545 0.414934
Si Si2 0.188144 0.038302 0.713941
Si Si3 0.000000 0.142215 0.750000
Si Si4 0.929408 0.425194 0.520202
Si Si5 0.633938 0.622005 0.313198
O O1 0.750000 0.250000 0.500000
O O2 0.947916 0.200256 0.566002
O O3 0.897547 0.338741 0.413805
O O4 0.808119 0.201797 0.216442
O O5 0.191637 0.084365 0.531635
O O6 0.095273 0.087193 0.745403
O O7 0.148326 0.947119 0.677641
O O8 0.302852 0.040246 0.916532
O O9 0.000000 0.405286 0.750000
O O10 0.000000 0.500000 0.500000
O O11 0.500000 0.632323 0.250000
#
# Coordination Sequence:
#
# PCOD9307308 Si02
#       5
#     8   8   4   8   8
#     4  12  27  47  77 112 161 214 261 336 409 488
#     4  12  25  47  81 120 155 211 262 339 406 487
#     4  12  22  46  80 118 152 204 274 326 414 478
#     4  12  29  52  75 107 159 213 267 327 407 482
#     4  12  25  44  79 121 159 196 268 331 406 487
#
# _framework density 23.831738000000001
#
# number of rings (size 3 to 8) (size 9 to 14) (size 15 to 20)
#    0.000    0.000    6.667    3.333    3.111    1.778 
#    0.000    0.000    0.000    0.000    0.000    0.000 
#    0.000    0.000    0.000    0.000    0.000    0.000 
#
# Total GULP energy -100513.518041 kJ/mol
# GULP energy per Si atom -5584.084336 kJ/mol
# Density = 2.377750 g / cm^3
# Si number density = 23.831738 Si / 1000 Ang^3
#
#
#
# Elastic Constant Matrix: (Units=GPa)
#
#
# Indices 1 2 3 4 5 6 
#
# 1 136.6855 73.5104 54.5938 0.0000 18.0612 0.0000
# 2 73.5104 213.8702 28.2752 0.0000 -18.6457 0.0000
# 3 54.5938 28.2752 106.1708 0.0000 -9.8176 0.0000
# 4 0.0000 0.0000 0.0000 43.6958 0.0000 -4.1115
# 5 18.0612 -18.6457 -9.8176 0.0000 37.9264 0.0000
# 6 0.0000 0.0000 0.0000 -4.1115 0.0000 -77.5387
#
#
#
# Elastic Compliance Matrix: (Units=1/GPa)
#
#
# Indices 1 2 3 4 5 6 
#
# 1 0.014220 -0.004919 -0.007020 0.000000 -0.011007 0.000000
# 2 -0.004919 0.006717 0.001294 0.000000 0.005980 0.000000
# 3 -0.007020 0.001294 0.013372 0.000000 0.007440 0.000000
# 4 0.000000 0.000000 0.000000 0.022772 0.000000 -0.001207
# 5 -0.011007 0.005980 0.007440 0.000000 0.036474 0.000000
# 6 0.000000 0.000000 0.000000 -0.001207 0.000000 -0.012833
#
#
# Mechanical properties :
#
#
# Convention : Reuss Voigt Hill
#
# Bulk Modulus (GPa) = 76.81696 85.49836 81.15766
# Shear Modulus (GPa) = 47.01373 20.83984 33.92679
#
# Velocity S-wave (km/s) = 4.44637 2.96033 3.77715
# Velocity P-wave (km/s) = 7.65920 6.90206 7.29046
#
# Compressibility (1/GPa) = 0.01301796
#
# Stress axis : x y z
#
# Youngs Moduli (GPa) = 70.32431 148.88017 74.78384
#
# Poissons Ratio (x) = 0.73236 0.52496
# Poissons Ratio (y) = 0.34594 -0.09674
# Poissons Ratio (z) = 0.49366 -0.19259
#
# Static dielectric constant tensor:
#      x y z
#    x 1.871710 0.000000 -0.062580 
#    y 0.000000 2.129130 0.000000 
#    z -0.062580 0.000000 2.059280 
# 
# From -- ./inp_files/29410.got.cif
#   From: 2010.05.17/outbox.cif.g08.bks.cpg/sg15_15_cif.got.tgz:29410.got - 2010.06.03 18:47:42.
