data_PCOD9307229
_publ_section_title
;
Structure prediction by ZEFSAII (Michael W. Deem and Ramdas Pophale) SiO2 
 PCOD9307229
Probable space group: C 2/C
;
_chemical_formula_sum "Si O2"
_cell_formula_units_Z 48
_cell_length_a 19.257558
_cell_length_b 16.585523
_cell_length_c 17.062346
_cell_angle_alpha 90.000000
_cell_angle_beta 152.891720
_cell_angle_gamma 90.000000
_cell_volume 2483.264330
_symmetry_space_group_name_H-M "C 2/C"
_symmetry_group_IT_number 15
_symmetry_cell_setting 'monoclinic'
loop_
_space_group_symop_operation_xyz
x,y,z
-x,y,1/2-z
-x,-y,-z
x,-y,1/2+z
1/2+x,1/2+y,z
1/2-x,1/2+y,1/2-z
1/2-x,1/2-y,-z
1/2+x,1/2-y,1/2+z
loop_
_atom_site_type_symbol
_atom_site_label
_atom_site_fract_x
_atom_site_fract_y
_atom_site_fract_z
Si Si1 0.850404 0.705196 0.931598
Si Si2 0.911004 0.419491 0.887063
Si Si3 0.591698 0.490248 0.510596
Si Si4 0.760613 0.714143 0.337973
Si Si5 0.455051 0.657638 0.114360
Si Si6 0.045784 0.841884 0.206795
O O1 0.774637 0.727605 0.771801
O O2 0.717868 0.681168 0.858283
O O3 0.974249 0.634490 0.048877
O O4 0.938495 0.784603 0.047093
O O5 0.753306 0.447181 0.688776
O O6 0.864093 0.359399 0.910706
O O7 0.000000 0.500000 0.000000
O O8 0.500000 0.500000 0.500000
O O9 0.613192 0.575856 0.490376
O O10 0.489717 0.432899 0.353766
O O11 0.605113 0.678017 0.214624
O O12 0.842108 0.768044 0.485152
O O13 0.500000 0.648529 0.250000
O O14 0.000000 0.828658 0.250000
#
# Coordination Sequence:
#
# PCOD9307229 Si02
#       6
#     8   8   8   8   8   8
#     4  12  22  43  68  98 129 178 228 273 329 415
#     4  12  24  40  69  99 124 169 237 281 317 390
#     4  12  23  44  68  96 131 180 228 276 329 408
#     4  12  22  44  70  95 127 178 229 273 325 411
#     4  12  26  43  67  99 138 174 221 285 345 388
#     4  12  24  41  66 100 138 173 217 283 346 394
#
# _framework density 19.329395999999999
#
# number of rings (size 3 to 8) (size 9 to 14) (size 15 to 20)
#    0.000    0.000    6.667    4.500    0.000    0.000 
#    0.000    0.000    0.000    0.000    0.000    0.000 
#    0.000    0.000    0.000    0.000    0.000    0.000 
#
# Total GULP energy -134262.549844 kJ/mol
# GULP energy per Si atom -5594.272910 kJ/mol
# Density = 1.928540 g / cm^3
# Si number density = 19.329396 Si / 1000 Ang^3
#
#
#
# Elastic Constant Matrix: (Units=GPa)
#
#
# Indices 1 2 3 4 5 6 
#
# 1 97.8820 13.7927 24.5685 0.0012 7.5710 0.0004
# 2 13.7927 118.2517 30.8662 0.0018 2.8752 0.0010
# 3 24.5685 30.8662 60.6890 0.0022 1.7816 0.0012
# 4 0.0012 0.0018 0.0022 44.7698 0.0015 13.2928
# 5 7.5710 2.8752 1.7816 0.0015 42.2241 0.0007
# 6 0.0004 0.0010 0.0012 13.2928 0.0007 25.6494
#
#
#
# Elastic Compliance Matrix: (Units=1/GPa)
#
#
# Indices 1 2 3 4 5 6 
#
# 1 0.011519 -0.000110 -0.004552 0.000000 -0.001866 0.000000
# 2 -0.000110 0.009761 -0.004907 0.000000 -0.000438 0.000000
# 3 -0.004552 -0.004907 0.020808 -0.000001 0.000272 0.000000
# 4 0.000000 0.000000 -0.000001 0.026399 -0.000001 -0.013681
# 5 -0.001866 -0.000438 0.000272 -0.000001 0.024036 0.000000
# 6 0.000000 0.000000 0.000000 -0.013681 0.000000 0.046077
#
#
# Mechanical properties :
#
#
# Convention : Reuss Voigt Hill
#
# Bulk Modulus (GPa) = 43.57471 46.14196 44.85833
# Shear Modulus (GPa) = 30.23189 36.36834 33.30012
#
# Velocity S-wave (km/s) = 3.95908 4.34234 4.15513
# Velocity P-wave (km/s) = 6.59479 7.00460 6.80278
#
# Compressibility (1/GPa) = 0.02294909
#
# Stress axis : x y z
#
# Youngs Moduli (GPa) = 86.81411 102.45039 48.05821
#
# Poissons Ratio (x) = 0.01126 0.21878
# Poissons Ratio (y) = 0.00954 0.23582
# Poissons Ratio (z) = 0.39522 0.50272
#
# Static dielectric constant tensor:
#      x y z
#    x 1.659200 0.000000 0.004440 
#    y 0.000000 1.681060 0.000000 
#    z 0.004440 0.000000 1.685660 
# 
# From -- ./inp_files/163320.got.cif
#   From: 2010.05.17/outbox.cif.g08.bks.cpg/sg15_82_cif.got.tgz:163320.got - 2010.06.03 18:47:42.
