data_PCOD9307051
_publ_section_title
;
Structure prediction by ZEFSAII (Michael W. Deem and Ramdas Pophale) SiO2 
 PCOD9307051
Probable space group: C 2/C
;
_chemical_formula_sum "Si O2"
_cell_formula_units_Z 40
_cell_length_a 7.853112
_cell_length_b 24.669486
_cell_length_c 15.619370
_cell_angle_alpha 90.000000
_cell_angle_beta 143.047630
_cell_angle_gamma 90.000000
_cell_volume 1819.067913
_symmetry_space_group_name_H-M "C 2/C"
_symmetry_group_IT_number 15
_symmetry_cell_setting 'monoclinic'
loop_
_space_group_symop_operation_xyz
x,y,z
-x,y,1/2-z
-x,-y,-z
x,-y,1/2+z
1/2+x,1/2+y,z
1/2-x,1/2+y,1/2-z
1/2-x,1/2-y,-z
1/2+x,1/2-y,1/2+z
loop_
_atom_site_type_symbol
_atom_site_label
_atom_site_fract_x
_atom_site_fract_y
_atom_site_fract_z
Si Si1 0.219041 0.781008 0.745801
Si Si2 0.355262 0.867095 0.512026
Si Si3 0.765662 0.867720 0.522172
Si Si4 0.681939 0.553275 0.090487
Si Si5 0.000000 0.686635 0.750000
Si Si6 0.000000 0.795686 0.250000
O O1 0.464683 0.824362 0.859637
O O2 0.250672 0.745856 0.672778
O O3 0.933843 0.815717 0.626330
O O4 0.235161 0.731602 0.819559
O O5 0.560871 0.886719 0.516890
O O6 0.229927 0.912472 0.523173
O O7 0.105408 0.834564 0.366429
O O8 0.592529 0.848812 0.368373
O O9 0.002946 0.910220 0.585877
O O10 0.000000 0.540774 0.250000
O O11 0.500000 0.500000 0.000000
#
# Coordination Sequence:
#
# PCOD9307051 Si02
#       6
#     8   8   8   8   4   4
#     4  12  21  41  67 106 156 197 239 280 353 437
#     4  12  25  46  71 107 150 193 247 298 363 441
#     4  12  25  46  73 106 151 193 246 298 359 439
#     4  12  30  53  80 104 137 187 251 325 381 427
#     4  12  22  38  70 112 154 200 228 280 350 436
#     4  12  24  38  68 110 154 202 240 284 352 448
#
# _framework density 21.989284000000001
#
# number of rings (size 3 to 8) (size 9 to 14) (size 15 to 20)
#    0.000    0.000    6.000    4.800    1.400    0.800 
#    0.000    0.000    0.000    0.000    0.000    0.000 
#    0.000    0.000    0.000    0.000    0.000    0.000 
#
# Total GULP energy -111783.851335 kJ/mol
# GULP energy per Si atom -5589.192567 kJ/mol
# Density = 2.193924 g / cm^3
# Si number density = 21.989284 Si / 1000 Ang^3
#
#
#
# Elastic Constant Matrix: (Units=GPa)
#
#
# Indices 1 2 3 4 5 6 
#
# 1 154.9799 84.3249 36.7484 0.0000 14.0749 0.0000
# 2 84.3249 118.3374 57.5121 0.0000 9.5845 0.0000
# 3 36.7484 57.5121 121.7772 0.0003 -4.0279 0.0001
# 4 0.0000 0.0000 0.0003 0.9960 0.0001 -0.3743
# 5 14.0749 9.5845 -4.0279 0.0001 35.2839 0.0000
# 6 0.0000 0.0000 0.0001 -0.3743 0.0000 30.2930
#
#
#
# Elastic Compliance Matrix: (Units=1/GPa)
#
#
# Indices 1 2 3 4 5 6 
#
# 1 0.010717 -0.007597 0.000282 0.000000 -0.002179 0.000000
# 2 -0.007597 0.016824 -0.005726 0.000001 -0.002193 0.000000
# 3 0.000282 -0.005726 0.010920 -0.000003 0.002689 0.000000
# 4 0.000000 0.000001 -0.000003 1.008714 -0.000002 0.012463
# 5 -0.002179 -0.002193 0.002689 -0.000002 0.030114 0.000000
# 6 0.000000 0.000000 0.000000 0.012463 0.000000 0.033165
#
#
# Mechanical properties :
#
#
# Convention : Reuss Voigt Hill
#
# Bulk Modulus (GPa) = 80.78166 83.58503 82.18335
# Shear Modulus (GPa) = 4.38342 27.74852 16.06597
#
# Velocity S-wave (km/s) = 1.41342 3.55619 2.70594
# Velocity P-wave (km/s) = 6.28333 7.41325 6.87155
#
# Compressibility (1/GPa) = 0.01237905
#
# Stress axis : x y z
#
# Youngs Moduli (GPa) = 93.30704 59.43723 91.57768
#
# Poissons Ratio (x) = 0.45157 -0.02581
# Poissons Ratio (y) = 0.70889 0.52434
# Poissons Ratio (z) = -0.02630 0.34032
#
# Static dielectric constant tensor:
#      x y z
#    x 2.029390 0.000000 0.016830 
#    y 0.000000 1.744510 0.000000 
#    z 0.016830 0.000000 1.794310 
# 
# From -- ./inp_files/193811.got.cif
#   From: 2010.05.17/outbox.cif.g08.bks.cpg/sg15_97_cif.got.tgz:193811.got - 2010.06.03 18:47:42.
