data_PCOD9307909
_publ_section_title
;
Structure prediction by ZEFSAII (Michael W. Deem and Ramdas Pophale) SiO2 
 PCOD9307909
Probable space group: C 2/C
;
_chemical_formula_sum "Si O2"
_cell_formula_units_Z 44
_cell_length_a 13.350798
_cell_length_b 18.781220
_cell_length_c 8.755942
_cell_angle_alpha 90.000000
_cell_angle_beta 121.394013
_cell_angle_gamma 90.000000
_cell_volume 1874.092276
_symmetry_space_group_name_H-M "C 2/C"
_symmetry_group_IT_number 15
_symmetry_cell_setting 'monoclinic'
loop_
_space_group_symop_operation_xyz
x,y,z
-x,y,1/2-z
-x,-y,-z
x,-y,1/2+z
1/2+x,1/2+y,z
1/2-x,1/2+y,1/2-z
1/2-x,1/2-y,-z
1/2+x,1/2-y,1/2+z
loop_
_atom_site_type_symbol
_atom_site_label
_atom_site_fract_x
_atom_site_fract_y
_atom_site_fract_z
Si Si1 0.255920 0.524737 0.990787
Si Si2 0.000000 0.217393 0.250000
Si Si3 0.828544 0.753506 0.868036
Si Si4 0.855134 0.860928 0.372922
Si Si5 0.500000 0.450729 0.250000
Si Si6 0.185055 0.396276 0.741358
Si Si7 0.000000 0.693666 0.250000
O O1 0.262057 0.581350 0.859073
O O2 0.195236 0.452905 0.886097
O O3 0.390977 0.500869 0.121759
O O4 0.202436 0.561608 0.097411
O O5 0.090774 0.259524 0.216566
O O6 0.077377 0.171317 0.428406
O O7 0.718117 0.700943 0.766789
O O8 0.784656 0.835037 0.829052
O O9 0.906008 0.737611 0.077696
O O10 0.949553 0.900439 0.342587
O O11 0.065738 0.354302 0.676531
#
# Coordination Sequence:
#
# PCOD9307909 Si02
#       7
#     8   4   8   8   4   8   4
#     4  12  26  47  74 115 154 201 255 320 387 464
#     4  12  25  44  78 116 151 200 248 324 401 440
#     4  12  28  51  78 115 156 204 262 322 384 461
#     4  12  26  48  77 117 155 200 259 323 383 464
#     4  12  25  47  78 114 154 204 250 326 398 446
#     4  12  28  51  77 112 158 199 262 320 385 466
#     4  12  30  53  80 112 153 218 256 320 391 450
#
# _framework density 23.478033
#
# number of rings (size 3 to 8) (size 9 to 14) (size 15 to 20)
#    0.000    0.000    3.636    5.455    2.545    5.818 
#    0.000    0.000    0.000    0.000    0.000    0.000 
#    0.000    0.000    0.000    0.000    0.000    0.000 
#
# Total GULP energy -123361.178873 kJ/mol
# GULP energy per Si atom -5607.326312 kJ/mol
# Density = 2.342460 g / cm^3
# Si number density = 23.478033 Si / 1000 Ang^3
#
#
#
# Elastic Constant Matrix: (Units=GPa)
#
#
# Indices 1 2 3 4 5 6 
#
# 1 144.0905 57.6893 45.6727 0.0000 -40.3313 0.0000
# 2 57.6893 126.3402 61.0002 0.0000 -15.1834 0.0000
# 3 45.6727 61.0002 117.5140 0.0000 -15.8266 0.0000
# 4 0.0000 0.0000 0.0000 32.1441 0.0000 -12.6283
# 5 -40.3313 -15.1834 -15.8266 0.0000 40.6367 0.0000
# 6 0.0000 0.0000 0.0000 -12.6283 0.0000 54.7483
#
#
#
# Elastic Compliance Matrix: (Units=1/GPa)
#
#
# Indices 1 2 3 4 5 6 
#
# 1 0.011399 -0.003392 -0.001390 0.000000 0.009505 0.000000
# 2 -0.003392 0.011714 -0.004882 0.000000 -0.000891 0.000000
# 3 -0.001390 -0.004882 0.011770 0.000000 0.001381 0.000000
# 4 0.000000 0.000000 0.000000 0.034210 0.000000 0.007891
# 5 0.009505 -0.000891 0.001381 0.000000 0.034246 0.000000
# 6 0.000000 0.000000 0.000000 0.007891 0.000000 0.020086
#
#
# Mechanical properties :
#
#
# Convention : Reuss Voigt Hill
#
# Bulk Modulus (GPa) = 64.28561 79.62989 71.95775
# Shear Modulus (GPa) = 33.79797 40.41132 37.10465
#
# Velocity S-wave (km/s) = 3.79827 4.15328 3.97974
# Velocity P-wave (km/s) = 6.83201 7.54918 7.19953
#
# Compressibility (1/GPa) = 0.01555558
#
# Stress axis : x y z
#
# Youngs Moduli (GPa) = 87.72779 85.36670 84.96137
#
# Poissons Ratio (x) = 0.28954 0.11806
# Poissons Ratio (y) = 0.29755 0.41482
# Poissons Ratio (z) = 0.12190 0.41680
#
# Static dielectric constant tensor:
#      x y z
#    x 1.917800 0.000000 0.018100 
#    y 0.000000 1.882790 0.000000 
#    z 0.018100 0.000000 1.895810 
# 
# From -- ./inp_files/39777.got.cif
#   From: 2010.05.17/outbox.cif.g08.bks.cpg/sg15_20_cif.got.tgz:39777.got - 2010.06.03 18:47:42.
