data_PCOD9307321
_publ_section_title
;
Structure prediction by ZEFSAII (Michael W. Deem and Ramdas Pophale) SiO2 
 PCOD9307321
Probable space group: C 2/C
;
_chemical_formula_sum "Si O2"
_cell_formula_units_Z 40
_cell_length_a 15.784553
_cell_length_b 5.288427
_cell_length_c 22.560921
_cell_angle_alpha 90.000000
_cell_angle_beta 69.286023
_cell_angle_gamma 90.000000
_cell_volume 1761.543559
_symmetry_space_group_name_H-M "C 2/C"
_symmetry_group_IT_number 15
_symmetry_cell_setting 'monoclinic'
loop_
_space_group_symop_operation_xyz
x,y,z
-x,y,1/2-z
-x,-y,-z
x,-y,1/2+z
1/2+x,1/2+y,z
1/2-x,1/2+y,1/2-z
1/2-x,1/2-y,-z
1/2+x,1/2-y,1/2+z
loop_
_atom_site_type_symbol
_atom_site_label
_atom_site_fract_x
_atom_site_fract_y
_atom_site_fract_z
Si Si1 0.000000 0.500000 0.500000
Si Si2 0.000000 0.742181 0.750000
Si Si3 0.136702 0.109243 0.657668
Si Si4 0.803928 0.668493 0.245683
Si Si5 0.977445 0.387178 0.641600
Si Si6 0.781325 0.501563 0.028118
O O1 0.020915 0.496346 0.423346
O O2 0.111436 0.502813 0.486965
O O3 0.015104 0.582598 0.805765
O O4 0.085446 0.917834 0.713788
O O5 0.161909 0.338901 0.694858
O O6 0.223582 0.003755 0.603078
O O7 0.061843 0.197929 0.628765
O O8 0.766937 0.396512 0.237464
O O9 0.882824 0.745749 0.180272
O O10 0.750000 0.250000 0.000000
O O11 0.750000 0.750000 0.000000
#
# Coordination Sequence:
#
# PCOD9307321 Si02
#       6
#     4   4   8   8   8   8
#     4  12  28  54  80 118 164 220 274 328 412 494
#     4  12  22  48  82 114 162 210 270 334 414 468
#     4  12  25  47  80 111 159 210 267 340 402 475
#     4  12  26  45  74 119 157 201 268 335 401 479
#     4  12  25  48  78 113 156 214 266 335 403 487
#     4  12  29  54  80 117 168 217 270 337 410 488
#
# _framework density 22.707359
#
# number of rings (size 3 to 8) (size 9 to 14) (size 15 to 20)
#    0.000    0.000    6.000    3.600    0.000    2.400 
#    7.200    0.000    0.000    0.000    0.000    0.000 
#    0.000    0.000    0.000    0.000    0.000    0.000 
#
# Total GULP energy -111399.624416 kJ/mol
# GULP energy per Si atom -5569.981221 kJ/mol
# Density = 2.265568 g / cm^3
# Si number density = 22.707359 Si / 1000 Ang^3
#
#
#
# Elastic Constant Matrix: (Units=GPa)
#
#
# Indices 1 2 3 4 5 6 
#
# 1 183.1286 41.7997 64.2672 0.0000 -15.3308 -0.0004
# 2 41.7997 88.5319 27.0537 -0.0001 9.5507 -0.0011
# 3 64.2672 27.0537 199.0419 0.0001 -3.2361 -0.0002
# 4 0.0000 -0.0001 0.0001 9.7264 -0.0001 0.1651
# 5 -15.3308 9.5507 -3.2361 -0.0001 58.3617 -0.0001
# 6 -0.0004 -0.0011 -0.0002 0.1651 -0.0001 24.4520
#
#
#
# Elastic Compliance Matrix: (Units=1/GPa)
#
#
# Indices 1 2 3 4 5 6 
#
# 1 0.006958 -0.002972 -0.001807 0.000000 0.002214 0.000000
# 2 -0.002972 0.013297 -0.000897 0.000000 -0.003006 0.000001
# 3 -0.001807 -0.000897 0.005729 0.000000 -0.000010 0.000000
# 4 0.000000 0.000000 0.000000 0.102825 0.000000 -0.000694
# 5 0.002214 -0.003006 -0.000010 0.000000 0.018208 0.000000
# 6 0.000000 0.000001 0.000000 -0.000694 0.000000 0.040901
#
#
# Mechanical properties :
#
#
# Convention : Reuss Voigt Hill
#
# Bulk Modulus (GPa) = 68.33586 81.88262 75.10924
# Shear Modulus (GPa) = 24.49218 41.01349 32.75283
#
# Velocity S-wave (km/s) = 3.28777 4.25452 3.80200
# Velocity P-wave (km/s) = 6.67623 7.76356 7.24034
#
# Compressibility (1/GPa) = 0.01463361
#
# Stress axis : x y z
#
# Youngs Moduli (GPa) = 143.70965 75.20534 174.54606
#
# Poissons Ratio (x) = 0.22352 0.31537
# Poissons Ratio (y) = 0.42712 0.15649
# Poissons Ratio (z) = 0.25966 0.06743
#
# Static dielectric constant tensor:
#      x y z
#    x 1.981820 0.000000 0.012750 
#    y 0.000000 1.880380 0.000000 
#    z 0.012750 0.000000 1.793440 
# 
# From -- ./inp_files/271847.got.cif
#   From: 2010.05.17/outbox.cif.g08.bks.cpg/sg15_136_cif.got.tgz:271847.got - 2010.06.03 18:47:42.
