data_PCOD9307401
_publ_section_title
;
Structure prediction by ZEFSAII (Michael W. Deem and Ramdas Pophale) SiO2 
 PCOD9307401
Probable space group: C 2/C
;
_chemical_formula_sum "Si O2"
_cell_formula_units_Z 60
_cell_length_a 15.108579
_cell_length_b 27.471432
_cell_length_c 6.567849
_cell_angle_alpha 90.000000
_cell_angle_beta 95.857288
_cell_angle_gamma 90.000000
_cell_volume 2711.781915
_symmetry_space_group_name_H-M "C 2/C"
_symmetry_group_IT_number 15
_symmetry_cell_setting 'monoclinic'
loop_
_space_group_symop_operation_xyz
x,y,z
-x,y,1/2-z
-x,-y,-z
x,-y,1/2+z
1/2+x,1/2+y,z
1/2-x,1/2+y,1/2-z
1/2-x,1/2-y,-z
1/2+x,1/2-y,1/2+z
loop_
_atom_site_type_symbol
_atom_site_label
_atom_site_fract_x
_atom_site_fract_y
_atom_site_fract_z
Si Si1 0.071495 0.488737 0.637812
Si Si2 0.588682 0.285089 0.144349
Si Si3 0.000000 0.270021 0.250000
Si Si4 0.594235 0.194069 0.389693
Si Si5 0.181729 0.600840 0.225408
Si Si6 0.568586 0.519800 0.400459
Si Si7 0.755893 0.960442 0.102068
Si Si8 0.163750 0.888793 0.054535
O O1 0.045801 0.506613 0.387172
O O2 0.100013 0.431713 0.621282
O O3 0.163524 0.520458 0.671966
O O4 0.500000 0.297602 0.250000
O O5 0.634092 0.243250 0.295652
O O6 0.557278 0.261548 0.923217
O O7 0.637710 0.334925 0.114261
O O8 0.932598 0.299686 0.380662
O O9 0.500000 0.188790 0.250000
O O10 0.649353 0.146982 0.345634
O O11 0.232419 0.565163 0.387807
O O12 0.252224 0.615538 0.073646
O O13 0.546269 0.490818 0.633666
O O14 0.671360 0.501773 0.415537
O O15 0.582692 0.577976 0.444685
O O16 0.803255 0.920074 0.248183
#
# Coordination Sequence:
#
# PCOD9307401 Si02
#       8
#     8   8   4   8   8   8   8   8
#     4  12  23  43  70  95 137 191 231 287 345 404
#     4   9  22  42  68  99 136 175 235 290 346 428
#     4   8  18  44  70  96 132 172 234 294 338 430
#     4   9  21  43  71 100 134 174 237 287 347 426
#     4  12  25  43  68 103 141 178 233 293 342 422
#     4  12  24  43  69  95 138 193 232 287 345 410
#     4  12  26  46  63 104 148 179 242 287 338 430
#     4  12  26  42  66 102 142 181 232 293 353 413
#
# _framework density 22.125674
#
# number of rings (size 3 to 8) (size 9 to 14) (size 15 to 20)
#    0.000    1.333    4.000    2.800    2.800    4.800 
#    1.200    1.333    0.000    0.000    0.000    0.000 
#    0.000    0.000    0.000    0.000    0.000    0.000 
#
# Total GULP energy -167447.616206 kJ/mol
# GULP energy per Si atom -5581.587207 kJ/mol
# Density = 2.207531 g / cm^3
# Si number density = 22.125674 Si / 1000 Ang^3
#
#
#
# Elastic Constant Matrix: (Units=GPa)
#
#
# Indices 1 2 3 4 5 6 
#
# 1 113.5313 55.3712 46.0566 0.0000 -12.9368 0.0000
# 2 55.3712 158.3195 52.0904 0.0000 -15.0738 0.0000
# 3 46.0566 52.0904 133.6485 0.0000 -16.4292 0.0000
# 4 0.0000 0.0000 0.0000 20.6987 0.0000 -20.8267
# 5 -12.9368 -15.0738 -16.4292 0.0000 50.0702 0.0000
# 6 0.0000 0.0000 0.0000 -20.8267 0.0000 27.5854
#
#
#
# Elastic Compliance Matrix: (Units=1/GPa)
#
#
# Indices 1 2 3 4 5 6 
#
# 1 0.011494 -0.003041 -0.002629 0.000000 0.001191 0.000000
# 2 -0.003041 0.008133 -0.001998 0.000000 0.001007 0.000000
# 3 -0.002629 -0.001998 0.009388 0.000000 0.001800 0.000000
# 4 0.000000 0.000000 0.000000 0.201021 0.000000 0.151769
# 5 0.001191 0.001007 0.001800 0.000000 0.021174 0.000000
# 6 0.000000 0.000000 0.000000 0.151769 0.000000 0.150836
#
#
# Mechanical properties :
#
#
# Convention : Reuss Voigt Hill
#
# Bulk Modulus (GPa) = 73.10822 79.17065 76.13943
# Shear Modulus (GPa) = 11.84998 36.46958 24.15978
#
# Velocity S-wave (km/s) = 2.31676 4.06432 3.30803
# Velocity P-wave (km/s) = 6.34590 7.60821 7.00555
#
# Compressibility (1/GPa) = 0.01367835
#
# Stress axis : x y z
#
# Youngs Moduli (GPa) = 87.00355 122.95016 106.51540
#
# Poissons Ratio (x) = 0.37395 0.28003
# Poissons Ratio (y) = 0.26462 0.21283
# Poissons Ratio (z) = 0.22873 0.24567
#
# Static dielectric constant tensor:
#      x y z
#    x 1.807680 0.000000 0.008860 
#    y 0.000000 1.804070 0.000000 
#    z 0.008860 0.000000 1.963350 
# 
# From -- ./inp_files/11560.got.cif
#   From: 2010.05.17/outbox.cif.g08.bks.cpg/sg15_6_cif.got.tgz:11560.got - 2010.06.03 18:47:42.
