data_PCOD9307494
_publ_section_title
;
Structure prediction by ZEFSAII (Michael W. Deem and Ramdas Pophale) SiO2 
 PCOD9307494
Probable space group: C 2/C
;
_chemical_formula_sum "Si O2"
_cell_formula_units_Z 48
_cell_length_a 12.536505
_cell_length_b 7.082521
_cell_length_c 26.322208
_cell_angle_alpha 90.000000
_cell_angle_beta 46.933862
_cell_angle_gamma 90.000000
_cell_volume 1707.442559
_symmetry_space_group_name_H-M "C 2/C"
_symmetry_group_IT_number 15
_symmetry_cell_setting 'monoclinic'
loop_
_space_group_symop_operation_xyz
x,y,z
-x,y,1/2-z
-x,-y,-z
x,-y,1/2+z
1/2+x,1/2+y,z
1/2-x,1/2+y,1/2-z
1/2-x,1/2-y,-z
1/2+x,1/2-y,1/2+z
loop_
_atom_site_type_symbol
_atom_site_label
_atom_site_fract_x
_atom_site_fract_y
_atom_site_fract_z
Si Si1 0.139385 0.275589 0.781052
Si Si2 0.035726 0.143412 0.297676
Si Si3 0.311491 0.481401 0.433472
Si Si4 0.258128 0.308757 0.635576
Si Si5 0.997336 0.511844 0.584117
Si Si6 0.551955 0.370212 0.437784
O O1 0.075816 0.067351 0.803292
O O2 0.306786 0.261723 0.745770
O O3 0.147898 0.305525 0.718166
O O4 0.049473 0.421946 0.845674
O O5 0.000000 0.151075 0.250000
O O6 0.888885 0.160073 0.379691
O O7 0.281161 0.313824 0.401475
O O8 0.164547 0.530497 0.512659
O O9 0.422777 0.400266 0.439180
O O10 0.295346 0.528473 0.620980
O O11 0.405236 0.201343 0.606620
O O12 0.933343 0.353722 0.565527
O O13 0.500000 0.500000 0.500000
#
# Coordination Sequence:
#
# PCOD9307494 Si02
#       6
#     8   8   8   8   8   8
#     4  12  23  46  75 107 151 201 254 319 386 459
#     4  12  25  46  76 109 152 202 258 324 389 463
#     4  12  25  47  76 108 151 201 254 314 389 459
#     4  12  26  48  76 109 152 204 251 326 388 452
#     4  12  26  47  74 113 153 196 255 320 386 457
#     4  12  27  46  74 110 152 195 254 317 382 472
#
# _framework density 28.112219
#
# number of rings (size 3 to 8) (size 9 to 14) (size 15 to 20)
#    0.000    0.000    8.333    1.000    0.000    0.667 
#    0.000    0.833    7.333    0.000    0.000    0.000 
#    0.000    0.000    0.000    0.000    0.000    0.000 
#
# Total GULP energy -134389.498520 kJ/mol
# GULP energy per Si atom -5599.562438 kJ/mol
# Density = 2.804823 g / cm^3
# Si number density = 28.112219 Si / 1000 Ang^3
#
#
#
# Elastic Constant Matrix: (Units=GPa)
#
#
# Indices 1 2 3 4 5 6 
#
# 1 175.1867 21.2341 66.9120 0.0000 -4.5855 0.0003
# 2 21.2341 92.5936 35.5571 0.0002 -9.8646 0.0006
# 3 66.9120 35.5571 227.0310 -0.0001 11.2380 -0.0002
# 4 0.0000 0.0002 -0.0001 48.8886 0.0000 -2.7347
# 5 -4.5855 -9.8646 11.2380 0.0000 45.0212 0.0001
# 6 0.0003 0.0006 -0.0002 -2.7347 0.0001 45.7463
#
#
#
# Elastic Compliance Matrix: (Units=1/GPa)
#
#
# Indices 1 2 3 4 5 6 
#
# 1 0.006529 -0.000676 -0.001867 0.000000 0.000983 0.000000
# 2 -0.000676 0.011977 -0.001826 0.000000 0.003011 0.000000
# 3 -0.001867 -0.001826 0.005336 0.000000 -0.001922 0.000000
# 4 0.000000 0.000000 0.000000 0.020523 0.000000 0.001227
# 5 0.000983 0.003011 -0.001922 0.000000 0.023451 0.000000
# 6 0.000000 0.000000 0.000000 0.001227 0.000000 0.021933
#
#
# Mechanical properties :
#
#
# Convention : Reuss Voigt Hill
#
# Bulk Modulus (GPa) = 66.20339 82.46866 74.33603
# Shear Modulus (GPa) = 48.29928 52.67175 50.48552
#
# Velocity S-wave (km/s) = 4.14948 4.33323 4.24235
# Velocity P-wave (km/s) = 6.82337 7.37802 7.10611
#
# Compressibility (1/GPa) = 0.01510497
#
# Stress axis : x y z
#
# Youngs Moduli (GPa) = 153.16411 83.49552 187.40429
#
# Poissons Ratio (x) = 0.05640 0.34990
# Poissons Ratio (y) = 0.10347 0.34215
# Poissons Ratio (z) = 0.28597 0.15244
#
# Static dielectric constant tensor:
#      x y z
#    x 2.248040 0.000000 -0.026960 
#    y 0.000000 2.296710 0.000000 
#    z -0.026960 0.000000 2.558900 
# 
# From -- ./inp_files/312818.got.cif
#   From: 2010.05.17/outbox.cif.g08.bks.cpg/sg15_157_cif.got.tgz:312818.got - 2010.06.03 18:47:42.
