data_PCOD9307516
_publ_section_title
;
Structure prediction by ZEFSAII (Michael W. Deem and Ramdas Pophale) SiO2 
 PCOD9307516
Probable space group: C 2/C
;
_chemical_formula_sum "Si O2"
_cell_formula_units_Z 48
_cell_length_a 8.858733
_cell_length_b 12.972342
_cell_length_c 24.625710
_cell_angle_alpha 90.000000
_cell_angle_beta 40.259473
_cell_angle_gamma 90.000000
_cell_volume 1828.855642
_symmetry_space_group_name_H-M "C 2/C"
_symmetry_group_IT_number 15
_symmetry_cell_setting 'monoclinic'
loop_
_space_group_symop_operation_xyz
x,y,z
-x,y,1/2-z
-x,-y,-z
x,-y,1/2+z
1/2+x,1/2+y,z
1/2-x,1/2+y,1/2-z
1/2-x,1/2-y,-z
1/2+x,1/2-y,1/2+z
loop_
_atom_site_type_symbol
_atom_site_label
_atom_site_fract_x
_atom_site_fract_y
_atom_site_fract_z
Si Si1 0.721778 0.245332 0.923172
Si Si2 0.775961 0.004639 0.165027
Si Si3 0.756114 0.332243 0.405764
Si Si4 0.169965 0.336041 0.844019
Si Si5 0.326815 0.711633 0.178128
Si Si6 0.886448 0.954421 0.337519
O O1 0.821228 0.270612 0.835860
O O2 0.724009 0.121226 0.918221
O O3 0.894692 0.306933 0.916216
O O4 0.464328 0.286841 0.002773
O O5 0.500000 0.025075 0.250000
O O6 0.787844 0.945455 0.105140
O O7 0.881832 0.946687 0.187431
O O8 0.940619 0.104658 0.124683
O O9 0.774976 0.259947 0.347480
O O10 0.998364 0.308053 0.368314
O O11 0.254164 0.325434 0.758372
O O12 0.254369 0.440084 0.852213
O O13 0.000000 0.917762 0.250000
#
# Coordination Sequence:
#
# PCOD9307516 Si02
#       6
#     8   8   8   8   8   8
#     4  12  29  45  74 114 154 200 248 306 393 462
#     4  12  26  46  77 108 146 194 259 313 373 445
#     4  12  27  47  72 111 158 200 241 314 389 455
#     4  12  23  47  77 107 147 193 262 315 367 447
#     4  12  26  49  73 108 147 200 257 314 371 449
#     4  12  25  46  76 110 142 196 259 313 374 447
#
# _framework density 26.245923000000001
#
# number of rings (size 3 to 8) (size 9 to 14) (size 15 to 20)
#    0.000    0.000    5.000    5.000    2.333    2.667 
#    0.000    0.000    0.000    0.000    0.000    0.000 
#    0.000    0.000    0.000    0.000    0.000    0.000 
#
# Total GULP energy -133729.662808 kJ/mol
# GULP energy per Si atom -5572.069284 kJ/mol
# Density = 2.618619 g / cm^3
# Si number density = 26.245923 Si / 1000 Ang^3
#
#
#
# Elastic Constant Matrix: (Units=GPa)
#
#
# Indices 1 2 3 4 5 6 
#
# 1 132.4186 28.4951 24.8896 0.0001 7.8189 0.0012
# 2 28.4951 66.3180 36.9462 -0.0006 2.3528 0.0000
# 3 24.8896 36.9462 89.9221 -0.0013 -2.0966 -0.0002
# 4 0.0001 -0.0006 -0.0013 29.1191 0.0003 8.1251
# 5 7.8189 2.3528 -2.0966 0.0003 19.9840 -0.0007
# 6 0.0012 0.0000 -0.0002 8.1251 -0.0007 38.9826
#
#
#
# Elastic Compliance Matrix: (Units=1/GPa)
#
#
# Indices 1 2 3 4 5 6 
#
# 1 0.008596 -0.002872 -0.001273 0.000000 -0.003158 0.000000
# 2 -0.002872 0.020715 -0.007766 0.000000 -0.002130 0.000000
# 3 -0.001273 -0.007766 0.014733 0.000000 0.002958 0.000000
# 4 0.000000 0.000000 0.000000 0.036462 -0.000001 -0.007600
# 5 -0.003158 -0.002130 0.002958 -0.000001 0.051837 0.000001
# 6 0.000000 0.000000 0.000000 -0.007600 0.000001 0.027236
#
#
# Mechanical properties :
#
#
# Convention : Reuss Voigt Hill
#
# Bulk Modulus (GPa) = 49.45158 52.14672 50.79915
# Shear Modulus (GPa) = 26.29628 30.83899 28.56764
#
# Velocity S-wave (km/s) = 3.16874 3.43155 3.30276
# Velocity P-wave (km/s) = 5.68071 5.96761 5.82592
#
# Compressibility (1/GPa) = 0.02022180
#
# Stress axis : x y z
#
# Youngs Moduli (GPa) = 116.33861 48.27443 67.87620
#
# Poissons Ratio (x) = 0.13865 0.08639
# Poissons Ratio (y) = 0.33415 0.52711
# Poissons Ratio (z) = 0.14807 0.37489
#
# Static dielectric constant tensor:
#      x y z
#    x 2.140960 0.000000 -0.000820 
#    y 0.000000 2.467350 0.000000 
#    z -0.000820 0.000000 2.067990 
# 
# From -- ./inp_files/288986.got.cif
#   From: 2010.05.17/outbox.cif.g08.bks.cpg/sg15_145_cif.got.tgz:288986.got - 2010.06.03 18:47:42.
