data_PCOD9307768
_publ_section_title
;
Structure prediction by ZEFSAII (Michael W. Deem and Ramdas Pophale) SiO2 
 PCOD9307768
Probable space group: C 2/C
;
_chemical_formula_sum "Si O2"
_cell_formula_units_Z 48
_cell_length_a 10.907704
_cell_length_b 16.740039
_cell_length_c 12.425739
_cell_angle_alpha 90.000000
_cell_angle_beta 83.019855
_cell_angle_gamma 90.000000
_cell_volume 2252.066440
_symmetry_space_group_name_H-M "C 2/C"
_symmetry_group_IT_number 15
_symmetry_cell_setting 'monoclinic'
loop_
_space_group_symop_operation_xyz
x,y,z
-x,y,1/2-z
-x,-y,-z
x,-y,1/2+z
1/2+x,1/2+y,z
1/2-x,1/2+y,1/2-z
1/2-x,1/2-y,-z
1/2+x,1/2-y,1/2+z
loop_
_atom_site_type_symbol
_atom_site_label
_atom_site_fract_x
_atom_site_fract_y
_atom_site_fract_z
Si Si1 0.255807 0.233829 0.271181
Si Si2 0.000000 0.019093 0.750000
Si Si3 0.372813 0.773062 0.421153
Si Si4 0.000000 0.348425 0.750000
Si Si5 0.456271 0.910363 0.988978
Si Si6 0.442328 0.623712 0.102865
Si Si7 0.186764 0.119635 0.606550
O O1 0.177963 0.286144 0.194756
O O2 0.386251 0.202510 0.214703
O O3 0.171779 0.160543 0.317694
O O4 0.294639 0.287948 0.366871
O O5 0.118719 0.073882 0.711197
O O6 0.017655 0.958450 0.847190
O O7 0.250000 0.750000 0.500000
O O8 0.453262 0.845042 0.463122
O O9 0.455681 0.693251 0.406088
O O10 0.950658 0.393744 0.860959
O O11 0.322083 0.907586 0.057873
O O12 0.500000 0.000000 0.000000
O O13 0.401496 0.611053 0.985760
#
# Coordination Sequence:
#
# PCOD9307768 Si02
#       7
#     8   4   8   4   8   8   8
#     4  12  24  47  77 104 146 189 251 303 366 440
#     4  12  29  46  73 110 154 198 242 312 371 436
#     4  12  26  45  76 105 142 194 249 302 368 442
#     4  12  25  48  75 108 140 200 242 310 369 442
#     4  12  29  47  73 110 153 192 241 311 378 439
#     4  12  25  50  72 106 146 197 247 305 365 436
#     4  12  28  47  74 109 147 193 248 305 369 440
#
# _framework density 21.313756999999999
#
# number of rings (size 3 to 8) (size 9 to 14) (size 15 to 20)
#    0.000    0.000    6.667    2.500    7.000    2.667 
#    0.000    0.000    0.000    0.000    0.000    0.000 
#    0.000    0.000    0.000    0.000    0.000    0.000 
#
# Total GULP energy -134198.450937 kJ/mol
# GULP energy per Si atom -5591.602122 kJ/mol
# Density = 2.126525 g / cm^3
# Si number density = 21.313757 Si / 1000 Ang^3
#
#
#
# Elastic Constant Matrix: (Units=GPa)
#
#
# Indices 1 2 3 4 5 6 
#
# 1 128.4046 47.4716 37.2866 0.0000 -19.9254 0.0000
# 2 47.4716 78.6326 21.9081 0.0000 -7.7328 0.0000
# 3 37.2866 21.9081 74.3347 0.0000 -0.9378 0.0000
# 4 0.0000 0.0000 0.0000 -20.2587 0.0000 2.8067
# 5 -19.9254 -7.7328 -0.9378 0.0000 54.5882 0.0000
# 6 0.0000 0.0000 0.0000 2.8067 0.0000 21.8360
#
#
#
# Elastic Compliance Matrix: (Units=1/GPa)
#
#
# Indices 1 2 3 4 5 6 
#
# 1 0.011536 -0.005483 -0.004128 0.000000 0.003363 0.000000
# 2 -0.005483 0.016660 -0.002156 0.000000 0.000321 0.000000
# 3 -0.004128 -0.002156 0.016139 0.000000 -0.001535 0.000000
# 4 0.000000 0.000000 0.000000 -0.048498 0.000000 0.006234
# 5 0.003363 0.000321 -0.001535 0.000000 0.019566 0.000000
# 6 0.000000 0.000000 0.000000 0.006234 0.000000 0.044995
#
#
# Mechanical properties :
#
#
# Convention : Reuss Voigt Hill
#
# Bulk Modulus (GPa) = 48.07412 54.96717 51.52065
# Shear Modulus (GPa) = 55.02714 22.88015 38.95365
#
# Velocity S-wave (km/s) = 5.08662 3.27997 4.27972
# Velocity P-wave (km/s) = 7.55663 6.33954 6.97469
#
# Compressibility (1/GPa) = 0.02080121
#
# Stress axis : x y z
#
# Youngs Moduli (GPa) = 86.68795 60.02417 61.96131
#
# Poissons Ratio (x) = 0.32914 0.25576
# Poissons Ratio (y) = 0.47535 0.13356
# Poissons Ratio (z) = 0.35783 0.12938
#
# Static dielectric constant tensor:
#      x y z
#    x 1.826500 0.000000 -0.043710 
#    y 0.000000 1.718370 0.000000 
#    z -0.043710 0.000000 1.929860 
# 
# From -- ./inp_files/87831.got.cif
#   From: 2010.05.17/outbox.cif.g08.bks.cpg/sg15_44_cif.got.tgz:87831.got - 2010.06.03 18:47:42.
