data_PCOD9307697
_publ_section_title
;
Structure prediction by ZEFSAII (Michael W. Deem and Ramdas Pophale) SiO2 
 PCOD9307697
Probable space group: C 2/C
;
_chemical_formula_sum "Si O2"
_cell_formula_units_Z 40
_cell_length_a 9.928050
_cell_length_b 12.517278
_cell_length_c 23.117985
_cell_angle_alpha 90.000000
_cell_angle_beta 29.638204
_cell_angle_gamma 90.000000
_cell_volume 1420.721751
_symmetry_space_group_name_H-M "C 2/C"
_symmetry_group_IT_number 15
_symmetry_cell_setting 'monoclinic'
loop_
_space_group_symop_operation_xyz
x,y,z
-x,y,1/2-z
-x,-y,-z
x,-y,1/2+z
1/2+x,1/2+y,z
1/2-x,1/2+y,1/2-z
1/2-x,1/2-y,-z
1/2+x,1/2-y,1/2+z
loop_
_atom_site_type_symbol
_atom_site_label
_atom_site_fract_x
_atom_site_fract_y
_atom_site_fract_z
Si Si1 0.183859 0.186036 0.455239
Si Si2 0.104143 0.400000 0.424682
Si Si3 0.312522 0.786034 0.273358
Si Si4 0.522074 0.648416 0.094141
Si Si5 0.862608 0.499193 0.705175
O O1 0.038425 0.144062 0.450948
O O2 0.410850 0.094659 0.383943
O O3 0.253101 0.306854 0.405220
O O4 0.974885 0.202747 0.586473
O O5 0.831430 0.343224 0.499529
O O6 0.000000 0.500000 0.500000
O O7 0.230096 0.455703 0.321698
O O8 0.500000 0.724294 0.250000
O O9 0.337896 0.727728 0.202262
O O10 0.455996 0.898780 0.206732
O O11 0.405017 0.537920 0.161854
#
# Coordination Sequence:
#
# PCOD9307697 Si02
#       5
#     8   8   8   8   8
#     4  12  26  51  79 115 155 205 271 326 389 488
#     4  12  27  50  78 113 161 208 261 330 397 472
#     4  12  24  45  77 107 150 205 251 323 402 460
#     4  12  26  50  74 112 158 201 260 327 397 474
#     4  12  28  47  79 118 153 209 265 324 401 477
#
# _framework density 28.154703000000001
#
# number of rings (size 3 to 8) (size 9 to 14) (size 15 to 20)
#    0.000    0.000    4.000    6.000    0.000    7.200 
#    3.600    0.000    0.000    0.000    0.000    0.000 
#    0.000    0.000    0.000    0.000    0.000    0.000 
#
# Total GULP energy -111990.410922 kJ/mol
# GULP energy per Si atom -5599.520546 kJ/mol
# Density = 2.809062 g / cm^3
# Si number density = 28.154703 Si / 1000 Ang^3
#
#
#
# Elastic Constant Matrix: (Units=GPa)
#
#
# Indices 1 2 3 4 5 6 
#
# 1 165.2356 44.7945 71.1115 -0.0058 21.7461 0.0025
# 2 44.7945 144.0141 36.0790 0.0050 6.6627 -0.0007
# 3 71.1115 36.0790 138.4203 0.0121 11.0461 -0.0099
# 4 -0.0058 0.0050 0.0121 63.2098 0.0107 -0.9996
# 5 21.7461 6.6627 11.0461 0.0107 59.6035 -0.0037
# 6 0.0025 -0.0007 -0.0099 -0.9996 -0.0037 37.7173
#
#
#
# Elastic Compliance Matrix: (Units=1/GPa)
#
#
# Indices 1 2 3 4 5 6 
#
# 1 0.008363 -0.001570 -0.003713 0.000002 -0.002188 -0.000002
# 2 -0.001570 0.007737 -0.001205 -0.000001 -0.000069 0.000000
# 3 -0.003713 -0.001205 0.009467 -0.000002 -0.000265 0.000003
# 4 0.000002 -0.000001 -0.000002 0.015827 -0.000003 0.000419
# 5 -0.002188 -0.000069 -0.000265 -0.000003 0.017633 0.000002
# 6 -0.000002 0.000000 0.000003 0.000419 0.000002 0.026524
#
#
# Mechanical properties :
#
#
# Convention : Reuss Voigt Hill
#
# Bulk Modulus (GPa) = 79.41165 83.51555 81.46360
# Shear Modulus (GPa) = 48.67449 51.81845 50.24647
#
# Velocity S-wave (km/s) = 4.16242 4.29475 4.22910
# Velocity P-wave (km/s) = 7.16713 7.37025 7.26940
#
# Compressibility (1/GPa) = 0.01259261
#
# Stress axis : x y z
#
# Youngs Moduli (GPa) = 119.56942 129.24798 105.63139
#
# Poissons Ratio (x) = 0.20292 0.39218
# Poissons Ratio (y) = 0.18772 0.12724
# Poissons Ratio (z) = 0.44393 0.15569
#
# Static dielectric constant tensor:
#      x y z
#    x 2.192680 -0.000010 -0.036580 
#    y -0.000010 2.332360 0.000000 
#    z -0.036580 0.000000 2.212280 
# 
# From -- ./inp_files/292361.got.cif
#   From: 2010.05.17/outbox.cif.g08.bks.cpg/sg15_147_cif.got.tgz:292361.got - 2010.06.03 18:47:42.
