data_PCOD9307676
_publ_section_title
;
Structure prediction by ZEFSAII (Michael W. Deem and Ramdas Pophale) SiO2 
 PCOD9307676
Probable space group: C 2/C
;
_chemical_formula_sum "Si O2"
_cell_formula_units_Z 40
_cell_length_a 14.205184
_cell_length_b 17.808324
_cell_length_c 10.044596
_cell_angle_alpha 90.000000
_cell_angle_beta 135.000039
_cell_angle_gamma 90.000000
_cell_volume 1796.747679
_symmetry_space_group_name_H-M "C 2/C"
_symmetry_group_IT_number 15
_symmetry_cell_setting 'monoclinic'
loop_
_space_group_symop_operation_xyz
x,y,z
-x,y,1/2-z
-x,-y,-z
x,-y,1/2+z
1/2+x,1/2+y,z
1/2-x,1/2+y,1/2-z
1/2-x,1/2-y,-z
1/2+x,1/2-y,1/2+z
loop_
_atom_site_type_symbol
_atom_site_label
_atom_site_fract_x
_atom_site_fract_y
_atom_site_fract_z
Si Si1 0.628361 0.726342 0.582236
Si Si2 0.197640 0.580295 0.795493
Si Si3 0.152148 0.830295 0.599787
Si Si4 0.000000 0.924033 0.250000
Si Si5 0.296126 0.523658 0.174487
Si Si6 0.000000 0.674033 0.750000
O O1 0.695592 0.646264 0.623696
O O2 0.723446 0.774747 0.772592
O O3 0.480980 0.713734 0.491029
O O4 0.609595 0.772832 0.426807
O O5 0.200855 0.524747 0.674301
O O6 0.061351 0.622102 0.696528
O O7 0.239952 0.536267 0.970932
O O8 0.114822 0.872102 0.426172
O O9 0.178103 0.896264 0.732510
O O10 0.067212 0.977168 0.207617
#
# Coordination Sequence:
#
# PCOD9307676 Si02
#       6
#     8   8   8   4   8   4
#     4  12  24  45  73 106 140 189 240 302 351 429
#     4  12  25  45  74 106 143 186 245 296 360 424
#     4  12  25  45  74 106 143 186 245 296 360 424
#     4  12  24  45  70 107 144 186 246 296 358 429
#     4  12  24  45  73 106 140 189 240 302 351 429
#     4  12  24  45  70 107 144 186 246 296 358 429
#
# _framework density 22.262447999999999
#
# number of rings (size 3 to 8) (size 9 to 14) (size 15 to 20)
#    0.000    0.000    8.000    3.600    0.000    1.600 
#    0.000    0.000    0.000    0.000    0.000    0.000 
#    0.000    0.000    0.000    0.000    0.000    0.000 
#
# Total GULP energy -112011.693313 kJ/mol
# GULP energy per Si atom -5600.584666 kJ/mol
# Density = 2.221178 g / cm^3
# Si number density = 22.262448 Si / 1000 Ang^3
#
#
#
# Elastic Constant Matrix: (Units=GPa)
#
#
# Indices 1 2 3 4 5 6 
#
# 1 47.9137 41.5730 -5.5658 0.0000 11.9455 0.0000
# 2 41.5730 129.3307 41.5736 0.0000 0.0003 0.0000
# 3 -5.5658 41.5736 47.9131 0.0000 -11.9451 0.0000
# 4 0.0000 0.0000 0.0000 12.6786 0.0000 0.0012
# 5 11.9455 0.0003 -11.9451 0.0000 38.0769 0.0000
# 6 0.0000 0.0000 0.0000 0.0012 0.0000 12.6803
#
#
#
# Elastic Compliance Matrix: (Units=1/GPa)
#
#
# Indices 1 2 3 4 5 6 
#
# 1 0.042883 -0.020579 0.021137 0.000000 -0.006822 0.000000
# 2 -0.020579 0.020963 -0.020580 0.000000 0.000000 0.000000
# 3 0.021137 -0.020580 0.042884 0.000000 0.006822 0.000000
# 4 0.000000 0.000000 0.000000 0.078873 0.000000 -0.000008
# 5 -0.006822 0.000000 0.006822 0.000000 0.030543 0.000000
# 6 0.000000 0.000000 0.000000 -0.000008 0.000000 0.078862
#
#
# Mechanical properties :
#
#
# Convention : Reuss Voigt Hill
#
# Bulk Modulus (GPa) = 14.99570 42.25767 28.62669
# Shear Modulus (GPa) = 13.99463 22.52560 18.26012
#
# Velocity S-wave (km/s) = 2.50995 3.18436 2.86706
# Velocity P-wave (km/s) = 3.89234 5.70465 4.88330
#
# Compressibility (1/GPa) = 0.06668579
#
# Stress axis : x y z
#
# Youngs Moduli (GPa) = 23.31941 47.70422 23.31875
#
# Poissons Ratio (x) = 0.98171 -0.49288
# Poissons Ratio (y) = 0.47989 0.47989
# Poissons Ratio (z) = -0.49290 0.98173
#
# Static dielectric constant tensor:
#      x y z
#    x 1.832500 0.000000 0.000000 
#    y 0.000000 1.824840 0.000000 
#    z 0.000000 0.000000 1.832500 
# 
# From -- ./inp_files/98539.got.cif
#   From: 2010.05.17/outbox.cif.g08.bks.cpg/sg15_50_cif.got.tgz:98539.got - 2010.06.03 18:47:42.
