data_PCOD9307610
_publ_section_title
;
Structure prediction by ZEFSAII (Michael W. Deem and Ramdas Pophale) SiO2 
 PCOD9307610
Probable space group: C 2/C
;
_chemical_formula_sum "Si O2"
_cell_formula_units_Z 40
_cell_length_a 7.683104
_cell_length_b 27.637798
_cell_length_c 7.648337
_cell_angle_alpha 90.000000
_cell_angle_beta 76.633810
_cell_angle_gamma 90.000000
_cell_volume 1580.086753
_symmetry_space_group_name_H-M "C 2/C"
_symmetry_group_IT_number 15
_symmetry_cell_setting 'monoclinic'
loop_
_space_group_symop_operation_xyz
x,y,z
-x,y,1/2-z
-x,-y,-z
x,-y,1/2+z
1/2+x,1/2+y,z
1/2-x,1/2+y,1/2-z
1/2-x,1/2-y,-z
1/2+x,1/2-y,1/2+z
loop_
_atom_site_type_symbol
_atom_site_label
_atom_site_fract_x
_atom_site_fract_y
_atom_site_fract_z
Si Si1 0.827137 0.799728 0.903617
Si Si2 0.138753 0.941108 0.459366
Si Si3 0.217804 0.124418 0.393695
Si Si4 0.793836 0.646117 0.746066
Si Si5 0.812116 0.529149 0.276574
O O1 0.000000 0.785878 0.750000
O O2 0.750000 0.750000 0.000000
O O3 0.834046 0.827260 0.086225
O O4 0.248622 0.841101 0.716563
O O5 0.240382 0.909135 0.291856
O O6 0.256920 0.949868 0.603106
O O7 0.968182 0.907498 0.553981
O O8 0.149286 0.994442 0.370175
O O9 0.251113 0.157146 0.555664
O O10 0.343697 0.077610 0.382218
O O11 0.000000 0.655369 0.750000
O O12 0.000000 0.501844 0.250000
#
# Coordination Sequence:
#
# PCOD9307610 Si02
#       5
#     8   8   8   8   8
#     4  12  27  53  81 119 159 205 271 337 408 485
#     4  12  24  45  71 115 163 212 266 319 394 484
#     4  12  26  48  78 114 161 213 267 333 400 478
#     4  12  26  48  79 114 159 208 266 336 402 472
#     4  12  24  43  72 115 165 212 268 324 394 478
#
# _framework density 25.315065000000001
#
# number of rings (size 3 to 8) (size 9 to 14) (size 15 to 20)
#    0.000    0.000    4.000    6.000    0.000    2.400 
#    0.000    2.000    0.000    0.000    0.000    0.000 
#    0.000    0.000    0.000    0.000    0.000    0.000 
#
# Total GULP energy -111416.901640 kJ/mol
# GULP energy per Si atom -5570.845082 kJ/mol
# Density = 2.525745 g / cm^3
# Si number density = 25.315065 Si / 1000 Ang^3
#
#
#
# Elastic Constant Matrix: (Units=GPa)
#
#
# Indices 1 2 3 4 5 6 
#
# 1 108.3860 4.2507 22.1135 0.0000 -13.3392 0.0000
# 2 4.2507 159.8195 45.6361 0.0000 -11.2880 0.0000
# 3 22.1135 45.6361 160.3494 0.0000 14.9117 0.0000
# 4 0.0000 0.0000 0.0000 48.8098 0.0000 -14.6612
# 5 -13.3392 -11.2880 14.9117 0.0000 49.5308 0.0000
# 6 0.0000 0.0000 0.0000 -14.6612 0.0000 17.3856
#
#
#
# Elastic Compliance Matrix: (Units=1/GPa)
#
#
# Indices 1 2 3 4 5 6 
#
# 1 0.009993 0.000494 -0.001831 0.000000 0.003355 0.000000
# 2 0.000494 0.007076 -0.002309 0.000000 0.002441 0.000000
# 3 -0.001831 -0.002309 0.007449 0.000000 -0.003262 0.000000
# 4 0.000000 0.000000 0.000000 0.027438 0.000000 0.023138
# 5 0.003355 0.002441 -0.003262 0.000000 0.022631 0.000000
# 6 0.000000 0.000000 0.000000 0.023138 0.000000 0.077031
#
#
# Mechanical properties :
#
#
# Convention : Reuss Voigt Hill
#
# Bulk Modulus (GPa) = 58.04855 63.61729 60.83292
# Shear Modulus (GPa) = 30.36705 46.91555 38.64130
#
# Velocity S-wave (km/s) = 3.46723 4.30963 3.91117
# Velocity P-wave (km/s) = 6.24573 7.06743 6.66925
#
# Compressibility (1/GPa) = 0.01722696
#
# Stress axis : x y z
#
# Youngs Moduli (GPa) = 100.06662 141.33112 134.24088
#
# Poissons Ratio (x) = -0.06981 0.24576
# Poissons Ratio (y) = -0.04943 0.30994
# Poissons Ratio (z) = 0.18320 0.32631
#
# Static dielectric constant tensor:
#      x y z
#    x 2.306560 0.000000 -0.185840 
#    y 0.000000 2.140130 0.000000 
#    z -0.185840 0.000000 2.143240 
# 
# From -- ./inp_files/24456.got.cif
#   From: 2010.05.17/outbox.cif.g08.bks.cpg/sg15_13_cif.got.tgz:24456.got - 2010.06.03 18:47:42.
