data_PCOD9307087
_publ_section_title
;
Structure prediction by ZEFSAII (Michael W. Deem and Ramdas Pophale) SiO2 
 PCOD9307087
Probable space group: C 2/C
;
_chemical_formula_sum "Si O2"
_cell_formula_units_Z 32
_cell_length_a 13.321373
_cell_length_b 11.688529
_cell_length_c 16.056515
_cell_angle_alpha 90.000000
_cell_angle_beta 149.868335
_cell_angle_gamma 90.000000
_cell_volume 1255.030150
_symmetry_space_group_name_H-M "C 2/C"
_symmetry_group_IT_number 15
_symmetry_cell_setting 'monoclinic'
loop_
_space_group_symop_operation_xyz
x,y,z
-x,y,1/2-z
-x,-y,-z
x,-y,1/2+z
1/2+x,1/2+y,z
1/2-x,1/2+y,1/2-z
1/2-x,1/2-y,-z
1/2+x,1/2-y,1/2+z
loop_
_atom_site_type_symbol
_atom_site_label
_atom_site_fract_x
_atom_site_fract_y
_atom_site_fract_z
Si Si1 0.198264 0.159865 0.193062
Si Si2 0.441663 0.289286 0.084809
Si Si3 0.568401 0.162270 0.891428
Si Si4 0.182220 0.006975 0.824701
O O1 0.433950 0.182127 0.357840
O O2 0.168359 0.048743 0.225232
O O3 0.090353 0.262716 0.168262
O O4 0.124698 0.147149 0.046295
O O5 0.388563 0.363069 0.244585
O O6 0.250000 0.250000 0.000000
O O7 0.500000 0.124314 0.750000
O O8 0.750000 0.250000 0.000000
O O9 0.635658 0.053198 0.995222
O O10 0.000000 0.962021 0.750000
#
# Coordination Sequence:
#
# PCOD9307087 Si02
#       4
#     8   8   8   8
#     4  12  23  48  79 112 162 211 266 337 399 485
#     4  12  28  51  75 111 171 215 269 335 401 489
#     4  12  21  44  80 120 167 197 262 355 402 473
#     4  12  25  47  79 118 156 213 273 327 418 476
#
# _framework density 25.497395000000001
#
# number of rings (size 3 to 8) (size 9 to 14) (size 15 to 20)
#    0.000    0.000    7.500    3.000    0.000    1.000 
#    4.500    0.000    0.000    0.000    0.000    0.000 
#    0.000    0.000    0.000    0.000    0.000    0.000 
#
# Total GULP energy -89455.395506 kJ/mol
# GULP energy per Si atom -5590.962219 kJ/mol
# Density = 2.543936 g / cm^3
# Si number density = 25.497395 Si / 1000 Ang^3
#
#
#
# Elastic Constant Matrix: (Units=GPa)
#
#
# Indices 1 2 3 4 5 6 
#
# 1 187.2281 56.0550 58.4227 -0.0001 -1.5931 0.0000
# 2 56.0550 116.8273 34.8259 -0.0001 -3.2739 0.0000
# 3 58.4227 34.8259 100.3012 -0.0004 -34.7939 0.0001
# 4 -0.0001 -0.0001 -0.0004 138.7204 -0.0001 30.2455
# 5 -1.5931 -3.2739 -34.7939 -0.0001 78.7072 0.0000
# 6 0.0000 0.0000 0.0001 30.2455 0.0000 50.4847
#
#
#
# Elastic Compliance Matrix: (Units=1/GPa)
#
#
# Indices 1 2 3 4 5 6 
#
# 1 0.007286 -0.002343 -0.004031 0.000000 -0.001732 0.000000
# 2 -0.002343 0.010408 -0.002499 0.000000 -0.000719 0.000000
# 3 -0.004031 -0.002499 0.015498 0.000000 0.006666 0.000000
# 4 0.000000 0.000000 0.000000 0.008292 0.000000 -0.004968
# 5 -0.001732 -0.000719 0.006666 0.000000 0.015587 0.000000
# 6 0.000000 0.000000 0.000000 -0.004968 0.000000 0.022784
#
#
# Mechanical properties :
#
#
# Convention : Reuss Voigt Hill
#
# Bulk Modulus (GPa) = 64.73886 78.10709 71.42298
# Shear Modulus (GPa) = 48.66239 70.58601 59.62420
#
# Velocity S-wave (km/s) = 4.37341 5.26723 4.84099
# Velocity P-wave (km/s) = 7.13777 8.22748 7.70192
#
# Compressibility (1/GPa) = 0.01544667
#
# Stress axis : x y z
#
# Youngs Moduli (GPa) = 137.25802 96.07626 64.52510
#
# Poissons Ratio (x) = 0.22507 0.26011
# Poissons Ratio (y) = 0.32154 0.16124
# Poissons Ratio (z) = 0.55330 0.24009
#
# Static dielectric constant tensor:
#      x y z
#    x 2.001520 0.000000 -0.049760 
#    y 0.000000 2.043400 0.000000 
#    z -0.049760 0.000000 2.097630 
# 
# From -- ./inp_files/204283.got.cif
#   From: 2010.05.17/outbox.cif.g08.bks.cpg/sg15_103_cif.got.tgz:204283.got - 2010.06.03 18:47:42.
