data_PCOD9307259
_publ_section_title
;
Structure prediction by ZEFSAII (Michael W. Deem and Ramdas Pophale) SiO2 
 PCOD9307259
Probable space group: C 2/C
;
_chemical_formula_sum "Si O2"
_cell_formula_units_Z 52
_cell_length_a 21.345862
_cell_length_b 17.500081
_cell_length_c 9.296572
_cell_angle_alpha 90.000000
_cell_angle_beta 46.937001
_cell_angle_gamma 90.000000
_cell_volume 2537.220827
_symmetry_space_group_name_H-M "C 2/C"
_symmetry_group_IT_number 15
_symmetry_cell_setting 'monoclinic'
loop_
_space_group_symop_operation_xyz
x,y,z
-x,y,1/2-z
-x,-y,-z
x,-y,1/2+z
1/2+x,1/2+y,z
1/2-x,1/2+y,1/2-z
1/2-x,1/2-y,-z
1/2+x,1/2-y,1/2+z
loop_
_atom_site_type_symbol
_atom_site_label
_atom_site_fract_x
_atom_site_fract_y
_atom_site_fract_z
Si Si1 0.922294 0.482480 0.020085
Si Si2 0.500000 0.837103 0.750000
Si Si3 0.816042 0.470042 0.443650
Si Si4 0.666347 0.254969 0.026364
Si Si5 0.836319 0.055288 0.647111
Si Si6 0.594758 0.579278 0.659948
Si Si7 0.240677 0.680511 0.623528
O O1 0.841821 0.502781 0.248422
O O2 0.944179 0.396038 0.935546
O O3 0.899904 0.527732 0.911907
O O4 0.000000 0.500000 0.000000
O O5 0.425631 0.786103 0.788885
O O6 0.745527 0.521101 0.635513
O O7 0.793016 0.385225 0.432035
O O8 0.647943 0.344700 0.041701
O O9 0.750000 0.250000 0.000000
O O10 0.689103 0.216699 0.838222
O O11 0.903325 0.068287 0.670838
O O12 0.813901 0.132767 0.596149
O O13 0.866495 0.993312 0.484111
O O14 0.500000 0.590534 0.750000
O O15 0.250000 0.750000 0.500000
#
# Coordination Sequence:
#
# PCOD9307259 Si02
#       7
#     8   4   8   8   8   8   8
#     4  12  24  40  71 105 144 185 231 298 363 445
#     4  12  24  44  70 106 148 180 246 290 366 444
#     4  12  22  44  70 103 143 186 246 292 364 441
#     4  12  26  46  74 103 148 193 236 299 376 438
#     4  12  24  46  75 103 138 192 248 301 366 438
#     4  12  26  47  73 106 142 193 247 307 364 439
#     4  12  26  44  71 109 140 186 248 302 363 433
#
# _framework density 20.494865000000001
#
# number of rings (size 3 to 8) (size 9 to 14) (size 15 to 20)
#    0.000    0.000    8.462    1.385    0.000    2.462 
#    0.000    0.000    0.000    0.000    0.000    0.000 
#    0.000    0.000    0.000    0.000    0.000    0.000 
#
# Total GULP energy -144800.812866 kJ/mol
# GULP energy per Si atom -5569.262033 kJ/mol
# Density = 2.044822 g / cm^3
# Si number density = 20.494865 Si / 1000 Ang^3
#
#
#
# Elastic Constant Matrix: (Units=GPa)
#
#
# Indices 1 2 3 4 5 6 
#
# 1 184.7325 65.6447 47.3401 0.0000 21.3108 0.0000
# 2 65.6447 78.9954 17.3784 0.0000 21.9313 0.0000
# 3 47.3401 17.3784 70.1047 0.0000 17.0328 0.0000
# 4 0.0000 0.0000 0.0000 33.9571 0.0000 2.9470
# 5 21.3108 21.9313 17.0328 0.0000 30.5090 0.0000
# 6 0.0000 0.0000 0.0000 2.9470 0.0000 33.2148
#
#
#
# Elastic Compliance Matrix: (Units=1/GPa)
#
#
# Indices 1 2 3 4 5 6 
#
# 1 0.008814 -0.006642 -0.004593 0.000000 0.001182 0.000000
# 2 -0.006642 0.020930 0.002112 0.000000 -0.011585 0.000000
# 3 -0.004593 0.002112 0.019010 0.000000 -0.008923 0.000000
# 4 0.000000 0.000000 0.000000 0.029677 0.000000 -0.002633
# 5 0.001182 -0.011585 -0.008923 0.000000 0.045261 0.000000
# 6 0.000000 0.000000 0.000000 -0.002633 0.000000 0.030341
#
#
# Mechanical properties :
#
#
# Convention : Reuss Voigt Hill
#
# Bulk Modulus (GPa) = 32.77806 66.06210 49.42008
# Shear Modulus (GPa) = 27.40477 33.10081 30.25279
#
# Velocity S-wave (km/s) = 3.66068 4.02316 3.84619
# Velocity P-wave (km/s) = 5.82198 7.34061 6.62495
#
# Compressibility (1/GPa) = 0.03050821
#
# Stress axis : x y z
#
# Youngs Moduli (GPa) = 113.45419 47.77726 52.60334
#
# Poissons Ratio (x) = 0.31735 0.24159
# Poissons Ratio (y) = 0.75360 -0.11108
# Poissons Ratio (z) = 0.52105 -0.10089
#
# Static dielectric constant tensor:
#      x y z
#    x 1.754200 0.000000 -0.036520 
#    y 0.000000 1.612950 0.000000 
#    z -0.036520 0.000000 1.711530 
# 
# From -- ./inp_files/56967.got.cif
#   From: 2010.05.17/outbox.cif.g08.bks.cpg/sg15_29_cif.got.tgz:56967.got - 2010.06.03 18:47:42.
