data_PCOD9307611
_publ_section_title
;
Structure prediction by ZEFSAII (Michael W. Deem and Ramdas Pophale) SiO2 
 PCOD9307611
Probable space group: C 2/C
;
_chemical_formula_sum "Si O2"
_cell_formula_units_Z 60
_cell_length_a 8.091677
_cell_length_b 15.989765
_cell_length_c 21.501067
_cell_angle_alpha 90.000000
_cell_angle_beta 84.413552
_cell_angle_gamma 90.000000
_cell_volume 2768.681609
_symmetry_space_group_name_H-M "C 2/C"
_symmetry_group_IT_number 15
_symmetry_cell_setting 'monoclinic'
loop_
_space_group_symop_operation_xyz
x,y,z
-x,y,1/2-z
-x,-y,-z
x,-y,1/2+z
1/2+x,1/2+y,z
1/2-x,1/2+y,1/2-z
1/2-x,1/2-y,-z
1/2+x,1/2-y,1/2+z
loop_
_atom_site_type_symbol
_atom_site_label
_atom_site_fract_x
_atom_site_fract_y
_atom_site_fract_z
Si Si1 0.500000 0.317404 0.750000
Si Si2 0.312725 0.697252 0.764069
Si Si3 0.193357 0.293286 0.938992
Si Si4 0.173258 0.658016 0.012571
Si Si5 0.122503 0.989240 0.937207
Si Si6 0.353245 0.565479 0.361160
Si Si7 0.838239 0.403812 0.128420
Si Si8 0.213664 0.633922 0.640528
O O1 0.657052 0.261356 0.766571
O O2 0.584143 0.377232 0.696356
O O3 0.500000 0.732238 0.750000
O O4 0.297950 0.651274 0.830733
O O5 0.280428 0.630984 0.708816
O O6 0.303261 0.372725 0.918574
O O7 0.223433 0.224254 0.885009
O O8 0.007034 0.325009 0.952792
O O9 0.250000 0.250000 0.000000
O O10 0.275577 0.595241 0.052877
O O11 0.250000 0.750000 0.000000
O O12 0.164262 0.613961 0.945174
O O13 0.009229 0.984787 0.880559
O O14 0.234871 0.068238 0.915183
O O15 0.000000 0.000000 0.000000
O O16 0.205249 0.500140 0.355780
O O17 0.015189 0.374842 0.148408
#
# Coordination Sequence:
#
# PCOD9307611 Si02
#       8
#     4   8   8   8   8   8   8   8
#     4  12  28  54  74 110 148 196 254 316 372 446
#     4  12  27  50  80 105 143 199 253 310 376 448
#     4  12  24  43  73 103 143 192 237 297 370 440
#     4  12  27  42  71 108 147 191 245 302 373 448
#     4  12  26  44  70 108 151 191 250 304 373 450
#     4  12  27  47  73 108 149 191 244 312 366 440
#     4  12  26  47  74 106 148 195 247 307 375 440
#     4  12  25  49  74 105 148 197 247 307 372 449
#
# _framework density 21.670964999999999
#
# number of rings (size 3 to 8) (size 9 to 14) (size 15 to 20)
#    0.000    0.000    5.333    4.000    6.533    1.067 
#    2.400    0.000    0.000    0.000    0.000    0.000 
#    0.000    0.000    0.000    0.000    0.000    0.000 
#
# Total GULP energy -167740.801245 kJ/mol
# GULP energy per Si atom -5591.360041 kJ/mol
# Density = 2.162164 g / cm^3
# Si number density = 21.670965 Si / 1000 Ang^3
#
#
#
# Elastic Constant Matrix: (Units=GPa)
#
#
# Indices 1 2 3 4 5 6 
#
# 1 108.7449 34.0512 25.8816 0.0000 -25.6869 0.0000
# 2 34.0512 97.8979 35.1699 0.0000 -28.5257 0.0000
# 3 25.8816 35.1699 69.6714 0.0000 -13.8032 0.0000
# 4 0.0000 0.0000 0.0000 52.0181 0.0000 -6.7379
# 5 -25.6869 -28.5257 -13.8032 0.0000 33.3208 0.0000
# 6 0.0000 0.0000 0.0000 -6.7379 0.0000 34.1326
#
#
#
# Elastic Compliance Matrix: (Units=1/GPa)
#
#
# Indices 1 2 3 4 5 6 
#
# 1 0.011812 -0.001181 -0.002384 0.000000 0.007107 0.000000
# 2 -0.001181 0.015515 -0.005384 0.000000 0.010141 0.000000
# 3 -0.002384 -0.005384 0.018170 0.000000 0.001081 0.000000
# 4 0.000000 0.000000 0.000000 0.019729 0.000000 0.003895
# 5 0.007107 0.010141 0.001081 0.000000 0.044619 0.000000
# 6 0.000000 0.000000 0.000000 0.003895 0.000000 0.030066
#
#
# Mechanical properties :
#
#
# Convention : Reuss Voigt Hill
#
# Bulk Modulus (GPa) = 36.23239 51.83550 44.03394
# Shear Modulus (GPa) = 29.93869 35.97508 32.95689
#
# Velocity S-wave (km/s) = 3.72090 4.07880 3.90396
# Velocity P-wave (km/s) = 5.93429 6.79363 6.37845
#
# Compressibility (1/GPa) = 0.02759962
#
# Stress axis : x y z
#
# Youngs Moduli (GPa) = 84.66130 64.45515 55.03474
#
# Poissons Ratio (x) = 0.07614 0.13118
# Poissons Ratio (y) = 0.10001 0.29629
# Poissons Ratio (z) = 0.20179 0.34701
#
# Static dielectric constant tensor:
#      x y z
#    x 1.598090 0.000000 0.119110 
#    y 0.000000 1.948840 0.000000 
#    z 0.119110 0.000000 1.740000 
# 
# From -- ./inp_files/264671.got.cif
#   From: 2010.05.17/outbox.cif.g08.bks.cpg/sg15_133_cif.got.tgz:264671.got - 2010.06.03 18:47:42.
