data_PCOD9307718
_publ_section_title
;
Structure prediction by ZEFSAII (Michael W. Deem and Ramdas Pophale) SiO2 
 PCOD9307718
Probable space group: C 2/C
;
_chemical_formula_sum "Si O2"
_cell_formula_units_Z 32
_cell_length_a 5.118204
_cell_length_b 23.953530
_cell_length_c 12.406383
_cell_angle_alpha 90.000000
_cell_angle_beta 102.478341
_cell_angle_gamma 90.000000
_cell_volume 1485.081119
_symmetry_space_group_name_H-M "C 2/C"
_symmetry_group_IT_number 15
_symmetry_cell_setting 'monoclinic'
loop_
_space_group_symop_operation_xyz
x,y,z
-x,y,1/2-z
-x,-y,-z
x,-y,1/2+z
1/2+x,1/2+y,z
1/2-x,1/2+y,1/2-z
1/2-x,1/2-y,-z
1/2+x,1/2-y,1/2+z
loop_
_atom_site_type_symbol
_atom_site_label
_atom_site_fract_x
_atom_site_fract_y
_atom_site_fract_z
Si Si1 0.788276 0.506237 0.075607
Si Si2 0.500000 0.086209 0.750000
Si Si3 0.779039 0.874178 0.823553
Si Si4 0.007455 0.211538 0.519241
Si Si5 0.500000 0.343418 0.250000
O O1 0.836900 0.454830 0.158846
O O2 0.803245 0.565881 0.135153
O O3 0.500000 0.500000 0.000000
O O4 0.000000 0.500000 0.000000
O O5 0.725693 0.121769 0.708455
O O6 0.500000 0.849217 0.750000
O O7 0.000000 0.881540 0.750000
O O8 0.925167 0.837688 0.928959
O O9 0.750000 0.250000 0.500000
O O10 0.057017 0.189507 0.644596
O O11 0.250000 0.250000 0.500000
#
# Coordination Sequence:
#
# PCOD9307718 Si02
#       5
#     8   4   8   8   4
#     4  12  25  43  73 107 153 193 237 290 359 439
#     4  12  24  46  73 108 149 194 232 292 368 432
#     4  12  26  46  74 112 150 191 246 301 367 441
#     4  12  28  49  78 105 143 198 247 313 369 424
#     4  12  28  50  75 110 149 190 254 302 364 450
#
# _framework density 21.547643999999998
#
# number of rings (size 3 to 8) (size 9 to 14) (size 15 to 20)
#    0.000    0.000    1.250    9.000    7.000    0.000 
#    0.000    0.000    0.000    0.000    0.000    0.000 
#    0.000    0.000    0.000    0.000    0.000    0.000 
#
# Total GULP energy -89588.718329 kJ/mol
# GULP energy per Si atom -5599.294896 kJ/mol
# Density = 2.149860 g / cm^3
# Si number density = 21.547644 Si / 1000 Ang^3
#
#
#
# Elastic Constant Matrix: (Units=GPa)
#
#
# Indices 1 2 3 4 5 6 
#
# 1 193.5607 57.6114 67.9885 0.0000 -6.8382 0.0000
# 2 57.6114 117.6861 72.2852 0.0000 -13.5396 0.0000
# 3 67.9885 72.2852 163.3488 0.0000 -4.6067 0.0000
# 4 0.0000 0.0000 0.0000 29.2219 0.0000 2.0489
# 5 -6.8382 -13.5396 -4.6067 0.0000 55.3563 0.0000
# 6 0.0000 0.0000 0.0000 2.0489 0.0000 49.9973
#
#
#
# Elastic Compliance Matrix: (Units=1/GPa)
#
#
# Indices 1 2 3 4 5 6 
#
# 1 0.006394 -0.002034 -0.001757 0.000000 0.000146 0.000000
# 2 -0.002034 0.012651 -0.004683 0.000000 0.002453 0.000000
# 3 -0.001757 -0.004683 0.008908 0.000000 -0.000621 0.000000
# 4 0.000000 0.000000 0.000000 0.034320 0.000000 -0.001406
# 5 0.000146 0.002453 -0.000621 0.000000 0.018631 0.000000
# 6 0.000000 0.000000 0.000000 -0.001406 0.000000 0.020059
#
#
# Mechanical properties :
#
#
# Convention : Reuss Voigt Hill
#
# Bulk Modulus (GPa) = 90.86243 96.70731 93.78487
# Shear Modulus (GPa) = 41.12547 45.36248 43.24397
#
# Velocity S-wave (km/s) = 4.37347 4.59324 4.48470
# Velocity P-wave (km/s) = 8.23181 8.55036 8.39260
#
# Compressibility (1/GPa) = 0.01100565
#
# Stress axis : x y z
#
# Youngs Moduli (GPa) = 156.39405 79.04263 112.26022
#
# Poissons Ratio (x) = 0.16078 0.19725
# Poissons Ratio (y) = 0.31812 0.52568
# Poissons Ratio (z) = 0.27480 0.37013
#
# Static dielectric constant tensor:
#      x y z
#    x 1.766810 0.000000 -0.086590 
#    y 0.000000 1.792870 0.000000 
#    z -0.086590 0.000000 2.112480 
# 
# From -- ./inp_files/72292.got.cif
#   From: 2010.05.17/outbox.cif.g08.bks.cpg/sg15_37_cif.got.tgz:72292.got - 2010.06.03 18:47:42.
