data_PCOD9307935
_publ_section_title
;
Structure prediction by ZEFSAII (Michael W. Deem and Ramdas Pophale) SiO2 
 PCOD9307935
Probable space group: C 2/C
;
_chemical_formula_sum "Si O2"
_cell_formula_units_Z 48
_cell_length_a 11.025727
_cell_length_b 16.111485
_cell_length_c 20.922323
_cell_angle_alpha 90.000000
_cell_angle_beta 144.134207
_cell_angle_gamma 90.000000
_cell_volume 2177.548237
_symmetry_space_group_name_H-M "C 2/C"
_symmetry_group_IT_number 15
_symmetry_cell_setting 'monoclinic'
loop_
_space_group_symop_operation_xyz
x,y,z
-x,y,1/2-z
-x,-y,-z
x,-y,1/2+z
1/2+x,1/2+y,z
1/2-x,1/2+y,1/2-z
1/2-x,1/2-y,-z
1/2+x,1/2-y,1/2+z
loop_
_atom_site_type_symbol
_atom_site_label
_atom_site_fract_x
_atom_site_fract_y
_atom_site_fract_z
Si Si1 0.960660 0.591052 0.953158
Si Si2 0.133915 0.808264 0.400471
Si Si3 0.000000 0.320054 0.750000
Si Si4 0.362723 0.324872 0.583002
Si Si5 0.875853 0.061983 0.399569
Si Si6 0.246352 0.907792 0.222105
Si Si7 0.500000 0.214753 0.750000
O O1 0.800951 0.646974 0.925890
O O2 0.876248 0.595111 0.843662
O O3 0.000000 0.500000 0.000000
O O4 0.187957 0.629582 0.048791
O O5 0.250000 0.750000 0.500000
O O6 0.977040 0.744609 0.298171
O O7 0.989054 0.880454 0.365790
O O8 0.202800 0.374568 0.851983
O O9 0.250000 0.250000 0.500000
O O10 0.467829 0.384617 0.576770
O O11 0.507543 0.277236 0.693822
O O12 0.747872 0.001661 0.298684
O O13 0.000000 0.000000 0.500000
O O14 0.322756 0.849800 0.196269
#
# Coordination Sequence:
#
# PCOD9307935 Si02
#       7
#     8   8   4   8   8   8   4
#     4  12  27  45  73 104 148 190 237 302 369 435
#     4  12  25  48  75 105 141 192 245 307 366 440
#     4  12  25  46  75 106 146 190 248 296 363 440
#     4  12  25  46  72 105 143 187 247 294 364 439
#     4  12  28  45  73 109 147 193 243 301 370 438
#     4  12  25  47  71 104 148 186 243 299 372 433
#     4  12  25  46  75 104 142 196 236 308 359 434
#
# _framework density 22.043139
#
# number of rings (size 3 to 8) (size 9 to 14) (size 15 to 20)
#    0.000    0.000    3.333    6.500    7.000    0.000 
#    0.000    0.000    0.000    0.000    0.000    0.000 
#    0.000    0.000    0.000    0.000    0.000    0.000 
#
# Total GULP energy -134051.005282 kJ/mol
# GULP energy per Si atom -5585.458553 kJ/mol
# Density = 2.199297 g / cm^3
# Si number density = 22.043139 Si / 1000 Ang^3
#
#
#
# Elastic Constant Matrix: (Units=GPa)
#
#
# Indices 1 2 3 4 5 6 
#
# 1 114.3167 47.1515 -5.6081 0.0000 18.1400 0.0000
# 2 47.1515 136.9088 13.2495 0.0000 0.6033 0.0000
# 3 -5.6081 13.2495 50.1621 0.0000 -11.8143 0.0000
# 4 0.0000 0.0000 0.0000 57.1321 0.0000 -0.8188
# 5 18.1400 0.6033 -11.8143 0.0000 36.2394 0.0000
# 6 0.0000 0.0000 0.0000 -0.8188 0.0000 59.9194
#
#
#
# Elastic Compliance Matrix: (Units=1/GPa)
#
#
# Indices 1 2 3 4 5 6 
#
# 1 0.011262 -0.003960 0.001075 0.000000 -0.005221 0.000000
# 2 -0.003960 0.008911 -0.002561 0.000000 0.000999 0.000000
# 3 0.001075 -0.002561 0.022330 0.000000 0.006784 0.000000
# 4 0.000000 0.000000 0.000000 0.017507 0.000000 0.000239
# 5 -0.005221 0.000999 0.006784 0.000000 0.032403 0.000000
# 6 0.000000 0.000000 0.000000 0.000239 0.000000 0.016692
#
#
# Mechanical properties :
#
#
# Convention : Reuss Voigt Hill
#
# Bulk Modulus (GPa) = 31.63349 45.66372 38.64861
# Shear Modulus (GPa) = 38.30431 47.09783 42.70107
#
# Velocity S-wave (km/s) = 4.17309 4.62737 4.40609
# Velocity P-wave (km/s) = 6.13200 7.02216 6.59212
#
# Compressibility (1/GPa) = 0.03161207
#
# Stress axis : x y z
#
# Youngs Moduli (GPa) = 88.79343 112.21663 44.78305
#
# Poissons Ratio (x) = 0.44435 -0.04816
# Poissons Ratio (y) = 0.35160 0.11470
# Poissons Ratio (z) = -0.09549 0.28742
#
# Static dielectric constant tensor:
#      x y z
#    x 1.776410 0.000000 -0.004060 
#    y 0.000000 1.639420 0.000000 
#    z -0.004060 0.000000 1.865480 
# 
# From -- ./inp_files/239055.got.cif
#   From: 2010.05.17/outbox.cif.g08.bks.cpg/sg15_120_cif.got.tgz:239055.got - 2010.06.03 18:47:42.
