data_PCOD9307753
_publ_section_title
;
Structure prediction by ZEFSAII (Michael W. Deem and Ramdas Pophale) SiO2 
 PCOD9307753
Probable space group: C 2/C
;
_chemical_formula_sum "Si O2"
_cell_formula_units_Z 40
_cell_length_a 7.208802
_cell_length_b 25.375455
_cell_length_c 11.015588
_cell_angle_alpha 90.000000
_cell_angle_beta 72.215558
_cell_angle_gamma 90.000000
_cell_volume 1918.750194
_symmetry_space_group_name_H-M "C 2/C"
_symmetry_group_IT_number 15
_symmetry_cell_setting 'monoclinic'
loop_
_space_group_symop_operation_xyz
x,y,z
-x,y,1/2-z
-x,-y,-z
x,-y,1/2+z
1/2+x,1/2+y,z
1/2-x,1/2+y,1/2-z
1/2-x,1/2-y,-z
1/2+x,1/2-y,1/2+z
loop_
_atom_site_type_symbol
_atom_site_label
_atom_site_fract_x
_atom_site_fract_y
_atom_site_fract_z
Si Si1 0.775975 0.072935 0.262449
Si Si2 0.500000 0.979462 0.250000
Si Si3 0.256703 0.340916 0.554193
Si Si4 0.500000 0.759742 0.750000
Si Si5 0.455072 0.889138 0.452753
Si Si6 0.686695 0.296404 0.420663
O O1 0.661185 0.096558 0.400727
O O2 0.000000 0.065468 0.250000
O O3 0.239630 0.114816 0.342710
O O4 0.678437 0.018609 0.240523
O O5 0.468746 0.941311 0.370094
O O6 0.471385 0.317849 0.495772
O O7 0.109914 0.295791 0.629913
O O8 0.163821 0.366868 0.453203
O O9 0.339445 0.726530 0.709136
O O10 0.337005 0.844019 0.405774
O O11 0.750000 0.250000 0.500000
#
# Coordination Sequence:
#
# PCOD9307753 Si02
#       6
#     8   4   8   4   8   8
#     4  12  24  47  76  99 136 189 240 295 363 426
#     4  12  29  44  72 104 144 182 239 304 354 422
#     4  12  24  47  72 102 141 186 239 289 353 440
#     4  12  25  44  70 106 142 188 235 282 364 420
#     4  12  26  47  70 106 142 185 238 296 356 418
#     4  12  27  44  71 107 143 192 235 290 352 427
#
# _framework density 20.846902
#
# number of rings (size 3 to 8) (size 9 to 14) (size 15 to 20)
#    0.000    0.000    8.000    1.200    2.800    2.400 
#    0.000    0.000    0.000    0.000    0.000    0.000 
#    0.000    0.000    0.000    0.000    0.000    0.000 
#
# Total GULP energy -112050.033399 kJ/mol
# GULP energy per Si atom -5602.501670 kJ/mol
# Density = 2.079945 g / cm^3
# Si number density = 20.846902 Si / 1000 Ang^3
#
#
#
# Elastic Constant Matrix: (Units=GPa)
#
#
# Indices 1 2 3 4 5 6 
#
# 1 151.9655 65.7483 25.9947 0.0000 27.3425 0.0000
# 2 65.7483 152.1569 44.3546 0.0000 23.6243 0.0000
# 3 25.9947 44.3546 41.0264 0.0000 29.1911 0.0000
# 4 0.0000 0.0000 0.0000 27.3192 0.0000 -3.1769
# 5 27.3425 23.6243 29.1911 0.0000 38.3200 0.0000
# 6 0.0000 0.0000 0.0000 -3.1769 0.0000 22.5473
#
#
#
# Elastic Compliance Matrix: (Units=1/GPa)
#
#
# Indices 1 2 3 4 5 6 
#
# 1 0.008787 -0.003637 0.002686 0.000000 -0.006074 0.000000
# 2 -0.003637 0.011444 -0.015054 0.000000 0.007008 0.000000
# 3 0.002686 -0.015054 0.073601 0.000000 -0.048703 0.000000
# 4 0.000000 0.000000 0.000000 0.037214 0.000000 0.005243
# 5 -0.006074 0.007008 -0.048703 0.000000 0.063211 0.000000
# 6 0.000000 0.000000 0.000000 0.005243 0.000000 0.045090
#
#
# Mechanical properties :
#
#
# Convention : Reuss Voigt Hill
#
# Bulk Modulus (GPa) = 16.17523 68.59376 42.38449
# Shear Modulus (GPa) = 17.12533 31.57406 24.34970
#
# Velocity S-wave (km/s) = 2.86926 3.89597 3.42135
# Velocity P-wave (km/s) = 4.33045 7.29473 5.99858
#
# Compressibility (1/GPa) = 0.06182292
#
# Stress axis : x y z
#
# Youngs Moduli (GPa) = 113.79888 87.38134 13.58672
#
# Poissons Ratio (x) = 0.31781 -0.03650
# Poissons Ratio (y) = 0.41390 0.20454
# Poissons Ratio (z) = -0.30569 1.31545
#
# Static dielectric constant tensor:
#      x y z
#    x 1.745240 0.000000 0.004990 
#    y 0.000000 1.719400 0.000000 
#    z 0.004990 0.000000 1.750490 
# 
# From -- ./inp_files/73292.got.cif
#   From: 2010.05.17/outbox.cif.g08.bks.cpg/sg15_37_cif.got.tgz:73292.got - 2010.06.03 18:47:42.
