data_PCOD9307916
_publ_section_title
;
Structure prediction by ZEFSAII (Michael W. Deem and Ramdas Pophale) SiO2 
 PCOD9307916
Probable space group: C 2/C
;
_chemical_formula_sum "Si O2"
_cell_formula_units_Z 32
_cell_length_a 12.741392
_cell_length_b 12.786396
_cell_length_c 8.029956
_cell_angle_alpha 90.000000
_cell_angle_beta 91.109512
_cell_angle_gamma 90.000000
_cell_volume 1307.966921
_symmetry_space_group_name_H-M "C 2/C"
_symmetry_group_IT_number 15
_symmetry_cell_setting 'monoclinic'
loop_
_space_group_symop_operation_xyz
x,y,z
-x,y,1/2-z
-x,-y,-z
x,-y,1/2+z
1/2+x,1/2+y,z
1/2-x,1/2+y,1/2-z
1/2-x,1/2-y,-z
1/2+x,1/2-y,1/2+z
loop_
_atom_site_type_symbol
_atom_site_label
_atom_site_fract_x
_atom_site_fract_y
_atom_site_fract_z
Si Si1 0.957716 0.611280 0.063911
Si Si2 0.790680 0.139258 0.937808
Si Si3 0.763717 0.080387 0.564691
Si Si4 0.984818 0.834067 0.940012
O O1 0.000000 0.628485 0.250000
O O2 0.831827 0.616036 0.053610
O O3 0.990719 0.708326 0.950755
O O4 0.000000 0.500000 0.000000
O O5 0.748700 0.118507 0.752076
O O6 0.750000 0.250000 0.000000
O O7 0.917091 0.131753 0.944320
O O8 0.757969 0.045004 0.057119
O O9 0.874625 0.122892 0.502708
O O10 0.000000 0.868392 0.750000
#
# Coordination Sequence:
#
# PCOD9307916 Si02
#       4
#     8   8   8   8
#     4  12  25  45  71 105 144 192 250 314 376 447
#     4  12  26  48  76 110 148 195 246 308 379 454
#     4  12  26  47  74 107 147 194 248 312 376 450
#     4  12  26  46  72 106 147 197 249 306 375 451
#
# _framework density 24.465450000000001
#
# number of rings (size 3 to 8) (size 9 to 14) (size 15 to 20)
#    0.000    0.000    0.000   10.500    0.000    4.000 
#    0.000    0.000    0.000    0.000    0.000    0.000 
#    0.000    0.000    0.000    0.000    0.000    0.000 
#
# Total GULP energy -89801.884042 kJ/mol
# GULP energy per Si atom -5612.617753 kJ/mol
# Density = 2.440977 g / cm^3
# Si number density = 24.465450 Si / 1000 Ang^3
#
#
#
# Elastic Constant Matrix: (Units=GPa)
#
#
# Indices 1 2 3 4 5 6 
#
# 1 150.5140 10.5024 64.0816 0.0000 43.9986 0.0000
# 2 10.5024 135.3276 65.2349 0.0000 0.7295 0.0000
# 3 64.0816 65.2349 170.5727 0.0000 12.3608 0.0000
# 4 0.0000 0.0000 0.0000 44.0210 0.0000 -3.3921
# 5 43.9986 0.7295 12.3608 0.0000 43.4959 0.0000
# 6 0.0000 0.0000 0.0000 -3.3921 0.0000 26.4769
#
#
#
# Elastic Compliance Matrix: (Units=1/GPa)
#
#
# Indices 1 2 3 4 5 6 
#
# 1 0.011221 0.001052 -0.003874 0.000000 -0.010268 0.000000
# 2 0.001052 0.009189 -0.003902 0.000000 -0.000109 0.000000
# 3 -0.003874 -0.003902 0.008701 0.000000 0.001512 0.000000
# 4 0.000000 0.000000 0.000000 0.022943 0.000000 0.002939
# 5 -0.010268 -0.000109 0.001512 0.000000 0.032949 0.000000
# 6 0.000000 0.000000 0.000000 0.002939 0.000000 0.038145
#
#
# Mechanical properties :
#
#
# Convention : Reuss Voigt Hill
#
# Bulk Modulus (GPa) = 63.84123 81.78358 72.81241
# Shear Modulus (GPa) = 35.25660 43.90511 39.58085
#
# Velocity S-wave (km/s) = 3.80027 4.24084 4.02659
# Velocity P-wave (km/s) = 6.73848 7.58158 7.17243
#
# Compressibility (1/GPa) = 0.01566386
#
# Stress axis : x y z
#
# Youngs Moduli (GPa) = 89.11606 108.82314 114.93447
#
# Poissons Ratio (x) = -0.11447 0.44525
# Poissons Ratio (y) = -0.09374 0.44843
# Poissons Ratio (z) = 0.34523 0.42459
#
# Static dielectric constant tensor:
#      x y z
#    x 1.997760 0.000000 0.006960 
#    y 0.000000 1.977590 0.000000 
#    z 0.006960 0.000000 1.867040 
# 
# From -- ./inp_files/27975.got.cif
#   From: 2010.05.17/outbox.cif.g08.bks.cpg/sg15_14_cif.got.tgz:27975.got - 2010.06.03 18:47:42.
