data_PCOD9307612
_publ_section_title
;
Structure prediction by ZEFSAII (Michael W. Deem and Ramdas Pophale) SiO2 
 PCOD9307612
Probable space group: C 2/C
;
_chemical_formula_sum "Si O2"
_cell_formula_units_Z 56
_cell_length_a 11.760636
_cell_length_b 15.949078
_cell_length_c 13.061223
_cell_angle_alpha 90.000000
_cell_angle_beta 96.072239
_cell_angle_gamma 90.000000
_cell_volume 2436.164912
_symmetry_space_group_name_H-M "C 2/C"
_symmetry_group_IT_number 15
_symmetry_cell_setting 'monoclinic'
loop_
_space_group_symop_operation_xyz
x,y,z
-x,y,1/2-z
-x,-y,-z
x,-y,1/2+z
1/2+x,1/2+y,z
1/2-x,1/2+y,1/2-z
1/2-x,1/2-y,-z
1/2+x,1/2-y,1/2+z
loop_
_atom_site_type_symbol
_atom_site_label
_atom_site_fract_x
_atom_site_fract_y
_atom_site_fract_z
Si Si1 0.509757 0.894312 0.546917
Si Si2 0.315299 0.815847 0.081611
Si Si3 0.767015 0.451672 0.810032
Si Si4 0.895161 0.952131 0.044495
Si Si5 0.884070 0.232150 0.515211
Si Si6 0.197977 0.495038 0.400997
Si Si7 0.121603 0.202310 0.224086
O O1 0.564500 0.856492 0.447104
O O2 0.623568 0.920688 0.617000
O O3 0.445540 0.809819 0.576883
O O4 0.415095 0.967477 0.553950
O O5 0.247821 0.903230 0.072117
O O6 0.337709 0.775997 0.194465
O O7 0.250000 0.750000 0.000000
O O8 0.671696 0.500005 0.869421
O O9 0.816635 0.505467 0.721527
O O10 0.711214 0.370630 0.753609
O O11 0.921813 0.855197 0.070756
O O12 0.796977 0.944430 0.949355
O O13 0.000000 0.000000 0.000000
O O14 0.750000 0.250000 0.500000
O O15 0.903499 0.226453 0.394756
O O16 0.000000 0.168910 0.250000
#
# Coordination Sequence:
#
# PCOD9307612 Si02
#       7
#     8   8   8   8   8   8   8
#     4  12  25  49  78 109 158 202 257 324 389 464
#     4  12  26  46  76 112 151 199 256 316 385 468
#     4  12  27  48  77 109 155 205 261 320 387 467
#     4  12  27  46  76 106 152 202 255 319 392 464
#     4  12  26  47  73 109 151 198 250 321 389 457
#     4  12  27  47  75 110 153 202 258 319 396 462
#     4  12  24  43  73 107 145 195 256 310 382 464
#
# _framework density 22.986951000000001
#
# number of rings (size 3 to 8) (size 9 to 14) (size 15 to 20)
#    0.000    0.000    7.143    1.714    4.000    1.143 
#    0.000    0.000    3.143    0.000    0.000    0.000 
#    0.000    0.000    0.000    0.000    0.000    0.000 
#
# Total GULP energy -156093.128279 kJ/mol
# GULP energy per Si atom -5574.754581 kJ/mol
# Density = 2.293463 g / cm^3
# Si number density = 22.986951 Si / 1000 Ang^3
#
#
#
# Elastic Constant Matrix: (Units=GPa)
#
#
# Indices 1 2 3 4 5 6 
#
# 1 105.7282 23.3138 21.8197 0.0000 -16.0780 0.0000
# 2 23.3138 170.5567 38.7330 0.0000 0.4769 0.0000
# 3 21.8197 38.7330 102.2049 0.0000 -11.9295 0.0000
# 4 0.0000 0.0000 0.0000 26.5991 0.0000 6.0340
# 5 -16.0780 0.4769 -11.9295 0.0000 32.1280 0.0000
# 6 0.0000 0.0000 0.0000 6.0340 0.0000 41.6794
#
#
#
# Elastic Compliance Matrix: (Units=1/GPa)
#
#
# Indices 1 2 3 4 5 6 
#
# 1 0.010730 -0.001193 -0.001265 0.000000 0.004918 0.000000
# 2 -0.001193 0.006582 -0.002426 0.000000 -0.001596 0.000000
# 3 -0.001265 -0.002426 0.011398 0.000000 0.003635 0.000000
# 4 0.000000 0.000000 0.000000 0.038872 0.000000 -0.005628
# 5 0.004918 -0.001596 0.003635 0.000000 0.034960 0.000000
# 6 0.000000 0.000000 0.000000 -0.005628 0.000000 0.024807
#
#
# Mechanical properties :
#
#
# Convention : Reuss Voigt Hill
#
# Bulk Modulus (GPa) = 52.79138 60.69143 56.74140
# Shear Modulus (GPa) = 34.86011 39.72285 37.29148
#
# Velocity S-wave (km/s) = 3.89847 4.16150 4.03213
# Velocity P-wave (km/s) = 6.57874 7.03923 6.81287
#
# Compressibility (1/GPa) = 0.01894249
#
# Stress axis : x y z
#
# Youngs Moduli (GPa) = 93.19506 151.93848 87.73592
#
# Poissons Ratio (x) = 0.18131 0.11094
# Poissons Ratio (y) = 0.11121 0.21282
# Poissons Ratio (z) = 0.11785 0.36856
#
# Static dielectric constant tensor:
#      x y z
#    x 1.881320 0.000000 -0.065770 
#    y 0.000000 1.873280 0.000000 
#    z -0.065770 0.000000 1.907310 
# 
# From -- ./inp_files/144271.got.cif
#   From: 2010.05.17/outbox.cif.g08.bks.cpg/sg15_73_cif.got.tgz:144271.got - 2010.06.03 18:47:42.
