data_PCOD9307251
_publ_section_title
;
Structure prediction by ZEFSAII (Michael W. Deem and Ramdas Pophale) SiO2 
 PCOD9307251
Probable space group: C 2/C
;
_chemical_formula_sum "Si O2"
_cell_formula_units_Z 28
_cell_length_a 10.891654
_cell_length_b 15.792545
_cell_length_c 6.363149
_cell_angle_alpha 90.000000
_cell_angle_beta 80.380673
_cell_angle_gamma 90.000000
_cell_volume 1079.116712
_symmetry_space_group_name_H-M "C 2/C"
_symmetry_group_IT_number 15
_symmetry_cell_setting 'monoclinic'
loop_
_space_group_symop_operation_xyz
x,y,z
-x,y,1/2-z
-x,-y,-z
x,-y,1/2+z
1/2+x,1/2+y,z
1/2-x,1/2+y,1/2-z
1/2-x,1/2-y,-z
1/2+x,1/2-y,1/2+z
loop_
_atom_site_type_symbol
_atom_site_label
_atom_site_fract_x
_atom_site_fract_y
_atom_site_fract_z
Si Si1 0.744437 0.607137 0.444568
Si Si2 0.622323 0.428530 0.360738
Si Si3 0.000000 0.539840 0.250000
Si Si4 0.630630 0.278248 0.669655
O O1 0.667771 0.521070 0.413184
O O2 0.740104 0.607775 0.696236
O O3 0.679293 0.690017 0.378462
O O4 0.875566 0.594739 0.296705
O O5 0.500000 0.428949 0.250000
O O6 0.595514 0.365270 0.556464
O O7 0.000000 0.500000 0.500000
O O8 0.500000 0.229573 0.750000
O O9 0.750000 0.250000 0.500000
#
# Coordination Sequence:
#
# PCOD9307251 Si02
#       4
#     8   8   4   8
#     4  12  24  43  77 110 142 190 248 320 377 456
#     4  12  22  43  77 106 136 180 252 311 373 443
#     4  12  24  42  68 114 160 194 244 316 396 458
#     4  12  28  49  71 106 151 196 248 313 389 465
#
# _framework density 25.947147000000001
#
# number of rings (size 3 to 8) (size 9 to 14) (size 15 to 20)
#    0.000    0.000    8.571    1.714    0.000    3.429 
#    5.143    0.000    0.000    0.000    0.000    0.000 
#    0.000    0.000    0.000    0.000    0.000    0.000 
#
# Total GULP energy -78135.848174 kJ/mol
# GULP energy per Si atom -5581.132012 kJ/mol
# Density = 2.588809 g / cm^3
# Si number density = 25.947147 Si / 1000 Ang^3
#
#
#
# Elastic Constant Matrix: (Units=GPa)
#
#
# Indices 1 2 3 4 5 6 
#
# 1 133.9044 32.8846 40.4008 0.0000 -42.0371 0.0000
# 2 32.8846 35.9937 17.8118 0.0000 -0.8279 0.0000
# 3 40.4008 17.8118 161.4004 0.0000 -41.8075 0.0000
# 4 0.0000 0.0000 0.0000 51.2242 0.0000 -5.4219
# 5 -42.0371 -0.8279 -41.8075 0.0000 71.8791 0.0000
# 6 0.0000 0.0000 0.0000 -5.4219 0.0000 29.8404
#
#
#
# Elastic Compliance Matrix: (Units=1/GPa)
#
#
# Indices 1 2 3 4 5 6 
#
# 1 0.012477 -0.011219 -0.000034 0.000000 0.007148 0.000000
# 2 -0.011219 0.039678 -0.003711 0.000000 -0.008262 0.000000
# 3 -0.000034 -0.003711 0.007768 0.000000 0.004456 0.000000
# 4 0.000000 0.000000 0.000000 0.019905 0.000000 0.003617
# 5 0.007148 -0.008262 0.004456 0.000000 0.020589 0.000000
# 6 0.000000 0.000000 0.000000 0.003617 0.000000 0.034169
#
#
# Mechanical properties :
#
#
# Convention : Reuss Voigt Hill
#
# Bulk Modulus (GPa) = 33.33585 57.05478 45.19531
# Shear Modulus (GPa) = 28.65137 46.60215 37.62676
#
# Velocity S-wave (km/s) = 3.32659 4.24257 3.81219
# Velocity P-wave (km/s) = 5.25646 6.78497 6.06903
#
# Compressibility (1/GPa) = 0.02999774
#
# Stress axis : x y z
#
# Youngs Moduli (GPa) = 80.14520 25.20257 128.73572
#
# Poissons Ratio (x) = 0.28274 0.00432
# Poissons Ratio (y) = 0.89911 0.47772
# Poissons Ratio (z) = 0.00269 0.09352
#
# Static dielectric constant tensor:
#      x y z
#    x 2.217010 0.000000 -0.141810 
#    y 0.000000 2.055390 0.000000 
#    z -0.141810 0.000000 2.384290 
# 
# From -- ./inp_files/3445.got.cif
#   From: 2010.05.17/outbox.cif.g08.bks.cpg/sg15_2_cif.got.tgz:3445.got - 2010.06.03 18:47:42.
