data_PCOD9307597
_publ_section_title
;
Structure prediction by ZEFSAII (Michael W. Deem and Ramdas Pophale) SiO2 
 PCOD9307597
Probable space group: C 2/C
;
_chemical_formula_sum "Si O2"
_cell_formula_units_Z 32
_cell_length_a 34.166230
_cell_length_b 4.956850
_cell_length_c 8.802990
_cell_angle_alpha 90.000000
_cell_angle_beta 69.228115
_cell_angle_gamma 90.000000
_cell_volume 1393.941572
_symmetry_space_group_name_H-M "C 2/C"
_symmetry_group_IT_number 15
_symmetry_cell_setting 'monoclinic'
loop_
_space_group_symop_operation_xyz
x,y,z
-x,y,1/2-z
-x,-y,-z
x,-y,1/2+z
1/2+x,1/2+y,z
1/2-x,1/2+y,1/2-z
1/2-x,1/2-y,-z
1/2+x,1/2-y,1/2+z
loop_
_atom_site_type_symbol
_atom_site_label
_atom_site_fract_x
_atom_site_fract_y
_atom_site_fract_z
Si Si1 0.146987 0.157040 0.960192
Si Si2 0.763502 0.120815 0.141759
Si Si3 0.019194 0.252669 0.888268
Si Si4 0.384278 0.816162 0.819021
O O1 0.132422 0.406655 0.084974
O O2 0.117622 0.906755 0.045638
O O3 0.143709 0.235039 0.788116
O O4 0.192794 0.037730 0.931306
O O5 0.766020 0.380577 0.251287
O O6 0.750000 0.250000 0.000000
O O7 0.068739 0.302653 0.808976
O O8 0.000000 0.241293 0.750000
O O9 0.000000 0.500000 0.000000
O O10 0.000000 0.000000 0.000000
#
# Coordination Sequence:
#
# PCOD9307597 Si02
#       4
#     8   8   8   8
#     4  12  26  46  71 101 140 185 233 292 353 421
#     4  12  27  49  74 105 140 184 235 296 362 430
#     4  12  24  43  70 104 142 187 234 288 346 414
#     4  12  25  46  70 104 142 186 235 288 350 421
#
# _framework density 22.956485000000001
#
# number of rings (size 3 to 8) (size 9 to 14) (size 15 to 20)
#    0.000    0.000    0.000   10.500    0.000    4.000 
#    0.000    0.000    0.000    0.000    0.000    0.000 
#    0.000    0.000    0.000    0.000    0.000    0.000 
#
# Total GULP energy -89626.151421 kJ/mol
# GULP energy per Si atom -5601.634464 kJ/mol
# Density = 2.290424 g / cm^3
# Si number density = 22.956485 Si / 1000 Ang^3
#
#
#
# Elastic Constant Matrix: (Units=GPa)
#
#
# Indices 1 2 3 4 5 6 
#
# 1 108.8912 45.3550 51.8829 0.0000 4.2752 0.0000
# 2 45.3550 223.6956 82.8184 0.0000 -8.3163 0.0000
# 3 51.8829 82.8184 125.1217 0.0000 2.2655 0.0000
# 4 0.0000 0.0000 0.0000 90.0736 0.0000 -13.7024
# 5 4.2752 -8.3163 2.2655 0.0000 43.5591 0.0000
# 6 0.0000 0.0000 0.0000 -13.7024 0.0000 25.1144
#
#
#
# Elastic Compliance Matrix: (Units=1/GPa)
#
#
# Indices 1 2 3 4 5 6 
#
# 1 0.011589 -0.000818 -0.004244 0.000000 -0.001073 0.000000
# 2 -0.000818 0.006058 -0.003696 0.000000 0.001429 0.000000
# 3 -0.004244 -0.003696 0.012216 0.000000 -0.000924 0.000000
# 4 0.000000 0.000000 0.000000 0.012107 0.000000 0.006606
# 5 -0.001073 0.001429 -0.000924 0.000000 0.023384 0.000000
# 6 0.000000 0.000000 0.000000 0.006606 0.000000 0.043422
#
#
# Mechanical properties :
#
#
# Convention : Reuss Voigt Hill
#
# Bulk Modulus (GPa) = 81.00879 90.86898 85.93889
# Shear Modulus (GPa) = 38.34155 50.25957 44.30056
#
# Velocity S-wave (km/s) = 4.09122 4.68412 4.39767
# Velocity P-wave (km/s) = 7.59487 8.30203 7.95631
#
# Compressibility (1/GPa) = 0.01234434
#
# Stress axis : x y z
#
# Youngs Moduli (GPa) = 86.29110 165.07480 81.86278
#
# Poissons Ratio (x) = 0.13505 0.34746
# Poissons Ratio (y) = 0.07060 0.30259
# Poissons Ratio (z) = 0.36625 0.61017
#
# Static dielectric constant tensor:
#      x y z
#    x 2.096480 0.000000 -0.247610 
#    y 0.000000 1.807830 0.000000 
#    z -0.247610 0.000000 2.055210 
# 
# From -- ./inp_files/67988.got.cif
#   From: 2010.05.17/outbox.cif.g08.bks.cpg/sg15_34_cif.got.tgz:67988.got - 2010.06.03 18:47:42.
