data_PCOD9307020
_publ_section_title
;
Structure prediction by ZEFSAII (Michael W. Deem and Ramdas Pophale) SiO2 
 PCOD9307020
Probable space group: C 2/C
;
_chemical_formula_sum "Si O2"
_cell_formula_units_Z 40
_cell_length_a 23.035987
_cell_length_b 15.428353
_cell_length_c 13.814036
_cell_angle_alpha 90.000000
_cell_angle_beta 20.434465
_cell_angle_gamma 90.000000
_cell_volume 1714.120465
_symmetry_space_group_name_H-M "C 2/C"
_symmetry_group_IT_number 15
_symmetry_cell_setting 'monoclinic'
loop_
_space_group_symop_operation_xyz
x,y,z
-x,y,1/2-z
-x,-y,-z
x,-y,1/2+z
1/2+x,1/2+y,z
1/2-x,1/2+y,1/2-z
1/2-x,1/2-y,-z
1/2+x,1/2-y,1/2+z
loop_
_atom_site_type_symbol
_atom_site_label
_atom_site_fract_x
_atom_site_fract_y
_atom_site_fract_z
Si Si1 0.500000 0.350873 0.250000
Si Si2 0.838420 0.537267 0.566967
Si Si3 0.633798 0.450835 0.226557
Si Si4 0.842960 0.659158 0.126010
Si Si5 0.000000 0.201619 0.250000
Si Si6 0.306359 0.902768 0.337154
O O1 0.548675 0.403092 0.270989
O O2 0.318382 0.312976 0.559968
O O3 0.721663 0.595785 0.679640
O O4 0.803631 0.433746 0.636371
O O5 0.836769 0.570812 0.678489
O O6 0.000000 0.540576 0.250000
O O7 0.500000 0.500000 0.500000
O O8 0.767722 0.514416 0.965335
O O9 0.877221 0.734889 0.998028
O O10 0.023216 0.643353 0.895681
O O11 0.872273 0.146102 0.384418
#
# Coordination Sequence:
#
# PCOD9307020 Si02
#       6
#     4   8   8   8   4   8
#     4  12  25  42  68 107 146 186 240 306 359 418
#     4  12  22  41  73 106 139 185 246 297 360 417
#     4  12  21  37  70 107 140 180 240 304 352 422
#     4  12  24  46  71 103 148 194 236 303 360 433
#     4  12  27  48  72 105 146 204 240 290 381 444
#     4  12  25  47  72 108 149 192 246 301 362 444
#
# _framework density 23.335583
#
# number of rings (size 3 to 8) (size 9 to 14) (size 15 to 20)
#    0.000    0.000    7.000    4.200    0.000    0.000 
#    5.400    1.000    0.000    0.000    0.000    0.000 
#    0.000    0.000    0.000    0.000    0.000    0.000 
#
# Total GULP energy -111471.244147 kJ/mol
# GULP energy per Si atom -5573.562207 kJ/mol
# Density = 2.328247 g / cm^3
# Si number density = 23.335583 Si / 1000 Ang^3
#
#
#
# Elastic Constant Matrix: (Units=GPa)
#
#
# Indices 1 2 3 4 5 6 
#
# 1 138.3160 8.5516 1.5032 0.0000 0.7673 0.0001
# 2 8.5516 29.2647 -7.8707 0.0004 -6.4783 0.0002
# 3 1.5032 -7.8707 137.9733 0.0011 12.5690 0.0000
# 4 0.0000 0.0004 0.0011 18.6174 -0.0004 7.8050
# 5 0.7673 -6.4783 12.5690 -0.0004 61.9940 0.0000
# 6 0.0001 0.0002 0.0000 7.8050 0.0000 15.7994
#
#
#
# Elastic Compliance Matrix: (Units=1/GPa)
#
#
# Indices 1 2 3 4 5 6 
#
# 1 0.007374 -0.002268 -0.000183 0.000000 -0.000291 0.000000
# 2 -0.002268 0.036071 0.001769 -0.000001 0.003439 0.000000
# 3 -0.000183 0.001769 0.007472 -0.000001 -0.001328 0.000000
# 4 0.000000 -0.000001 -0.000001 0.067743 0.000000 -0.033465
# 5 -0.000291 0.003439 -0.001328 0.000000 0.016763 0.000000
# 6 0.000000 0.000000 0.000000 -0.033465 0.000000 0.079826
#
#
# Mechanical properties :
#
#
# Convention : Reuss Voigt Hill
#
# Bulk Modulus (GPa) = 20.18122 34.43580 27.30851
# Shear Modulus (GPa) = 21.44730 39.50682 30.47706
#
# Velocity S-wave (km/s) = 3.03492 4.11905 3.61783
# Velocity P-wave (km/s) = 4.57690 6.11645 5.40181
#
# Compressibility (1/GPa) = 0.04955103
#
# Stress axis : x y z
#
# Youngs Moduli (GPa) = 135.61758 27.72330 133.83936
#
# Poissons Ratio (x) = 0.06289 0.02452
# Poissons Ratio (y) = 0.30764 -0.23678
# Poissons Ratio (z) = 0.02485 -0.04905
#
# Static dielectric constant tensor:
#      x y z
#    x 1.871640 0.000000 -0.112530 
#    y 0.000000 1.894330 0.000000 
#    z -0.112530 0.000000 2.007420 
# 
# From -- ./inp_files/174061.got.cif
#   From: 2010.05.17/outbox.cif.g08.bks.cpg/sg15_88_cif.got.tgz:174061.got - 2010.06.03 18:47:42.
