data_PCOD9307652
_publ_section_title
;
Structure prediction by ZEFSAII (Michael W. Deem and Ramdas Pophale) SiO2 
 PCOD9307652
Probable space group: C 2/C
;
_chemical_formula_sum "Si O2"
_cell_formula_units_Z 28
_cell_length_a 21.582927
_cell_length_b 5.261335
_cell_length_c 14.152955
_cell_angle_alpha 90.000000
_cell_angle_beta 41.810855
_cell_angle_gamma 90.000000
_cell_volume 1071.437249
_symmetry_space_group_name_H-M "C 2/C"
_symmetry_group_IT_number 15
_symmetry_cell_setting 'monoclinic'
loop_
_space_group_symop_operation_xyz
x,y,z
-x,y,1/2-z
-x,-y,-z
x,-y,1/2+z
1/2+x,1/2+y,z
1/2-x,1/2+y,1/2-z
1/2-x,1/2-y,-z
1/2+x,1/2-y,1/2+z
loop_
_atom_site_type_symbol
_atom_site_label
_atom_site_fract_x
_atom_site_fract_y
_atom_site_fract_z
Si Si1 0.555086 0.745639 0.828637
Si Si2 0.500000 0.349199 0.750000
Si Si3 0.119250 0.947726 0.453758
Si Si4 0.778394 0.496693 0.410788
O O1 0.567263 0.544145 0.730572
O O2 0.445536 0.703742 0.972443
O O3 0.609823 0.993298 0.732505
O O4 0.608082 0.658614 0.862246
O O5 0.565937 0.259546 0.589306
O O6 0.220939 0.991565 0.378197
O O7 0.750000 0.750000 0.500000
O O8 0.750000 0.250000 0.500000
#
# Coordination Sequence:
#
# PCOD9307652 Si02
#       4
#     8   4   8   8
#     4   9  19  40  69 108 142 198 245 310 376 452
#     4   8  14  38  72 100 150 192 244 300 384 436
#     4   9  19  40  72 104 151 192 252 305 377 451
#     4  12  24  44  74 107 149 201 254 316 380 449
#
# _framework density 26.133123999999999
#
# number of rings (size 3 to 8) (size 9 to 14) (size 15 to 20)
#    1.714    0.571    2.857    0.000    0.000    2.286 
#    0.000   12.857    0.000   18.857    0.000    0.000 
#    0.000    0.000    0.000    0.000    0.000    0.000 
#
# Total GULP energy -78089.692647 kJ/mol
# GULP energy per Si atom -5577.835189 kJ/mol
# Density = 2.607364 g / cm^3
# Si number density = 26.133124 Si / 1000 Ang^3
#
#
#
# Elastic Constant Matrix: (Units=GPa)
#
#
# Indices 1 2 3 4 5 6 
#
# 1 104.0846 31.0830 14.5242 -0.0701 29.8882 0.0332
# 2 31.0830 122.4026 41.9148 -0.0046 1.3645 -0.0160
# 3 14.5242 41.9148 71.8890 -0.0898 2.0063 0.0331
# 4 -0.0701 -0.0046 -0.0898 49.4045 0.0546 -11.2657
# 5 29.8882 1.3645 2.0063 0.0546 69.2989 -0.0042
# 6 0.0332 -0.0160 0.0331 -11.2657 -0.0042 8.4552
#
#
#
# Elastic Compliance Matrix: (Units=1/GPa)
#
#
# Indices 1 2 3 4 5 6 
#
# 1 0.011988 -0.002757 -0.000672 0.000013 -0.005097 -0.000034
# 2 -0.002757 0.010842 -0.005796 -0.000003 0.001144 0.000050
# 3 -0.000672 -0.005796 0.017429 0.000018 -0.000101 -0.000052
# 4 0.000013 -0.000003 0.000018 0.029075 -0.000027 0.038739
# 5 -0.005097 0.001144 -0.000101 -0.000027 0.016609 -0.000005
# 6 -0.000034 0.000050 -0.000052 0.038739 -0.000005 0.169885
#
#
# Mechanical properties :
#
#
# Convention : Reuss Voigt Hill
#
# Bulk Modulus (GPa) = 45.85613 52.60224 49.22919
# Shear Modulus (GPa) = 17.75892 39.48869 28.62380
#
# Velocity S-wave (km/s) = 2.60966 3.89145 3.31313
# Velocity P-wave (km/s) = 5.16388 6.35322 5.78918
#
# Compressibility (1/GPa) = 0.02180733
#
# Stress axis : x y z
#
# Youngs Moduli (GPa) = 83.41423 92.23329 57.37721
#
# Poissons Ratio (x) = 0.25432 0.03857
# Poissons Ratio (y) = 0.23000 0.33258
# Poissons Ratio (z) = 0.05607 0.53461
#
# Static dielectric constant tensor:
#      x y z
#    x 2.010940 -0.000090 -0.065780 
#    y -0.000090 2.126990 0.000070 
#    z -0.065780 0.000070 2.128200 
# 
# From -- ./inp_files/164924.got.cif
#   From: 2010.05.17/outbox.cif.g08.bks.cpg/sg15_83_cif.got.tgz:164924.got - 2010.06.03 18:47:42.
