data_PCOD9307665
_publ_section_title
;
Structure prediction by ZEFSAII (Michael W. Deem and Ramdas Pophale) SiO2 
 PCOD9307665
Probable space group: C 2/C
;
_chemical_formula_sum "Si O2"
_cell_formula_units_Z 52
_cell_length_a 9.190215
_cell_length_b 16.651362
_cell_length_c 19.531650
_cell_angle_alpha 90.000000
_cell_angle_beta 130.368078
_cell_angle_gamma 90.000000
_cell_volume 2277.256412
_symmetry_space_group_name_H-M "C 2/C"
_symmetry_group_IT_number 15
_symmetry_cell_setting 'monoclinic'
loop_
_space_group_symop_operation_xyz
x,y,z
-x,y,1/2-z
-x,-y,-z
x,-y,1/2+z
1/2+x,1/2+y,z
1/2-x,1/2+y,1/2-z
1/2-x,1/2-y,-z
1/2+x,1/2-y,1/2+z
loop_
_atom_site_type_symbol
_atom_site_label
_atom_site_fract_x
_atom_site_fract_y
_atom_site_fract_z
Si Si1 0.638126 0.464017 0.358703
Si Si2 0.594578 0.713680 0.901248
Si Si3 0.177618 0.748710 0.754840
Si Si4 0.729886 0.337522 0.642166
Si Si5 0.000000 0.525963 0.250000
Si Si6 0.554823 0.084652 0.648869
Si Si7 0.609534 0.565070 0.486061
O O1 0.500000 0.471657 0.250000
O O2 0.603351 0.380212 0.387964
O O3 0.846582 0.452260 0.387962
O O4 0.616322 0.532079 0.409756
O O5 0.376912 0.733335 0.853352
O O6 0.655402 0.762584 0.852084
O O7 0.750000 0.750000 0.000000
O O8 0.208202 0.825264 0.716249
O O9 0.129481 0.673149 0.690463
O O10 0.000000 0.758094 0.750000
O O11 0.520617 0.355112 0.549544
O O12 0.856285 0.415819 0.666713
O O13 0.889993 0.470142 0.269415
O O14 0.325900 0.081736 0.574444
O O15 0.500000 0.500000 0.500000
#
# Coordination Sequence:
#
# PCOD9307665 Si02
#       7
#     8   8   8   8   4   8   8
#     4  12  25  49  76 109 154 204 254 311 391 456
#     4  12  26  46  74 106 149 199 247 310 383 453
#     4  12  27  47  74 109 151 198 250 312 390 452
#     4  12  25  48  72 104 148 190 247 306 371 454
#     4  12  24  44  78 104 144 204 246 304 384 450
#     4  12  26  46  78 107 156 198 255 314 388 457
#     4  12  28  46  75 118 151 193 259 321 377 460
#
# _framework density 22.834492999999998
#
# number of rings (size 3 to 8) (size 9 to 14) (size 15 to 20)
#    0.000    0.000    6.923    2.308    4.308    3.692 
#    0.000    0.000    0.000    0.000    0.000    0.000 
#    0.000    0.000    0.000    0.000    0.000    0.000 
#
# Total GULP energy -145490.683167 kJ/mol
# GULP energy per Si atom -5595.795506 kJ/mol
# Density = 2.278252 g / cm^3
# Si number density = 22.834493 Si / 1000 Ang^3
#
#
#
# Elastic Constant Matrix: (Units=GPa)
#
#
# Indices 1 2 3 4 5 6 
#
# 1 129.3705 -10.0343 21.0272 0.0000 19.3143 0.0000
# 2 -10.0343 40.1596 -0.5831 0.0000 6.6433 0.0000
# 3 21.0272 -0.5831 115.6004 0.0000 27.5591 0.0000
# 4 0.0000 0.0000 0.0000 21.6856 0.0000 1.9802
# 5 19.3143 6.6433 27.5591 0.0000 50.2998 0.0000
# 6 0.0000 0.0000 0.0000 1.9802 0.0000 25.8377
#
#
#
# Elastic Compliance Matrix: (Units=1/GPa)
#
#
# Indices 1 2 3 4 5 6 
#
# 1 0.008540 0.002653 -0.000776 0.000000 -0.003204 0.000000
# 2 0.002653 0.026396 0.000833 0.000000 -0.004961 0.000000
# 3 -0.000776 0.000833 0.010066 0.000000 -0.005327 0.000000
# 4 0.000000 0.000000 0.000000 0.046439 0.000000 -0.003559
# 5 -0.003204 -0.004961 -0.005327 0.000000 0.024685 0.000000
# 6 0.000000 0.000000 0.000000 -0.003559 0.000000 0.038976
#
#
# Mechanical properties :
#
#
# Convention : Reuss Voigt Hill
#
# Bulk Modulus (GPa) = 19.83259 33.99445 26.91352
# Shear Modulus (GPa) = 30.03197 37.87933 33.95565
#
# Velocity S-wave (km/s) = 3.63051 4.07733 3.86039
# Velocity P-wave (km/s) = 5.12624 6.08982 5.62868
#
# Compressibility (1/GPa) = 0.05042205
#
# Stress axis : x y z
#
# Youngs Moduli (GPa) = 117.09585 37.88416 99.34588
#
# Poissons Ratio (x) = -0.10049 0.07710
# Poissons Ratio (y) = -0.31061 -0.08280
# Poissons Ratio (z) = 0.09088 -0.03157
#
# Static dielectric constant tensor:
#      x y z
#    x -3.526900 0.000000 9.587570 
#    y 0.000000 1.827350 0.000000 
#    z 9.587570 0.000000 -15.284040 
# 
# From -- ./inp_files/233125.got.cif
#   From: 2010.05.17/outbox.cif.g08.bks.cpg/sg15_117_cif.got.tgz:233125.got - 2010.06.03 18:47:42.
