data_PCOD9307724
_publ_section_title
;
Structure prediction by ZEFSAII (Michael W. Deem and Ramdas Pophale) SiO2 
 PCOD9307724
Probable space group: C 2/C
;
_chemical_formula_sum "Si O2"
_cell_formula_units_Z 36
_cell_length_a 13.048472
_cell_length_b 18.147679
_cell_length_c 9.907368
_cell_angle_alpha 90.000000
_cell_angle_beta 133.974500
_cell_angle_gamma 90.000000
_cell_volume 1688.339197
_symmetry_space_group_name_H-M "C 2/C"
_symmetry_group_IT_number 15
_symmetry_cell_setting 'monoclinic'
loop_
_space_group_symop_operation_xyz
x,y,z
-x,y,1/2-z
-x,-y,-z
x,-y,1/2+z
1/2+x,1/2+y,z
1/2-x,1/2+y,1/2-z
1/2-x,1/2-y,-z
1/2+x,1/2-y,1/2+z
loop_
_atom_site_type_symbol
_atom_site_label
_atom_site_fract_x
_atom_site_fract_y
_atom_site_fract_z
Si Si1 0.370175 0.963153 0.966794
Si Si2 0.786362 0.973713 0.415080
Si Si3 0.500000 0.584586 0.750000
Si Si4 0.935331 0.830503 0.457278
Si Si5 0.251916 0.798586 0.862653
O O1 0.347548 0.978094 0.105071
O O2 0.342049 0.874904 0.938896
O O3 0.243009 0.999795 0.763353
O O4 0.500000 0.000000 0.000000
O O5 0.854269 0.892439 0.473479
O O6 0.891626 0.031358 0.576203
O O7 0.555341 0.635215 0.681385
O O8 0.840943 0.758045 0.354364
O O9 0.090767 0.813644 0.664101
O O10 0.250000 0.750000 0.000000
#
# Coordination Sequence:
#
# PCOD9307724 Si02
#       5
#     8   8   4   8   8
#     4  12  27  47  75 114 151 199 254 319 377 453
#     4  12  24  47  78 105 147 197 254 307 379 456
#     4  12  24  46  76 102 142 192 258 310 374 458
#     4  12  27  46  74 110 148 201 251 317 387 460
#     4  12  27  46  74 107 154 199 254 308 388 465
#
# _framework density 21.32273
#
# number of rings (size 3 to 8) (size 9 to 14) (size 15 to 20)
#    0.000    0.000    6.667    3.333    3.111    2.667 
#    4.000    0.000    0.000    0.000    0.000    0.000 
#    0.000    0.000    0.000    0.000    0.000    0.000 
#
# Total GULP energy -100414.733288 kJ/mol
# GULP energy per Si atom -5578.596294 kJ/mol
# Density = 2.127420 g / cm^3
# Si number density = 21.322730 Si / 1000 Ang^3
#
#
#
# Elastic Constant Matrix: (Units=GPa)
#
#
# Indices 1 2 3 4 5 6 
#
# 1 108.3400 56.9592 13.5537 0.0000 -10.6849 0.0000
# 2 56.9592 167.3153 24.3272 0.0000 -1.4144 0.0000
# 3 13.5537 24.3272 71.7726 0.0000 -13.9133 0.0000
# 4 0.0000 0.0000 0.0000 39.7335 0.0000 -9.8040
# 5 -10.6849 -1.4144 -13.9133 0.0000 34.1565 0.0000
# 6 0.0000 0.0000 0.0000 -9.8040 0.0000 70.2298
#
#
#
# Elastic Compliance Matrix: (Units=1/GPa)
#
#
# Indices 1 2 3 4 5 6 
#
# 1 0.011644 -0.003904 -0.000218 0.000000 0.003392 0.000000
# 2 -0.003904 0.007609 -0.002190 0.000000 -0.001798 0.000000
# 3 -0.000218 -0.002190 0.015945 0.000000 0.006336 0.000000
# 4 0.000000 0.000000 0.000000 0.026065 0.000000 0.003639
# 5 0.003392 -0.001798 0.006336 0.000000 0.032845 0.000000
# 6 0.000000 0.000000 0.000000 0.003639 0.000000 0.014747
#
#
# Mechanical properties :
#
#
# Convention : Reuss Voigt Hill
#
# Bulk Modulus (GPa) = 44.30008 59.67870 51.98939
# Shear Modulus (GPa) = 38.75837 45.66316 42.21076
#
# Velocity S-wave (km/s) = 4.26808 4.63268 4.45411
# Velocity P-wave (km/s) = 6.71638 7.52760 7.13353
#
# Compressibility (1/GPa) = 0.02257332
#
# Stress axis : x y z
#
# Youngs Moduli (GPa) = 85.87824 131.42398 62.71638
#
# Poissons Ratio (x) = 0.51304 0.01369
# Poissons Ratio (y) = 0.33524 0.13738
# Poissons Ratio (z) = 0.01874 0.28788
#
# Static dielectric constant tensor:
#      x y z
#    x 1.720030 0.000000 0.074780 
#    y 0.000000 1.802430 0.000000 
#    z 0.074780 0.000000 1.742400 
# 
# From -- ./inp_files/40450.got.cif
#   From: 2010.05.17/outbox.cif.g08.bks.cpg/sg15_21_cif.got.tgz:40450.got - 2010.06.03 18:47:42.
