data_PCOD9307974
_publ_section_title
;
Structure prediction by ZEFSAII (Michael W. Deem and Ramdas Pophale) SiO2 
 PCOD9307974
Probable space group: C 2/C
;
_chemical_formula_sum "Si O2"
_cell_formula_units_Z 40
_cell_length_a 8.354390
_cell_length_b 24.325656
_cell_length_c 9.610521
_cell_angle_alpha 90.000000
_cell_angle_beta 69.304400
_cell_angle_gamma 90.000000
_cell_volume 1827.076144
_symmetry_space_group_name_H-M "C 2/C"
_symmetry_group_IT_number 15
_symmetry_cell_setting 'monoclinic'
loop_
_space_group_symop_operation_xyz
x,y,z
-x,y,1/2-z
-x,-y,-z
x,-y,1/2+z
1/2+x,1/2+y,z
1/2-x,1/2+y,1/2-z
1/2-x,1/2-y,-z
1/2+x,1/2-y,1/2+z
loop_
_atom_site_type_symbol
_atom_site_label
_atom_site_fract_x
_atom_site_fract_y
_atom_site_fract_z
Si Si1 0.846002 0.203192 0.688007
Si Si2 0.378630 0.481712 0.663843
Si Si3 0.667320 0.119268 0.110727
Si Si4 0.926922 0.789880 0.629762
Si Si5 0.670767 0.908666 0.288543
O O1 0.685890 0.237830 0.791577
O O2 0.788696 0.140084 0.691896
O O3 0.000000 0.207476 0.750000
O O4 0.920445 0.225152 0.520508
O O5 0.500000 0.460889 0.750000
O O6 0.500000 0.500000 0.500000
O O7 0.249159 0.435490 0.651125
O O8 0.274553 0.534568 0.750366
O O9 0.500000 0.134511 0.250000
O O10 0.805649 0.167426 0.086779
O O11 0.630782 0.107716 0.960181
O O12 0.000000 0.814695 0.750000
O O13 0.500000 0.913233 0.250000
#
# Coordination Sequence:
#
# PCOD9307974 Si02
#       5
#     8   8   8   8   8
#     4  12  25  48  74 103 146 190 233 296 351 423
#     4  12  25  47  74 100 141 185 236 291 355 419
#     4  12  28  46  72 106 144 186 237 295 350 424
#     4  12  27  46  75 107 144 186 240 290 357 420
#     4  12  28  47  71 105 146 186 235 293 358 416
#
# _framework density 21.892901999999999
#
# number of rings (size 3 to 8) (size 9 to 14) (size 15 to 20)
#    0.000    0.000    4.000    5.400    8.400    1.600 
#    0.000    0.000    0.000    0.000    0.000    0.000 
#    0.000    0.000    0.000    0.000    0.000    0.000 
#
# Total GULP energy -112134.935801 kJ/mol
# GULP energy per Si atom -5606.746790 kJ/mol
# Density = 2.184307 g / cm^3
# Si number density = 21.892902 Si / 1000 Ang^3
#
#
#
# Elastic Constant Matrix: (Units=GPa)
#
#
# Indices 1 2 3 4 5 6 
#
# 1 103.2917 14.4381 50.4660 0.0000 16.6394 0.0000
# 2 14.4381 86.4947 -1.5391 0.0000 -4.7493 0.0000
# 3 50.4660 -1.5391 114.6588 0.0000 3.8049 0.0000
# 4 0.0000 0.0000 0.0000 -18.3772 0.0000 24.1305
# 5 16.6394 -4.7493 3.8049 0.0000 49.2532 0.0000
# 6 0.0000 0.0000 0.0000 24.1305 0.0000 16.7417
#
#
#
# Elastic Compliance Matrix: (Units=1/GPa)
#
#
# Indices 1 2 3 4 5 6 
#
# 1 0.013635 -0.002623 -0.005891 0.000000 -0.004404 0.000000
# 2 -0.002623 0.012129 0.001252 0.000000 0.001959 0.000000
# 3 -0.005891 0.001252 0.011290 0.000000 0.001239 0.000000
# 4 0.000000 0.000000 0.000000 -0.018812 0.000000 0.027115
# 5 -0.004404 0.001959 0.001239 0.000000 0.021884 0.000000
# 6 0.000000 0.000000 0.000000 0.027115 0.000000 0.020650
#
#
# Mechanical properties :
#
#
# Convention : Reuss Voigt Hill
#
# Bulk Modulus (GPa) = 44.38104 47.90836 46.14470
# Shear Modulus (GPa) = 60.37956 25.59554 42.98755
#
# Velocity S-wave (km/s) = 5.25732 3.42296 4.43599
# Velocity P-wave (km/s) = 7.56098 6.12803 6.88190
#
# Compressibility (1/GPa) = 0.02253214
#
# Stress axis : x y z
#
# Youngs Moduli (GPa) = 73.33835 82.44667 88.57470
#
# Poissons Ratio (x) = 0.21624 0.52175
# Poissons Ratio (y) = 0.19235 -0.11091
# Poissons Ratio (z) = 0.43200 -0.10324
#
# Static dielectric constant tensor:
#      x y z
#    x 1.772800 0.000000 0.000930 
#    y 0.000000 1.764730 0.000000 
#    z 0.000930 0.000000 1.797270 
# 
# From -- ./inp_files/23488.got.cif
#   From: 2010.05.17/outbox.cif.g08.bks.cpg/sg15_12_cif.got.tgz:23488.got - 2010.06.03 18:47:42.
