data_PCOD9307439
_publ_section_title
;
Structure prediction by ZEFSAII (Michael W. Deem and Ramdas Pophale) SiO2 
 PCOD9307439
Probable space group: C 2/C
;
_chemical_formula_sum "Si O2"
_cell_formula_units_Z 48
_cell_length_a 10.756362
_cell_length_b 15.748349
_cell_length_c 13.243504
_cell_angle_alpha 90.000000
_cell_angle_beta 116.456898
_cell_angle_gamma 90.000000
_cell_volume 2008.432627
_symmetry_space_group_name_H-M "C 2/C"
_symmetry_group_IT_number 15
_symmetry_cell_setting 'monoclinic'
loop_
_space_group_symop_operation_xyz
x,y,z
-x,y,1/2-z
-x,-y,-z
x,-y,1/2+z
1/2+x,1/2+y,z
1/2-x,1/2+y,1/2-z
1/2-x,1/2-y,-z
1/2+x,1/2-y,1/2+z
loop_
_atom_site_type_symbol
_atom_site_label
_atom_site_fract_x
_atom_site_fract_y
_atom_site_fract_z
Si Si1 0.000000 0.382018 0.250000
Si Si2 0.261222 0.058874 0.021288
Si Si3 0.937907 0.187205 0.446269
Si Si4 0.205989 0.650578 0.678051
Si Si5 0.752577 0.360966 0.999379
Si Si6 0.383085 0.232712 0.353092
Si Si7 0.000000 0.396297 0.750000
O O1 0.894048 0.413402 0.297880
O O2 0.124767 0.345618 0.371601
O O3 0.406460 0.056335 0.134683
O O4 0.147918 0.104569 0.052617
O O5 0.267006 0.113995 0.921485
O O6 0.237887 0.961870 0.982390
O O7 0.867326 0.255490 0.346476
O O8 0.095061 0.166109 0.469844
O O9 0.961603 0.247461 0.552250
O O10 0.338635 0.676337 0.791091
O O11 0.800780 0.312790 0.915101
O O12 0.394724 0.164306 0.270425
#
# Coordination Sequence:
#
# PCOD9307439 Si02
#       7
#     4   8   8   8   8   8   4
#     4  12  23  44  74 100 141 182 234 280 349 404
#     4  12  27  45  70 107 144 180 231 290 351 409
#     4  12  23  48  71 100 140 188 230 284 341 416
#     4  12  24  45  75 103 137 185 240 286 340 416
#     4  12  27  45  70 107 144 180 231 290 351 409
#     4  12  24  45  75 103 137 185 240 286 340 416
#     4  12  23  44  74 100 141 182 234 280 349 404
#
# _framework density 23.899232999999999
#
# number of rings (size 3 to 8) (size 9 to 14) (size 15 to 20)
#    0.000    0.000    6.667    4.000    0.000    4.000 
#    0.000    1.667    0.000    0.000    0.000    0.000 
#    0.000    0.000    0.000    0.000    0.000    0.000 
#
# Total GULP energy -133769.928355 kJ/mol
# GULP energy per Si atom -5573.747015 kJ/mol
# Density = 2.384484 g / cm^3
# Si number density = 23.899233 Si / 1000 Ang^3
#
#
#
# Elastic Constant Matrix: (Units=GPa)
#
#
# Indices 1 2 3 4 5 6 
#
# 1 116.4123 48.4779 39.1709 0.0000 -14.7664 0.0000
# 2 48.4779 143.6562 19.6831 0.0000 -4.4249 0.0000
# 3 39.1709 19.6831 95.5279 0.0000 -14.8353 0.0000
# 4 0.0000 0.0000 0.0000 23.0771 0.0000 5.7074
# 5 -14.7664 -4.4249 -14.8353 0.0000 30.6154 0.0000
# 6 0.0000 0.0000 0.0000 5.7074 0.0000 42.0862
#
#
#
# Elastic Compliance Matrix: (Units=1/GPa)
#
#
# Indices 1 2 3 4 5 6 
#
# 1 0.011597 -0.003323 -0.003543 0.000000 0.003396 0.000000
# 2 -0.003323 0.008119 -0.000407 0.000000 -0.000627 0.000000
# 3 -0.003543 -0.000407 0.012685 0.000000 0.004379 0.000000
# 4 0.000000 0.000000 0.000000 0.044837 0.000000 -0.006080
# 5 0.003396 -0.000627 0.004379 0.000000 0.036333 0.000000
# 6 0.000000 0.000000 0.000000 -0.006080 0.000000 0.024585
#
#
# Mechanical properties :
#
#
# Convention : Reuss Voigt Hill
#
# Bulk Modulus (GPa) = 56.01285 63.36225 59.68755
# Shear Modulus (GPa) = 31.51484 35.70670 33.61077
#
# Velocity S-wave (km/s) = 3.63527 3.86949 3.75421
# Velocity P-wave (km/s) = 6.41157 6.82156 6.61974
#
# Compressibility (1/GPa) = 0.01785304
#
# Stress axis : x y z
#
# Youngs Moduli (GPa) = 86.22783 123.16604 78.83315
#
# Poissons Ratio (x) = 0.40934 0.27932
# Poissons Ratio (y) = 0.28658 0.03212
# Poissons Ratio (z) = 0.30552 0.05019
#
# Static dielectric constant tensor:
#      x y z
#    x 1.922890 0.000000 0.009700 
#    y 0.000000 2.048340 0.000000 
#    z 0.009700 0.000000 2.017560 
# 
# From -- ./inp_files/144422.got.cif
#   From: 2010.05.17/outbox.cif.g08.bks.cpg/sg15_73_cif.got.tgz:144422.got - 2010.06.03 18:47:42.
