data_PCOD9307232
_publ_section_title
;
Structure prediction by ZEFSAII (Michael W. Deem and Ramdas Pophale) SiO2 
 PCOD9307232
Probable space group: C 2/C
;
_chemical_formula_sum "Si O2"
_cell_formula_units_Z 44
_cell_length_a 11.761654
_cell_length_b 19.486733
_cell_length_c 9.068086
_cell_angle_alpha 90.000000
_cell_angle_beta 83.624215
_cell_angle_gamma 90.000000
_cell_volume 2065.516106
_symmetry_space_group_name_H-M "C 2/C"
_symmetry_group_IT_number 15
_symmetry_cell_setting 'monoclinic'
loop_
_space_group_symop_operation_xyz
x,y,z
-x,y,1/2-z
-x,-y,-z
x,-y,1/2+z
1/2+x,1/2+y,z
1/2-x,1/2+y,1/2-z
1/2-x,1/2-y,-z
1/2+x,1/2-y,1/2+z
loop_
_atom_site_type_symbol
_atom_site_label
_atom_site_fract_x
_atom_site_fract_y
_atom_site_fract_z
Si Si1 0.266283 0.752247 0.820270
Si Si2 0.093327 0.546622 0.062418
Si Si3 0.618085 0.371050 0.322992
Si Si4 0.748438 0.996132 0.293017
Si Si5 0.000000 0.331205 0.750000
Si Si6 0.622142 0.636879 0.165625
O O1 0.280559 0.675311 0.759491
O O2 0.387214 0.785848 0.752979
O O3 0.172946 0.799137 0.750933
O O4 0.250000 0.750000 0.000000
O O5 0.141777 0.511808 0.202645
O O6 0.034442 0.618414 0.110863
O O7 0.202819 0.546285 0.939619
O O8 0.000000 0.500000 0.000000
O O9 0.500000 0.362199 0.250000
O O10 0.657722 0.449947 0.302498
O O11 0.606609 0.349462 0.494558
O O12 0.796533 0.070575 0.329472
O O13 0.500000 0.618653 0.250000
#
# Coordination Sequence:
#
# PCOD9307232 Si02
#       6
#     8   8   8   8   4   8
#     4  12  26  50  75 106 148 196 244 304 371 444
#     4  12  22  43  70 106 141 185 237 299 365 431
#     4  12  27  46  72 103 144 189 244 302 370 433
#     4  12  25  44  72 106 146 185 244 301 367 436
#     4  12  24  44  80 100 150 190 240 300 370 430
#     4  12  27  47  73 107 147 194 249 304 367 444
#
# _framework density 21.302181999999998
#
# number of rings (size 3 to 8) (size 9 to 14) (size 15 to 20)
#    0.000    0.000    6.364    3.273    2.545    1.455 
#    0.000    0.000    0.000    0.000    0.000    0.000 
#    0.000    0.000    0.000    0.000    0.000    0.000 
#
# Total GULP energy -122998.109309 kJ/mol
# GULP energy per Si atom -5590.823150 kJ/mol
# Density = 2.125370 g / cm^3
# Si number density = 21.302182 Si / 1000 Ang^3
#
#
#
# Elastic Constant Matrix: (Units=GPa)
#
#
# Indices 1 2 3 4 5 6 
#
# 1 88.8988 22.4920 33.4851 0.0000 12.5623 0.0000
# 2 22.4920 95.3777 26.7097 0.0000 14.0931 0.0000
# 3 33.4851 26.7097 162.0409 0.0000 7.8944 0.0000
# 4 0.0000 0.0000 0.0000 30.6750 0.0000 -22.1946
# 5 12.5623 14.0931 7.8944 0.0000 39.2317 0.0000
# 6 0.0000 0.0000 0.0000 -22.1946 0.0000 27.2342
#
#
#
# Elastic Compliance Matrix: (Units=1/GPa)
#
#
# Indices 1 2 3 4 5 6 
#
# 1 0.013014 -0.002006 -0.002212 0.000000 -0.003001 0.000000
# 2 -0.002006 0.011835 -0.001374 0.000000 -0.003333 0.000000
# 3 -0.002212 -0.001374 0.006864 0.000000 -0.000179 0.000000
# 4 0.000000 0.000000 0.000000 0.079444 0.000000 0.064743
# 5 -0.003001 -0.003333 -0.000179 0.000000 0.027684 0.000000
# 6 0.000000 0.000000 0.000000 0.064743 0.000000 0.089481
#
#
# Mechanical properties :
#
#
# Convention : Reuss Voigt Hill
#
# Bulk Modulus (GPa) = 48.71418 56.85456 52.78437
# Shear Modulus (GPa) = 20.29656 37.00356 28.65006
#
# Velocity S-wave (km/s) = 3.09008 4.17235 3.67131
# Velocity P-wave (km/s) = 5.97070 7.06815 6.54248
#
# Compressibility (1/GPa) = 0.02052790
#
# Stress axis : x y z
#
# Youngs Moduli (GPa) = 76.84214 84.49625 145.69498
#
# Poissons Ratio (x) = 0.16949 0.32233
# Poissons Ratio (y) = 0.15413 0.20017
# Poissons Ratio (z) = 0.17000 0.11609
#
# Static dielectric constant tensor:
#      x y z
#    x 1.768710 0.000000 -0.047640 
#    y 0.000000 1.829470 0.000000 
#    z -0.047640 0.000000 1.809400 
# 
# From -- ./inp_files/30867.got.cif
#   From: 2010.05.17/outbox.cif.g08.bks.cpg/sg15_16_cif.got.tgz:30867.got - 2010.06.03 18:47:42.
