data_PCOD9307920
_publ_section_title
;
Structure prediction by ZEFSAII (Michael W. Deem and Ramdas Pophale) SiO2 
 PCOD9307920
Probable space group: C 2/C
;
_chemical_formula_sum "Si O2"
_cell_formula_units_Z 40
_cell_length_a 8.853158
_cell_length_b 23.285640
_cell_length_c 9.522465
_cell_angle_alpha 90.000000
_cell_angle_beta 67.209960
_cell_angle_gamma 90.000000
_cell_volume 1809.814080
_symmetry_space_group_name_H-M "C 2/C"
_symmetry_group_IT_number 15
_symmetry_cell_setting 'monoclinic'
loop_
_space_group_symop_operation_xyz
x,y,z
-x,y,1/2-z
-x,-y,-z
x,-y,1/2+z
1/2+x,1/2+y,z
1/2-x,1/2+y,1/2-z
1/2-x,1/2-y,-z
1/2+x,1/2-y,1/2+z
loop_
_atom_site_type_symbol
_atom_site_label
_atom_site_fract_x
_atom_site_fract_y
_atom_site_fract_z
Si Si1 0.752727 0.221510 0.652983
Si Si2 0.379461 0.488858 0.670561
Si Si3 0.661453 0.106782 0.113105
Si Si4 0.879933 0.785978 0.539011
Si Si5 0.650929 0.905212 0.288871
O O1 0.750000 0.250000 0.500000
O O2 0.644111 0.259701 0.797176
O O3 0.695626 0.155945 0.700876
O O4 0.948398 0.220146 0.600897
O O5 0.500000 0.466047 0.750000
O O6 0.500000 0.500000 0.500000
O O7 0.231070 0.448595 0.670430
O O8 0.299103 0.549759 0.737843
O O9 0.500000 0.129302 0.250000
O O10 0.815026 0.149567 0.063314
O O11 0.610598 0.101098 0.968339
O O12 0.750000 0.750000 0.500000
O O13 0.500000 0.928127 0.250000
#
# Coordination Sequence:
#
# PCOD9307920 Si02
#       5
#     8   8   8   8   8
#     4  12  27  47  73 110 146 194 246 307 369 447
#     4  12  27  48  78 109 147 196 252 312 376 441
#     4  12  28  48  75 110 149 198 251 306 374 445
#     4  12  25  45  75 104 147 192 244 300 376 437
#     4  12  28  49  74 106 155 196 246 311 372 440
#
# _framework density 22.101718000000002
#
# number of rings (size 3 to 8) (size 9 to 14) (size 15 to 20)
#    0.000    0.000    4.000    5.400    5.600    3.200 
#    0.000    0.000    0.000    0.000    0.000    0.000 
#    0.000    0.000    0.000    0.000    0.000    0.000 
#
# Total GULP energy -111763.179209 kJ/mol
# GULP energy per Si atom -5588.158960 kJ/mol
# Density = 2.205141 g / cm^3
# Si number density = 22.101718 Si / 1000 Ang^3
#
#
#
# Elastic Constant Matrix: (Units=GPa)
#
#
# Indices 1 2 3 4 5 6 
#
# 1 116.2373 4.2620 24.5810 0.0000 1.0179 0.0000
# 2 4.2620 61.4172 15.2108 0.0000 18.5599 0.0000
# 3 24.5810 15.2108 127.9529 0.0000 12.2010 0.0000
# 4 0.0000 0.0000 0.0000 11.3959 0.0000 13.3639
# 5 1.0179 18.5599 12.2010 0.0000 47.2481 0.0000
# 6 0.0000 0.0000 0.0000 13.3639 0.0000 24.5846
#
#
#
# Elastic Compliance Matrix: (Units=1/GPa)
#
#
# Indices 1 2 3 4 5 6 
#
# 1 0.008976 -0.000309 -0.001723 0.000000 0.000373 0.000000
# 2 -0.000309 0.018788 -0.001508 0.000000 -0.006984 0.000000
# 3 -0.001723 -0.001508 0.008474 0.000000 -0.001559 0.000000
# 4 0.000000 0.000000 0.000000 0.242048 0.000000 -0.131575
# 5 0.000373 -0.006984 -0.001559 0.000000 0.024303 0.000000
# 6 0.000000 0.000000 0.000000 -0.131575 0.000000 0.112198
#
#
# Mechanical properties :
#
#
# Convention : Reuss Voigt Hill
#
# Bulk Modulus (GPa) = 34.29678 43.74613 39.02145
# Shear Modulus (GPa) = 11.58518 34.08262 22.83390
#
# Velocity S-wave (km/s) = 2.29197 3.93119 3.21772
# Velocity P-wave (km/s) = 4.74927 6.35938 5.61237
#
# Compressibility (1/GPa) = 0.02915726
#
# Stress axis : x y z
#
# Youngs Moduli (GPa) = 111.41390 53.22677 118.00341
#
# Poissons Ratio (x) = 0.01644 0.20334
# Poissons Ratio (y) = 0.03440 0.17797
# Poissons Ratio (z) = 0.19198 0.08027
#
# Static dielectric constant tensor:
#      x y z
#    x 1.854030 0.000000 0.008450 
#    y 0.000000 1.921370 0.000000 
#    z 0.008450 0.000000 1.644180 
# 
# From -- ./inp_files/23489.got.cif
#   From: 2010.05.17/outbox.cif.g08.bks.cpg/sg15_12_cif.got.tgz:23489.got - 2010.06.03 18:47:42.
