data_PCOD9307535
_publ_section_title
;
Structure prediction by ZEFSAII (Michael W. Deem and Ramdas Pophale) SiO2 
 PCOD9307535
Probable space group: C 2/C
;
_chemical_formula_sum "Si O2"
_cell_formula_units_Z 40
_cell_length_a 9.439392
_cell_length_b 10.445273
_cell_length_c 18.611313
_cell_angle_alpha 90.000000
_cell_angle_beta 103.239667
_cell_angle_gamma 90.000000
_cell_volume 1786.246344
_symmetry_space_group_name_H-M "C 2/C"
_symmetry_group_IT_number 15
_symmetry_cell_setting 'monoclinic'
loop_
_space_group_symop_operation_xyz
x,y,z
-x,y,1/2-z
-x,-y,-z
x,-y,1/2+z
1/2+x,1/2+y,z
1/2-x,1/2+y,1/2-z
1/2-x,1/2-y,-z
1/2+x,1/2-y,1/2+z
loop_
_atom_site_type_symbol
_atom_site_label
_atom_site_fract_x
_atom_site_fract_y
_atom_site_fract_z
Si Si1 0.871194 0.261069 0.077231
Si Si2 0.890842 0.921932 0.937371
Si Si3 0.814537 0.658621 0.318594
Si Si4 0.926060 0.542103 0.066475
Si Si5 0.646144 0.444246 0.220586
O O1 0.807835 0.178874 0.134777
O O2 0.896016 0.406853 0.102107
O O3 0.025162 0.208047 0.069687
O O4 0.750000 0.250000 0.000000
O O5 0.735698 0.901497 0.956774
O O6 0.877111 0.003149 0.862555
O O7 0.000000 0.000000 0.000000
O O8 0.770853 0.534877 0.267981
O O9 0.965981 0.631965 0.376853
O O10 0.820247 0.792673 0.276872
O O11 0.000000 0.500000 0.000000
O O12 0.500000 0.462739 0.250000
#
# Coordination Sequence:
#
# PCOD9307535 Si02
#       5
#     8   8   8   8   8
#     4  12  23  49  75 110 156 196 252 315 384 456
#     4  12  25  49  78 106 150 202 252 316 382 450
#     4  12  28  50  74 112 156 199 257 313 387 462
#     4  12  27  46  79 114 150 199 261 321 378 461
#     4  12  29  48  77 111 154 201 253 316 385 461
#
# _framework density 22.393328
#
# number of rings (size 3 to 8) (size 9 to 14) (size 15 to 20)
#    0.000    0.000    8.000    0.000    5.600    0.800 
#    0.000    0.000    0.000    0.000    0.000    0.000 
#    0.000    0.000    0.000    0.000    0.000    0.000 
#
# Total GULP energy -111975.434856 kJ/mol
# GULP energy per Si atom -5598.771743 kJ/mol
# Density = 2.234236 g / cm^3
# Si number density = 22.393328 Si / 1000 Ang^3
#
#
#
# Elastic Constant Matrix: (Units=GPa)
#
#
# Indices 1 2 3 4 5 6 
#
# 1 186.3937 41.7866 49.5881 0.0000 -0.8061 0.0000
# 2 41.7866 128.2972 25.9830 0.0000 14.1165 0.0000
# 3 49.5881 25.9830 98.9897 0.0000 -2.3599 0.0000
# 4 0.0000 0.0000 0.0000 36.6285 0.0000 3.3203
# 5 -0.8061 14.1165 -2.3599 0.0000 27.2042 0.0000
# 6 0.0000 0.0000 0.0000 3.3203 0.0000 49.5658
#
#
#
# Elastic Compliance Matrix: (Units=1/GPa)
#
#
# Indices 1 2 3 4 5 6 
#
# 1 0.006479 -0.001631 -0.002798 0.000000 0.000795 0.000000
# 2 -0.001631 0.009223 -0.001723 0.000000 -0.004984 0.000000
# 3 -0.002798 -0.001723 0.012000 0.000000 0.001852 0.000000
# 4 0.000000 0.000000 0.000000 0.027468 0.000000 -0.001840
# 5 0.000795 -0.004984 0.001852 0.000000 0.039529 0.000000
# 6 0.000000 0.000000 0.000000 -0.001840 0.000000 0.020298
#
#
# Mechanical properties :
#
#
# Convention : Reuss Voigt Hill
#
# Bulk Modulus (GPa) = 64.94439 72.04401 68.49420
# Shear Modulus (GPa) = 37.75481 42.43456 40.09469
#
# Velocity S-wave (km/s) = 4.11053 4.35784 4.23599
# Velocity P-wave (km/s) = 7.18284 7.58703 7.38770
#
# Compressibility (1/GPa) = 0.01539779
#
# Stress axis : x y z
#
# Youngs Moduli (GPa) = 154.35653 108.42692 83.33217
#
# Poissons Ratio (x) = 0.17683 0.23319
# Poissons Ratio (y) = 0.25174 0.14355
# Poissons Ratio (z) = 0.43194 0.18678
#
# Static dielectric constant tensor:
#      x y z
#    x 1.845220 0.000000 -0.028830 
#    y 0.000000 1.877540 0.000000 
#    z -0.028830 0.000000 1.807300 
# 
# From -- ./inp_files/229949.got.cif
#   From: 2010.05.17/outbox.cif.g08.bks.cpg/sg15_115_cif.got.tgz:229949.got - 2010.06.03 18:47:42.
