data_PCOD9307897
_publ_section_title
;
Structure prediction by ZEFSAII (Michael W. Deem and Ramdas Pophale) SiO2 
 PCOD9307897
Probable space group: C 2/C
;
_chemical_formula_sum "Si O2"
_cell_formula_units_Z 52
_cell_length_a 27.799167
_cell_length_b 6.268845
_cell_length_c 14.009451
_cell_angle_alpha 90.000000
_cell_angle_beta 70.863400
_cell_angle_gamma 90.000000
_cell_volume 2306.495410
_symmetry_space_group_name_H-M "C 2/C"
_symmetry_group_IT_number 15
_symmetry_cell_setting 'monoclinic'
loop_
_space_group_symop_operation_xyz
x,y,z
-x,y,1/2-z
-x,-y,-z
x,-y,1/2+z
1/2+x,1/2+y,z
1/2-x,1/2+y,1/2-z
1/2-x,1/2-y,-z
1/2+x,1/2-y,1/2+z
loop_
_atom_site_type_symbol
_atom_site_label
_atom_site_fract_x
_atom_site_fract_y
_atom_site_fract_z
Si Si1 0.270733 0.778990 0.689171
Si Si2 0.500000 0.331113 0.750000
Si Si3 0.636870 0.893834 0.411702
Si Si4 0.041423 0.342052 0.024237
Si Si5 0.180776 0.969253 0.198237
Si Si6 0.708126 0.409850 0.978571
Si Si7 0.422677 0.512670 0.148576
O O1 0.211242 0.835818 0.724610
O O2 0.280877 0.712127 0.791041
O O3 0.276881 0.595396 0.605336
O O4 0.314930 0.953117 0.643947
O O5 0.475022 0.204112 0.855744
O O6 0.540833 0.465784 0.783948
O O7 0.662952 0.723564 0.462532
O O8 0.600777 0.745984 0.365424
O O9 0.595540 0.042750 0.488894
O O10 0.000000 0.500000 0.000000
O O11 0.051177 0.126536 0.952936
O O12 0.128289 0.903171 0.279075
O O13 0.182097 0.017901 0.087599
O O14 0.750000 0.250000 0.000000
#
# Coordination Sequence:
#
# PCOD9307897 Si02
#       7
#     8   4   8   8   8   8   8
#     4  12  25  49  70 112 160 199 260 315 376 468
#     4  12  30  50  84 112 146 210 256 328 414 458
#     4  12  25  49  76 104 164 195 246 333 378 455
#     4  12  28  53  80 114 156 198 265 337 392 472
#     4  12  25  43  78 105 152 206 249 307 387 458
#     4  12  26  44  69 115 152 206 256 310 375 463
#     4  12  28  51  75 116 153 200 264 324 390 477
#
# _framework density 22.545027000000001
#
# number of rings (size 3 to 8) (size 9 to 14) (size 15 to 20)
#    0.000    0.000    6.154    2.769    4.308    3.077 
#    0.000    0.000    0.000    0.000    0.000    0.000 
#    0.000    0.000    0.000    0.000    0.000    0.000 
#
# Total GULP energy -144854.653152 kJ/mol
# GULP energy per Si atom -5571.332814 kJ/mol
# Density = 2.249371 g / cm^3
# Si number density = 22.545027 Si / 1000 Ang^3
#
#
#
# Elastic Constant Matrix: (Units=GPa)
#
#
# Indices 1 2 3 4 5 6 
#
# 1 146.8173 46.2682 50.8212 0.0000 3.3860 0.0000
# 2 46.2682 85.4275 45.4662 0.0000 3.1133 0.0000
# 3 50.8212 45.4662 158.4617 0.0000 15.6588 0.0000
# 4 0.0000 0.0000 0.0000 25.6806 0.0000 -3.8200
# 5 3.3860 3.1133 15.6588 0.0000 41.1138 0.0000
# 6 0.0000 0.0000 0.0000 -3.8200 0.0000 51.2074
#
#
#
# Elastic Compliance Matrix: (Units=1/GPa)
#
#
# Indices 1 2 3 4 5 6 
#
# 1 0.008575 -0.003750 -0.001696 0.000000 0.000224 0.000000
# 2 -0.003750 0.015464 -0.003272 0.000000 0.000384 0.000000
# 3 -0.001696 -0.003272 0.008059 0.000000 -0.002682 0.000000
# 4 0.000000 0.000000 0.000000 0.039377 0.000000 0.002937
# 5 0.000224 0.000384 -0.002682 0.000000 0.025297 0.000000
# 6 0.000000 0.000000 0.000000 0.002937 0.000000 0.019748
#
#
# Mechanical properties :
#
#
# Convention : Reuss Voigt Hill
#
# Bulk Modulus (GPa) = 68.20793 75.09086 71.64940
# Shear Modulus (GPa) = 36.01200 40.14375 38.07788
#
# Velocity S-wave (km/s) = 4.00101 4.22430 4.11417
# Velocity P-wave (km/s) = 7.18776 7.56124 7.37686
#
# Compressibility (1/GPa) = 0.01466105
#
# Stress axis : x y z
#
# Youngs Moduli (GPa) = 116.61991 64.66511 124.08970
#
# Poissons Ratio (x) = 0.24246 0.21050
# Poissons Ratio (y) = 0.43727 0.40608
# Poissons Ratio (z) = 0.19783 0.21162
#
# Static dielectric constant tensor:
#      x y z
#    x 1.847870 0.000000 -0.036920 
#    y 0.000000 2.059030 0.000000 
#    z -0.036920 0.000000 1.843980 
# 
# From -- ./inp_files/180058.got.cif
#   From: 2010.05.17/outbox.cif.g08.bks.cpg/sg15_91_cif.got.tgz:180058.got - 2010.06.03 18:47:42.
