data_PCOD9307941
_publ_section_title
;
Structure prediction by ZEFSAII (Michael W. Deem and Ramdas Pophale) SiO2 
 PCOD9307941
Probable space group: C 2/C
;
_chemical_formula_sum "Si O2"
_cell_formula_units_Z 40
_cell_length_a 16.507944
_cell_length_b 8.975682
_cell_length_c 12.656312
_cell_angle_alpha 90.000000
_cell_angle_beta 67.515827
_cell_angle_gamma 90.000000
_cell_volume 1732.736944
_symmetry_space_group_name_H-M "C 2/C"
_symmetry_group_IT_number 15
_symmetry_cell_setting 'monoclinic'
loop_
_space_group_symop_operation_xyz
x,y,z
-x,y,1/2-z
-x,-y,-z
x,-y,1/2+z
1/2+x,1/2+y,z
1/2-x,1/2+y,1/2-z
1/2-x,1/2-y,-z
1/2+x,1/2-y,1/2+z
loop_
_atom_site_type_symbol
_atom_site_label
_atom_site_fract_x
_atom_site_fract_y
_atom_site_fract_z
Si Si1 0.962651 0.361829 0.587585
Si Si2 0.242214 0.802687 0.124942
Si Si3 0.198050 0.522913 0.256336
Si Si4 0.429169 0.411438 0.363657
Si Si5 0.317130 0.337069 0.041536
O O1 0.904057 0.439450 0.709566
O O2 0.888096 0.271968 0.559346
O O3 0.000000 0.500000 0.500000
O O4 0.030086 0.232137 0.593966
O O5 0.254386 0.669170 0.200592
O O6 0.296782 0.945637 0.131596
O O7 0.142210 0.851207 0.182499
O O8 0.250000 0.750000 0.000000
O O9 0.248293 0.410049 0.156167
O O10 0.500000 0.483533 0.250000
O O11 0.376575 0.531145 0.460008
O O12 0.250000 0.250000 0.000000
#
# Coordination Sequence:
#
# PCOD9307941 Si02
#       5
#     8   8   8   8   8
#     4  12  28  45  73 110 151 191 251 316 380 439
#     4  12  25  46  78 108 150 201 253 306 374 455
#     4  12  25  47  75 107 147 197 256 298 376 457
#     4  12  25  46  73 108 155 195 242 321 383 435
#     4  12  28  48  76 107 150 205 257 303 376 462
#
# _framework density 23.084865000000001
#
# number of rings (size 3 to 8) (size 9 to 14) (size 15 to 20)
#    0.000    0.000    6.000    3.000    2.800    1.600 
#    0.000    0.000    0.000    0.000    0.000    0.000 
#    0.000    0.000    0.000    0.000    0.000    0.000 
#
# Total GULP energy -111527.699256 kJ/mol
# GULP energy per Si atom -5576.384963 kJ/mol
# Density = 2.303232 g / cm^3
# Si number density = 23.084865 Si / 1000 Ang^3
#
#
#
# Elastic Constant Matrix: (Units=GPa)
#
#
# Indices 1 2 3 4 5 6 
#
# 1 110.4016 60.4449 10.7759 0.0000 -7.2331 0.0000
# 2 60.4449 172.0215 71.4131 0.0000 2.7979 0.0000
# 3 10.7759 71.4131 121.7911 0.0000 -29.1871 0.0000
# 4 0.0000 0.0000 0.0000 52.4957 0.0000 -9.7274
# 5 -7.2331 2.7979 -29.1871 0.0000 37.8330 0.0000
# 6 0.0000 0.0000 0.0000 -9.7274 0.0000 53.7738
#
#
#
# Elastic Compliance Matrix: (Units=1/GPa)
#
#
# Indices 1 2 3 4 5 6 
#
# 1 0.012358 -0.006019 0.003814 0.000000 0.005750 0.000000
# 2 -0.006019 0.011458 -0.008176 0.000000 -0.008306 0.000000
# 3 0.003814 -0.008176 0.015933 0.000000 0.013625 0.000000
# 4 0.000000 0.000000 0.000000 0.019710 0.000000 0.003565
# 5 0.005750 -0.008306 0.013625 0.000000 0.038657 0.000000
# 6 0.000000 0.000000 0.000000 0.003565 0.000000 0.019241
#
#
# Mechanical properties :
#
#
# Convention : Reuss Voigt Hill
#
# Bulk Modulus (GPa) = 52.67159 76.60911 64.64035
# Shear Modulus (GPa) = 34.61466 46.25920 40.43693
#
# Velocity S-wave (km/s) = 3.87648 4.48132 4.18983
# Velocity P-wave (km/s) = 6.54997 7.74818 7.17413
#
# Compressibility (1/GPa) = 0.01898557
#
# Stress axis : x y z
#
# Youngs Moduli (GPa) = 80.92071 87.27879 62.76379
#
# Poissons Ratio (x) = 0.52534 -0.23938
# Poissons Ratio (y) = 0.48707 0.51316
# Poissons Ratio (z) = -0.30863 0.71360
#
# Static dielectric constant tensor:
#      x y z
#    x 1.904090 0.000000 -0.015690 
#    y 0.000000 2.032340 0.000000 
#    z -0.015690 0.000000 2.027940 
# 
# From -- ./inp_files/150616.got.cif
#   From: 2010.05.17/outbox.cif.g08.bks.cpg/sg15_76_cif.got.tgz:150616.got - 2010.06.03 18:47:42.
