data_PCOD9307986
_publ_section_title
;
Structure prediction by ZEFSAII (Michael W. Deem and Ramdas Pophale) SiO2 
 PCOD9307986
Probable space group: C 2/C
;
_chemical_formula_sum "Si O2"
_cell_formula_units_Z 40
_cell_length_a 12.002569
_cell_length_b 24.220728
_cell_length_c 10.085768
_cell_angle_alpha 90.000000
_cell_angle_beta 141.085009
_cell_angle_gamma 90.000000
_cell_volume 1841.811832
_symmetry_space_group_name_H-M "C 2/C"
_symmetry_group_IT_number 15
_symmetry_cell_setting 'monoclinic'
loop_
_space_group_symop_operation_xyz
x,y,z
-x,y,1/2-z
-x,-y,-z
x,-y,1/2+z
1/2+x,1/2+y,z
1/2-x,1/2+y,1/2-z
1/2-x,1/2-y,-z
1/2+x,1/2-y,1/2+z
loop_
_atom_site_type_symbol
_atom_site_label
_atom_site_fract_x
_atom_site_fract_y
_atom_site_fract_z
Si Si1 0.516297 0.291647 0.913913
Si Si2 0.210772 0.890339 0.446586
Si Si3 0.379307 0.818321 0.381077
Si Si4 0.276265 0.115425 0.317405
Si Si5 0.128874 0.504289 0.993594
O O1 0.500000 0.268508 0.750000
O O2 0.464750 0.242510 0.966144
O O3 0.376216 0.340858 0.793429
O O4 0.710618 0.313331 0.128578
O O5 0.307202 0.842511 0.452526
O O6 0.274917 0.893105 0.657368
O O7 0.000000 0.881572 0.250000
O O8 0.260766 0.948420 0.424472
O O9 0.532785 0.858723 0.471442
O O10 0.251884 0.057938 0.369950
O O11 0.000000 0.511995 0.750000
O O12 0.000000 0.500000 0.000000
#
# Coordination Sequence:
#
# PCOD9307986 Si02
#       5
#     8   8   8   8   8
#     4  12  28  46  72 112 148 195 252 303 370 445
#     4  12  26  50  74 109 149 188 256 306 370 446
#     4  12  25  48  74 103 147 197 238 310 366 437
#     4  12  27  48  75 109 147 195 248 307 371 448
#     4  12  25  47  77 108 147 197 246 305 373 442
#
# _framework density 21.717746000000002
#
# number of rings (size 3 to 8) (size 9 to 14) (size 15 to 20)
#    0.000    0.000    8.000    1.200    2.800    2.400 
#    3.600    0.000    0.000    0.000    0.000    0.000 
#    0.000    0.000    0.000    0.000    0.000    0.000 
#
# Total GULP energy -112033.755085 kJ/mol
# GULP energy per Si atom -5601.687754 kJ/mol
# Density = 2.166832 g / cm^3
# Si number density = 21.717746 Si / 1000 Ang^3
#
#
#
# Elastic Constant Matrix: (Units=GPa)
#
#
# Indices 1 2 3 4 5 6 
#
# 1 79.4530 46.8503 37.6128 0.0000 4.9660 0.0000
# 2 46.8503 141.9004 28.8919 0.0000 6.9827 0.0000
# 3 37.6128 28.8919 117.6958 0.0000 9.1771 0.0000
# 4 0.0000 0.0000 0.0000 31.3477 0.0000 4.2561
# 5 4.9660 6.9827 9.1771 0.0000 44.6173 0.0000
# 6 0.0000 0.0000 0.0000 4.2561 0.0000 35.7065
#
#
#
# Elastic Compliance Matrix: (Units=1/GPa)
#
#
# Indices 1 2 3 4 5 6 
#
# 1 0.017567 -0.004892 -0.004391 0.000000 -0.000287 0.000000
# 2 -0.004892 0.008808 -0.000543 0.000000 -0.000722 0.000000
# 3 -0.004391 -0.000543 0.010151 0.000000 -0.001514 0.000000
# 4 0.000000 0.000000 0.000000 0.032425 0.000000 -0.003865
# 5 -0.000287 -0.000722 -0.001514 0.000000 0.022869 0.000000
# 6 0.000000 0.000000 0.000000 -0.003865 0.000000 0.028467
#
#
# Mechanical properties :
#
#
# Convention : Reuss Voigt Hill
#
# Bulk Modulus (GPa) = 59.25665 62.86214 61.05940
# Shear Modulus (GPa) = 34.34927 37.38058 35.86492
#
# Velocity S-wave (km/s) = 3.98128 4.15324 4.06816
# Velocity P-wave (km/s) = 6.96263 7.21159 7.08820
#
# Compressibility (1/GPa) = 0.01687574
#
# Stress axis : x y z
#
# Youngs Moduli (GPa) = 56.92445 113.52858 98.51286
#
# Poissons Ratio (x) = 0.55537 0.43255
# Poissons Ratio (y) = 0.27847 0.05345
# Poissons Ratio (z) = 0.24995 0.06160
#
# Static dielectric constant tensor:
#      x y z
#    x 1.776010 0.000000 -0.001550 
#    y 0.000000 1.800930 0.000000 
#    z -0.001550 0.000000 1.763800 
# 
# From -- ./inp_files/100741.got.cif
#   From: 2010.05.17/outbox.cif.g08.bks.cpg/sg15_51_cif.got.tgz:100741.got - 2010.06.03 18:47:42.
