data_PCOD9307549
_publ_section_title
;
Structure prediction by ZEFSAII (Michael W. Deem and Ramdas Pophale) SiO2 
 PCOD9307549
Probable space group: C 2/C
;
_chemical_formula_sum "Si O2"
_cell_formula_units_Z 40
_cell_length_a 12.081449
_cell_length_b 26.165757
_cell_length_c 8.496589
_cell_angle_alpha 90.000000
_cell_angle_beta 135.681891
_cell_angle_gamma 90.000000
_cell_volume 1876.511760
_symmetry_space_group_name_H-M "C 2/C"
_symmetry_group_IT_number 15
_symmetry_cell_setting 'monoclinic'
loop_
_space_group_symop_operation_xyz
x,y,z
-x,y,1/2-z
-x,-y,-z
x,-y,1/2+z
1/2+x,1/2+y,z
1/2-x,1/2+y,1/2-z
1/2-x,1/2-y,-z
1/2+x,1/2-y,1/2+z
loop_
_atom_site_type_symbol
_atom_site_label
_atom_site_fract_x
_atom_site_fract_y
_atom_site_fract_z
Si Si1 0.616118 0.639241 0.580839
Si Si2 0.607178 0.720020 0.013674
Si Si3 0.926142 0.948162 0.999593
Si Si4 0.161240 0.295886 0.325816
Si Si5 0.313940 0.128008 0.105555
O O1 0.508033 0.689482 0.486434
O O2 0.499221 0.592753 0.453707
O O3 0.740676 0.652178 0.575092
O O4 0.712967 0.629301 0.840807
O O5 0.500000 0.726528 0.750000
O O6 0.645670 0.773834 0.132256
O O7 0.753362 0.681074 0.128102
O O8 0.000000 0.947260 0.250000
O O9 0.751883 0.921728 0.862038
O O10 0.000000 0.000000 0.000000
O O11 0.250000 0.250000 0.500000
O O12 0.000000 0.304094 0.250000
O O13 0.500000 0.126444 0.250000
#
# Coordination Sequence:
#
# PCOD9307549 Si02
#       5
#     8   8   8   8   8
#     4   9  20  39  56  81 121 158 195 246 295 370
#     4   9  20  39  58  79 115 169 208 234 289 368
#     4   9  19  42  64  85 114 153 197 249 313 371
#     4  12  24  38  54  85 129 163 204 250 302 350
#     4   9  19  35  62  88 113 149 210 250 287 353
#
# _framework density 21.316147000000001
#
# number of rings (size 3 to 8) (size 9 to 14) (size 15 to 20)
#    0.000    2.400    2.000    2.400    2.800    4.000 
#    7.200    8.000    0.000    0.000    0.000    0.000 
#    0.000    0.000    0.000    0.000    0.000    0.000 
#
# Total GULP energy -111379.456867 kJ/mol
# GULP energy per Si atom -5568.972843 kJ/mol
# Density = 2.126763 g / cm^3
# Si number density = 21.316147 Si / 1000 Ang^3
#
#
#
# Elastic Constant Matrix: (Units=GPa)
#
#
# Indices 1 2 3 4 5 6 
#
# 1 185.2361 68.8268 29.5518 0.0000 41.6968 0.0000
# 2 68.8268 93.0023 13.0861 0.0000 11.2955 0.0000
# 3 29.5518 13.0861 47.1353 0.0000 7.3861 0.0000
# 4 0.0000 0.0000 0.0000 11.0716 0.0000 -6.3501
# 5 41.6968 11.2955 7.3861 0.0000 34.3924 0.0000
# 6 0.0000 0.0000 0.0000 -6.3501 0.0000 47.5691
#
#
#
# Elastic Compliance Matrix: (Units=1/GPa)
#
#
# Indices 1 2 3 4 5 6 
#
# 1 0.010394 -0.006025 -0.003290 0.000000 -0.009916 0.000000
# 2 -0.006025 0.015013 -0.000789 0.000000 0.002543 0.000000
# 3 -0.003290 -0.000789 0.023627 0.000000 -0.000826 0.000000
# 4 0.000000 0.000000 0.000000 0.097810 0.000000 0.013057
# 5 -0.009916 0.002543 -0.000826 0.000000 0.040441 0.000000
# 6 0.000000 0.000000 0.000000 0.013057 0.000000 0.022765
#
#
# Mechanical properties :
#
#
# Convention : Reuss Voigt Hill
#
# Bulk Modulus (GPa) = 34.69124 60.92258 47.80691
# Shear Modulus (GPa) = 20.84482 32.86724 26.85603
#
# Velocity S-wave (km/s) = 3.13051 3.93096 3.55335
# Velocity P-wave (km/s) = 5.42003 7.01753 6.26987
#
# Compressibility (1/GPa) = 0.02882572
#
# Stress axis : x y z
#
# Youngs Moduli (GPa) = 96.20687 66.60712 42.32478
#
# Poissons Ratio (x) = 0.40131 0.13925
# Poissons Ratio (y) = 0.57965 0.03341
# Poissons Ratio (z) = 0.31653 0.05257
#
# Static dielectric constant tensor:
#      x y z
#    x 1.853280 0.000000 0.009750 
#    y 0.000000 1.823080 0.000000 
#    z 0.009750 0.000000 1.868340 
# 
# From -- ./inp_files/33901.got.cif
#   From: 2010.05.17/outbox.cif.g08.bks.cpg/sg15_17_cif.got.tgz:33901.got - 2010.06.03 18:47:42.
