data_PCOD9307823
_publ_section_title
;
Structure prediction by ZEFSAII (Michael W. Deem and Ramdas Pophale) SiO2 
 PCOD9307823
Probable space group: C 2/C
;
_chemical_formula_sum "Si O2"
_cell_formula_units_Z 32
_cell_length_a 8.911997
_cell_length_b 14.312911
_cell_length_c 10.925453
_cell_angle_alpha 90.000000
_cell_angle_beta 83.724366
_cell_angle_gamma 90.000000
_cell_volume 1385.262669
_symmetry_space_group_name_H-M "C 2/C"
_symmetry_group_IT_number 15
_symmetry_cell_setting 'monoclinic'
loop_
_space_group_symop_operation_xyz
x,y,z
-x,y,1/2-z
-x,-y,-z
x,-y,1/2+z
1/2+x,1/2+y,z
1/2-x,1/2+y,1/2-z
1/2-x,1/2-y,-z
1/2+x,1/2-y,1/2+z
loop_
_atom_site_type_symbol
_atom_site_label
_atom_site_fract_x
_atom_site_fract_y
_atom_site_fract_z
Si Si1 0.418300 0.094860 0.059055
Si Si2 0.830689 0.330461 0.318412
Si Si3 0.329042 0.522973 0.229967
Si Si4 0.212920 0.307304 0.625419
O O1 0.277396 0.061354 0.151883
O O2 0.548443 0.148454 0.121294
O O3 0.359667 0.166485 0.960819
O O4 0.500000 0.000000 0.000000
O O5 0.748126 0.428269 0.304396
O O6 0.741422 0.254991 0.244281
O O7 0.000000 0.331140 0.250000
O O8 0.500000 0.506634 0.250000
O O9 0.322591 0.603545 0.128346
O O10 0.250000 0.250000 0.500000
#
# Coordination Sequence:
#
# PCOD9307823 Si02
#       4
#     8   8   8   8
#     4  12  24  51  81 107 153 206 253 317 383 451
#     4  12  24  48  80 112 152 199 252 317 386 448
#     4  12  28  48  73 113 158 200 254 314 379 456
#     4  12  25  47  79 112 148 201 259 315 383 454
#
# _framework density 23.100311999999999
#
# number of rings (size 3 to 8) (size 9 to 14) (size 15 to 20)
#    0.000    0.000    7.500    1.500    0.000    4.000 
#    4.500    0.000    0.000    0.000    0.000    0.000 
#    0.000    0.000    0.000    0.000    0.000    0.000 
#
# Total GULP energy -89560.478227 kJ/mol
# GULP energy per Si atom -5597.529889 kJ/mol
# Density = 2.304773 g / cm^3
# Si number density = 23.100312 Si / 1000 Ang^3
#
#
#
# Elastic Constant Matrix: (Units=GPa)
#
#
# Indices 1 2 3 4 5 6 
#
# 1 98.9621 11.8476 47.1978 0.0000 11.9275 0.0000
# 2 11.8476 127.6597 31.7342 0.0000 25.0453 0.0000
# 3 47.1978 31.7342 70.8193 0.0000 37.5151 0.0000
# 4 0.0000 0.0000 0.0000 58.5669 0.0000 43.3988
# 5 11.9275 25.0453 37.5151 0.0000 45.3976 0.0000
# 6 0.0000 0.0000 0.0000 43.3988 0.0000 84.3137
#
#
#
# Elastic Compliance Matrix: (Units=1/GPa)
#
#
# Indices 1 2 3 4 5 6 
#
# 1 0.016508 0.000758 -0.015691 0.000000 0.008212 0.000000
# 2 0.000758 0.009061 -0.003222 0.000000 -0.002535 0.000000
# 3 -0.015691 -0.003222 0.040723 0.000000 -0.027752 0.000000
# 4 0.000000 0.000000 0.000000 0.027603 0.000000 -0.014208
# 5 0.008212 -0.002535 -0.027752 0.000000 0.044202 0.000000
# 6 0.000000 0.000000 0.000000 -0.014208 0.000000 0.019174
#
#
# Mechanical properties :
#
#
# Convention : Reuss Voigt Hill
#
# Bulk Modulus (GPa) = 33.35522 53.22225 43.28873
# Shear Modulus (GPa) = 24.56089 51.43309 37.99699
#
# Velocity S-wave (km/s) = 3.26425 4.72371 4.06010
# Velocity P-wave (km/s) = 5.35516 7.26917 6.38430
#
# Compressibility (1/GPa) = 0.02998032
#
# Stress axis : x y z
#
# Youngs Moduli (GPa) = 60.57649 110.35791 24.55637
#
# Poissons Ratio (x) = -0.08360 0.38532
# Poissons Ratio (y) = -0.04589 0.07913
# Poissons Ratio (z) = 0.95052 0.35560
#
# Static dielectric constant tensor:
#      x y z
#    x 1.827710 0.000000 -0.017450 
#    y 0.000000 1.865200 0.000000 
#    z -0.017450 0.000000 1.943700 
# 
# From -- ./inp_files/75312.got.cif
#   From: 2010.05.17/outbox.cif.g08.bks.cpg/sg15_38_cif.got.tgz:75312.got - 2010.06.03 18:47:42.
