data_PCOD9307350
_publ_section_title
;
Structure prediction by ZEFSAII (Michael W. Deem and Ramdas Pophale) SiO2 
 PCOD9307350
Probable space group: C 2/C
;
_chemical_formula_sum "Si O2"
_cell_formula_units_Z 56
_cell_length_a 8.403877
_cell_length_b 17.621027
_cell_length_c 21.743778
_cell_angle_alpha 90.000000
_cell_angle_beta 53.788993
_cell_angle_gamma 90.000000
_cell_volume 2597.987219
_symmetry_space_group_name_H-M "C 2/C"
_symmetry_group_IT_number 15
_symmetry_cell_setting 'monoclinic'
loop_
_space_group_symop_operation_xyz
x,y,z
-x,y,1/2-z
-x,-y,-z
x,-y,1/2+z
1/2+x,1/2+y,z
1/2-x,1/2+y,1/2-z
1/2-x,1/2-y,-z
1/2+x,1/2-y,1/2+z
loop_
_atom_site_type_symbol
_atom_site_label
_atom_site_fract_x
_atom_site_fract_y
_atom_site_fract_z
Si Si1 0.419324 0.180203 0.358747
Si Si2 0.582064 0.437119 0.666444
Si Si3 0.391346 0.487554 0.461003
Si Si4 0.345745 0.705628 0.196273
Si Si5 0.494339 0.015936 0.392691
Si Si6 0.689270 0.873573 0.298498
Si Si7 0.570899 0.348638 0.128713
O O1 0.641838 0.187473 0.279422
O O2 0.238478 0.190096 0.352540
O O3 0.409934 0.094507 0.384776
O O4 0.413441 0.260945 0.395091
O O5 0.500000 0.468639 0.750000
O O6 0.505843 0.472294 0.620499
O O7 0.516672 0.350513 0.677547
O O8 0.810255 0.456372 0.617570
O O9 0.500000 0.500000 0.500000
O O10 0.170954 0.516765 0.524613
O O11 0.381926 0.401621 0.439223
O O12 0.414590 0.792304 0.186735
O O13 0.560735 0.949970 0.330005
O O14 0.787221 0.865994 0.344725
O O15 0.859485 0.869997 0.207726
#
# Coordination Sequence:
#
# PCOD9307350 Si02
#       7
#     8   8   8   8   8   8   8
#     4   9  19  37  67  97 129 172 222 269 331 396
#     4  12  23  42  71  97 129 178 227 277 333 399
#     4  12  27  44  63  98 143 177 224 280 345 406
#     4   9  19  39  64  98 132 165 222 277 322 395
#     4  12  23  40  66 100 132 174 224 279 341 400
#     4   9  19  39  69 100 125 170 224 277 322 394
#     4   9  19  40  67  93 132 179 221 263 330 404
#
# _framework density 21.555147999999999
#
# number of rings (size 3 to 8) (size 9 to 14) (size 15 to 20)
#    0.000    1.714    2.857    3.857    0.000    0.571 
#    2.571    0.714    0.000    0.000    0.000    0.000 
#    0.000    0.000    0.000    0.000    0.000    0.000 
#
# Total GULP energy -156072.034453 kJ/mol
# GULP energy per Si atom -5574.001230 kJ/mol
# Density = 2.150609 g / cm^3
# Si number density = 21.555148 Si / 1000 Ang^3
#
#
#
# Elastic Constant Matrix: (Units=GPa)
#
#
# Indices 1 2 3 4 5 6 
#
# 1 53.0605 8.9643 32.5609 0.0001 -0.2054 -0.0001
# 2 8.9643 142.6409 36.2840 0.0000 -2.1417 0.0000
# 3 32.5609 36.2840 89.9700 0.0001 9.1064 0.0000
# 4 0.0001 0.0000 0.0001 18.6426 -0.0001 8.2567
# 5 -0.2054 -2.1417 9.1064 -0.0001 24.6769 0.0001
# 6 -0.0001 0.0000 0.0000 8.2567 0.0001 28.2128
#
#
#
# Elastic Compliance Matrix: (Units=1/GPa)
#
#
# Indices 1 2 3 4 5 6 
#
# 1 0.024654 0.000979 -0.009709 0.000000 0.003873 0.000000
# 2 0.000979 0.007939 -0.003767 0.000000 0.002087 0.000000
# 3 -0.009709 -0.003767 0.016817 0.000000 -0.006614 0.000000
# 4 0.000000 0.000000 0.000000 0.061629 0.000000 -0.018036
# 5 0.003873 0.002087 -0.006614 0.000000 0.043178 0.000000
# 6 0.000000 0.000000 0.000000 -0.018036 0.000000 0.040723
#
#
# Mechanical properties :
#
#
# Convention : Reuss Voigt Hill
#
# Bulk Modulus (GPa) = 40.95874 49.03217 44.99546
# Shear Modulus (GPa) = 21.92275 28.16392 25.04333
#
# Velocity S-wave (km/s) = 3.19259 3.61861 3.41225
# Velocity P-wave (km/s) = 5.71255 6.34475 6.03693
#
# Compressibility (1/GPa) = 0.02441481
#
# Stress axis : x y z
#
# Youngs Moduli (GPa) = 40.56105 125.96558 59.46277
#
# Poissons Ratio (x) = -0.12326 0.57733
# Poissons Ratio (y) = -0.03969 0.22400
# Poissons Ratio (z) = 0.39381 0.47451
#
# Static dielectric constant tensor:
#      x y z
#    x 1.800550 0.000000 0.019120 
#    y 0.000000 1.840020 0.000000 
#    z 0.019120 0.000000 1.812960 
# 
# From -- ./inp_files/232603.got.cif
#   From: 2010.05.17/outbox.cif.g08.bks.cpg/sg15_117_cif.got.tgz:232603.got - 2010.06.03 18:47:42.
