data_PCOD9307342
_publ_section_title
;
Structure prediction by ZEFSAII (Michael W. Deem and Ramdas Pophale) SiO2 
 PCOD9307342
Probable space group: C 2/C
;
_chemical_formula_sum "Si O2"
_cell_formula_units_Z 48
_cell_length_a 10.122022
_cell_length_b 10.403151
_cell_length_c 20.367017
_cell_angle_alpha 90.000000
_cell_angle_beta 103.547176
_cell_angle_gamma 90.000000
_cell_volume 2084.995471
_symmetry_space_group_name_H-M "C 2/C"
_symmetry_group_IT_number 15
_symmetry_cell_setting 'monoclinic'
loop_
_space_group_symop_operation_xyz
x,y,z
-x,y,1/2-z
-x,-y,-z
x,-y,1/2+z
1/2+x,1/2+y,z
1/2-x,1/2+y,1/2-z
1/2-x,1/2-y,-z
1/2+x,1/2-y,1/2+z
loop_
_atom_site_type_symbol
_atom_site_label
_atom_site_fract_x
_atom_site_fract_y
_atom_site_fract_z
Si Si1 0.965729 0.534319 0.070255
Si Si2 0.421240 0.670795 0.539872
Si Si3 0.606487 0.686689 0.317305
Si Si4 0.255563 0.436074 0.139946
Si Si5 0.136532 0.174566 0.121072
Si Si6 0.217741 0.907285 0.113454
O O1 0.930544 0.684606 0.069422
O O2 0.105599 0.497775 0.122058
O O3 0.840579 0.449783 0.080643
O O4 0.000000 0.500000 0.000000
O O5 0.325416 0.585114 0.575960
O O6 0.369188 0.677082 0.459108
O O7 0.576029 0.620405 0.560469
O O8 0.500000 0.728497 0.250000
O O9 0.652950 0.539946 0.312686
O O10 0.517223 0.690736 0.373075
O O11 0.730863 0.784418 0.340444
O O12 0.228765 0.290145 0.158999
O O13 0.189386 0.036846 0.150933
#
# Coordination Sequence:
#
# PCOD9307342 Si02
#       6
#     8   8   8   8   8   8
#     4  12  23  38  67 106 142 174 210 267 345 417
#     4  12  24  40  72 110 145 170 218 282 357 424
#     4  12  29  48  67  96 137 186 240 285 330 397
#     4  12  24  44  69 101 139 178 224 278 343 406
#     4  12  25  43  71 105 138 177 222 283 350 413
#     4  12  25  43  69 102 139 178 221 279 341 407
#
# _framework density 23.021633000000001
#
# number of rings (size 3 to 8) (size 9 to 14) (size 15 to 20)
#    0.000    0.000    8.333    2.000    2.333    2.667 
#    0.000    0.833    0.000    0.000    0.000    0.000 
#    0.000    0.000    0.000    0.000    0.000    0.000 
#
# Total GULP energy -134244.017133 kJ/mol
# GULP energy per Si atom -5593.500714 kJ/mol
# Density = 2.296924 g / cm^3
# Si number density = 23.021633 Si / 1000 Ang^3
#
#
#
# Elastic Constant Matrix: (Units=GPa)
#
#
# Indices 1 2 3 4 5 6 
#
# 1 141.2396 36.8106 22.5207 0.0000 21.8315 0.0000
# 2 36.8106 166.4128 19.1589 0.0000 8.9181 0.0000
# 3 22.5207 19.1589 39.4523 0.0000 4.5618 0.0000
# 4 0.0000 0.0000 0.0000 6.7542 0.0000 16.6988
# 5 21.8315 8.9181 4.5618 0.0000 20.6361 0.0000
# 6 0.0000 0.0000 0.0000 16.6988 0.0000 52.8047
#
#
#
# Elastic Compliance Matrix: (Units=1/GPa)
#
#
# Indices 1 2 3 4 5 6 
#
# 1 0.009298 -0.001169 -0.003757 0.000000 -0.008501 0.000000
# 2 -0.001169 0.006604 -0.002415 0.000000 -0.001084 0.000000
# 3 -0.003757 -0.002415 0.028821 0.000000 -0.001353 0.000000
# 4 0.000000 0.000000 0.000000 0.678701 0.000000 -0.214631
# 5 -0.008501 -0.001084 -0.001353 0.000000 0.058219 0.000000
# 6 0.000000 0.000000 0.000000 -0.214631 0.000000 0.086812
#
#
# Mechanical properties :
#
#
# Convention : Reuss Voigt Hill
#
# Bulk Modulus (GPa) = 33.28685 56.00943 44.64814
# Shear Modulus (GPa) = 5.59817 33.94663 19.77240
#
# Velocity S-wave (km/s) = 1.56108 3.84416 2.93381
# Velocity P-wave (km/s) = 4.21185 6.63967 5.55990
#
# Compressibility (1/GPa) = 0.03004189
#
# Stress axis : x y z
#
# Youngs Moduli (GPa) = 107.55272 151.43008 34.69725
#
# Poissons Ratio (x) = 0.17696 0.13036
# Poissons Ratio (y) = 0.12568 0.08378
# Poissons Ratio (z) = 0.40408 0.36563
#
# Static dielectric constant tensor:
#      x y z
#    x 1.893600 0.000000 0.002820 
#    y 0.000000 1.927670 0.000000 
#    z 0.002820 0.000000 1.876460 
# 
# From -- ./inp_files/263577.got.cif
#   From: 2010.05.17/outbox.cif.g08.bks.cpg/sg15_132_cif.got.tgz:263577.got - 2010.06.03 18:47:42.
