data_PCOD9307618
_publ_section_title
;
Structure prediction by ZEFSAII (Michael W. Deem and Ramdas Pophale) SiO2 
 PCOD9307618
Probable space group: C 2/C
;
_chemical_formula_sum "Si O2"
_cell_formula_units_Z 52
_cell_length_a 15.003770
_cell_length_b 11.624532
_cell_length_c 13.938699
_cell_angle_alpha 90.000000
_cell_angle_beta 101.465405
_cell_angle_gamma 90.000000
_cell_volume 2382.561336
_symmetry_space_group_name_H-M "C 2/C"
_symmetry_group_IT_number 15
_symmetry_cell_setting 'monoclinic'
loop_
_space_group_symop_operation_xyz
x,y,z
-x,y,1/2-z
-x,-y,-z
x,-y,1/2+z
1/2+x,1/2+y,z
1/2-x,1/2+y,1/2-z
1/2-x,1/2-y,-z
1/2+x,1/2-y,1/2+z
loop_
_atom_site_type_symbol
_atom_site_label
_atom_site_fract_x
_atom_site_fract_y
_atom_site_fract_z
Si Si1 0.244148 0.603975 0.947650
Si Si2 0.000000 0.055007 0.750000
Si Si3 0.718416 0.949934 0.779429
Si Si4 0.625137 0.736042 0.670423
Si Si5 0.538207 0.126806 0.984886
Si Si6 0.366943 0.617789 0.163127
Si Si7 0.081708 0.349187 0.212468
O O1 0.242351 0.481115 0.893623
O O2 0.292800 0.685165 0.877873
O O3 0.138815 0.621519 0.956822
O O4 0.306888 0.619623 0.054238
O O5 0.072143 0.136817 0.713749
O O6 0.048481 0.967022 0.833753
O O7 0.664281 0.832056 0.750760
O O8 0.806014 0.938036 0.732763
O O9 0.661548 0.058556 0.726114
O O10 0.556345 0.800843 0.583979
O O11 0.462584 0.181942 0.898771
O O12 0.500000 0.000000 0.000000
O O13 0.395994 0.738478 0.217812
O O14 0.000000 0.413998 0.250000
#
# Coordination Sequence:
#
# PCOD9307618 Si02
#       7
#     8   4   8   8   8   8   8
#     4  12  26  48  79 104 151 206 248 310 385 454
#     4  12  30  48  68 112 158 192 244 322 384 434
#     4  12  26  45  74 108 148 194 249 314 374 436
#     4  12  27  47  73 107 156 193 246 317 380 446
#     4  12  25  45  77 118 144 191 261 314 376 451
#     4  12  27  50  74 111 147 200 257 303 378 468
#     4  12  24  43  75 105 143 191 254 306 358 446
#
# _framework density 21.825251999999999
#
# number of rings (size 3 to 8) (size 9 to 14) (size 15 to 20)
#    0.000    0.000    6.923    2.308    3.231    1.846 
#    0.000    0.769    0.000    0.000    0.000    0.000 
#    0.000    0.000    0.000    0.000    0.000    0.000 
#
# Total GULP energy -145318.260032 kJ/mol
# GULP energy per Si atom -5589.163847 kJ/mol
# Density = 2.177558 g / cm^3
# Si number density = 21.825252 Si / 1000 Ang^3
#
#
#
# Elastic Constant Matrix: (Units=GPa)
#
#
# Indices 1 2 3 4 5 6 
#
# 1 89.2936 67.9469 40.1913 0.0000 13.2334 0.0000
# 2 67.9469 154.3267 64.5280 0.0000 10.5091 0.0000
# 3 40.1913 64.5280 128.3391 0.0000 23.8008 0.0000
# 4 0.0000 0.0000 0.0000 38.7489 0.0000 3.1440
# 5 13.2334 10.5091 23.8008 0.0000 35.9752 0.0000
# 6 0.0000 0.0000 0.0000 3.1440 0.0000 55.2517
#
#
#
# Elastic Compliance Matrix: (Units=1/GPa)
#
#
# Indices 1 2 3 4 5 6 
#
# 1 0.017627 -0.006947 -0.001369 0.000000 -0.003549 0.000000
# 2 -0.006947 0.010947 -0.003658 0.000000 0.001778 0.000000
# 3 -0.001369 -0.003658 0.011135 0.000000 -0.005794 0.000000
# 4 0.000000 0.000000 0.000000 0.025927 0.000000 -0.001475
# 5 -0.003549 0.001778 -0.005794 0.000000 0.032416 0.000000
# 6 0.000000 0.000000 0.000000 -0.001475 0.000000 0.018183
#
#
# Mechanical properties :
#
#
# Convention : Reuss Voigt Hill
#
# Bulk Modulus (GPa) = 63.45112 79.69909 71.57511
# Shear Modulus (GPa) = 34.37920 39.28138 36.83029
#
# Velocity S-wave (km/s) = 3.97319 4.24702 4.11239
# Velocity P-wave (km/s) = 7.08405 7.78754 7.44411
#
# Compressibility (1/GPa) = 0.01576016
#
# Stress axis : x y z
#
# Youngs Moduli (GPa) = 56.73006 91.35101 89.81065
#
# Poissons Ratio (x) = 0.63459 0.12298
# Poissons Ratio (y) = 0.39409 0.32854
# Poissons Ratio (z) = 0.07768 0.33418
#
# Static dielectric constant tensor:
#      x y z
#    x 1.811690 0.000000 0.026910 
#    y 0.000000 1.819110 0.000000 
#    z 0.026910 0.000000 1.829620 
# 
# From -- ./inp_files/152677.got.cif
#   From: 2010.05.17/outbox.cif.g08.bks.cpg/sg15_77_cif.got.tgz:152677.got - 2010.06.03 18:47:42.
