data_PCOD9307706
_publ_section_title
;
Structure prediction by ZEFSAII (Michael W. Deem and Ramdas Pophale) SiO2 
 PCOD9307706
Probable space group: C 2/C
;
_chemical_formula_sum "Si O2"
_cell_formula_units_Z 56
_cell_length_a 24.855251
_cell_length_b 11.448138
_cell_length_c 9.059466
_cell_angle_alpha 90.000000
_cell_angle_beta 121.481723
_cell_angle_gamma 90.000000
_cell_volume 2198.397698
_symmetry_space_group_name_H-M "C 2/C"
_symmetry_group_IT_number 15
_symmetry_cell_setting 'monoclinic'
loop_
_space_group_symop_operation_xyz
x,y,z
-x,y,1/2-z
-x,-y,-z
x,-y,1/2+z
1/2+x,1/2+y,z
1/2-x,1/2+y,1/2-z
1/2-x,1/2-y,-z
1/2+x,1/2-y,1/2+z
loop_
_atom_site_type_symbol
_atom_site_label
_atom_site_fract_x
_atom_site_fract_y
_atom_site_fract_z
Si Si1 0.894058 0.911241 0.714088
Si Si2 0.168238 0.105297 0.676116
Si Si3 0.750000 0.750000 0.000000
Si Si4 0.235406 0.570924 0.309101
Si Si5 0.914198 0.757067 0.991090
Si Si6 0.351967 0.029652 0.051679
Si Si7 0.967423 0.401109 0.358737
Si Si8 0.000000 0.953630 0.250000
O O1 0.880857 0.877479 0.525901
O O2 0.876323 0.804753 0.795392
O O3 0.854273 0.014209 0.732946
O O4 0.965318 0.960134 0.815083
O O5 0.225884 0.045350 0.668777
O O6 0.192398 0.214512 0.801198
O O7 0.782931 0.822209 0.901684
O O8 0.207078 0.580844 0.436857
O O9 0.178755 0.556314 0.113072
O O10 0.972247 0.705557 0.977648
O O11 0.887236 0.642863 0.035550
O O12 0.943001 0.866867 0.119148
O O13 0.398408 0.953711 0.219217
O O14 0.000000 0.378289 0.250000
O O15 0.000000 0.500000 0.500000
#
# Coordination Sequence:
#
# PCOD9307706 Si02
#       8
#     8   8   4   8   8   8   8   4
#     4  12  28  51  76 113 159 202 268 324 381 475
#     4  12  27  52  78 114 155 200 265 327 384 474
#     4  12  28  46  82 108 148 210 244 328 394 450
#     4  12  26  48  75 113 151 199 261 317 392 471
#     4  12  27  45  78 109 151 211 249 324 397 453
#     4  12  25  48  73 109 156 196 255 323 385 469
#     4  12  24  46  70 108 151 195 254 313 377 466
#     4  12  28  50  78 114 160 206 270 322 388 476
#
# _framework density 25.473098
#
# number of rings (size 3 to 8) (size 9 to 14) (size 15 to 20)
#    0.000    0.000    7.143    1.286    7.000    0.000 
#    0.000    2.143    0.000    0.000    0.000    0.000 
#    0.000    0.000    0.000    0.000    0.000    0.000 
#
# Total GULP energy -155985.240793 kJ/mol
# GULP energy per Si atom -5570.901457 kJ/mol
# Density = 2.541512 g / cm^3
# Si number density = 25.473098 Si / 1000 Ang^3
#
#
#
# Elastic Constant Matrix: (Units=GPa)
#
#
# Indices 1 2 3 4 5 6 
#
# 1 72.5074 7.3507 21.0684 0.0000 -26.1210 0.0000
# 2 7.3507 98.8272 43.8234 0.0000 -13.8163 0.0000
# 3 21.0684 43.8234 146.1473 0.0000 8.6926 0.0000
# 4 0.0000 0.0000 0.0000 61.1329 0.0000 -6.7178
# 5 -26.1210 -13.8163 8.6926 0.0000 49.7393 0.0000
# 6 0.0000 0.0000 0.0000 -6.7178 0.0000 29.9579
#
#
#
# Elastic Compliance Matrix: (Units=1/GPa)
#
#
# Indices 1 2 3 4 5 6 
#
# 1 0.018717 0.001890 -0.003922 0.000000 0.011040 0.000000
# 2 0.001890 0.012659 -0.004382 0.000000 0.005275 0.000000
# 3 -0.003922 -0.004382 0.009010 0.000000 -0.004851 0.000000
# 4 0.000000 0.000000 0.000000 0.016771 0.000000 0.003761
# 5 0.011040 0.005275 -0.004851 0.000000 0.028215 0.000000
# 6 0.000000 0.000000 0.000000 0.003761 0.000000 0.034224
#
#
# Mechanical properties :
#
#
# Convention : Reuss Voigt Hill
#
# Bulk Modulus (GPa) = 36.28616 51.32966 43.80791
# Shear Modulus (GPa) = 35.30862 44.51531 39.91197
#
# Velocity S-wave (km/s) = 3.72709 4.18490 3.96261
# Velocity P-wave (km/s) = 5.72691 6.59890 6.17830
#
# Compressibility (1/GPa) = 0.02755872
#
# Stress axis : x y z
#
# Youngs Moduli (GPa) = 53.42858 78.99748 110.98446
#
# Poissons Ratio (x) = -0.14932 0.43523
# Poissons Ratio (y) = -0.10099 0.48633
# Poissons Ratio (z) = 0.20952 0.34617
#
# Static dielectric constant tensor:
#      x y z
#    x 2.025370 0.000000 -0.024460 
#    y 0.000000 0.918850 0.000000 
#    z -0.024460 0.000000 1.959350 
# 
# From -- ./inp_files/69177.got.cif
#   From: 2010.05.17/outbox.cif.g08.bks.cpg/sg15_35_cif.got.tgz:69177.got - 2010.06.03 18:47:42.
