data_PCOD9307261
_publ_section_title
;
Structure prediction by ZEFSAII (Michael W. Deem and Ramdas Pophale) SiO2 
 PCOD9307261
Probable space group: C 2/C
;
_chemical_formula_sum "Si O2"
_cell_formula_units_Z 40
_cell_length_a 10.772186
_cell_length_b 11.777697
_cell_length_c 24.731993
_cell_angle_alpha 90.000000
_cell_angle_beta 143.011922
_cell_angle_gamma 90.000000
_cell_volume 1887.845345
_symmetry_space_group_name_H-M "C 2/C"
_symmetry_group_IT_number 15
_symmetry_cell_setting 'monoclinic'
loop_
_space_group_symop_operation_xyz
x,y,z
-x,y,1/2-z
-x,-y,-z
x,-y,1/2+z
1/2+x,1/2+y,z
1/2-x,1/2+y,1/2-z
1/2-x,1/2-y,-z
1/2+x,1/2-y,1/2+z
loop_
_atom_site_type_symbol
_atom_site_label
_atom_site_fract_x
_atom_site_fract_y
_atom_site_fract_z
Si Si1 0.205653 0.274698 0.349664
Si Si2 0.520786 0.962024 0.358491
Si Si3 0.032444 0.063637 0.699264
Si Si4 0.172216 0.577461 0.029600
Si Si5 0.567817 0.227823 0.394352
O O1 0.139640 0.394849 0.352608
O O2 0.296841 0.194830 0.428246
O O3 0.370713 0.269321 0.359735
O O4 0.000000 0.226965 0.250000
O O5 0.274403 0.943468 0.270292
O O6 0.600893 0.912285 0.443392
O O7 0.559849 0.096825 0.374882
O O8 0.000000 0.029238 0.750000
O O9 0.934914 0.188778 0.657522
O O10 0.891800 0.985710 0.611835
O O11 0.000000 0.500000 0.000000
O O12 0.750000 0.250000 0.500000
#
# Coordination Sequence:
#
# PCOD9307261 Si02
#       5
#     8   8   8   8   8
#     4  12  25  46  71 102 143 185 237 303 363 432
#     4  12  26  44  73 103 136 192 242 288 372 440
#     4  12  24  43  71 100 136 185 237 299 359 437
#     4  12  22  44  71 100 139 187 240 294 364 438
#     4  12  25  48  68 100 149 184 235 305 361 432
#
# _framework density 21.188175000000001
#
# number of rings (size 3 to 8) (size 9 to 14) (size 15 to 20)
#    0.000    0.000    8.000    2.400    0.000    1.600 
#    0.000    0.000    0.000    0.000    0.000    0.000 
#    0.000    0.000    0.000    0.000    0.000    0.000 
#
# Total GULP energy -111852.730566 kJ/mol
# GULP energy per Si atom -5592.636528 kJ/mol
# Density = 2.113995 g / cm^3
# Si number density = 21.188175 Si / 1000 Ang^3
#
#
#
# Elastic Constant Matrix: (Units=GPa)
#
#
# Indices 1 2 3 4 5 6 
#
# 1 57.9329 25.4696 9.8154 0.0000 8.1290 0.0000
# 2 25.4696 140.8998 32.5908 0.0000 -5.2171 0.0000
# 3 9.8154 32.5908 138.5499 0.0000 10.9328 0.0000
# 4 0.0000 0.0000 0.0000 37.0553 0.0000 -6.6903
# 5 8.1290 -5.2171 10.9328 0.0000 37.8890 0.0000
# 6 0.0000 0.0000 0.0000 -6.6903 0.0000 3.5245
#
#
#
# Elastic Compliance Matrix: (Units=1/GPa)
#
#
# Indices 1 2 3 4 5 6 
#
# 1 0.019555 -0.003672 -0.000154 0.000000 -0.004657 0.000000
# 2 -0.003672 0.008288 -0.001885 0.000000 0.002473 0.000000
# 3 -0.000154 -0.001885 0.007869 0.000000 -0.002497 0.000000
# 4 0.000000 0.000000 0.000000 0.041058 0.000000 0.077937
# 5 -0.004657 0.002473 -0.002497 0.000000 0.028453 0.000000
# 6 0.000000 0.000000 0.000000 0.077937 0.000000 0.431669
#
#
# Mechanical properties :
#
#
# Convention : Reuss Voigt Hill
#
# Bulk Modulus (GPa) = 41.16695 52.57048 46.86871
# Shear Modulus (GPa) = 8.98617 33.66088 21.32352
#
# Velocity S-wave (km/s) = 2.06163 3.99013 3.17580
# Velocity P-wave (km/s) = 5.01383 6.78920 5.96790
#
# Compressibility (1/GPa) = 0.02429133
#
# Stress axis : x y z
#
# Youngs Moduli (GPa) = 51.13764 120.65008 127.08246
#
# Poissons Ratio (x) = 0.44298 0.01960
# Poissons Ratio (y) = 0.18776 0.23951
# Poissons Ratio (z) = 0.00789 0.22739
#
# Static dielectric constant tensor:
#      x y z
#    x 1.778890 0.000000 -0.019470 
#    y 0.000000 1.784500 0.000000 
#    z -0.019470 0.000000 1.733310 
# 
# From -- ./inp_files/141766.got.cif
#   From: 2010.05.17/outbox.cif.g08.bks.cpg/sg15_71_cif.got.tgz:141766.got - 2010.06.03 18:47:42.
