data_PCOD9307889
_publ_section_title
;
Structure prediction by ZEFSAII (Michael W. Deem and Ramdas Pophale) SiO2 
 PCOD9307889
Probable space group: C 2/C
;
_chemical_formula_sum "Si O2"
_cell_formula_units_Z 44
_cell_length_a 11.767169
_cell_length_b 22.223335
_cell_length_c 8.175081
_cell_angle_alpha 90.000000
_cell_angle_beta 57.398248
_cell_angle_gamma 90.000000
_cell_volume 1800.985289
_symmetry_space_group_name_H-M "C 2/C"
_symmetry_group_IT_number 15
_symmetry_cell_setting 'monoclinic'
loop_
_space_group_symop_operation_xyz
x,y,z
-x,y,1/2-z
-x,-y,-z
x,-y,1/2+z
1/2+x,1/2+y,z
1/2-x,1/2+y,1/2-z
1/2-x,1/2-y,-z
1/2+x,1/2-y,1/2+z
loop_
_atom_site_type_symbol
_atom_site_label
_atom_site_fract_x
_atom_site_fract_y
_atom_site_fract_z
Si Si1 0.000000 0.687338 0.250000
Si Si2 0.847262 0.945452 0.371054
Si Si3 0.801338 0.620341 0.216159
Si Si4 0.649189 0.745349 0.393822
Si Si5 0.195509 0.923608 0.471885
Si Si6 0.855234 0.791682 0.021372
O O1 0.051605 0.644009 0.351083
O O2 0.885732 0.732315 0.398654
O O3 0.757123 0.919723 0.589875
O O4 0.000000 0.918540 0.250000
O O5 0.864145 0.015367 0.407572
O O6 0.784576 0.937242 0.237544
O O7 0.708663 0.680180 0.304805
O O8 0.802932 0.592990 0.032978
O O9 0.753327 0.795897 0.252908
O O10 0.496787 0.741777 0.435931
O O11 0.113575 0.860898 0.541292
O O12 0.750000 0.750000 0.000000
#
# Coordination Sequence:
#
# PCOD9307889 Si02
#       6
#     4   8   8   8   8   8
#     4  12  26  48  74 110 154 204 254 318 390 468
#     4  12  27  45  78 111 148 200 255 320 381 451
#     4  12  27  48  75 108 152 196 260 317 385 466
#     4  12  25  45  72 114 155 201 248 314 389 462
#     4  12  26  47  74 113 150 199 256 320 383 453
#     4  12  25  42  74 113 155 199 250 313 387 460
#
# _framework density 24.431070999999999
#
# number of rings (size 3 to 8) (size 9 to 14) (size 15 to 20)
#    0.000    0.000    5.455    3.818    6.364    0.000 
#    0.000    3.636    4.000    0.000    0.000    0.000 
#    0.000    0.000    0.000    0.000    0.000    0.000 
#
# Total GULP energy -122539.436294 kJ/mol
# GULP energy per Si atom -5569.974377 kJ/mol
# Density = 2.437546 g / cm^3
# Si number density = 24.431071 Si / 1000 Ang^3
#
#
#
# Elastic Constant Matrix: (Units=GPa)
#
#
# Indices 1 2 3 4 5 6 
#
# 1 112.2199 29.1287 35.5298 0.0000 18.6016 0.0000
# 2 29.1287 137.3654 44.9214 0.0000 9.1447 0.0000
# 3 35.5298 44.9214 110.4715 0.0000 28.3128 0.0000
# 4 0.0000 0.0000 0.0000 26.1547 0.0000 19.5786
# 5 18.6016 9.1447 28.3128 0.0000 54.4862 0.0000
# 6 0.0000 0.0000 0.0000 19.5786 0.0000 33.8928
#
#
#
# Elastic Compliance Matrix: (Units=1/GPa)
#
#
# Indices 1 2 3 4 5 6 
#
# 1 0.010314 -0.001314 -0.002235 0.000000 -0.002140 0.000000
# 2 -0.001314 0.008572 -0.003241 0.000000 0.000694 0.000000
# 3 -0.002235 -0.003241 0.012406 0.000000 -0.005140 0.000000
# 4 0.000000 0.000000 0.000000 0.067363 0.000000 -0.038913
# 5 -0.002140 0.000694 -0.005140 0.000000 0.021638 0.000000
# 6 0.000000 0.000000 0.000000 -0.038913 0.000000 0.051984
#
#
# Mechanical properties :
#
#
# Convention : Reuss Voigt Hill
#
# Bulk Modulus (GPa) = 56.45495 64.35741 60.40618
# Shear Modulus (GPa) = 26.07414 39.60519 32.83967
#
# Velocity S-wave (km/s) = 3.27043 4.03066 3.67028
# Velocity P-wave (km/s) = 6.11710 6.93262 6.53759
#
# Compressibility (1/GPa) = 0.01771324
#
# Stress axis : x y z
#
# Youngs Moduli (GPa) = 96.95279 116.65681 80.60650
#
# Poissons Ratio (x) = 0.15328 0.18012
# Poissons Ratio (y) = 0.12739 0.26124
# Poissons Ratio (z) = 0.21665 0.37808
#
# Static dielectric constant tensor:
#      x y z
#    x 2.143000 0.000000 0.101450 
#    y 0.000000 1.936720 0.000000 
#    z 0.101450 0.000000 2.205680 
# 
# From -- ./inp_files/32443.got.cif
#   From: 2010.05.17/outbox.cif.g08.bks.cpg/sg15_17_cif.got.tgz:32443.got - 2010.06.03 18:47:42.
