data_PCOD9307173
_publ_section_title
;
Structure prediction by ZEFSAII (Michael W. Deem and Ramdas Pophale) SiO2 
 PCOD9307173
Probable space group: C 2/C
;
_chemical_formula_sum "Si O2"
_cell_formula_units_Z 44
_cell_length_a 12.117649
_cell_length_b 19.173228
_cell_length_c 9.594104
_cell_angle_alpha 90.000000
_cell_angle_beta 112.315151
_cell_angle_gamma 90.000000
_cell_volume 2062.106518
_symmetry_space_group_name_H-M "C 2/C"
_symmetry_group_IT_number 15
_symmetry_cell_setting 'monoclinic'
loop_
_space_group_symop_operation_xyz
x,y,z
-x,y,1/2-z
-x,-y,-z
x,-y,1/2+z
1/2+x,1/2+y,z
1/2-x,1/2+y,1/2-z
1/2-x,1/2-y,-z
1/2+x,1/2-y,1/2+z
loop_
_atom_site_type_symbol
_atom_site_label
_atom_site_fract_x
_atom_site_fract_y
_atom_site_fract_z
Si Si1 0.407079 0.350338 0.830757
Si Si2 0.922367 0.885457 0.345023
Si Si3 0.000000 0.339631 0.750000
Si Si4 0.720282 0.744525 0.820661
Si Si5 0.893514 0.537416 0.030748
Si Si6 0.735329 0.505246 0.207788
O O1 0.500000 0.357180 0.750000
O O2 0.327789 0.280576 0.789012
O O3 0.319260 0.417674 0.798515
O O4 0.485709 0.348421 0.007980
O O5 0.819840 0.831796 0.247041
O O6 0.865813 0.952388 0.392245
O O7 0.000000 0.908601 0.250000
O O8 0.895900 0.291993 0.759131
O O9 0.941822 0.387438 0.601480
O O10 0.750000 0.750000 0.000000
O O11 0.845006 0.506569 0.152893
O O12 0.782046 0.527955 0.874107
O O13 0.000000 0.500000 0.000000
#
# Coordination Sequence:
#
# PCOD9307173 Si02
#       6
#     8   8   4   8   8   8
#     4  12  25  45  68 101 139 178 224 284 344 403
#     4  12  24  42  70 100 132 181 231 274 341 412
#     4  12  22  42  70  96 136 182 226 276 338 410
#     4  12  23  46  71  99 134 185 231 278 339 415
#     4  12  22  41  65 100 132 180 225 278 338 400
#     4  12  24  42  67 100 140 175 226 285 339 405
#
# _framework density 21.337403999999999
#
# number of rings (size 3 to 8) (size 9 to 14) (size 15 to 20)
#    0.000    0.000    6.364    4.364    0.000    0.727 
#    0.000    3.636    0.000    0.000    0.000    0.000 
#    0.000    0.000    0.000    0.000    0.000    0.000 
#
# Total GULP energy -123029.002488 kJ/mol
# GULP energy per Si atom -5592.227386 kJ/mol
# Density = 2.128884 g / cm^3
# Si number density = 21.337404 Si / 1000 Ang^3
#
#
#
# Elastic Constant Matrix: (Units=GPa)
#
#
# Indices 1 2 3 4 5 6 
#
# 1 127.5386 42.7507 10.5001 0.0000 -19.8527 0.0000
# 2 42.7507 104.1819 6.4283 0.0000 -1.0966 0.0000
# 3 10.5001 6.4283 81.8282 0.0000 4.6926 0.0000
# 4 0.0000 0.0000 0.0000 14.6268 0.0000 9.5702
# 5 -19.8527 -1.0966 4.6926 0.0000 42.0174 0.0000
# 6 0.0000 0.0000 0.0000 9.5702 0.0000 42.2267
#
#
#
# Elastic Compliance Matrix: (Units=1/GPa)
#
#
# Indices 1 2 3 4 5 6 
#
# 1 0.010022 -0.003985 -0.001246 0.000000 0.004770 0.000000
# 2 -0.003985 0.011235 -0.000282 0.000000 -0.001558 0.000000
# 3 -0.001246 -0.000282 0.012517 0.000000 -0.001994 0.000000
# 4 0.000000 0.000000 0.000000 0.080271 0.000000 -0.018193
# 5 0.004770 -0.001558 -0.001994 0.000000 0.026236 0.000000
# 6 0.000000 0.000000 0.000000 -0.018193 0.000000 0.027805
#
#
# Mechanical properties :
#
#
# Convention : Reuss Voigt Hill
#
# Bulk Modulus (GPa) = 43.96245 48.10077 46.03161
# Shear Modulus (GPa) = 26.78167 36.69882 31.74024
#
# Velocity S-wave (km/s) = 3.54665 4.15170 3.86105
# Velocity P-wave (km/s) = 6.11718 6.75085 6.44181
#
# Compressibility (1/GPa) = 0.02274669
#
# Stress axis : x y z
#
# Youngs Moduli (GPa) = 99.78247 89.00804 79.89025
#
# Poissons Ratio (x) = 0.35472 0.09958
# Poissons Ratio (y) = 0.39766 0.02252
# Poissons Ratio (z) = 0.12438 0.02509
#
# Static dielectric constant tensor:
#      x y z
#    x 1.874110 0.000000 0.025590 
#    y 0.000000 1.758220 0.000000 
#    z 0.025590 0.000000 1.799620 
# 
# From -- ./inp_files/30738.got.cif
#   From: 2010.05.17/outbox.cif.g08.bks.cpg/sg15_16_cif.got.tgz:30738.got - 2010.06.03 18:47:42.
