data_PCOD9307648
_publ_section_title
;
Structure prediction by ZEFSAII (Michael W. Deem and Ramdas Pophale) SiO2 
 PCOD9307648
Probable space group: C 2/C
;
_chemical_formula_sum "Si O2"
_cell_formula_units_Z 36
_cell_length_a 12.124409
_cell_length_b 32.419039
_cell_length_c 5.370011
_cell_angle_alpha 90.000000
_cell_angle_beta 129.475086
_cell_angle_gamma 90.000000
_cell_volume 1629.286836
_symmetry_space_group_name_H-M "C 2/C"
_symmetry_group_IT_number 15
_symmetry_cell_setting 'monoclinic'
loop_
_space_group_symop_operation_xyz
x,y,z
-x,y,1/2-z
-x,-y,-z
x,-y,1/2+z
1/2+x,1/2+y,z
1/2-x,1/2+y,1/2-z
1/2-x,1/2-y,-z
1/2+x,1/2-y,1/2+z
loop_
_atom_site_type_symbol
_atom_site_label
_atom_site_fract_x
_atom_site_fract_y
_atom_site_fract_z
Si Si1 0.000000 0.712961 0.250000
Si Si2 0.500000 0.376215 0.250000
Si Si3 0.269164 0.415108 0.572304
Si Si4 0.500000 0.732792 0.250000
Si Si5 0.500000 0.027780 0.750000
Si Si6 0.000000 0.026701 0.250000
Si Si7 0.218711 0.167768 0.697841
O O1 0.992030 0.740238 0.488539
O O2 0.143363 0.685655 0.467738
O O3 0.618448 0.403937 0.552301
O O4 0.408927 0.348373 0.308400
O O5 0.362154 0.444114 0.526921
O O6 0.233436 0.371448 0.395924
O O7 0.135646 0.441983 0.459803
O O8 0.641211 0.704137 0.434855
O O9 0.500000 0.000000 0.500000
O O10 0.000000 0.000000 0.500000
#
# Coordination Sequence:
#
# PCOD9307648 Si02
#       7
#     4   4   8   4   4   4   8
#     4  12  31  45  81 110 160 202 254 322 399 441
#     4  12  24  48  78 109 151 196 268 311 365 450
#     4  12  27  48  78 110 152 205 255 315 378 457
#     4  12  25  53  72 117 154 204 252 324 383 457
#     4  12  32  54  78 118 162 198 247 325 394 454
#     4  12  24  44  73 108 143 190 245 300 373 450
#     4  12  27  48  77 113 151 206 263 315 375 465
#
# _framework density 22.095556999999999
#
# number of rings (size 3 to 8) (size 9 to 14) (size 15 to 20)
#    0.000    0.000    4.444    4.000    9.333    0.000 
#    0.000    0.000    0.000    0.000    0.000    0.000 
#    0.000    0.000    0.000    0.000    0.000    0.000 
#
# Total GULP energy -100824.645038 kJ/mol
# GULP energy per Si atom -5601.369169 kJ/mol
# Density = 2.204527 g / cm^3
# Si number density = 22.095557 Si / 1000 Ang^3
#
#
#
# Elastic Constant Matrix: (Units=GPa)
#
#
# Indices 1 2 3 4 5 6 
#
# 1 119.0803 80.5552 78.7315 0.0000 18.4658 0.0000
# 2 80.5552 164.7652 112.2161 0.0000 4.8961 0.0000
# 3 78.7315 112.2161 175.9568 0.0000 7.6610 0.0000
# 4 0.0000 0.0000 0.0000 33.9848 0.0000 -46.3243
# 5 18.4658 4.8961 7.6610 0.0000 54.0458 0.0000
# 6 0.0000 0.0000 0.0000 -46.3243 0.0000 81.3714
#
#
#
# Elastic Compliance Matrix: (Units=1/GPa)
#
#
# Indices 1 2 3 4 5 6 
#
# 1 0.014334 -0.004666 -0.003263 0.000000 -0.004012 0.000000
# 2 -0.004666 0.012249 -0.005780 0.000000 0.001304 0.000000
# 3 -0.003263 -0.005780 0.010825 0.000000 0.000104 0.000000
# 4 0.000000 0.000000 0.000000 0.131361 0.000000 0.074783
# 5 -0.004012 0.001304 0.000104 0.000000 0.019741 0.000000
# 6 0.000000 0.000000 0.000000 0.074783 0.000000 0.054863
#
#
# Mechanical properties :
#
#
# Convention : Reuss Voigt Hill
#
# Bulk Modulus (GPa) = 100.11837 111.42310 105.77074
# Shear Modulus (GPa) = 18.24001 46.43369 32.33685
#
# Velocity S-wave (km/s) = 2.87628 4.58918 3.82972
# Velocity P-wave (km/s) = 7.51269 8.86668 8.21762
#
# Compressibility (1/GPa) = 0.00998818
#
# Stress axis : x y z
#
# Youngs Moduli (GPa) = 69.76412 81.64036 92.37724
#
# Poissons Ratio (x) = 0.38097 0.30143
# Poissons Ratio (y) = 0.32555 0.53398
# Poissons Ratio (z) = 0.22764 0.47192
#
# Static dielectric constant tensor:
#      x y z
#    x 2.011710 0.000000 -0.007670 
#    y 0.000000 1.845870 0.000000 
#    z -0.007670 0.000000 1.801010 
# 
# From -- ./inp_files/5668.got.cif
#   From: 2010.05.17/outbox.cif.g08.bks.cpg/sg15_3_cif.got.tgz:5668.got - 2010.06.03 18:47:42.
