data_PCOD9307985
_publ_section_title
;
Structure prediction by ZEFSAII (Michael W. Deem and Ramdas Pophale) SiO2 
 PCOD9307985
Probable space group: C 2/C
;
_chemical_formula_sum "Si O2"
_cell_formula_units_Z 40
_cell_length_a 10.996845
_cell_length_b 9.100919
_cell_length_c 16.455896
_cell_angle_alpha 90.000000
_cell_angle_beta 109.704949
_cell_angle_gamma 90.000000
_cell_volume 1550.487219
_symmetry_space_group_name_H-M "C 2/C"
_symmetry_group_IT_number 15
_symmetry_cell_setting 'monoclinic'
loop_
_space_group_symop_operation_xyz
x,y,z
-x,y,1/2-z
-x,-y,-z
x,-y,1/2+z
1/2+x,1/2+y,z
1/2-x,1/2+y,1/2-z
1/2-x,1/2-y,-z
1/2+x,1/2-y,1/2+z
loop_
_atom_site_type_symbol
_atom_site_label
_atom_site_fract_x
_atom_site_fract_y
_atom_site_fract_z
Si Si1 0.372100 0.594686 0.979868
Si Si2 0.000000 0.211749 0.750000
Si Si3 0.229327 0.718778 0.189397
Si Si4 0.722605 0.574479 0.898262
Si Si5 0.509301 0.122345 0.572872
Si Si6 0.000000 0.362809 0.250000
O O1 0.318210 0.655588 0.883663
O O2 0.500000 0.500000 0.000000
O O3 0.280097 0.491274 0.012269
O O4 0.412011 0.742113 0.038204
O O5 0.878665 0.288999 0.765639
O O6 0.919306 0.124445 0.662266
O O7 0.239769 0.561491 0.150674
O O8 0.374921 0.764571 0.241765
O O9 0.843580 0.681281 0.910213
O O10 0.481779 0.062338 0.657664
O O11 0.500000 0.000000 0.500000
#
# Coordination Sequence:
#
# PCOD9307985 Si02
#       6
#     8   4   8   8   8   4
#     4  12  26  48  76 111 157 204 256 330 398 463
#     4  12  27  47  72 114 154 196 264 324 384 472
#     4  12  25  49  74 112 151 203 259 325 390 469
#     4  12  25  47  77 107 155 204 261 322 389 472
#     4  12  26  49  80 114 155 210 265 322 394 476
#     4  12  25  47  84 112 154 218 260 322 408 470
#
# _framework density 25.798342999999999
#
# number of rings (size 3 to 8) (size 9 to 14) (size 15 to 20)
#    0.000    0.000    8.000    2.400    0.000    1.600 
#    0.000    0.000    0.000    0.000    0.000    0.000 
#    0.000    0.000    0.000    0.000    0.000    0.000 
#
# Total GULP energy -111936.709085 kJ/mol
# GULP energy per Si atom -5596.835454 kJ/mol
# Density = 2.573962 g / cm^3
# Si number density = 25.798343 Si / 1000 Ang^3
#
#
#
# Elastic Constant Matrix: (Units=GPa)
#
#
# Indices 1 2 3 4 5 6 
#
# 1 191.3954 11.0341 32.3141 0.0000 -13.4300 0.0000
# 2 11.0341 31.3282 10.8971 0.0000 -5.7856 0.0000
# 3 32.3141 10.8971 101.1290 0.0000 -23.2364 0.0000
# 4 0.0000 0.0000 0.0000 18.3342 0.0000 1.3042
# 5 -13.4300 -5.7856 -23.2364 0.0000 62.3258 0.0000
# 6 0.0000 0.0000 0.0000 1.3042 0.0000 36.3826
#
#
#
# Elastic Compliance Matrix: (Units=1/GPa)
#
#
# Indices 1 2 3 4 5 6 
#
# 1 0.005596 -0.001346 -0.001525 0.000000 0.000512 0.000000
# 2 -0.001346 0.033696 -0.002788 0.000000 0.001799 0.000000
# 3 -0.001525 -0.002788 0.011529 0.000000 0.003711 0.000000
# 4 0.000000 0.000000 0.000000 0.054682 0.000000 -0.001960
# 5 0.000512 0.001799 0.003711 0.000000 0.017705 0.000000
# 6 0.000000 0.000000 0.000000 -0.001960 0.000000 0.027556
#
#
# Mechanical properties :
#
#
# Convention : Reuss Voigt Hill
#
# Bulk Modulus (GPa) = 25.31443 48.03812 36.67628
# Shear Modulus (GPa) = 28.53078 41.38235 34.95656
#
# Velocity S-wave (km/s) = 3.32914 4.00943 3.68502
# Velocity P-wave (km/s) = 4.96098 6.33207 5.68799
#
# Compressibility (1/GPa) = 0.03950316
#
# Stress axis : x y z
#
# Youngs Moduli (GPa) = 178.70415 29.67716 86.73967
#
# Poissons Ratio (x) = 0.03994 0.13231
# Poissons Ratio (y) = 0.24049 0.24179
# Poissons Ratio (z) = 0.27259 0.08273
#
# Static dielectric constant tensor:
#      x y z
#    x 2.092070 0.000000 0.081140 
#    y 0.000000 2.032190 0.000000 
#    z 0.081140 0.000000 2.152010 
# 
# From -- ./inp_files/195254.got.cif
#   From: 2010.05.17/outbox.cif.g08.bks.cpg/sg15_98_cif.got.tgz:195254.got - 2010.06.03 18:47:42.
