data_PCOD9307465
_publ_section_title
;
Structure prediction by ZEFSAII (Michael W. Deem and Ramdas Pophale) SiO2 
 PCOD9307465
Probable space group: C 2/C
;
_chemical_formula_sum "Si O2"
_cell_formula_units_Z 48
_cell_length_a 21.013780
_cell_length_b 13.705336
_cell_length_c 18.547096
_cell_angle_alpha 90.000000
_cell_angle_beta 157.029923
_cell_angle_gamma 90.000000
_cell_volume 2084.553641
_symmetry_space_group_name_H-M "C 2/C"
_symmetry_group_IT_number 15
_symmetry_cell_setting 'monoclinic'
loop_
_space_group_symop_operation_xyz
x,y,z
-x,y,1/2-z
-x,-y,-z
x,-y,1/2+z
1/2+x,1/2+y,z
1/2-x,1/2+y,1/2-z
1/2-x,1/2-y,-z
1/2+x,1/2-y,1/2+z
loop_
_atom_site_type_symbol
_atom_site_label
_atom_site_fract_x
_atom_site_fract_y
_atom_site_fract_z
Si Si1 0.679045 0.555154 0.973642
Si Si2 0.856451 0.470301 0.277440
Si Si3 0.357881 0.430832 0.823376
Si Si4 0.327501 0.959009 0.481165
Si Si5 0.774525 0.246472 0.380239
Si Si6 0.997364 0.726357 0.996075
O O1 0.500000 0.556390 0.750000
O O2 0.813438 0.537080 0.052012
O O3 0.709433 0.472682 0.066181
O O4 0.715650 0.658096 0.053302
O O5 0.786610 0.534896 0.270796
O O6 0.920188 0.367242 0.375884
O O7 0.003814 0.522547 0.386443
O O8 0.288964 0.460374 0.674607
O O9 0.500000 0.500000 0.000000
O O10 0.445026 0.326923 0.906338
O O11 0.244486 0.854033 0.378271
O O12 0.957880 0.262586 0.540748
O O13 0.690602 0.228318 0.213982
#
# Coordination Sequence:
#
# PCOD9307465 Si02
#       6
#     8   8   8   8   8   8
#     4  12  27  47  70 107 152 198 242 304 382 447
#     4  12  26  46  74 106 154 196 251 307 366 450
#     4  12  23  45  74 108 149 196 249 310 364 444
#     4  12  25  44  71 111 150 195 242 303 383 447
#     4  12  24  41  74 105 150 183 241 313 374 447
#     4  12  24  44  74 113 140 194 250 304 370 434
#
# _framework density 23.026513000000001
#
# number of rings (size 3 to 8) (size 9 to 14) (size 15 to 20)
#    0.000    0.000    5.000    5.500    0.000    1.333 
#    0.000    0.833    0.000    2.000    0.000    0.000 
#    0.000    0.000    0.000    0.000    0.000    0.000 
#
# Total GULP energy -133744.968762 kJ/mol
# GULP energy per Si atom -5572.707032 kJ/mol
# Density = 2.297410 g / cm^3
# Si number density = 23.026513 Si / 1000 Ang^3
#
#
#
# Elastic Constant Matrix: (Units=GPa)
#
#
# Indices 1 2 3 4 5 6 
#
# 1 122.1269 50.3916 32.2569 -0.0006 -9.4373 0.0001
# 2 50.3916 155.0139 74.6213 -0.0010 -15.9716 -0.0002
# 3 32.2569 74.6213 129.1295 -0.0014 -23.4783 -0.0005
# 4 -0.0006 -0.0010 -0.0014 35.3175 -0.0010 -15.6270
# 5 -9.4373 -15.9716 -23.4783 -0.0010 42.5961 -0.0002
# 6 0.0001 -0.0002 -0.0005 -15.6270 -0.0002 37.2962
#
#
#
# Elastic Compliance Matrix: (Units=1/GPa)
#
#
# Indices 1 2 3 4 5 6 
#
# 1 0.009538 -0.002691 -0.000697 0.000000 0.000720 0.000000
# 2 -0.002691 0.009709 -0.004873 0.000000 0.000358 0.000000
# 3 -0.000697 -0.004873 0.011529 0.000001 0.004373 0.000000
# 4 0.000000 0.000000 0.000001 0.034759 0.000001 0.014564
# 5 0.000720 0.000358 0.004373 0.000001 0.026181 0.000001
# 6 0.000000 0.000000 0.000000 0.014564 0.000001 0.032915
#
#
# Mechanical properties :
#
#
# Convention : Reuss Voigt Hill
#
# Bulk Modulus (GPa) = 70.15236 80.08998 75.12117
# Shear Modulus (GPa) = 34.26935 39.64201 36.95568
#
# Velocity S-wave (km/s) = 3.86198 4.15370 4.01049
# Velocity P-wave (km/s) = 7.10060 7.60667 7.35799
#
# Compressibility (1/GPa) = 0.01425469
#
# Stress axis : x y z
#
# Youngs Moduli (GPa) = 104.84099 103.00192 86.73535
#
# Poissons Ratio (x) = 0.27719 0.06042
# Poissons Ratio (y) = 0.28214 0.42266
# Poissons Ratio (z) = 0.07303 0.50193
#
# Static dielectric constant tensor:
#      x y z
#    x 2.060840 0.000000 0.106810 
#    y 0.000000 1.919300 0.000000 
#    z 0.106810 0.000000 1.980250 
# 
# From -- ./inp_files/255730.got.cif
#   From: 2010.05.17/outbox.cif.g08.bks.cpg/sg15_128_cif.got.tgz:255730.got - 2010.06.03 18:47:42.
