data_PCOD9307734
_publ_section_title
;
Structure prediction by ZEFSAII (Michael W. Deem and Ramdas Pophale) SiO2 
 PCOD9307734
Probable space group: C 2/C
;
_chemical_formula_sum "Si O2"
_cell_formula_units_Z 32
_cell_length_a 15.828603
_cell_length_b 12.735320
_cell_length_c 8.813713
_cell_angle_alpha 90.000000
_cell_angle_beta 50.817795
_cell_angle_gamma 90.000000
_cell_volume 1377.183848
_symmetry_space_group_name_H-M "C 2/C"
_symmetry_group_IT_number 15
_symmetry_cell_setting 'monoclinic'
loop_
_space_group_symop_operation_xyz
x,y,z
-x,y,1/2-z
-x,-y,-z
x,-y,1/2+z
1/2+x,1/2+y,z
1/2-x,1/2+y,1/2-z
1/2-x,1/2-y,-z
1/2+x,1/2-y,1/2+z
loop_
_atom_site_type_symbol
_atom_site_label
_atom_site_fract_x
_atom_site_fract_y
_atom_site_fract_z
Si Si1 0.703369 0.723788 0.719161
Si Si2 0.270415 0.093951 0.905034
Si Si3 0.894478 0.429704 0.575135
Si Si4 0.082118 0.021239 0.773467
O O1 0.750000 0.750000 0.500000
O O2 0.772990 0.699367 0.796200
O O3 0.661859 0.607945 0.741527
O O4 0.611820 0.811142 0.855882
O O5 0.360384 0.084529 0.937742
O O6 0.298154 0.992373 0.770234
O O7 0.152308 0.072005 0.117100
O O8 0.000000 0.500000 0.500000
O O9 0.000000 0.073813 0.750000
O O10 0.000000 0.000000 0.000000
#
# Coordination Sequence:
#
# PCOD9307734 Si02
#       4
#     8   8   8   8
#     4  12  26  48  79 111 155 210 260 332 410 475
#     4  12  24  50  77 111 159 204 269 331 391 485
#     4  12  26  49  75 114 159 207 263 330 403 485
#     4  12  24  46  77 107 148 199 265 325 392 473
#
# _framework density 23.235824000000001
#
# number of rings (size 3 to 8) (size 9 to 14) (size 15 to 20)
#    0.000    0.000    7.500    1.500    0.000    4.000 
#    9.000    0.000    0.000    0.000    0.000    0.000 
#    0.000    0.000    0.000    0.000    0.000    0.000 
#
# Total GULP energy -89128.113692 kJ/mol
# GULP energy per Si atom -5570.507106 kJ/mol
# Density = 2.318294 g / cm^3
# Si number density = 23.235824 Si / 1000 Ang^3
#
#
#
# Elastic Constant Matrix: (Units=GPa)
#
#
# Indices 1 2 3 4 5 6 
#
# 1 159.0866 33.8964 40.6250 0.0000 20.8728 0.0000
# 2 33.8964 85.8124 36.2890 0.0000 17.5988 0.0000
# 3 40.6250 36.2890 137.9792 0.0000 25.6055 0.0000
# 4 0.0000 0.0000 0.0000 45.7145 0.0000 4.9869
# 5 20.8728 17.5988 25.6055 0.0000 36.8869 0.0000
# 6 0.0000 0.0000 0.0000 4.9869 0.0000 48.1358
#
#
#
# Elastic Compliance Matrix: (Units=1/GPa)
#
#
# Indices 1 2 3 4 5 6 
#
# 1 0.007311 -0.001884 -0.001212 0.000000 -0.002397 0.000000
# 2 -0.001884 0.014260 -0.002446 0.000000 -0.004040 0.000000
# 3 -0.001212 -0.002446 0.009073 0.000000 -0.004445 0.000000
# 4 0.000000 0.000000 0.000000 0.022125 0.000000 -0.002292
# 5 -0.002397 -0.004040 -0.004445 0.000000 0.033479 0.000000
# 6 0.000000 0.000000 0.000000 -0.002292 0.000000 0.021012
#
#
# Mechanical properties :
#
#
# Convention : Reuss Voigt Hill
#
# Bulk Modulus (GPa) = 51.12607 67.16657 59.14632
# Shear Modulus (GPa) = 40.04329 44.28530 42.16429
#
# Velocity S-wave (km/s) = 4.15582 4.37040 4.26446
# Velocity P-wave (km/s) = 6.71407 7.37811 7.05390
#
# Compressibility (1/GPa) = 0.01955949
#
# Stress axis : x y z
#
# Youngs Moduli (GPa) = 136.77382 70.12445 110.22140
#
# Poissons Ratio (x) = 0.13210 0.13364
# Poissons Ratio (y) = 0.25765 0.26963
# Poissons Ratio (z) = 0.16583 0.17154
#
# Static dielectric constant tensor:
#      x y z
#    x 1.934580 0.000000 -0.023520 
#    y 0.000000 1.839920 0.000000 
#    z -0.023520 0.000000 1.862680 
# 
# From -- ./inp_files/111332.got.cif
#   From: 2010.05.17/outbox.cif.g08.bks.cpg/sg15_56_cif.got.tgz:111332.got - 2010.06.03 18:47:42.
