data_PCOD9307949
_publ_section_title
;
Structure prediction by ZEFSAII (Michael W. Deem and Ramdas Pophale) SiO2 
 PCOD9307949
Probable space group: C 2/C
;
_chemical_formula_sum "Si O2"
_cell_formula_units_Z 40
_cell_length_a 5.046986
_cell_length_b 27.791388
_cell_length_c 12.002674
_cell_angle_alpha 90.000000
_cell_angle_beta 101.505818
_cell_angle_gamma 90.000000
_cell_volume 1649.696604
_symmetry_space_group_name_H-M "C 2/C"
_symmetry_group_IT_number 15
_symmetry_cell_setting 'monoclinic'
loop_
_space_group_symop_operation_xyz
x,y,z
-x,y,1/2-z
-x,-y,-z
x,-y,1/2+z
1/2+x,1/2+y,z
1/2-x,1/2+y,1/2-z
1/2-x,1/2-y,-z
1/2+x,1/2-y,1/2+z
loop_
_atom_site_type_symbol
_atom_site_label
_atom_site_fract_x
_atom_site_fract_y
_atom_site_fract_z
Si Si1 0.000000 0.191628 0.750000
Si Si2 0.830846 0.626357 0.410552
Si Si3 0.455631 0.763550 0.923119
Si Si4 0.000000 0.555579 0.250000
Si Si5 0.104448 0.986133 0.132164
Si Si6 0.109762 0.885144 0.440115
O O1 0.849509 0.229839 0.814234
O O2 0.863893 0.156818 0.648937
O O3 0.929116 0.680331 0.391299
O O4 0.807817 0.592270 0.301456
O O5 0.083978 0.603383 0.499833
O O6 0.565151 0.629023 0.465318
O O7 0.750000 0.750000 0.000000
O O8 0.250000 0.750000 0.000000
O O9 0.124680 0.517421 0.345960
O O10 0.062323 0.928908 0.125697
O O11 0.000000 0.999119 0.250000
O O12 0.000000 0.000000 0.000000
#
# Coordination Sequence:
#
# PCOD9307949 Si02
#       6
#     4   8   8   4   8   8
#     4  12  25  48  76 108 148 208 247 324 392 470
#     4  12  26  51  73 115 153 207 256 325 395 475
#     4  12  25  46  75 111 149 194 256 318 386 471
#     4  12  29  46  84 108 166 206 267 326 410 474
#     4  12  27  49  76 116 156 212 268 331 398 478
#     4  12  27  46  79 106 158 201 265 321 393 470
#
# _framework density 24.246880999999998
#
# number of rings (size 3 to 8) (size 9 to 14) (size 15 to 20)
#    0.000    0.000    7.000    1.800    2.800    4.800 
#    0.000    4.000    0.000    0.000    0.000    0.000 
#    0.000    0.000    0.000    0.000    0.000    0.000 
#
# Total GULP energy -111515.293061 kJ/mol
# GULP energy per Si atom -5575.764653 kJ/mol
# Density = 2.419169 g / cm^3
# Si number density = 24.246881 Si / 1000 Ang^3
#
#
#
# Elastic Constant Matrix: (Units=GPa)
#
#
# Indices 1 2 3 4 5 6 
#
# 1 108.7491 7.2917 37.1550 0.0000 -0.7937 0.0000
# 2 7.2917 177.9315 41.1891 0.0000 9.0252 0.0000
# 3 37.1550 41.1891 136.6937 0.0000 -12.0539 0.0000
# 4 0.0000 0.0000 0.0000 46.5073 0.0000 -16.1919
# 5 -0.7937 9.0252 -12.0539 0.0000 39.9926 0.0000
# 6 0.0000 0.0000 0.0000 -16.1919 0.0000 5.7041
#
#
#
# Elastic Compliance Matrix: (Units=1/GPa)
#
#
# Indices 1 2 3 4 5 6 
#
# 1 0.010167 0.000297 -0.002919 0.000000 -0.000745 0.000000
# 2 0.000297 0.006204 -0.002130 0.000000 -0.002036 0.000000
# 3 -0.002919 -0.002130 0.009028 0.000000 0.003144 0.000000
# 4 0.000000 0.000000 0.000000 1.836186 0.000000 5.212255
# 5 -0.000745 -0.002036 0.003144 0.000000 0.026397 0.000000
# 6 0.000000 0.000000 0.000000 5.212255 0.000000 14.970979
#
#
# Mechanical properties :
#
#
# Convention : Reuss Voigt Hill
#
# Bulk Modulus (GPa) = 62.90805 66.07177 64.48991
# Shear Modulus (GPa) = 0.29632 40.95672 20.62652
#
# Velocity S-wave (km/s) = 0.34996 4.11439 2.91982
# Velocity P-wave (km/s) = 5.11512 7.06256 6.16620
#
# Compressibility (1/GPa) = 0.01589622
#
# Stress axis : x y z
#
# Youngs Moduli (GPa) = 98.35402 161.17961 110.76746
#
# Poissons Ratio (x) = -0.04783 0.32330
# Poissons Ratio (y) = -0.02919 0.23590
# Poissons Ratio (z) = 0.28707 0.34327
#
# Static dielectric constant tensor:
#      x y z
#    x 1.904130 0.000000 0.003790 
#    y 0.000000 1.969590 0.000000 
#    z 0.003790 0.000000 1.919880 
# 
# From -- ./inp_files/73392.got.cif
#   From: 2010.05.17/outbox.cif.g08.bks.cpg/sg15_37_cif.got.tgz:73392.got - 2010.06.03 18:47:42.
