data_PCOD9307628
_publ_section_title
;
Structure prediction by ZEFSAII (Michael W. Deem and Ramdas Pophale) SiO2 
 PCOD9307628
Probable space group: C 2/C
;
_chemical_formula_sum "Si O2"
_cell_formula_units_Z 52
_cell_length_a 6.463752
_cell_length_b 13.908874
_cell_length_c 28.029488
_cell_angle_alpha 90.000000
_cell_angle_beta 65.654593
_cell_angle_gamma 90.000000
_cell_volume 2295.867612
_symmetry_space_group_name_H-M "C 2/C"
_symmetry_group_IT_number 15
_symmetry_cell_setting 'monoclinic'
loop_
_space_group_symop_operation_xyz
x,y,z
-x,y,1/2-z
-x,-y,-z
x,-y,1/2+z
1/2+x,1/2+y,z
1/2-x,1/2+y,1/2-z
1/2-x,1/2-y,-z
1/2+x,1/2-y,1/2+z
loop_
_atom_site_type_symbol
_atom_site_label
_atom_site_fract_x
_atom_site_fract_y
_atom_site_fract_z
Si Si1 0.030174 0.356123 0.798233
Si Si2 0.067625 0.869750 0.413786
Si Si3 0.177503 0.486510 0.940449
Si Si4 0.904362 0.845385 0.986541
Si Si5 0.577918 0.832030 0.588380
Si Si6 0.292316 0.057599 0.800059
Si Si7 0.000000 0.964193 0.750000
O O1 0.935887 0.307357 0.854308
O O2 0.286401 0.394719 0.781129
O O3 0.000000 0.303902 0.750000
O O4 0.882506 0.452677 0.806417
O O5 0.139386 0.903854 0.459847
O O6 0.049089 0.756451 0.423628
O O7 0.232336 0.889538 0.354220
O O8 0.827245 0.917688 0.421054
O O9 0.350894 0.408784 0.945364
O O10 0.047108 0.433304 0.909947
O O11 0.000000 0.500000 0.000000
O O12 0.172556 0.828947 0.957256
O O13 0.750000 0.750000 0.000000
O O14 0.500000 0.102792 0.750000
O O15 0.081123 0.032734 0.785626
#
# Coordination Sequence:
#
# PCOD9307628 Si02
#       7
#     8   8   8   8   8   8   4
#     4   9  20  40  67  91 128 169 214 273 326 388
#     4  12  24  44  67  98 134 175 221 274 334 404
#     4  12  25  42  71  98 130 177 220 272 339 401
#     4  12  25  46  65  96 139 173 217 275 333 402
#     4  12  25  45  65 100 135 172 226 275 332 406
#     4   9  20  40  64  93 126 167 216 273 325 387
#     4   8  16  40  66  90 122 162 224 260 332 396
#
# _framework density 22.64939
#
# number of rings (size 3 to 8) (size 9 to 14) (size 15 to 20)
#    0.000    1.538    3.077    3.692    2.154    1.231 
#    8.308    0.000    0.000    0.000    0.000    0.000 
#    0.000    0.000    0.000    0.000    0.000    0.000 
#
# Total GULP energy -145181.090202 kJ/mol
# GULP energy per Si atom -5583.888085 kJ/mol
# Density = 2.259784 g / cm^3
# Si number density = 22.649390 Si / 1000 Ang^3
#
#
#
# Elastic Constant Matrix: (Units=GPa)
#
#
# Indices 1 2 3 4 5 6 
#
# 1 89.4653 12.4466 41.5252 0.0001 12.7966 0.0000
# 2 12.4466 43.8185 2.7282 0.0000 0.4757 0.0000
# 3 41.5252 2.7282 151.7983 0.0000 4.4789 -0.0001
# 4 0.0001 0.0000 0.0000 17.1670 0.0000 -1.2777
# 5 12.7966 0.4757 4.4789 0.0000 22.4955 0.0001
# 6 0.0000 0.0000 -0.0001 -1.2777 0.0001 30.8594
#
#
#
# Elastic Compliance Matrix: (Units=1/GPa)
#
#
# Indices 1 2 3 4 5 6 
#
# 1 0.014472 -0.003802 -0.003672 0.000000 -0.007421 0.000000
# 2 -0.003802 0.023849 0.000566 0.000000 0.001546 0.000000
# 3 -0.003672 0.000566 0.007565 0.000000 0.000570 0.000000
# 4 0.000000 0.000000 0.000000 0.058431 0.000000 0.002419
# 5 -0.007421 0.001546 0.000570 0.000000 0.048529 0.000000
# 6 0.000000 0.000000 0.000000 0.002419 0.000000 0.032505
#
#
# Mechanical properties :
#
#
# Convention : Reuss Voigt Hill
#
# Bulk Modulus (GPa) = 31.18048 44.27581 37.72815
# Shear Modulus (GPa) = 23.82575 29.32986 26.57781
#
# Velocity S-wave (km/s) = 3.24688 3.60245 3.42927
# Velocity P-wave (km/s) = 5.27757 6.07407 5.68977
#
# Compressibility (1/GPa) = 0.03207134
#
# Stress axis : x y z
#
# Youngs Moduli (GPa) = 69.09870 41.93006 132.18631
#
# Poissons Ratio (x) = 0.15940 0.48534
# Poissons Ratio (y) = 0.26269 -0.07478
# Poissons Ratio (z) = 0.25370 -0.02372
#
# Static dielectric constant tensor:
#      x y z
#    x 1.958310 0.000000 0.068960 
#    y 0.000000 1.858420 0.000000 
#    z 0.068960 0.000000 1.893510 
# 
# From -- ./inp_files/305344.got.cif
#   From: 2010.05.17/outbox.cif.g08.bks.cpg/sg15_153_cif.got.tgz:305344.got - 2010.06.03 18:47:42.
