data_PCOD9307369
_publ_section_title
;
Structure prediction by ZEFSAII (Michael W. Deem and Ramdas Pophale) SiO2 
 PCOD9307369
Probable space group: C 2/C
;
_chemical_formula_sum "Si O2"
_cell_formula_units_Z 64
_cell_length_a 28.579247
_cell_length_b 22.151553
_cell_length_c 8.980135
_cell_angle_alpha 90.000000
_cell_angle_beta 148.986143
_cell_angle_gamma 90.000000
_cell_volume 2929.219530
_symmetry_space_group_name_H-M "C 2/C"
_symmetry_group_IT_number 15
_symmetry_cell_setting 'monoclinic'
loop_
_space_group_symop_operation_xyz
x,y,z
-x,y,1/2-z
-x,-y,-z
x,-y,1/2+z
1/2+x,1/2+y,z
1/2-x,1/2+y,1/2-z
1/2-x,1/2-y,-z
1/2+x,1/2-y,1/2+z
loop_
_atom_site_type_symbol
_atom_site_label
_atom_site_fract_x
_atom_site_fract_y
_atom_site_fract_z
Si Si1 0.727172 0.931355 0.452944
Si Si2 0.601718 0.827082 0.247410
Si Si3 0.595713 0.836621 0.734840
Si Si4 0.851002 0.753192 0.344028
Si Si5 0.094927 0.119182 0.919841
Si Si6 0.276624 0.943611 0.416014
Si Si7 0.154233 0.252665 0.151789
Si Si8 0.400991 0.391237 0.425119
O O1 0.669019 0.874984 0.356291
O O2 0.723040 0.939032 0.263009
O O3 0.693133 0.991561 0.442145
O O4 0.829696 0.919052 0.786395
O O5 0.645587 0.790147 0.503113
O O6 0.582189 0.773375 0.078315
O O7 0.505446 0.858701 0.009752
O O8 0.582984 0.781388 0.588151
O O9 0.657427 0.890645 0.845341
O O10 0.650190 0.804876 0.017827
O O11 0.880458 0.822780 0.429070
O O12 0.750000 0.750000 0.000000
O O13 0.096846 0.104536 0.748861
O O14 0.000000 0.113518 0.750000
O O15 0.128079 0.188512 0.017252
O O16 0.178173 0.930762 0.217755
O O17 0.250000 0.250000 0.500000
O O18 0.500000 0.409444 0.750000
#
# Coordination Sequence:
#
# PCOD9307369 Si02
#       8
#     8   8   8   8   8   8   8   8
#     4  12  28  49  71 100 133 191 242 298 351 418
#     4  12  26  43  71 104 148 185 238 288 355 420
#     4  12  24  45  68 107 144 188 228 293 350 422
#     4  12  24  42  70 107 148 185 228 284 357 424
#     4  12  25  45  74 107 144 182 232 288 357 428
#     4  12  28  48  73  97 138 185 245 293 354 415
#     4  12  23  41  70 106 143 184 227 287 351 422
#     4  12  26  45  72 108 145 182 229 292 357 429
#
# _framework density 21.848821999999998
#
# number of rings (size 3 to 8) (size 9 to 14) (size 15 to 20)
#    0.000    0.000    5.000    5.250    5.250    1.000 
#    0.000    2.500    0.000    0.000    0.000    0.000 
#    0.000    0.000    0.000    0.000    0.000    0.000 
#
# Total GULP energy -178974.720238 kJ/mol
# GULP energy per Si atom -5592.960007 kJ/mol
# Density = 2.179909 g / cm^3
# Si number density = 21.848822 Si / 1000 Ang^3
#
#
#
# Elastic Constant Matrix: (Units=GPa)
#
#
# Indices 1 2 3 4 5 6 
#
# 1 113.1430 18.1787 33.0489 0.0000 -8.3650 0.0000
# 2 18.1787 81.9313 9.3160 0.0000 -12.6247 0.0000
# 3 33.0489 9.3160 92.5727 0.0000 5.6893 0.0000
# 4 0.0000 0.0000 0.0000 10.7507 0.0000 -8.5226
# 5 -8.3650 -12.6247 5.6893 0.0000 47.7387 0.0000
# 6 0.0000 0.0000 0.0000 -8.5226 0.0000 33.2236
#
#
#
# Elastic Compliance Matrix: (Units=1/GPa)
#
#
# Indices 1 2 3 4 5 6 
#
# 1 0.010287 -0.001591 -0.003624 0.000000 0.001814 0.000000
# 2 -0.001591 0.013180 -0.000962 0.000000 0.003321 0.000000
# 3 -0.003624 -0.000962 0.012338 0.000000 -0.002360 0.000000
# 4 0.000000 0.000000 0.000000 0.116762 0.000000 0.029952
# 5 0.001814 0.003321 -0.002360 0.000000 0.022425 0.000000
# 6 0.000000 0.000000 0.000000 0.029952 0.000000 0.037782
#
#
# Mechanical properties :
#
#
# Convention : Reuss Voigt Hill
#
# Bulk Modulus (GPa) = 42.64420 45.41492 44.02956
# Shear Modulus (GPa) = 21.46440 33.48281 27.47361
#
# Velocity S-wave (km/s) = 3.13773 3.91893 3.54989
# Velocity P-wave (km/s) = 5.71729 6.42717 6.08259
#
# Compressibility (1/GPa) = 0.02344985
#
# Stress axis : x y z
#
# Youngs Moduli (GPa) = 97.21443 75.87518 81.05112
#
# Poissons Ratio (x) = 0.12071 0.29371
# Poissons Ratio (y) = 0.15465 0.07801
# Poissons Ratio (z) = 0.35228 0.07303
#
# Static dielectric constant tensor:
#      x y z
#    x 1.892370 0.000000 -0.042990 
#    y 0.000000 1.762850 0.000000 
#    z -0.042990 0.000000 1.845290 
# 
# From -- ./inp_files/70980.got.cif
#   From: 2010.05.17/outbox.cif.g08.bks.cpg/sg15_36_cif.got.tgz:70980.got - 2010.06.03 18:47:42.
