data_PCOD9307292
_publ_section_title
;
Structure prediction by ZEFSAII (Michael W. Deem and Ramdas Pophale) SiO2 
 PCOD9307292
Probable space group: C 2/C
;
_chemical_formula_sum "Si O2"
_cell_formula_units_Z 52
_cell_length_a 17.271092
_cell_length_b 9.692473
_cell_length_c 16.860841
_cell_angle_alpha 90.000000
_cell_angle_beta 50.414799
_cell_angle_gamma 90.000000
_cell_volume 2175.236651
_symmetry_space_group_name_H-M "C 2/C"
_symmetry_group_IT_number 15
_symmetry_cell_setting 'monoclinic'
loop_
_space_group_symop_operation_xyz
x,y,z
-x,y,1/2-z
-x,-y,-z
x,-y,1/2+z
1/2+x,1/2+y,z
1/2-x,1/2+y,1/2-z
1/2-x,1/2-y,-z
1/2+x,1/2-y,1/2+z
loop_
_atom_site_type_symbol
_atom_site_label
_atom_site_fract_x
_atom_site_fract_y
_atom_site_fract_z
Si Si1 0.742044 0.977445 0.177452
Si Si2 0.733620 0.257151 0.917584
Si Si3 0.013401 0.728793 0.097387
Si Si4 0.371034 0.758101 0.542677
Si Si5 0.696321 0.532035 0.190753
Si Si6 0.019476 0.411174 0.330108
Si Si7 0.000000 0.948009 0.250000
O O1 0.815553 0.888507 0.074050
O O2 0.799911 0.034284 0.216698
O O3 0.639603 0.898667 0.267765
O O4 0.708388 0.110765 0.151432
O O5 0.774967 0.123557 0.849225
O O6 0.750000 0.250000 0.000000
O O7 0.614657 0.260778 0.982660
O O8 0.012987 0.569036 0.126010
O O9 0.013215 0.841932 0.167527
O O10 0.921335 0.741760 0.096929
O O11 0.453407 0.806400 0.425717
O O12 0.281428 0.868673 0.601648
O O13 0.590835 0.547046 0.216247
O O14 0.000000 0.391533 0.250000
#
# Coordination Sequence:
#
# PCOD9307292 Si02
#       7
#     8   8   8   8   8   8   4
#     4  12  27  48  77 113 160 206 258 332 399 469
#     4  12  25  46  79 111 149 204 268 323 383 473
#     4  12  22  45  78 111 144 207 264 317 391 479
#     4  12  27  48  77 112 162 204 260 330 401 468
#     4  12  24  48  76 115 154 203 257 331 399 466
#     4  12  25  47  76 107 155 212 266 320 402 478
#     4  12  24  42  80 114 150 196 270 320 384 478
#
# _framework density 23.905445
#
# number of rings (size 3 to 8) (size 9 to 14) (size 15 to 20)
#    0.000    0.000    6.923    4.154    0.000    1.231 
#    4.154    0.000    0.000    0.000    0.000    0.000 
#    0.000    0.000    0.000    0.000    0.000    0.000 
#
# Total GULP energy -145719.200543 kJ/mol
# GULP energy per Si atom -5604.584636 kJ/mol
# Density = 2.385104 g / cm^3
# Si number density = 23.905445 Si / 1000 Ang^3
#
#
#
# Elastic Constant Matrix: (Units=GPa)
#
#
# Indices 1 2 3 4 5 6 
#
# 1 143.7805 -0.6623 26.3384 0.0000 -12.7193 0.0000
# 2 -0.6623 44.0945 2.5436 0.0000 8.6897 0.0000
# 3 26.3384 2.5436 81.5386 0.0000 4.4561 0.0000
# 4 0.0000 0.0000 0.0000 35.5233 0.0000 -3.2868
# 5 -12.7193 8.6897 4.4561 0.0000 46.5784 0.0000
# 6 0.0000 0.0000 0.0000 -3.2868 0.0000 21.2474
#
#
#
# Elastic Compliance Matrix: (Units=1/GPa)
#
#
# Indices 1 2 3 4 5 6 
#
# 1 0.007638 -0.000203 -0.002591 0.000000 0.002372 0.000000
# 2 -0.000203 0.023570 -0.000429 0.000000 -0.004412 0.000000
# 3 -0.002591 -0.000429 0.013218 0.000000 -0.001892 0.000000
# 4 0.000000 0.000000 0.000000 0.028559 0.000000 0.004418
# 5 0.002372 -0.004412 -0.001892 0.000000 0.023121 0.000000
# 6 0.000000 0.000000 0.000000 0.004418 0.000000 0.047748
#
#
# Mechanical properties :
#
#
# Convention : Reuss Voigt Hill
#
# Bulk Modulus (GPa) = 26.32887 36.20588 31.26738
# Shear Modulus (GPa) = 30.68254 36.74940 33.71597
#
# Velocity S-wave (km/s) = 3.58648 3.92507 3.75959
# Velocity P-wave (km/s) = 5.30925 5.97661 5.65279
#
# Compressibility (1/GPa) = 0.03798112
#
# Stress axis : x y z
#
# Youngs Moduli (GPa) = 130.91617 42.42750 75.65604
#
# Poissons Ratio (x) = 0.00862 0.19600
# Poissons Ratio (y) = 0.02660 0.03242
# Poissons Ratio (z) = 0.33916 0.01818
#
# Static dielectric constant tensor:
#      x y z
#    x 0.622670 0.000000 -0.809400 
#    y 0.000000 1.879390 0.000000 
#    z -0.809400 0.000000 1.481510 
# 
# From -- ./inp_files/209461.got.cif
#   From: 2010.05.17/outbox.cif.g08.bks.cpg/sg15_105_cif.got.tgz:209461.got - 2010.06.03 18:47:42.
