data_PCOD9307497
_publ_section_title
;
Structure prediction by ZEFSAII (Michael W. Deem and Ramdas Pophale) SiO2 
 PCOD9307497
Probable space group: C 2/C
;
_chemical_formula_sum "Si O2"
_cell_formula_units_Z 48
_cell_length_a 8.060423
_cell_length_b 26.718390
_cell_length_c 14.106206
_cell_angle_alpha 90.000000
_cell_angle_beta 137.920324
_cell_angle_gamma 90.000000
_cell_volume 2035.912152
_symmetry_space_group_name_H-M "C 2/C"
_symmetry_group_IT_number 15
_symmetry_cell_setting 'monoclinic'
loop_
_space_group_symop_operation_xyz
x,y,z
-x,y,1/2-z
-x,-y,-z
x,-y,1/2+z
1/2+x,1/2+y,z
1/2-x,1/2+y,1/2-z
1/2-x,1/2-y,-z
1/2+x,1/2-y,1/2+z
loop_
_atom_site_type_symbol
_atom_site_label
_atom_site_fract_x
_atom_site_fract_y
_atom_site_fract_z
Si Si1 0.018383 0.204129 0.084611
Si Si2 0.302640 0.388922 0.582738
Si Si3 0.859677 0.570581 0.013912
Si Si4 0.203746 0.697615 0.768322
Si Si5 0.000000 0.637971 0.250000
Si Si6 0.000000 0.129691 0.750000
Si Si7 0.759961 0.474664 0.078228
O O1 0.077685 0.253931 0.167751
O O2 0.270194 0.172499 0.181132
O O3 0.834434 0.168734 0.067531
O O4 0.915054 0.212513 0.934606
O O5 0.500000 0.399717 0.750000
O O6 0.332346 0.421742 0.501219
O O7 0.045059 0.408899 0.513346
O O8 0.853677 0.512393 0.035186
O O9 0.934488 0.601141 0.137849
O O10 0.599169 0.592047 0.871278
O O11 0.314097 0.665282 0.729595
O O12 0.000000 0.671594 0.750000
O O13 0.000000 0.470647 0.250000
O O14 0.500000 0.500000 0.000000
#
# Coordination Sequence:
#
# PCOD9307497 Si02
#       7
#     8   8   8   8   4   4   8
#     4  12  27  49  75 109 151 201 256 319 387 456
#     4  12  26  47  79 109 152 205 255 318 389 464
#     4  12  26  48  74 110 156 198 254 313 389 463
#     4  12  28  48  74 107 151 199 258 317 383 453
#     4  12  23  46  76 100 158 200 244 311 388 454
#     4  12  29  46  78 116 154 202 266 319 384 462
#     4  12  28  49  78 117 159 203 255 318 395 475
#
# _framework density 23.576657999999998
#
# number of rings (size 3 to 8) (size 9 to 14) (size 15 to 20)
#    0.000    0.000    4.167    5.000    5.833    2.000 
#    0.000    0.000    0.000    0.000    0.000    0.000 
#    0.000    0.000    0.000    0.000    0.000    0.000 
#
# Total GULP energy -134331.185817 kJ/mol
# GULP energy per Si atom -5597.132742 kJ/mol
# Density = 2.352300 g / cm^3
# Si number density = 23.576658 Si / 1000 Ang^3
#
#
#
# Elastic Constant Matrix: (Units=GPa)
#
#
# Indices 1 2 3 4 5 6 
#
# 1 80.1558 15.0537 5.8969 0.0000 -8.5254 0.0000
# 2 15.0537 132.5434 68.5684 0.0000 -10.6965 0.0000
# 3 5.8969 68.5684 152.6187 0.0000 -17.3029 0.0000
# 4 0.0000 0.0000 0.0000 78.6195 0.0000 53.2391
# 5 -8.5254 -10.6965 -17.3029 0.0000 30.3016 0.0000
# 6 0.0000 0.0000 0.0000 53.2391 0.0000 123.3905
#
#
#
# Elastic Compliance Matrix: (Units=1/GPa)
#
#
# Indices 1 2 3 4 5 6 
#
# 1 0.013085 -0.001496 0.000560 0.000000 0.003473 0.000000
# 2 -0.001496 0.010029 -0.004378 0.000000 0.000620 0.000000
# 3 0.000560 -0.004378 0.008918 0.000000 0.003704 0.000000
# 4 0.000000 0.000000 0.000000 0.017970 0.000000 -0.007753
# 5 0.003473 0.000620 0.003704 0.000000 0.036313 0.000000
# 6 0.000000 0.000000 0.000000 -0.007753 0.000000 0.011450
#
#
# Mechanical properties :
#
#
# Convention : Reuss Voigt Hill
#
# Bulk Modulus (GPa) = 46.71820 60.48397 53.60109
# Shear Modulus (GPa) = 43.28036 64.84894 54.06465
#
# Velocity S-wave (km/s) = 4.28919 5.25026 4.79387
# Velocity P-wave (km/s) = 6.66243 7.90339 7.30929
#
# Compressibility (1/GPa) = 0.02140494
#
# Stress axis : x y z
#
# Youngs Moduli (GPa) = 76.42455 99.70675 112.13877
#
# Poissons Ratio (x) = 0.14912 -0.06281
# Poissons Ratio (y) = 0.11430 0.49094
# Poissons Ratio (z) = -0.04281 0.43651
#
# Static dielectric constant tensor:
#      x y z
#    x 1.944010 0.000000 0.056110 
#    y 0.000000 1.847450 0.000000 
#    z 0.056110 0.000000 1.906500 
# 
# From -- ./inp_files/139104.got.cif
#   From: 2010.05.17/outbox.cif.g08.bks.cpg/sg15_70_cif.got.tgz:139104.got - 2010.06.03 18:47:42.
