data_PCOD9307316
_publ_section_title
;
Structure prediction by ZEFSAII (Michael W. Deem and Ramdas Pophale) SiO2 
 PCOD9307316
Probable space group: C 2/C
;
_chemical_formula_sum "Si O2"
_cell_formula_units_Z 44
_cell_length_a 4.958088
_cell_length_b 17.281430
_cell_length_c 21.766015
_cell_angle_alpha 90.000000
_cell_angle_beta 87.592698
_cell_angle_gamma 90.000000
_cell_volume 1863.328346
_symmetry_space_group_name_H-M "C 2/C"
_symmetry_group_IT_number 15
_symmetry_cell_setting 'monoclinic'
loop_
_space_group_symop_operation_xyz
x,y,z
-x,y,1/2-z
-x,-y,-z
x,-y,1/2+z
1/2+x,1/2+y,z
1/2-x,1/2+y,1/2-z
1/2-x,1/2-y,-z
1/2+x,1/2-y,1/2+z
loop_
_atom_site_type_symbol
_atom_site_label
_atom_site_fract_x
_atom_site_fract_y
_atom_site_fract_z
Si Si1 0.901652 0.582217 0.975366
Si Si2 0.140947 0.636035 0.651791
Si Si3 0.500000 0.582632 0.250000
Si Si4 0.500000 0.286738 0.250000
Si Si5 0.129870 0.167828 0.480131
Si Si6 0.000000 0.526740 0.750000
Si Si7 0.603889 0.699435 0.346219
O O1 0.680294 0.636505 0.013129
O O2 0.197192 0.619046 0.973796
O O3 0.785527 0.585830 0.907759
O O4 0.000000 0.500000 0.000000
O O5 0.354249 0.659874 0.701473
O O6 0.939294 0.582423 0.692723
O O7 0.045068 0.721467 0.631358
O O8 0.748750 0.528538 0.265379
O O9 0.433510 0.637251 0.309190
O O10 0.309658 0.232186 0.293196
O O11 0.250000 0.250000 0.500000
O O12 0.211517 0.161238 0.407500
#
# Coordination Sequence:
#
# PCOD9307316 Si02
#       7
#     8   8   4   4   8   4   8
#     4  12  30  51  76 113 159 210 260 325 404 473
#     4  12  26  48  77 106 153 203 256 310 391 478
#     4  12  28  44  69 111 146 190 248 318 388 438
#     4  12  22  48  76 114 144 202 258 316 384 462
#     4  12  27  50  77 114 147 205 266 326 379 470
#     4  12  28  46  71 111 150 196 240 320 394 454
#     4  12  26  45  78 106 152 198 260 315 379 469
#
# _framework density 23.613659999999999
#
# number of rings (size 3 to 8) (size 9 to 14) (size 15 to 20)
#    0.000    0.000    5.455    3.273    7.636    0.000 
#    0.000    0.000    0.000    0.000    0.000    0.000 
#    0.000    0.000    0.000    0.000    0.000    0.000 
#
# Total GULP energy -122606.476866 kJ/mol
# GULP energy per Si atom -5573.021676 kJ/mol
# Density = 2.355991 g / cm^3
# Si number density = 23.613660 Si / 1000 Ang^3
#
#
#
# Elastic Constant Matrix: (Units=GPa)
#
#
# Indices 1 2 3 4 5 6 
#
# 1 87.7746 10.0494 15.9143 0.0000 4.9986 0.0000
# 2 10.0494 80.0998 10.1194 0.0000 -13.2732 0.0000
# 3 15.9143 10.1194 142.7641 0.0000 6.2510 0.0000
# 4 0.0000 0.0000 0.0000 23.9430 0.0000 -5.4313
# 5 4.9986 -13.2732 6.2510 0.0000 23.0784 0.0000
# 6 0.0000 0.0000 0.0000 -5.4313 0.0000 21.3345
#
#
#
# Elastic Compliance Matrix: (Units=1/GPa)
#
#
# Indices 1 2 3 4 5 6 
#
# 1 0.012001 -0.001942 -0.001050 0.000000 -0.003432 0.000000
# 2 -0.001942 0.014372 -0.001197 0.000000 0.009011 0.000000
# 3 -0.001050 -0.001197 0.007313 0.000000 -0.002442 0.000000
# 4 0.000000 0.000000 0.000000 0.044326 0.000000 0.011284
# 5 -0.003432 0.009011 -0.002442 0.000000 0.049918 0.000000
# 6 0.000000 0.000000 0.000000 0.011284 0.000000 0.049745
#
#
# Mechanical properties :
#
#
# Convention : Reuss Voigt Hill
#
# Bulk Modulus (GPa) = 39.51031 42.53388 41.02209
# Shear Modulus (GPa) = 25.70847 31.97488 28.84167
#
# Velocity S-wave (km/s) = 3.30314 3.68378 3.49864
# Velocity P-wave (km/s) = 5.59607 6.01208 5.80780
#
# Compressibility (1/GPa) = 0.02530985
#
# Stress axis : x y z
#
# Youngs Moduli (GPa) = 83.32712 69.57778 136.73624
#
# Poissons Ratio (x) = 0.13510 0.14356
# Poissons Ratio (y) = 0.16179 0.16365
# Poissons Ratio (z) = 0.08748 0.08327
#
# Static dielectric constant tensor:
#      x y z
#    x 1.977300 0.000000 -0.013970 
#    y 0.000000 2.337220 0.000000 
#    z -0.013970 0.000000 1.867280 
# 
# From -- ./inp_files/227042.got.cif
#   From: 2010.05.17/outbox.cif.g08.bks.cpg/sg15_114_cif.got.tgz:227042.got - 2010.06.03 18:47:42.
