data_PCOD9307616
_publ_section_title
;
Structure prediction by ZEFSAII (Michael W. Deem and Ramdas Pophale) SiO2 
 PCOD9307616
Probable space group: C 2/C
;
_chemical_formula_sum "Si O2"
_cell_formula_units_Z 56
_cell_length_a 9.395585
_cell_length_b 14.623068
_cell_length_c 23.000197
_cell_angle_alpha 90.000000
_cell_angle_beta 127.965390
_cell_angle_gamma 90.000000
_cell_volume 2491.327717
_symmetry_space_group_name_H-M "C 2/C"
_symmetry_group_IT_number 15
_symmetry_cell_setting 'monoclinic'
loop_
_space_group_symop_operation_xyz
x,y,z
-x,y,1/2-z
-x,-y,-z
x,-y,1/2+z
1/2+x,1/2+y,z
1/2-x,1/2+y,1/2-z
1/2-x,1/2-y,-z
1/2+x,1/2-y,1/2+z
loop_
_atom_site_type_symbol
_atom_site_label
_atom_site_fract_x
_atom_site_fract_y
_atom_site_fract_z
Si Si1 0.129631 0.689662 0.230065
Si Si2 0.599882 0.830309 0.332463
Si Si3 0.372308 0.590151 0.465912
Si Si4 0.483028 0.341305 0.383004
Si Si5 0.032591 0.512303 0.148176
Si Si6 0.494048 0.323728 0.619444
Si Si7 0.877114 0.999010 0.661586
O O1 0.060656 0.743383 0.156260
O O2 0.123171 0.582146 0.216035
O O3 0.328620 0.710545 0.301653
O O4 0.000000 0.713897 0.250000
O O5 0.500000 0.791566 0.250000
O O6 0.786304 0.872966 0.355859
O O7 0.639965 0.757451 0.394029
O O8 0.484190 0.912259 0.329446
O O9 0.500000 0.500000 0.500000
O O10 0.394077 0.649727 0.529568
O O11 0.439235 0.651325 0.428216
O O12 0.167437 0.553307 0.411140
O O13 0.565286 0.407273 0.354904
O O14 0.168192 0.506161 0.127970
O O15 0.420906 0.416748 0.628931
O O16 0.000000 0.987971 0.750000
#
# Coordination Sequence:
#
# PCOD9307616 Si02
#       7
#     8   8   8   8   8   8   8
#     4  12  25  46  75 110 140 190 245 309 362 424
#     4  12  24  43  74 110 138 192 247 302 363 427
#     4  12  26  52  70 105 148 204 235 296 373 447
#     4  12  27  47  73 101 155 187 243 298 367 440
#     4  12  26  43  75 107 145 192 247 297 369 432
#     4  12  25  46  76 107 147 185 250 301 365 440
#     4  12  24  43  74 111 141 189 248 312 356 422
#
# _framework density 22.477974
#
# number of rings (size 3 to 8) (size 9 to 14) (size 15 to 20)
#    0.000    0.000    7.143    3.000    2.000    1.714 
#    0.000    0.000    0.000    0.000    0.000    0.000 
#    0.000    0.000    0.000    0.000    0.000    0.000 
#
# Total GULP energy -156614.899377 kJ/mol
# GULP energy per Si atom -5593.389263 kJ/mol
# Density = 2.242681 g / cm^3
# Si number density = 22.477974 Si / 1000 Ang^3
#
#
#
# Elastic Constant Matrix: (Units=GPa)
#
#
# Indices 1 2 3 4 5 6 
#
# 1 132.0595 3.0324 13.8323 0.0000 1.7304 0.0000
# 2 3.0324 81.5272 8.2607 0.0000 -18.1159 0.0000
# 3 13.8323 8.2607 53.5952 0.0000 -11.5395 0.0000
# 4 0.0000 0.0000 0.0000 0.8844 0.0000 34.8720
# 5 1.7304 -18.1159 -11.5395 0.0000 23.8342 0.0000
# 6 0.0000 0.0000 0.0000 34.8720 0.0000 -33.6110
#
#
#
# Elastic Compliance Matrix: (Units=1/GPa)
#
#
# Indices 1 2 3 4 5 6 
#
# 1 0.007865 -0.000523 -0.002409 0.000000 -0.002135 0.000000
# 2 -0.000523 0.014794 0.000317 0.000000 0.011436 0.000000
# 3 -0.002409 0.000317 0.021569 0.000000 0.010859 0.000000
# 4 0.000000 0.000000 0.000000 0.026980 0.000000 0.027992
# 5 -0.002135 0.011436 0.010859 0.000000 0.056061 0.000000
# 6 0.000000 0.000000 0.000000 0.027992 0.000000 -0.000710
#
#
# Mechanical properties :
#
#
# Convention : Reuss Voigt Hill
#
# Bulk Modulus (GPa) = 25.64167 35.27032 30.45600
# Shear Modulus (GPa) = 34.53317 14.35862 24.44590
#
# Velocity S-wave (km/s) = 3.92383 2.53016 3.30138
# Velocity P-wave (km/s) = 5.65339 4.92552 5.30196
#
# Compressibility (1/GPa) = 0.03899902
#
# Stress axis : x y z
#
# Youngs Moduli (GPa) = 127.15164 67.59316 46.36246
#
# Poissons Ratio (x) = 0.03534 0.11168
# Poissons Ratio (y) = 0.06647 -0.01470
# Poissons Ratio (z) = 0.30628 -0.02143
#
# Static dielectric constant tensor:
#      x y z
#    x 1.890360 0.000000 0.038750 
#    y 0.000000 1.826610 0.000000 
#    z 0.038750 0.000000 1.861030 
# 
# From -- ./inp_files/264792.got.cif
#   From: 2010.05.17/outbox.cif.g08.bks.cpg/sg15_133_cif.got.tgz:264792.got - 2010.06.03 18:47:42.
