data_PCOD9307826
_publ_section_title
;
Structure prediction by ZEFSAII (Michael W. Deem and Ramdas Pophale) SiO2 
 PCOD9307826
Probable space group: C 2/C
;
_chemical_formula_sum "Si O2"
_cell_formula_units_Z 52
_cell_length_a 24.549808
_cell_length_b 5.208668
_cell_length_c 19.489796
_cell_angle_alpha 90.000000
_cell_angle_beta 119.852832
_cell_angle_gamma 90.000000
_cell_volume 2161.497987
_symmetry_space_group_name_H-M "C 2/C"
_symmetry_group_IT_number 15
_symmetry_cell_setting 'monoclinic'
loop_
_space_group_symop_operation_xyz
x,y,z
-x,y,1/2-z
-x,-y,-z
x,-y,1/2+z
1/2+x,1/2+y,z
1/2-x,1/2+y,1/2-z
1/2-x,1/2-y,-z
1/2+x,1/2-y,1/2+z
loop_
_atom_site_type_symbol
_atom_site_label
_atom_site_fract_x
_atom_site_fract_y
_atom_site_fract_z
Si Si1 0.888531 0.905947 0.177086
Si Si2 0.140899 0.409700 0.076618
Si Si3 0.791683 0.059371 0.291042
Si Si4 0.541079 0.838052 0.899638
Si Si5 0.748039 0.505644 0.451514
Si Si6 0.500000 0.211393 0.750000
Si Si7 0.598385 0.767521 0.680968
O O1 0.911113 0.831954 0.114919
O O2 0.817785 0.996596 0.128832
O O3 0.894415 0.666094 0.233719
O O4 0.941801 0.105500 0.232796
O O5 0.194529 0.538329 0.064670
O O6 0.123132 0.541669 0.137834
O O7 0.176907 0.143146 0.117193
O O8 0.078884 0.407522 0.991464
O O9 0.746046 0.810923 0.259053
O O10 0.854603 0.973471 0.291716
O O11 0.521152 0.054737 0.831287
O O12 0.474570 0.713849 0.878187
O O13 0.750000 0.250000 0.500000
O O14 0.750000 0.750000 0.500000
#
# Coordination Sequence:
#
# PCOD9307826 Si02
#       7
#     8   8   8   8   8   4   8
#     4  12  26  49  78 114 162 220 277 339 412 508
#     4  12  29  51  85 119 165 214 278 354 414 500
#     4  12  28  53  79 118 170 216 269 334 420 496
#     4  12  26  53  78 120 162 217 284 335 423 496
#     4  12  29  52  82 118 159 215 275 345 413 495
#     4  12  24  48  84 110 166 220 282 338 416 496
#     4  12  27  49  78 121 164 215 273 347 421 494
#
# _framework density 24.057392
#
# number of rings (size 3 to 8) (size 9 to 14) (size 15 to 20)
#    0.000    0.000    6.154    2.308    4.308    1.846 
#    0.000    0.000    0.000    0.000    0.000    0.000 
#    0.000    0.000    0.000    0.000    0.000    0.000 
#
# Total GULP energy -145312.440410 kJ/mol
# GULP energy per Si atom -5588.940016 kJ/mol
# Density = 2.400264 g / cm^3
# Si number density = 24.057392 Si / 1000 Ang^3
#
#
#
# Elastic Constant Matrix: (Units=GPa)
#
#
# Indices 1 2 3 4 5 6 
#
# 1 156.2474 33.7360 78.9824 0.0002 24.5282 -0.0002
# 2 33.7360 115.5424 70.6450 -0.0001 0.5458 -0.0016
# 3 78.9824 70.6450 192.9192 -0.0001 38.5866 0.0000
# 4 0.0002 -0.0001 -0.0001 33.1681 -0.0001 -13.9509
# 5 24.5282 0.5458 38.5866 -0.0001 48.6250 -0.0002
# 6 -0.0002 -0.0016 0.0000 -13.9509 -0.0002 26.9943
#
#
#
# Elastic Compliance Matrix: (Units=1/GPa)
#
#
# Indices 1 2 3 4 5 6 
#
# 1 0.008241 -0.000746 -0.002699 0.000000 -0.002007 0.000000
# 2 -0.000746 0.011810 -0.004835 0.000000 0.004081 0.000001
# 3 -0.002699 -0.004835 0.009243 0.000000 -0.005919 0.000000
# 4 0.000000 0.000000 0.000000 0.038524 0.000000 0.019909
# 5 -0.002007 0.004081 -0.005919 0.000000 0.026229 0.000001
# 6 0.000000 0.000001 0.000000 0.019909 0.000001 0.047334
#
#
# Mechanical properties :
#
#
# Convention : Reuss Voigt Hill
#
# Bulk Modulus (GPa) = 78.54213 92.38174 85.46193
# Shear Modulus (GPa) = 30.82875 40.51386 35.67130
#
# Velocity S-wave (km/s) = 3.58364 4.10817 3.85484
# Velocity P-wave (km/s) = 7.05989 7.80940 7.44408
#
# Compressibility (1/GPa) = 0.01273202
#
# Stress axis : x y z
#
# Youngs Moduli (GPa) = 121.34968 84.67459 108.18839
#
# Poissons Ratio (x) = 0.06319 0.29202
# Poissons Ratio (y) = 0.09057 0.52313
# Poissons Ratio (z) = 0.32754 0.40943
#
# Static dielectric constant tensor:
#      x y z
#    x 2.031100 0.000000 -0.111820 
#    y 0.000000 2.000470 0.000000 
#    z -0.111820 0.000000 1.980250 
# 
# From -- ./inp_files/254428.got.cif
#   From: 2010.05.17/outbox.cif.g08.bks.cpg/sg15_128_cif.got.tgz:254428.got - 2010.06.03 18:47:42.
