data_PCOD9307619
_publ_section_title
;
Structure prediction by ZEFSAII (Michael W. Deem and Ramdas Pophale) SiO2 
 PCOD9307619
Probable space group: C 2/C
;
_chemical_formula_sum "Si O2"
_cell_formula_units_Z 40
_cell_length_a 13.524175
_cell_length_b 23.363866
_cell_length_c 9.666772
_cell_angle_alpha 90.000000
_cell_angle_beta 30.055337
_cell_angle_gamma 90.000000
_cell_volume 1529.792977
_symmetry_space_group_name_H-M "C 2/C"
_symmetry_group_IT_number 15
_symmetry_cell_setting 'monoclinic'
loop_
_space_group_symop_operation_xyz
x,y,z
-x,y,1/2-z
-x,-y,-z
x,-y,1/2+z
1/2+x,1/2+y,z
1/2-x,1/2+y,1/2-z
1/2-x,1/2-y,-z
1/2+x,1/2-y,1/2+z
loop_
_atom_site_type_symbol
_atom_site_label
_atom_site_fract_x
_atom_site_fract_y
_atom_site_fract_z
Si Si1 0.920297 0.959707 0.220551
Si Si2 0.659478 0.774057 0.251654
Si Si3 0.608455 0.124184 0.490969
Si Si4 0.487411 0.338925 0.018488
Si Si5 0.080692 0.459228 0.781720
O O1 0.651727 0.960754 0.526032
O O2 0.930291 0.890459 0.187437
O O3 0.157082 0.971712 0.024525
O O4 0.000000 0.000000 0.000000
O O5 0.479345 0.813101 0.422055
O O6 0.581803 0.722742 0.444611
O O7 0.750000 0.750000 0.000000
O O8 0.810122 0.817723 0.139534
O O9 0.500000 0.092673 0.750000
O O10 0.830417 0.129681 0.277207
O O11 0.589517 0.099509 0.360208
O O12 0.000000 0.500000 0.000000
#
# Coordination Sequence:
#
# PCOD9307619 Si02
#       5
#     8   8   8   8   8
#     4  12  28  51  77 113 156 203 261 332 409 478
#     4  12  24  43  75 115 157 210 269 328 391 482
#     4  12  25  44  78 114 156 206 267 330 398 471
#     4  12  25  46  74 114 162 203 271 331 398 469
#     4  12  27  50  78 111 152 205 269 330 402 488
#
# _framework density 26.14733
#
# number of rings (size 3 to 8) (size 9 to 14) (size 15 to 20)
#    0.000    0.000    6.000    3.600    2.800    1.600 
#    0.000    5.000    0.000    0.000    0.000    0.000 
#    0.000    0.000    0.000    0.000    0.000    0.000 
#
# Total GULP energy -111349.545608 kJ/mol
# GULP energy per Si atom -5567.477280 kJ/mol
# Density = 2.608782 g / cm^3
# Si number density = 26.147330 Si / 1000 Ang^3
#
#
#
# Elastic Constant Matrix: (Units=GPa)
#
#
# Indices 1 2 3 4 5 6 
#
# 1 245.3695 95.9821 75.3730 -0.0005 -14.5829 0.0001
# 2 95.9821 151.6015 66.6726 -0.0002 26.5039 0.0001
# 3 75.3730 66.6726 218.6783 -0.0017 5.4185 0.0000
# 4 -0.0005 -0.0002 -0.0017 52.0069 0.0005 -3.6080
# 5 -14.5829 26.5039 5.4185 0.0005 64.0091 0.0000
# 6 0.0001 0.0001 0.0000 -3.6080 0.0000 55.0346
#
#
#
# Elastic Compliance Matrix: (Units=1/GPa)
#
#
# Indices 1 2 3 4 5 6 
#
# 1 0.006123 -0.003998 -0.000969 0.000000 0.003133 0.000000
# 2 -0.003998 0.010834 -0.001795 0.000000 -0.005245 0.000000
# 3 -0.000969 -0.001795 0.005453 0.000000 0.000061 0.000000
# 4 0.000000 0.000000 0.000000 0.019316 0.000000 0.001266
# 5 0.003133 -0.005245 0.000061 0.000000 0.018503 0.000000
# 6 0.000000 0.000000 0.000000 0.001266 0.000000 0.018253
#
#
# Mechanical properties :
#
#
# Convention : Reuss Voigt Hill
#
# Bulk Modulus (GPa) = 112.54809 121.30051 116.92430
# Shear Modulus (GPa) = 52.64837 59.38490 56.01664
#
# Velocity S-wave (km/s) = 4.49210 4.77084 4.63357
# Velocity P-wave (km/s) = 8.36914 8.76583 8.56978
#
# Compressibility (1/GPa) = 0.00888509
#
# Stress axis : x y z
#
# Youngs Moduli (GPa) = 163.30761 92.30134 183.39274
#
# Poissons Ratio (x) = 0.36905 0.17774
# Poissons Ratio (y) = 0.65295 0.32921
# Poissons Ratio (z) = 0.15827 0.16569
#
# Static dielectric constant tensor:
#      x y z
#    x 2.532100 0.000000 -0.573370 
#    y 0.000000 2.151690 0.000000 
#    z -0.573370 0.000000 2.831610 
# 
# From -- ./inp_files/216703.got.cif
#   From: 2010.05.17/outbox.cif.g08.bks.cpg/sg15_109_cif.got.tgz:216703.got - 2010.06.03 18:47:42.
