data_PCOD9307846
_publ_section_title
;
Structure prediction by ZEFSAII (Michael W. Deem and Ramdas Pophale) SiO2 
 PCOD9307846
Probable space group: C 2/C
;
_chemical_formula_sum "Si O2"
_cell_formula_units_Z 28
_cell_length_a 7.399403
_cell_length_b 13.502477
_cell_length_c 11.207403
_cell_angle_alpha 90.000000
_cell_angle_beta 83.008602
_cell_angle_gamma 90.000000
_cell_volume 1111.408789
_symmetry_space_group_name_H-M "C 2/C"
_symmetry_group_IT_number 15
_symmetry_cell_setting 'monoclinic'
loop_
_space_group_symop_operation_xyz
x,y,z
-x,y,1/2-z
-x,-y,-z
x,-y,1/2+z
1/2+x,1/2+y,z
1/2-x,1/2+y,1/2-z
1/2-x,1/2-y,-z
1/2+x,1/2-y,1/2+z
loop_
_atom_site_type_symbol
_atom_site_label
_atom_site_fract_x
_atom_site_fract_y
_atom_site_fract_z
Si Si1 0.146968 0.943375 0.337348
Si Si2 0.444837 0.068860 0.391905
Si Si3 0.500000 0.187119 0.750000
Si Si4 0.965202 0.770155 0.497777
O O1 0.316488 0.880438 0.266275
O O2 0.000000 0.971160 0.250000
O O3 0.051295 0.866528 0.433873
O O4 0.231798 0.039040 0.395613
O O5 0.500000 0.054794 0.250000
O O6 0.531535 0.173721 0.419102
O O7 0.500000 0.000000 0.500000
O O8 0.508473 0.252353 0.631514
O O9 0.750000 0.750000 0.500000
#
# Coordination Sequence:
#
# PCOD9307846 Si02
#       4
#     8   8   4   8
#     4  12  25  50  80 111 158 206 264 322 395 474
#     4  12  27  49  77 111 158 202 259 331 386 461
#     4  12  24  50  72 114 158 198 264 330 380 474
#     4  12  27  47  80 115 153 210 259 317 405 468
#
# _framework density 25.193252000000001
#
# number of rings (size 3 to 8) (size 9 to 14) (size 15 to 20)
#    0.000    0.000    7.143    1.714    0.000    1.143 
#    2.571    0.000    0.000    0.000    0.000    0.000 
#    0.000    0.000    0.000    0.000    0.000    0.000 
#
# Total GULP energy -78275.092093 kJ/mol
# GULP energy per Si atom -5591.078007 kJ/mol
# Density = 2.513591 g / cm^3
# Si number density = 25.193252 Si / 1000 Ang^3
#
#
#
# Elastic Constant Matrix: (Units=GPa)
#
#
# Indices 1 2 3 4 5 6 
#
# 1 140.1005 8.7793 51.3332 0.0000 18.1910 0.0000
# 2 8.7793 65.5285 51.3244 0.0000 -6.7797 0.0000
# 3 51.3332 51.3244 198.5681 0.0000 20.6530 0.0000
# 4 0.0000 0.0000 0.0000 5.0874 0.0000 1.9486
# 5 18.1910 -6.7797 20.6530 0.0000 61.7123 0.0000
# 6 0.0000 0.0000 0.0000 1.9486 0.0000 32.0962
#
#
#
# Elastic Compliance Matrix: (Units=1/GPa)
#
#
# Indices 1 2 3 4 5 6 
#
# 1 0.008065 0.000304 -0.001989 0.000000 -0.001678 0.000000
# 2 0.000304 0.020093 -0.005690 0.000000 0.004022 0.000000
# 3 -0.001989 -0.005690 0.007278 0.000000 -0.002475 0.000000
# 4 0.000000 0.000000 0.000000 0.201244 0.000000 -0.012218
# 5 -0.001678 0.004022 -0.002475 0.000000 0.017969 0.000000
# 6 0.000000 0.000000 0.000000 -0.012218 0.000000 0.031898
#
#
# Mechanical properties :
#
#
# Convention : Reuss Voigt Hill
#
# Bulk Modulus (GPa) = 48.34334 69.67453 59.00893
# Shear Modulus (GPa) = 16.22351 39.29653 27.76002
#
# Velocity S-wave (km/s) = 2.54040 3.95372 3.32306
# Velocity P-wave (km/s) = 5.27593 6.96840 6.18038
#
# Compressibility (1/GPa) = 0.02068537
#
# Stress axis : x y z
#
# Youngs Moduli (GPa) = 123.98645 49.76895 137.39288
#
# Poissons Ratio (x) = -0.01511 0.27326
# Poissons Ratio (y) = -0.03764 0.78180
# Poissons Ratio (z) = 0.24660 0.28320
#
# Static dielectric constant tensor:
#      x y z
#    x 2.123020 0.000000 -0.088590 
#    y 0.000000 2.165210 0.000000 
#    z -0.088590 0.000000 1.932540 
# 
# From -- ./inp_files/75059.got.cif
#   From: 2010.05.17/outbox.cif.g08.bks.cpg/sg15_38_cif.got.tgz:75059.got - 2010.06.03 18:47:42.
