data_PCOD9307188
_publ_section_title
;
Structure prediction by ZEFSAII (Michael W. Deem and Ramdas Pophale) SiO2 
 PCOD9307188
Probable space group: C 2/C
;
_chemical_formula_sum "Si O2"
_cell_formula_units_Z 64
_cell_length_a 32.008571
_cell_length_b 21.314296
_cell_length_c 9.635818
_cell_angle_alpha 90.000000
_cell_angle_beta 153.600970
_cell_angle_gamma 90.000000
_cell_volume 2922.906183
_symmetry_space_group_name_H-M "C 2/C"
_symmetry_group_IT_number 15
_symmetry_cell_setting 'monoclinic'
loop_
_space_group_symop_operation_xyz
x,y,z
-x,y,1/2-z
-x,-y,-z
x,-y,1/2+z
1/2+x,1/2+y,z
1/2-x,1/2+y,1/2-z
1/2-x,1/2-y,-z
1/2+x,1/2-y,1/2+z
loop_
_atom_site_type_symbol
_atom_site_label
_atom_site_fract_x
_atom_site_fract_y
_atom_site_fract_z
Si Si1 0.733316 0.952809 0.511685
Si Si2 0.600050 0.846203 0.234285
Si Si3 0.599773 0.823957 0.764076
Si Si4 0.849914 0.733363 0.365670
Si Si5 0.075144 0.108812 0.874631
Si Si6 0.245278 0.929265 0.249999
Si Si7 0.140272 0.242045 0.141006
Si Si8 0.446148 0.364774 0.731579
O O1 0.654008 0.902568 0.319942
O O2 0.748411 0.952654 0.390674
O O3 0.714139 0.019776 0.522317
O O4 0.831670 0.930559 0.872112
O O5 0.658424 0.817547 0.536639
O O6 0.591032 0.788633 0.100885
O O7 0.495187 0.859679 0.974907
O O8 0.593299 0.797227 0.591352
O O9 0.689211 0.868393 0.045573
O O10 0.618017 0.766306 0.921760
O O11 0.901189 0.795344 0.577108
O O12 0.750000 0.750000 0.000000
O O13 0.000000 0.074783 0.750000
O O14 0.022822 0.130438 0.580958
O O15 0.109273 0.170524 0.060560
O O16 0.140460 0.909790 0.984202
O O17 0.250000 0.250000 0.500000
O O18 0.500000 0.381515 0.750000
#
# Coordination Sequence:
#
# PCOD9307188 Si02
#       8
#     8   8   8   8   8   8   8   8
#     4  12  30  50  75 104 140 196 255 303 361 418
#     4  12  26  45  73 109 143 190 241 293 369 430
#     4  12  25  47  72 106 151 187 235 300 360 435
#     4  12  25  44  72 110 154 190 228 293 368 435
#     4  12  24  44  73 107 147 184 234 297 366 440
#     4  12  29  52  74 104 142 194 253 307 355 425
#     4  12  22  41  73 107 144 183 227 297 365 438
#     4  12  27  46  73 112 150 190 235 291 369 440
#
# _framework density 21.896015999999999
#
# number of rings (size 3 to 8) (size 9 to 14) (size 15 to 20)
#    0.000    0.000    5.000    5.250    5.250    1.500 
#    0.000    0.000    0.000    0.000    0.000    0.000 
#    0.000    0.000    0.000    0.000    0.000    0.000 
#
# Total GULP energy -179261.164908 kJ/mol
# GULP energy per Si atom -5601.911403 kJ/mol
# Density = 2.184618 g / cm^3
# Si number density = 21.896016 Si / 1000 Ang^3
#
#
#
# Elastic Constant Matrix: (Units=GPa)
#
#
# Indices 1 2 3 4 5 6 
#
# 1 136.9622 20.0314 21.6221 0.0000 -0.9428 0.0000
# 2 20.0314 32.5487 -21.2537 0.0000 -0.6299 0.0000
# 3 21.6221 -21.2537 90.5884 0.0000 6.8698 0.0000
# 4 0.0000 0.0000 0.0000 2.0753 0.0000 -8.7319
# 5 -0.9428 -0.6299 6.8698 0.0000 49.4387 0.0000
# 6 0.0000 0.0000 0.0000 -8.7319 0.0000 25.5791
#
#
#
# Elastic Compliance Matrix: (Units=1/GPa)
#
#
# Indices 1 2 3 4 5 6 
#
# 1 0.009201 -0.008403 -0.004217 0.000000 0.000654 0.000000
# 2 -0.008403 0.043983 0.012426 0.000000 -0.001326 0.000000
# 3 -0.004217 0.012426 0.015114 0.000000 -0.002022 0.000000
# 4 0.000000 0.000000 0.000000 -1.104447 0.000000 -0.377022
# 5 0.000654 -0.001326 -0.002022 0.000000 0.020504 0.000000
# 6 0.000000 0.000000 0.000000 -0.377022 0.000000 -0.089608
#
#
# Mechanical properties :
#
#
# Convention : Reuss Voigt Hill
#
# Bulk Modulus (GPa) = 14.72596 33.43322 24.07959
# Shear Modulus (GPa) = -4.62010 31.39858 13.38924
#
# Velocity S-wave (km/s) = -1.45417 3.79091 2.47552
# Velocity P-wave (km/s) = 1.98004 5.87057 4.38087
#
# Compressibility (1/GPa) = 0.06790729
#
# Stress axis : x y z
#
# Youngs Moduli (GPa) = 108.68843 22.73613 66.16307
#
# Poissons Ratio (x) = 0.19106 0.27903
# Poissons Ratio (y) = 0.91336 -0.82211
# Poissons Ratio (z) = 0.45837 -0.28251
#
# Static dielectric constant tensor:
#      x y z
#    x 1.600330 0.000000 -0.056420 
#    y 0.000000 1.813970 0.000000 
#    z -0.056420 0.000000 1.775660 
# 
# From -- ./inp_files/70981.got.cif
#   From: 2010.05.17/outbox.cif.g08.bks.cpg/sg15_36_cif.got.tgz:70981.got - 2010.06.03 18:47:42.
