data_PCOD9307772
_publ_section_title
;
Structure prediction by ZEFSAII (Michael W. Deem and Ramdas Pophale) SiO2 
 PCOD9307772
Probable space group: C 2/C
;
_chemical_formula_sum "Si O2"
_cell_formula_units_Z 36
_cell_length_a 7.974692
_cell_length_b 17.423935
_cell_length_c 12.811916
_cell_angle_alpha 90.000000
_cell_angle_beta 95.743131
_cell_angle_gamma 90.000000
_cell_volume 1771.286541
_symmetry_space_group_name_H-M "C 2/C"
_symmetry_group_IT_number 15
_symmetry_cell_setting 'monoclinic'
loop_
_space_group_symop_operation_xyz
x,y,z
-x,y,1/2-z
-x,-y,-z
x,-y,1/2+z
1/2+x,1/2+y,z
1/2-x,1/2+y,1/2-z
1/2-x,1/2-y,-z
1/2+x,1/2-y,1/2+z
loop_
_atom_site_type_symbol
_atom_site_label
_atom_site_fract_x
_atom_site_fract_y
_atom_site_fract_z
Si Si1 0.500000 0.333625 0.250000
Si Si2 0.362019 0.211298 0.094910
Si Si3 0.699251 0.596197 0.247310
Si Si4 0.096904 0.580407 0.025978
Si Si5 0.691065 0.069559 0.806138
O O1 0.478834 0.277191 0.150784
O O2 0.667940 0.384926 0.250176
O O3 0.267150 0.169224 0.186189
O O4 0.462684 0.145114 0.043117
O O5 0.250000 0.250000 0.000000
O O6 0.500000 0.601140 0.250000
O O7 0.783890 0.582504 0.365561
O O8 0.755062 0.519540 0.189620
O O9 0.191919 0.598361 0.924781
O O10 0.000000 0.500000 0.000000
O O11 0.500000 0.076606 0.750000
#
# Coordination Sequence:
#
# PCOD9307772 Si02
#       5
#     4   8   8   8   8
#     4  12  28  48  72 114 154 184 250 318 376 444
#     4  12  27  49  72 108 154 193 244 316 377 437
#     4  12  26  47  75 114 150 197 255 306 373 457
#     4  12  24  47  79 103 147 201 249 308 374 445
#     4  12  25  46  78 110 145 197 258 302 371 455
#
# _framework density 20.324210000000001
#
# number of rings (size 3 to 8) (size 9 to 14) (size 15 to 20)
#    0.000    0.000    7.778    1.333    3.111    4.444 
#    0.000    0.000    0.000    0.000    0.000    0.000 
#    0.000    0.000    0.000    0.000    0.000    0.000 
#
# Total GULP energy -100646.902219 kJ/mol
# GULP energy per Si atom -5591.494568 kJ/mol
# Density = 2.027795 g / cm^3
# Si number density = 20.324210 Si / 1000 Ang^3
#
#
#
# Elastic Constant Matrix: (Units=GPa)
#
#
# Indices 1 2 3 4 5 6 
#
# 1 127.3592 53.3524 26.4459 0.0000 -2.1906 0.0000
# 2 53.3524 87.2761 11.9748 0.0000 7.5322 0.0000
# 3 26.4459 11.9748 104.0765 0.0000 1.6576 0.0000
# 4 0.0000 0.0000 0.0000 45.1911 0.0000 -3.7590
# 5 -2.1906 7.5322 1.6576 0.0000 39.1021 0.0000
# 6 0.0000 0.0000 0.0000 -3.7590 0.0000 31.1204
#
#
#
# Elastic Compliance Matrix: (Units=1/GPa)
#
#
# Indices 1 2 3 4 5 6 
#
# 1 0.011120 -0.006683 -0.002088 0.000000 0.001999 0.000000
# 2 -0.006683 0.015849 -0.000071 0.000000 -0.003424 0.000000
# 3 -0.002088 -0.000071 0.010156 0.000000 -0.000534 0.000000
# 4 0.000000 0.000000 0.000000 0.022353 0.000000 0.002700
# 5 0.001999 -0.003424 -0.000534 0.000000 0.026368 0.000000
# 6 0.000000 0.000000 0.000000 0.002700 0.000000 0.032459
#
#
# Mechanical properties :
#
#
# Convention : Reuss Voigt Hill
#
# Bulk Modulus (GPa) = 51.44315 55.80645 53.62480
# Shear Modulus (GPa) = 35.09528 38.21196 36.65362
#
# Velocity S-wave (km/s) = 4.15995 4.34074 4.25131
# Velocity P-wave (km/s) = 6.95987 7.25537 7.10916
#
# Compressibility (1/GPa) = 0.01943893
#
# Stress axis : x y z
#
# Youngs Moduli (GPa) = 89.93105 63.09629 98.46774
#
# Poissons Ratio (x) = 0.42170 0.20564
# Poissons Ratio (y) = 0.60105 0.00696
# Poissons Ratio (z) = 0.18781 0.00446
#
# Static dielectric constant tensor:
#      x y z
#    x 1.747660 0.000000 0.043110 
#    y 0.000000 1.721330 0.000000 
#    z 0.043110 0.000000 1.844400 
# 
# From -- ./inp_files/76459.got.cif
#   From: 2010.05.17/outbox.cif.g08.bks.cpg/sg15_39_cif.got.tgz:76459.got - 2010.06.03 18:47:42.
