data_PCOD9307382
_publ_section_title
;
Structure prediction by ZEFSAII (Michael W. Deem and Ramdas Pophale) SiO2 
 PCOD9307382
Probable space group: C 2/C
;
_chemical_formula_sum "Si O2"
_cell_formula_units_Z 52
_cell_length_a 32.438282
_cell_length_b 5.020136
_cell_length_c 15.604997
_cell_angle_alpha 90.000000
_cell_angle_beta 119.358405
_cell_angle_gamma 90.000000
_cell_volume 2214.824260
_symmetry_space_group_name_H-M "C 2/C"
_symmetry_group_IT_number 15
_symmetry_cell_setting 'monoclinic'
loop_
_space_group_symop_operation_xyz
x,y,z
-x,y,1/2-z
-x,-y,-z
x,-y,1/2+z
1/2+x,1/2+y,z
1/2-x,1/2+y,1/2-z
1/2-x,1/2-y,-z
1/2+x,1/2-y,1/2+z
loop_
_atom_site_type_symbol
_atom_site_label
_atom_site_fract_x
_atom_site_fract_y
_atom_site_fract_z
Si Si1 0.169747 0.887842 0.583437
Si Si2 0.759326 0.499479 0.570910
Si Si3 0.368957 0.030824 0.213009
Si Si4 0.603306 0.471225 0.856628
Si Si5 0.122302 0.364452 0.595343
Si Si6 0.500000 0.614211 0.250000
Si Si7 0.015171 0.745104 0.956902
O O1 0.155723 0.580649 0.582654
O O2 0.223122 0.956015 0.612199
O O3 0.137908 0.977144 0.470327
O O4 0.151799 0.092075 0.637609
O O5 0.750000 0.750000 0.500000
O O6 0.812954 0.516447 0.656728
O O7 0.750000 0.250000 0.500000
O O8 0.378250 0.333944 0.197644
O O9 0.389644 0.992714 0.327736
O O10 0.391714 0.833034 0.167491
O O11 0.548607 0.544054 0.814217
O O12 0.072054 0.285222 0.503662
O O13 0.505270 0.753843 0.161414
O O14 0.000000 0.500000 0.000000
O O15 0.000000 0.000000 0.000000
#
# Coordination Sequence:
#
# PCOD9307382 Si02
#       7
#     8   8   8   8   8   4   8
#     4  12  24  44  70  99 140 181 230 295 354 426
#     4  12  23  42  71 102 135 181 238 293 351 436
#     4  12  25  46  72 102 140 186 233 299 363 433
#     4  12  25  45  72 103 135 188 243 283 358 433
#     4  12  26  45  68 102 148 177 231 304 362 423
#     4  12  28  46  80 104 148 200 246 302 376 436
#     4  12  27  48  71 107 144 191 249 303 362 439
#
# _framework density 23.478161
#
# number of rings (size 3 to 8) (size 9 to 14) (size 15 to 20)
#    0.000    0.000    4.615    5.538    0.000    2.462 
#    0.000    0.000    0.000    0.000    0.000    0.000 
#    0.000    0.000    0.000    0.000    0.000    0.000 
#
# Total GULP energy -145420.985567 kJ/mol
# GULP energy per Si atom -5593.114829 kJ/mol
# Density = 2.342472 g / cm^3
# Si number density = 23.478161 Si / 1000 Ang^3
#
#
#
# Elastic Constant Matrix: (Units=GPa)
#
#
# Indices 1 2 3 4 5 6 
#
# 1 125.3447 15.1491 1.1163 0.0000 15.2113 0.0000
# 2 15.1491 130.5519 4.8016 0.0000 -11.4487 0.0001
# 3 1.1163 4.8016 94.4814 0.0000 -6.1927 0.0000
# 4 0.0000 0.0000 0.0000 17.7712 0.0000 -7.1179
# 5 15.2113 -11.4487 -6.1927 0.0000 47.4783 0.0000
# 6 0.0000 0.0001 0.0000 -7.1179 0.0000 40.7253
#
#
#
# Elastic Compliance Matrix: (Units=1/GPa)
#
#
# Indices 1 2 3 4 5 6 
#
# 1 0.008501 -0.001246 -0.000237 0.000000 -0.003055 0.000000
# 2 -0.001246 0.008015 -0.000242 0.000000 0.002300 0.000000
# 3 -0.000237 -0.000242 0.010692 0.000000 0.001412 0.000000
# 4 0.000000 0.000000 0.000000 0.060507 0.000000 0.010575
# 5 -0.003055 0.002300 0.001412 0.000000 0.022780 0.000000
# 6 0.000000 0.000000 0.000000 0.010575 0.000000 0.026403
#
#
# Mechanical properties :
#
#
# Convention : Reuss Voigt Hill
#
# Bulk Modulus (GPa) = 42.09050 43.61244 42.85147
# Shear Modulus (GPa) = 33.72297 43.14904 38.43600
#
# Velocity S-wave (km/s) = 3.79404 4.29165 4.05049
# Velocity P-wave (km/s) = 6.09585 6.57067 6.33771
#
# Compressibility (1/GPa) = 0.02375833
#
# Stress axis : x y z
#
# Youngs Moduli (GPa) = 117.62744 124.76684 93.53003
#
# Poissons Ratio (x) = 0.15542 0.02220
# Poissons Ratio (y) = 0.14653 0.02262
# Poissons Ratio (z) = 0.02792 0.03017
#
# Static dielectric constant tensor:
#      x y z
#    x 2.984090 0.000000 -0.035490 
#    y 0.000000 1.978210 0.000000 
#    z -0.035490 0.000000 1.924930 
# 
# From -- ./inp_files/180173.got.cif
#   From: 2010.05.17/outbox.cif.g08.bks.cpg/sg15_91_cif.got.tgz:180173.got - 2010.06.03 18:47:42.
