data_PCOD9307226
_publ_section_title
;
Structure prediction by ZEFSAII (Michael W. Deem and Ramdas Pophale) SiO2 
 PCOD9307226
Probable space group: C 2/C
;
_chemical_formula_sum "Si O2"
_cell_formula_units_Z 56
_cell_length_a 24.677102
_cell_length_b 18.307073
_cell_length_c 7.810458
_cell_angle_alpha 90.000000
_cell_angle_beta 46.953734
_cell_angle_gamma 90.000000
_cell_volume 2578.634245
_symmetry_space_group_name_H-M "C 2/C"
_symmetry_group_IT_number 15
_symmetry_cell_setting 'monoclinic'
loop_
_space_group_symop_operation_xyz
x,y,z
-x,y,1/2-z
-x,-y,-z
x,-y,1/2+z
1/2+x,1/2+y,z
1/2-x,1/2+y,1/2-z
1/2-x,1/2-y,-z
1/2+x,1/2-y,1/2+z
loop_
_atom_site_type_symbol
_atom_site_label
_atom_site_fract_x
_atom_site_fract_y
_atom_site_fract_z
Si Si1 0.353030 0.824739 0.318648
Si Si2 0.350656 0.914152 0.983787
Si Si3 0.586144 0.065517 0.524566
Si Si4 0.445157 0.301004 0.497959
Si Si5 0.205742 0.044204 0.601337
Si Si6 0.534058 0.575672 0.993834
Si Si7 0.204396 0.114401 0.237805
O O1 0.384319 0.880937 0.391576
O O2 0.403281 0.752756 0.218494
O O3 0.265671 0.826484 0.551744
O O4 0.358910 0.851849 0.108704
O O5 0.397437 0.908152 0.705334
O O6 0.374862 0.987669 0.029995
O O7 0.266678 0.924245 0.098876
O O8 0.500000 0.055561 0.750000
O O9 0.503222 0.358863 0.447536
O O10 0.375957 0.348753 0.577520
O O11 0.500000 0.258337 0.250000
O O12 0.223163 0.077911 0.379091
O O13 0.206627 0.955792 0.606857
O O14 0.121923 0.067859 0.820169
O O15 0.500000 0.588937 0.250000
O O16 0.500000 0.500000 0.000000
#
# Coordination Sequence:
#
# PCOD9307226 Si02
#       7
#     8   8   8   8   8   8   8
#     4  12  28  47  73 103 154 205 238 306 382 454
#     4  12  24  45  73 110 142 187 248 311 373 440
#     4  12  25  42  73 109 140 188 255 311 367 437
#     4  12  28  49  70 104 153 201 247 303 387 447
#     4  12  22  42  78 110 143 183 256 316 363 443
#     4  12  25  44  76 110 146 194 252 318 372 434
#     4  12  23  45  73 110 147 192 247 314 373 448
#
# _framework density 21.716923000000001
#
# number of rings (size 3 to 8) (size 9 to 14) (size 15 to 20)
#    0.000    0.000    7.143    3.000    4.000    0.571 
#    0.000    0.714    0.000    0.000    0.000    0.000 
#    0.000    0.000    0.000    0.000    0.000    0.000 
#
# Total GULP energy -156573.895073 kJ/mol
# GULP energy per Si atom -5591.924824 kJ/mol
# Density = 2.166749 g / cm^3
# Si number density = 21.716923 Si / 1000 Ang^3
#
#
#
# Elastic Constant Matrix: (Units=GPa)
#
#
# Indices 1 2 3 4 5 6 
#
# 1 60.5032 1.2382 45.8030 0.0000 -8.6597 0.0000
# 2 1.2382 51.5667 24.0202 0.0000 -13.4251 0.0000
# 3 45.8030 24.0202 151.3241 0.0000 -11.8243 0.0000
# 4 0.0000 0.0000 0.0000 31.6935 0.0000 -9.8539
# 5 -8.6597 -13.4251 -11.8243 0.0000 52.0008 0.0000
# 6 0.0000 0.0000 0.0000 -9.8539 0.0000 18.1700
#
#
#
# Elastic Compliance Matrix: (Units=1/GPa)
#
#
# Indices 1 2 3 4 5 6 
#
# 1 0.022226 0.003536 -0.007053 0.000000 0.003010 0.000000
# 2 0.003536 0.022714 -0.004247 0.000000 0.005487 0.000000
# 3 -0.007053 -0.004247 0.009407 0.000000 -0.000132 0.000000
# 4 0.000000 0.000000 0.000000 0.037951 0.000000 0.020582
# 5 0.003010 0.005487 -0.000132 0.000000 0.021118 0.000000
# 6 0.000000 0.000000 0.000000 0.020582 0.000000 0.066198
#
#
# Mechanical properties :
#
#
# Convention : Reuss Voigt Hill
#
# Bulk Modulus (GPa) = 25.76117 45.05742 35.40930
# Shear Modulus (GPa) = 24.02877 33.19503 28.61190
#
# Velocity S-wave (km/s) = 3.32995 3.91389 3.63367
# Velocity P-wave (km/s) = 5.16457 6.42007 5.82624
#
# Compressibility (1/GPa) = 0.03881811
#
# Stress axis : x y z
#
# Youngs Moduli (GPa) = 44.99180 44.02510 106.30260
#
# Poissons Ratio (x) = -0.15566 0.74980
# Poissons Ratio (y) = -0.15907 0.45146
# Poissons Ratio (z) = 0.31735 0.18697
#
# Static dielectric constant tensor:
#      x y z
#    x 1.766810 0.000000 -0.021980 
#    y 0.000000 1.765320 0.000000 
#    z -0.021980 0.000000 1.804820 
# 
# From -- ./inp_files/67107.got.cif
#   From: 2010.05.17/outbox.cif.g08.bks.cpg/sg15_34_cif.got.tgz:67107.got - 2010.06.03 18:47:42.
