data_PCOD9307745
_publ_section_title
;
Structure prediction by ZEFSAII (Michael W. Deem and Ramdas Pophale) SiO2 
 PCOD9307745
Probable space group: C 2/C
;
_chemical_formula_sum "Si O2"
_cell_formula_units_Z 40
_cell_length_a 15.137435
_cell_length_b 23.293408
_cell_length_c 7.731427
_cell_angle_alpha 90.000000
_cell_angle_beta 36.841817
_cell_angle_gamma 90.000000
_cell_volume 1634.603006
_symmetry_space_group_name_H-M "C 2/C"
_symmetry_group_IT_number 15
_symmetry_cell_setting 'monoclinic'
loop_
_space_group_symop_operation_xyz
x,y,z
-x,y,1/2-z
-x,-y,-z
x,-y,1/2+z
1/2+x,1/2+y,z
1/2-x,1/2+y,1/2-z
1/2-x,1/2-y,-z
1/2+x,1/2-y,1/2+z
loop_
_atom_site_type_symbol
_atom_site_label
_atom_site_fract_x
_atom_site_fract_y
_atom_site_fract_z
Si Si1 0.000000 0.635961 0.750000
Si Si2 0.000000 0.872548 0.250000
Si Si3 0.909493 0.280796 0.074488
Si Si4 0.656104 0.559447 0.939343
Si Si5 0.881764 0.813919 0.147144
Si Si6 0.756328 0.058274 0.330256
O O1 0.119589 0.593664 0.473079
O O2 0.936356 0.674455 0.690215
O O3 0.124651 0.831715 0.140512
O O4 0.905740 0.913085 0.523631
O O5 0.000000 0.292414 0.750000
O O6 0.968314 0.222388 0.073900
O O7 0.744119 0.280391 0.257588
O O8 0.500000 0.535309 0.250000
O O9 0.755692 0.568165 0.948493
O O10 0.623060 0.622391 0.921643
O O11 0.730801 0.510136 0.710381
#
# Coordination Sequence:
#
# PCOD9307745 Si02
#       6
#     4   4   8   8   8   8
#     4  12  30  50  81 117 168 210 254 332 410 472
#     4  12  24  46  83 113 158 202 270 326 396 472
#     4  12  28  51  78 117 161 211 268 325 402 477
#     4  12  24  47  76 112 150 202 270 323 388 474
#     4  12  27  47  79 115 155 209 264 332 394 474
#     4  12  26  48  76 117 154 206 264 327 397 476
#
# _framework density 24.470775
#
# number of rings (size 3 to 8) (size 9 to 14) (size 15 to 20)
#    0.000    0.000    6.000    3.600    4.200    1.600 
#    1.800    0.000    0.000    0.000    0.000    0.000 
#    0.000    0.000    0.000    0.000    0.000    0.000 
#
# Total GULP energy -111550.777343 kJ/mol
# GULP energy per Si atom -5577.538867 kJ/mol
# Density = 2.441508 g / cm^3
# Si number density = 24.470775 Si / 1000 Ang^3
#
#
#
# Elastic Constant Matrix: (Units=GPa)
#
#
# Indices 1 2 3 4 5 6 
#
# 1 174.9881 79.4003 31.5016 0.0000 -19.0739 0.0000
# 2 79.4003 206.7294 44.1158 0.0000 -8.5672 0.0000
# 3 31.5016 44.1158 67.4111 0.0000 -0.5009 0.0000
# 4 0.0000 0.0000 0.0000 37.6701 0.0000 -8.5133
# 5 -19.0739 -8.5672 -0.5009 0.0000 27.9581 0.0000
# 6 0.0000 0.0000 0.0000 -8.5133 0.0000 38.1263
#
#
#
# Elastic Compliance Matrix: (Units=1/GPa)
#
#
# Indices 1 2 3 4 5 6 
#
# 1 0.007609 -0.002309 -0.002012 0.000000 0.004448 0.000000
# 2 -0.002309 0.006401 -0.003107 0.000000 0.000331 0.000000
# 3 -0.002012 -0.003107 0.017793 0.000000 -0.002006 0.000000
# 4 0.000000 0.000000 0.000000 0.027957 0.000000 0.006243
# 5 0.004448 0.000331 -0.002006 0.000000 0.038867 0.000000
# 6 0.000000 0.000000 0.000000 0.006243 0.000000 0.027623
#
#
# Mechanical properties :
#
#
# Convention : Reuss Voigt Hill
#
# Bulk Modulus (GPa) = 59.00764 84.35157 71.67960
# Shear Modulus (GPa) = 34.07018 40.35830 37.21424
#
# Velocity S-wave (km/s) = 3.73538 4.06550 3.90393
# Velocity P-wave (km/s) = 6.53987 7.52216 7.04815
#
# Compressibility (1/GPa) = 0.01694696
#
# Stress axis : x y z
#
# Youngs Moduli (GPa) = 131.41780 156.22830 56.20123
#
# Poissons Ratio (x) = 0.36072 0.11307
# Poissons Ratio (y) = 0.30344 0.17465
# Poissons Ratio (z) = 0.26439 0.48548
#
# Static dielectric constant tensor:
#      x y z
#    x 2.107320 0.000000 0.031440 
#    y 0.000000 2.015180 0.000000 
#    z 0.031440 0.000000 1.988660 
# 
# From -- ./inp_files/41982.got.cif
#   From: 2010.05.17/outbox.cif.g08.bks.cpg/sg15_21_cif.got.tgz:41982.got - 2010.06.03 18:47:42.
