data_PCOD9307322
_publ_section_title
;
Structure prediction by ZEFSAII (Michael W. Deem and Ramdas Pophale) SiO2 
 PCOD9307322
Probable space group: C 2/C
;
_chemical_formula_sum "Si O2"
_cell_formula_units_Z 40
_cell_length_a 5.303893
_cell_length_b 15.891483
_cell_length_c 22.059449
_cell_angle_alpha 90.000000
_cell_angle_beta 110.195814
_cell_angle_gamma 90.000000
_cell_volume 1745.004548
_symmetry_space_group_name_H-M "C 2/C"
_symmetry_group_IT_number 15
_symmetry_cell_setting 'monoclinic'
loop_
_space_group_symop_operation_xyz
x,y,z
-x,y,1/2-z
-x,-y,-z
x,-y,1/2+z
1/2+x,1/2+y,z
1/2-x,1/2+y,1/2-z
1/2-x,1/2-y,-z
1/2+x,1/2-y,1/2+z
loop_
_atom_site_type_symbol
_atom_site_label
_atom_site_fract_x
_atom_site_fract_y
_atom_site_fract_z
Si Si1 0.500000 0.000000 0.500000
Si Si2 0.310098 0.928460 0.859271
Si Si3 0.000000 0.639752 0.750000
Si Si4 0.458394 0.204251 0.972020
Si Si5 0.504939 0.264142 0.654811
Si Si6 0.500000 0.464724 0.250000
Si Si7 0.500000 0.141453 0.250000
O O1 0.536889 0.977767 0.575813
O O2 0.473389 0.896145 0.483758
O O3 0.463781 0.910231 0.809132
O O4 0.201047 0.839595 0.874718
O O5 0.052144 0.979568 0.813899
O O6 0.870967 0.693368 0.684796
O O7 0.235798 0.588401 0.738716
O O8 0.374985 0.225714 0.896088
O O9 0.250000 0.250000 0.000000
O O10 0.750000 0.250000 0.000000
O O11 0.740698 0.301720 0.716251
#
# Coordination Sequence:
#
# PCOD9307322 Si02
#       7
#     4   8   4   8   8   4   4
#     4  12  28  54  80 120 172 220 276 340 428 494
#     4  12  25  48  78 115 158 219 271 349 408 504
#     4  12  26  44  75 117 154 202 264 346 402 476
#     4  12  29  54  80 115 164 217 272 334 413 500
#     4  12  25  47  80 109 158 209 273 340 416 482
#     4  12  26  46  73 121 160 204 276 328 404 496
#     4  12  22  48  82 114 162 212 280 350 414 482
#
# _framework density 22.922575999999999
#
# number of rings (size 3 to 8) (size 9 to 14) (size 15 to 20)
#    0.000    0.000    6.000    3.600    0.000    2.400 
#    7.200    0.000    0.000    0.000    0.000    0.000 
#    0.000    0.000    0.000    0.000    0.000    0.000 
#
# Total GULP energy -111363.625196 kJ/mol
# GULP energy per Si atom -5568.181260 kJ/mol
# Density = 2.287040 g / cm^3
# Si number density = 22.922576 Si / 1000 Ang^3
#
#
#
# Elastic Constant Matrix: (Units=GPa)
#
#
# Indices 1 2 3 4 5 6 
#
# 1 99.3555 57.6573 37.8546 0.0000 -15.9143 0.0000
# 2 57.6573 192.5446 65.6254 0.0000 -26.4785 0.0000
# 3 37.8546 65.6254 172.8096 0.0000 -46.0990 0.0000
# 4 0.0000 0.0000 0.0000 48.1779 0.0000 -7.7701
# 5 -15.9143 -26.4785 -46.0990 0.0000 32.9595 0.0000
# 6 0.0000 0.0000 0.0000 -7.7701 0.0000 33.2466
#
#
#
# Elastic Compliance Matrix: (Units=1/GPa)
#
#
# Indices 1 2 3 4 5 6 
#
# 1 0.012613 -0.003140 -0.000987 0.000000 0.002187 0.000000
# 2 -0.003140 0.006889 -0.001366 0.000000 0.002108 0.000000
# 3 -0.000987 -0.001366 0.009733 0.000000 0.012040 0.000000
# 4 0.000000 0.000000 0.000000 0.021569 0.000000 0.005041
# 5 0.002187 0.002108 0.012040 0.000000 0.049929 0.000000
# 6 0.000000 0.000000 0.000000 0.005041 0.000000 0.031256
#
#
# Mechanical properties :
#
#
# Convention : Reuss Voigt Hill
#
# Bulk Modulus (GPa) = 54.79530 87.44269 71.11899
# Shear Modulus (GPa) = 33.54342 43.11498 38.32920
#
# Velocity S-wave (km/s) = 3.82951 4.34163 4.09359
# Velocity P-wave (km/s) = 6.59620 7.96008 7.31002
#
# Compressibility (1/GPa) = 0.01824974
#
# Stress axis : x y z
#
# Youngs Moduli (GPa) = 79.28083 145.15229 102.73807
#
# Poissons Ratio (x) = 0.45575 0.10142
# Poissons Ratio (y) = 0.24893 0.14036
# Poissons Ratio (z) = 0.07827 0.19831
#
# Static dielectric constant tensor:
#      x y z
#    x 1.880480 0.000000 0.017490 
#    y 0.000000 1.935800 0.000000 
#    z 0.017490 0.000000 1.854400 
# 
# From -- ./inp_files/226846.got.cif
#   From: 2010.05.17/outbox.cif.g08.bks.cpg/sg15_114_cif.got.tgz:226846.got - 2010.06.03 18:47:42.
