data_PCOD9307340
_publ_section_title
;
Structure prediction by ZEFSAII (Michael W. Deem and Ramdas Pophale) SiO2 
 PCOD9307340
Probable space group: C 2/C
;
_chemical_formula_sum "Si O2"
_cell_formula_units_Z 60
_cell_length_a 15.025723
_cell_length_b 19.351023
_cell_length_c 16.656663
_cell_angle_alpha 90.000000
_cell_angle_beta 145.201310
_cell_angle_gamma 90.000000
_cell_volume 2763.956582
_symmetry_space_group_name_H-M "C 2/C"
_symmetry_group_IT_number 15
_symmetry_cell_setting 'monoclinic'
loop_
_space_group_symop_operation_xyz
x,y,z
-x,y,1/2-z
-x,-y,-z
x,-y,1/2+z
1/2+x,1/2+y,z
1/2-x,1/2+y,1/2-z
1/2-x,1/2-y,-z
1/2+x,1/2-y,1/2+z
loop_
_atom_site_type_symbol
_atom_site_label
_atom_site_fract_x
_atom_site_fract_y
_atom_site_fract_z
Si Si1 0.860369 0.795570 0.341160
Si Si2 0.591533 0.209071 0.399968
Si Si3 0.597678 0.409774 0.701613
Si Si4 0.059899 0.060998 0.661961
Si Si5 0.749538 0.565919 0.970532
Si Si6 0.000000 0.691463 0.750000
Si Si7 0.949033 0.764680 0.879393
Si Si8 0.753511 0.588270 0.486040
O O1 0.890006 0.876804 0.357161
O O2 0.684888 0.782944 0.182934
O O3 0.983850 0.753181 0.379919
O O4 0.891167 0.766470 0.453196
O O5 0.500000 0.206495 0.250000
O O6 0.750000 0.250000 0.500000
O O7 0.635911 0.130281 0.453142
O O8 0.602065 0.484333 0.662715
O O9 0.616512 0.342240 0.662840
O O10 0.420573 0.408870 0.605398
O O11 0.718165 0.401430 0.864982
O O12 0.153729 0.063712 0.815988
O O13 0.880812 0.073626 0.555961
O O14 0.819026 0.489991 0.038335
O O15 0.033635 0.740511 0.698994
O O16 0.862990 0.641815 0.613857
#
# Coordination Sequence:
#
# PCOD9307340 Si02
#       8
#     8   8   8   8   8   4   8   8
#     4  12  25  40  60  96 128 161 206 260 302 377
#     4  12  23  38  64  92 128 167 200 242 307 376
#     4   9  19  39  62  88 116 166 206 260 306 369
#     4   9  18  37  64  87 127 160 206 249 306 371
#     4   9  18  35  62  95 122 163 202 248 299 380
#     4  12  24  42  64  88 124 168 206 274 324 362
#     4  12  26  41  63  90 125 160 219 265 315 359
#     4   9  19  36  64  92 118 154 218 255 304 373
#
# _framework density 21.708010000000002
#
# number of rings (size 3 to 8) (size 9 to 14) (size 15 to 20)
#    0.000    1.600    1.333    6.400    0.933    2.133 
#    0.000    1.333    0.000    4.800    0.000    0.000 
#    0.000    0.000    0.000    0.000    0.000    0.000 
#
# Total GULP energy -167516.304394 kJ/mol
# GULP energy per Si atom -5583.876813 kJ/mol
# Density = 2.165860 g / cm^3
# Si number density = 21.708010 Si / 1000 Ang^3
#
#
#
# Elastic Constant Matrix: (Units=GPa)
#
#
# Indices 1 2 3 4 5 6 
#
# 1 26.4725 15.4388 -1.1970 -0.0008 -3.1156 -0.0009
# 2 15.4388 147.2883 34.4383 -0.0005 -2.2399 -0.0008
# 3 -1.1970 34.4383 85.1494 -0.0027 -6.0299 -0.0024
# 4 -0.0008 -0.0005 -0.0027 26.8864 -0.0015 -1.2400
# 5 -3.1156 -2.2399 -6.0299 -0.0015 16.2974 -0.0009
# 6 -0.0009 -0.0008 -0.0024 -1.2400 -0.0009 28.5241
#
#
#
# Elastic Compliance Matrix: (Units=1/GPa)
#
#
# Indices 1 2 3 4 5 6 
#
# 1 0.041842 -0.005009 0.003216 0.000002 0.008501 0.000002
# 2 -0.005009 0.008098 -0.003424 0.000000 -0.001111 0.000000
# 3 0.003216 -0.003424 0.013539 0.000002 0.005154 0.000001
# 4 0.000002 0.000000 0.000002 0.037268 0.000004 0.001620
# 5 0.008501 -0.001111 0.005154 0.000004 0.064739 0.000003
# 6 0.000002 0.000000 0.000001 0.001620 0.000003 0.035128
#
#
# Mechanical properties :
#
#
# Convention : Reuss Voigt Hill
#
# Bulk Modulus (GPa) = 18.85190 39.58562 29.21876
# Shear Modulus (GPa) = 21.85980 28.35692 25.10836
#
# Velocity S-wave (km/s) = 3.17676 3.61818 3.40463
# Velocity P-wave (km/s) = 4.70732 5.97746 5.38001
#
# Compressibility (1/GPa) = 0.05304504
#
# Stress axis : x y z
#
# Youngs Moduli (GPa) = 23.89954 123.48464 73.85955
#
# Poissons Ratio (x) = 0.61848 -0.23752
# Poissons Ratio (y) = 0.11970 0.25292
# Poissons Ratio (z) = -0.07686 0.42286
#
# Static dielectric constant tensor:
#      x y z
#    x 1.773790 0.000000 -0.020900 
#    y 0.000000 1.847220 0.000000 
#    z -0.020900 0.000000 1.801690 
# 
# From -- ./inp_files/211767.got.cif
#   From: 2010.05.17/outbox.cif.g08.bks.cpg/sg15_106_cif.got.tgz:211767.got - 2010.06.03 18:47:42.
