data_PCOD9307333
_publ_section_title
;
Structure prediction by ZEFSAII (Michael W. Deem and Ramdas Pophale) SiO2 
 PCOD9307333
Probable space group: C 2/C
;
_chemical_formula_sum "Si O2"
_cell_formula_units_Z 48
_cell_length_a 18.212525
_cell_length_b 12.950397
_cell_length_c 17.031198
_cell_angle_alpha 90.000000
_cell_angle_beta 144.837230
_cell_angle_gamma 90.000000
_cell_volume 2313.377160
_symmetry_space_group_name_H-M "C 2/C"
_symmetry_group_IT_number 15
_symmetry_cell_setting 'monoclinic'
loop_
_space_group_symop_operation_xyz
x,y,z
-x,y,1/2-z
-x,-y,-z
x,-y,1/2+z
1/2+x,1/2+y,z
1/2-x,1/2+y,1/2-z
1/2-x,1/2-y,-z
1/2+x,1/2-y,1/2+z
loop_
_atom_site_type_symbol
_atom_site_label
_atom_site_fract_x
_atom_site_fract_y
_atom_site_fract_z
Si Si1 0.327367 0.659223 0.339473
Si Si2 0.950628 0.459868 0.541217
Si Si3 0.569580 0.250960 0.104365
Si Si4 0.500000 0.979918 0.750000
Si Si5 0.235611 0.856153 0.532173
Si Si6 0.654953 0.531787 0.746601
Si Si7 0.000000 0.977658 0.250000
O O1 0.460034 0.719304 0.446730
O O2 0.205540 0.711299 0.191384
O O3 0.293567 0.662173 0.401992
O O4 0.340962 0.541341 0.325286
O O5 0.798620 0.453898 0.401852
O O6 0.000000 0.500000 0.500000
O O7 0.010215 0.344750 0.601130
O O8 0.990976 0.525855 0.653275
O O9 0.597833 0.355590 0.177564
O O10 0.367457 0.917287 0.637618
O O11 0.250000 0.750000 0.500000
O O12 0.115657 0.913221 0.388651
O O13 0.569479 0.472168 0.736289
#
# Coordination Sequence:
#
# PCOD9307333 Si02
#       7
#     8   8   8   4   8   8   4
#     4  12  25  42  66  97 134 172 221 273 338 410
#     4  12  24  42  65  98 138 176 224 282 340 403
#     4  12  23  39  68  98 128 178 218 277 337 403
#     4  12  23  36  62  93 132 174 216 263 342 401
#     4  12  23  36  59  96 133 167 207 269 342 403
#     4  12  25  43  64  99 137 177 224 274 336 403
#     4  12  25  36  62  89 136 176 214 275 324 397
#
# _framework density 20.748885999999999
#
# number of rings (size 3 to 8) (size 9 to 14) (size 15 to 20)
#    0.000    0.000    8.333    3.000    0.000    0.000 
#    0.000    0.000    0.000    2.000    0.000    0.000 
#    0.000    0.000    0.000    0.000    0.000    0.000 
#
# Total GULP energy -133992.751022 kJ/mol
# GULP energy per Si atom -5583.031293 kJ/mol
# Density = 2.070166 g / cm^3
# Si number density = 20.748886 Si / 1000 Ang^3
#
#
#
# Elastic Constant Matrix: (Units=GPa)
#
#
# Indices 1 2 3 4 5 6 
#
# 1 120.4900 30.6191 41.2289 0.0000 -5.8864 0.0000
# 2 30.6191 46.1942 19.7531 0.0000 -9.3086 0.0000
# 3 41.2289 19.7531 141.8305 0.0000 31.1109 0.0000
# 4 0.0000 0.0000 0.0000 26.4672 0.0000 2.7254
# 5 -5.8864 -9.3086 31.1109 0.0000 48.3019 0.0000
# 6 0.0000 0.0000 0.0000 2.7254 0.0000 14.9317
#
#
#
# Elastic Compliance Matrix: (Units=1/GPa)
#
#
# Indices 1 2 3 4 5 6 
#
# 1 0.010765 -0.005517 -0.002813 0.000000 0.002060 0.000000
# 2 -0.005517 0.028497 -0.003985 0.000000 0.007386 0.000000
# 3 -0.002813 -0.003985 0.010093 0.000000 -0.007612 0.000000
# 4 0.000000 0.000000 0.000000 0.038506 0.000000 -0.007028
# 5 0.002060 0.007386 -0.007612 0.000000 0.027280 0.000000
# 6 0.000000 0.000000 0.000000 -0.007028 0.000000 0.068254
#
#
# Mechanical properties :
#
#
# Convention : Reuss Voigt Hill
#
# Bulk Modulus (GPa) = 40.44589 54.63522 47.54055
# Shear Modulus (GPa) = 23.11947 32.40106 27.76027
#
# Velocity S-wave (km/s) = 3.34166 3.95597 3.66172
# Velocity P-wave (km/s) = 5.86722 6.87423 6.39059
#
# Compressibility (1/GPa) = 0.02472439
#
# Stress axis : x y z
#
# Youngs Moduli (GPa) = 92.89724 35.09099 99.07896
#
# Poissons Ratio (x) = 0.19361 0.27868
# Poissons Ratio (y) = 0.51254 0.39486
# Poissons Ratio (z) = 0.26129 0.13985
#
# Static dielectric constant tensor:
#      x y z
#    x 1.797160 0.000000 -0.024810 
#    y 0.000000 1.738520 0.000000 
#    z -0.024810 0.000000 1.789950 
# 
# From -- ./inp_files/156032.got.cif
#   From: 2010.05.17/outbox.cif.g08.bks.cpg/sg15_79_cif.got.tgz:156032.got - 2010.06.03 18:47:42.
