data_PCOD9307030
_publ_section_title
;
Structure prediction by ZEFSAII (Michael W. Deem and Ramdas Pophale) SiO2 
 PCOD9307030
Probable space group: C 2/C
;
_chemical_formula_sum "Si O2"
_cell_formula_units_Z 44
_cell_length_a 9.213964
_cell_length_b 11.412714
_cell_length_c 23.866496
_cell_angle_alpha 90.000000
_cell_angle_beta 135.650492
_cell_angle_gamma 90.000000
_cell_volume 1754.373498
_symmetry_space_group_name_H-M "C 2/C"
_symmetry_group_IT_number 15
_symmetry_cell_setting 'monoclinic'
loop_
_space_group_symop_operation_xyz
x,y,z
-x,y,1/2-z
-x,-y,-z
x,-y,1/2+z
1/2+x,1/2+y,z
1/2-x,1/2+y,1/2-z
1/2-x,1/2-y,-z
1/2+x,1/2-y,1/2+z
loop_
_atom_site_type_symbol
_atom_site_label
_atom_site_fract_x
_atom_site_fract_y
_atom_site_fract_z
Si Si1 0.116657 0.412778 0.332046
Si Si2 0.184383 0.143533 0.896132
Si Si3 0.966754 0.749056 0.885717
Si Si4 0.370420 0.150821 0.292824
Si Si5 0.054721 0.999027 0.949532
Si Si6 0.000000 0.973297 0.750000
O O1 0.339192 0.444565 0.369146
O O2 0.000000 0.348063 0.250000
O O3 0.100128 0.334206 0.382509
O O4 0.998328 0.534607 0.311226
O O5 0.388637 0.184228 0.919655
O O6 0.036342 0.256287 0.860892
O O7 0.222504 0.081608 0.966438
O O8 0.069150 0.053314 0.821721
O O9 0.758747 0.788454 0.793699
O O10 0.077472 0.868682 0.933187
O O11 0.196819 0.104029 0.287234
O O12 0.000000 0.000000 0.000000
#
# Coordination Sequence:
#
# PCOD9307030 Si02
#       6
#     8   8   8   8   8   4
#     4  12  23  44  72 105 134 179 226 284 342 395
#     4  12  23  42  67  98 136 175 223 283 339 391
#     4  12  24  41  68  99 135 171 227 278 336 400
#     4  12  21  38  70 106 138 165 221 288 343 391
#     4  12  29  48  67  97 142 186 226 275 341 412
#     4  12  22  36  64 112 134 164 218 290 346 380
#
# _framework density 25.080179999999999
#
# number of rings (size 3 to 8) (size 9 to 14) (size 15 to 20)
#    0.000    0.000    9.091    1.091    3.818    1.455 
#    0.000    0.909    0.000    0.000    0.000    0.000 
#    0.000    0.000    0.000    0.000    0.000    0.000 
#
# Total GULP energy -123330.511636 kJ/mol
# GULP energy per Si atom -5605.932347 kJ/mol
# Density = 2.502310 g / cm^3
# Si number density = 25.080180 Si / 1000 Ang^3
#
#
#
# Elastic Constant Matrix: (Units=GPa)
#
#
# Indices 1 2 3 4 5 6 
#
# 1 149.0975 76.8782 -0.0522 0.0000 -27.3692 0.0000
# 2 76.8782 143.9913 21.6856 0.0000 -34.1018 0.0000
# 3 -0.0522 21.6856 49.3971 0.0000 -17.8371 0.0000
# 4 0.0000 0.0000 0.0000 9.9656 0.0000 -16.7643
# 5 -27.3692 -34.1018 -17.8371 0.0000 33.6901 0.0000
# 6 0.0000 0.0000 0.0000 -16.7643 0.0000 49.6398
#
#
#
# Elastic Compliance Matrix: (Units=1/GPa)
#
#
# Indices 1 2 3 4 5 6 
#
# 1 0.010183 -0.004711 0.004134 0.000000 0.005692 0.000000
# 2 -0.004711 0.011342 -0.002745 0.000000 0.006200 0.000000
# 3 0.004134 -0.002745 0.026784 0.000000 0.014760 0.000000
# 4 0.000000 0.000000 0.000000 0.232343 0.000000 0.078467
# 5 0.005692 0.006200 0.014760 0.000000 0.048397 0.000000
# 6 0.000000 0.000000 0.000000 0.078467 0.000000 0.046645
#
#
# Mechanical properties :
#
#
# Convention : Reuss Voigt Hill
#
# Bulk Modulus (GPa) = 24.00158 59.94548 41.97353
# Shear Modulus (GPa) = 12.61908 34.92406 23.77157
#
# Velocity S-wave (km/s) = 2.24553 3.73566 3.08201
# Velocity P-wave (km/s) = 4.03905 6.52383 5.42560
#
# Compressibility (1/GPa) = 0.04166392
#
# Stress axis : x y z
#
# Youngs Moduli (GPa) = 98.20737 88.16842 37.33635
#
# Poissons Ratio (x) = 0.41537 -0.15437
# Poissons Ratio (y) = 0.46266 0.10250
# Poissons Ratio (z) = -0.40603 0.24206
#
# Static dielectric constant tensor:
#      x y z
#    x 1.999420 0.000000 -0.019500 
#    y 0.000000 1.963820 0.000000 
#    z -0.019500 0.000000 2.123630 
# 
# From -- ./inp_files/230113.got.cif
#   From: 2010.05.17/outbox.cif.g08.bks.cpg/sg15_116_cif.got.tgz:230113.got - 2010.06.03 18:47:42.
