data_PCOD9307680
_publ_section_title
;
Structure prediction by ZEFSAII (Michael W. Deem and Ramdas Pophale) SiO2 
 PCOD9307680
Probable space group: C 2/C
;
_chemical_formula_sum "Si O2"
_cell_formula_units_Z 40
_cell_length_a 30.888355
_cell_length_b 8.273008
_cell_length_c 14.986295
_cell_angle_alpha 90.000000
_cell_angle_beta 27.631952
_cell_angle_gamma 90.000000
_cell_volume 1776.127102
_symmetry_space_group_name_H-M "C 2/C"
_symmetry_group_IT_number 15
_symmetry_cell_setting 'monoclinic'
loop_
_space_group_symop_operation_xyz
x,y,z
-x,y,1/2-z
-x,-y,-z
x,-y,1/2+z
1/2+x,1/2+y,z
1/2-x,1/2+y,1/2-z
1/2-x,1/2-y,-z
1/2+x,1/2-y,1/2+z
loop_
_atom_site_type_symbol
_atom_site_label
_atom_site_fract_x
_atom_site_fract_y
_atom_site_fract_z
Si Si1 0.457276 0.869405 0.513361
Si Si2 0.297894 0.597881 0.286968
Si Si3 0.741541 0.076860 0.060395
Si Si4 0.500000 0.500000 0.500000
Si Si5 0.809780 0.097259 0.586376
Si Si6 0.000000 0.706644 0.750000
O O1 0.347842 0.907832 0.713715
O O2 0.472993 0.684785 0.514874
O O3 0.502050 0.894488 0.335542
O O4 0.500000 0.000000 0.500000
O O5 0.238865 0.546691 0.482578
O O6 0.404512 0.573830 0.123867
O O7 0.264849 0.773744 0.314858
O O8 0.280718 0.484370 0.232087
O O9 0.823843 0.027575 0.977900
O O10 0.750000 0.250000 0.000000
O O11 0.907592 0.185451 0.422927
#
# Coordination Sequence:
#
# PCOD9307680 Si02
#       6
#     8   8   8   4   8   4
#     4  12  26  47  74 106 151 191 252 306 381 449
#     4  12  25  48  73 108 150 192 257 305 386 451
#     4  12  24  45  72 105 146 193 243 307 374 455
#     4  12  24  48  74 110 146 200 246 314 380 450
#     4  12  26  45  76 108 148 197 247 319 376 454
#     4  12  24  48  72 114 146 190 258 318 372 460
#
# _framework density 22.520910000000001
#
# number of rings (size 3 to 8) (size 9 to 14) (size 15 to 20)
#    0.000    0.000    4.000    6.600    0.000    0.000 
#    0.000    3.000    0.000    0.000    0.000    0.000 
#    0.000    0.000    0.000    0.000    0.000    0.000 
#
# Total GULP energy -111410.788883 kJ/mol
# GULP energy per Si atom -5570.539444 kJ/mol
# Density = 2.246965 g / cm^3
# Si number density = 22.520910 Si / 1000 Ang^3
#
#
#
# Elastic Constant Matrix: (Units=GPa)
#
#
# Indices 1 2 3 4 5 6 
#
# 1 145.3977 61.6248 35.7041 0.0000 11.6957 0.0000
# 2 61.6248 105.0369 27.6209 0.0000 -1.3162 0.0000
# 3 35.7041 27.6209 48.7141 0.0000 17.4417 0.0000
# 4 0.0000 0.0000 0.0000 25.4424 0.0000 -1.3018
# 5 11.6957 -1.3162 17.4417 0.0000 55.3940 0.0000
# 6 0.0000 0.0000 0.0000 -1.3018 0.0000 61.1075
#
#
#
# Elastic Compliance Matrix: (Units=1/GPa)
#
#
# Indices 1 2 3 4 5 6 
#
# 1 0.010028 -0.004751 -0.004348 0.000000 -0.000861 0.000000
# 2 -0.004751 0.013769 -0.005411 0.000000 0.003034 0.000000
# 3 -0.004348 -0.005411 0.029867 0.000000 -0.008615 0.000000
# 4 0.000000 0.000000 0.000000 0.039347 0.000000 0.000838
# 5 -0.000861 0.003034 -0.008615 0.000000 0.021019 0.000000
# 6 0.000000 0.000000 0.000000 0.000838 0.000000 0.016382
#
#
# Mechanical properties :
#
#
# Convention : Reuss Voigt Hill
#
# Bulk Modulus (GPa) = 40.57723 61.00537 50.79130
# Shear Modulus (GPa) = 29.82444 40.00203 34.91323
#
# Velocity S-wave (km/s) = 3.64304 4.21909 3.94160
# Velocity P-wave (km/s) = 5.97933 7.13312 6.58156
#
# Compressibility (1/GPa) = 0.02464436
#
# Stress axis : x y z
#
# Youngs Moduli (GPa) = 99.71795 72.62794 33.48159
#
# Poissons Ratio (x) = 0.34506 0.14557
# Poissons Ratio (y) = 0.47376 0.18117
# Poissons Ratio (z) = 0.43356 0.39299
#
# Static dielectric constant tensor:
#      x y z
#    x 1.810940 0.000030 0.039140 
#    y 0.000030 -72.656640 -0.000050 
#    z 0.039140 -0.000050 1.866910 
# 
# From -- ./inp_files/181029.got.cif
#   From: 2010.05.17/outbox.cif.g08.bks.cpg/sg15_91_cif.got.tgz:181029.got - 2010.06.03 18:47:42.
