data_PCOD9307523
_publ_section_title
;
Structure prediction by ZEFSAII (Michael W. Deem and Ramdas Pophale) SiO2 
 PCOD9307523
Probable space group: C 2/C
;
_chemical_formula_sum "Si O2"
_cell_formula_units_Z 40
_cell_length_a 8.543177
_cell_length_b 10.224416
_cell_length_c 19.858319
_cell_angle_alpha 90.000000
_cell_angle_beta 108.373173
_cell_angle_gamma 90.000000
_cell_volume 1646.180515
_symmetry_space_group_name_H-M "C 2/C"
_symmetry_group_IT_number 15
_symmetry_cell_setting 'monoclinic'
loop_
_space_group_symop_operation_xyz
x,y,z
-x,y,1/2-z
-x,-y,-z
x,-y,1/2+z
1/2+x,1/2+y,z
1/2-x,1/2+y,1/2-z
1/2-x,1/2-y,-z
1/2+x,1/2-y,1/2+z
loop_
_atom_site_type_symbol
_atom_site_label
_atom_site_fract_x
_atom_site_fract_y
_atom_site_fract_z
Si Si1 0.046522 0.042758 0.120892
Si Si2 0.116060 0.217428 0.704302
Si Si3 0.237203 0.389220 0.036460
Si Si4 0.413649 0.186120 0.838073
Si Si5 0.912033 0.434413 0.613157
O O1 0.084517 0.933416 0.181974
O O2 0.908598 0.968351 0.059117
O O3 0.979431 0.184776 0.132644
O O4 0.225201 0.080416 0.115056
O O5 0.296471 0.226269 0.760398
O O6 0.000000 0.256916 0.750000
O O7 0.043266 0.315629 0.638298
O O8 0.185307 0.360679 0.106910
O O9 0.250000 0.250000 0.000000
O O10 0.116259 0.464207 0.969135
O O11 0.518210 0.058257 0.837826
#
# Coordination Sequence:
#
# PCOD9307523 Si02
#       5
#     8   8   8   8   8
#     4  12  24  45  74 100 143 184 234 290 347 413
#     4  12  23  49  70  97 145 187 225 287 357 412
#     4  12  23  48  73  99 147 189 226 289 356 409
#     4  12  27  44  72 106 139 186 236 288 349 414
#     4  12  27  46  73 106 139 182 239 291 343 420
#
# _framework density 24.298670999999999
#
# number of rings (size 3 to 8) (size 9 to 14) (size 15 to 20)
#    0.000    0.000    8.000    2.400    0.000    2.400 
#    3.600    0.000    0.000    0.000    0.000    0.000 
#    0.000    0.000    0.000    0.000    0.000    0.000 
#
# Total GULP energy -111674.599517 kJ/mol
# GULP energy per Si atom -5583.729976 kJ/mol
# Density = 2.424337 g / cm^3
# Si number density = 24.298671 Si / 1000 Ang^3
#
#
#
# Elastic Constant Matrix: (Units=GPa)
#
#
# Indices 1 2 3 4 5 6 
#
# 1 52.0617 18.0000 39.1007 0.0000 7.6779 0.0000
# 2 18.0000 142.0818 25.3697 0.0000 29.4747 0.0000
# 3 39.1007 25.3697 132.6574 0.0000 28.5610 0.0000
# 4 0.0000 0.0000 0.0000 33.7611 0.0000 1.7165
# 5 7.6779 29.4747 28.5610 0.0000 34.9833 0.0000
# 6 0.0000 0.0000 0.0000 1.7165 0.0000 27.8705
#
#
#
# Elastic Compliance Matrix: (Units=1/GPa)
#
#
# Indices 1 2 3 4 5 6 
#
# 1 0.025342 -0.002408 -0.007581 0.000000 0.002656 0.000000
# 2 -0.002408 0.008759 0.000618 0.000000 -0.007356 0.000000
# 3 -0.007581 0.000618 0.011415 0.000000 -0.008176 0.000000
# 4 0.000000 0.000000 0.000000 0.029713 0.000000 -0.001830
# 5 0.002656 -0.007356 -0.008176 0.000000 0.040875 0.000000
# 6 0.000000 0.000000 0.000000 -0.001830 0.000000 0.035993
#
#
# Mechanical properties :
#
#
# Convention : Reuss Voigt Hill
#
# Bulk Modulus (GPa) = 37.34814 54.63798 45.99306
# Shear Modulus (GPa) = 27.81434 35.61168 31.71301
#
# Velocity S-wave (km/s) = 3.38699 3.83244 3.61658
# Velocity P-wave (km/s) = 5.54071 6.48986 6.03398
#
# Compressibility (1/GPa) = 0.02677510
#
# Stress axis : x y z
#
# Youngs Moduli (GPa) = 39.45942 114.17053 87.60519
#
# Poissons Ratio (x) = 0.27491 0.66414
# Poissons Ratio (y) = 0.09502 -0.05418
# Poissons Ratio (z) = 0.29914 -0.07061
#
# Static dielectric constant tensor:
#      x y z
#    x 2.052480 0.000000 -0.020460 
#    y 0.000000 1.945450 0.000000 
#    z -0.020460 0.000000 2.028860 
# 
# From -- ./inp_files/263339.got.cif
#   From: 2010.05.17/outbox.cif.g08.bks.cpg/sg15_132_cif.got.tgz:263339.got - 2010.06.03 18:47:42.
