data_PCOD9307276
_publ_section_title
;
Structure prediction by ZEFSAII (Michael W. Deem and Ramdas Pophale) SiO2 
 PCOD9307276
Probable space group: C 2/C
;
_chemical_formula_sum "Si O2"
_cell_formula_units_Z 52
_cell_length_a 18.194746
_cell_length_b 6.850280
_cell_length_c 25.509278
_cell_angle_alpha 90.000000
_cell_angle_beta 53.157381
_cell_angle_gamma 90.000000
_cell_volume 2544.470814
_symmetry_space_group_name_H-M "C 2/C"
_symmetry_group_IT_number 15
_symmetry_cell_setting 'monoclinic'
loop_
_space_group_symop_operation_xyz
x,y,z
-x,y,1/2-z
-x,-y,-z
x,-y,1/2+z
1/2+x,1/2+y,z
1/2-x,1/2+y,1/2-z
1/2-x,1/2-y,-z
1/2+x,1/2-y,1/2+z
loop_
_atom_site_type_symbol
_atom_site_label
_atom_site_fract_x
_atom_site_fract_y
_atom_site_fract_z
Si Si1 0.833113 0.446355 0.093889
Si Si2 0.941881 0.116231 0.982499
Si Si3 0.284854 0.681646 0.540743
Si Si4 0.000000 0.888806 0.750000
Si Si5 0.359931 0.710840 0.778028
Si Si6 0.942622 0.632171 0.142091
Si Si7 0.406068 0.031385 0.843550
O O1 0.888028 0.296148 0.033022
O O2 0.810071 0.641011 0.069492
O O3 0.739175 0.353674 0.157415
O O4 0.896893 0.502045 0.116246
O O5 0.868990 0.960464 0.994133
O O6 0.009469 0.190628 0.908790
O O7 0.000000 0.000000 0.000000
O O8 0.250000 0.750000 0.500000
O O9 0.200340 0.556331 0.598202
O O10 0.057563 0.742496 0.689327
O O11 0.071752 0.026151 0.749240
O O12 0.366380 0.799107 0.716843
O O13 0.402665 0.873723 0.798376
O O14 0.026089 0.536085 0.139252
#
# Coordination Sequence:
#
# PCOD9307276 Si02
#       7
#     8   8   8   4   8   8   8
#     4  12  28  50  72 107 151 185 244 303 359 428
#     4  12  28  49  73 104 151 190 238 301 362 428
#     4  12  28  46  76 108 140 195 243 295 361 430
#     4  12  22  44  76 100 148 184 234 294 358 410
#     4  12  26  47  74 111 145 187 245 300 352 435
#     4  12  27  46  74 110 143 190 243 296 362 432
#     4  12  25  47  73 107 145 186 242 296 356 429
#
# _framework density 20.43647
#
# number of rings (size 3 to 8) (size 9 to 14) (size 15 to 20)
#    0.000    0.000    7.692    1.385    6.462    4.923 
#    0.000    0.000    0.000    0.000    0.000    0.000 
#    0.000    0.000    0.000    0.000    0.000    0.000 
#
# Total GULP energy -145373.169320 kJ/mol
# GULP energy per Si atom -5591.275743 kJ/mol
# Density = 2.038996 g / cm^3
# Si number density = 20.436470 Si / 1000 Ang^3
#
#
#
# Elastic Constant Matrix: (Units=GPa)
#
#
# Indices 1 2 3 4 5 6 
#
# 1 105.0548 38.3802 33.0911 0.0037 15.9696 0.0039
# 2 38.3802 90.6491 33.4601 0.0090 13.3619 0.0076
# 3 33.0911 33.4601 73.1034 -0.0043 3.9911 -0.0053
# 4 0.0037 0.0090 -0.0043 40.6220 0.0000 -14.5888
# 5 15.9696 13.3619 3.9911 0.0000 41.2756 -0.0005
# 6 0.0039 0.0076 -0.0053 -14.5888 -0.0005 46.0470
#
#
#
# Elastic Compliance Matrix: (Units=1/GPa)
#
#
# Indices 1 2 3 4 5 6 
#
# 1 0.012493 -0.003337 -0.003944 -0.000001 -0.003372 -0.000001
# 2 -0.003337 0.014762 -0.005083 -0.000005 -0.002996 -0.000004
# 3 -0.003944 -0.005083 0.017711 0.000005 0.001459 0.000005
# 4 -0.000001 -0.000005 0.000005 0.027778 0.000002 0.008801
# 5 -0.003372 -0.002996 0.001459 0.000002 0.026361 0.000002
# 6 -0.000001 -0.000004 0.000005 0.008801 0.000002 0.024505
#
#
# Mechanical properties :
#
#
# Convention : Reuss Voigt Hill
#
# Bulk Modulus (GPa) = 49.40757 53.18554 51.29656
# Shear Modulus (GPa) = 32.24090 36.51399 34.37745
#
# Velocity S-wave (km/s) = 3.97623 4.23153 4.10587
# Velocity P-wave (km/s) = 6.73121 7.06794 6.90163
#
# Compressibility (1/GPa) = 0.02023981
#
# Stress axis : x y z
#
# Youngs Moduli (GPa) = 80.04747 67.74123 56.46149
#
# Poissons Ratio (x) = 0.22602 0.22266
# Poissons Ratio (y) = 0.26708 0.28698
# Poissons Ratio (z) = 0.31568 0.34431
#
# Static dielectric constant tensor:
#      x y z
#    x 1.680320 0.000000 0.072150 
#    y 0.000000 1.572970 0.000040 
#    z 0.072150 0.000040 1.690280 
# 
# From -- ./inp_files/300074.got.cif
#   From: 2010.05.17/outbox.cif.g08.bks.cpg/sg15_151_cif.got.tgz:300074.got - 2010.06.03 18:47:42.
