data_PCOD9307910
_publ_section_title
;
Structure prediction by ZEFSAII (Michael W. Deem and Ramdas Pophale) SiO2 
 PCOD9307910
Probable space group: C 2/C
;
_chemical_formula_sum "Si O2"
_cell_formula_units_Z 48
_cell_length_a 11.156282
_cell_length_b 15.362333
_cell_length_c 14.020326
_cell_angle_alpha 90.000000
_cell_angle_beta 121.510997
_cell_angle_gamma 90.000000
_cell_volume 2048.563665
_symmetry_space_group_name_H-M "C 2/C"
_symmetry_group_IT_number 15
_symmetry_cell_setting 'monoclinic'
loop_
_space_group_symop_operation_xyz
x,y,z
-x,y,1/2-z
-x,-y,-z
x,-y,1/2+z
1/2+x,1/2+y,z
1/2-x,1/2+y,1/2-z
1/2-x,1/2-y,-z
1/2+x,1/2-y,1/2+z
loop_
_atom_site_type_symbol
_atom_site_label
_atom_site_fract_x
_atom_site_fract_y
_atom_site_fract_z
Si Si1 0.697967 0.003561 0.267122
Si Si2 0.488699 0.124256 0.078781
Si Si3 0.078279 0.909159 0.517027
Si Si4 0.500000 0.142358 0.750000
Si Si5 0.000000 0.246062 0.750000
Si Si6 0.908334 0.257298 0.030079
Si Si7 0.197070 0.899752 0.355142
O O1 0.638186 0.919775 0.298863
O O2 0.801509 0.973668 0.224811
O O3 0.560253 0.044091 0.160682
O O4 0.775694 0.074127 0.365212
O O5 0.452461 0.194918 0.143113
O O6 0.597895 0.170634 0.055012
O O7 0.355155 0.104330 0.958886
O O8 0.109519 0.904302 0.417132
O O9 0.988307 0.828120 0.521141
O O10 0.000000 0.000000 0.500000
O O11 0.506138 0.202209 0.845786
O O12 0.866152 0.186337 0.719471
O O13 0.750000 0.250000 0.000000
#
# Coordination Sequence:
#
# PCOD9307910 Si02
#       7
#     8   8   8   4   4   8   8
#     4  12  28  46  79 113 156 208 256 316 397 468
#     4  12  27  47  77 108 150 199 257 321 385 465
#     4  12  28  51  77 113 156 201 258 328 391 472
#     4  12  27  50  75 116 158 204 258 317 390 477
#     4  12  25  44  79 108 142 194 256 319 384 461
#     4  12  30  48  76 110 156 205 257 325 393 464
#     4  12  26  49  75 112 149 194 259 319 383 456
#
# _framework density 23.431051
#
# number of rings (size 3 to 8) (size 9 to 14) (size 15 to 20)
#    0.000    0.000    3.333    5.500   11.667    0.000 
#    0.000    0.000    0.000    0.000    0.000    0.000 
#    0.000    0.000    0.000    0.000    0.000    0.000 
#
# Total GULP energy -134345.849839 kJ/mol
# GULP energy per Si atom -5597.743743 kJ/mol
# Density = 2.337772 g / cm^3
# Si number density = 23.431051 Si / 1000 Ang^3
#
#
#
# Elastic Constant Matrix: (Units=GPa)
#
#
# Indices 1 2 3 4 5 6 
#
# 1 125.7973 42.8350 21.8893 0.0000 -12.7706 0.0000
# 2 42.8350 94.6163 23.1050 0.0000 -15.5119 0.0000
# 3 21.8893 23.1050 86.7815 0.0000 -2.0295 0.0000
# 4 0.0000 0.0000 0.0000 61.3704 0.0000 -15.5133
# 5 -12.7706 -15.5119 -2.0295 0.0000 48.2430 0.0000
# 6 0.0000 0.0000 0.0000 -15.5133 0.0000 53.5734
#
#
#
# Elastic Compliance Matrix: (Units=1/GPa)
#
#
# Indices 1 2 3 4 5 6 
#
# 1 0.009615 -0.003808 -0.001382 0.000000 0.001262 0.000000
# 2 -0.003808 0.013440 -0.002543 0.000000 0.003206 0.000000
# 3 -0.001382 -0.002543 0.012533 0.000000 -0.000656 0.000000
# 4 0.000000 0.000000 0.000000 0.017581 0.000000 0.005091
# 5 0.001262 0.003206 -0.000656 0.000000 0.022066 0.000000
# 6 0.000000 0.000000 0.000000 0.005091 0.000000 0.020140
#
#
# Mechanical properties :
#
#
# Convention : Reuss Voigt Hill
#
# Bulk Modulus (GPa) = 49.69619 53.65042 51.67330
# Shear Modulus (GPa) = 42.53578 47.26175 44.89877
#
# Velocity S-wave (km/s) = 4.26533 4.49604 4.38220
# Velocity P-wave (km/s) = 6.74633 7.06395 6.90696
#
# Compressibility (1/GPa) = 0.02012227
#
# Stress axis : x y z
#
# Youngs Moduli (GPa) = 104.00770 74.40635 79.78740
#
# Poissons Ratio (x) = 0.28337 0.11024
# Poissons Ratio (y) = 0.39610 0.20287
# Poissons Ratio (z) = 0.14370 0.18919
#
# Static dielectric constant tensor:
#      x y z
#    x 1.999250 0.000000 0.048070 
#    y 0.000000 1.856960 0.000000 
#    z 0.048070 0.000000 1.900160 
# 
# From -- ./inp_files/144424.got.cif
#   From: 2010.05.17/outbox.cif.g08.bks.cpg/sg15_73_cif.got.tgz:144424.got - 2010.06.03 18:47:42.
