data_PCOD9307174
_publ_section_title
;
Structure prediction by ZEFSAII (Michael W. Deem and Ramdas Pophale) SiO2 
 PCOD9307174
Probable space group: C 2/C
;
_chemical_formula_sum "Si O2"
_cell_formula_units_Z 56
_cell_length_a 24.035601
_cell_length_b 15.624029
_cell_length_c 18.974741
_cell_angle_alpha 90.000000
_cell_angle_beta 22.906936
_cell_angle_gamma 90.000000
_cell_volume 2773.551791
_symmetry_space_group_name_H-M "C 2/C"
_symmetry_group_IT_number 15
_symmetry_cell_setting 'monoclinic'
loop_
_space_group_symop_operation_xyz
x,y,z
-x,y,1/2-z
-x,-y,-z
x,-y,1/2+z
1/2+x,1/2+y,z
1/2-x,1/2+y,1/2-z
1/2-x,1/2-y,-z
1/2+x,1/2-y,1/2+z
loop_
_atom_site_type_symbol
_atom_site_label
_atom_site_fract_x
_atom_site_fract_y
_atom_site_fract_z
Si Si1 0.143268 0.662657 0.441965
Si Si2 0.410360 0.568647 0.058782
Si Si3 0.370847 0.137692 0.577040
Si Si4 0.088778 0.762090 0.374375
Si Si5 0.163992 0.211533 0.036207
Si Si6 0.253838 0.958025 0.355449
Si Si7 0.005092 0.500960 0.160854
O O1 0.262171 0.605017 0.264534
O O2 0.056061 0.721782 0.489482
O O3 0.209732 0.729316 0.417707
O O4 0.047905 0.597147 0.596828
O O5 0.363575 0.520634 0.042029
O O6 0.500000 0.500000 0.000000
O O7 0.508502 0.652607 0.943787
O O8 0.252693 0.208380 0.693055
O O9 0.523165 0.186155 0.404049
O O10 0.327749 0.089645 0.700905
O O11 0.380445 0.064761 0.507139
O O12 0.000000 0.219978 0.250000
O O13 0.250000 0.250000 0.000000
O O14 0.191474 0.115310 0.978560
O O15 0.365315 0.009082 0.274310
O O16 0.000000 0.516121 0.250000
#
# Coordination Sequence:
#
# PCOD9307174 Si02
#       7
#     8   8   8   8   8   8   8
#     4  12  22  41  67  99 140 178 224 280 347 412
#     4  12  23  38  69 103 138 176 236 291 333 399
#     4  12  24  44  73 100 130 180 238 284 344 409
#     4  12  23  40  71 103 130 174 234 292 333 402
#     4  12  27  41  65 102 147 184 218 275 355 424
#     4  12  23  44  69 101 139 188 231 276 339 424
#     4  12  26  46  66  99 141 183 226 285 357 414
#
# _framework density 20.190716999999999
#
# number of rings (size 3 to 8) (size 9 to 14) (size 15 to 20)
#    0.000    0.000    7.143    3.429    4.000    0.000 
#    2.571    0.714    0.000    0.000    0.000    0.000 
#    0.000    0.000    0.000    0.000    0.000    0.000 
#
# Total GULP energy -156247.246175 kJ/mol
# GULP energy per Si atom -5580.258792 kJ/mol
# Density = 2.014476 g / cm^3
# Si number density = 20.190717 Si / 1000 Ang^3
#
#
#
# Elastic Constant Matrix: (Units=GPa)
#
#
# Indices 1 2 3 4 5 6 
#
# 1 101.2032 48.9554 54.0517 0.0010 -8.9909 -0.0006
# 2 48.9554 122.1597 29.2026 0.0008 4.1960 -0.0006
# 3 54.0517 29.2026 62.0036 0.0002 -4.3972 -0.0003
# 4 0.0010 0.0008 0.0002 45.8141 -0.0003 -0.9431
# 5 -8.9909 4.1960 -4.3972 -0.0003 27.6506 0.0003
# 6 -0.0006 -0.0006 -0.0003 -0.9431 0.0003 42.5415
#
#
#
# Elastic Compliance Matrix: (Units=1/GPa)
#
#
# Indices 1 2 3 4 5 6 
#
# 1 0.021090 -0.004866 -0.015732 0.000000 0.005094 0.000000
# 2 -0.004866 0.010471 -0.000925 0.000000 -0.003318 0.000000
# 3 -0.015732 -0.000925 0.030267 0.000000 -0.000162 0.000000
# 4 0.000000 0.000000 0.000000 0.021837 0.000000 0.000484
# 5 0.005094 -0.003318 -0.000162 0.000000 0.038300 0.000000
# 6 0.000000 0.000000 0.000000 0.000484 0.000000 0.023517
#
#
# Mechanical properties :
#
#
# Convention : Reuss Voigt Hill
#
# Bulk Modulus (GPa) = 53.24399 61.08735 57.16567
# Shear Modulus (GPa) = 25.66881 33.41170 29.54026
#
# Velocity S-wave (km/s) = 3.56942 4.07234 3.82915
# Velocity P-wave (km/s) = 6.58904 7.24105 6.92273
#
# Compressibility (1/GPa) = 0.01878146
#
# Stress axis : x y z
#
# Youngs Moduli (GPa) = 47.41626 95.50037 33.03951
#
# Poissons Ratio (x) = 0.46470 0.51978
# Poissons Ratio (y) = 0.23072 0.03057
# Poissons Ratio (z) = 0.74595 0.08836
#
# Static dielectric constant tensor:
#      x y z
#    x 1.755770 0.000000 -0.035190 
#    y 0.000000 1.750550 0.000000 
#    z -0.035190 0.000000 1.761920 
# 
# From -- ./inp_files/215704.got.cif
#   From: 2010.05.17/outbox.cif.g08.bks.cpg/sg15_108_cif.got.tgz:215704.got - 2010.06.03 18:47:42.
