data_PCOD9307728
_publ_section_title
;
Structure prediction by ZEFSAII (Michael W. Deem and Ramdas Pophale) SiO2 
 PCOD9307728
Probable space group: C 2/C
;
_chemical_formula_sum "Si O2"
_cell_formula_units_Z 48
_cell_length_a 11.286773
_cell_length_b 16.594015
_cell_length_c 11.454477
_cell_angle_alpha 90.000000
_cell_angle_beta 111.007921
_cell_angle_gamma 90.000000
_cell_volume 2002.742985
_symmetry_space_group_name_H-M "C 2/C"
_symmetry_group_IT_number 15
_symmetry_cell_setting 'monoclinic'
loop_
_space_group_symop_operation_xyz
x,y,z
-x,y,1/2-z
-x,-y,-z
x,-y,1/2+z
1/2+x,1/2+y,z
1/2-x,1/2+y,1/2-z
1/2-x,1/2-y,-z
1/2+x,1/2-y,1/2+z
loop_
_atom_site_type_symbol
_atom_site_label
_atom_site_fract_x
_atom_site_fract_y
_atom_site_fract_z
Si Si1 0.333767 0.624146 0.473748
Si Si2 0.721537 0.554786 0.565364
Si Si3 0.873329 0.312526 0.772681
Si Si4 0.556984 0.688203 0.396296
Si Si5 0.246309 0.649405 0.701557
Si Si6 0.552409 0.867821 0.450472
O O1 0.348219 0.528317 0.482623
O O2 0.213050 0.638253 0.347735
O O3 0.449302 0.672221 0.456602
O O4 0.306816 0.652043 0.594902
O O5 0.663841 0.624212 0.463606
O O6 0.705456 0.581006 0.693754
O O7 0.870442 0.560001 0.583269
O O8 0.787843 0.234427 0.773233
O O9 0.000000 0.286341 0.750000
O O10 0.915729 0.362030 0.901246
O O11 0.500000 0.670632 0.250000
O O12 0.595751 0.781204 0.414458
O O13 0.097301 0.633486 0.628898
#
# Coordination Sequence:
#
# PCOD9307728 Si02
#       6
#     8   8   8   8   8   8
#     4  12  28  47  72 109 149 189 242 305 369 429
#     4  12  29  45  71 110 146 195 234 308 370 426
#     4  12  24  46  76 105 140 192 244 297 364 437
#     4  12  25  48  77 105 144 189 247 297 359 439
#     4  12  26  47  75 105 145 184 247 298 358 444
#     4  12  25  48  74 108 141 190 247 296 358 439
#
# _framework density 23.967129
#
# number of rings (size 3 to 8) (size 9 to 14) (size 15 to 20)
#    0.000    0.000    5.000    5.000    4.667    2.000 
#    0.000    0.000    0.000    0.000    0.000    0.000 
#    0.000    0.000    0.000    0.000    0.000    0.000 
#
# Total GULP energy -134544.451880 kJ/mol
# GULP energy per Si atom -5606.018828 kJ/mol
# Density = 2.391258 g / cm^3
# Si number density = 23.967129 Si / 1000 Ang^3
#
#
#
# Elastic Constant Matrix: (Units=GPa)
#
#
# Indices 1 2 3 4 5 6 
#
# 1 90.1348 -15.3571 4.6258 0.0000 -8.3298 0.0000
# 2 -15.3571 47.4241 -4.9010 0.0000 4.0454 0.0000
# 3 4.6258 -4.9010 109.5332 0.0000 -5.8515 0.0000
# 4 0.0000 0.0000 0.0000 -10.7694 0.0000 -3.0916
# 5 -8.3298 4.0454 -5.8515 0.0000 39.1698 0.0000
# 6 0.0000 0.0000 0.0000 -3.0916 0.0000 7.2723
#
#
#
# Elastic Compliance Matrix: (Units=1/GPa)
#
#
# Indices 1 2 3 4 5 6 
#
# 1 0.011926 0.003657 -0.000227 0.000000 0.002125 0.000000
# 2 0.003657 0.022472 0.000775 0.000000 -0.001427 0.000000
# 3 -0.000227 0.000775 0.009241 0.000000 0.001252 0.000000
# 4 0.000000 0.000000 0.000000 -0.082756 0.000000 -0.035181
# 5 0.002125 -0.001427 0.001252 0.000000 0.026316 0.000000
# 6 0.000000 0.000000 0.000000 -0.035181 0.000000 0.122553
#
#
# Mechanical properties :
#
#
# Convention : Reuss Voigt Hill
#
# Bulk Modulus (GPa) = 19.21241 23.98083 21.59662
# Shear Modulus (GPa) = 42.12642 24.64949 33.38796
#
# Velocity S-wave (km/s) = 4.19701 3.21046 3.73644
# Velocity P-wave (km/s) = 5.61428 4.87546 5.25786
#
# Compressibility (1/GPa) = 0.05204970
#
# Stress axis : x y z
#
# Youngs Moduli (GPa) = 83.85351 44.49896 108.21586
#
# Poissons Ratio (x) = -0.16274 0.02451
# Poissons Ratio (y) = -0.30667 -0.08385
# Poissons Ratio (z) = 0.01899 -0.03448
#
# Static dielectric constant tensor:
#      x y z
#    x 1.965320 0.000000 0.003460 
#    y 0.000000 1.892790 0.000000 
#    z 0.003460 0.000000 1.873090 
# 
# From -- ./inp_files/87882.got.cif
#   From: 2010.05.17/outbox.cif.g08.bks.cpg/sg15_44_cif.got.tgz:87882.got - 2010.06.03 18:47:42.
