data_PCOD9307582
_publ_section_title
;
Structure prediction by ZEFSAII (Michael W. Deem and Ramdas Pophale) SiO2 
 PCOD9307582
Probable space group: C 2/C
;
_chemical_formula_sum "Si O2"
_cell_formula_units_Z 44
_cell_length_a 21.094755
_cell_length_b 10.712891
_cell_length_c 9.842476
_cell_angle_alpha 90.000000
_cell_angle_beta 61.545139
_cell_angle_gamma 90.000000
_cell_volume 1955.553212
_symmetry_space_group_name_H-M "C 2/C"
_symmetry_group_IT_number 15
_symmetry_cell_setting 'monoclinic'
loop_
_space_group_symop_operation_xyz
x,y,z
-x,y,1/2-z
-x,-y,-z
x,-y,1/2+z
1/2+x,1/2+y,z
1/2-x,1/2+y,1/2-z
1/2-x,1/2-y,-z
1/2+x,1/2-y,1/2+z
loop_
_atom_site_type_symbol
_atom_site_label
_atom_site_fract_x
_atom_site_fract_y
_atom_site_fract_z
Si Si1 0.500000 0.684551 0.250000
Si Si2 0.123924 0.347372 0.816343
Si Si3 0.704867 0.391387 0.190242
Si Si4 0.132230 0.533307 0.033516
Si Si5 0.531664 0.757329 0.506749
Si Si6 0.615529 0.485283 0.023081
O O1 0.531128 0.761947 0.344024
O O2 0.562289 0.594608 0.126907
O O3 0.190600 0.255420 0.726236
O O4 0.120843 0.402485 0.970240
O O5 0.126799 0.456564 0.701406
O O6 0.051532 0.268285 0.863870
O O7 0.788314 0.421785 0.090030
O O8 0.662711 0.434984 0.099265
O O9 0.668280 0.462309 0.353640
O O10 0.074727 0.629697 0.030080
O O11 0.567045 0.627371 0.515058
#
# Coordination Sequence:
#
# PCOD9307582 Si02
#       6
#     4   8   8   8   8   8
#     4  12  24  42  72 116 134 186 248 306 360 416
#     4  12  27  49  71 107 147 193 243 294 358 433
#     4  12  26  48  75 109 145 191 241 302 363 427
#     4  12  29  46  75 103 151 194 239 293 367 435
#     4  12  26  45  74 105 147 191 241 302 360 423
#     4  12  24  45  77 107 145 185 246 304 361 419
#
# _framework density 22.500026999999999
#
# number of rings (size 3 to 8) (size 9 to 14) (size 15 to 20)
#    0.000    0.000    5.455    4.364    5.091    0.000 
#    0.000    2.727    0.000    0.000    0.000    0.000 
#    0.000    0.000    0.000    0.000    0.000    0.000 
#
# Total GULP energy -123370.165484 kJ/mol
# GULP energy per Si atom -5607.734795 kJ/mol
# Density = 2.244882 g / cm^3
# Si number density = 22.500027 Si / 1000 Ang^3
#
#
#
# Elastic Constant Matrix: (Units=GPa)
#
#
# Indices 1 2 3 4 5 6 
#
# 1 49.7884 -5.6717 -11.7979 0.0000 -3.9119 0.0000
# 2 -5.6717 46.9689 -5.0179 0.0000 14.3595 0.0000
# 3 -11.7979 -5.0179 91.6473 0.0000 21.9183 0.0000
# 4 0.0000 0.0000 0.0000 37.6982 0.0000 4.8276
# 5 -3.9119 14.3595 21.9183 0.0000 42.7456 0.0000
# 6 0.0000 0.0000 0.0000 4.8276 0.0000 32.4906
#
#
#
# Elastic Compliance Matrix: (Units=1/GPa)
#
#
# Indices 1 2 3 4 5 6 
#
# 1 0.021105 0.003076 0.003044 0.000000 -0.000663 0.000000
# 2 0.003076 0.025300 0.004270 0.000000 -0.010407 0.000000
# 3 0.003044 0.004270 0.013465 0.000000 -0.008060 0.000000
# 4 0.000000 0.000000 0.000000 0.027041 0.000000 -0.004018
# 5 -0.000663 -0.010407 -0.008060 0.000000 0.030963 0.000000
# 6 0.000000 0.000000 0.000000 -0.004018 0.000000 0.031375
#
#
# Mechanical properties :
#
#
# Convention : Reuss Voigt Hill
#
# Bulk Modulus (GPa) = 12.39928 15.93662 14.16795
# Shear Modulus (GPa) = 32.18523 36.64637 34.41580
#
# Velocity S-wave (km/s) = 3.78624 4.04013 3.91524
# Velocity P-wave (km/s) = 4.96355 5.37232 5.17198
#
# Compressibility (1/GPa) = 0.08064987
#
# Stress axis : x y z
#
# Youngs Moduli (GPa) = 47.38300 39.52556 74.26846
#
# Poissons Ratio (x) = -0.12159 -0.22606
# Poissons Ratio (y) = -0.14576 -0.31714
# Poissons Ratio (z) = -0.14422 -0.16878
#
# Static dielectric constant tensor:
#      x y z
#    x 1.781090 0.000000 0.011250 
#    y 0.000000 1.810860 0.000000 
#    z 0.011250 0.000000 1.824880 
# 
# From -- ./inp_files/54366.got.cif
#   From: 2010.05.17/outbox.cif.g08.bks.cpg/sg15_28_cif.got.tgz:54366.got - 2010.06.03 18:47:42.
