data_PCOD9307031
_publ_section_title
;
Structure prediction by ZEFSAII (Michael W. Deem and Ramdas Pophale) SiO2 
 PCOD9307031
Probable space group: C 2/C
;
_chemical_formula_sum "Si O2"
_cell_formula_units_Z 40
_cell_length_a 11.719284
_cell_length_b 17.856249
_cell_length_c 9.266245
_cell_angle_alpha 90.000000
_cell_angle_beta 83.337405
_cell_angle_gamma 90.000000
_cell_volume 1925.981807
_symmetry_space_group_name_H-M "C 2/C"
_symmetry_group_IT_number 15
_symmetry_cell_setting 'monoclinic'
loop_
_space_group_symop_operation_xyz
x,y,z
-x,y,1/2-z
-x,-y,-z
x,-y,1/2+z
1/2+x,1/2+y,z
1/2-x,1/2+y,1/2-z
1/2-x,1/2-y,-z
1/2+x,1/2-y,1/2+z
loop_
_atom_site_type_symbol
_atom_site_label
_atom_site_fract_x
_atom_site_fract_y
_atom_site_fract_z
Si Si1 0.908065 0.448470 0.926453
Si Si2 0.308892 0.054909 0.722813
Si Si3 0.500000 0.810769 0.750000
Si Si4 0.061767 0.065429 0.896322
Si Si5 0.382534 0.729409 0.519608
Si Si6 0.500000 0.180316 0.750000
O O1 0.876360 0.485415 0.780640
O O2 0.948079 0.365924 0.879200
O O3 0.800968 0.448578 0.052056
O O4 0.000000 0.500000 0.000000
O O5 0.191444 0.051521 0.824711
O O6 0.390224 0.126478 0.739370
O O7 0.408832 0.761142 0.676298
O O8 0.078365 0.142775 0.982313
O O9 0.000000 0.076233 0.750000
O O10 0.000000 0.000000 0.000000
O O11 0.250000 0.750000 0.500000
O O12 0.463051 0.769910 0.390613
#
# Coordination Sequence:
#
# PCOD9307031 Si02
#       6
#     8   8   4   8   8   4
#     4  12  21  38  70 112 147 180 241 313 386 442
#     4  12  23  43  72 106 147 191 248 316 375 455
#     4  12  23  44  73 108 154 192 250 310 383 464
#     4  12  29  53  73 105 153 206 256 307 389 474
#     4  12  27  49  76 110 153 200 253 319 388 460
#     4  12  23  44  75 108 144 190 254 322 383 442
#
# _framework density 20.768628
#
# number of rings (size 3 to 8) (size 9 to 14) (size 15 to 20)
#    0.000    0.000    9.000    1.200    1.400    1.600 
#    3.600    3.000    0.000    0.000    0.000    0.000 
#    0.000    0.000    0.000    0.000    0.000    0.000 
#
# Total GULP energy -111573.706549 kJ/mol
# GULP energy per Si atom -5578.685327 kJ/mol
# Density = 2.072136 g / cm^3
# Si number density = 20.768628 Si / 1000 Ang^3
#
#
#
# Elastic Constant Matrix: (Units=GPa)
#
#
# Indices 1 2 3 4 5 6 
#
# 1 131.1818 59.3262 47.4844 0.0000 -6.3969 0.0000
# 2 59.3262 135.1309 54.5790 0.0000 -5.0274 0.0000
# 3 47.4844 54.5790 133.3099 0.0000 -11.9337 0.0000
# 4 0.0000 0.0000 0.0000 47.2321 0.0000 -6.5155
# 5 -6.3969 -5.0274 -11.9337 0.0000 47.2758 0.0000
# 6 0.0000 0.0000 0.0000 -6.5155 0.0000 21.4629
#
#
#
# Elastic Compliance Matrix: (Units=1/GPa)
#
#
# Indices 1 2 3 4 5 6 
#
# 1 0.009993 -0.003533 -0.002072 0.000000 0.000453 0.000000
# 2 -0.003533 0.010116 -0.002895 0.000000 -0.000133 0.000000
# 3 -0.002072 -0.002895 0.009589 0.000000 0.001832 0.000000
# 4 0.000000 0.000000 0.000000 0.022097 0.000000 0.006708
# 5 0.000453 -0.000133 0.001832 0.000000 0.021662 0.000000
# 6 0.000000 0.000000 0.000000 0.006708 0.000000 0.048628
#
#
# Mechanical properties :
#
#
# Convention : Reuss Voigt Hill
#
# Bulk Modulus (GPa) = 78.76222 80.26685 79.51453
# Shear Modulus (GPa) = 34.88723 39.07638 36.98181
#
# Velocity S-wave (km/s) = 4.10299 4.34234 4.22436
# Velocity P-wave (km/s) = 7.77509 7.99208 7.88433
#
# Compressibility (1/GPa) = 0.01269644
#
# Stress axis : x y z
#
# Youngs Moduli (GPa) = 100.06793 98.85537 104.28954
#
# Poissons Ratio (x) = 0.34930 0.21612
# Poissons Ratio (y) = 0.35358 0.30191
# Poissons Ratio (z) = 0.20737 0.28617
#
# Static dielectric constant tensor:
#      x y z
#    x 1.809710 0.000000 -0.012330 
#    y 0.000000 1.800480 0.000000 
#    z -0.012330 0.000000 1.572790 
# 
# From -- ./inp_files/29265.got.cif
#   From: 2010.05.17/outbox.cif.g08.bks.cpg/sg15_15_cif.got.tgz:29265.got - 2010.06.03 18:47:42.
