data_PCOD9307329
_publ_section_title
;
Structure prediction by ZEFSAII (Michael W. Deem and Ramdas Pophale) SiO2 
 PCOD9307329
Probable space group: C 2/C
;
_chemical_formula_sum "Si O2"
_cell_formula_units_Z 40
_cell_length_a 7.427191
_cell_length_b 13.956856
_cell_length_c 20.014909
_cell_angle_alpha 90.000000
_cell_angle_beta 50.316960
_cell_angle_gamma 90.000000
_cell_volume 1596.704087
_symmetry_space_group_name_H-M "C 2/C"
_symmetry_group_IT_number 15
_symmetry_cell_setting 'monoclinic'
loop_
_space_group_symop_operation_xyz
x,y,z
-x,y,1/2-z
-x,-y,-z
x,-y,1/2+z
1/2+x,1/2+y,z
1/2-x,1/2+y,1/2-z
1/2-x,1/2-y,-z
1/2+x,1/2-y,1/2+z
loop_
_atom_site_type_symbol
_atom_site_label
_atom_site_fract_x
_atom_site_fract_y
_atom_site_fract_z
Si Si1 0.000867 0.627486 0.893544
Si Si2 0.051383 0.049216 0.079204
Si Si3 0.817120 0.435910 0.654371
Si Si4 0.756044 0.142611 0.972178
Si Si5 0.242252 0.197523 0.294776
O O1 0.116413 0.537490 0.828252
O O2 0.174920 0.645129 0.914987
O O3 0.033138 0.725201 0.845595
O O4 0.751680 0.600849 0.986400
O O5 0.132888 0.052006 0.137823
O O6 0.823522 0.115707 0.134679
O O7 0.035795 0.935510 0.067476
O O8 0.763871 0.353436 0.718626
O O9 0.047811 0.410175 0.559119
O O10 0.750000 0.250000 0.000000
O O11 0.500000 0.237558 0.250000
#
# Coordination Sequence:
#
# PCOD9307329 Si02
#       5
#     8   8   8   8   8
#     4   9  20  39  60  81 114 158 198 232 281 351
#     4   9  20  40  62  82 114 158 199 232 280 358
#     4   9  20  38  59  83 110 151 200 234 278 346
#     4   9  17  36  64  87 109 150 194 233 285 349
#     4  12  23  35  56  91 121 147 188 251 301 328
#
# _framework density 25.051604999999999
#
# number of rings (size 3 to 8) (size 9 to 14) (size 15 to 20)
#    0.000    2.400    0.000    4.800    0.000    4.800 
#    0.000   15.000    0.000    0.000    0.000    0.000 
#    0.000    0.000    0.000    0.000    0.000    0.000 
#
# Total GULP energy -111726.021027 kJ/mol
# GULP energy per Si atom -5586.301051 kJ/mol
# Density = 2.499459 g / cm^3
# Si number density = 25.051605 Si / 1000 Ang^3
#
#
#
# Elastic Constant Matrix: (Units=GPa)
#
#
# Indices 1 2 3 4 5 6 
#
# 1 45.2106 -9.6962 5.2786 -0.0003 11.7337 0.0004
# 2 -9.6962 114.4072 21.3791 -0.0003 15.6400 0.0003
# 3 5.2786 21.3791 82.9878 0.0005 4.2986 -0.0015
# 4 -0.0003 -0.0003 0.0005 36.3548 -0.0003 16.4121
# 5 11.7337 15.6400 4.2986 -0.0003 22.8645 0.0002
# 6 0.0004 0.0003 -0.0015 16.4121 0.0002 11.1519
#
#
#
# Elastic Compliance Matrix: (Units=1/GPa)
#
#
# Indices 1 2 3 4 5 6 
#
# 1 0.028035 0.005184 -0.002211 0.000002 -0.017517 -0.000004
# 2 0.005184 0.011002 -0.002662 0.000001 -0.009685 -0.000003
# 3 -0.002211 -0.002662 0.012848 -0.000003 0.000540 0.000006
# 4 0.000002 0.000001 -0.000003 0.081958 0.000001 -0.120616
# 5 -0.017517 -0.009685 0.000540 0.000001 0.059249 -0.000001
# 6 -0.000004 -0.000003 0.000006 -0.120616 -0.000001 0.267179
#
#
# Mechanical properties :
#
#
# Convention : Reuss Voigt Hill
#
# Bulk Modulus (GPa) = 19.04553 30.72542 24.88547
# Shear Modulus (GPa) = 10.47885 29.11719 19.79802
#
# Velocity S-wave (km/s) = 2.04743 3.41293 2.81426
# Velocity P-wave (km/s) = 3.63433 5.27468 4.52938
#
# Compressibility (1/GPa) = 0.05250576
#
# Stress axis : x y z
#
# Youngs Moduli (GPa) = 35.66967 90.89615 77.83028
#
# Poissons Ratio (x) = -0.47120 0.17211
# Poissons Ratio (y) = -0.18491 0.20720
# Poissons Ratio (z) = 0.07888 0.24199
#
# Static dielectric constant tensor:
#      x y z
#    x 2.084630 0.000000 0.018520 
#    y 0.000000 2.113610 0.000000 
#    z 0.018520 0.000000 1.960230 
# 
# From -- ./inp_files/230964.got.cif
#   From: 2010.05.17/outbox.cif.g08.bks.cpg/sg15_116_cif.got.tgz:230964.got - 2010.06.03 18:47:42.
