data_PCOD9307733
_publ_section_title
;
Structure prediction by ZEFSAII (Michael W. Deem and Ramdas Pophale) SiO2 
 PCOD9307733
Probable space group: C 2/C
;
_chemical_formula_sum "Si O2"
_cell_formula_units_Z 48
_cell_length_a 6.581023
_cell_length_b 28.434672
_cell_length_c 13.854937
_cell_angle_alpha 90.000000
_cell_angle_beta 126.263161
_cell_angle_gamma 90.000000
_cell_volume 2090.487445
_symmetry_space_group_name_H-M "C 2/C"
_symmetry_group_IT_number 15
_symmetry_cell_setting 'monoclinic'
loop_
_space_group_symop_operation_xyz
x,y,z
-x,y,1/2-z
-x,-y,-z
x,-y,1/2+z
1/2+x,1/2+y,z
1/2-x,1/2+y,1/2-z
1/2-x,1/2-y,-z
1/2+x,1/2-y,1/2+z
loop_
_atom_site_type_symbol
_atom_site_label
_atom_site_fract_x
_atom_site_fract_y
_atom_site_fract_z
Si Si1 0.432058 0.067536 0.587175
Si Si2 0.000000 0.095795 0.750000
Si Si3 0.000000 0.491472 0.750000
Si Si4 0.092610 0.674495 0.378994
Si Si5 0.873445 0.152297 0.905459
Si Si6 0.758688 0.244047 0.119523
Si Si7 0.281963 0.081305 0.332096
O O1 0.352295 0.025937 0.636118
O O2 0.337414 0.060860 0.452936
O O3 0.736270 0.068262 0.672248
O O4 0.321970 0.116868 0.597691
O O5 0.980016 0.126954 0.840575
O O6 0.176743 0.458033 0.736851
O O7 0.982204 0.711502 0.423952
O O8 0.968334 0.624214 0.365547
O O9 0.000000 0.692092 0.250000
O O10 0.388697 0.664930 0.460964
O O11 0.767982 0.202964 0.848824
O O12 0.000000 0.224666 0.250000
O O13 0.750000 0.250000 0.000000
O O14 0.000000 0.099696 0.250000
#
# Coordination Sequence:
#
# PCOD9307733 Si02
#       7
#     8   4   4   8   8   8   8
#     4  12  26  50  75 107 148 193 247 319 370 447
#     4  12  24  46  77 106 144 197 244 304 376 434
#     4  12  28  48  71 114 144 195 256 310 384 444
#     4  12  25  48  73 110 154 199 245 310 379 449
#     4  12  26  46  79 108 150 196 256 302 379 447
#     4  12  27  46  75 114 154 198 256 308 375 455
#     4  12  27  48  75 105 149 200 249 308 383 449
#
# _framework density 22.961154000000001
#
# number of rings (size 3 to 8) (size 9 to 14) (size 15 to 20)
#    0.000    0.000    4.167    5.500    4.667    0.667 
#    0.000    0.000    0.000    0.000    0.000    0.000 
#    0.000    0.000    0.000    0.000    0.000    0.000 
#
# Total GULP energy -134357.220231 kJ/mol
# GULP energy per Si atom -5598.217510 kJ/mol
# Density = 2.290889 g / cm^3
# Si number density = 22.961154 Si / 1000 Ang^3
#
#
#
# Elastic Constant Matrix: (Units=GPa)
#
#
# Indices 1 2 3 4 5 6 
#
# 1 90.3803 41.0865 47.0939 0.0000 -1.9196 0.0000
# 2 41.0865 112.4142 -4.0978 0.0000 0.0130 0.0000
# 3 47.0939 -4.0978 103.4896 0.0000 0.4538 0.0000
# 4 0.0000 0.0000 0.0000 14.4344 0.0000 1.3729
# 5 -1.9196 0.0130 0.4538 0.0000 61.7275 0.0000
# 6 0.0000 0.0000 0.0000 1.3729 0.0000 -18.4032
#
#
#
# Elastic Compliance Matrix: (Units=1/GPa)
#
#
# Indices 1 2 3 4 5 6 
#
# 1 0.019069 -0.007297 -0.008969 0.000000 0.000660 0.000000
# 2 -0.007297 0.011701 0.003785 0.000000 -0.000257 0.000000
# 3 -0.008969 0.003785 0.013896 0.000000 -0.000382 0.000000
# 4 0.000000 0.000000 0.000000 0.068791 0.000000 0.005132
# 5 0.000660 -0.000257 -0.000382 0.000000 0.016224 0.000000
# 6 0.000000 0.000000 0.000000 0.005132 0.000000 -0.053956
#
#
# Mechanical properties :
#
#
# Convention : Reuss Voigt Hill
#
# Bulk Modulus (GPa) = 50.75320 52.71657 51.73488
# Shear Modulus (GPa) = 46.61809 26.36517 36.49163
#
# Velocity S-wave (km/s) = 4.51078 3.39226 3.99090
# Velocity P-wave (km/s) = 7.02007 6.19291 6.61942
#
# Compressibility (1/GPa) = 0.01970319
#
# Stress axis : x y z
#
# Youngs Moduli (GPa) = 52.44115 85.46629 71.96351
#
# Poissons Ratio (x) = 0.62361 0.64547
# Poissons Ratio (y) = 0.38264 -0.27237
# Poissons Ratio (z) = 0.47036 -0.32347
#
# Static dielectric constant tensor:
#      x y z
#    x 1.870690 0.000000 0.011740 
#    y 0.000000 1.817300 0.000000 
#    z 0.011740 0.000000 1.901210 
# 
# From -- ./inp_files/130967.got.cif
#   From: 2010.05.17/outbox.cif.g08.bks.cpg/sg15_66_cif.got.tgz:130967.got - 2010.06.03 18:47:42.
