data_PCOD9307374
_publ_section_title
;
Structure prediction by ZEFSAII (Michael W. Deem and Ramdas Pophale) SiO2 
 PCOD9307374
Probable space group: C 2/C
;
_chemical_formula_sum "Si O2"
_cell_formula_units_Z 48
_cell_length_a 8.676023
_cell_length_b 11.939813
_cell_length_c 21.809294
_cell_angle_alpha 90.000000
_cell_angle_beta 104.584246
_cell_angle_gamma 90.000000
_cell_volume 2186.430971
_symmetry_space_group_name_H-M "C 2/C"
_symmetry_group_IT_number 15
_symmetry_cell_setting 'monoclinic'
loop_
_space_group_symop_operation_xyz
x,y,z
-x,y,1/2-z
-x,-y,-z
x,-y,1/2+z
1/2+x,1/2+y,z
1/2-x,1/2+y,1/2-z
1/2-x,1/2-y,-z
1/2+x,1/2-y,1/2+z
loop_
_atom_site_type_symbol
_atom_site_label
_atom_site_fract_x
_atom_site_fract_y
_atom_site_fract_z
Si Si1 0.884184 0.129452 0.186755
Si Si2 0.530095 0.194719 0.183193
Si Si3 0.019265 0.063808 0.877680
Si Si4 0.877826 0.720763 0.567115
Si Si5 0.821843 0.637955 0.978869
Si Si6 0.698749 0.983139 0.899186
O O1 0.702446 0.138448 0.190663
O O2 0.892281 0.183549 0.119574
O O3 0.000000 0.181993 0.250000
O O4 0.947960 0.004905 0.180512
O O5 0.500000 0.228545 0.250000
O O6 0.525992 0.306951 0.141237
O O7 0.392649 0.104194 0.153187
O O8 0.187305 0.073064 0.928317
O O9 0.886850 0.995170 0.903440
O O10 0.750000 0.750000 0.500000
O O11 0.463916 0.815947 0.452396
O O12 0.844445 0.612834 0.606043
O O13 0.750000 0.750000 0.000000
O O14 0.857694 0.558603 0.039672
#
# Coordination Sequence:
#
# PCOD9307374 Si02
#       6
#     8   8   8   8   8   8
#     4  12  27  49  73 107 147 197 253 307 380 453
#     4  12  27  48  73 103 148 191 251 311 371 445
#     4  12  25  48  73 108 148 191 250 306 374 451
#     4  12  25  46  76 110 152 197 252 311 375 452
#     4  12  23  41  74 107 150 189 243 305 374 439
#     4  12  24  47  72 108 147 195 243 307 378 443
#
# _framework density 21.953586000000001
#
# number of rings (size 3 to 8) (size 9 to 14) (size 15 to 20)
#    0.000    0.000    3.333    7.500    2.333    0.667 
#    3.000    0.000    0.000    0.000    0.000    0.000 
#    0.000    0.000    0.000    0.000    0.000    0.000 
#
# Total GULP energy -134051.214582 kJ/mol
# GULP energy per Si atom -5585.467274 kJ/mol
# Density = 2.190362 g / cm^3
# Si number density = 21.953586 Si / 1000 Ang^3
#
#
#
# Elastic Constant Matrix: (Units=GPa)
#
#
# Indices 1 2 3 4 5 6 
#
# 1 144.2358 15.9624 21.1433 0.0000 -1.5860 0.0000
# 2 15.9624 91.1694 11.3868 0.0000 -0.2901 0.0000
# 3 21.1433 11.3868 114.4635 0.0000 10.8300 0.0000
# 4 0.0000 0.0000 0.0000 35.6861 0.0000 -0.2680
# 5 -1.5860 -0.2901 10.8300 0.0000 27.1518 0.0000
# 6 0.0000 0.0000 0.0000 -0.2680 0.0000 23.8745
#
#
#
# Elastic Compliance Matrix: (Units=1/GPa)
#
#
# Indices 1 2 3 4 5 6 
#
# 1 0.007259 -0.001103 -0.001320 0.000000 0.000939 0.000000
# 2 -0.001103 0.011283 -0.000960 0.000000 0.000439 0.000000
# 3 -0.001320 -0.000960 0.009440 0.000000 -0.003853 0.000000
# 4 0.000000 0.000000 0.000000 0.028025 0.000000 0.000315
# 5 0.000939 0.000439 -0.003853 0.000000 0.038426 0.000000
# 6 0.000000 0.000000 0.000000 0.000315 0.000000 0.041889
#
#
# Mechanical properties :
#
#
# Convention : Reuss Voigt Hill
#
# Bulk Modulus (GPa) = 47.13468 49.65041 48.39254
# Shear Modulus (GPa) = 33.29767 37.43423 35.36595
#
# Velocity S-wave (km/s) = 3.89875 4.13383 4.01801
# Velocity P-wave (km/s) = 6.46403 6.74166 6.60430
#
# Compressibility (1/GPa) = 0.02121580
#
# Stress axis : x y z
#
# Youngs Moduli (GPa) = 137.76045 88.62853 105.92907
#
# Poissons Ratio (x) = 0.09777 0.13982
# Poissons Ratio (y) = 0.15196 0.10172
# Poissons Ratio (z) = 0.18183 0.08510
#
# Static dielectric constant tensor:
#      x y z
#    x 1.905120 0.000000 0.181840 
#    y 0.000000 2.626700 0.000000 
#    z 0.181840 0.000000 2.673490 
# 
# From -- ./inp_files/263565.got.cif
#   From: 2010.05.17/outbox.cif.g08.bks.cpg/sg15_132_cif.got.tgz:263565.got - 2010.06.03 18:47:42.
