data_PCOD9307870
_publ_section_title
;
Structure prediction by ZEFSAII (Michael W. Deem and Ramdas Pophale) SiO2 
 PCOD9307870
Probable space group: C 2/C
;
_chemical_formula_sum "Si O2"
_cell_formula_units_Z 36
_cell_length_a 12.205540
_cell_length_b 18.716657
_cell_length_c 7.725980
_cell_angle_alpha 90.000000
_cell_angle_beta 54.212371
_cell_angle_gamma 90.000000
_cell_volume 1431.731242
_symmetry_space_group_name_H-M "C 2/C"
_symmetry_group_IT_number 15
_symmetry_cell_setting 'monoclinic'
loop_
_space_group_symop_operation_xyz
x,y,z
-x,y,1/2-z
-x,-y,-z
x,-y,1/2+z
1/2+x,1/2+y,z
1/2-x,1/2+y,1/2-z
1/2-x,1/2-y,-z
1/2+x,1/2-y,1/2+z
loop_
_atom_site_type_symbol
_atom_site_label
_atom_site_fract_x
_atom_site_fract_y
_atom_site_fract_z
Si Si1 0.730529 0.451077 0.843733
Si Si2 0.601722 0.821812 0.316507
Si Si3 0.651117 0.404497 0.549890
Si Si4 0.000000 0.589549 0.250000
Si Si5 0.865618 0.202314 0.979394
O O1 0.733804 0.428550 0.642515
O O2 0.878088 0.457814 0.790200
O O3 0.647461 0.523434 0.939221
O O4 0.668401 0.380781 0.989382
O O5 0.500000 0.833078 0.250000
O O6 0.548023 0.862769 0.539816
O O7 0.612419 0.738193 0.354245
O O8 0.753294 0.848295 0.134349
O O9 0.500000 0.386508 0.750000
O O10 0.000000 0.212542 0.750000
O O11 0.750000 0.250000 0.000000
#
# Coordination Sequence:
#
# PCOD9307870 Si02
#       5
#     8   8   8   4   8
#     4  12  27  48  80 113 171 211 267 336 401 489
#     4  12  26  51  83 120 158 211 275 329 402 489
#     4  12  29  49  78 123 162 215 270 335 410 481
#     4  12  24  52  76 126 154 212 266 328 410 462
#     4  12  27  49  79 113 160 212 262 333 404 474
#
# _framework density 25.144385
#
# number of rings (size 3 to 8) (size 9 to 14) (size 15 to 20)
#    0.000    0.000    5.556    2.667    4.667    3.556 
#    0.000    0.000    0.000    0.000    0.000    0.000 
#    0.000    0.000    0.000    0.000    0.000    0.000 
#
# Total GULP energy -100946.402360 kJ/mol
# GULP energy per Si atom -5608.133464 kJ/mol
# Density = 2.508716 g / cm^3
# Si number density = 25.144385 Si / 1000 Ang^3
#
#
#
# Elastic Constant Matrix: (Units=GPa)
#
#
# Indices 1 2 3 4 5 6 
#
# 1 121.3825 14.7483 55.9065 0.0000 -4.6199 0.0000
# 2 14.7483 104.8486 58.9475 0.0000 -27.8780 0.0000
# 3 55.9065 58.9475 160.0999 0.0000 -30.6182 0.0000
# 4 0.0000 0.0000 0.0000 -25.4828 0.0000 37.5025
# 5 -4.6199 -27.8780 -30.6182 0.0000 51.0410 0.0000
# 6 0.0000 0.0000 0.0000 37.5025 0.0000 11.3550
#
#
#
# Elastic Compliance Matrix: (Units=1/GPa)
#
#
# Indices 1 2 3 4 5 6 
#
# 1 0.009913 0.000464 -0.003855 0.000000 -0.001162 0.000000
# 2 0.000464 0.013001 -0.004047 0.000000 0.004715 0.000000
# 3 -0.003855 -0.004047 0.009706 0.000000 0.003263 0.000000
# 4 0.000000 0.000000 0.000000 -0.006696 0.000000 0.022115
# 5 -0.001162 0.004715 0.003263 0.000000 0.024020 0.000000
# 6 0.000000 0.000000 0.000000 0.022115 0.000000 0.015027
#
#
# Mechanical properties :
#
#
# Convention : Reuss Voigt Hill
#
# Bulk Modulus (GPa) = 56.35380 71.72619 64.04000
# Shear Modulus (GPa) = 58.30014 24.49788 41.39901
#
# Velocity S-wave (km/s) = 4.82042 3.12475 4.06205
# Velocity P-wave (km/s) = 7.31045 6.45030 6.89380
#
# Compressibility (1/GPa) = 0.01774503
#
# Stress axis : x y z
#
# Youngs Moduli (GPa) = 100.87549 76.91421 103.02549
#
# Poissons Ratio (x) = -0.03567 0.39712
# Poissons Ratio (y) = -0.04679 0.41697
# Poissons Ratio (z) = 0.38884 0.31129
#
# Static dielectric constant tensor:
#      x y z
#    x 2.000400 0.000000 0.027340 
#    y 0.000000 2.120510 0.000000 
#    z 0.027340 0.000000 1.984050 
# 
# From -- ./inp_files/41185.got.cif
#   From: 2010.05.17/outbox.cif.g08.bks.cpg/sg15_21_cif.got.tgz:41185.got - 2010.06.03 18:47:42.
