data_PCOD9307572
_publ_section_title
;
Structure prediction by ZEFSAII (Michael W. Deem and Ramdas Pophale) SiO2 
 PCOD9307572
Probable space group: C 2/C
;
_chemical_formula_sum "Si O2"
_cell_formula_units_Z 44
_cell_length_a 16.552817
_cell_length_b 15.220566
_cell_length_c 20.875455
_cell_angle_alpha 90.000000
_cell_angle_beta 21.789385
_cell_angle_gamma 90.000000
_cell_volume 1952.278330
_symmetry_space_group_name_H-M "C 2/C"
_symmetry_group_IT_number 15
_symmetry_cell_setting 'monoclinic'
loop_
_space_group_symop_operation_xyz
x,y,z
-x,y,1/2-z
-x,-y,-z
x,-y,1/2+z
1/2+x,1/2+y,z
1/2-x,1/2+y,1/2-z
1/2-x,1/2-y,-z
1/2+x,1/2-y,1/2+z
loop_
_atom_site_type_symbol
_atom_site_label
_atom_site_fract_x
_atom_site_fract_y
_atom_site_fract_z
Si Si1 0.403361 0.666466 0.891017
Si Si2 0.276676 0.646094 0.286730
Si Si3 0.500000 0.610932 0.250000
Si Si4 0.269175 0.489989 0.203754
Si Si5 0.681197 0.192104 0.827960
Si Si6 0.622942 0.998790 0.597720
O O1 0.500000 0.643955 0.750000
O O2 0.601127 0.690632 0.791250
O O3 0.250000 0.750000 0.000000
O O4 0.259136 0.585192 0.021247
O O5 0.391533 0.660563 0.270195
O O6 0.292694 0.545313 0.252043
O O7 0.366193 0.714568 0.169325
O O8 0.023404 0.667414 0.478602
O O9 0.300599 0.556824 0.429120
O O10 0.211344 0.388109 0.256272
O O11 0.068611 0.528193 0.310358
O O12 0.500000 0.500000 0.000000
O O13 0.500000 0.039968 0.750000
#
# Coordination Sequence:
#
# PCOD9307572 Si02
#       6
#     8   8   4   8   8   8
#     4  12  24  41  69 106 149 189 239 305 372 440
#     4  12  27  47  74 106 147 193 251 302 371 442
#     4  12  26  50  74 106 144 198 250 306 366 434
#     4  12  25  47  74 108 147 196 242 302 374 439
#     4  12  25  46  70 106 146 193 240 304 369 438
#     4  12  25  45  74 110 146 191 247 302 370 444
#
# _framework density 22.537769999999998
#
# number of rings (size 3 to 8) (size 9 to 14) (size 15 to 20)
#    0.000    0.000    2.727    8.727    0.000    0.727 
#    1.636    0.000    0.000    0.000    0.000    0.000 
#    0.000    0.000    0.000    0.000    0.000    0.000 
#
# Total GULP energy -123183.913417 kJ/mol
# GULP energy per Si atom -5599.268792 kJ/mol
# Density = 2.248647 g / cm^3
# Si number density = 22.537770 Si / 1000 Ang^3
#
#
#
# Elastic Constant Matrix: (Units=GPa)
#
#
# Indices 1 2 3 4 5 6 
#
# 1 112.9782 3.8663 19.2965 -0.0072 -26.5749 0.0156
# 2 3.8663 44.0409 11.0104 0.0017 -5.4479 0.0011
# 3 19.2965 11.0104 134.6983 -0.0560 -0.0883 0.0209
# 4 -0.0072 0.0017 -0.0560 36.9772 0.0407 -4.2078
# 5 -26.5749 -5.4479 -0.0883 0.0407 50.1423 -0.0240
# 6 0.0156 0.0011 0.0209 -4.2078 -0.0240 50.6005
#
#
#
# Elastic Compliance Matrix: (Units=1/GPa)
#
#
# Indices 1 2 3 4 5 6 
#
# 1 0.010402 0.000145 -0.001498 -0.000006 0.005526 0.000000
# 2 0.000145 0.023503 -0.001940 -0.000007 0.002627 0.000001
# 3 -0.001498 -0.001940 0.007797 0.000012 -0.000991 -0.000002
# 4 -0.000006 -0.000007 0.000012 0.027302 -0.000025 0.002270
# 5 0.005526 0.002627 -0.000991 -0.000025 0.023156 0.000008
# 6 0.000000 0.000001 -0.000002 0.002270 0.000008 0.019951
#
#
# Mechanical properties :
#
#
# Convention : Reuss Voigt Hill
#
# Bulk Modulus (GPa) = 28.47795 40.00707 34.24251
# Shear Modulus (GPa) = 38.34246 44.71360 41.52803
#
# Velocity S-wave (km/s) = 4.12910 4.45898 4.29721
# Velocity P-wave (km/s) = 5.94943 6.65580 6.31250
#
# Compressibility (1/GPa) = 0.03511489
#
# Stress axis : x y z
#
# Youngs Moduli (GPa) = 96.13451 42.54690 128.26086
#
# Poissons Ratio (x) = -0.00617 0.19219
# Poissons Ratio (y) = -0.01394 0.24886
# Poissons Ratio (z) = 0.14405 0.08255
#
# Static dielectric constant tensor:
#      x y z
#    x 1.904350 0.000110 0.044860 
#    y 0.000110 1.867280 0.000060 
#    z 0.044860 0.000060 1.807420 
# 
# From -- ./inp_files/277613.got.cif
#   From: 2010.05.17/outbox.cif.g08.bks.cpg/sg15_139_cif.got.tgz:277613.got - 2010.06.03 18:47:42.
