data_PCOD9307225
_publ_section_title
;
Structure prediction by ZEFSAII (Michael W. Deem and Ramdas Pophale) SiO2 
 PCOD9307225
Probable space group: C 2/C
;
_chemical_formula_sum "Si O2"
_cell_formula_units_Z 52
_cell_length_a 21.408886
_cell_length_b 8.766681
_cell_length_c 16.924623
_cell_angle_alpha 90.000000
_cell_angle_beta 135.715608
_cell_angle_gamma 90.000000
_cell_volume 2217.893797
_symmetry_space_group_name_H-M "C 2/C"
_symmetry_group_IT_number 15
_symmetry_cell_setting 'monoclinic'
loop_
_space_group_symop_operation_xyz
x,y,z
-x,y,1/2-z
-x,-y,-z
x,-y,1/2+z
1/2+x,1/2+y,z
1/2-x,1/2+y,1/2-z
1/2-x,1/2-y,-z
1/2+x,1/2-y,1/2+z
loop_
_atom_site_type_symbol
_atom_site_label
_atom_site_fract_x
_atom_site_fract_y
_atom_site_fract_z
Si Si1 0.415648 0.612461 0.625854
Si Si2 0.167406 0.428138 0.911030
Si Si3 0.232509 0.979232 0.158850
Si Si4 0.210323 0.124444 0.404580
Si Si5 0.139092 0.759315 0.674064
Si Si6 0.000000 0.363347 0.250000
Si Si7 0.550348 0.344869 0.946908
O O1 0.500000 0.667926 0.750000
O O2 0.352545 0.758616 0.577857
O O3 0.367813 0.474917 0.627966
O O4 0.454905 0.523685 0.585008
O O5 0.232453 0.458725 0.894431
O O6 0.081233 0.523291 0.805573
O O7 0.207950 0.508237 0.025742
O O8 0.313723 0.906888 0.283632
O O9 0.188243 0.123356 0.161133
O O10 0.152418 0.852082 0.073340
O O11 0.250000 0.250000 0.500000
O O12 0.169098 0.191372 0.289312
O O13 0.031885 0.787612 0.572623
O O14 0.032535 0.260896 0.353438
#
# Coordination Sequence:
#
# PCOD9307225 Si02
#       7
#     8   8   8   8   8   4   8
#     4  12  23  39  68 104 139 171 234 308 355 408
#     4  12  25  42  69 110 141 182 239 309 360 429
#     4  12  28  46  70 101 148 192 239 292 382 442
#     4  12  22  45  74 100 134 190 244 294 359 425
#     4  12  26  46  70 102 146 193 236 300 360 444
#     4  12  22  42  76 102 144 182 252 302 356 426
#     4  12  23  45  74 105 138 192 249 296 363 442
#
# _framework density 23.445668000000001
#
# number of rings (size 3 to 8) (size 9 to 14) (size 15 to 20)
#    0.000    0.000    7.692    2.769    2.154    0.000 
#    0.000    0.769    0.000    0.000    0.000    0.000 
#    0.000    0.000    0.000    0.000    0.000    0.000 
#
# Total GULP energy -145035.464995 kJ/mol
# GULP energy per Si atom -5578.287115 kJ/mol
# Density = 2.339230 g / cm^3
# Si number density = 23.445668 Si / 1000 Ang^3
#
#
#
# Elastic Constant Matrix: (Units=GPa)
#
#
# Indices 1 2 3 4 5 6 
#
# 1 83.2101 42.9765 25.1557 0.0000 27.3582 0.0000
# 2 42.9765 114.8390 11.2914 0.0000 12.7021 0.0000
# 3 25.1557 11.2914 75.4662 0.0000 24.0940 0.0000
# 4 0.0000 0.0000 0.0000 48.4367 0.0000 11.5842
# 5 27.3582 12.7021 24.0940 0.0000 39.4267 0.0000
# 6 0.0000 0.0000 0.0000 11.5842 0.0000 29.3818
#
#
#
# Elastic Compliance Matrix: (Units=1/GPa)
#
#
# Indices 1 2 3 4 5 6 
#
# 1 0.018940 -0.005769 -0.002296 0.000000 -0.009881 0.000000
# 2 -0.005769 0.010804 0.000174 0.000000 0.000417 0.000000
# 3 -0.002296 0.000174 0.016772 0.000000 -0.008712 0.000000
# 4 0.000000 0.000000 0.000000 0.022795 0.000000 -0.008987
# 5 -0.009881 0.000417 -0.008712 0.000000 0.037410 0.000000
# 6 0.000000 0.000000 0.000000 -0.008987 0.000000 0.037578
#
#
# Mechanical properties :
#
#
# Convention : Reuss Voigt Hill
#
# Bulk Modulus (GPa) = 32.53802 48.04028 40.28915
# Shear Modulus (GPa) = 29.35549 36.38849 32.87199
#
# Velocity S-wave (km/s) = 3.54229 3.94386 3.74846
# Velocity P-wave (km/s) = 5.53522 6.42443 5.99633
#
# Compressibility (1/GPa) = 0.03073328
#
# Stress axis : x y z
#
# Youngs Moduli (GPa) = 52.79747 92.56005 59.62392
#
# Poissons Ratio (x) = 0.53402 0.13687
# Poissons Ratio (y) = 0.30461 -0.01036
# Poissons Ratio (z) = 0.12120 -0.01608
#
# Static dielectric constant tensor:
#      x y z
#    x 1.986540 0.000000 0.036730 
#    y 0.000000 1.959920 0.000000 
#    z 0.036730 0.000000 1.972780 
# 
# From -- ./inp_files/255084.got.cif
#   From: 2010.05.17/outbox.cif.g08.bks.cpg/sg15_128_cif.got.tgz:255084.got - 2010.06.03 18:47:42.
