data_PCOD9307082
_publ_section_title
;
Structure prediction by ZEFSAII (Michael W. Deem and Ramdas Pophale) SiO2 
 PCOD9307082
Probable space group: C 2/C
;
_chemical_formula_sum "Si O2"
_cell_formula_units_Z 48
_cell_length_a 8.679355
_cell_length_b 15.105095
_cell_length_c 16.213871
_cell_angle_alpha 90.000000
_cell_angle_beta 92.514136
_cell_angle_gamma 90.000000
_cell_volume 2123.632612
_symmetry_space_group_name_H-M "C 2/C"
_symmetry_group_IT_number 15
_symmetry_cell_setting 'monoclinic'
loop_
_space_group_symop_operation_xyz
x,y,z
-x,y,1/2-z
-x,-y,-z
x,-y,1/2+z
1/2+x,1/2+y,z
1/2-x,1/2+y,1/2-z
1/2-x,1/2-y,-z
1/2+x,1/2-y,1/2+z
loop_
_atom_site_type_symbol
_atom_site_label
_atom_site_fract_x
_atom_site_fract_y
_atom_site_fract_z
Si Si1 0.861971 0.234102 0.425912
Si Si2 0.916089 0.905950 0.483067
Si Si3 0.369491 0.877331 0.676497
Si Si4 0.856921 0.045744 0.798134
Si Si5 0.599130 0.940889 0.562461
Si Si6 0.624703 0.897459 0.180768
O O1 0.750000 0.250000 0.500000
O O2 0.767451 0.190154 0.347594
O O3 0.918406 0.326314 0.389113
O O4 0.988588 0.168346 0.466363
O O5 0.902973 0.905253 0.383623
O O6 0.747415 0.906171 0.519430
O O7 0.000000 0.000000 0.500000
O O8 0.500000 0.864940 0.750000
O O9 0.478411 0.873797 0.598489
O O10 0.274012 0.970823 0.683672
O O11 0.783943 0.115999 0.732887
O O12 0.000000 0.004971 0.750000
O O13 0.500000 0.000000 0.500000
O O14 0.645058 0.007825 0.637142
O O15 0.500000 0.898026 0.250000
#
# Coordination Sequence:
#
# PCOD9307082 Si02
#       6
#     8   8   8   8   8   8
#     4  12  28  47  69 109 154 188 242 314 371 427
#     4  12  24  43  75 109 139 200 249 298 365 445
#     4  12  25  44  73 102 139 192 243 292 364 437
#     4  12  23  43  75 103 140 188 248 294 360 443
#     4  12  21  44  75 102 142 192 252 293 355 456
#     4  12  25  47  70 103 151 186 233 312 375 417
#
# _framework density 22.602781
#
# number of rings (size 3 to 8) (size 9 to 14) (size 15 to 20)
#    0.000    0.000    6.667    4.000    0.000    4.000 
#    0.000    5.833    0.000    0.000    0.000    0.000 
#    0.000    0.000    0.000    0.000    0.000    0.000 
#
# Total GULP energy -134085.904632 kJ/mol
# GULP energy per Si atom -5586.912693 kJ/mol
# Density = 2.255134 g / cm^3
# Si number density = 22.602781 Si / 1000 Ang^3
#
#
#
# Elastic Constant Matrix: (Units=GPa)
#
#
# Indices 1 2 3 4 5 6 
#
# 1 141.8755 22.0337 40.5737 0.0000 -9.9199 0.0000
# 2 22.0337 63.1416 12.3400 0.0000 8.2088 0.0000
# 3 40.5737 12.3400 122.6320 0.0000 7.9422 0.0000
# 4 0.0000 0.0000 0.0000 33.9981 0.0000 14.0953
# 5 -9.9199 8.2088 7.9422 0.0000 61.3399 0.0000
# 6 0.0000 0.0000 0.0000 14.0953 0.0000 29.6077
#
#
#
# Elastic Compliance Matrix: (Units=1/GPa)
#
#
# Indices 1 2 3 4 5 6 
#
# 1 0.008358 -0.002669 -0.002630 0.000000 0.002049 0.000000
# 2 -0.002669 0.017247 -0.000681 0.000000 -0.002652 0.000000
# 3 -0.002630 -0.000681 0.009192 0.000000 -0.001524 0.000000
# 4 0.000000 0.000000 0.000000 0.036647 0.000000 -0.017446
# 5 0.002049 -0.002652 -0.001524 0.000000 0.017186 0.000000
# 6 0.000000 0.000000 0.000000 -0.017446 0.000000 0.042081
#
#
# Mechanical properties :
#
#
# Convention : Reuss Voigt Hill
#
# Bulk Modulus (GPa) = 43.78697 53.06044 48.42370
# Shear Modulus (GPa) = 33.27094 41.83591 37.55343
#
# Velocity S-wave (km/s) = 3.84081 4.30690 4.08051
# Velocity P-wave (km/s) = 6.25168 6.94684 6.60841
#
# Compressibility (1/GPa) = 0.02283785
#
# Stress axis : x y z
#
# Youngs Moduli (GPa) = 119.64226 57.98249 108.79402
#
# Poissons Ratio (x) = 0.15477 0.28608
# Poissons Ratio (y) = 0.31935 0.07405
# Poissons Ratio (z) = 0.31460 0.03946
#
# Static dielectric constant tensor:
#      x y z
#    x 1.889380 0.000000 0.067990 
#    y 0.000000 1.955040 0.000000 
#    z 0.067990 0.000000 1.884760 
# 
# From -- ./inp_files/134818.got.cif
#   From: 2010.05.17/outbox.cif.g08.bks.cpg/sg15_68_cif.got.tgz:134818.got - 2010.06.03 18:47:42.
