data_PCOD9307737
_publ_section_title
;
Structure prediction by ZEFSAII (Michael W. Deem and Ramdas Pophale) SiO2 
 PCOD9307737
Probable space group: C 2/C
;
_chemical_formula_sum "Si O2"
_cell_formula_units_Z 40
_cell_length_a 14.731482
_cell_length_b 14.935078
_cell_length_c 10.506829
_cell_angle_alpha 90.000000
_cell_angle_beta 43.578885
_cell_angle_gamma 90.000000
_cell_volume 1593.554898
_symmetry_space_group_name_H-M "C 2/C"
_symmetry_group_IT_number 15
_symmetry_cell_setting 'monoclinic'
loop_
_space_group_symop_operation_xyz
x,y,z
-x,y,1/2-z
-x,-y,-z
x,-y,1/2+z
1/2+x,1/2+y,z
1/2-x,1/2+y,1/2-z
1/2-x,1/2-y,-z
1/2+x,1/2-y,1/2+z
loop_
_atom_site_type_symbol
_atom_site_label
_atom_site_fract_x
_atom_site_fract_y
_atom_site_fract_z
Si Si1 0.137808 0.319701 0.142606
Si Si2 0.187119 0.680301 0.162469
Si Si3 0.884726 0.064572 0.575609
Si Si4 0.234283 0.498956 0.479123
Si Si5 0.558132 0.735855 0.454738
O O1 0.147448 0.411480 0.055392
O O2 0.123206 0.318392 0.309296
O O3 0.000000 0.275987 0.250000
O O4 0.250000 0.250000 0.000000
O O5 0.171413 0.583108 0.118438
O O6 0.044812 0.715907 0.347345
O O7 0.250000 0.750000 0.000000
O O8 0.310164 0.680880 0.137812
O O9 0.836695 0.038837 0.482271
O O10 0.954727 0.161506 0.505948
O O11 0.000000 0.000000 0.500000
O O12 0.784702 0.042120 0.794765
#
# Coordination Sequence:
#
# PCOD9307737 Si02
#       5
#     8   8   8   8   8
#     4  12  28  51  78 114 159 206 260 324 399 471
#     4  12  26  47  76 110 154 200 265 319 390 463
#     4  12  24  46  78 110 153 202 264 317 387 466
#     4  12  28  47  77 116 154 205 261 325 389 469
#     4  12  26  49  76 109 155 206 257 326 389 470
#
# _framework density 25.101112000000001
#
# number of rings (size 3 to 8) (size 9 to 14) (size 15 to 20)
#    0.000    0.000    4.000    6.000    2.800    2.400 
#    0.000    0.000    0.000    0.000    0.000    0.000 
#    0.000    0.000    0.000    0.000    0.000    0.000 
#
# Total GULP energy -111574.887901 kJ/mol
# GULP energy per Si atom -5578.744395 kJ/mol
# Density = 2.504398 g / cm^3
# Si number density = 25.101112 Si / 1000 Ang^3
#
#
#
# Elastic Constant Matrix: (Units=GPa)
#
#
# Indices 1 2 3 4 5 6 
#
# 1 87.9226 8.9518 38.1078 0.0000 -5.7699 0.0000
# 2 8.9518 162.8183 55.5058 0.0000 2.3971 0.0000
# 3 38.1078 55.5058 154.3446 0.0000 -8.0097 0.0000
# 4 0.0000 0.0000 0.0000 38.1626 0.0000 2.9282
# 5 -5.7699 2.3971 -8.0097 0.0000 32.9379 0.0000
# 6 0.0000 0.0000 0.0000 2.9282 0.0000 39.4598
#
#
#
# Elastic Compliance Matrix: (Units=1/GPa)
#
#
# Indices 1 2 3 4 5 6 
#
# 1 0.012829 0.000374 -0.003227 0.000000 0.001435 0.000000
# 2 0.000374 0.007053 -0.002686 0.000000 -0.001101 0.000000
# 3 -0.003227 -0.002686 0.008328 0.000000 0.001655 0.000000
# 4 0.000000 0.000000 0.000000 0.026354 0.000000 -0.001956
# 5 0.001435 -0.001101 0.001655 0.000000 0.031094 0.000000
# 6 0.000000 0.000000 0.000000 -0.001956 0.000000 0.025487
#
#
# Mechanical properties :
#
#
# Convention : Reuss Voigt Hill
#
# Bulk Modulus (GPa) = 58.37556 67.80181 63.08869
# Shear Modulus (GPa) = 39.08277 42.28006 40.68142
#
# Velocity S-wave (km/s) = 3.95018 4.10858 4.03016
# Velocity P-wave (km/s) = 6.64168 7.04112 6.84432
#
# Compressibility (1/GPa) = 0.01713046
#
# Stress axis : x y z
#
# Youngs Moduli (GPa) = 77.95107 141.78148 120.08218
#
# Poissons Ratio (x) = -0.05299 0.38754
# Poissons Ratio (y) = -0.02914 0.32253
# Poissons Ratio (z) = 0.25157 0.38081
#
# Static dielectric constant tensor:
#      x y z
#    x 2.559480 0.000000 -0.041790 
#    y 0.000000 1.892120 0.000000 
#    z -0.041790 0.000000 2.024300 
# 
# From -- ./inp_files/105129.got.cif
#   From: 2010.05.17/outbox.cif.g08.bks.cpg/sg15_53_cif.got.tgz:105129.got - 2010.06.03 18:47:42.
