data_PCOD9307958
_publ_section_title
;
Structure prediction by ZEFSAII (Michael W. Deem and Ramdas Pophale) SiO2 
 PCOD9307958
Probable space group: C 2/C
;
_chemical_formula_sum "Si O2"
_cell_formula_units_Z 36
_cell_length_a 13.665050
_cell_length_b 14.662243
_cell_length_c 11.661741
_cell_angle_alpha 90.000000
_cell_angle_beta 40.464198
_cell_angle_gamma 90.000000
_cell_volume 1516.357159
_symmetry_space_group_name_H-M "C 2/C"
_symmetry_group_IT_number 15
_symmetry_cell_setting 'monoclinic'
loop_
_space_group_symop_operation_xyz
x,y,z
-x,y,1/2-z
-x,-y,-z
x,-y,1/2+z
1/2+x,1/2+y,z
1/2-x,1/2+y,1/2-z
1/2-x,1/2-y,-z
1/2+x,1/2-y,1/2+z
loop_
_atom_site_type_symbol
_atom_site_label
_atom_site_fract_x
_atom_site_fract_y
_atom_site_fract_z
Si Si1 0.846485 0.664636 0.452228
Si Si2 0.500000 0.545222 0.250000
Si Si3 0.111892 0.648808 0.815050
Si Si4 0.208824 0.965399 0.904096
Si Si5 0.743873 0.841546 0.863869
O O1 0.750000 0.750000 0.500000
O O2 0.875363 0.658685 0.559571
O O3 0.771592 0.575454 0.466867
O O4 0.000000 0.675912 0.250000
O O5 0.459682 0.490307 0.402631
O O6 0.643869 0.607039 0.150518
O O7 0.193422 0.553966 0.713768
O O8 0.201510 0.736789 0.688464
O O9 0.932949 0.650294 0.946607
O O10 0.228804 0.891030 0.785003
#
# Coordination Sequence:
#
# PCOD9307958 Si02
#       5
#     8   4   8   8   8
#     4  12  25  46  77 110 145 192 235 297 367 432
#     4  12  30  46  72 108 144 204 248 296 370 424
#     4  12  26  48  76 109 147 191 245 300 370 431
#     4  12  27  47  76 108 150 191 245 304 360 437
#     4  12  27  49  74 105 152 192 244 310 356 436
#
# _framework density 23.741109000000002
#
# number of rings (size 3 to 8) (size 9 to 14) (size 15 to 20)
#    0.000    0.000    4.444    4.000    4.667    5.333 
#    0.000    0.000    0.000    0.000    0.000    0.000 
#    0.000    0.000    0.000    0.000    0.000    0.000 
#
# Total GULP energy -100893.243027 kJ/mol
# GULP energy per Si atom -5605.180168 kJ/mol
# Density = 2.368707 g / cm^3
# Si number density = 23.741109 Si / 1000 Ang^3
#
#
#
# Elastic Constant Matrix: (Units=GPa)
#
#
# Indices 1 2 3 4 5 6 
#
# 1 88.2334 21.2481 18.9393 0.0000 -8.8469 0.0000
# 2 21.2481 145.3556 43.6286 0.0000 -16.8190 0.0000
# 3 18.9393 43.6286 104.6473 0.0000 -3.0485 0.0000
# 4 0.0000 0.0000 0.0000 55.1249 0.0000 7.5522
# 5 -8.8469 -16.8190 -3.0485 0.0000 34.4627 0.0000
# 6 0.0000 0.0000 0.0000 7.5522 0.0000 44.5260
#
#
#
# Elastic Compliance Matrix: (Units=1/GPa)
#
#
# Indices 1 2 3 4 5 6 
#
# 1 0.012190 -0.000974 -0.001727 0.000000 0.002501 0.000000
# 2 -0.000974 0.008402 -0.003223 0.000000 0.003565 0.000000
# 3 -0.001727 -0.003223 0.011182 0.000000 -0.001027 0.000000
# 4 0.000000 0.000000 0.000000 0.018572 0.000000 -0.003150
# 5 0.002501 0.003565 -0.001027 0.000000 0.031308 0.000000
# 6 0.000000 0.000000 0.000000 -0.003150 0.000000 0.022993
#
#
# Mechanical properties :
#
#
# Convention : Reuss Voigt Hill
#
# Bulk Modulus (GPa) = 50.18607 56.20761 53.19684
# Shear Modulus (GPa) = 40.60524 43.78408 42.19466
#
# Velocity S-wave (km/s) = 4.14011 4.29911 4.22036
# Velocity P-wave (km/s) = 6.63617 6.95484 6.79737
#
# Compressibility (1/GPa) = 0.01992585
#
# Stress axis : x y z
#
# Youngs Moduli (GPa) = 82.03674 119.02066 89.42826
#
# Poissons Ratio (x) = 0.11594 0.15446
# Poissons Ratio (y) = 0.07991 0.28820
# Poissons Ratio (z) = 0.14169 0.38357
#
# Static dielectric constant tensor:
#      x y z
#    x 1.856370 0.000000 0.009480 
#    y 0.000000 1.876940 0.000000 
#    z 0.009480 0.000000 1.945860 
# 
# From -- ./inp_files/96780.got.cif
#   From: 2010.05.17/outbox.cif.g08.bks.cpg/sg15_49_cif.got.tgz:96780.got - 2010.06.03 18:47:42.
