data_PCOD9307637
_publ_section_title
;
Structure prediction by ZEFSAII (Michael W. Deem and Ramdas Pophale) SiO2 
 PCOD9307637
Probable space group: C 2/C
;
_chemical_formula_sum "Si O2"
_cell_formula_units_Z 36
_cell_length_a 7.143105
_cell_length_b 16.809008
_cell_length_c 18.214933
_cell_angle_alpha 90.000000
_cell_angle_beta 129.052990
_cell_angle_gamma 90.000000
_cell_volume 1698.375543
_symmetry_space_group_name_H-M "C 2/C"
_symmetry_group_IT_number 15
_symmetry_cell_setting 'monoclinic'
loop_
_space_group_symop_operation_xyz
x,y,z
-x,y,1/2-z
-x,-y,-z
x,-y,1/2+z
1/2+x,1/2+y,z
1/2-x,1/2+y,1/2-z
1/2-x,1/2-y,-z
1/2+x,1/2-y,1/2+z
loop_
_atom_site_type_symbol
_atom_site_label
_atom_site_fract_x
_atom_site_fract_y
_atom_site_fract_z
Si Si1 0.198773 0.844491 0.495418
Si Si2 0.000000 0.169065 0.250000
Si Si3 0.767000 0.595835 0.848765
Si Si4 0.193071 0.292992 0.409582
Si Si5 0.427834 0.063388 0.313522
O O1 0.250000 0.750000 0.500000
O O2 0.256806 0.886924 0.432843
O O3 0.362852 0.882926 0.598980
O O4 0.915726 0.849660 0.444170
O O5 0.159075 0.225066 0.340854
O O6 0.183211 0.114984 0.249337
O O7 0.500000 0.603370 0.750000
O O8 0.870572 0.509993 0.852766
O O9 0.945287 0.659683 0.856472
O O10 0.250000 0.250000 0.500000
O O11 0.500000 0.036274 0.250000
#
# Coordination Sequence:
#
# PCOD9307637 Si02
#       5
#     8   4   8   8   8
#     4  12  25  47  75 106 141 187 240 293 354 422
#     4  12  24  44  72 100 146 180 240 292 348 422
#     4  12  28  47  72 105 147 187 236 292 362 423
#     4  12  25  43  75 108 137 186 240 293 350 419
#     4  12  28  47  71 105 145 190 236 293 358 425
#
# _framework density 21.196725000000001
#
# number of rings (size 3 to 8) (size 9 to 14) (size 15 to 20)
#    0.000    0.000    5.556    3.333    4.667    0.889 
#    0.000    0.000    0.000    0.000    0.000    0.000 
#    0.000    0.000    0.000    0.000    0.000    0.000 
#
# Total GULP energy -100828.227691 kJ/mol
# GULP energy per Si atom -5601.568205 kJ/mol
# Density = 2.114848 g / cm^3
# Si number density = 21.196725 Si / 1000 Ang^3
#
#
#
# Elastic Constant Matrix: (Units=GPa)
#
#
# Indices 1 2 3 4 5 6 
#
# 1 133.3914 41.3955 25.2031 0.0000 -9.1160 0.0000
# 2 41.3955 96.0754 36.7856 0.0000 4.6385 0.0000
# 3 25.2031 36.7856 89.9716 0.0000 -17.5862 0.0000
# 4 0.0000 0.0000 0.0000 26.2180 0.0000 -0.6031
# 5 -9.1160 4.6385 -17.5862 0.0000 29.9414 0.0000
# 6 0.0000 0.0000 0.0000 -0.6031 0.0000 32.7688
#
#
#
# Elastic Compliance Matrix: (Units=1/GPa)
#
#
# Indices 1 2 3 4 5 6 
#
# 1 0.008982 -0.003908 -0.000300 0.000000 0.003164 0.000000
# 2 -0.003908 0.014901 -0.006418 0.000000 -0.007268 0.000000
# 3 -0.000300 -0.006418 0.015815 0.000000 0.010192 0.000000
# 4 0.000000 0.000000 0.000000 0.038158 0.000000 0.000702
# 5 0.003164 -0.007268 0.010192 0.000000 0.041474 0.000000
# 6 0.000000 0.000000 0.000000 0.000702 0.000000 0.030530
#
#
# Mechanical properties :
#
#
# Convention : Reuss Voigt Hill
#
# Bulk Modulus (GPa) = 54.21307 58.46744 56.34025
# Shear Modulus (GPa) = 28.20701 32.18924 30.19813
#
# Velocity S-wave (km/s) = 3.65187 3.90114 3.77856
# Velocity P-wave (km/s) = 6.58887 6.92351 6.75826
#
# Compressibility (1/GPa) = 0.01844574
#
# Stress axis : x y z
#
# Youngs Moduli (GPa) = 111.32815 67.11091 63.23152
#
# Poissons Ratio (x) = 0.26228 0.01896
# Poissons Ratio (y) = 0.43509 0.40583
# Poissons Ratio (z) = 0.03338 0.43073
#
# Static dielectric constant tensor:
#      x y z
#    x 1.765000 0.000000 0.011520 
#    y 0.000000 1.749000 0.000000 
#    z 0.011520 0.000000 1.719420 
# 
# From -- ./inp_files/184452.got.cif
#   From: 2010.05.17/outbox.cif.g08.bks.cpg/sg15_93_cif.got.tgz:184452.got - 2010.06.03 18:47:42.
