data_PCOD9307625
_publ_section_title
;
Structure prediction by ZEFSAII (Michael W. Deem and Ramdas Pophale) SiO2 
 PCOD9307625
Probable space group: C 2/C
;
_chemical_formula_sum "Si O2"
_cell_formula_units_Z 40
_cell_length_a 8.442246
_cell_length_b 27.820851
_cell_length_c 15.000737
_cell_angle_alpha 90.000000
_cell_angle_beta 30.464797
_cell_angle_gamma 90.000000
_cell_volume 1786.308940
_symmetry_space_group_name_H-M "C 2/C"
_symmetry_group_IT_number 15
_symmetry_cell_setting 'monoclinic'
loop_
_space_group_symop_operation_xyz
x,y,z
-x,y,1/2-z
-x,-y,-z
x,-y,1/2+z
1/2+x,1/2+y,z
1/2-x,1/2+y,1/2-z
1/2-x,1/2-y,-z
1/2+x,1/2-y,1/2+z
loop_
_atom_site_type_symbol
_atom_site_label
_atom_site_fract_x
_atom_site_fract_y
_atom_site_fract_z
Si Si1 0.151045 0.770264 0.883587
Si Si2 0.697154 0.189594 0.738649
Si Si3 0.119865 0.106725 0.602193
Si Si4 0.874099 0.945804 0.050517
Si Si5 0.847846 0.870536 0.726970
O O1 0.500000 0.762077 0.750000
O O2 0.027576 0.724786 0.888357
O O3 0.137589 0.821165 0.837376
O O4 0.940684 0.775892 0.072067
O O5 0.500000 0.169298 0.750000
O O6 0.887855 0.151883 0.703614
O O7 0.483786 0.118645 0.422349
O O8 0.000000 0.081187 0.750000
O O9 0.047421 0.078958 0.548094
O O10 0.500000 0.944895 0.250000
O O11 0.982377 0.914030 0.911390
O O12 0.000000 0.000000 0.000000
O O13 0.000000 0.864720 0.750000
#
# Coordination Sequence:
#
# PCOD9307625 Si02
#       5
#     8   8   8   8   8
#     4  12  24  44  66  99 146 193 243 301 353 422
#     4  12  26  42  68 100 146 191 246 298 359 420
#     4  12  26  45  72 106 149 190 242 297 357 426
#     4  12  26  51  81 109 145 184 234 297 365 431
#     4  12  26  46  72 107 146 191 243 298 358 426
#
# _framework density 22.392544000000001
#
# number of rings (size 3 to 8) (size 9 to 14) (size 15 to 20)
#    0.000    0.000    4.000    6.000    5.600    0.800 
#    0.000    4.000    0.000    0.000    0.000    0.000 
#    0.000    0.000    0.000    0.000    0.000    0.000 
#
# Total GULP energy -111873.638547 kJ/mol
# GULP energy per Si atom -5593.681927 kJ/mol
# Density = 2.234158 g / cm^3
# Si number density = 22.392544 Si / 1000 Ang^3
#
#
#
# Elastic Constant Matrix: (Units=GPa)
#
#
# Indices 1 2 3 4 5 6 
#
# 1 140.8557 19.4276 21.3641 0.0000 -13.6329 0.0000
# 2 19.4276 97.7782 1.4689 0.0000 -2.6791 0.0000
# 3 21.3641 1.4689 73.5412 0.0000 -20.4494 0.0000
# 4 0.0000 0.0000 0.0000 40.2889 0.0000 -4.1576
# 5 -13.6329 -2.6791 -20.4494 0.0000 56.6133 0.0000
# 6 0.0000 0.0000 0.0000 -4.1576 0.0000 6.9648
#
#
#
# Elastic Compliance Matrix: (Units=1/GPa)
#
#
# Indices 1 2 3 4 5 6 
#
# 1 0.007697 -0.001471 -0.001902 0.000000 0.001097 0.000000
# 2 -0.001471 0.010522 0.000286 0.000000 0.000247 0.000000
# 3 -0.001902 0.000286 0.015586 0.000000 0.005186 0.000000
# 4 0.000000 0.000000 0.000000 0.026450 0.000000 0.015789
# 5 0.001097 0.000247 0.005186 0.000000 0.019813 0.000000
# 6 0.000000 0.000000 0.000000 0.015789 0.000000 0.153004
#
#
# Mechanical properties :
#
#
# Convention : Reuss Voigt Hill
#
# Bulk Modulus (GPa) = 36.18949 44.07733 40.13341
# Shear Modulus (GPa) = 20.12430 38.76771 29.44600
#
# Velocity S-wave (km/s) = 3.00109 4.16538 3.63022
# Velocity P-wave (km/s) = 5.31086 6.54679 5.96094
#
# Compressibility (1/GPa) = 0.02763233
#
# Stress axis : x y z
#
# Youngs Moduli (GPa) = 129.92238 95.03974 64.15813
#
# Poissons Ratio (x) = 0.13977 0.12200
# Poissons Ratio (y) = 0.19107 -0.01833
# Poissons Ratio (z) = 0.24706 -0.02716
#
# Static dielectric constant tensor:
#      x y z
#    x 1.853680 0.000000 -0.219830 
#    y 0.000000 1.956000 0.000000 
#    z -0.219830 0.000000 2.384290 
# 
# From -- ./inp_files/25812.got.cif
#   From: 2010.05.17/outbox.cif.g08.bks.cpg/sg15_13_cif.got.tgz:25812.got - 2010.06.03 18:47:42.
