data_PCOD9307472
_publ_section_title
;
Structure prediction by ZEFSAII (Michael W. Deem and Ramdas Pophale) SiO2 
 PCOD9307472
Probable space group: C 2/C
;
_chemical_formula_sum "Si O2"
_cell_formula_units_Z 52
_cell_length_a 9.095373
_cell_length_b 16.754036
_cell_length_c 21.823895
_cell_angle_alpha 90.000000
_cell_angle_beta 50.144599
_cell_angle_gamma 90.000000
_cell_volume 2552.957135
_symmetry_space_group_name_H-M "C 2/C"
_symmetry_group_IT_number 15
_symmetry_cell_setting 'monoclinic'
loop_
_space_group_symop_operation_xyz
x,y,z
-x,y,1/2-z
-x,-y,-z
x,-y,1/2+z
1/2+x,1/2+y,z
1/2-x,1/2+y,1/2-z
1/2-x,1/2-y,-z
1/2+x,1/2-y,1/2+z
loop_
_atom_site_type_symbol
_atom_site_label
_atom_site_fract_x
_atom_site_fract_y
_atom_site_fract_z
Si Si1 0.603573 0.068505 0.658900
Si Si2 0.610159 0.084445 0.339177
Si Si3 0.500000 0.505634 0.250000
Si Si4 0.447251 0.792575 0.426356
Si Si5 0.182652 0.257857 0.745371
Si Si6 0.069224 0.103577 0.847992
Si Si7 0.668904 0.168872 0.991518
O O1 0.500000 0.094443 0.750000
O O2 0.595679 0.132552 0.606567
O O3 0.818616 0.062149 0.626452
O O4 0.498989 0.988812 0.664121
O O5 0.658773 0.154460 0.278843
O O6 0.468225 0.122943 0.425836
O O7 0.810449 0.056224 0.315387
O O8 0.434241 0.450960 0.211148
O O9 0.250000 0.750000 0.500000
O O10 0.613895 0.746577 0.343666
O O11 0.552779 0.815304 0.460783
O O12 0.161275 0.189010 0.803063
O O13 0.000000 0.242022 0.750000
O O14 0.853560 0.118098 0.925234
O O15 0.750000 0.250000 0.000000
#
# Coordination Sequence:
#
# PCOD9307472 Si02
#       7
#     8   8   4   8   8   8   8
#     4  12  25  47  74 108 151 189 242 304 370 431
#     4  12  28  45  74 109 148 186 244 311 362 441
#     4  12  26  44  68 110 140 196 234 298 374 432
#     4  12  27  44  76 113 150 194 251 307 368 444
#     4  12  23  45  76 103 142 198 250 290 363 450
#     4  12  23  47  78  97 146 200 237 291 372 441
#     4  12  25  49  73 109 147 191 250 305 365 432
#
# _framework density 20.368535999999999
#
# number of rings (size 3 to 8) (size 9 to 14) (size 15 to 20)
#    0.000    0.000    6.923    2.308    2.154    3.077 
#    0.000    0.000    0.000    0.000    0.000    0.000 
#    0.000    0.000    0.000    0.000    0.000    0.000 
#
# Total GULP energy -145370.107254 kJ/mol
# GULP energy per Si atom -5591.157971 kJ/mol
# Density = 2.032218 g / cm^3
# Si number density = 20.368536 Si / 1000 Ang^3
#
#
#
# Elastic Constant Matrix: (Units=GPa)
#
#
# Indices 1 2 3 4 5 6 
#
# 1 166.5313 72.5661 71.4832 -0.0002 -5.5180 -0.0001
# 2 72.5661 125.2456 74.5193 -0.0001 -4.4057 0.0000
# 3 71.4832 74.5193 164.4249 -0.0001 -24.3867 -0.0006
# 4 -0.0002 -0.0001 -0.0001 38.9862 0.0001 -9.1483
# 5 -5.5180 -4.4057 -24.3867 0.0001 47.7320 0.0005
# 6 -0.0001 0.0000 -0.0006 -9.1483 0.0005 -22.3943
#
#
#
# Elastic Compliance Matrix: (Units=1/GPa)
#
#
# Indices 1 2 3 4 5 6 
#
# 1 0.008496 -0.003700 -0.002079 0.000000 -0.000422 0.000000
# 2 -0.003700 0.012665 -0.004351 0.000000 -0.001482 0.000000
# 3 -0.002079 -0.004351 0.009589 0.000000 0.004257 0.000000
# 4 0.000000 0.000000 0.000000 0.023406 0.000000 -0.009562
# 5 -0.000422 -0.001482 0.004257 0.000000 0.022940 0.000000
# 6 0.000000 0.000000 0.000000 -0.009562 0.000000 -0.040748
#
#
# Mechanical properties :
#
#
# Convention : Reuss Voigt Hill
#
# Bulk Modulus (GPa) = 95.33693 99.25988 97.29840
# Shear Modulus (GPa) = 83.18893 28.70699 55.94796
#
# Velocity S-wave (km/s) = 6.39770 3.75824 5.24666
# Velocity P-wave (km/s) = 10.07381 8.22619 9.19652
#
# Compressibility (1/GPa) = 0.01048912
#
# Stress axis : x y z
#
# Youngs Moduli (GPa) = 117.70704 78.95922 104.28647
#
# Poissons Ratio (x) = 0.29216 0.21682
# Poissons Ratio (y) = 0.43553 0.45375
# Poissons Ratio (z) = 0.24472 0.34355
#
# Static dielectric constant tensor:
#      x y z
#    x 4.623080 0.000000 1.766020 
#    y 0.000000 1.735560 0.000000 
#    z 1.766020 0.000000 2.850440 
# 
# From -- ./inp_files/233015.got.cif
#   From: 2010.05.17/outbox.cif.g08.bks.cpg/sg15_117_cif.got.tgz:233015.got - 2010.06.03 18:47:42.
