data_PCOD9307289
_publ_section_title
;
Structure prediction by ZEFSAII (Michael W. Deem and Ramdas Pophale) SiO2 
 PCOD9307289
Probable space group: C 2/C
;
_chemical_formula_sum "Si O2"
_cell_formula_units_Z 56
_cell_length_a 17.247611
_cell_length_b 17.795901
_cell_length_c 7.947273
_cell_angle_alpha 90.000000
_cell_angle_beta 76.560380
_cell_angle_gamma 90.000000
_cell_volume 2372.510809
_symmetry_space_group_name_H-M "C 2/C"
_symmetry_group_IT_number 15
_symmetry_cell_setting 'monoclinic'
loop_
_space_group_symop_operation_xyz
x,y,z
-x,y,1/2-z
-x,-y,-z
x,-y,1/2+z
1/2+x,1/2+y,z
1/2-x,1/2+y,1/2-z
1/2-x,1/2-y,-z
1/2+x,1/2-y,1/2+z
loop_
_atom_site_type_symbol
_atom_site_label
_atom_site_fract_x
_atom_site_fract_y
_atom_site_fract_z
Si Si1 0.869279 0.838207 0.130575
Si Si2 0.308349 0.535338 0.862978
Si Si3 0.535174 0.416071 0.013144
Si Si4 0.838562 0.325616 0.706905
Si Si5 0.411978 0.901001 0.335976
Si Si6 0.338305 0.638670 0.275241
Si Si7 0.632156 0.939256 0.522951
O O1 0.808959 0.904701 0.212238
O O2 0.859983 0.760558 0.230244
O O3 0.849418 0.822219 0.947634
O O4 0.957652 0.870956 0.108410
O O5 0.323554 0.450350 0.806366
O O6 0.385160 0.564294 0.924327
O O7 0.224819 0.537899 0.997673
O O8 0.575356 0.362954 0.853604
O O9 0.500000 0.500000 0.000000
O O10 0.865962 0.354292 0.505933
O O11 0.742089 0.331196 0.768777
O O12 0.880296 0.377360 0.826720
O O13 0.500000 0.870315 0.250000
O O14 0.416896 0.985280 0.412947
O O15 0.376273 0.911269 0.165223
#
# Coordination Sequence:
#
# PCOD9307289 Si02
#       7
#     8   8   8   8   8   8   8
#     4  12  28  44  70 110 160 197 257 332 386 450
#     4  12  23  45  76 110 143 202 263 305 383 477
#     4  12  24  43  74 113 148 198 260 319 385 465
#     4  12  28  51  72 115 159 204 254 326 399 456
#     4  12  26  47  81 115 145 201 266 316 387 465
#     4  12  22  45  76 104 149 205 262 309 386 473
#     4  12  25  48  82 110 149 200 265 320 380 479
#
# _framework density 23.603684999999999
#
# number of rings (size 3 to 8) (size 9 to 14) (size 15 to 20)
#    0.000    0.000    7.143    2.571    0.000    1.714 
#    7.714    0.000    0.000    0.000    0.000    0.000 
#    0.000    0.000    0.000    0.000    0.000    0.000 
#
# Total GULP energy -156476.622756 kJ/mol
# GULP energy per Si atom -5588.450813 kJ/mol
# Density = 2.354996 g / cm^3
# Si number density = 23.603685 Si / 1000 Ang^3
#
#
#
# Elastic Constant Matrix: (Units=GPa)
#
#
# Indices 1 2 3 4 5 6 
#
# 1 81.8509 7.2019 10.9372 0.0000 -2.6770 0.0000
# 2 7.2019 107.4022 6.7966 0.0000 -14.1514 0.0000
# 3 10.9372 6.7966 84.6360 0.0000 -3.7513 0.0000
# 4 0.0000 0.0000 0.0000 26.0059 0.0000 -2.3867
# 5 -2.6770 -14.1514 -3.7513 0.0000 47.5199 0.0000
# 6 0.0000 0.0000 0.0000 -2.3867 0.0000 28.9087
#
#
#
# Elastic Compliance Matrix: (Units=1/GPa)
#
#
# Indices 1 2 3 4 5 6 
#
# 1 0.012497 -0.000691 -0.001543 0.000000 0.000377 0.000000
# 2 -0.000691 0.009765 -0.000570 0.000000 0.002824 0.000000
# 3 -0.001543 -0.000570 0.012091 0.000000 0.000698 0.000000
# 4 0.000000 0.000000 0.000000 0.038746 0.000000 0.003199
# 5 0.000377 0.002824 0.000698 0.000000 0.021961 0.000000
# 6 0.000000 0.000000 0.000000 0.003199 0.000000 0.034856
#
#
# Mechanical properties :
#
#
# Convention : Reuss Voigt Hill
#
# Bulk Modulus (GPa) = 34.78647 35.97337 35.37992
# Shear Modulus (GPa) = 34.45772 37.08378 35.77075
#
# Velocity S-wave (km/s) = 3.82494 3.96801 3.89713
# Velocity P-wave (km/s) = 5.85462 6.02222 5.93901
#
# Compressibility (1/GPa) = 0.02874681
#
# Stress axis : x y z
#
# Youngs Moduli (GPa) = 80.02191 102.40349 82.70370
#
# Poissons Ratio (x) = 0.07073 0.12759
# Poissons Ratio (y) = 0.05527 0.04712
# Poissons Ratio (z) = 0.12345 0.05834
#
# Static dielectric constant tensor:
#      x y z
#    x 1.871370 0.000000 0.042380 
#    y 0.000000 2.747250 0.000000 
#    z 0.042380 0.000000 2.092370 
# 
# From -- ./inp_files/49010.got.cif
#   From: 2010.05.17/outbox.cif.g08.bks.cpg/sg15_25_cif.got.tgz:49010.got - 2010.06.03 18:47:42.
