data_PCOD9307925
_publ_section_title
;
Structure prediction by ZEFSAII (Michael W. Deem and Ramdas Pophale) SiO2 
 PCOD9307925
Probable space group: C 2/C
;
_chemical_formula_sum "Si O2"
_cell_formula_units_Z 40
_cell_length_a 16.124834
_cell_length_b 15.334183
_cell_length_c 10.227547
_cell_angle_alpha 90.000000
_cell_angle_beta 145.798477
_cell_angle_gamma 90.000000
_cell_volume 1421.494248
_symmetry_space_group_name_H-M "C 2/C"
_symmetry_group_IT_number 15
_symmetry_cell_setting 'monoclinic'
loop_
_space_group_symop_operation_xyz
x,y,z
-x,y,1/2-z
-x,-y,-z
x,-y,1/2+z
1/2+x,1/2+y,z
1/2-x,1/2+y,1/2-z
1/2-x,1/2-y,-z
1/2+x,1/2-y,1/2+z
loop_
_atom_site_type_symbol
_atom_site_label
_atom_site_fract_x
_atom_site_fract_y
_atom_site_fract_z
Si Si1 0.772997 0.510604 0.773093
Si Si2 0.371721 0.922958 0.140422
Si Si3 0.109097 0.187892 0.306004
Si Si4 0.618199 0.681016 0.658209
Si Si5 0.620990 0.672996 0.992728
O O1 0.872267 0.557646 0.792633
O O2 0.666423 0.580708 0.699317
O O3 0.693214 0.424271 0.610379
O O4 0.883378 0.486911 0.033082
O O5 0.500000 0.857056 0.250000
O O6 0.195235 0.903489 0.900519
O O7 0.250000 0.250000 0.500000
O O8 0.075595 0.187906 0.431554
O O9 0.067034 0.201130 0.083140
O O10 0.577379 0.673911 0.771713
O O11 0.745606 0.754533 0.834605
#
# Coordination Sequence:
#
# PCOD9307925 Si02
#       5
#     8   8   8   8   8
#     4  12  28  51  83 116 162 212 274 326 411 478
#     4  12  28  48  78 115 158 209 267 332 399 477
#     4  12  25  45  77 111 155 200 265 331 406 467
#     4  12  27  49  77 114 159 208 269 330 401 482
#     4  12  28  49  81 114 162 215 270 331 408 485
#
# _framework density 28.139403999999999
#
# number of rings (size 3 to 8) (size 9 to 14) (size 15 to 20)
#    0.000    0.000    4.000    4.800    5.600    2.400 
#    0.000    0.000    0.000    0.000    0.000    0.000 
#    0.000    0.000    0.000    0.000    0.000    0.000 
#
# Total GULP energy -111483.737263 kJ/mol
# GULP energy per Si atom -5574.186863 kJ/mol
# Density = 2.807536 g / cm^3
# Si number density = 28.139404 Si / 1000 Ang^3
#
#
#
# Elastic Constant Matrix: (Units=GPa)
#
#
# Indices 1 2 3 4 5 6 
#
# 1 381.6512 56.3459 64.5634 0.0000 4.8840 0.0000
# 2 56.3459 119.2942 36.5754 0.0000 -0.6131 0.0000
# 3 64.5634 36.5754 226.3411 0.0000 -57.2696 0.0000
# 4 0.0000 0.0000 0.0000 146.6059 0.0000 -98.7802
# 5 4.8840 -0.6131 -57.2696 0.0000 75.7639 0.0000
# 6 0.0000 0.0000 0.0000 -98.7802 0.0000 101.6445
#
#
#
# Elastic Compliance Matrix: (Units=1/GPa)
#
#
# Indices 1 2 3 4 5 6 
#
# 1 0.002946 -0.001127 -0.000876 0.000000 -0.000861 0.000000
# 2 -0.001127 0.009347 -0.001424 0.000000 -0.000928 0.000000
# 3 -0.000876 -0.001424 0.006070 0.000000 0.004634 0.000000
# 4 0.000000 0.000000 0.000000 0.019759 0.000000 0.019202
# 5 -0.000861 -0.000928 0.004634 0.000000 0.016749 0.000000
# 6 0.000000 0.000000 0.000000 0.019202 0.000000 0.028499
#
#
# Mechanical properties :
#
#
# Convention : Reuss Voigt Hill
#
# Bulk Modulus (GPa) = 86.88626 115.80621 101.34623
# Shear Modulus (GPa) = 53.15682 102.78965 77.97324
#
# Velocity S-wave (km/s) = 4.35104 6.05046 5.26970
# Velocity P-wave (km/s) = 7.49574 9.48971 8.55104
#
# Compressibility (1/GPa) = 0.01150930
#
# Stress axis : x y z
#
# Youngs Moduli (GPa) = 339.46228 106.98895 164.73239
#
# Poissons Ratio (x) = 0.12060 0.14431
# Poissons Ratio (y) = 0.38265 0.23451
# Poissons Ratio (z) = 0.29739 0.15231
#
# Static dielectric constant tensor:
#      x y z
#    x 2.227900 0.000000 -0.477640 
#    y 0.000000 4.261050 0.000000 
#    z -0.477640 0.000000 1.755440 
# 
# From -- ./inp_files/39392.got.cif
#   From: 2010.05.17/outbox.cif.g08.bks.cpg/sg15_20_cif.got.tgz:39392.got - 2010.06.03 18:47:42.
