data_PCOD9307859
_publ_section_title
;
Structure prediction by ZEFSAII (Michael W. Deem and Ramdas Pophale) SiO2 
 PCOD9307859
Probable space group: C 2/C
;
_chemical_formula_sum "Si O2"
_cell_formula_units_Z 32
_cell_length_a 8.557851
_cell_length_b 16.749303
_cell_length_c 10.450224
_cell_angle_alpha 90.000000
_cell_angle_beta 65.047174
_cell_angle_gamma 90.000000
_cell_volume 1358.092437
_symmetry_space_group_name_H-M "C 2/C"
_symmetry_group_IT_number 15
_symmetry_cell_setting 'monoclinic'
loop_
_space_group_symop_operation_xyz
x,y,z
-x,y,1/2-z
-x,-y,-z
x,-y,1/2+z
1/2+x,1/2+y,z
1/2-x,1/2+y,1/2-z
1/2-x,1/2-y,-z
1/2+x,1/2-y,1/2+z
loop_
_atom_site_type_symbol
_atom_site_label
_atom_site_fract_x
_atom_site_fract_y
_atom_site_fract_z
Si Si1 0.500000 0.563099 0.750000
Si Si2 0.500000 0.943909 0.250000
Si Si3 0.735138 0.439911 0.763687
Si Si4 0.206516 0.658166 0.997052
Si Si5 0.674222 0.162980 0.493891
O O1 0.579444 0.502278 0.826616
O O2 0.346705 0.616791 0.857220
O O3 0.359015 0.889023 0.367876
O O4 0.598275 0.002712 0.313210
O O5 0.711517 0.383042 0.649812
O O6 0.774100 0.388199 0.875372
O O7 0.015000 0.661558 0.005458
O O8 0.250000 0.750000 0.000000
O O9 0.750000 0.250000 0.500000
#
# Coordination Sequence:
#
# PCOD9307859 Si02
#       5
#     4   4   8   8   8
#     4  12  28  48  78 114 152 200 254 312 380 458
#     4  12  24  50  78 106 150 198 250 318 374 444
#     4  12  26  51  79 109 150 200 254 316 378 444
#     4  12  29  48  74 114 154 199 248 316 384 450
#     4  12  29  47  78 112 152 198 255 315 379 450
#
# _framework density 23.562462
#
# number of rings (size 3 to 8) (size 9 to 14) (size 15 to 20)
#    0.000    0.000    5.000    3.000   14.000    0.000 
#    0.000    0.000    0.000    0.000    0.000    0.000 
#    0.000    0.000    0.000    0.000    0.000    0.000 
#
# Total GULP energy -89568.034349 kJ/mol
# GULP energy per Si atom -5598.002147 kJ/mol
# Density = 2.350883 g / cm^3
# Si number density = 23.562462 Si / 1000 Ang^3
#
#
#
# Elastic Constant Matrix: (Units=GPa)
#
#
# Indices 1 2 3 4 5 6 
#
# 1 117.6031 86.7388 38.4421 0.0000 -7.1266 0.0000
# 2 86.7388 217.9908 83.8429 0.0000 3.9438 0.0000
# 3 38.4421 83.8429 135.0806 0.0000 2.3051 0.0000
# 4 0.0000 0.0000 0.0000 43.2536 0.0000 2.5164
# 5 -7.1266 3.9438 2.3051 0.0000 29.9633 0.0000
# 6 0.0000 0.0000 0.0000 2.5164 0.0000 69.6176
#
#
#
# Elastic Compliance Matrix: (Units=1/GPa)
#
#
# Indices 1 2 3 4 5 6 
#
# 1 0.012456 -0.004774 -0.000643 0.000000 0.003640 0.000000
# 2 -0.004774 0.007864 -0.003490 0.000000 -0.001902 0.000000
# 3 -0.000643 -0.003490 0.009760 0.000000 -0.000445 0.000000
# 4 0.000000 0.000000 0.000000 0.023168 0.000000 -0.000837
# 5 0.003640 -0.001902 -0.000445 0.000000 0.034525 0.000000
# 6 0.000000 0.000000 0.000000 -0.000837 0.000000 0.014394
#
#
# Mechanical properties :
#
#
# Convention : Reuss Voigt Hill
#
# Bulk Modulus (GPa) = 81.54026 98.74690 90.14358
# Shear Modulus (GPa) = 40.30011 46.01027 43.15519
#
# Velocity S-wave (km/s) = 4.14013 4.42372 4.28427
# Velocity P-wave (km/s) = 7.58520 8.25179 7.92551
#
# Compressibility (1/GPa) = 0.01226388
#
# Stress axis : x y z
#
# Youngs Moduli (GPa) = 80.28564 127.16592 102.46235
#
# Poissons Ratio (x) = 0.60715 0.06592
# Poissons Ratio (y) = 0.38332 0.35756
# Poissons Ratio (z) = 0.05165 0.44377
#
# Static dielectric constant tensor:
#      x y z
#    x 1.979770 0.000000 0.016700 
#    y 0.000000 1.842090 0.000000 
#    z 0.016700 0.000000 1.874540 
# 
# From -- ./inp_files/75574.got.cif
#   From: 2010.05.17/outbox.cif.g08.bks.cpg/sg15_38_cif.got.tgz:75574.got - 2010.06.03 18:47:42.
