data_PCOD9307172
_publ_section_title
;
Structure prediction by ZEFSAII (Michael W. Deem and Ramdas Pophale) SiO2 
 PCOD9307172
Probable space group: C 2/C
;
_chemical_formula_sum "Si O2"
_cell_formula_units_Z 56
_cell_length_a 18.319326
_cell_length_b 23.296850
_cell_length_c 8.145502
_cell_angle_alpha 90.000000
_cell_angle_beta 48.707320
_cell_angle_gamma 90.000000
_cell_volume 2611.956518
_symmetry_space_group_name_H-M "C 2/C"
_symmetry_group_IT_number 15
_symmetry_cell_setting 'monoclinic'
loop_
_space_group_symop_operation_xyz
x,y,z
-x,y,1/2-z
-x,-y,-z
x,-y,1/2+z
1/2+x,1/2+y,z
1/2-x,1/2+y,1/2-z
1/2-x,1/2-y,-z
1/2+x,1/2-y,1/2+z
loop_
_atom_site_type_symbol
_atom_site_label
_atom_site_fract_x
_atom_site_fract_y
_atom_site_fract_z
Si Si1 0.811527 0.586588 0.241448
Si Si2 0.825900 0.377304 0.253920
Si Si3 0.881982 0.481287 0.949464
Si Si4 0.017845 0.786311 0.536045
Si Si5 0.315961 0.336989 0.750332
Si Si6 0.739181 0.722511 0.694591
Si Si7 0.982759 0.664145 0.087992
O O1 0.828093 0.546916 0.374827
O O2 0.709551 0.617024 0.354048
O O3 0.884748 0.639134 0.160755
O O4 0.846541 0.545243 0.042350
O O5 0.742026 0.362755 0.507520
O O6 0.806074 0.331741 0.135425
O O7 0.845760 0.439963 0.151287
O O8 0.931482 0.357791 0.156593
O O9 0.000000 0.481395 0.750000
O O10 0.130563 0.802769 0.368337
O O11 0.000000 0.767626 0.750000
O O12 0.929826 0.828052 0.616785
O O13 0.014116 0.732104 0.422127
O O14 0.269631 0.274542 0.772743
O O15 0.750000 0.750000 0.500000
O O16 0.000000 0.643545 0.250000
#
# Coordination Sequence:
#
# PCOD9307172 Si02
#       7
#     8   8   8   8   8   8   8
#     4  12  25  43  64 101 135 182 227 289 348 418
#     4  12  22  41  60  93 139 177 228 273 344 415
#     4  12  25  43  67 100 139 180 231 288 356 415
#     4  12  25  44  64 101 140 183 229 278 342 415
#     4  12  26  40  67  97 134 186 225 280 349 408
#     4  12  24  41  69  99 137 182 230 284 343 409
#     4  12  23  39  65  97 142 182 221 276 339 420
#
# _framework density 21.439865999999999
#
# number of rings (size 3 to 8) (size 9 to 14) (size 15 to 20)
#    0.000    0.000    7.143    4.286    2.000    0.000 
#    0.000    0.000    0.000    0.857    0.000    0.000 
#    0.000    0.000    0.000    0.000    0.000    0.000 
#
# Total GULP energy -156463.401907 kJ/mol
# GULP energy per Si atom -5587.978640 kJ/mol
# Density = 2.139107 g / cm^3
# Si number density = 21.439866 Si / 1000 Ang^3
#
#
#
# Elastic Constant Matrix: (Units=GPa)
#
#
# Indices 1 2 3 4 5 6 
#
# 1 98.9324 28.2939 35.7236 0.0000 -12.2733 0.0000
# 2 28.2939 97.8944 24.6476 0.0000 -9.6645 0.0000
# 3 35.7236 24.6476 81.5851 0.0000 -13.2013 0.0000
# 4 0.0000 0.0000 0.0000 32.0509 0.0000 -0.9130
# 5 -12.2733 -9.6645 -13.2013 0.0000 36.8394 0.0000
# 6 0.0000 0.0000 0.0000 -0.9130 0.0000 26.7275
#
#
#
# Elastic Compliance Matrix: (Units=1/GPa)
#
#
# Indices 1 2 3 4 5 6 
#
# 1 0.012649 -0.002323 -0.004515 0.000000 0.001987 0.000000
# 2 -0.002323 0.011597 -0.002250 0.000000 0.001462 0.000000
# 3 -0.004515 -0.002250 0.015472 0.000000 0.003450 0.000000
# 4 0.000000 0.000000 0.000000 0.031231 0.000000 0.001067
# 5 0.001987 0.001462 0.003450 0.000000 0.029427 0.000000
# 6 0.000000 0.000000 0.000000 0.001067 0.000000 0.037451
#
#
# Mechanical properties :
#
#
# Convention : Reuss Voigt Hill
#
# Bulk Modulus (GPa) = 46.42047 50.63801 48.52924
# Shear Modulus (GPa) = 30.64015 31.77334 31.20674
#
# Velocity S-wave (km/s) = 3.78447 3.85382 3.81930
# Velocity P-wave (km/s) = 6.38708 6.59336 6.49104
#
# Compressibility (1/GPa) = 0.02154222
#
# Stress axis : x y z
#
# Youngs Moduli (GPa) = 79.05630 86.22691 64.63178
#
# Poissons Ratio (x) = 0.20030 0.29184
# Poissons Ratio (y) = 0.18364 0.14541
# Poissons Ratio (z) = 0.35698 0.19400
#
# Static dielectric constant tensor:
#      x y z
#    x 1.840510 0.000000 0.070310 
#    y 0.000000 1.766020 0.000000 
#    z 0.070310 0.000000 1.879800 
# 
# From -- ./inp_files/52007.got.cif
#   From: 2010.05.17/outbox.cif.g08.bks.cpg/sg15_27_cif.got.tgz:52007.got - 2010.06.03 18:47:42.
