data_PCOD9307715
_publ_section_title
;
Structure prediction by ZEFSAII (Michael W. Deem and Ramdas Pophale) SiO2 
 PCOD9307715
Probable space group: C 2/C
;
_chemical_formula_sum "Si O2"
_cell_formula_units_Z 48
_cell_length_a 29.864208
_cell_length_b 14.493440
_cell_length_c 14.306453
_cell_angle_alpha 90.000000
_cell_angle_beta 18.647130
_cell_angle_gamma 90.000000
_cell_volume 1979.929864
_symmetry_space_group_name_H-M "C 2/C"
_symmetry_group_IT_number 15
_symmetry_cell_setting 'monoclinic'
loop_
_space_group_symop_operation_xyz
x,y,z
-x,y,1/2-z
-x,-y,-z
x,-y,1/2+z
1/2+x,1/2+y,z
1/2-x,1/2+y,1/2-z
1/2-x,1/2-y,-z
1/2+x,1/2-y,1/2+z
loop_
_atom_site_type_symbol
_atom_site_label
_atom_site_fract_x
_atom_site_fract_y
_atom_site_fract_z
Si Si1 0.182839 0.224190 0.036140
Si Si2 0.488904 0.801982 0.871449
Si Si3 0.632606 0.088688 0.548321
Si Si4 0.308875 0.071930 0.428477
Si Si5 0.647905 0.603945 0.554682
Si Si6 0.975532 0.922074 0.904864
O O1 0.323026 0.205507 0.702686
O O2 0.106080 0.308055 0.137595
O O3 0.250000 0.250000 0.000000
O O4 0.084504 0.137815 0.247303
O O5 0.500000 0.850877 0.750000
O O6 0.559943 0.862256 0.811135
O O7 0.572664 0.704068 0.704946
O O8 0.655130 0.027008 0.596699
O O9 0.500000 0.058523 0.750000
O O10 0.764981 0.088848 0.214099
O O11 0.253676 0.084521 0.432241
O O12 0.177049 0.099409 0.755042
O O13 0.526154 0.527631 0.808603
O O14 0.000000 0.891886 0.750000
#
# Coordination Sequence:
#
# PCOD9307715 Si02
#       6
#     8   8   8   8   8   8
#     4  12  27  46  72 104 141 183 234 290 350 416
#     4  12  25  47  73 102 143 182 232 289 350 416
#     4  12  28  47  72 104 144 185 234 291 350 413
#     4  12  27  46  74 106 139 186 237 287 350 415
#     4  12  26  47  73 101 143 188 234 286 350 419
#     4  12  24  46  73 101 141 185 233 287 347 418
#
# _framework density 24.243283999999999
#
# number of rings (size 3 to 8) (size 9 to 14) (size 15 to 20)
#    0.000    0.000    3.333    6.500    7.000    0.667 
#    0.000    0.000    0.000    0.000    0.000    0.000 
#    0.000    0.000    0.000    0.000    0.000    0.000 
#
# Total GULP energy -134362.999952 kJ/mol
# GULP energy per Si atom -5598.458331 kJ/mol
# Density = 2.418811 g / cm^3
# Si number density = 24.243284 Si / 1000 Ang^3
#
#
#
# Elastic Constant Matrix: (Units=GPa)
#
#
# Indices 1 2 3 4 5 6 
#
# 1 83.1169 -8.7997 -16.7227 -0.0001 -13.4557 0.0000
# 2 -8.7997 90.7099 32.1930 -0.0001 -5.2507 0.0000
# 3 -16.7227 32.1930 55.3278 -0.0001 -16.3965 0.0000
# 4 -0.0001 -0.0001 -0.0001 34.4425 0.0000 -20.3174
# 5 -13.4557 -5.2507 -16.3965 0.0000 43.5365 0.0000
# 6 0.0000 0.0000 0.0000 -20.3174 0.0000 39.9548
#
#
#
# Elastic Compliance Matrix: (Units=1/GPa)
#
#
# Indices 1 2 3 4 5 6 
#
# 1 0.014456 -0.000601 0.006778 0.000000 0.006948 0.000000
# 2 -0.000601 0.014011 -0.008879 0.000000 -0.001840 0.000000
# 3 0.006778 -0.008879 0.028808 0.000000 0.011874 0.000000
# 4 0.000000 0.000000 0.000000 0.041475 0.000000 0.021090
# 5 0.006948 -0.001840 0.011874 0.000000 0.029367 0.000000
# 6 0.000000 0.000000 0.000000 0.021090 0.000000 0.035753
#
#
# Mechanical properties :
#
#
# Convention : Reuss Voigt Hill
#
# Bulk Modulus (GPa) = 19.27869 26.94399 23.11134
# Shear Modulus (GPa) = 26.80057 38.41904 32.60981
#
# Velocity S-wave (km/s) = 3.32849 3.98518 3.67155
# Velocity P-wave (km/s) = 4.76878 5.68452 5.24666
#
# Compressibility (1/GPa) = 0.05187075
#
# Stress axis : x y z
#
# Youngs Moduli (GPa) = 69.17454 71.37474 34.71265
#
# Poissons Ratio (x) = 0.04290 -0.23529
# Poissons Ratio (y) = 0.04157 0.30822
# Poissons Ratio (z) = -0.46888 0.63375
#
# Static dielectric constant tensor:
#      x y z
#    x 1.743950 0.000000 0.023680 
#    y 0.000000 1.807840 0.000000 
#    z 0.023680 0.000000 1.850190 
# 
# From -- ./inp_files/182438.got.cif
#   From: 2010.05.17/outbox.cif.g08.bks.cpg/sg15_92_cif.got.tgz:182438.got - 2010.06.03 18:47:42.
