data_PCOD9307875
_publ_section_title
;
Structure prediction by ZEFSAII (Michael W. Deem and Ramdas Pophale) SiO2 
 PCOD9307875
Probable space group: C 2/C
;
_chemical_formula_sum "Si O2"
_cell_formula_units_Z 24
_cell_length_a 21.137397
_cell_length_b 7.682839
_cell_length_c 7.202489
_cell_angle_alpha 90.000000
_cell_angle_beta 55.627082
_cell_angle_gamma 90.000000
_cell_volume 965.406054
_symmetry_space_group_name_H-M "C 2/C"
_symmetry_group_IT_number 15
_symmetry_cell_setting 'monoclinic'
loop_
_space_group_symop_operation_xyz
x,y,z
-x,y,1/2-z
-x,-y,-z
x,-y,1/2+z
1/2+x,1/2+y,z
1/2-x,1/2+y,1/2-z
1/2-x,1/2-y,-z
1/2+x,1/2-y,1/2+z
loop_
_atom_site_type_symbol
_atom_site_label
_atom_site_fract_x
_atom_site_fract_y
_atom_site_fract_z
Si Si1 0.090502 0.874348 0.610315
Si Si2 0.339414 0.735129 0.887652
Si Si3 0.441736 0.864286 0.995840
O O1 0.117531 0.774229 0.381721
O O2 0.093162 0.753750 0.786194
O O3 0.000000 0.912636 0.750000
O O4 0.139443 0.048901 0.554948
O O5 0.250000 0.750000 0.000000
O O6 0.370211 0.888573 0.972354
O O7 0.500000 0.778511 0.750000
O O8 0.500000 0.000000 0.000000
#
# Coordination Sequence:
#
# PCOD9307875 Si02
#       3
#     8   8   8
#     4  12  24  53  84 109 159 222 275 327 405 505
#     4  12  28  48  80 122 166 213 268 345 424 481
#     4  12  27  49  81 120 155 212 281 338 397 497
#
# _framework density 24.860005000000001
#
# number of rings (size 3 to 8) (size 9 to 14) (size 15 to 20)
#    0.000    0.000    6.667    3.000    0.000    4.000 
#    0.000    0.000    0.000    0.000    0.000    0.000 
#    0.000    0.000    0.000    0.000    0.000    0.000 
#
# Total GULP energy -67070.945489 kJ/mol
# GULP energy per Si atom -5589.245457 kJ/mol
# Density = 2.480342 g / cm^3
# Si number density = 24.860005 Si / 1000 Ang^3
#
#
#
# Elastic Constant Matrix: (Units=GPa)
#
#
# Indices 1 2 3 4 5 6 
#
# 1 245.9614 84.5508 105.8555 0.0000 -11.7347 0.0000
# 2 84.5508 122.5579 62.2766 0.0000 11.2214 0.0000
# 3 105.8555 62.2766 140.6194 0.0000 22.3765 0.0000
# 4 0.0000 0.0000 0.0000 28.4509 0.0000 2.9535
# 5 -11.7347 11.2214 22.3765 0.0000 68.2314 0.0000
# 6 0.0000 0.0000 0.0000 2.9535 0.0000 1.8436
#
#
#
# Elastic Compliance Matrix: (Units=1/GPa)
#
#
# Indices 1 2 3 4 5 6 
#
# 1 0.007234 -0.002914 -0.004673 0.000000 0.003256 0.000000
# 2 -0.002914 0.011706 -0.002748 0.000000 -0.001525 0.000000
# 3 -0.004673 -0.002748 0.012557 0.000000 -0.004470 0.000000
# 4 0.000000 0.000000 0.000000 0.042160 0.000000 -0.067541
# 5 0.003256 -0.001525 -0.004470 0.000000 0.016933 0.000000
# 6 0.000000 0.000000 0.000000 -0.067541 0.000000 0.650624
#
#
# Mechanical properties :
#
#
# Convention : Reuss Voigt Hill
#
# Bulk Modulus (GPa) = 92.36056 112.72272 102.54164
# Shear Modulus (GPa) = 6.53174 36.80224 21.66699
#
# Velocity S-wave (km/s) = 1.62269 3.85174 2.95542
# Velocity P-wave (km/s) = 6.38308 8.07606 7.27896
#
# Compressibility (1/GPa) = 0.01082713
#
# Stress axis : x y z
#
# Youngs Moduli (GPa) = 138.23735 85.42852 79.63423
#
# Poissons Ratio (x) = 0.24895 0.37214
# Poissons Ratio (y) = 0.40284 0.21882
# Poissons Ratio (z) = 0.64600 0.23474
#
# Static dielectric constant tensor:
#      x y z
#    x 1.206740 0.000000 -0.479670 
#    y 0.000000 2.119730 0.000000 
#    z -0.479670 0.000000 1.604260 
# 
# From -- ./inp_files/53369.got.cif
#   From: 2010.05.17/outbox.cif.g08.bks.cpg/sg15_27_cif.got.tgz:53369.got - 2010.06.03 18:47:42.
