data_PCOD9307456
_publ_section_title
;
Structure prediction by ZEFSAII (Michael W. Deem and Ramdas Pophale) SiO2 
 PCOD9307456
Probable space group: C 2/C
;
_chemical_formula_sum "Si O2"
_cell_formula_units_Z 52
_cell_length_a 15.599411
_cell_length_b 22.235686
_cell_length_c 9.529981
_cell_angle_alpha 90.000000
_cell_angle_beta 37.842272
_cell_angle_gamma 90.000000
_cell_volume 2027.954240
_symmetry_space_group_name_H-M "C 2/C"
_symmetry_group_IT_number 15
_symmetry_cell_setting 'monoclinic'
loop_
_space_group_symop_operation_xyz
x,y,z
-x,y,1/2-z
-x,-y,-z
x,-y,1/2+z
1/2+x,1/2+y,z
1/2-x,1/2+y,1/2-z
1/2-x,1/2-y,-z
1/2+x,1/2-y,1/2+z
loop_
_atom_site_type_symbol
_atom_site_label
_atom_site_fract_x
_atom_site_fract_y
_atom_site_fract_z
Si Si1 0.292944 0.431958 0.501853
Si Si2 0.823793 0.025321 0.675581
Si Si3 0.000000 0.613304 0.750000
Si Si4 0.974597 0.583478 0.472324
Si Si5 0.174183 0.792439 0.025604
Si Si6 0.500000 0.803674 0.750000
Si Si7 0.776791 0.192460 0.369111
Si Si8 0.000000 0.114132 0.250000
O O1 0.333931 0.459479 0.597650
O O2 0.359104 0.471573 0.293206
O O3 0.338215 0.363798 0.422865
O O4 0.124068 0.434955 0.717234
O O5 0.904684 0.072952 0.474099
O O6 0.663125 0.046621 0.881521
O O7 0.138450 0.652705 0.556970
O O8 0.988423 0.578543 0.620922
O O9 0.958161 0.652206 0.435374
O O10 0.330601 0.784133 0.911659
O O11 0.205057 0.789748 0.817403
O O12 0.000000 0.774814 0.250000
O O13 0.750000 0.250000 0.500000
O O14 0.905156 0.155827 0.271114
#
# Coordination Sequence:
#
# PCOD9307456 Si02
#       8
#     8   8   4   8   8   4   8   4
#     4  12  28  50  83 115 158 219 280 344 416 497
#     4  12  29  52  80 113 165 216 281 342 417 503
#     4  12  23  44  79 110 159 205 284 330 398 494
#     4  12  23  49  80 119 155 212 278 350 409 483
#     4  12  26  47  78 115 158 209 272 338 422 499
#     4  12  24  45  77 114 158 204 266 344 422 494
#     4  12  27  48  80 118 163 221 274 341 421 500
#     4  12  31  53  78 120 179 217 268 346 428 496
#
# _framework density 25.641603
#
# number of rings (size 3 to 8) (size 9 to 14) (size 15 to 20)
#    0.000    0.000    6.154    1.846    8.615    1.231 
#    0.000    0.000    0.000    0.000    0.000    0.000 
#    0.000    0.000    0.000    0.000    0.000    0.000 
#
# Total GULP energy -145709.924138 kJ/mol
# GULP energy per Si atom -5604.227851 kJ/mol
# Density = 2.558324 g / cm^3
# Si number density = 25.641603 Si / 1000 Ang^3
#
#
#
# Elastic Constant Matrix: (Units=GPa)
#
#
# Indices 1 2 3 4 5 6 
#
# 1 163.4982 60.0973 91.2647 -0.0001 -5.3467 0.0001
# 2 60.0973 132.6399 31.0800 0.0000 -14.3784 0.0000
# 3 91.2647 31.0800 145.9579 0.0000 -4.6551 0.0000
# 4 -0.0001 0.0000 0.0000 65.5644 0.0000 -25.6999
# 5 -5.3467 -14.3784 -4.6551 0.0000 74.4646 -0.0001
# 6 0.0001 0.0000 0.0000 -25.6999 -0.0001 96.4694
#
#
#
# Elastic Compliance Matrix: (Units=1/GPa)
#
#
# Indices 1 2 3 4 5 6 
#
# 1 0.010722 -0.003489 -0.005970 0.000000 -0.000277 0.000000
# 2 -0.003489 0.009225 0.000267 0.000000 0.001547 0.000000
# 3 -0.005970 0.000267 0.010537 0.000000 0.000282 0.000000
# 4 0.000000 0.000000 0.000000 0.017031 0.000000 0.004537
# 5 -0.000277 0.001547 0.000282 0.000000 0.013726 0.000000
# 6 0.000000 0.000000 0.000000 0.004537 0.000000 0.011575
#
#
# Mechanical properties :
#
#
# Convention : Reuss Voigt Hill
#
# Bulk Modulus (GPa) = 82.65433 89.66445 86.15939
# Shear Modulus (GPa) = 52.50215 64.60995 58.55605
#
# Velocity S-wave (km/s) = 4.52988 5.02514 4.78392
# Velocity P-wave (km/s) = 7.72426 8.28937 8.01180
#
# Compressibility (1/GPa) = 0.01209858
#
# Stress axis : x y z
#
# Youngs Moduli (GPa) = 93.26243 108.39631 94.90686
#
# Poissons Ratio (x) = 0.37822 0.56663
# Poissons Ratio (y) = 0.32542 -0.02531
# Poissons Ratio (z) = 0.55681 -0.02891
#
# Static dielectric constant tensor:
#      x y z
#    x 2.073990 0.000000 -0.055330 
#    y 0.000000 1.999990 0.000000 
#    z -0.055330 0.000000 1.990140 
# 
# From -- ./inp_files/44806.got.cif
#   From: 2010.05.17/outbox.cif.g08.bks.cpg/sg15_23_cif.got.tgz:44806.got - 2010.06.03 18:47:42.
