data_PCOD9307389
_publ_section_title
;
Structure prediction by ZEFSAII (Michael W. Deem and Ramdas Pophale) SiO2 
 PCOD9307389
Probable space group: C 2/C
;
_chemical_formula_sum "Si O2"
_cell_formula_units_Z 52
_cell_length_a 19.490527
_cell_length_b 21.571456
_cell_length_c 5.121294
_cell_angle_alpha 90.000000
_cell_angle_beta 96.269990
_cell_angle_gamma 90.000000
_cell_volume 2140.312202
_symmetry_space_group_name_H-M "C 2/C"
_symmetry_group_IT_number 15
_symmetry_cell_setting 'monoclinic'
loop_
_space_group_symop_operation_xyz
x,y,z
-x,y,1/2-z
-x,-y,-z
x,-y,1/2+z
1/2+x,1/2+y,z
1/2-x,1/2+y,1/2-z
1/2-x,1/2-y,-z
1/2+x,1/2-y,1/2+z
loop_
_atom_site_type_symbol
_atom_site_label
_atom_site_fract_x
_atom_site_fract_y
_atom_site_fract_z
Si Si1 0.724093 0.622670 0.889186
Si Si2 0.500000 0.826908 0.250000
Si Si3 0.000000 0.456561 0.750000
Si Si4 0.000000 0.132752 0.750000
Si Si5 0.801820 0.198834 0.126909
Si Si6 0.582491 0.748993 0.632060
Si Si7 0.399965 0.459977 0.952885
Si Si8 0.882814 0.632288 0.035375
O O1 0.706854 0.642114 0.584172
O O2 0.671854 0.572125 0.986625
O O3 0.711110 0.679578 0.083576
O O4 0.805825 0.608795 0.947296
O O5 0.515006 0.783283 0.498788
O O6 0.430401 0.862417 0.295544
O O7 0.931770 0.413370 0.722602
O O8 0.000000 0.500000 0.500000
O O9 0.938546 0.181380 0.778962
O O10 0.963089 0.086974 0.531333
O O11 0.750000 0.250000 0.000000
O O12 0.874552 0.231439 0.109217
O O13 0.621168 0.800430 0.822967
O O14 0.404100 0.516751 0.159273
#
# Coordination Sequence:
#
# PCOD9307389 Si02
#       8
#     8   4   4   4   8   8   8   8
#     4  12  28  47  77 106 153 197 247 306 381 442
#     4  12  23  42  73 111 162 187 236 296 382 460
#     4  12  28  48  74 104 141 195 256 300 354 436
#     4  12  25  48  77 111 149 202 250 314 398 444
#     4  12  25  44  71 116 153 192 237 298 384 470
#     4  12  25  42  75 115 153 193 238 310 390 470
#     4  12  29  54  75 106 147 204 273 322 360 436
#     4  12  26  48  73 115 152 194 242 314 379 455
#
# _framework density 24.295521000000001
#
# number of rings (size 3 to 8) (size 9 to 14) (size 15 to 20)
#    0.000    0.000    6.154    3.231    4.308    1.231 
#    0.000    0.000    0.000    0.000    0.000    0.000 
#    0.000    0.000    0.000    0.000    0.000    0.000 
#
# Total GULP energy -145443.054920 kJ/mol
# GULP energy per Si atom -5593.963651 kJ/mol
# Density = 2.424022 g / cm^3
# Si number density = 24.295521 Si / 1000 Ang^3
#
#
#
# Elastic Constant Matrix: (Units=GPa)
#
#
# Indices 1 2 3 4 5 6 
#
# 1 142.9248 41.9051 17.6174 0.0000 8.1723 0.0000
# 2 41.9051 96.4383 21.2450 0.0000 6.6798 0.0000
# 3 17.6174 21.2450 91.3432 0.0000 -4.7099 0.0000
# 4 0.0000 0.0000 0.0000 14.9357 0.0000 15.8052
# 5 8.1723 6.6798 -4.7099 0.0000 35.3545 0.0000
# 6 0.0000 0.0000 0.0000 15.8052 0.0000 34.8452
#
#
#
# Elastic Compliance Matrix: (Units=1/GPa)
#
#
# Indices 1 2 3 4 5 6 
#
# 1 0.008136 -0.003244 -0.000886 0.000000 -0.001386 0.000000
# 2 -0.003244 0.012433 -0.002365 0.000000 -0.001914 0.000000
# 3 -0.000886 -0.002365 0.011783 0.000000 0.002221 0.000000
# 4 0.000000 0.000000 0.000000 0.128756 0.000000 -0.058402
# 5 -0.001386 -0.001914 0.002221 0.000000 0.029263 0.000000
# 6 0.000000 0.000000 0.000000 -0.058402 0.000000 0.055189
#
#
# Mechanical properties :
#
#
# Convention : Reuss Voigt Hill
#
# Bulk Modulus (GPa) = 51.64752 54.69351 53.17051
# Shear Modulus (GPa) = 18.86770 33.68965 26.27868
#
# Velocity S-wave (km/s) = 2.78976 3.72783 3.29238
# Velocity P-wave (km/s) = 5.62861 6.41012 6.03203
#
# Compressibility (1/GPa) = 0.01936201
#
# Stress axis : x y z
#
# Youngs Moduli (GPa) = 122.90497 80.43410 84.86706
#
# Poissons Ratio (x) = 0.26095 0.07521
# Poissons Ratio (y) = 0.39874 0.20068
# Poissons Ratio (z) = 0.10891 0.19019
#
# Static dielectric constant tensor:
#      x y z
#    x 2.099950 0.000000 -0.150030 
#    y 0.000000 1.964560 0.000000 
#    z -0.150030 0.000000 2.218960 
# 
# From -- ./inp_files/13421.got.cif
#   From: 2010.05.17/outbox.cif.g08.bks.cpg/sg15_7_cif.got.tgz:13421.got - 2010.06.03 18:47:42.
