data_PCOD9307882
_publ_section_title
;
Structure prediction by ZEFSAII (Michael W. Deem and Ramdas Pophale) SiO2 
 PCOD9307882
Probable space group: C 2/C
;
_chemical_formula_sum "Si O2"
_cell_formula_units_Z 32
_cell_length_a 10.780178
_cell_length_b 14.079709
_cell_length_c 8.764988
_cell_angle_alpha 90.000000
_cell_angle_beta 92.269896
_cell_angle_gamma 90.000000
_cell_volume 1329.321505
_symmetry_space_group_name_H-M "C 2/C"
_symmetry_group_IT_number 15
_symmetry_cell_setting 'monoclinic'
loop_
_space_group_symop_operation_xyz
x,y,z
-x,y,1/2-z
-x,-y,-z
x,-y,1/2+z
1/2+x,1/2+y,z
1/2-x,1/2+y,1/2-z
1/2-x,1/2-y,-z
1/2+x,1/2-y,1/2+z
loop_
_atom_site_type_symbol
_atom_site_label
_atom_site_fract_x
_atom_site_fract_y
_atom_site_fract_z
Si Si1 0.912286 0.461684 0.865050
Si Si2 0.585359 0.326017 0.536011
Si Si3 0.317316 0.337478 0.631724
Si Si4 0.708595 0.154736 0.691273
O O1 0.799482 0.399240 0.916341
O O2 0.852886 0.554420 0.781516
O O3 0.000000 0.407411 0.750000
O O4 0.000000 0.500000 0.000000
O O5 0.439141 0.342627 0.533659
O O6 0.640891 0.372207 0.694227
O O7 0.618196 0.214792 0.570840
O O8 0.662149 0.356533 0.392494
O O9 0.217755 0.271721 0.331182
#
# Coordination Sequence:
#
# PCOD9307882 Si02
#       4
#     8   8   8   8
#     4  12  25  40  65  96 132 172 219 270 328 391
#     4   8  16  35  69  86 124 166 211 268 329 375
#     4   9  18  37  64  91 127 167 213 269 324 388
#     4   9  18  38  64  89 126 167 208 270 325 384
#
# _framework density 24.072430000000001
#
# number of rings (size 3 to 8) (size 9 to 14) (size 15 to 20)
#    1.500    1.000    0.000    3.000    0.000    1.000 
#    0.000    5.000    5.500    0.000    0.000    0.000 
#    0.000    0.000    0.000    0.000    0.000    0.000 
#
# Total GULP energy -89399.365082 kJ/mol
# GULP energy per Si atom -5587.460318 kJ/mol
# Density = 2.401764 g / cm^3
# Si number density = 24.072430 Si / 1000 Ang^3
#
#
#
# Elastic Constant Matrix: (Units=GPa)
#
#
# Indices 1 2 3 4 5 6 
#
# 1 246.3457 57.3965 65.2307 0.0000 -11.6796 0.0000
# 2 57.3965 77.2868 24.4362 0.0000 14.0612 0.0000
# 3 65.2307 24.4362 68.4977 0.0000 0.1094 0.0000
# 4 0.0000 0.0000 0.0000 29.1995 0.0000 2.9952
# 5 -11.6796 14.0612 0.1094 0.0000 37.5017 0.0000
# 6 0.0000 0.0000 0.0000 2.9952 0.0000 35.1439
#
#
#
# Elastic Compliance Matrix: (Units=1/GPa)
#
#
# Indices 1 2 3 4 5 6 
#
# 1 0.006366 -0.003874 -0.004686 0.000000 0.003449 0.000000
# 2 -0.003874 0.018148 -0.002773 0.000000 -0.008003 0.000000
# 3 -0.004686 -0.002773 0.020052 0.000000 -0.000478 0.000000
# 4 0.000000 0.000000 0.000000 0.034549 0.000000 -0.002944
# 5 0.003449 -0.008003 -0.000478 0.000000 0.030742 0.000000
# 6 0.000000 0.000000 0.000000 -0.002944 0.000000 0.028705
#
#
# Mechanical properties :
#
#
# Convention : Reuss Voigt Hill
#
# Bulk Modulus (GPa) = 45.65969 76.25078 60.95523
# Shear Modulus (GPa) = 29.66873 36.70682 33.18777
#
# Velocity S-wave (km/s) = 3.51447 3.90917 3.71706
# Velocity P-wave (km/s) = 5.95630 7.21940 6.61805
#
# Compressibility (1/GPa) = 0.02190116
#
# Stress axis : x y z
#
# Youngs Moduli (GPa) = 157.07804 55.10186 49.87125
#
# Poissons Ratio (x) = 0.21345 0.23371
# Poissons Ratio (y) = 0.60847 0.13827
# Poissons Ratio (z) = 0.73610 0.15277
#
# Static dielectric constant tensor:
#      x y z
#    x 1.875710 0.000000 0.025880 
#    y 0.000000 1.909790 0.000000 
#    z 0.025880 0.000000 2.005330 
# 
# From -- ./inp_files/28032.got.cif
#   From: 2010.05.17/outbox.cif.g08.bks.cpg/sg15_15_cif.got.tgz:28032.got - 2010.06.03 18:47:42.
