data_PCOD9307144
_publ_section_title
;
Structure prediction by ZEFSAII (Michael W. Deem and Ramdas Pophale) SiO2 
 PCOD9307144
Probable space group: C 2/C
;
_chemical_formula_sum "Si O2"
_cell_formula_units_Z 60
_cell_length_a 20.549447
_cell_length_b 11.911409
_cell_length_c 14.208199
_cell_angle_alpha 90.000000
_cell_angle_beta 119.168414
_cell_angle_gamma 90.000000
_cell_volume 3036.767232
_symmetry_space_group_name_H-M "C 2/C"
_symmetry_group_IT_number 15
_symmetry_cell_setting 'monoclinic'
loop_
_space_group_symop_operation_xyz
x,y,z
-x,y,1/2-z
-x,-y,-z
x,-y,1/2+z
1/2+x,1/2+y,z
1/2-x,1/2+y,1/2-z
1/2-x,1/2-y,-z
1/2+x,1/2-y,1/2+z
loop_
_atom_site_type_symbol
_atom_site_label
_atom_site_fract_x
_atom_site_fract_y
_atom_site_fract_z
Si Si1 0.172673 0.101160 0.699967
Si Si2 0.277652 0.121389 0.509872
Si Si3 0.027482 0.699274 0.581230
Si Si4 0.500000 0.675393 0.250000
Si Si5 0.835023 0.446912 0.252934
Si Si6 0.874549 0.005659 0.641774
Si Si7 0.073144 0.929864 0.521645
Si Si8 0.373999 0.152735 0.393420
O O1 0.261508 0.096133 0.755571
O O2 0.143840 0.216442 0.635244
O O3 0.141331 0.086843 0.782545
O O4 0.140965 0.995265 0.619157
O O5 0.250000 0.250000 0.500000
O O6 0.320334 0.082175 0.633709
O O7 0.203866 0.046946 0.444914
O O8 0.328864 0.113461 0.453832
O O9 0.092695 0.617256 0.658644
O O10 0.062132 0.804335 0.549635
O O11 0.990916 0.750952 0.650350
O O12 0.961748 0.643560 0.475171
O O13 0.571607 0.595725 0.287922
O O14 0.847044 0.576983 0.287519
O O15 0.914200 0.062282 0.580747
O O16 0.000000 0.000000 0.500000
#
# Coordination Sequence:
#
# PCOD9307144 Si02
#       8
#     8   8   8   4   8   8   8   8
#     4  12  24  43  71 104 138 181 230 294 345 410
#     4  12  23  42  73 101 134 183 236 288 333 412
#     4  12  25  44  71 102 141 181 232 288 349 419
#     4  12  22  38  76 106 134 180 230 298 340 404
#     4  12  27  44  71 101 140 189 229 283 353 423
#     4  12  23  41  68 107 139 170 235 290 350 402
#     4  12  22  43  69 103 137 176 230 293 347 400
#     4  12  26  48  69 100 144 184 233 287 355 421
#
# _framework density 19.757853000000001
#
# number of rings (size 3 to 8) (size 9 to 14) (size 15 to 20)
#    0.000    0.000    8.000    2.800    1.867    0.000 
#    2.400    1.333    0.000    0.000    0.000    0.000 
#    0.000    0.000    0.000    0.000    0.000    0.000 
#
# Total GULP energy -167915.838416 kJ/mol
# GULP energy per Si atom -5597.194614 kJ/mol
# Density = 1.971288 g / cm^3
# Si number density = 19.757853 Si / 1000 Ang^3
#
#
#
# Elastic Constant Matrix: (Units=GPa)
#
#
# Indices 1 2 3 4 5 6 
#
# 1 95.9738 19.5975 36.9970 0.0000 -0.4850 0.0000
# 2 19.5975 45.4801 21.0618 0.0000 1.0340 0.0000
# 3 36.9970 21.0618 96.7109 0.0000 -0.5146 0.0000
# 4 0.0000 0.0000 0.0000 37.3182 0.0000 0.9143
# 5 -0.4850 1.0340 -0.5146 0.0000 57.1096 0.0000
# 6 0.0000 0.0000 0.0000 0.9143 0.0000 23.8316
#
#
#
# Elastic Compliance Matrix: (Units=1/GPa)
#
#
# Indices 1 2 3 4 5 6 
#
# 1 0.012730 -0.003596 -0.004086 0.000000 0.000136 0.000000
# 2 -0.003596 0.025484 -0.004177 0.000000 -0.000530 0.000000
# 3 -0.004086 -0.004177 0.012814 0.000000 0.000156 0.000000
# 4 0.000000 0.000000 0.000000 0.026822 0.000000 -0.001029
# 5 0.000136 -0.000530 0.000156 0.000000 0.017522 0.000000
# 6 0.000000 0.000000 0.000000 -0.001029 0.000000 0.042000
#
#
# Mechanical properties :
#
#
# Convention : Reuss Voigt Hill
#
# Bulk Modulus (GPa) = 36.61806 43.71972 40.16889
# Shear Modulus (GPa) = 29.37853 34.35245 31.86549
#
# Velocity S-wave (km/s) = 3.86026 4.17426 4.02033
# Velocity P-wave (km/s) = 6.20020 6.73858 6.47499
#
# Compressibility (1/GPa) = 0.02730893
#
# Stress axis : x y z
#
# Youngs Moduli (GPa) = 78.55727 39.24091 78.04189
#
# Poissons Ratio (x) = 0.14112 0.31887
# Poissons Ratio (y) = 0.28250 0.32598
# Poissons Ratio (z) = 0.32097 0.16391
#
# Static dielectric constant tensor:
#      x y z
#    x 1.688220 0.000000 0.001870 
#    y 0.000000 1.672240 0.000000 
#    z 0.001870 0.000000 1.708720 
# 
# From -- ./inp_files/167703.got.cif
#   From: 2010.05.17/outbox.cif.g08.bks.cpg/sg15_84_cif.got.tgz:167703.got - 2010.06.03 18:47:42.
