data_PCOD9307536
_publ_section_title
;
Structure prediction by ZEFSAII (Michael W. Deem and Ramdas Pophale) SiO2 
 PCOD9307536
Probable space group: C 2/C
;
_chemical_formula_sum "Si O2"
_cell_formula_units_Z 52
_cell_length_a 8.916341
_cell_length_b 16.534975
_cell_length_c 19.363712
_cell_angle_alpha 90.000000
_cell_angle_beta 120.520240
_cell_angle_gamma 90.000000
_cell_volume 2459.284709
_symmetry_space_group_name_H-M "C 2/C"
_symmetry_group_IT_number 15
_symmetry_cell_setting 'monoclinic'
loop_
_space_group_symop_operation_xyz
x,y,z
-x,y,1/2-z
-x,-y,-z
x,-y,1/2+z
1/2+x,1/2+y,z
1/2-x,1/2+y,1/2-z
1/2-x,1/2-y,-z
1/2+x,1/2-y,1/2+z
loop_
_atom_site_type_symbol
_atom_site_label
_atom_site_fract_x
_atom_site_fract_y
_atom_site_fract_z
Si Si1 0.000000 0.734794 0.250000
Si Si2 0.981700 0.021269 0.076284
Si Si3 0.599907 0.130936 0.141630
Si Si4 0.148957 0.674166 0.661205
Si Si5 0.350909 0.299863 0.583323
Si Si6 0.635677 0.072458 0.523910
Si Si7 0.679792 0.987234 0.252534
O O1 0.063746 0.682188 0.200838
O O2 0.163858 0.788000 0.308846
O O3 0.925799 0.114923 0.072468
O O4 0.157994 0.003598 0.159573
O O5 0.827795 0.964005 0.069005
O O6 0.000000 0.000000 0.000000
O O7 0.722942 0.176440 0.116008
O O8 0.417666 0.113024 0.060778
O O9 0.686411 0.047491 0.188446
O O10 0.096487 0.631843 0.577473
O O11 0.168559 0.604393 0.722865
O O12 0.008322 0.742755 0.645617
O O13 0.250000 0.250000 0.500000
O O14 0.500000 0.000000 0.500000
O O15 0.500000 0.005173 0.250000
#
# Coordination Sequence:
#
# PCOD9307536 Si02
#       7
#     4   8   8   8   8   8   8
#     4  12  30  46  68 116 146 196 242 322 376 438
#     4  12  28  47  79 110 150 205 263 301 379 468
#     4  12  26  50  76 103 156 195 251 306 382 457
#     4  12  27  47  74 109 150 190 253 311 386 439
#     4  12  27  48  76 116 151 199 250 319 388 452
#     4  12  23  49  76 104 144 197 247 307 366 456
#     4  12  27  48  76 107 148 204 258 309 373 460
#
# _framework density 21.144361
#
# number of rings (size 3 to 8) (size 9 to 14) (size 15 to 20)
#    0.000    0.000    5.385    2.769    6.462    4.923 
#    0.000    0.000    0.000    0.000    0.000    0.000 
#    0.000    0.000    0.000    0.000    0.000    0.000 
#
# Total GULP energy -145615.360624 kJ/mol
# GULP energy per Si atom -5600.590793 kJ/mol
# Density = 2.109624 g / cm^3
# Si number density = 21.144361 Si / 1000 Ang^3
#
#
#
# Elastic Constant Matrix: (Units=GPa)
#
#
# Indices 1 2 3 4 5 6 
#
# 1 136.4216 62.7853 54.7900 0.0000 6.8640 0.0000
# 2 62.7853 138.9072 56.7920 0.0000 -4.1668 0.0000
# 3 54.7900 56.7920 135.9358 0.0000 8.0697 0.0000
# 4 0.0000 0.0000 0.0000 45.5033 0.0000 13.3792
# 5 6.8640 -4.1668 8.0697 0.0000 47.9311 0.0000
# 6 0.0000 0.0000 0.0000 13.3792 0.0000 12.8474
#
#
#
# Elastic Compliance Matrix: (Units=1/GPa)
#
#
# Indices 1 2 3 4 5 6 
#
# 1 0.010031 -0.003561 -0.002476 0.000000 -0.001329 0.000000
# 2 -0.003561 0.010038 -0.002869 0.000000 0.001866 0.000000
# 3 -0.002476 -0.002869 0.009643 0.000000 -0.001518 0.000000
# 4 0.000000 0.000000 0.000000 0.031675 0.000000 -0.032986
# 5 -0.001329 0.001866 -0.001518 0.000000 0.021471 0.000000
# 6 0.000000 0.000000 0.000000 -0.032986 0.000000 0.112189
#
#
# Mechanical properties :
#
#
# Convention : Reuss Voigt Hill
#
# Bulk Modulus (GPa) = 84.04287 84.44436 84.24362
# Shear Modulus (GPa) = 23.05998 37.04952 30.05475
#
# Velocity S-wave (km/s) = 3.30600 4.19049 3.77425
# Velocity P-wave (km/s) = 7.37606 7.96476 7.67606
#
# Compressibility (1/GPa) = 0.01189869
#
# Stress axis : x y z
#
# Youngs Moduli (GPa) = 99.69522 99.62495 103.70017
#
# Poissons Ratio (x) = 0.35479 0.25678
# Poissons Ratio (y) = 0.35504 0.29751
# Poissons Ratio (z) = 0.24686 0.28582
#
# Static dielectric constant tensor:
#      x y z
#    x 1.725720 0.000000 0.003690 
#    y 0.000000 1.789760 0.000000 
#    z 0.003690 0.000000 1.740020 
# 
# From -- ./inp_files/191150.got.cif
#   From: 2010.05.17/outbox.cif.g08.bks.cpg/sg15_96_cif.got.tgz:191150.got - 2010.06.03 18:47:42.
