data_PCOD9307842
_publ_section_title
;
Structure prediction by ZEFSAII (Michael W. Deem and Ramdas Pophale) SiO2 
 PCOD9307842
Probable space group: C 2/C
;
_chemical_formula_sum "Si O2"
_cell_formula_units_Z 40
_cell_length_a 11.939701
_cell_length_b 7.591215
_cell_length_c 20.479580
_cell_angle_alpha 90.000000
_cell_angle_beta 48.023093
_cell_angle_gamma 90.000000
_cell_volume 1379.929158
_symmetry_space_group_name_H-M "C 2/C"
_symmetry_group_IT_number 15
_symmetry_cell_setting 'monoclinic'
loop_
_space_group_symop_operation_xyz
x,y,z
-x,y,1/2-z
-x,-y,-z
x,-y,1/2+z
1/2+x,1/2+y,z
1/2-x,1/2+y,1/2-z
1/2-x,1/2-y,-z
1/2+x,1/2-y,1/2+z
loop_
_atom_site_type_symbol
_atom_site_label
_atom_site_fract_x
_atom_site_fract_y
_atom_site_fract_z
Si Si1 0.935325 0.458544 0.660197
Si Si2 0.791580 0.973648 0.530152
Si Si3 0.938402 0.018785 0.843518
Si Si4 0.624650 0.161660 0.443122
Si Si5 0.817271 0.830464 0.661607
O O1 0.849024 0.402544 0.758283
O O2 0.902744 0.299766 0.622081
O O3 0.111562 0.497760 0.597252
O O4 0.849471 0.628648 0.665533
O O5 0.849449 0.891880 0.439438
O O6 0.868163 0.167593 0.512600
O O7 0.798924 0.895530 0.877570
O O8 0.074965 0.926798 0.828152
O O9 0.000000 0.090117 0.750000
O O10 0.334379 0.365324 0.577847
O O11 0.500000 0.000000 0.500000
#
# Coordination Sequence:
#
# PCOD9307842 Si02
#       5
#     8   8   8   8   8
#     4  12  26  51  81 120 169 213 269 342 411 487
#     4  12  27  53  82 118 163 219 271 335 415 486
#     4  12  25  49  80 114 162 214 265 339 406 478
#     4  12  24  49  85 113 160 215 267 331 414 485
#     4  12  27  49  83 121 162 217 276 334 407 494
#
# _framework density 28.986993999999999
#
# number of rings (size 3 to 8) (size 9 to 14) (size 15 to 20)
#    0.000    0.000    6.000    4.200    0.000    0.000 
#   10.800    2.000    0.000    0.000    0.000    0.000 
#    0.000    0.000    0.000    0.000    0.000    0.000 
#
# Total GULP energy -111972.092384 kJ/mol
# GULP energy per Si atom -5598.604619 kJ/mol
# Density = 2.892102 g / cm^3
# Si number density = 28.986994 Si / 1000 Ang^3
#
#
#
# Elastic Constant Matrix: (Units=GPa)
#
#
# Indices 1 2 3 4 5 6 
#
# 1 234.6370 65.7824 80.7221 0.0000 -13.0271 0.0000
# 2 65.7824 138.7573 53.3906 0.0000 -0.3764 0.0000
# 3 80.7221 53.3906 253.8184 0.0000 13.1751 0.0000
# 4 0.0000 0.0000 0.0000 28.5075 0.0000 -7.0834
# 5 -13.0271 -0.3764 13.1751 0.0000 62.6699 0.0000
# 6 0.0000 0.0000 0.0000 -7.0834 0.0000 57.9365
#
#
#
# Elastic Compliance Matrix: (Units=1/GPa)
#
#
# Indices 1 2 3 4 5 6 
#
# 1 0.005372 -0.002022 -0.001355 0.000000 0.001389 0.000000
# 2 -0.002022 0.008612 -0.001162 0.000000 -0.000124 0.000000
# 3 -0.001355 -0.001162 0.004681 0.000000 -0.001273 0.000000
# 4 0.000000 0.000000 0.000000 0.036178 0.000000 0.004423
# 5 0.001389 -0.000124 -0.001273 0.000000 0.016512 0.000000
# 6 0.000000 0.000000 0.000000 0.004423 0.000000 0.017801
#
#
# Mechanical properties :
#
#
# Convention : Reuss Voigt Hill
#
# Bulk Modulus (GPa) = 104.30407 114.11143 109.20775
# Shear Modulus (GPa) = 49.29485 58.31061 53.80273
#
# Velocity S-wave (km/s) = 4.12829 4.48997 4.31292
# Velocity P-wave (km/s) = 7.66713 8.14442 7.90938
#
# Compressibility (1/GPa) = 0.00958735
#
# Stress axis : x y z
#
# Youngs Moduli (GPa) = 186.14713 116.11642 213.61036
#
# Poissons Ratio (x) = 0.23473 0.28953
# Poissons Ratio (y) = 0.37630 0.24826
# Poissons Ratio (z) = 0.25230 0.13495
#
# Static dielectric constant tensor:
#      x y z
#    x 2.164320 0.000000 -0.018930 
#    y 0.000000 2.273930 0.000000 
#    z -0.018930 0.000000 2.446000 
# 
# From -- ./inp_files/243235.got.cif
#   From: 2010.05.17/outbox.cif.g08.bks.cpg/sg15_122_cif.got.tgz:243235.got - 2010.06.03 18:47:42.
