data_PCOD9307453
_publ_section_title
;
Structure prediction by ZEFSAII (Michael W. Deem and Ramdas Pophale) SiO2 
 PCOD9307453
Probable space group: C 2/C
;
_chemical_formula_sum "Si O2"
_cell_formula_units_Z 48
_cell_length_a 22.545963
_cell_length_b 10.737365
_cell_length_c 12.497135
_cell_angle_alpha 90.000000
_cell_angle_beta 43.508714
_cell_angle_gamma 90.000000
_cell_volume 2082.853690
_symmetry_space_group_name_H-M "C 2/C"
_symmetry_group_IT_number 15
_symmetry_cell_setting 'monoclinic'
loop_
_space_group_symop_operation_xyz
x,y,z
-x,y,1/2-z
-x,-y,-z
x,-y,1/2+z
1/2+x,1/2+y,z
1/2-x,1/2+y,1/2-z
1/2-x,1/2-y,-z
1/2+x,1/2-y,1/2+z
loop_
_atom_site_type_symbol
_atom_site_label
_atom_site_fract_x
_atom_site_fract_y
_atom_site_fract_z
Si Si1 0.621942 0.135724 0.995563
Si Si2 0.000000 0.831146 0.250000
Si Si3 0.185278 0.150389 0.037937
Si Si4 0.325299 0.936504 0.835553
Si Si5 0.305257 0.698720 0.704536
Si Si6 0.000000 0.500000 0.000000
Si Si7 0.916288 0.005482 0.683956
O O1 0.554427 0.246968 0.098504
O O2 0.661557 0.109831 0.060394
O O3 0.703672 0.178801 0.819961
O O4 0.566365 0.027620 0.015291
O O5 0.061622 0.912967 0.241231
O O6 0.116301 0.121345 0.220631
O O7 0.250000 0.250000 0.000000
O O8 0.150952 0.201105 0.969434
O O9 0.241331 0.024442 0.942137
O O10 0.318109 0.819049 0.763206
O O11 0.414909 0.002666 0.689413
O O12 0.343499 0.577768 0.713401
O O13 0.000000 0.000000 0.500000
#
# Coordination Sequence:
#
# PCOD9307453 Si02
#       7
#     8   4   8   8   8   4   8
#     4  12  23  44  76 111 144 202 260 321 391 484
#     4  12  24  46  76 108 148 196 268 318 394 478
#     4  12  30  47  75 116 155 203 263 336 398 478
#     4  12  25  49  75 114 152 207 264 322 401 485
#     4  12  26  47  81 107 150 206 264 325 408 476
#     4  12  24  42  74 112 154 190 250 330 386 464
#     4  12  27  49  78 111 156 205 261 330 399 485
#
# _framework density 23.045307999999999
#
# number of rings (size 3 to 8) (size 9 to 14) (size 15 to 20)
#    0.000    0.000    6.667    2.500    7.000    1.333 
#    0.000    0.000    0.000    0.000    0.000    0.000 
#    0.000    0.000    0.000    0.000    0.000    0.000 
#
# Total GULP energy -133763.938907 kJ/mol
# GULP energy per Si atom -5573.497454 kJ/mol
# Density = 2.299286 g / cm^3
# Si number density = 23.045308 Si / 1000 Ang^3
#
#
#
# Elastic Constant Matrix: (Units=GPa)
#
#
# Indices 1 2 3 4 5 6 
#
# 1 106.1986 28.5080 15.2048 0.0000 19.6798 0.0000
# 2 28.5080 52.9298 28.2764 0.0000 12.0038 0.0000
# 3 15.2048 28.2764 140.5943 0.0000 -8.3684 0.0000
# 4 0.0000 0.0000 0.0000 16.9392 0.0000 -6.9802
# 5 19.6798 12.0038 -8.3684 0.0000 55.8073 0.0000
# 6 0.0000 0.0000 0.0000 -6.9802 0.0000 26.2661
#
#
#
# Elastic Compliance Matrix: (Units=1/GPa)
#
#
# Indices 1 2 3 4 5 6 
#
# 1 0.011436 -0.005308 -0.000344 0.000000 -0.002943 0.000000
# 2 -0.005308 0.025266 -0.004762 0.000000 -0.004277 0.000000
# 3 -0.000344 -0.004762 0.008249 0.000000 0.002383 0.000000
# 4 0.000000 0.000000 0.000000 0.066295 0.000000 0.017618
# 5 -0.002943 -0.004277 0.002383 0.000000 0.020234 0.000000
# 6 0.000000 0.000000 0.000000 0.017618 0.000000 0.042754
#
#
# Mechanical properties :
#
#
# Convention : Reuss Voigt Hill
#
# Bulk Modulus (GPa) = 41.45536 49.30011 45.37773
# Shear Modulus (GPa) = 24.61810 34.98474 29.80142
#
# Velocity S-wave (km/s) = 3.27195 3.90049 3.59996
# Velocity P-wave (km/s) = 5.68348 6.45943 6.08384
#
# Compressibility (1/GPa) = 0.02412233
#
# Stress axis : x y z
#
# Youngs Moduli (GPa) = 87.44465 39.57932 121.22015
#
# Poissons Ratio (x) = 0.21009 0.04174
# Poissons Ratio (y) = 0.46416 0.57725
# Poissons Ratio (z) = 0.03011 0.18848
#
# Static dielectric constant tensor:
#      x y z
#    x 1.828680 0.000000 0.013880 
#    y 0.000000 1.903000 0.000000 
#    z 0.013880 0.000000 1.904940 
# 
# From -- ./inp_files/104205.got.cif
#   From: 2010.05.17/outbox.cif.g08.bks.cpg/sg15_53_cif.got.tgz:104205.got - 2010.06.03 18:47:42.
