data_PCOD9307785
_publ_section_title
;
Structure prediction by ZEFSAII (Michael W. Deem and Ramdas Pophale) SiO2 
 PCOD9307785
Probable space group: C 2/C
;
_chemical_formula_sum "Si O2"
_cell_formula_units_Z 32
_cell_length_a 14.223769
_cell_length_b 12.012959
_cell_length_c 9.491391
_cell_angle_alpha 90.000000
_cell_angle_beta 65.103697
_cell_angle_gamma 90.000000
_cell_volume 1471.078737
_symmetry_space_group_name_H-M "C 2/C"
_symmetry_group_IT_number 15
_symmetry_cell_setting 'monoclinic'
loop_
_space_group_symop_operation_xyz
x,y,z
-x,y,1/2-z
-x,-y,-z
x,-y,1/2+z
1/2+x,1/2+y,z
1/2-x,1/2+y,1/2-z
1/2-x,1/2-y,-z
1/2+x,1/2-y,1/2+z
loop_
_atom_site_type_symbol
_atom_site_label
_atom_site_fract_x
_atom_site_fract_y
_atom_site_fract_z
Si Si1 0.203578 0.573157 0.184151
Si Si2 0.436978 0.383617 0.530189
Si Si3 0.500000 0.744085 0.250000
Si Si4 0.500000 0.781791 0.750000
Si Si5 0.183102 0.360656 0.017101
O O1 0.317224 0.609935 0.058889
O O2 0.104189 0.642840 0.191745
O O3 0.197622 0.447460 0.133651
O O4 0.202408 0.584397 0.353957
O O5 0.500000 0.500000 0.500000
O O6 0.434429 0.333861 0.689000
O O7 0.494016 0.300319 0.387672
O O8 0.565864 0.820403 0.105695
O O9 0.250000 0.250000 0.000000
#
# Coordination Sequence:
#
# PCOD9307785 Si02
#       5
#     8   8   4   4   8
#     4  12  29  47  79 108 153 202 255 313 383 445
#     4  12  27  46  77 112 153 202 253 313 377 450
#     4  12  24  48  74 102 156 194 248 312 372 448
#     4  12  28  50  72 114 154 202 258 312 380 456
#     4  12  27  49  76 112 150 199 251 316 381 450
#
# _framework density 21.752744
#
# number of rings (size 3 to 8) (size 9 to 14) (size 15 to 20)
#    0.000    0.000    5.000    3.750    7.000    2.000 
#    0.000    0.000    0.000    0.000    0.000    0.000 
#    0.000    0.000    0.000    0.000    0.000    0.000 
#
# Total GULP energy -89451.676552 kJ/mol
# GULP energy per Si atom -5590.729784 kJ/mol
# Density = 2.170323 g / cm^3
# Si number density = 21.752744 Si / 1000 Ang^3
#
#
#
# Elastic Constant Matrix: (Units=GPa)
#
#
# Indices 1 2 3 4 5 6 
#
# 1 97.0624 56.7273 16.4237 0.0000 -13.2854 0.0000
# 2 56.7273 160.2648 72.9311 0.0000 2.2198 0.0000
# 3 16.4237 72.9311 112.7913 0.0000 6.8130 0.0000
# 4 0.0000 0.0000 0.0000 50.4102 0.0000 6.3930
# 5 -13.2854 2.2198 6.8130 0.0000 43.9921 0.0000
# 6 0.0000 0.0000 0.0000 6.3930 0.0000 14.6636
#
#
#
# Elastic Compliance Matrix: (Units=1/GPa)
#
#
# Indices 1 2 3 4 5 6 
#
# 1 0.013935 -0.005598 0.001332 0.000000 0.004285 0.000000
# 2 -0.005598 0.011098 -0.006284 0.000000 -0.001277 0.000000
# 3 0.001332 -0.006284 0.012812 0.000000 -0.001265 0.000000
# 4 0.000000 0.000000 0.000000 0.020998 0.000000 -0.009155
# 5 0.004285 -0.001277 -0.001265 0.000000 0.024286 0.000000
# 6 0.000000 0.000000 0.000000 -0.009155 0.000000 0.072188
#
#
# Mechanical properties :
#
#
# Convention : Reuss Voigt Hill
#
# Bulk Modulus (GPa) = 59.71917 73.58698 66.65307
# Shear Modulus (GPa) = 27.47264 36.74894 32.11079
#
# Velocity S-wave (km/s) = 3.55766 4.11468 3.84627
# Velocity P-wave (km/s) = 6.66252 7.51508 7.10160
#
# Compressibility (1/GPa) = 0.01674504
#
# Stress axis : x y z
#
# Youngs Moduli (GPa) = 71.75939 90.10274 78.05382
#
# Poissons Ratio (x) = 0.50439 -0.10394
# Poissons Ratio (y) = 0.40170 0.49049
# Poissons Ratio (z) = -0.09556 0.56621
#
# Static dielectric constant tensor:
#      x y z
#    x 1.745280 0.000000 -0.195610 
#    y 0.000000 1.818260 0.000000 
#    z -0.195610 0.000000 1.565200 
# 
# From -- ./inp_files/36636.got.cif
#   From: 2010.05.17/outbox.cif.g08.bks.cpg/sg15_19_cif.got.tgz:36636.got - 2010.06.03 18:47:42.
