data_PCOD9307707
_publ_section_title
;
Structure prediction by ZEFSAII (Michael W. Deem and Ramdas Pophale) SiO2 
 PCOD9307707
Probable space group: C 2/C
;
_chemical_formula_sum "Si O2"
_cell_formula_units_Z 28
_cell_length_a 5.089305
_cell_length_b 34.238991
_cell_length_c 8.870810
_cell_angle_alpha 90.000000
_cell_angle_beta 124.965094
_cell_angle_gamma 90.000000
_cell_volume 1266.754268
_symmetry_space_group_name_H-M "C 2/C"
_symmetry_group_IT_number 15
_symmetry_cell_setting 'monoclinic'
loop_
_space_group_symop_operation_xyz
x,y,z
-x,y,1/2-z
-x,-y,-z
x,-y,1/2+z
1/2+x,1/2+y,z
1/2-x,1/2+y,1/2-z
1/2-x,1/2-y,-z
1/2+x,1/2-y,1/2+z
loop_
_atom_site_type_symbol
_atom_site_label
_atom_site_fract_x
_atom_site_fract_y
_atom_site_fract_z
Si Si1 0.780790 0.972518 0.537819
Si Si2 0.718465 0.204945 0.537500
Si Si3 0.000000 0.596008 0.750000
Si Si4 0.606118 0.657412 0.446282
O O1 0.587910 0.935650 0.407513
O O2 0.000000 0.960410 0.750000
O O3 0.500000 0.000000 0.500000
O O4 0.000000 0.000000 0.500000
O O5 0.750000 0.250000 0.500000
O O6 0.389504 0.188604 0.500733
O O7 0.000000 0.198177 0.750000
O O8 0.814294 0.180276 0.423331
O O9 0.721861 0.626799 0.611866
O O10 0.500000 0.639889 0.250000
#
# Coordination Sequence:
#
# PCOD9307707 Si02
#       4
#     8   8   4   8
#     4  12  25  47  74 106 142 188 236 288 356 428
#     4  12  24  46  71 103 144 188 240 293 348 425
#     4  12  26  48  76 104 154 174 246 296 354 422
#     4  12  26  46  70 106 142 188 236 293 360 410
#
# _framework density 22.103735
#
# number of rings (size 3 to 8) (size 9 to 14) (size 15 to 20)
#    0.000    0.000    5.714    4.286    0.000    4.571 
#    0.000    5.714    0.000    0.000    0.000    0.000 
#    0.000    0.000    0.000    0.000    0.000    0.000 
#
# Total GULP energy -78008.647335 kJ/mol
# GULP energy per Si atom -5572.046238 kJ/mol
# Density = 2.205343 g / cm^3
# Si number density = 22.103735 Si / 1000 Ang^3
#
#
#
# Elastic Constant Matrix: (Units=GPa)
#
#
# Indices 1 2 3 4 5 6 
#
# 1 135.3062 44.1956 15.6878 0.0000 2.5712 0.0000
# 2 44.1956 159.6060 37.2602 0.0000 2.5204 0.0000
# 3 15.6878 37.2602 180.9611 0.0000 18.1750 0.0000
# 4 0.0000 0.0000 0.0000 54.0675 0.0000 8.4736
# 5 2.5712 2.5204 18.1750 0.0000 33.0907 0.0000
# 6 0.0000 0.0000 0.0000 8.4736 0.0000 2.7734
#
#
#
# Elastic Compliance Matrix: (Units=1/GPa)
#
#
# Indices 1 2 3 4 5 6 
#
# 1 0.008140 -0.002198 -0.000219 0.000000 -0.000345 0.000000
# 2 -0.002198 0.007177 -0.001322 0.000000 0.000350 0.000000
# 3 -0.000219 -0.001322 0.006144 0.000000 -0.003257 0.000000
# 4 0.000000 0.000000 0.000000 0.035489 0.000000 -0.108429
# 5 -0.000345 0.000350 -0.003257 0.000000 0.032009 0.000000
# 6 0.000000 0.000000 0.000000 -0.108429 0.000000 0.691848
#
#
# Mechanical properties :
#
#
# Convention : Reuss Voigt Hill
#
# Bulk Modulus (GPa) = 71.50699 74.46230 72.98465
# Shear Modulus (GPa) = 6.30559 43.23496 24.77028
#
# Velocity S-wave (km/s) = 1.69083 4.42747 3.35122
# Velocity P-wave (km/s) = 6.01937 7.73934 6.93290
#
# Compressibility (1/GPa) = 0.01398465
#
# Stress axis : x y z
#
# Youngs Moduli (GPa) = 122.84468 139.33084 162.74916
#
# Poissons Ratio (x) = 0.30620 0.03557
# Poissons Ratio (y) = 0.26997 0.21523
# Poissons Ratio (z) = 0.02685 0.18426
#
# Static dielectric constant tensor:
#      x y z
#    x 1.754340 0.000000 -0.028150 
#    y 0.000000 1.373830 0.000000 
#    z -0.028150 0.000000 1.911660 
# 
# From -- ./inp_files/20370.got.cif
#   From: 2010.05.17/outbox.cif.g08.bks.cpg/sg15_11_cif.got.tgz:20370.got - 2010.06.03 18:47:42.
