data_PCOD9307981
_publ_section_title
;
Structure prediction by ZEFSAII (Michael W. Deem and Ramdas Pophale) SiO2 
 PCOD9307981
Probable space group: C 2/C
;
_chemical_formula_sum "Si O2"
_cell_formula_units_Z 48
_cell_length_a 18.754624
_cell_length_b 13.643015
_cell_length_c 17.702308
_cell_angle_alpha 90.000000
_cell_angle_beta 29.437652
_cell_angle_gamma 90.000000
_cell_volume 2226.132825
_symmetry_space_group_name_H-M "C 2/C"
_symmetry_group_IT_number 15
_symmetry_cell_setting 'monoclinic'
loop_
_space_group_symop_operation_xyz
x,y,z
-x,y,1/2-z
-x,-y,-z
x,-y,1/2+z
1/2+x,1/2+y,z
1/2-x,1/2+y,1/2-z
1/2-x,1/2-y,-z
1/2+x,1/2-y,1/2+z
loop_
_atom_site_type_symbol
_atom_site_label
_atom_site_fract_x
_atom_site_fract_y
_atom_site_fract_z
Si Si1 0.859025 0.956671 0.541266
Si Si2 0.154790 0.682249 0.142912
Si Si3 0.641690 0.674449 0.795333
Si Si4 0.167965 0.494357 0.867054
Si Si5 0.241510 0.286117 0.854179
Si Si6 0.455277 0.658205 0.378001
O O1 0.753101 0.908437 0.577569
O O2 0.764798 0.978275 0.702454
O O3 0.989913 0.883376 0.441344
O O4 0.926411 0.054402 0.444038
O O5 0.126943 0.745885 0.243665
O O6 0.000000 0.655816 0.250000
O O7 0.250000 0.750000 0.000000
O O8 0.766680 0.594881 0.659956
O O9 0.686162 0.729509 0.830929
O O10 0.191209 0.398958 0.897208
O O11 0.000000 0.500000 0.000000
O O12 0.413826 0.288877 0.699081
O O13 0.181457 0.227047 0.980773
O O14 0.500000 0.645775 0.250000
#
# Coordination Sequence:
#
# PCOD9307981 Si02
#       6
#     8   8   8   8   8   8
#     4  12  26  49  74 108 152 195 246 310 380 450
#     4  12  28  46  74 111 151 193 240 306 386 451
#     4  12  25  47  77 106 147 193 253 309 374 444
#     4  12  26  43  73 113 141 193 256 314 362 432
#     4  12  25  47  76 105 145 194 257 310 360 444
#     4  12  28  50  74 109 151 204 247 305 380 448
#
# _framework density 21.562055000000001
#
# number of rings (size 3 to 8) (size 9 to 14) (size 15 to 20)
#    0.000    0.000    6.667    3.000    7.000    0.000 
#    0.000    0.833    0.000    0.000    0.000    0.000 
#    0.000    0.000    0.000    0.000    0.000    0.000 
#
# Total GULP energy -134480.877734 kJ/mol
# GULP energy per Si atom -5603.369906 kJ/mol
# Density = 2.151298 g / cm^3
# Si number density = 21.562055 Si / 1000 Ang^3
#
#
#
# Elastic Constant Matrix: (Units=GPa)
#
#
# Indices 1 2 3 4 5 6 
#
# 1 109.2105 36.1220 47.4874 -0.0001 -11.8688 0.0001
# 2 36.1220 91.4046 40.9661 0.0000 -6.3471 0.0001
# 3 47.4874 40.9661 122.1199 -0.0004 -10.8837 0.0003
# 4 -0.0001 0.0000 -0.0004 37.6596 0.0002 -12.0594
# 5 -11.8688 -6.3471 -10.8837 0.0002 56.9495 -0.0001
# 6 0.0001 0.0001 0.0003 -12.0594 -0.0001 32.7594
#
#
#
# Elastic Compliance Matrix: (Units=1/GPa)
#
#
# Indices 1 2 3 4 5 6 
#
# 1 0.011816 -0.003021 -0.003450 0.000000 0.001466 0.000000
# 2 -0.003021 0.013670 -0.003389 0.000000 0.000246 0.000000
# 3 -0.003450 -0.003389 0.010753 0.000000 0.000958 0.000000
# 4 0.000000 0.000000 0.000000 0.030102 0.000000 0.011081
# 5 0.001466 0.000246 0.000958 0.000000 0.018076 0.000000
# 6 0.000000 0.000000 0.000000 0.011081 0.000000 0.034605
#
#
# Mechanical properties :
#
#
# Convention : Reuss Voigt Hill
#
# Bulk Modulus (GPa) = 60.54261 63.54291 62.04276
# Shear Modulus (GPa) = 34.66248 38.68432 36.67340
#
# Velocity S-wave (km/s) = 4.01380 4.24027 4.12859
# Velocity P-wave (km/s) = 7.04415 7.31484 7.18077
#
# Compressibility (1/GPa) = 0.01651729
#
# Stress axis : x y z
#
# Youngs Moduli (GPa) = 84.63401 73.15124 92.99991
#
# Poissons Ratio (x) = 0.22100 0.32089
# Poissons Ratio (y) = 0.25569 0.31518
# Poissons Ratio (z) = 0.29203 0.24792
#
# Static dielectric constant tensor:
#      x y z
#    x 1.779920 0.000000 0.001740 
#    y 0.000000 1.771120 0.000000 
#    z 0.001740 0.000000 1.778130 
# 
# From -- ./inp_files/66488.got.cif
#   From: 2010.05.17/outbox.cif.g08.bks.cpg/sg15_34_cif.got.tgz:66488.got - 2010.06.03 18:47:42.
