data_PCOD9307719
_publ_section_title
;
Structure prediction by ZEFSAII (Michael W. Deem and Ramdas Pophale) SiO2 
 PCOD9307719
Probable space group: C 2/C
;
_chemical_formula_sum "Si O2"
_cell_formula_units_Z 44
_cell_length_a 15.825215
_cell_length_b 9.707153
_cell_length_c 13.705281
_cell_angle_alpha 90.000000
_cell_angle_beta 118.906740
_cell_angle_gamma 90.000000
_cell_volume 1843.061323
_symmetry_space_group_name_H-M "C 2/C"
_symmetry_group_IT_number 15
_symmetry_cell_setting 'monoclinic'
loop_
_space_group_symop_operation_xyz
x,y,z
-x,y,1/2-z
-x,-y,-z
x,-y,1/2+z
1/2+x,1/2+y,z
1/2-x,1/2+y,1/2-z
1/2-x,1/2-y,-z
1/2+x,1/2-y,1/2+z
loop_
_atom_site_type_symbol
_atom_site_label
_atom_site_fract_x
_atom_site_fract_y
_atom_site_fract_z
Si Si1 0.431207 0.915783 0.097990
Si Si2 0.500000 0.333921 0.750000
Si Si3 0.805931 0.337060 0.848037
Si Si4 0.999525 0.708386 0.364852
Si Si5 0.282018 0.934047 0.177861
Si Si6 0.915877 0.021219 0.534567
O O1 0.497675 0.784752 0.161384
O O2 0.374139 0.964642 0.162702
O O3 0.483253 0.052689 0.090594
O O4 0.348791 0.870040 0.977204
O O5 0.437270 0.443817 0.649802
O O6 0.892522 0.256163 0.841907
O O7 0.718875 0.230030 0.805415
O O8 0.782733 0.473380 0.774564
O O9 0.000000 0.715915 0.250000
O O10 0.079013 0.814751 0.446356
O O11 0.185707 0.971603 0.064193
O O12 0.000000 0.000000 0.500000
#
# Coordination Sequence:
#
# PCOD9307719 Si02
#       6
#     8   4   8   8   8   8
#     4  12  26  47  74 107 145 195 246 308 372 439
#     4  12  24  46  74 102 148 188 246 298 360 448
#     4  12  27  47  72 106 151 191 244 306 374 443
#     4  12  24  48  72 104 143 190 243 301 375 440
#     4  12  28  46  72 109 144 194 247 303 373 436
#     4  12  27  45  72 107 147 194 243 303 371 434
#
# _framework density 23.873325000000001
#
# number of rings (size 3 to 8) (size 9 to 14) (size 15 to 20)
#    0.000    0.000    7.273    1.091    5.091    2.182 
#    0.000    0.000    0.000    0.000    0.000    0.000 
#    0.000    0.000    0.000    0.000    0.000    0.000 
#
# Total GULP energy -122876.289430 kJ/mol
# GULP energy per Si atom -5585.285883 kJ/mol
# Density = 2.381899 g / cm^3
# Si number density = 23.873325 Si / 1000 Ang^3
#
#
#
# Elastic Constant Matrix: (Units=GPa)
#
#
# Indices 1 2 3 4 5 6 
#
# 1 56.0805 0.2478 -5.1640 0.0000 7.5515 0.0000
# 2 0.2478 121.2845 57.1746 0.0000 0.4892 0.0000
# 3 -5.1640 57.1746 130.9262 0.0000 7.9849 0.0000
# 4 0.0000 0.0000 0.0000 44.6555 0.0000 14.4770
# 5 7.5515 0.4892 7.9849 0.0000 34.1597 0.0000
# 6 0.0000 0.0000 0.0000 14.4770 0.0000 19.2649
#
#
#
# Elastic Compliance Matrix: (Units=1/GPa)
#
#
# Indices 1 2 3 4 5 6 
#
# 1 0.018542 -0.000618 0.001269 0.000000 -0.004387 0.000000
# 2 -0.000618 0.010432 -0.004645 0.000000 0.001073 0.000000
# 3 0.001269 -0.004645 0.009870 0.000000 -0.002521 0.000000
# 4 0.000000 0.000000 0.000000 0.029606 0.000000 -0.022248
# 5 -0.004387 0.001073 -0.002521 0.000000 0.030818 0.000000
# 6 0.000000 0.000000 0.000000 -0.022248 0.000000 0.068627
#
#
# Mechanical properties :
#
#
# Convention : Reuss Voigt Hill
#
# Bulk Modulus (GPa) = 32.41042 45.86756 39.13899
# Shear Modulus (GPa) = 26.85721 36.68487 31.77104
#
# Velocity S-wave (km/s) = 3.35772 3.92426 3.65199
# Velocity P-wave (km/s) = 5.35144 6.30775 5.84917
#
# Compressibility (1/GPa) = 0.03085427
#
# Stress axis : x y z
#
# Youngs Moduli (GPa) = 53.93231 95.86005 101.31409
#
# Poissons Ratio (x) = 0.05928 -0.12856
# Poissons Ratio (y) = 0.03335 0.47064
# Poissons Ratio (z) = -0.06843 0.44530
#
# Static dielectric constant tensor:
#      x y z
#    x 1.945930 0.000000 0.001950 
#    y 0.000000 1.901100 0.000000 
#    z 0.001950 0.000000 1.894550 
# 
# From -- ./inp_files/159814.got.cif
#   From: 2010.05.17/outbox.cif.g08.bks.cpg/sg15_80_cif.got.tgz:159814.got - 2010.06.03 18:47:42.
