data_PCOD9307036
_publ_section_title
;
Structure prediction by ZEFSAII (Michael W. Deem and Ramdas Pophale) SiO2 
 PCOD9307036
Probable space group: C 2/C
;
_chemical_formula_sum "Si O2"
_cell_formula_units_Z 44
_cell_length_a 18.246647
_cell_length_b 18.161082
_cell_length_c 15.297403
_cell_angle_alpha 90.000000
_cell_angle_beta 152.848308
_cell_angle_gamma 90.000000
_cell_volume 2313.334972
_symmetry_space_group_name_H-M "C 2/C"
_symmetry_group_IT_number 15
_symmetry_cell_setting 'monoclinic'
loop_
_space_group_symop_operation_xyz
x,y,z
-x,y,1/2-z
-x,-y,-z
x,-y,1/2+z
1/2+x,1/2+y,z
1/2-x,1/2+y,1/2-z
1/2-x,1/2-y,-z
1/2+x,1/2-y,1/2+z
loop_
_atom_site_type_symbol
_atom_site_label
_atom_site_fract_x
_atom_site_fract_y
_atom_site_fract_z
Si Si1 0.761343 0.331949 0.888000
Si Si2 0.500000 0.480784 0.250000
Si Si3 0.107579 0.176872 0.532882
Si Si4 0.591548 0.978012 0.510023
Si Si5 0.699714 0.915346 0.399739
Si Si6 0.414434 0.562140 0.846268
O O1 0.829381 0.258819 0.916058
O O2 0.570501 0.327094 0.695719
O O3 0.813615 0.400700 0.883835
O O4 0.824514 0.353325 0.051645
O O5 0.657859 0.532043 0.416077
O O6 0.502209 0.438299 0.160107
O O7 0.230667 0.124641 0.611820
O O8 0.087124 0.140335 0.606308
O O9 0.454316 0.962163 0.292651
O O10 0.500000 0.000000 0.500000
O O11 0.729802 0.036885 0.637628
O O12 0.500000 0.500000 0.000000
#
# Coordination Sequence:
#
# PCOD9307036 Si02
#       6
#     8   4   8   8   8   8
#     4  12  25  40  61  98 133 179 220 273 340 401
#     4  12  22  40  68  96 130 170 230 272 328 400
#     4  12  24  42  63  93 140 182 214 272 345 402
#     4  12  23  38  64  96 132 175 222 272 331 408
#     4  12  21  39  62  97 136 167 216 273 334 401
#     4  12  22  44  66  94 133 180 225 277 336 394
#
# _framework density 19.020160000000001
#
# number of rings (size 3 to 8) (size 9 to 14) (size 15 to 20)
#    0.000    0.000    9.091    2.182    0.000    1.455 
#    0.000    0.000    0.000    1.091    4.727    0.000 
#    0.000    0.000    0.000    0.000    0.000    0.000 
#
# Total GULP energy -122882.938734 kJ/mol
# GULP energy per Si atom -5585.588124 kJ/mol
# Density = 1.897687 g / cm^3
# Si number density = 19.020160 Si / 1000 Ang^3
#
#
#
# Elastic Constant Matrix: (Units=GPa)
#
#
# Indices 1 2 3 4 5 6 
#
# 1 128.0568 33.6646 10.5771 0.0000 -19.2814 0.0000
# 2 33.6646 52.8986 30.0717 0.0000 -12.2064 0.0000
# 3 10.5771 30.0717 121.5563 0.0000 11.6268 0.0000
# 4 0.0000 0.0000 0.0000 19.2320 0.0000 -2.5672
# 5 -19.2814 -12.2064 11.6268 0.0000 34.1435 0.0000
# 6 0.0000 0.0000 0.0000 -2.5672 0.0000 32.7655
#
#
#
# Elastic Compliance Matrix: (Units=1/GPa)
#
#
# Indices 1 2 3 4 5 6 
#
# 1 0.009769 -0.005516 0.000182 0.000000 0.003483 0.000000
# 2 -0.005516 0.029040 -0.007648 0.000000 0.009871 0.000000
# 3 0.000182 -0.007648 0.010703 0.000000 -0.006277 0.000000
# 4 0.000000 0.000000 0.000000 0.052546 0.000000 0.004117
# 5 0.003483 0.009871 -0.006277 0.000000 0.036921 0.000000
# 6 0.000000 0.000000 0.000000 0.004117 0.000000 0.030842
#
#
# Mechanical properties :
#
#
# Convention : Reuss Voigt Hill
#
# Bulk Modulus (GPa) = 42.47016 50.12649 46.29833
# Shear Modulus (GPa) = 24.55345 32.44143 28.49744
#
# Velocity S-wave (km/s) = 3.59683 4.13441 3.87496
# Velocity P-wave (km/s) = 6.29501 7.01447 6.66445
#
# Compressibility (1/GPa) = 0.02354594
#
# Stress axis : x y z
#
# Youngs Moduli (GPa) = 102.36905 34.43467 93.42874
#
# Poissons Ratio (x) = 0.18995 -0.01696
# Poissons Ratio (y) = 0.56470 0.71459
# Poissons Ratio (z) = -0.01859 0.26337
#
# Static dielectric constant tensor:
#      x y z
#    x 1.708960 0.000000 -0.000380 
#    y 0.000000 1.650430 0.000000 
#    z -0.000380 0.000000 1.707000 
# 
# From -- ./inp_files/39293.got.cif
#   From: 2010.05.17/outbox.cif.g08.bks.cpg/sg15_20_cif.got.tgz:39293.got - 2010.06.03 18:47:42.
