data_PCOD9307853
_publ_section_title
;
Structure prediction by ZEFSAII (Michael W. Deem and Ramdas Pophale) SiO2 
 PCOD9307853
Probable space group: C 2/C
;
_chemical_formula_sum "Si O2"
_cell_formula_units_Z 44
_cell_length_a 22.620647
_cell_length_b 4.911817
_cell_length_c 15.402451
_cell_angle_alpha 90.000000
_cell_angle_beta 81.129306
_cell_angle_gamma 90.000000
_cell_volume 1690.873299
_symmetry_space_group_name_H-M "C 2/C"
_symmetry_group_IT_number 15
_symmetry_cell_setting 'monoclinic'
loop_
_space_group_symop_operation_xyz
x,y,z
-x,y,1/2-z
-x,-y,-z
x,-y,1/2+z
1/2+x,1/2+y,z
1/2-x,1/2+y,1/2-z
1/2-x,1/2-y,-z
1/2+x,1/2-y,1/2+z
loop_
_atom_site_type_symbol
_atom_site_label
_atom_site_fract_x
_atom_site_fract_y
_atom_site_fract_z
Si Si1 0.801928 0.413334 0.939283
Si Si2 0.881108 0.115430 0.400790
Si Si3 0.730360 0.309374 0.300835
Si Si4 0.000000 0.336127 0.750000
Si Si5 0.502223 0.811636 0.416260
Si Si6 0.396049 0.549163 0.206126
O O1 0.843781 0.660603 0.964485
O O2 0.764752 0.573779 0.874722
O O3 0.848312 0.174319 0.904866
O O4 0.750000 0.250000 0.000000
O O5 0.880127 0.210784 0.298651
O O6 0.947827 0.094079 0.426485
O O7 0.740764 0.989721 0.284367
O O8 0.661470 0.393564 0.315515
O O9 0.015246 0.516048 0.664369
O O10 0.945263 0.154766 0.732419
O O11 0.568366 0.706538 0.377136
O O12 0.500000 0.000000 0.500000
#
# Coordination Sequence:
#
# PCOD9307853 Si02
#       6
#     8   8   8   4   8   8
#     4  12  27  47  74 108 153 197 252 317 389 459
#     4  12  24  50  76 105 151 208 249 318 395 465
#     4  12  26  45  72 110 141 195 256 305 375 467
#     4  12  24  50  78 102 162 206 256 322 404 458
#     4  12  29  47  77 118 154 205 271 331 392 473
#     4  12  25  46  76 107 150 206 256 318 396 466
#
# _framework density 26.022054000000001
#
# number of rings (size 3 to 8) (size 9 to 14) (size 15 to 20)
#    0.000    0.000    7.273    1.636    5.091    2.182 
#    0.000    0.000    0.000    0.000    0.000    0.000 
#    0.000    0.000    0.000    0.000    0.000    0.000 
#
# Total GULP energy -123281.270684 kJ/mol
# GULP energy per Si atom -5603.694122 kJ/mol
# Density = 2.596283 g / cm^3
# Si number density = 26.022054 Si / 1000 Ang^3
#
#
#
# Elastic Constant Matrix: (Units=GPa)
#
#
# Indices 1 2 3 4 5 6 
#
# 1 173.8448 16.8743 2.4747 0.0000 -20.0952 0.0000
# 2 16.8743 79.3156 8.6299 0.0000 -11.8155 0.0000
# 3 2.4747 8.6299 77.7495 0.0000 -8.4217 0.0000
# 4 0.0000 0.0000 0.0000 28.7320 0.0000 -22.9126
# 5 -20.0952 -11.8155 -8.4217 0.0000 34.4562 0.0000
# 6 0.0000 0.0000 0.0000 -22.9126 0.0000 8.7355
#
#
#
# Elastic Compliance Matrix: (Units=1/GPa)
#
#
# Indices 1 2 3 4 5 6 
#
# 1 0.006224 -0.000846 0.000265 0.000000 0.003405 0.000000
# 2 -0.000846 0.013479 -0.001050 0.000000 0.003872 0.000000
# 3 0.000265 -0.001050 0.013300 0.000000 0.003045 0.000000
# 4 0.000000 0.000000 0.000000 -0.031882 0.000000 -0.083623
# 5 0.003405 0.003872 0.003045 0.000000 0.033080 0.000000
# 6 0.000000 0.000000 0.000000 -0.083623 0.000000 -0.104862
#
#
# Mechanical properties :
#
#
# Convention : Reuss Voigt Hill
#
# Bulk Modulus (GPa) = 33.62387 42.98529 38.30458
# Shear Modulus (GPa) = -86.97828 34.58016 -26.19906
#
# Velocity S-wave (km/s) = -5.78769 3.64933 -3.17646
# Velocity P-wave (km/s) = 5.63150 5.85760 1.13966
#
# Compressibility (1/GPa) = 0.02974078
#
# Stress axis : x y z
#
# Youngs Moduli (GPa) = 160.66488 74.19033 75.18941
#
# Poissons Ratio (x) = 0.06275 -0.01989
# Poissons Ratio (y) = 0.13589 0.07893
# Poissons Ratio (z) = -0.04250 0.07788
#
# Static dielectric constant tensor:
#      x y z
#    x 2.080050 0.000000 -0.100410 
#    y 0.000000 2.054330 0.000000 
#    z -0.100410 0.000000 2.095040 
# 
# From -- ./inp_files/212886.got.cif
#   From: 2010.05.17/outbox.cif.g08.bks.cpg/sg15_107_cif.got.tgz:212886.got - 2010.06.03 18:47:42.
