data_PCOD9307982
_publ_section_title
;
Structure prediction by ZEFSAII (Michael W. Deem and Ramdas Pophale) SiO2 
 PCOD9307982
Probable space group: C 2/C
;
_chemical_formula_sum "Si O2"
_cell_formula_units_Z 48
_cell_length_a 13.261174
_cell_length_b 10.337660
_cell_length_c 21.134003
_cell_angle_alpha 90.000000
_cell_angle_beta 47.665114
_cell_angle_gamma 90.000000
_cell_volume 2141.708610
_symmetry_space_group_name_H-M "C 2/C"
_symmetry_group_IT_number 15
_symmetry_cell_setting 'monoclinic'
loop_
_space_group_symop_operation_xyz
x,y,z
-x,y,1/2-z
-x,-y,-z
x,-y,1/2+z
1/2+x,1/2+y,z
1/2-x,1/2+y,1/2-z
1/2-x,1/2-y,-z
1/2+x,1/2-y,1/2+z
loop_
_atom_site_type_symbol
_atom_site_label
_atom_site_fract_x
_atom_site_fract_y
_atom_site_fract_z
Si Si1 0.783278 0.671549 0.601460
Si Si2 0.054567 0.715037 0.417038
Si Si3 0.701898 0.643401 0.970718
Si Si4 0.343334 0.050807 0.328027
Si Si5 0.755748 0.499083 0.224547
Si Si6 0.458829 0.451761 0.372962
O O1 0.760001 0.678740 0.382335
O O2 0.799252 0.628299 0.667285
O O3 0.662302 0.585680 0.623115
O O4 0.918841 0.650488 0.503403
O O5 0.126677 0.788186 0.444344
O O6 0.157458 0.613930 0.342733
O O7 0.007996 0.818730 0.384646
O O8 0.599622 0.546126 0.049012
O O9 0.750000 0.750000 0.000000
O O10 0.823294 0.556454 0.890425
O O11 0.500000 0.086210 0.250000
O O12 0.713922 0.996011 0.213839
O O13 0.593248 0.513834 0.285912
#
# Coordination Sequence:
#
# PCOD9307982 Si02
#       6
#     8   8   8   8   8   8
#     4  12  26  47  77 105 147 197 252 308 379 454
#     4  12  25  47  76 106 148 199 249 308 381 454
#     4  12  28  47  72 107 151 198 246 313 379 446
#     4  12  27  46  73 107 148 194 251 311 376 449
#     4  12  26  44  75 110 144 188 249 311 375 448
#     4  12  25  50  75 105 149 194 251 308 377 453
#
# _framework density 22.412012000000001
#
# number of rings (size 3 to 8) (size 9 to 14) (size 15 to 20)
#    0.000    0.000    3.333    7.000    4.667    1.333 
#    0.000    0.000    0.000    0.000    0.000    0.000 
#    0.000    0.000    0.000    0.000    0.000    0.000 
#
# Total GULP energy -134561.097898 kJ/mol
# GULP energy per Si atom -5606.712412 kJ/mol
# Density = 2.236100 g / cm^3
# Si number density = 22.412012 Si / 1000 Ang^3
#
#
#
# Elastic Constant Matrix: (Units=GPa)
#
#
# Indices 1 2 3 4 5 6 
#
# 1 48.9180 14.8350 32.1401 0.0000 0.2246 0.0000
# 2 14.8350 88.4409 53.9048 0.0000 2.7912 0.0000
# 3 32.1401 53.9048 166.6519 0.0000 -16.6847 0.0000
# 4 0.0000 0.0000 0.0000 49.2852 0.0000 7.5991
# 5 0.2246 2.7912 -16.6847 0.0000 38.9440 0.0000
# 6 0.0000 0.0000 0.0000 7.5991 0.0000 59.1399
#
#
#
# Elastic Compliance Matrix: (Units=1/GPa)
#
#
# Indices 1 2 3 4 5 6 
#
# 1 0.023694 -0.001261 -0.004353 0.000000 -0.001911 0.000000
# 2 -0.001261 0.014517 -0.004760 0.000000 -0.003072 0.000000
# 3 -0.004353 -0.004760 0.008794 0.000000 0.004134 0.000000
# 4 0.000000 0.000000 0.000000 0.020700 0.000000 -0.002660
# 5 -0.001911 -0.003072 0.004134 0.000000 0.027680 0.000000
# 6 0.000000 0.000000 0.000000 -0.002660 0.000000 0.017251
#
#
# Mechanical properties :
#
#
# Convention : Reuss Voigt Hill
#
# Bulk Modulus (GPa) = 38.08638 56.19672 47.14155
# Shear Modulus (GPa) = 35.17795 43.01589 39.09692
#
# Velocity S-wave (km/s) = 3.96612 4.38576 4.18121
# Velocity P-wave (km/s) = 6.16475 7.12568 6.66256
#
# Compressibility (1/GPa) = 0.02625611
#
# Stress axis : x y z
#
# Youngs Moduli (GPa) = 42.20561 68.88645 113.71985
#
# Poissons Ratio (x) = 0.08686 0.49502
# Poissons Ratio (y) = 0.05321 0.54130
# Poissons Ratio (z) = 0.18372 0.32790
#
# Static dielectric constant tensor:
#      x y z
#    x 1.817500 0.000000 -0.000130 
#    y 0.000000 1.798460 0.000000 
#    z -0.000130 0.000000 1.805540 
# 
# From -- ./inp_files/243891.got.cif
#   From: 2010.05.17/outbox.cif.g08.bks.cpg/sg15_122_cif.got.tgz:243891.got - 2010.06.03 18:47:42.
