data_PCOD9307609
_publ_section_title
;
Structure prediction by ZEFSAII (Michael W. Deem and Ramdas Pophale) SiO2 
 PCOD9307609
Probable space group: C 2/C
;
_chemical_formula_sum "Si O2"
_cell_formula_units_Z 40
_cell_length_a 15.014864
_cell_length_b 15.039648
_cell_length_c 8.350121
_cell_angle_alpha 90.000000
_cell_angle_beta 73.460019
_cell_angle_gamma 90.000000
_cell_volume 1807.585817
_symmetry_space_group_name_H-M "C 2/C"
_symmetry_group_IT_number 15
_symmetry_cell_setting 'monoclinic'
loop_
_space_group_symop_operation_xyz
x,y,z
-x,y,1/2-z
-x,-y,-z
x,-y,1/2+z
1/2+x,1/2+y,z
1/2-x,1/2+y,1/2-z
1/2-x,1/2-y,-z
1/2+x,1/2-y,1/2+z
loop_
_atom_site_type_symbol
_atom_site_label
_atom_site_fract_x
_atom_site_fract_y
_atom_site_fract_z
Si Si1 0.735390 0.951743 0.196234
Si Si2 0.023489 0.256068 0.050841
Si Si3 0.943680 0.075246 0.619010
Si Si4 0.185387 0.269185 0.381980
Si Si5 0.698463 0.127432 0.368799
O O1 0.840948 0.960010 0.203227
O O2 0.693079 0.870076 0.317573
O O3 0.690129 0.047828 0.245113
O O4 0.730005 0.920013 0.016227
O O5 0.000000 0.268968 0.250000
O O6 0.922088 0.254852 0.021840
O O7 0.065703 0.160232 0.990056
O O8 0.099345 0.326027 0.951257
O O9 0.000000 0.098466 0.750000
O O10 0.000000 0.000000 0.500000
O O11 0.250000 0.250000 0.500000
O O12 0.226601 0.201328 0.226952
#
# Coordination Sequence:
#
# PCOD9307609 Si02
#       5
#     8   8   8   8   8
#     4  12  24  46  72 102 149 193 239 302 369 432
#     4  12  25  46  73 106 147 194 242 299 366 429
#     4  12  24  43  72 109 142 185 251 305 367 428
#     4  12  25  46  73 106 145 190 240 303 368 430
#     4  12  26  48  73 108 148 190 249 303 362 445
#
# _framework density 22.128962999999999
#
# number of rings (size 3 to 8) (size 9 to 14) (size 15 to 20)
#    0.000    0.000    4.000    7.200    0.000    0.800 
#    0.000    0.000    0.000    0.000    0.000    0.000 
#    0.000    0.000    0.000    0.000    0.000    0.000 
#
# Total GULP energy -112023.604908 kJ/mol
# GULP energy per Si atom -5601.180245 kJ/mol
# Density = 2.207860 g / cm^3
# Si number density = 22.128963 Si / 1000 Ang^3
#
#
#
# Elastic Constant Matrix: (Units=GPa)
#
#
# Indices 1 2 3 4 5 6 
#
# 1 126.0962 39.2321 49.5693 0.0000 -7.9734 0.0000
# 2 39.2321 162.2589 53.9880 0.0000 -33.9229 0.0000
# 3 49.5693 53.9880 68.0964 0.0000 -22.1741 0.0000
# 4 0.0000 0.0000 0.0000 54.8090 0.0000 -13.0535
# 5 -7.9734 -33.9229 -22.1741 0.0000 33.7061 0.0000
# 6 0.0000 0.0000 0.0000 -13.0535 0.0000 33.2083
#
#
#
# Elastic Compliance Matrix: (Units=1/GPa)
#
#
# Indices 1 2 3 4 5 6 
#
# 1 0.011459 -0.000521 -0.009184 0.000000 -0.003855 0.000000
# 2 -0.000521 0.009167 -0.004994 0.000000 0.005817 0.000000
# 3 -0.009184 -0.004994 0.029252 0.000000 0.012045 0.000000
# 4 0.000000 0.000000 0.000000 0.020130 0.000000 0.007913
# 5 -0.003855 0.005817 0.012045 0.000000 0.042535 0.000000
# 6 0.000000 0.000000 0.000000 0.007913 0.000000 0.033223
#
#
# Mechanical properties :
#
#
# Convention : Reuss Voigt Hill
#
# Bulk Modulus (GPa) = 48.82829 71.33672 60.08250
# Shear Modulus (GPa) = 27.47419 38.58883 33.03151
#
# Velocity S-wave (km/s) = 3.52738 4.18043 3.86772
# Velocity P-wave (km/s) = 6.22119 7.45709 6.86700
#
# Compressibility (1/GPa) = 0.02047993
#
# Stress axis : x y z
#
# Youngs Moduli (GPa) = 87.26841 109.08946 34.18602
#
# Poissons Ratio (x) = 0.05683 0.31395
# Poissons Ratio (y) = 0.04546 0.17073
# Poissons Ratio (z) = 0.80144 0.54481
#
# Static dielectric constant tensor:
#      x y z
#    x 1.788460 0.000000 0.105110 
#    y 0.000000 1.745080 0.000000 
#    z 0.105110 0.000000 1.692870 
# 
# From -- ./inp_files/37814.got.cif
#   From: 2010.05.17/outbox.cif.g08.bks.cpg/sg15_19_cif.got.tgz:37814.got - 2010.06.03 18:47:42.
