data_PCOD9307083
_publ_section_title
;
Structure prediction by ZEFSAII (Michael W. Deem and Ramdas Pophale) SiO2 
 PCOD9307083
Probable space group: C 2/C
;
_chemical_formula_sum "Si O2"
_cell_formula_units_Z 44
_cell_length_a 5.609082
_cell_length_b 17.236919
_cell_length_c 19.726347
_cell_angle_alpha 90.000000
_cell_angle_beta 102.961234
_cell_angle_gamma 90.000000
_cell_volume 1858.616400
_symmetry_space_group_name_H-M "C 2/C"
_symmetry_group_IT_number 15
_symmetry_cell_setting 'monoclinic'
loop_
_space_group_symop_operation_xyz
x,y,z
-x,y,1/2-z
-x,-y,-z
x,-y,1/2+z
1/2+x,1/2+y,z
1/2-x,1/2+y,1/2-z
1/2-x,1/2-y,-z
1/2+x,1/2-y,1/2+z
loop_
_atom_site_type_symbol
_atom_site_label
_atom_site_fract_x
_atom_site_fract_y
_atom_site_fract_z
Si Si1 0.000000 0.234249 0.250000
Si Si2 0.931195 0.985718 0.166133
Si Si3 0.381707 0.346203 0.067088
Si Si4 0.414640 0.889077 0.815707
Si Si5 0.414991 0.767814 0.098218
Si Si6 0.374078 0.611814 0.417792
O O1 0.775669 0.175894 0.221542
O O2 0.011812 0.281654 0.181323
O O3 0.691407 0.039630 0.148893
O O4 0.000000 0.985656 0.250000
O O5 0.101306 0.034636 0.125294
O O6 0.905583 0.901586 0.133499
O O7 0.640592 0.300860 0.075588
O O8 0.125542 0.300494 0.061441
O O9 0.358629 0.396621 0.996813
O O10 0.500000 0.923928 0.750000
O O11 0.629052 0.850095 0.871695
O O12 0.417558 0.674954 0.086157
#
# Coordination Sequence:
#
# PCOD9307083 Si02
#       6
#     4   8   8   8   8   8
#     4  12  24  44  76 116 136 204 252 316 358 454
#     4  12  26  48  73 111 146 200 253 312 373 451
#     4  12  32  47  73 116 161 192 237 325 393 441
#     4  12  21  44  79 108 138 195 269 311 348 450
#     4  12  27  49  76 109 154 196 252 307 381 451
#     4  12  26  49  80 104 147 206 260 299 371 460
#
# _framework density 23.673522999999999
#
# number of rings (size 3 to 8) (size 9 to 14) (size 15 to 20)
#    0.000    0.000    6.364    2.727    7.636    0.727 
#    0.000    0.000    0.000    0.000    0.000    0.000 
#    0.000    0.000    0.000    0.000    0.000    0.000 
#
# Total GULP energy -122959.108458 kJ/mol
# GULP energy per Si atom -5589.050384 kJ/mol
# Density = 2.361964 g / cm^3
# Si number density = 23.673523 Si / 1000 Ang^3
#
#
#
# Elastic Constant Matrix: (Units=GPa)
#
#
# Indices 1 2 3 4 5 6 
#
# 1 132.0040 32.7619 29.2072 0.0000 8.7150 0.0000
# 2 32.7619 62.3846 13.9134 0.0000 12.3871 0.0000
# 3 29.2072 13.9134 126.3471 0.0000 -11.6345 0.0000
# 4 0.0000 0.0000 0.0000 36.8202 0.0000 -9.1334
# 5 8.7150 12.3871 -11.6345 0.0000 35.6316 0.0000
# 6 0.0000 0.0000 0.0000 -9.1334 0.0000 22.9204
#
#
#
# Elastic Compliance Matrix: (Units=1/GPa)
#
#
# Indices 1 2 3 4 5 6 
#
# 1 0.009076 -0.004098 -0.001773 0.000000 -0.001374 0.000000
# 2 -0.004098 0.019886 -0.001842 0.000000 -0.006512 0.000000
# 3 -0.001773 -0.001842 0.008894 0.000000 0.003978 0.000000
# 4 0.000000 0.000000 0.000000 0.030138 0.000000 0.012009
# 5 -0.001374 -0.006512 0.003978 0.000000 0.031964 0.000000
# 6 0.000000 0.000000 0.000000 0.012009 0.000000 0.048415
#
#
# Mechanical properties :
#
#
# Convention : Reuss Voigt Hill
#
# Bulk Modulus (GPa) = 44.58630 52.50008 48.54319
# Shear Modulus (GPa) = 29.19289 35.39798 32.29543
#
# Velocity S-wave (km/s) = 3.51543 3.87105 3.69752
# Velocity P-wave (km/s) = 5.94578 6.49653 6.22725
#
# Compressibility (1/GPa) = 0.02242842
#
# Stress axis : x y z
#
# Youngs Moduli (GPa) = 110.18500 50.28774 112.43767
#
# Poissons Ratio (x) = 0.20607 0.19938
# Poissons Ratio (y) = 0.45152 0.20713
# Poissons Ratio (z) = 0.19539 0.09264
#
# Static dielectric constant tensor:
#      x y z
#    x 2.013640 0.000000 -0.046810 
#    y 0.000000 1.873030 0.000000 
#    z -0.046810 0.000000 1.896430 
# 
# From -- ./inp_files/227063.got.cif
#   From: 2010.05.17/outbox.cif.g08.bks.cpg/sg15_114_cif.got.tgz:227063.got - 2010.06.03 18:47:42.
