data_PCOD9307200
_publ_section_title
;
Structure prediction by ZEFSAII (Michael W. Deem and Ramdas Pophale) SiO2 
 PCOD9307200
Probable space group: C 2/C
;
_chemical_formula_sum "Si O2"
_cell_formula_units_Z 32
_cell_length_a 9.941224
_cell_length_b 22.570168
_cell_length_c 15.298671
_cell_angle_alpha 90.000000
_cell_angle_beta 149.262812
_cell_angle_gamma 90.000000
_cell_volume 1754.425788
_symmetry_space_group_name_H-M "C 2/C"
_symmetry_group_IT_number 15
_symmetry_cell_setting 'monoclinic'
loop_
_space_group_symop_operation_xyz
x,y,z
-x,y,1/2-z
-x,-y,-z
x,-y,1/2+z
1/2+x,1/2+y,z
1/2-x,1/2+y,1/2-z
1/2-x,1/2-y,-z
1/2+x,1/2-y,1/2+z
loop_
_atom_site_type_symbol
_atom_site_label
_atom_site_fract_x
_atom_site_fract_y
_atom_site_fract_z
Si Si1 0.749832 0.315879 0.832085
Si Si2 0.036874 0.875895 0.365613
Si Si3 0.191590 0.215968 0.100140
Si Si4 0.937400 0.568450 0.973078
O O1 0.500000 0.297309 0.750000
O O2 0.680157 0.309325 0.691501
O O3 0.002061 0.273261 0.989147
O O4 0.831916 0.383242 0.900476
O O5 0.771456 0.914082 0.219764
O O6 0.000000 0.844536 0.250000
O O7 0.083495 0.830986 0.468728
O O8 0.283031 0.917773 0.478367
O O9 0.500000 0.223266 0.250000
O O10 0.000000 0.500000 0.000000
#
# Coordination Sequence:
#
# PCOD9307200 Si02
#       4
#     8   8   8   8
#     4  12  26  37  63  95 132 165 204 276 329 362
#     4   8  20  38  67  91 113 168 217 251 306 374
#     4  12  22  42  65  94 127 164 222 254 318 393
#     4   9  20  40  63  86 125 165 210 255 314 372
#
# _framework density 18.239585999999999
#
# number of rings (size 3 to 8) (size 9 to 14) (size 15 to 20)
#    1.500    0.000    2.500    3.000    7.000    0.000 
#    0.000    1.250    5.500    0.000    0.000    0.000 
#    0.000    0.000    0.000    0.000    0.000    0.000 
#
# Total GULP energy -89082.356636 kJ/mol
# GULP energy per Si atom -5567.647290 kJ/mol
# Density = 1.819807 g / cm^3
# Si number density = 18.239586 Si / 1000 Ang^3
#
#
#
# Elastic Constant Matrix: (Units=GPa)
#
#
# Indices 1 2 3 4 5 6 
#
# 1 116.8317 48.4731 55.5199 -0.0006 4.2715 -0.0004
# 2 48.4731 158.7600 68.9391 -0.0030 5.8412 -0.0017
# 3 55.5199 68.9391 107.6331 -0.0139 9.3507 -0.0078
# 4 -0.0006 -0.0030 -0.0139 79.0213 -0.0063 29.0891
# 5 4.2715 5.8412 9.3507 -0.0063 20.2720 -0.0034
# 6 -0.0004 -0.0017 -0.0078 29.0891 -0.0034 19.4924
#
#
#
# Elastic Compliance Matrix: (Units=1/GPa)
#
#
# Indices 1 2 3 4 5 6 
#
# 1 0.011531 -0.001299 -0.005144 0.000000 0.000317 -0.000001
# 2 -0.001299 0.008872 -0.005015 0.000000 0.000031 -0.000001
# 3 -0.005144 -0.005015 0.015560 0.000001 -0.004648 0.000004
# 4 0.000000 0.000000 0.000001 0.028081 0.000001 -0.041906
# 5 0.000317 0.000031 -0.004648 0.000001 0.051398 0.000005
# 6 -0.000001 -0.000001 0.000004 -0.041906 0.000005 0.113840
#
#
# Mechanical properties :
#
#
# Convention : Reuss Voigt Hill
#
# Bulk Modulus (GPa) = 76.64151 81.00992 78.82571
# Shear Modulus (GPa) = 19.48963 37.77665 28.63314
#
# Velocity S-wave (km/s) = 3.27239 4.55591 3.96641
# Velocity P-wave (km/s) = 7.50923 8.49623 8.01793
#
# Compressibility (1/GPa) = 0.01304776
#
# Stress axis : x y z
#
# Youngs Moduli (GPa) = 86.72345 112.71360 64.26675
#
# Poissons Ratio (x) = 0.14639 0.33056
# Poissons Ratio (y) = 0.11264 0.32231
# Poissons Ratio (z) = 0.44607 0.56529
#
# Static dielectric constant tensor:
#      x y z
#    x 1.644360 0.000000 0.033380 
#    y 0.000000 1.634520 0.000000 
#    z 0.033380 0.000000 1.670670 
# 
# From -- ./inp_files/136354.got.cif
#   From: 2010.05.17/outbox.cif.g08.bks.cpg/sg15_69_cif.got.tgz:136354.got - 2010.06.03 18:47:42.
