data_PCOD9307370
_publ_section_title
;
Structure prediction by ZEFSAII (Michael W. Deem and Ramdas Pophale) SiO2 
 PCOD9307370
Probable space group: C 2/C
;
_chemical_formula_sum "Si O2"
_cell_formula_units_Z 32
_cell_length_a 9.366557
_cell_length_b 21.388750
_cell_length_c 12.130579
_cell_angle_alpha 90.000000
_cell_angle_beta 37.528690
_cell_angle_gamma 90.000000
_cell_volume 1480.393958
_symmetry_space_group_name_H-M "C 2/C"
_symmetry_group_IT_number 15
_symmetry_cell_setting 'monoclinic'
loop_
_space_group_symop_operation_xyz
x,y,z
-x,y,1/2-z
-x,-y,-z
x,-y,1/2+z
1/2+x,1/2+y,z
1/2-x,1/2+y,1/2-z
1/2-x,1/2-y,-z
1/2+x,1/2-y,1/2+z
loop_
_atom_site_type_symbol
_atom_site_label
_atom_site_fract_x
_atom_site_fract_y
_atom_site_fract_z
Si Si1 0.761827 0.316402 0.555410
Si Si2 0.000000 0.409335 0.250000
Si Si3 0.767955 0.009163 0.216317
Si Si4 0.000000 0.930392 0.250000
Si Si5 0.472997 0.862972 0.891580
O O1 0.500000 0.331461 0.750000
O O2 0.750000 0.250000 0.500000
O O3 0.826964 0.365023 0.420889
O O4 0.934523 0.323404 0.557428
O O5 0.096816 0.456068 0.279498
O O6 0.839518 0.981348 0.287757
O O7 0.644359 0.075932 0.286663
O O8 0.000000 0.000000 0.000000
O O9 0.798756 0.885882 0.427666
O O10 0.500000 0.835260 0.750000
#
# Coordination Sequence:
#
# PCOD9307370 Si02
#       5
#     8   4   8   4   8
#     4  12  28  50  78 101 142 203 265 310 363 448
#     4  12  24  46  73 110 151 194 250 298 380 446
#     4  12  23  41  70 113 156 192 234 306 383 455
#     4  12  24  40  65 108 161 186 236 296 374 454
#     4  12  26  45  72 112 149 194 242 311 386 446
#
# _framework density 21.615867999999999
#
# number of rings (size 3 to 8) (size 9 to 14) (size 15 to 20)
#    0.000    0.000    7.500    2.250    5.250    0.000 
#    0.000    1.250    2.750    0.000    0.000    0.000 
#    0.000    0.000    0.000    0.000    0.000    0.000 
#
# Total GULP energy -89212.593239 kJ/mol
# GULP energy per Si atom -5575.787077 kJ/mol
# Density = 2.156667 g / cm^3
# Si number density = 21.615868 Si / 1000 Ang^3
#
#
#
# Elastic Constant Matrix: (Units=GPa)
#
#
# Indices 1 2 3 4 5 6 
#
# 1 130.2200 41.9164 -2.5844 0.0000 8.8334 0.0000
# 2 41.9164 97.8621 14.8990 0.0000 5.5406 0.0000
# 3 -2.5844 14.8990 129.7554 0.0000 -9.3771 0.0000
# 4 0.0000 0.0000 0.0000 25.4647 0.0000 6.6145
# 5 8.8334 5.5406 -9.3771 0.0000 33.7464 0.0000
# 6 0.0000 0.0000 0.0000 6.6145 0.0000 32.3332
#
#
#
# Elastic Compliance Matrix: (Units=1/GPa)
#
#
# Indices 1 2 3 4 5 6 
#
# 1 0.009040 -0.003859 0.000508 0.000000 -0.001591 0.000000
# 2 -0.003859 0.012193 -0.001580 0.000000 -0.001431 0.000000
# 3 0.000508 -0.001580 0.008070 0.000000 0.002369 0.000000
# 4 0.000000 0.000000 0.000000 0.041474 0.000000 -0.008485
# 5 -0.001591 -0.001431 0.002369 0.000000 0.030943 0.000000
# 6 0.000000 0.000000 0.000000 -0.008485 0.000000 0.032664
#
#
# Mechanical properties :
#
#
# Convention : Reuss Voigt Hill
#
# Bulk Modulus (GPa) = 51.44136 51.81105 51.62621
# Shear Modulus (GPa) = 33.17308 38.54928 35.86118
#
# Velocity S-wave (km/s) = 3.92173 4.22759 4.07753
# Velocity P-wave (km/s) = 6.66005 6.91744 6.78997
#
# Compressibility (1/GPa) = 0.01943961
#
# Stress axis : x y z
#
# Youngs Moduli (GPa) = 110.62501 82.01434 123.92237
#
# Poissons Ratio (x) = 0.31650 -0.06297
# Poissons Ratio (y) = 0.42691 0.19584
# Poissons Ratio (z) = -0.05621 0.12961
#
# Static dielectric constant tensor:
#      x y z
#    x 1.794060 0.000000 0.080880 
#    y 0.000000 1.708130 0.000000 
#    z 0.080880 0.000000 1.848830 
# 
# From -- ./inp_files/22162.got.cif
#   From: 2010.05.17/outbox.cif.g08.bks.cpg/sg15_12_cif.got.tgz:22162.got - 2010.06.03 18:47:42.
