data_PCOD9307368
_publ_section_title
;
Structure prediction by ZEFSAII (Michael W. Deem and Ramdas Pophale) SiO2 
 PCOD9307368
Probable space group: C 2/C
;
_chemical_formula_sum "Si O2"
_cell_formula_units_Z 40
_cell_length_a 12.719344
_cell_length_b 4.886934
_cell_length_c 22.528315
_cell_angle_alpha 90.000000
_cell_angle_beta 82.882316
_cell_angle_gamma 90.000000
_cell_volume 1389.537108
_symmetry_space_group_name_H-M "C 2/C"
_symmetry_group_IT_number 15
_symmetry_cell_setting 'monoclinic'
loop_
_space_group_symop_operation_xyz
x,y,z
-x,y,1/2-z
-x,-y,-z
x,-y,1/2+z
1/2+x,1/2+y,z
1/2-x,1/2+y,1/2-z
1/2-x,1/2-y,-z
1/2+x,1/2-y,1/2+z
loop_
_atom_site_type_symbol
_atom_site_label
_atom_site_fract_x
_atom_site_fract_y
_atom_site_fract_z
Si Si1 0.819315 0.210627 0.751361
Si Si2 0.882394 0.847110 0.122721
Si Si3 0.220696 0.848822 0.568217
Si Si4 0.128312 0.401766 0.623616
Si Si5 0.970231 0.601016 0.567568
O O1 0.766902 0.480798 0.725855
O O2 0.875002 0.310480 0.806605
O O3 0.882826 0.074737 0.693212
O O4 0.924422 0.095880 0.079725
O O5 0.744755 0.898384 0.122103
O O6 0.994294 0.641740 0.119528
O O7 0.250000 0.750000 0.500000
O O8 0.174364 0.153147 0.581066
O O9 0.348423 0.928539 0.582013
O O10 0.099382 0.681928 0.582928
O O11 0.000000 0.500000 0.500000
#
# Coordination Sequence:
#
# PCOD9307368 Si02
#       5
#     8   8   8   8   8
#     4  12  23  45  70 101 137 181 246 304 351 430
#     4  12  24  43  71  99 139 189 237 291 365 422
#     4  12  23  41  70 102 134 185 245 290 350 431
#     4  12  24  44  68 100 140 187 232 298 362 421
#     4  12  26  45  67 104 148 184 231 297 365 437
#
# _framework density 28.786565
#
# number of rings (size 3 to 8) (size 9 to 14) (size 15 to 20)
#    0.000    0.000    4.000    7.200    0.000    0.800 
#    0.000    2.000    0.000    0.000    0.000    0.000 
#    0.000    0.000    0.000    0.000    0.000    0.000 
#
# Total GULP energy -112033.834311 kJ/mol
# GULP energy per Si atom -5601.691716 kJ/mol
# Density = 2.872105 g / cm^3
# Si number density = 28.786565 Si / 1000 Ang^3
#
#
#
# Elastic Constant Matrix: (Units=GPa)
#
#
# Indices 1 2 3 4 5 6 
#
# 1 224.0592 2.8309 -0.9679 0.0000 54.5504 0.0000
# 2 2.8309 163.4579 6.8192 0.0000 15.8791 0.0000
# 3 -0.9679 6.8192 92.7504 0.0000 18.6723 0.0000
# 4 0.0000 0.0000 0.0000 45.8877 0.0000 -4.5601
# 5 54.5504 15.8791 18.6723 0.0000 67.7589 0.0000
# 6 0.0000 0.0000 0.0000 -4.5601 0.0000 89.8105
#
#
#
# Elastic Compliance Matrix: (Units=1/GPa)
#
#
# Indices 1 2 3 4 5 6 
#
# 1 0.005661 0.000337 0.001024 0.000000 -0.004919 0.000000
# 2 0.000337 0.006283 -0.000114 0.000000 -0.001712 0.000000
# 3 0.001024 -0.000114 0.011605 0.000000 -0.003996 0.000000
# 4 0.000000 0.000000 0.000000 0.021903 0.000000 0.001112
# 5 -0.004919 -0.001712 -0.003996 0.000000 0.020221 0.000000
# 6 0.000000 0.000000 0.000000 0.001112 0.000000 0.011191
#
#
# Mechanical properties :
#
#
# Convention : Reuss Voigt Hill
#
# Bulk Modulus (GPa) = 38.39552 55.29243 46.84398
# Shear Modulus (GPa) = 60.20522 72.13044 66.16783
#
# Velocity S-wave (km/s) = 4.57818 5.01113 4.79954
# Velocity P-wave (km/s) = 6.42754 7.26163 6.85728
#
# Compressibility (1/GPa) = 0.02604470
#
# Stress axis : x y z
#
# Youngs Moduli (GPa) = 176.65412 159.15853 86.16842
#
# Poissons Ratio (x) = -0.05364 -0.08828
# Poissons Ratio (y) = -0.05954 0.00980
# Poissons Ratio (z) = -0.18098 0.01809
#
# Static dielectric constant tensor:
#      x y z
#    x 2.583120 0.000000 -0.009900 
#    y 0.000000 2.144250 0.000000 
#    z -0.009900 0.000000 2.139250 
# 
# From -- ./inp_files/271682.got.cif
#   From: 2010.05.17/outbox.cif.g08.bks.cpg/sg15_136_cif.got.tgz:271682.got - 2010.06.03 18:47:42.
