data_PCOD9307363
_publ_section_title
;
Structure prediction by ZEFSAII (Michael W. Deem and Ramdas Pophale) SiO2 
 PCOD9307363
Probable space group: C 2/C
;
_chemical_formula_sum "Si O2"
_cell_formula_units_Z 48
_cell_length_a 26.076407
_cell_length_b 10.639893
_cell_length_c 26.568237
_cell_angle_alpha 90.000000
_cell_angle_beta 162.086804
_cell_angle_gamma 90.000000
_cell_volume 2267.252424
_symmetry_space_group_name_H-M "C 2/C"
_symmetry_group_IT_number 15
_symmetry_cell_setting 'monoclinic'
loop_
_space_group_symop_operation_xyz
x,y,z
-x,y,1/2-z
-x,-y,-z
x,-y,1/2+z
1/2+x,1/2+y,z
1/2-x,1/2+y,1/2-z
1/2-x,1/2-y,-z
1/2+x,1/2-y,1/2+z
loop_
_atom_site_type_symbol
_atom_site_label
_atom_site_fract_x
_atom_site_fract_y
_atom_site_fract_z
Si Si1 0.807222 0.698959 0.295230
Si Si2 0.487920 0.294271 0.551204
Si Si3 0.170266 0.336926 0.883781
Si Si4 0.346850 0.505146 0.479223
Si Si5 0.687083 0.657431 0.801246
Si Si6 0.514917 0.999261 0.599948
O O1 0.660672 0.648139 0.193601
O O2 0.758303 0.762891 0.196889
O O3 0.930789 0.587788 0.396076
O O4 0.881072 0.805301 0.400528
O O5 0.413453 0.367679 0.528352
O O6 0.498834 0.146328 0.572846
O O7 0.157341 0.249383 0.821343
O O8 0.000000 0.380898 0.750000
O O9 0.250000 0.250000 0.000000
O O10 0.286599 0.453481 0.977713
O O11 0.508788 0.594096 0.620857
O O12 0.175604 0.514661 0.286817
O O13 0.839242 0.560823 0.954645
#
# Coordination Sequence:
#
# PCOD9307363 Si02
#       6
#     8   8   8   8   8   8
#     4  12  23  41  67 101 148 200 241 282 347 425
#     4  12  26  40  65 102 151 207 236 274 354 436
#     4  12  24  48  79 109 135 176 241 322 379 412
#     4  12  26  45  70 106 144 189 244 300 358 434
#     4  12  25  44  72 110 144 182 248 303 355 435
#     4  12  25  44  66 101 155 193 241 289 344 427
#
# _framework density 21.170998999999998
#
# number of rings (size 3 to 8) (size 9 to 14) (size 15 to 20)
#    0.000    0.000    6.667    4.500    2.333    1.333 
#    0.000    0.000    0.000    5.000    0.000    0.000 
#    0.000    0.000    0.000    0.000    0.000    0.000 
#
# Total GULP energy -133938.851530 kJ/mol
# GULP energy per Si atom -5580.785480 kJ/mol
# Density = 2.112281 g / cm^3
# Si number density = 21.170999 Si / 1000 Ang^3
#
#
#
# Elastic Constant Matrix: (Units=GPa)
#
#
# Indices 1 2 3 4 5 6 
#
# 1 101.0657 64.3139 40.1842 0.0035 21.0443 0.0020
# 2 64.3139 117.2010 32.2822 0.0193 18.1549 0.0088
# 3 40.1842 32.2822 118.1319 0.0095 23.4144 0.0106
# 4 0.0035 0.0193 0.0095 26.8866 0.0052 8.7470
# 5 21.0443 18.1549 23.4144 0.0052 50.9791 -0.0009
# 6 0.0020 0.0088 0.0106 8.7470 -0.0009 37.8037
#
#
#
# Elastic Compliance Matrix: (Units=1/GPa)
#
#
# Indices 1 2 3 4 5 6 
#
# 1 0.016675 -0.007913 -0.002975 0.000005 -0.002699 0.000001
# 2 -0.007913 0.013243 -0.000704 -0.000008 -0.001126 -0.000001
# 3 -0.002975 -0.000704 0.010315 -0.000001 -0.003259 -0.000002
# 4 0.000005 -0.000008 -0.000001 0.040221 -0.000003 -0.009306
# 5 -0.002699 -0.001126 -0.003259 -0.000003 0.022628 0.000003
# 6 0.000001 -0.000001 -0.000002 -0.009306 0.000003 0.028606
#
#
# Mechanical properties :
#
#
# Convention : Reuss Voigt Hill
#
# Bulk Modulus (GPa) = 58.65176 67.77325 63.21251
# Shear Modulus (GPa) = 31.14217 36.44178 33.79197
#
# Velocity S-wave (km/s) = 3.83950 4.15336 3.99951
# Velocity P-wave (km/s) = 6.88619 7.42175 7.15898
#
# Compressibility (1/GPa) = 0.01704979
#
# Stress axis : x y z
#
# Youngs Moduli (GPa) = 59.97108 75.51242 96.94254
#
# Poissons Ratio (x) = 0.59751 0.28839
# Poissons Ratio (y) = 0.47453 0.06825
# Poissons Ratio (z) = 0.17840 0.05316
#
# Static dielectric constant tensor:
#      x y z
#    x 1.765900 0.000000 0.022740 
#    y 0.000000 1.780380 -0.000010 
#    z 0.022740 -0.000010 1.999940 
# 
# From -- ./inp_files/302217.got.cif
#   From: 2010.05.17/outbox.cif.g08.bks.cpg/sg15_152_cif.got.tgz:302217.got - 2010.06.03 18:47:42.
