data_PCOD9307690
_publ_section_title
;
Structure prediction by ZEFSAII (Michael W. Deem and Ramdas Pophale) SiO2 
 PCOD9307690
Probable space group: C 2/C
;
_chemical_formula_sum "Si O2"
_cell_formula_units_Z 48
_cell_length_a 12.256528
_cell_length_b 15.743908
_cell_length_c 15.753622
_cell_angle_alpha 90.000000
_cell_angle_beta 143.460796
_cell_angle_gamma 90.000000
_cell_volume 1809.878104
_symmetry_space_group_name_H-M "C 2/C"
_symmetry_group_IT_number 15
_symmetry_cell_setting 'monoclinic'
loop_
_space_group_symop_operation_xyz
x,y,z
-x,y,1/2-z
-x,-y,-z
x,-y,1/2+z
1/2+x,1/2+y,z
1/2-x,1/2+y,1/2-z
1/2-x,1/2-y,-z
1/2+x,1/2-y,1/2+z
loop_
_atom_site_type_symbol
_atom_site_label
_atom_site_fract_x
_atom_site_fract_y
_atom_site_fract_z
Si Si1 0.125103 0.445245 0.497037
Si Si2 0.220663 0.154205 0.557087
Si Si3 0.102292 0.908848 0.394607
Si Si4 0.679783 0.309587 0.764292
Si Si5 0.224154 0.018774 0.707781
Si Si6 0.801245 0.661576 0.165939
O O1 0.140884 0.384219 0.424467
O O2 0.231009 0.530972 0.533291
O O3 0.223590 0.392453 0.633484
O O4 0.909135 0.457994 0.374327
O O5 0.288105 0.237513 0.646830
O O6 0.192443 0.086184 0.613250
O O7 0.030358 0.171362 0.389283
O O8 0.164428 0.838384 0.500727
O O9 0.000000 0.870250 0.250000
O O10 0.954610 0.971292 0.346098
O O11 0.764623 0.281881 0.725932
O O12 0.263817 0.931382 0.683773
O O13 0.000000 0.666708 0.250000
#
# Coordination Sequence:
#
# PCOD9307690 Si02
#       6
#     8   8   8   8   8   8
#     4  12  25  44  73 113 145 190 239 297 368 434
#     4  12  24  48  69 104 146 192 234 298 363 434
#     4  12  25  43  72 111 144 188 238 301 364 428
#     4  12  28  46  74 106 149 190 242 299 367 430
#     4  12  24  45  76 104 150 187 241 299 365 426
#     4  12  24  47  73 107 147 190 240 303 360 432
#
# _framework density 26.521124
#
# number of rings (size 3 to 8) (size 9 to 14) (size 15 to 20)
#    0.000    0.000    5.000    6.000    2.333    2.667 
#    0.000    1.667    0.000    0.000    0.000    0.000 
#    0.000    0.000    0.000    0.000    0.000    0.000 
#
# Total GULP energy -134809.260025 kJ/mol
# GULP energy per Si atom -5617.052501 kJ/mol
# Density = 2.646076 g / cm^3
# Si number density = 26.521124 Si / 1000 Ang^3
#
#
#
# Elastic Constant Matrix: (Units=GPa)
#
#
# Indices 1 2 3 4 5 6 
#
# 1 160.4702 7.5564 34.8903 -0.0001 7.2426 -0.0001
# 2 7.5564 61.4606 27.3922 -0.0004 -7.8917 0.0000
# 3 34.8903 27.3922 206.6886 -0.0009 -11.4016 -0.0007
# 4 -0.0001 -0.0004 -0.0009 38.8944 -0.0003 -10.6939
# 5 7.2426 -7.8917 -11.4016 -0.0003 61.2391 -0.0002
# 6 -0.0001 0.0000 -0.0007 -10.6939 -0.0002 28.3062
#
#
#
# Elastic Compliance Matrix: (Units=1/GPa)
#
#
# Indices 1 2 3 4 5 6 
#
# 1 0.006539 -0.000446 -0.001102 0.000000 -0.001036 0.000000
# 2 -0.000446 0.017526 -0.002142 0.000000 0.001912 0.000000
# 3 -0.001102 -0.002142 0.005355 0.000000 0.000851 0.000000
# 4 0.000000 0.000000 0.000000 0.028691 0.000000 0.010839
# 5 -0.001036 0.001912 0.000851 0.000000 0.016857 0.000000
# 6 0.000000 0.000000 0.000000 0.010839 0.000000 0.039423
#
#
# Mechanical properties :
#
#
# Convention : Reuss Voigt Hill
#
# Bulk Modulus (GPa) = 45.37138 63.14413 54.25776
# Shear Modulus (GPa) = 38.72474 49.60664 44.16569
#
# Velocity S-wave (km/s) = 3.82533 4.32957 4.08524
# Velocity P-wave (km/s) = 6.05439 6.98958 6.53873
#
# Compressibility (1/GPa) = 0.02204033
#
# Stress axis : x y z
#
# Youngs Moduli (GPa) = 152.92821 57.05950 186.74063
#
# Poissons Ratio (x) = 0.02544 0.20577
# Poissons Ratio (y) = 0.06819 0.39998
# Poissons Ratio (z) = 0.16851 0.12221
#
# Static dielectric constant tensor:
#      x y z
#    x 2.082870 0.000000 -0.040550 
#    y 0.000000 2.097950 0.000000 
#    z -0.040550 0.000000 2.075000 
# 
# From -- ./inp_files/147439.got.cif
#   From: 2010.05.17/outbox.cif.g08.bks.cpg/sg15_74_cif.got.tgz:147439.got - 2010.06.03 18:47:42.
