data_PCOD9307440
_publ_section_title
;
Structure prediction by ZEFSAII (Michael W. Deem and Ramdas Pophale) SiO2 
 PCOD9307440
Probable space group: C 2/C
;
_chemical_formula_sum "Si O2"
_cell_formula_units_Z 24
_cell_length_a 18.720336
_cell_length_b 7.148905
_cell_length_c 16.306096
_cell_angle_alpha 90.000000
_cell_angle_beta 30.024546
_cell_angle_gamma 90.000000
_cell_volume 1091.931168
_symmetry_space_group_name_H-M "C 2/C"
_symmetry_group_IT_number 15
_symmetry_cell_setting 'monoclinic'
loop_
_space_group_symop_operation_xyz
x,y,z
-x,y,1/2-z
-x,-y,-z
x,-y,1/2+z
1/2+x,1/2+y,z
1/2-x,1/2+y,1/2-z
1/2-x,1/2-y,-z
1/2+x,1/2-y,1/2+z
loop_
_atom_site_type_symbol
_atom_site_label
_atom_site_fract_x
_atom_site_fract_y
_atom_site_fract_z
Si Si1 0.873494 0.164134 0.934755
Si Si2 0.724022 0.200060 0.620951
Si Si3 0.443980 0.969033 0.464592
O O1 0.931699 0.332700 0.931719
O O2 0.000000 0.094833 0.750000
O O3 0.750000 0.250000 0.000000
O O4 0.806785 0.995350 0.052310
O O5 0.750000 0.250000 0.500000
O O6 0.559744 0.159054 0.802629
O O7 0.793565 0.362153 0.606433
O O8 0.500000 0.000000 0.500000
#
# Coordination Sequence:
#
# PCOD9307440 Si02
#       3
#     8   8   8
#     4  12  23  44  74 101 137 184 240 281 343 428
#     4  12  25  48  75 100 142 190 238 283 349 436
#     4  12  29  45  69 110 142 181 233 296 359 404
#
# _framework density 21.979406000000001
#
# number of rings (size 3 to 8) (size 9 to 14) (size 15 to 20)
#    0.000    0.000    6.667    3.000    4.667    1.333 
#    0.000    0.000    0.000    0.000    0.000    0.000 
#    0.000    0.000    0.000    0.000    0.000    0.000 
#
# Total GULP energy -67246.153045 kJ/mol
# GULP energy per Si atom -5603.846087 kJ/mol
# Density = 2.192938 g / cm^3
# Si number density = 21.979406 Si / 1000 Ang^3
#
#
#
# Elastic Constant Matrix: (Units=GPa)
#
#
# Indices 1 2 3 4 5 6 
#
# 1 130.6302 15.7465 -2.2080 0.0001 15.8872 -0.0002
# 2 15.7465 83.5422 -6.6102 -0.0002 0.9431 0.0002
# 3 -2.2080 -6.6102 52.0854 0.0001 -10.3580 0.0000
# 4 0.0001 -0.0002 0.0001 40.8415 -0.0001 -18.5230
# 5 15.8872 0.9431 -10.3580 -0.0001 27.6051 0.0001
# 6 -0.0002 0.0002 0.0000 -18.5230 0.0001 50.9907
#
#
#
# Elastic Compliance Matrix: (Units=1/GPa)
#
#
# Indices 1 2 3 4 5 6 
#
# 1 0.008459 -0.001605 -0.000867 0.000000 -0.005139 0.000000
# 2 -0.001605 0.012397 0.001734 0.000000 0.001151 0.000000
# 3 -0.000867 0.001734 0.021040 0.000000 0.008334 0.000000
# 4 0.000000 0.000000 0.000000 0.029315 0.000000 0.010649
# 5 -0.005139 0.001151 0.008334 0.000000 0.042271 0.000000
# 6 0.000000 0.000000 0.000000 0.010649 0.000000 0.023480
#
#
# Mechanical properties :
#
#
# Convention : Reuss Voigt Hill
#
# Bulk Modulus (GPa) = 24.74031 31.12383 27.93207
# Shear Modulus (GPa) = 32.91430 41.17608 37.04519
#
# Velocity S-wave (km/s) = 3.87396 4.33297 4.10988
# Velocity P-wave (km/s) = 5.59381 6.26291 5.93779
#
# Compressibility (1/GPa) = 0.04041986
#
# Stress axis : x y z
#
# Youngs Moduli (GPa) = 118.21739 80.66642 47.52861
#
# Poissons Ratio (x) = 0.12947 0.04121
# Poissons Ratio (y) = 0.18974 -0.08242
# Poissons Ratio (z) = 0.10250 -0.13988
#
# Static dielectric constant tensor:
#      x y z
#    x 1.894800 0.000000 -0.132180 
#    y 0.000000 1.822290 0.000000 
#    z -0.132180 0.000000 1.917260 
# 
# From -- ./inp_files/36141.got.cif
#   From: 2010.05.17/outbox.cif.g08.bks.cpg/sg15_19_cif.got.tgz:36141.got - 2010.06.03 18:47:42.
