data_PCOD9307223
_publ_section_title
;
Structure prediction by ZEFSAII (Michael W. Deem and Ramdas Pophale) SiO2 
 PCOD9307223
Probable space group: C 2/C
;
_chemical_formula_sum "Si O2"
_cell_formula_units_Z 28
_cell_length_a 5.350869
_cell_length_b 22.883906
_cell_length_c 9.468054
_cell_angle_alpha 90.000000
_cell_angle_beta 92.733996
_cell_angle_gamma 90.000000
_cell_volume 1158.032058
_symmetry_space_group_name_H-M "C 2/C"
_symmetry_group_IT_number 15
_symmetry_cell_setting 'monoclinic'
loop_
_space_group_symop_operation_xyz
x,y,z
-x,y,1/2-z
-x,-y,-z
x,-y,1/2+z
1/2+x,1/2+y,z
1/2-x,1/2+y,1/2-z
1/2-x,1/2-y,-z
1/2+x,1/2-y,1/2+z
loop_
_atom_site_type_symbol
_atom_site_label
_atom_site_fract_x
_atom_site_fract_y
_atom_site_fract_z
Si Si1 0.495265 0.234201 0.412440
Si Si2 0.615546 0.550727 0.598085
Si Si3 0.000000 0.516378 0.250000
Si Si4 0.709342 0.375588 0.859028
O O1 0.500000 0.257666 0.250000
O O2 0.250000 0.250000 0.500000
O O3 0.449053 0.164633 0.391405
O O4 0.750000 0.250000 0.500000
O O5 0.500000 0.555894 0.750000
O O6 0.500000 0.500000 0.500000
O O7 0.896183 0.527728 0.630625
O O8 0.596123 0.609502 0.508428
O O9 0.209635 0.562035 0.204267
O O10 0.500000 0.348689 0.750000
#
# Coordination Sequence:
#
# PCOD9307223 Si02
#       4
#     8   8   4   8
#     4  12  28  54  83 113 152 202 272 342 406 471
#     4  12  24  42  66 112 157 198 252 304 366 473
#     4  12  22  42  74  98 158 196 246 290 386 460
#     4  12  25  46  77 106 149 207 252 313 400 466
#
# _framework density 24.178951000000001
#
# number of rings (size 3 to 8) (size 9 to 14) (size 15 to 20)
#    0.000    0.000    7.143    3.429    0.000    1.143 
#    5.143    0.000    0.000    0.000    0.000    0.000 
#    0.000    0.000    0.000    0.000    0.000    0.000 
#
# Total GULP energy -78268.523272 kJ/mol
# GULP energy per Si atom -5590.608805 kJ/mol
# Density = 2.412392 g / cm^3
# Si number density = 24.178951 Si / 1000 Ang^3
#
#
#
# Elastic Constant Matrix: (Units=GPa)
#
#
# Indices 1 2 3 4 5 6 
#
# 1 146.0072 29.7012 89.7437 0.0000 19.4000 0.0000
# 2 29.7012 67.9774 40.4229 0.0000 13.5173 0.0000
# 3 89.7437 40.4229 216.2051 0.0000 2.3033 0.0000
# 4 0.0000 0.0000 0.0000 26.3379 0.0000 -1.4744
# 5 19.4000 13.5173 2.3033 0.0000 75.8292 0.0000
# 6 0.0000 0.0000 0.0000 -1.4744 0.0000 50.5519
#
#
#
# Elastic Compliance Matrix: (Units=1/GPa)
#
#
# Indices 1 2 3 4 5 6 
#
# 1 0.009743 -0.001631 -0.003717 0.000000 -0.002089 0.000000
# 2 -0.001631 0.017467 -0.002561 0.000000 -0.002619 0.000000
# 3 -0.003717 -0.002561 0.006634 0.000000 0.001206 0.000000
# 4 0.000000 0.000000 0.000000 0.038030 0.000000 0.001109
# 5 -0.002089 -0.002619 0.001206 0.000000 0.014152 0.000000
# 6 0.000000 0.000000 0.000000 0.001109 0.000000 0.019814
#
#
# Mechanical properties :
#
#
# Convention : Reuss Voigt Hill
#
# Bulk Modulus (GPa) = 55.47518 83.32505 69.40011
# Shear Modulus (GPa) = 39.16442 48.56524 43.86483
#
# Velocity S-wave (km/s) = 4.02901 4.48658 4.26393
# Velocity P-wave (km/s) = 6.68111 7.83427 7.28056
#
# Compressibility (1/GPa) = 0.01802608
#
# Stress axis : x y z
#
# Youngs Moduli (GPa) = 102.63779 57.25094 150.73874
#
# Poissons Ratio (x) = 0.09340 0.56028
# Poissons Ratio (y) = 0.16744 0.38599
# Poissons Ratio (z) = 0.38150 0.14660
#
# Static dielectric constant tensor:
#      x y z
#    x 2.188030 0.000000 0.084220 
#    y 0.000000 1.936580 0.000000 
#    z 0.084220 0.000000 2.182910 
# 
# From -- ./inp_files/19690.got.cif
#   From: 2010.05.17/outbox.cif.g08.bks.cpg/sg15_10_cif.got.tgz:19690.got - 2010.06.03 18:47:42.
