data_PCOD9307422
_publ_section_title
;
Structure prediction by ZEFSAII (Michael W. Deem and Ramdas Pophale) SiO2 
 PCOD9307422
Probable space group: C 2/C
;
_chemical_formula_sum "Si O2"
_cell_formula_units_Z 64
_cell_length_a 26.314953
_cell_length_b 14.926961
_cell_length_c 8.400362
_cell_angle_alpha 90.000000
_cell_angle_beta 125.182725
_cell_angle_gamma 90.000000
_cell_volume 2696.891113
_symmetry_space_group_name_H-M "C 2/C"
_symmetry_group_IT_number 15
_symmetry_cell_setting 'monoclinic'
loop_
_space_group_symop_operation_xyz
x,y,z
-x,y,1/2-z
-x,-y,-z
x,-y,1/2+z
1/2+x,1/2+y,z
1/2-x,1/2+y,1/2-z
1/2-x,1/2-y,-z
1/2+x,1/2-y,1/2+z
loop_
_atom_site_type_symbol
_atom_site_label
_atom_site_fract_x
_atom_site_fract_y
_atom_site_fract_z
Si Si1 0.393502 0.392038 0.620614
Si Si2 0.433435 0.961402 0.161441
Si Si3 0.632012 0.897917 0.145412
Si Si4 0.753469 0.366571 0.651247
Si Si5 0.561426 0.443279 0.467338
Si Si6 0.370928 0.276903 0.055432
Si Si7 0.892076 0.711628 0.427572
Si Si8 0.738383 0.548954 0.469547
O O1 0.409540 0.458522 0.504426
O O2 0.396738 0.290738 0.564937
O O3 0.325212 0.416627 0.564347
O O4 0.440508 0.415725 0.850892
O O5 0.500000 0.005334 0.250000
O O6 0.415939 0.926712 0.303693
O O7 0.432117 0.874196 0.046659
O O8 0.380200 0.031328 0.016954
O O9 0.701395 0.908315 0.336861
O O10 0.620749 0.799239 0.060623
O O11 0.701990 0.289976 0.540633
O O12 0.821954 0.326618 0.790761
O O13 0.745116 0.441810 0.500766
O O14 0.740114 0.419340 0.791381
O O15 0.500000 0.438136 0.250000
O O16 0.606329 0.371144 0.467670
O O17 0.406326 0.249779 0.279460
#
# Coordination Sequence:
#
# PCOD9307422 Si02
#       8
#     8   8   8   8   8   8   8   8
#     4  12  25  47  75 106 148 191 245 307 372 435
#     4  12  27  48  73 105 144 197 252 302 360 434
#     4  12  25  47  75 106 148 191 245 307 372 435
#     4  12  26  45  72 113 147 187 243 301 380 442
#     4  12  27  48  73 105 144 197 252 302 360 434
#     4  12  27  45  72 107 149 190 243 305 373 436
#     4  12  27  45  72 107 149 190 243 305 373 436
#     4  12  23  43  79 102 145 186 237 300 380 428
#
# _framework density 23.731028999999999
#
# number of rings (size 3 to 8) (size 9 to 14) (size 15 to 20)
#    0.000    0.000    5.000    4.125    3.500    4.000 
#    0.000    0.000    0.000    0.000    0.000    0.000 
#    0.000    0.000    0.000    0.000    0.000    0.000 
#
# Total GULP energy -179455.345205 kJ/mol
# GULP energy per Si atom -5607.979538 kJ/mol
# Density = 2.367702 g / cm^3
# Si number density = 23.731029 Si / 1000 Ang^3
#
#
#
# Elastic Constant Matrix: (Units=GPa)
#
#
# Indices 1 2 3 4 5 6 
#
# 1 56.3046 -4.8507 23.4691 0.0000 6.6506 0.0000
# 2 -4.8507 52.3424 16.0009 0.0000 14.3536 0.0000
# 3 23.4691 16.0009 94.4189 0.0000 2.4343 0.0000
# 4 0.0000 0.0000 0.0000 36.4083 0.0000 -11.5209
# 5 6.6506 14.3536 2.4343 0.0000 28.8638 0.0000
# 6 0.0000 0.0000 0.0000 -11.5209 0.0000 17.4948
#
#
#
# Elastic Compliance Matrix: (Units=1/GPa)
#
#
# Indices 1 2 3 4 5 6 
#
# 1 0.021749 0.005961 -0.006224 0.000000 -0.007451 0.000000
# 2 0.005961 0.024953 -0.005367 0.000000 -0.013330 0.000000
# 3 -0.006224 -0.005367 0.012970 0.000000 0.003009 0.000000
# 4 0.000000 0.000000 0.000000 0.034696 0.000000 0.022849
# 5 -0.007451 -0.013330 0.003009 0.000000 0.042737 0.000000
# 6 0.000000 0.000000 0.000000 0.022849 0.000000 0.072207
#
#
# Mechanical properties :
#
#
# Convention : Reuss Voigt Hill
#
# Bulk Modulus (GPa) = 20.65565 30.25606 25.45586
# Shear Modulus (GPa) = 21.12295 27.78314 24.45304
#
# Velocity S-wave (km/s) = 2.98669 3.42534 3.21351
# Velocity P-wave (km/s) = 4.54056 5.33115 4.95166
#
# Compressibility (1/GPa) = 0.04841290
#
# Stress axis : x y z
#
# Youngs Moduli (GPa) = 45.98014 40.07454 77.10031
#
# Poissons Ratio (x) = -0.23890 0.47988
# Poissons Ratio (y) = -0.27410 0.41379
# Poissons Ratio (z) = 0.28618 0.21508
#
# Static dielectric constant tensor:
#      x y z
#    x 1.896560 0.000000 0.000260 
#    y 0.000000 1.851210 0.000000 
#    z 0.000260 0.000000 1.915690 
# 
# From -- ./inp_files/70178.got.cif
#   From: 2010.05.17/outbox.cif.g08.bks.cpg/sg15_36_cif.got.tgz:70178.got - 2010.06.03 18:47:42.
