data_PCOD9307199
_publ_section_title
;
Structure prediction by ZEFSAII (Michael W. Deem and Ramdas Pophale) SiO2 
 PCOD9307199
Probable space group: C 2/C
;
_chemical_formula_sum "Si O2"
_cell_formula_units_Z 40
_cell_length_a 10.918976
_cell_length_b 28.830412
_cell_length_c 7.758080
_cell_angle_alpha 90.000000
_cell_angle_beta 130.129001
_cell_angle_gamma 90.000000
_cell_volume 1867.319453
_symmetry_space_group_name_H-M "C 2/C"
_symmetry_group_IT_number 15
_symmetry_cell_setting 'monoclinic'
loop_
_space_group_symop_operation_xyz
x,y,z
-x,y,1/2-z
-x,-y,-z
x,-y,1/2+z
1/2+x,1/2+y,z
1/2-x,1/2+y,1/2-z
1/2-x,1/2-y,-z
1/2+x,1/2-y,1/2+z
loop_
_atom_site_type_symbol
_atom_site_label
_atom_site_fract_x
_atom_site_fract_y
_atom_site_fract_z
Si Si1 0.128308 0.443991 0.002229
Si Si2 0.500000 0.034813 0.750000
Si Si3 0.404452 0.791617 0.485230
Si Si4 0.000000 0.859566 0.750000
Si Si5 0.741162 0.213041 0.143433
Si Si6 0.631604 0.629738 0.732987
O O1 0.071574 0.439107 0.149763
O O2 0.289765 0.416762 0.122082
O O3 0.000000 0.423633 0.750000
O O4 0.127307 0.498481 0.950820
O O5 0.500000 0.792608 0.750000
O O6 0.556214 0.799491 0.497852
O O7 0.321256 0.741918 0.373197
O O8 0.269429 0.830975 0.344942
O O9 0.855110 0.828537 0.693041
O O10 0.934380 0.882538 0.516646
O O11 0.750000 0.250000 0.000000
O O12 0.500000 0.646408 0.750000
#
# Coordination Sequence:
#
# PCOD9307199 Si02
#       6
#     8   4   8   4   8   8
#     4   9  19  41  71 100 131 162 207 266 311 392
#     4   8  18  40  75 104 122 164 216 248 321 396
#     4  12  24  40  66  91 120 165 219 278 331 382
#     4  12  26  44  63  90 136 176 220 266 331 390
#     4  12  22  42  63  87 121 168 220 274 323 376
#     4  12  27  44  60  96 137 170 214 268 327 383
#
# _framework density 21.421081000000001
#
# number of rings (size 3 to 8) (size 9 to 14) (size 15 to 20)
#    0.600    0.400    4.000    2.400    0.000    4.800 
#    0.000    1.000    0.000    0.000    0.000    0.000 
#    0.000    0.000    0.000    0.000    0.000    0.000 
#
# Total GULP energy -111625.155106 kJ/mol
# GULP energy per Si atom -5581.257755 kJ/mol
# Density = 2.137233 g / cm^3
# Si number density = 21.421081 Si / 1000 Ang^3
#
#
#
# Elastic Constant Matrix: (Units=GPa)
#
#
# Indices 1 2 3 4 5 6 
#
# 1 141.1112 19.0526 45.0219 0.0000 16.5831 0.0000
# 2 19.0526 26.5447 10.9151 0.0000 14.5216 0.0000
# 3 45.0219 10.9151 129.5500 0.0000 -13.4831 0.0000
# 4 0.0000 0.0000 0.0000 5.4169 0.0000 10.8511
# 5 16.5831 14.5216 -13.4831 0.0000 53.1321 0.0000
# 6 0.0000 0.0000 0.0000 10.8511 0.0000 19.4334
#
#
#
# Elastic Compliance Matrix: (Units=1/GPa)
#
#
# Indices 1 2 3 4 5 6 
#
# 1 0.008850 -0.003738 -0.003022 0.000000 -0.002507 0.000000
# 2 -0.003738 0.049458 -0.004266 0.000000 -0.013434 0.000000
# 3 -0.003022 -0.004266 0.009602 0.000000 0.004546 0.000000
# 4 0.000000 0.000000 0.000000 -1.557466 0.000000 0.869649
# 5 -0.002507 -0.013434 0.004546 0.000000 0.024429 0.000000
# 6 0.000000 0.000000 0.000000 0.869649 0.000000 -0.434132
#
#
# Mechanical properties :
#
#
# Convention : Reuss Voigt Hill
#
# Bulk Modulus (GPa) = 21.80614 49.68721 35.74667
# Shear Modulus (GPa) = -2.68540 30.41090 13.86275
#
# Velocity S-wave (km/s) = -1.12087 3.77194 2.54668
# Velocity P-wave (km/s) = 2.92006 6.49737 5.03699
#
# Compressibility (1/GPa) = 0.04585865
#
# Stress axis : x y z
#
# Youngs Moduli (GPa) = 112.99412 20.21898 104.14879
#
# Poissons Ratio (x) = 0.07558 0.31470
# Poissons Ratio (y) = 0.42237 0.44431
# Poissons Ratio (z) = 0.34142 0.08626
#
# Static dielectric constant tensor:
#      x y z
#    x 1.783610 0.000000 -0.158330 
#    y 0.000000 1.762400 0.000000 
#    z -0.158330 0.000000 1.616680 
# 
# From -- ./inp_files/35500.got.cif
#   From: 2010.05.17/outbox.cif.g08.bks.cpg/sg15_18_cif.got.tgz:35500.got - 2010.06.03 18:47:42.
