data_PCOD9307228
_publ_section_title
;
Structure prediction by ZEFSAII (Michael W. Deem and Ramdas Pophale) SiO2 
 PCOD9307228
Probable space group: C 2/C
;
_chemical_formula_sum "Si O2"
_cell_formula_units_Z 32
_cell_length_a 13.666370
_cell_length_b 11.899366
_cell_length_c 9.981494
_cell_angle_alpha 90.000000
_cell_angle_beta 108.557878
_cell_angle_gamma 90.000000
_cell_volume 1538.799708
_symmetry_space_group_name_H-M "C 2/C"
_symmetry_group_IT_number 15
_symmetry_cell_setting 'monoclinic'
loop_
_space_group_symop_operation_xyz
x,y,z
-x,y,1/2-z
-x,-y,-z
x,-y,1/2+z
1/2+x,1/2+y,z
1/2-x,1/2+y,1/2-z
1/2-x,1/2-y,-z
1/2+x,1/2-y,1/2+z
loop_
_atom_site_type_symbol
_atom_site_label
_atom_site_fract_x
_atom_site_fract_y
_atom_site_fract_z
Si Si1 0.121719 0.015455 0.037913
Si Si2 0.111558 0.731179 0.490587
Si Si3 0.251955 0.971686 0.336503
Si Si4 0.414130 0.148838 0.302885
O O1 0.139038 0.149587 0.063384
O O2 0.185688 0.947303 0.175422
O O3 0.170793 0.991863 0.914799
O O4 0.000000 0.000000 0.000000
O O5 0.176465 0.629532 0.579614
O O6 0.372958 0.770492 0.665677
O O7 0.988036 0.709480 0.442063
O O8 0.329557 0.071891 0.331087
O O9 0.500000 0.079734 0.250000
#
# Coordination Sequence:
#
# PCOD9307228 Si02
#       4
#     8   8   8   8
#     4  12  27  42  66  97 139 178 219 270 326 399
#     4   9  22  43  70  92 132 178 211 266 351 378
#     4  12  22  43  68  98 128 175 227 264 329 394
#     4   8  20  40  74  92 122 171 226 262 322 399
#
# _framework density 20.79543
#
# number of rings (size 3 to 8) (size 9 to 14) (size 15 to 20)
#    1.500    0.000    2.500    2.250    7.000    0.000 
#    0.000   10.000    0.000    0.000    0.000    0.000 
#    0.000    0.000    0.000    0.000    0.000    0.000 
#
# Total GULP energy -89182.153216 kJ/mol
# GULP energy per Si atom -5573.884576 kJ/mol
# Density = 2.074810 g / cm^3
# Si number density = 20.795430 Si / 1000 Ang^3
#
#
#
# Elastic Constant Matrix: (Units=GPa)
#
#
# Indices 1 2 3 4 5 6 
#
# 1 104.2489 26.6418 13.6836 0.0000 -5.5462 0.0000
# 2 26.6418 58.9816 22.5600 0.0000 7.3995 0.0000
# 3 13.6836 22.5600 63.6170 0.0000 12.2031 0.0000
# 4 0.0000 0.0000 0.0000 24.5126 0.0000 1.7730
# 5 -5.5462 7.3995 12.2031 0.0000 43.0683 0.0000
# 6 0.0000 0.0000 0.0000 1.7730 0.0000 33.1861
#
#
#
# Elastic Compliance Matrix: (Units=1/GPa)
#
#
# Indices 1 2 3 4 5 6 
#
# 1 0.011139 -0.004918 -0.001152 0.000000 0.002606 0.000000
# 2 -0.004918 0.021876 -0.006194 0.000000 -0.002637 0.000000
# 3 -0.001152 -0.006194 0.019022 0.000000 -0.004474 0.000000
# 4 0.000000 0.000000 0.000000 0.040954 0.000000 -0.002188
# 5 0.002606 -0.002637 -0.004474 0.000000 0.025275 0.000000
# 6 0.000000 0.000000 0.000000 -0.002188 0.000000 0.030250
#
#
# Mechanical properties :
#
#
# Convention : Reuss Voigt Hill
#
# Bulk Modulus (GPa) = 36.35180 39.17982 37.76581
# Shear Modulus (GPa) = 27.44056 31.08420 29.26238
#
# Velocity S-wave (km/s) = 3.63650 3.87041 3.75528
# Velocity P-wave (km/s) = 5.92881 6.23337 6.08300
#
# Compressibility (1/GPa) = 0.02750896
#
# Stress axis : x y z
#
# Youngs Moduli (GPa) = 89.77443 45.71273 52.57205
#
# Poissons Ratio (x) = 0.22481 0.06055
# Poissons Ratio (y) = 0.44149 0.32563
# Poissons Ratio (z) = 0.10340 0.28315
#
# Static dielectric constant tensor:
#      x y z
#    x 1.807060 0.000000 0.036260 
#    y 0.000000 1.727550 0.000000 
#    z 0.036260 0.000000 1.759610 
# 
# From -- ./inp_files/28020.got.cif
#   From: 2010.05.17/outbox.cif.g08.bks.cpg/sg15_15_cif.got.tgz:28020.got - 2010.06.03 18:47:42.
