data_PCOD9307093
_publ_section_title
;
Structure prediction by ZEFSAII (Michael W. Deem and Ramdas Pophale) SiO2 
 PCOD9307093
Probable space group: C 2/C
;
_chemical_formula_sum "Si O2"
_cell_formula_units_Z 40
_cell_length_a 13.002188
_cell_length_b 12.625523
_cell_length_c 13.256483
_cell_angle_alpha 90.000000
_cell_angle_beta 126.388828
_cell_angle_gamma 90.000000
_cell_volume 1751.842826
_symmetry_space_group_name_H-M "C 2/C"
_symmetry_group_IT_number 15
_symmetry_cell_setting 'monoclinic'
loop_
_space_group_symop_operation_xyz
x,y,z
-x,y,1/2-z
-x,-y,-z
x,-y,1/2+z
1/2+x,1/2+y,z
1/2-x,1/2+y,1/2-z
1/2-x,1/2-y,-z
1/2+x,1/2-y,1/2+z
loop_
_atom_site_type_symbol
_atom_site_label
_atom_site_fract_x
_atom_site_fract_y
_atom_site_fract_z
Si Si1 0.000000 0.917034 0.250000
Si Si2 0.500000 0.173048 0.750000
Si Si3 0.795832 0.955299 0.759933
Si Si4 0.042394 0.182012 0.989092
Si Si5 0.563123 0.092542 0.598193
Si Si6 0.731608 0.753661 0.609071
O O1 0.047251 0.847053 0.373259
O O2 0.892271 0.992842 0.235313
O O3 0.462385 0.108976 0.630441
O O4 0.380110 0.233624 0.724917
O O5 0.714592 0.862623 0.659124
O O6 0.692975 0.046560 0.723458
O O7 0.875455 0.903322 0.898563
O O8 0.892316 0.183161 0.935808
O O9 0.085345 0.301706 0.044225
O O10 0.500000 0.000000 0.500000
O O11 0.750000 0.750000 0.500000
#
# Coordination Sequence:
#
# PCOD9307093 Si02
#       6
#     4   4   8   8   8   8
#     4  12  29  47  78 114 154 204 249 331 392 454
#     4  12  23  43  76 104 144 196 249 309 372 446
#     4  12  26  48  74 110 152 200 265 308 388 463
#     4  12  27  51  76 112 161 198 262 322 386 459
#     4  12  26  46  74 112 149 200 255 312 385 461
#     4  12  21  45  78 105 146 200 247 311 373 452
#
# _framework density 22.833099000000001
#
# number of rings (size 3 to 8) (size 9 to 14) (size 15 to 20)
#    0.000    0.000    6.000    3.600    0.000    4.800 
#    0.000    0.000    0.000    0.000    0.000    0.000 
#    0.000    0.000    0.000    0.000    0.000    0.000 
#
# Total GULP energy -111541.087689 kJ/mol
# GULP energy per Si atom -5577.054384 kJ/mol
# Density = 2.278113 g / cm^3
# Si number density = 22.833099 Si / 1000 Ang^3
#
#
#
# Elastic Constant Matrix: (Units=GPa)
#
#
# Indices 1 2 3 4 5 6 
#
# 1 89.0730 46.0097 43.7604 0.0000 3.5441 0.0000
# 2 46.0097 121.2363 75.6966 0.0000 5.0216 0.0000
# 3 43.7604 75.6966 166.5408 0.0000 -16.2354 0.0000
# 4 0.0000 0.0000 0.0000 60.6577 0.0000 10.7080
# 5 3.5441 5.0216 -16.2354 0.0000 57.3632 0.0000
# 6 0.0000 0.0000 0.0000 10.7080 0.0000 45.9505
#
#
#
# Elastic Compliance Matrix: (Units=1/GPa)
#
#
# Indices 1 2 3 4 5 6 
#
# 1 0.014407 -0.004178 -0.001993 0.000000 -0.001088 0.000000
# 2 -0.004178 0.013106 -0.005086 0.000000 -0.002329 0.000000
# 3 -0.001993 -0.005086 0.009148 0.000000 0.003157 0.000000
# 4 0.000000 0.000000 0.000000 0.017193 0.000000 -0.004007
# 5 -0.001088 -0.002329 0.003157 0.000000 0.018598 0.000000
# 6 0.000000 0.000000 0.000000 -0.004007 0.000000 0.022696
#
#
# Mechanical properties :
#
#
# Convention : Reuss Voigt Hill
#
# Bulk Modulus (GPa) = 70.68713 78.64260 74.66486
# Shear Modulus (GPa) = 40.85699 46.88651 43.87175
#
# Velocity S-wave (km/s) = 4.23469 4.53641 4.38814
# Velocity P-wave (km/s) = 7.41185 7.87120 7.64498
#
# Compressibility (1/GPa) = 0.01414685
#
# Stress axis : x y z
#
# Youngs Moduli (GPa) = 69.40922 76.29979 109.31736
#
# Poissons Ratio (x) = 0.31881 0.21782
# Poissons Ratio (y) = 0.29002 0.55600
# Poissons Ratio (z) = 0.13830 0.38807
#
# Static dielectric constant tensor:
#      x y z
#    x 1.833680 0.000000 0.066830 
#    y 0.000000 2.011360 0.000000 
#    z 0.066830 0.000000 2.221260 
# 
# From -- ./inp_files/152326.got.cif
#   From: 2010.05.17/outbox.cif.g08.bks.cpg/sg15_77_cif.got.tgz:152326.got - 2010.06.03 18:47:42.
