data_PCOD9307490
_publ_section_title
;
Structure prediction by ZEFSAII (Michael W. Deem and Ramdas Pophale) SiO2 
 PCOD9307490
Probable space group: C 2/C
;
_chemical_formula_sum "Si O2"
_cell_formula_units_Z 36
_cell_length_a 11.566214
_cell_length_b 15.784162
_cell_length_c 15.146728
_cell_angle_alpha 90.000000
_cell_angle_beta 143.068989
_cell_angle_gamma 90.000000
_cell_volume 1661.497859
_symmetry_space_group_name_H-M "C 2/C"
_symmetry_group_IT_number 15
_symmetry_cell_setting 'monoclinic'
loop_
_space_group_symop_operation_xyz
x,y,z
-x,y,1/2-z
-x,-y,-z
x,-y,1/2+z
1/2+x,1/2+y,z
1/2-x,1/2+y,1/2-z
1/2-x,1/2-y,-z
1/2+x,1/2-y,1/2+z
loop_
_atom_site_type_symbol
_atom_site_label
_atom_site_fract_x
_atom_site_fract_y
_atom_site_fract_z
Si Si1 0.653430 0.993896 0.016478
Si Si2 0.659797 0.665003 0.783332
Si Si3 0.133379 0.836044 0.913680
Si Si4 0.000000 0.404103 0.750000
Si Si5 0.087441 0.819417 0.543953
O O1 0.745116 0.082246 0.041927
O O2 0.799315 0.925618 0.147825
O O3 0.500000 0.000000 0.000000
O O4 0.552144 0.956384 0.868657
O O5 0.500000 0.705757 0.750000
O O6 0.854448 0.720612 0.906319
O O7 0.562638 0.666489 0.627657
O O8 0.000000 0.816880 0.750000
O O9 0.007968 0.853885 0.924884
O O10 0.250000 0.750000 0.000000
O O11 0.794644 0.359799 0.647563
#
# Coordination Sequence:
#
# PCOD9307490 Si02
#       5
#     8   8   8   4   8
#     4  12  28  47  72 107 151 189 248 305 368 443
#     4  12  23  46  74 110 146 192 245 305 364 444
#     4  12  28  50  74 106 146 195 244 304 373 441
#     4  12  26  44  74 108 144 194 240 300 372 438
#     4  12  25  45  78 108 149 194 244 301 372 439
#
# _framework density 21.667197999999999
#
# number of rings (size 3 to 8) (size 9 to 14) (size 15 to 20)
#    0.000    0.000    3.333    6.667    4.667    0.889 
#    0.000    0.000    0.000    0.000    0.000    0.000 
#    0.000    0.000    0.000    0.000    0.000    0.000 
#
# Total GULP energy -100639.261453 kJ/mol
# GULP energy per Si atom -5591.070081 kJ/mol
# Density = 2.161788 g / cm^3
# Si number density = 21.667198 Si / 1000 Ang^3
#
#
#
# Elastic Constant Matrix: (Units=GPa)
#
#
# Indices 1 2 3 4 5 6 
#
# 1 188.5578 67.1931 59.8657 -0.0006 -31.1379 -0.0003
# 2 67.1931 154.6110 83.5895 -0.0005 -2.5090 -0.0003
# 3 59.8657 83.5895 189.4654 -0.0009 -40.7852 -0.0005
# 4 -0.0006 -0.0005 -0.0009 20.8744 -0.0005 -4.6232
# 5 -31.1379 -2.5090 -40.7852 -0.0005 38.7383 -0.0003
# 6 -0.0003 -0.0003 -0.0005 -4.6232 -0.0003 33.6051
#
#
#
# Elastic Compliance Matrix: (Units=1/GPa)
#
#
# Indices 1 2 3 4 5 6 
#
# 1 0.007378 -0.003376 0.000502 0.000000 0.006240 0.000000
# 2 -0.003376 0.010658 -0.005264 0.000000 -0.007566 0.000000
# 3 0.000502 -0.005264 0.009640 0.000001 0.010212 0.000000
# 4 0.000000 0.000000 0.000001 0.049411 0.000002 0.006798
# 5 0.006240 -0.007566 0.010212 0.000002 0.041091 0.000001
# 6 0.000000 0.000000 0.000000 0.006798 0.000001 0.030693
#
#
# Mechanical properties :
#
#
# Convention : Reuss Voigt Hill
#
# Bulk Modulus (GPa) = 87.72965 105.99230 96.86098
# Shear Modulus (GPa) = 29.59479 40.10927 34.85203
#
# Velocity S-wave (km/s) = 3.69979 4.30717 4.01498
# Velocity P-wave (km/s) = 7.66999 8.58837 8.14214
#
# Compressibility (1/GPa) = 0.01139865
#
# Stress axis : x y z
#
# Youngs Moduli (GPa) = 135.54382 93.82250 103.73129
#
# Poissons Ratio (x) = 0.31677 -0.05203
# Poissons Ratio (y) = 0.45763 0.54607
# Poissons Ratio (z) = -0.06798 0.49390
#
# Static dielectric constant tensor:
#      x y z
#    x 1.819850 0.000000 0.074360 
#    y 0.000000 1.910870 0.000000 
#    z 0.074360 0.000000 1.728270 
# 
# From -- ./inp_files/144458.got.cif
#   From: 2010.05.17/outbox.cif.g08.bks.cpg/sg15_73_cif.got.tgz:144458.got - 2010.06.03 18:47:42.
