data_PCOD9307554
_publ_section_title
;
Structure prediction by ZEFSAII (Michael W. Deem and Ramdas Pophale) SiO2 
 PCOD9307554
Probable space group: C 2/C
;
_chemical_formula_sum "Si O2"
_cell_formula_units_Z 32
_cell_length_a 18.253192
_cell_length_b 16.241095
_cell_length_c 5.291546
_cell_angle_alpha 90.000000
_cell_angle_beta 107.521639
_cell_angle_gamma 90.000000
_cell_volume 1495.906525
_symmetry_space_group_name_H-M "C 2/C"
_symmetry_group_IT_number 15
_symmetry_cell_setting 'monoclinic'
loop_
_space_group_symop_operation_xyz
x,y,z
-x,y,1/2-z
-x,-y,-z
x,-y,1/2+z
1/2+x,1/2+y,z
1/2-x,1/2+y,1/2-z
1/2-x,1/2-y,-z
1/2+x,1/2-y,1/2+z
loop_
_atom_site_type_symbol
_atom_site_label
_atom_site_fract_x
_atom_site_fract_y
_atom_site_fract_z
Si Si1 0.729466 0.543743 0.605921
Si Si2 0.914757 0.755777 0.197137
Si Si3 0.672438 0.199714 0.893623
Si Si4 0.445949 0.581879 0.994266
O O1 0.739578 0.470897 0.414431
O O2 0.794350 0.608214 0.593647
O O3 0.638032 0.563535 0.476503
O O4 0.877528 0.719254 0.411804
O O5 0.923667 0.855040 0.247464
O O6 0.000000 0.722591 0.250000
O O7 0.867543 0.731013 0.902559
O O8 0.750000 0.250000 0.000000
O O9 0.500000 0.629799 0.250000
O O10 0.500000 0.500000 0.000000
#
# Coordination Sequence:
#
# PCOD9307554 Si02
#       4
#     8   8   8   8
#     4  12  27  44  71 105 150 194 241 302 370 434
#     4  12  27  45  73 103 145 195 252 297 359 439
#     4  12  26  47  73 102 150 201 252 297 360 450
#     4  12  24  39  68 108 162 192 225 284 376 464
#
# _framework density 21.39171
#
# number of rings (size 3 to 8) (size 9 to 14) (size 15 to 20)
#    0.000    0.000    5.000    5.250    3.500    0.000 
#    0.000    0.000    0.000   15.000    0.000    0.000 
#    0.000    0.000    0.000    0.000    0.000    0.000 
#
# Total GULP energy -89330.297162 kJ/mol
# GULP energy per Si atom -5583.143573 kJ/mol
# Density = 2.134302 g / cm^3
# Si number density = 21.391710 Si / 1000 Ang^3
#
#
#
# Elastic Constant Matrix: (Units=GPa)
#
#
# Indices 1 2 3 4 5 6 
#
# 1 182.2250 69.2187 73.6337 0.0000 -19.1539 0.0000
# 2 69.2187 53.4566 31.9217 0.0000 10.7952 0.0000
# 3 73.6337 31.9217 165.5056 0.0000 7.2433 0.0000
# 4 0.0000 0.0000 0.0000 30.7707 0.0000 -2.2669
# 5 -19.1539 10.7952 7.2433 0.0000 47.0392 0.0000
# 6 0.0000 0.0000 0.0000 -2.2669 0.0000 46.0303
#
#
#
# Elastic Compliance Matrix: (Units=1/GPa)
#
#
# Indices 1 2 3 4 5 6 
#
# 1 0.016464 -0.021579 -0.003698 0.000000 0.012226 0.000000
# 2 -0.021579 0.050306 0.000793 0.000000 -0.020454 0.000000
# 3 -0.003698 0.000793 0.007660 0.000000 -0.002867 0.000000
# 4 0.000000 0.000000 0.000000 0.032617 0.000000 0.001606
# 5 0.012226 -0.020454 -0.002867 0.000000 0.031373 0.000000
# 6 0.000000 0.000000 0.000000 0.001606 0.000000 0.021804
#
#
# Mechanical properties :
#
#
# Convention : Reuss Voigt Hill
#
# Bulk Modulus (GPa) = 39.27489 83.41505 61.34497
# Shear Modulus (GPa) = 22.96979 39.86223 31.41601
#
# Velocity S-wave (km/s) = 3.28040 4.32144 3.83640
# Velocity P-wave (km/s) = 5.72256 7.99866 6.95436
#
# Compressibility (1/GPa) = 0.02546156
#
# Stress axis : x y z
#
# Youngs Moduli (GPa) = 60.73905 19.87852 130.55231
#
# Poissons Ratio (x) = 0.42896 0.48276
# Poissons Ratio (y) = 1.31069 -0.10354
# Poissons Ratio (z) = 0.22460 -0.01577
#
# Static dielectric constant tensor:
#      x y z
#    x 1.809910 0.000000 -0.063810 
#    y 0.000000 1.706290 0.000000 
#    z -0.063810 0.000000 1.851440 
# 
# From -- ./inp_files/9549.got.cif
#   From: 2010.05.17/outbox.cif.g08.bks.cpg/sg15_5_cif.got.tgz:9549.got - 2010.06.03 18:47:42.
