data_PCOD9307890
_publ_section_title
;
Structure prediction by ZEFSAII (Michael W. Deem and Ramdas Pophale) SiO2 
 PCOD9307890
Probable space group: C 2/C
;
_chemical_formula_sum "Si O2"
_cell_formula_units_Z 28
_cell_length_a 9.784774
_cell_length_b 25.714175
_cell_length_c 9.791888
_cell_angle_alpha 90.000000
_cell_angle_beta 150.058584
_cell_angle_gamma 90.000000
_cell_volume 1229.673444
_symmetry_space_group_name_H-M "C 2/C"
_symmetry_group_IT_number 15
_symmetry_cell_setting 'monoclinic'
loop_
_space_group_symop_operation_xyz
x,y,z
-x,y,1/2-z
-x,-y,-z
x,-y,1/2+z
1/2+x,1/2+y,z
1/2-x,1/2+y,1/2-z
1/2-x,1/2-y,-z
1/2+x,1/2-y,1/2+z
loop_
_atom_site_type_symbol
_atom_site_label
_atom_site_fract_x
_atom_site_fract_y
_atom_site_fract_z
Si Si1 0.770309 0.964735 0.227331
Si Si2 0.000000 0.211586 0.250000
Si Si3 0.030873 0.861037 0.517407
Si Si4 0.500000 0.713494 0.750000
Si Si5 0.500000 0.913781 0.750000
O O1 0.824639 0.909831 0.351586
O O2 0.723105 0.946608 0.028456
O O3 0.000000 0.000000 0.500000
O O4 0.500000 0.000000 0.000000
O O5 0.250000 0.250000 0.500000
O O6 0.932802 0.173131 0.317156
O O7 0.917930 0.822926 0.303811
O O8 0.316929 0.882018 0.700303
O O9 0.250000 0.750000 0.500000
#
# Coordination Sequence:
#
# PCOD9307890 Si02
#       5
#     8   4   8   4   4
#     4  12  27  47  79 120 166 213 272 337 416 486
#     4  12  32  54  78 118 171 219 272 342 440 494
#     4  12  27  51  82 118 167 209 278 345 410 500
#     4  12  25  42  79 114 147 202 268 335 402 474
#     4  12  25  52  83 120 164 211 286 335 408 492
#
# _framework density 22.770271999999999
#
# number of rings (size 3 to 8) (size 9 to 14) (size 15 to 20)
#    0.000    0.000    5.714    2.571    4.000    2.286 
#    0.000    0.000    0.000    0.000    0.000    0.000 
#    0.000    0.000    0.000    0.000    0.000    0.000 
#
# Total GULP energy -78179.235771 kJ/mol
# GULP energy per Si atom -5584.231127 kJ/mol
# Density = 2.271845 g / cm^3
# Si number density = 22.770272 Si / 1000 Ang^3
#
#
#
# Elastic Constant Matrix: (Units=GPa)
#
#
# Indices 1 2 3 4 5 6 
#
# 1 131.7967 85.0452 77.0597 0.0000 -13.8583 0.0000
# 2 85.0452 215.4749 117.0824 0.0000 -4.4354 0.0000
# 3 77.0597 117.0824 234.5551 0.0000 13.9048 0.0000
# 4 0.0000 0.0000 0.0000 -77.2041 0.0000 -78.2252
# 5 -13.8583 -4.4354 13.9048 0.0000 55.8300 0.0000
# 6 0.0000 0.0000 0.0000 -78.2252 0.0000 4.8877
#
#
#
# Elastic Compliance Matrix: (Units=1/GPa)
#
#
# Indices 1 2 3 4 5 6 
#
# 1 0.011302 -0.003125 -0.002339 0.000000 0.003140 0.000000
# 2 -0.003125 0.007329 -0.002660 0.000000 0.000469 0.000000
# 3 -0.002339 -0.002660 0.006502 0.000000 -0.002411 0.000000
# 4 0.000000 0.000000 0.000000 -0.000752 0.000000 -0.012041
# 5 0.003140 0.000469 -0.002411 0.000000 0.019329 0.000000
# 6 0.000000 0.000000 0.000000 -0.012041 0.000000 0.011884
#
#
# Mechanical properties :
#
#
# Convention : Reuss Voigt Hill
#
# Bulk Modulus (GPa) = 112.54062 126.68904 119.61483
# Shear Modulus (GPa) = 66.84218 16.87870 41.86044
#
# Velocity S-wave (km/s) = 5.42391 2.72556 4.29229
# Velocity P-wave (km/s) = 9.42108 8.10331 8.78693
#
# Compressibility (1/GPa) = 0.00888568
#
# Stress axis : x y z
#
# Youngs Moduli (GPa) = 88.48165 136.44287 153.78786
#
# Poissons Ratio (x) = 0.42638 0.35976
# Poissons Ratio (y) = 0.27650 0.40901
# Poissons Ratio (z) = 0.20698 0.36288
#
# Static dielectric constant tensor:
#      x y z
#    x 1.924760 0.000000 0.043900 
#    y 0.000000 1.850430 0.000000 
#    z 0.043900 0.000000 1.858600 
# 
# From -- ./inp_files/24855.got.cif
#   From: 2010.05.17/outbox.cif.g08.bks.cpg/sg15_13_cif.got.tgz:24855.got - 2010.06.03 18:47:42.
