data_PCOD9307288
_publ_section_title
;
Structure prediction by ZEFSAII (Michael W. Deem and Ramdas Pophale) SiO2 
 PCOD9307288
Probable space group: C 2/C
;
_chemical_formula_sum "Si O2"
_cell_formula_units_Z 48
_cell_length_a 28.366354
_cell_length_b 10.998412
_cell_length_c 23.216422
_cell_angle_alpha 90.000000
_cell_angle_beta 16.483075
_cell_angle_gamma 90.000000
_cell_volume 2055.120371
_symmetry_space_group_name_H-M "C 2/C"
_symmetry_group_IT_number 15
_symmetry_cell_setting 'monoclinic'
loop_
_space_group_symop_operation_xyz
x,y,z
-x,y,1/2-z
-x,-y,-z
x,-y,1/2+z
1/2+x,1/2+y,z
1/2-x,1/2+y,1/2-z
1/2-x,1/2-y,-z
1/2+x,1/2-y,1/2+z
loop_
_atom_site_type_symbol
_atom_site_label
_atom_site_fract_x
_atom_site_fract_y
_atom_site_fract_z
Si Si1 0.188994 0.881304 0.034839
Si Si2 0.337336 0.929627 0.975852
Si Si3 0.231410 0.219790 0.364922
Si Si4 0.333186 0.166556 0.044882
Si Si5 0.276473 0.844653 0.417264
Si Si6 0.945295 0.868853 0.537960
O O1 0.000000 0.840049 0.250000
O O2 0.241643 0.852910 0.039140
O O3 0.272068 0.852945 0.875761
O O4 0.202513 0.027356 0.021649
O O5 0.500000 0.966480 0.750000
O O6 0.362828 0.839765 0.999686
O O7 0.265365 0.053343 0.085759
O O8 0.120203 0.140981 0.451427
O O9 0.398891 0.276286 0.141215
O O10 0.316282 0.288876 0.028589
O O11 0.213870 0.172740 0.239019
O O12 0.527722 0.142836 0.826802
O O13 0.250000 0.750000 0.500000
O O14 0.000000 0.000000 0.500000
#
# Coordination Sequence:
#
# PCOD9307288 Si02
#       6
#     8   8   8   8   8   8
#     4  12  25  42  74 115 148 193 244 310 389 453
#     4  12  22  45  74 106 149 186 243 316 385 437
#     4  12  27  48  76 109 150 195 254 307 376 455
#     4  12  25  46  72 102 147 198 250 308 372 447
#     4  12  24  44  70 107 147 193 248 311 374 445
#     4  12  28  51  76 106 154 206 255 311 375 458
#
# _framework density 23.356296
#
# number of rings (size 3 to 8) (size 9 to 14) (size 15 to 20)
#    0.000    0.000    5.000    5.500    0.000    1.333 
#    0.000    2.500    0.000    0.000    0.000    0.000 
#    0.000    0.000    0.000    0.000    0.000    0.000 
#
# Total GULP energy -134159.454434 kJ/mol
# GULP energy per Si atom -5589.977268 kJ/mol
# Density = 2.330314 g / cm^3
# Si number density = 23.356296 Si / 1000 Ang^3
#
#
#
# Elastic Constant Matrix: (Units=GPa)
#
#
# Indices 1 2 3 4 5 6 
#
# 1 132.1421 28.4098 26.6061 -0.0034 -4.7539 0.0032
# 2 28.4098 50.8960 -2.2598 -0.0041 12.5856 0.0057
# 3 26.6061 -2.2598 123.7982 -0.0049 9.1666 0.0059
# 4 -0.0034 -0.0041 -0.0049 33.9145 0.0030 0.2870
# 5 -4.7539 12.5856 9.1666 0.0030 45.5583 -0.0029
# 6 0.0032 0.0057 0.0059 0.2870 -0.0029 43.3391
#
#
#
# Elastic Compliance Matrix: (Units=1/GPa)
#
#
# Indices 1 2 3 4 5 6 
#
# 1 0.009495 -0.006193 -0.002389 0.000000 0.003182 0.000001
# 2 -0.006193 0.025212 0.002390 0.000003 -0.008092 -0.000004
# 3 -0.002389 0.002390 0.008834 0.000002 -0.002687 -0.000002
# 4 0.000000 0.000003 0.000002 0.029488 -0.000003 -0.000195
# 5 0.003182 -0.008092 -0.002687 -0.000003 0.025058 0.000003
# 6 0.000001 -0.000004 -0.000002 -0.000195 0.000003 0.023075
#
#
# Mechanical properties :
#
#
# Convention : Reuss Voigt Hill
#
# Bulk Modulus (GPa) = 32.09581 45.81650 38.95616
# Shear Modulus (GPa) = 34.73919 41.50106 38.12012
#
# Velocity S-wave (km/s) = 3.86081 4.21986 4.04433
# Velocity P-wave (km/s) = 5.80053 6.58801 6.20677
#
# Compressibility (1/GPa) = 0.03115672
#
# Stress axis : x y z
#
# Youngs Moduli (GPa) = 105.32359 39.66404 113.20247
#
# Poissons Ratio (x) = 0.24563 0.27046
# Poissons Ratio (y) = 0.65224 -0.27059
# Poissons Ratio (z) = 0.25164 -0.09481
#
# Static dielectric constant tensor:
#      x y z
#    x 1.947400 0.000000 -0.037070 
#    y 0.000000 1.900140 0.000000 
#    z -0.037070 0.000000 1.891290 
# 
# From -- ./inp_files/257600.got.cif
#   From: 2010.05.17/outbox.cif.g08.bks.cpg/sg15_129_cif.got.tgz:257600.got - 2010.06.03 18:47:42.
