data_PCOD9307331
_publ_section_title
;
Structure prediction by ZEFSAII (Michael W. Deem and Ramdas Pophale) SiO2 
 PCOD9307331
Probable space group: C 2/C
;
_chemical_formula_sum "Si O2"
_cell_formula_units_Z 48
_cell_length_a 13.854798
_cell_length_b 11.726220
_cell_length_c 20.015710
_cell_angle_alpha 90.000000
_cell_angle_beta 122.863932
_cell_angle_gamma 90.000000
_cell_volume 2731.421248
_symmetry_space_group_name_H-M "C 2/C"
_symmetry_group_IT_number 15
_symmetry_cell_setting 'monoclinic'
loop_
_space_group_symop_operation_xyz
x,y,z
-x,y,1/2-z
-x,-y,-z
x,-y,1/2+z
1/2+x,1/2+y,z
1/2-x,1/2+y,1/2-z
1/2-x,1/2-y,-z
1/2+x,1/2-y,1/2+z
loop_
_atom_site_type_symbol
_atom_site_label
_atom_site_fract_x
_atom_site_fract_y
_atom_site_fract_z
Si Si1 0.309097 0.013087 0.506739
Si Si2 0.819549 0.437786 0.852980
Si Si3 0.556805 0.529726 0.950642
Si Si4 0.540960 0.205554 0.457442
Si Si5 0.469809 0.155615 0.888950
Si Si6 0.569832 0.616949 0.207498
O O1 0.365419 0.886963 0.531718
O O2 0.186138 0.018258 0.494866
O O3 0.295926 0.040801 0.422940
O O4 0.403704 0.100445 0.570650
O O5 0.878689 0.553018 0.847915
O O6 0.703121 0.406471 0.772388
O O7 0.917340 0.340682 0.886719
O O8 0.562954 0.665927 0.944331
O O9 0.482106 0.472748 0.864420
O O10 0.500000 0.500000 0.000000
O O11 0.539551 0.198153 0.537761
O O12 0.447629 0.258662 0.831145
O O13 0.500000 0.608573 0.250000
#
# Coordination Sequence:
#
# PCOD9307331 Si02
#       6
#     8   8   8   8   8   8
#     4   9  19  40  64  83 114 151 202 234 294 353
#     4   9  20  39  62  83 116 155 191 239 297 353
#     4  12  23  36  57  93 119 151 202 243 289 345
#     4   9  19  39  65  85 109 157 196 245 286 346
#     4   9  20  40  61  84 112 157 197 236 293 356
#     4  12  24  38  55  87 125 158 188 245 305 345
#
# _framework density 17.573269
#
# number of rings (size 3 to 8) (size 9 to 14) (size 15 to 20)
#    0.000    2.000    3.333    2.500    2.333    2.000 
#    0.000    0.000    0.000    0.000    0.000    0.000 
#    0.000    0.000    0.000    0.000    0.000    0.000 
#
# Total GULP energy -133992.713043 kJ/mol
# GULP energy per Si atom -5583.029710 kJ/mol
# Density = 1.753327 g / cm^3
# Si number density = 17.573269 Si / 1000 Ang^3
#
#
#
# Elastic Constant Matrix: (Units=GPa)
#
#
# Indices 1 2 3 4 5 6 
#
# 1 106.4847 21.4480 62.7598 0.0000 23.0497 0.0000
# 2 21.4480 103.2495 66.9068 0.0000 14.3257 0.0000
# 3 62.7598 66.9068 131.7585 0.0000 26.4856 0.0000
# 4 0.0000 0.0000 0.0000 29.3590 0.0000 -7.8607
# 5 23.0497 14.3257 26.4856 0.0000 31.7716 0.0000
# 6 0.0000 0.0000 0.0000 -7.8607 0.0000 13.3195
#
#
#
# Elastic Compliance Matrix: (Units=1/GPa)
#
#
# Indices 1 2 3 4 5 6 
#
# 1 0.014124 0.002196 -0.006708 0.000000 -0.005645 0.000000
# 2 0.002196 0.014783 -0.008280 0.000000 -0.001356 0.000000
# 3 -0.006708 -0.008280 0.015930 0.000000 -0.004680 0.000000
# 4 0.000000 0.000000 0.000000 0.040453 0.000000 0.023874
# 5 -0.005645 -0.001356 -0.004680 0.000000 0.040083 0.000000
# 6 0.000000 0.000000 0.000000 0.023874 0.000000 0.089168
#
#
# Mechanical properties :
#
#
# Convention : Reuss Voigt Hill
#
# Bulk Modulus (GPa) = 51.93988 71.52465 61.73227
# Shear Modulus (GPa) = 20.28039 27.58191 23.93115
#
# Velocity S-wave (km/s) = 3.40081 3.96604 3.69425
# Velocity P-wave (km/s) = 6.71126 7.85887 7.30763
#
# Compressibility (1/GPa) = 0.01925303
#
# Stress axis : x y z
#
# Youngs Moduli (GPa) = 70.80017 67.64570 62.77346
#
# Poissons Ratio (x) = -0.14856 0.42110
# Poissons Ratio (y) = -0.15549 0.51978
# Poissons Ratio (z) = 0.47494 0.56012
#
# Static dielectric constant tensor:
#      x y z
#    x 1.586760 0.000000 0.003960 
#    y 0.000000 1.589850 0.000000 
#    z 0.003960 0.000000 1.564890 
# 
# From -- ./inp_files/152079.got.cif
#   From: 2010.05.17/outbox.cif.g08.bks.cpg/sg15_77_cif.got.tgz:152079.got - 2010.06.03 18:47:42.
