data_PCOD9307061
_publ_section_title
;
Structure prediction by ZEFSAII (Michael W. Deem and Ramdas Pophale) SiO2 
 PCOD9307061
Probable space group: C 2/C
;
_chemical_formula_sum "Si O2"
_cell_formula_units_Z 56
_cell_length_a 20.684716
_cell_length_b 18.397348
_cell_length_c 14.190984
_cell_angle_alpha 90.000000
_cell_angle_beta 155.081089
_cell_angle_gamma 90.000000
_cell_volume 2275.333218
_symmetry_space_group_name_H-M "C 2/C"
_symmetry_group_IT_number 15
_symmetry_cell_setting 'monoclinic'
loop_
_space_group_symop_operation_xyz
x,y,z
-x,y,1/2-z
-x,-y,-z
x,-y,1/2+z
1/2+x,1/2+y,z
1/2-x,1/2+y,1/2-z
1/2-x,1/2-y,-z
1/2+x,1/2-y,1/2+z
loop_
_atom_site_type_symbol
_atom_site_label
_atom_site_fract_x
_atom_site_fract_y
_atom_site_fract_z
Si Si1 0.986632 0.433230 0.126254
Si Si2 0.585170 0.768915 0.230156
Si Si3 0.000000 0.773494 0.250000
Si Si4 0.203858 0.027495 0.558676
Si Si5 0.052132 0.677498 0.476976
Si Si6 0.000000 0.848105 0.750000
Si Si7 0.740027 0.543048 0.793012
Si Si8 0.721410 0.386790 0.473384
O O1 0.014922 0.347394 0.165048
O O2 0.114965 0.467795 0.228989
O O3 0.000000 0.462615 0.250000
O O4 0.820320 0.464705 0.883400
O O5 0.750000 0.750000 0.500000
O O6 0.480158 0.705170 0.134525
O O7 0.578506 0.777258 0.107846
O O8 0.897087 0.724321 0.046040
O O9 0.101172 0.821864 0.314958
O O10 0.140897 0.097619 0.420085
O O11 0.119257 0.038411 0.548743
O O12 0.167823 0.947715 0.475742
O O13 0.151164 0.604770 0.608803
O O14 0.881294 0.648412 0.223092
O O15 0.721996 0.570636 0.874423
#
# Coordination Sequence:
#
# PCOD9307061 Si02
#       8
#     8   8   4   8   8   4   8   8
#     4  12  21  42  72 102 139 181 240 298 345 424
#     4  12  26  44  70 111 151 191 237 296 371 440
#     4  12  29  48  69 108 152 188 238 298 375 434
#     4  12  25  46  71 102 144 189 239 304 359 425
#     4  12  24  45  77 105 145 188 241 301 364 429
#     4  12  27  46  67 102 156 188 238 302 375 440
#     4  12  23  44  80 107 133 188 252 305 347 427
#     4  12  26  49  72 107 145 190 245 298 361 435
#
# _framework density 24.61178
#
# number of rings (size 3 to 8) (size 9 to 14) (size 15 to 20)
#    0.000    0.000    7.857    2.143    2.000    1.143 
#    5.143    1.429    0.000    0.000    0.000    0.000 
#    0.000    0.000    0.000    0.000    0.000    0.000 
#
# Total GULP energy -156172.366075 kJ/mol
# GULP energy per Si atom -5577.584503 kJ/mol
# Density = 2.455576 g / cm^3
# Si number density = 24.611780 Si / 1000 Ang^3
#
#
#
# Elastic Constant Matrix: (Units=GPa)
#
#
# Indices 1 2 3 4 5 6 
#
# 1 125.4099 18.7776 41.2560 0.0000 -44.8970 0.0000
# 2 18.7776 122.8713 25.7429 0.0000 -4.2826 0.0000
# 3 41.2560 25.7429 59.7894 0.0000 -14.5216 0.0000
# 4 0.0000 0.0000 0.0000 22.5928 0.0000 -1.6830
# 5 -44.8970 -4.2826 -14.5216 0.0000 41.1831 0.0000
# 6 0.0000 0.0000 0.0000 -1.6830 0.0000 37.5477
#
#
#
# Elastic Compliance Matrix: (Units=1/GPa)
#
#
# Indices 1 2 3 4 5 6 
#
# 1 0.015488 -0.000394 -0.007028 0.000000 0.014365 0.000000
# 2 -0.000394 0.008964 -0.003790 0.000000 -0.000834 0.000000
# 3 -0.007028 -0.003790 0.023241 0.000000 0.000139 0.000000
# 4 0.000000 0.000000 0.000000 0.044410 0.000000 0.001991
# 5 0.014365 -0.000834 0.000139 0.000000 0.039905 0.000000
# 6 0.000000 0.000000 0.000000 0.001991 0.000000 0.026722
#
#
# Mechanical properties :
#
#
# Convention : Reuss Voigt Hill
#
# Bulk Modulus (GPa) = 39.57634 53.29152 46.43393
# Shear Modulus (GPa) = 26.37466 35.08433 30.72950
#
# Velocity S-wave (km/s) = 3.27712 3.77969 3.53734
# Velocity P-wave (km/s) = 5.51675 6.38341 5.96584
#
# Compressibility (1/GPa) = 0.02526762
#
# Stress axis : x y z
#
# Youngs Moduli (GPa) = 64.56761 111.55969 43.02799
#
# Poissons Ratio (x) = 0.04392 0.30241
# Poissons Ratio (y) = 0.02542 0.16309
# Poissons Ratio (z) = 0.45380 0.42284
#
# Static dielectric constant tensor:
#      x y z
#    x 2.098430 0.000000 -0.086670 
#    y 0.000000 1.931780 0.000000 
#    z -0.086670 0.000000 2.138710 
# 
# From -- ./inp_files/169219.got.cif
#   From: 2010.05.17/outbox.cif.g08.bks.cpg/sg15_85_cif.got.tgz:169219.got - 2010.06.03 18:47:42.
