data_PCOD9307324
_publ_section_title
;
Structure prediction by ZEFSAII (Michael W. Deem and Ramdas Pophale) SiO2 
 PCOD9307324
Probable space group: C 2/C
;
_chemical_formula_sum "Si O2"
_cell_formula_units_Z 44
_cell_length_a 25.668984
_cell_length_b 5.973463
_cell_length_c 14.651798
_cell_angle_alpha 90.000000
_cell_angle_beta 123.552408
_cell_angle_gamma 90.000000
_cell_volume 1872.273012
_symmetry_space_group_name_H-M "C 2/C"
_symmetry_group_IT_number 15
_symmetry_cell_setting 'monoclinic'
loop_
_space_group_symop_operation_xyz
x,y,z
-x,y,1/2-z
-x,-y,-z
x,-y,1/2+z
1/2+x,1/2+y,z
1/2-x,1/2+y,1/2-z
1/2-x,1/2-y,-z
1/2+x,1/2-y,1/2+z
loop_
_atom_site_type_symbol
_atom_site_label
_atom_site_fract_x
_atom_site_fract_y
_atom_site_fract_z
Si Si1 0.500000 0.672628 0.750000
Si Si2 0.490211 0.055695 0.595923
Si Si3 0.281371 0.990462 0.293997
Si Si4 0.685013 0.208218 0.488981
Si Si5 0.870919 0.582325 0.713261
Si Si6 0.611357 0.384960 0.916029
O O1 0.558938 0.513792 0.807974
O O2 0.486669 0.827783 0.649945
O O3 0.557681 0.139779 0.695616
O O4 0.431285 0.215648 0.563929
O O5 0.500000 0.000000 0.500000
O O6 0.244535 0.747079 0.245502
O O7 0.305147 0.969193 0.420860
O O8 0.335062 0.963327 0.270658
O O9 0.750000 0.250000 0.500000
O O10 0.655262 0.431168 0.505751
O O11 0.638541 0.124883 0.364529
O O12 0.846032 0.774059 0.621587
#
# Coordination Sequence:
#
# PCOD9307324 Si02
#       6
#     4   8   8   8   8   8
#     4  12  22  50  68 104 156 202 256 324 404 478
#     4  12  27  46  73 115 155 202 267 334 399 488
#     4  12  30  52  77 116 157 209 273 333 407 492
#     4  12  27  51  80 110 160 215 264 340 409 498
#     4  12  26  47  76 113 156 203 264 332 404 487
#     4  12  25  48  78 107 157 208 261 327 414 487
#
# _framework density 23.500845000000002
#
# number of rings (size 3 to 8) (size 9 to 14) (size 15 to 20)
#    0.000    0.000    7.273    1.091    7.636    3.636 
#    0.000    0.000    0.000    0.000    0.000    0.000 
#    0.000    0.000    0.000    0.000    0.000    0.000 
#
# Total GULP energy -122698.181492 kJ/mol
# GULP energy per Si atom -5577.190068 kJ/mol
# Density = 2.344736 g / cm^3
# Si number density = 23.500845 Si / 1000 Ang^3
#
#
#
# Elastic Constant Matrix: (Units=GPa)
#
#
# Indices 1 2 3 4 5 6 
#
# 1 119.1064 41.9872 43.4696 0.0000 -22.6359 0.0000
# 2 41.9872 106.9347 37.1530 0.0000 -4.4532 0.0000
# 3 43.4696 37.1530 121.7827 0.0000 -28.0797 0.0000
# 4 0.0000 0.0000 0.0000 50.0503 0.0000 8.0444
# 5 -22.6359 -4.4532 -28.0797 0.0000 39.9972 0.0000
# 6 0.0000 0.0000 0.0000 8.0444 0.0000 31.5799
#
#
#
# Elastic Compliance Matrix: (Units=1/GPa)
#
#
# Indices 1 2 3 4 5 6 
#
# 1 0.011210 -0.003569 -0.001839 0.000000 0.004656 0.000000
# 2 -0.003569 0.011652 -0.002920 0.000000 -0.002772 0.000000
# 3 -0.001839 -0.002920 0.011268 0.000000 0.006544 0.000000
# 4 0.000000 0.000000 0.000000 0.020833 0.000000 -0.005307
# 5 0.004656 -0.002772 0.006544 0.000000 0.031922 0.000000
# 6 0.000000 0.000000 0.000000 -0.005307 0.000000 0.033017
#
#
# Mechanical properties :
#
#
# Convention : Reuss Voigt Hill
#
# Bulk Modulus (GPa) = 57.22938 65.89370 61.56154
# Shear Modulus (GPa) = 35.11675 39.33975 37.22825
#
# Velocity S-wave (km/s) = 3.86978 4.09586 3.98442
# Velocity P-wave (km/s) = 6.66122 7.10407 6.88621
#
# Compressibility (1/GPa) = 0.01747354
#
# Stress axis : x y z
#
# Youngs Moduli (GPa) = 89.20712 85.82365 88.74977
#
# Poissons Ratio (x) = 0.30627 0.16322
# Poissons Ratio (y) = 0.31835 0.25916
# Poissons Ratio (z) = 0.16406 0.25062
#
# Static dielectric constant tensor:
#      x y z
#    x 1.871820 0.000000 0.067330 
#    y 0.000000 1.317750 0.000000 
#    z 0.067330 0.000000 1.860480 
# 
# From -- ./inp_files/175643.got.cif
#   From: 2010.05.17/outbox.cif.g08.bks.cpg/sg15_88_cif.got.tgz:175643.got - 2010.06.03 18:47:42.
