data_PCOD9307134
_publ_section_title
;
Structure prediction by ZEFSAII (Michael W. Deem and Ramdas Pophale) SiO2 
 PCOD9307134
Probable space group: C 2/C
;
_chemical_formula_sum "Si O2"
_cell_formula_units_Z 36
_cell_length_a 16.262324
_cell_length_b 22.325291
_cell_length_c 10.912407
_cell_angle_alpha 90.000000
_cell_angle_beta 159.361778
_cell_angle_gamma 90.000000
_cell_volume 1396.424764
_symmetry_space_group_name_H-M "C 2/C"
_symmetry_group_IT_number 15
_symmetry_cell_setting 'monoclinic'
loop_
_space_group_symop_operation_xyz
x,y,z
-x,y,1/2-z
-x,-y,-z
x,-y,1/2+z
1/2+x,1/2+y,z
1/2-x,1/2+y,1/2-z
1/2-x,1/2-y,-z
1/2+x,1/2-y,1/2+z
loop_
_atom_site_type_symbol
_atom_site_label
_atom_site_fract_x
_atom_site_fract_y
_atom_site_fract_z
Si Si1 0.500000 0.047788 0.750000
Si Si2 0.688003 0.453935 0.408274
Si Si3 0.568520 0.342315 0.073600
Si Si4 0.781295 0.213819 0.357172
Si Si5 0.575177 0.887466 0.100523
O O1 0.545996 0.086656 0.694588
O O2 0.268678 0.006078 0.428925
O O3 0.500000 0.471281 0.250000
O O4 0.598926 0.395635 0.213219
O O5 0.928354 0.432985 0.810073
O O6 0.730426 0.283380 0.305650
O O7 0.331511 0.309777 0.788388
O O8 0.665534 0.374269 0.086783
O O9 0.566337 0.174408 0.101621
O O10 0.000000 0.199972 0.750000
#
# Coordination Sequence:
#
# PCOD9307134 Si02
#       5
#     4   8   8   8   8
#     4  12  30  44  62  88 136 188 210 252 308 388
#     4  12  24  42  69  99 125 162 219 276 320 366
#     4  12  22  38  71 104 127 158 209 280 333 365
#     4  12  22  37  69 106 128 157 208 276 334 374
#     4  12  24  44  63  96 132 169 216 258 321 385
#
# _framework density 25.780121999999999
#
# number of rings (size 3 to 8) (size 9 to 14) (size 15 to 20)
#    0.000    0.000    8.889    2.667    0.000    2.667 
#    0.000    1.111    0.000    0.000    0.000    0.000 
#    0.000    0.000    0.000    0.000    0.000    0.000 
#
# Total GULP energy -100625.240125 kJ/mol
# GULP energy per Si atom -5590.291118 kJ/mol
# Density = 2.572145 g / cm^3
# Si number density = 25.780122 Si / 1000 Ang^3
#
#
#
# Elastic Constant Matrix: (Units=GPa)
#
#
# Indices 1 2 3 4 5 6 
#
# 1 152.9110 44.5665 23.2833 -0.0001 53.5215 0.0000
# 2 44.5665 112.7745 11.3197 -0.0002 9.8600 0.0000
# 3 23.2833 11.3197 37.5520 -0.0027 24.2789 -0.0010
# 4 -0.0001 -0.0002 -0.0027 122.9427 -0.0009 54.4146
# 5 53.5215 9.8600 24.2789 -0.0009 48.6775 -0.0004
# 6 0.0000 0.0000 -0.0010 54.4146 -0.0004 53.9900
#
#
#
# Elastic Compliance Matrix: (Units=1/GPa)
#
#
# Indices 1 2 3 4 5 6 
#
# 1 0.012099 -0.003833 0.002587 0.000000 -0.013817 0.000000
# 2 -0.003833 0.010375 -0.003124 0.000000 0.003671 0.000000
# 3 0.002587 -0.003124 0.040438 0.000001 -0.022380 0.000000
# 4 0.000000 0.000000 0.000001 0.014684 0.000000 -0.014800
# 5 -0.013817 0.003671 -0.022380 0.000000 0.046155 0.000000
# 6 0.000000 0.000000 0.000000 -0.014800 0.000000 0.033438
#
#
# Mechanical properties :
#
#
# Convention : Reuss Voigt Hill
#
# Bulk Modulus (GPa) = 18.46033 51.28628 34.87330
# Shear Modulus (GPa) = 27.17597 60.05991 43.61794
#
# Velocity S-wave (km/s) = 3.25028 4.83193 4.11776
# Velocity P-wave (km/s) = 4.61107 7.14612 6.01369
#
# Compressibility (1/GPa) = 0.05417021
#
# Stress axis : x y z
#
# Youngs Moduli (GPa) = 82.64979 96.38907 24.72952
#
# Poissons Ratio (x) = 0.36946 -0.06397
# Poissons Ratio (y) = 0.31680 0.07727
# Poissons Ratio (z) = -0.21381 0.30116
#
# Static dielectric constant tensor:
#      x y z
#    x 2.085180 0.000000 -0.009680 
#    y 0.000000 2.014570 0.000000 
#    z -0.009680 0.000000 2.054000 
# 
# From -- ./inp_files/99639.got.cif
#   From: 2010.05.17/outbox.cif.g08.bks.cpg/sg15_50_cif.got.tgz:99639.got - 2010.06.03 18:47:42.
