data_PCOD9307391
_publ_section_title
;
Structure prediction by ZEFSAII (Michael W. Deem and Ramdas Pophale) SiO2 
 PCOD9307391
Probable space group: C 2/C
;
_chemical_formula_sum "Si O2"
_cell_formula_units_Z 40
_cell_length_a 10.422160
_cell_length_b 17.030200
_cell_length_c 10.955503
_cell_angle_alpha 90.000000
_cell_angle_beta 105.459271
_cell_angle_gamma 90.000000
_cell_volume 1874.156358
_symmetry_space_group_name_H-M "C 2/C"
_symmetry_group_IT_number 15
_symmetry_cell_setting 'monoclinic'
loop_
_space_group_symop_operation_xyz
x,y,z
-x,y,1/2-z
-x,-y,-z
x,-y,1/2+z
1/2+x,1/2+y,z
1/2-x,1/2+y,1/2-z
1/2-x,1/2-y,-z
1/2+x,1/2-y,1/2+z
loop_
_atom_site_type_symbol
_atom_site_label
_atom_site_fract_x
_atom_site_fract_y
_atom_site_fract_z
Si Si1 0.500000 0.693745 0.750000
Si Si2 0.152576 0.912964 0.750908
Si Si3 0.716643 0.843054 0.485202
Si Si4 0.932083 0.938469 0.391923
Si Si5 0.000000 0.306529 0.250000
Si Si6 0.730796 0.273991 0.637260
O O1 0.476147 0.630620 0.636755
O O2 0.369913 0.746194 0.732751
O O3 0.199811 0.866176 0.643629
O O4 0.000000 0.889953 0.750000
O O5 0.139199 0.005672 0.726039
O O6 0.257481 0.883481 0.878054
O O7 0.750000 0.750000 0.500000
O O8 0.822931 0.888608 0.432321
O O9 0.580170 0.851092 0.376578
O O10 0.000000 0.000000 0.500000
O O11 0.112970 0.262346 0.194412
O O12 0.750000 0.250000 0.500000
#
# Coordination Sequence:
#
# PCOD9307391 Si02
#       6
#     4   8   8   8   4   8
#     4  12  24  43  67 112 132 190 258 308 350 459
#     4  12  23  44  73 109 148 204 246 320 388 446
#     4  12  24  45  77 107 150 208 257 308 389 467
#     4  12  23  42  74 110 146 189 258 316 372 451
#     4  12  26  47  73 106 150 208 248 322 390 447
#     4  12  27  42  73 108 151 189 259 308 380 455
#
# _framework density 21.342938
#
# number of rings (size 3 to 8) (size 9 to 14) (size 15 to 20)
#    0.000    0.000    8.000    1.200    5.600    0.000 
#    0.000    2.000    0.000    0.000    0.000    0.000 
#    0.000    0.000    0.000    0.000    0.000    0.000 
#
# Total GULP energy -111464.047187 kJ/mol
# GULP energy per Si atom -5573.202359 kJ/mol
# Density = 2.129436 g / cm^3
# Si number density = 21.342938 Si / 1000 Ang^3
#
#
#
# Elastic Constant Matrix: (Units=GPa)
#
#
# Indices 1 2 3 4 5 6 
#
# 1 117.6622 55.0686 29.5072 0.0000 -7.4350 0.0000
# 2 55.0686 113.4300 21.7360 0.0000 -1.5837 0.0000
# 3 29.5072 21.7360 116.8899 0.0000 12.5114 0.0000
# 4 0.0000 0.0000 0.0000 43.4234 0.0000 -12.0220
# 5 -7.4350 -1.5837 12.5114 0.0000 42.5255 0.0000
# 6 0.0000 0.0000 0.0000 -12.0220 0.0000 41.0480
#
#
#
# Elastic Compliance Matrix: (Units=1/GPa)
#
#
# Indices 1 2 3 4 5 6 
#
# 1 0.011649 -0.005191 -0.002243 0.000000 0.002503 0.000000
# 2 -0.005191 0.011486 -0.000799 0.000000 -0.000245 0.000000
# 3 -0.002243 -0.000799 0.009618 0.000000 -0.003252 0.000000
# 4 0.000000 0.000000 0.000000 0.025061 0.000000 0.007340
# 5 0.002503 -0.000245 -0.003252 0.000000 0.024901 0.000000
# 6 0.000000 0.000000 0.000000 0.007340 0.000000 0.026511
#
#
# Mechanical properties :
#
#
# Convention : Reuss Voigt Hill
#
# Bulk Modulus (GPa) = 61.40169 62.28952 61.84560
# Shear Modulus (GPa) = 38.13267 41.51073 39.82170
#
# Velocity S-wave (km/s) = 4.23148 4.41493 4.32418
# Velocity P-wave (km/s) = 7.25985 7.43218 7.34652
#
# Compressibility (1/GPa) = 0.01628620
#
# Stress axis : x y z
#
# Youngs Moduli (GPa) = 85.84431 87.06470 103.97116
#
# Poissons Ratio (x) = 0.45192 0.23325
# Poissons Ratio (y) = 0.44558 0.08311
# Poissons Ratio (z) = 0.19258 0.06959
#
# Static dielectric constant tensor:
#      x y z
#    x 1.794700 0.000000 -0.134090 
#    y 0.000000 1.822020 0.000000 
#    z -0.134090 0.000000 2.145650 
# 
# From -- ./inp_files/76962.got.cif
#   From: 2010.05.17/outbox.cif.g08.bks.cpg/sg15_39_cif.got.tgz:76962.got - 2010.06.03 18:47:42.
