data_PCOD9307047
_publ_section_title
;
Structure prediction by ZEFSAII (Michael W. Deem and Ramdas Pophale) SiO2 
 PCOD9307047
Probable space group: C 2/C
;
_chemical_formula_sum "Si O2"
_cell_formula_units_Z 40
_cell_length_a 24.521926
_cell_length_b 17.318610
_cell_length_c 9.619274
_cell_angle_alpha 90.000000
_cell_angle_beta 153.609335
_cell_angle_gamma 90.000000
_cell_volume 1815.813146
_symmetry_space_group_name_H-M "C 2/C"
_symmetry_group_IT_number 15
_symmetry_cell_setting 'monoclinic'
loop_
_space_group_symop_operation_xyz
x,y,z
-x,y,1/2-z
-x,-y,-z
x,-y,1/2+z
1/2+x,1/2+y,z
1/2-x,1/2+y,1/2-z
1/2-x,1/2-y,-z
1/2+x,1/2-y,1/2+z
loop_
_atom_site_type_symbol
_atom_site_label
_atom_site_fract_x
_atom_site_fract_y
_atom_site_fract_z
Si Si1 0.500000 0.711176 0.750000
Si Si2 0.784592 0.905074 0.699674
Si Si3 0.125547 0.025149 0.366259
Si Si4 0.512137 0.075562 0.620182
Si Si5 0.500000 0.344764 0.750000
Si Si6 0.887447 0.270799 0.772244
O O1 0.391006 0.659049 0.435250
O O2 0.431405 0.757213 0.715048
O O3 0.787534 0.951456 0.561657
O O4 0.644040 0.882195 0.401574
O O5 0.824649 0.957602 0.922161
O O6 0.098949 0.096758 0.408524
O O7 0.000000 0.000000 0.000000
O O8 0.500000 0.049815 0.750000
O O9 0.411873 0.140397 0.362027
O O10 0.500000 0.000000 0.500000
O O11 0.461804 0.288614 0.538691
O O12 0.750000 0.250000 0.500000
#
# Coordination Sequence:
#
# PCOD9307047 Si02
#       6
#     4   8   8   8   4   8
#     4  12  25  44  77 108 142 190 248 304 363 448
#     4  12  24  43  73 109 148 185 247 301 366 444
#     4  12  21  40  70 111 146 188 238 300 371 440
#     4  12  29  51  72 105 148 197 242 305 376 446
#     4  12  23  44  71 104 146 190 242 308 371 430
#     4  12  29  50  75 106 150 196 250 310 378 441
#
# _framework density 22.028699
#
# number of rings (size 3 to 8) (size 9 to 14) (size 15 to 20)
#    0.000    0.000    7.000    2.400    4.200    2.400 
#    0.000    0.000    0.000    0.000    0.000    0.000 
#    0.000    0.000    0.000    0.000    0.000    0.000 
#
# Total GULP energy -111925.806290 kJ/mol
# GULP energy per Si atom -5596.290314 kJ/mol
# Density = 2.197856 g / cm^3
# Si number density = 22.028699 Si / 1000 Ang^3
#
#
#
# Elastic Constant Matrix: (Units=GPa)
#
#
# Indices 1 2 3 4 5 6 
#
# 1 174.1558 33.9907 43.4502 0.0000 -16.7906 0.0000
# 2 33.9907 111.8361 40.7178 0.0000 -8.8853 0.0000
# 3 43.4502 40.7178 57.5713 0.0000 11.3167 0.0000
# 4 0.0000 0.0000 0.0000 26.0110 0.0000 -0.2095
# 5 -16.7906 -8.8853 11.3167 0.0000 43.2595 0.0000
# 6 0.0000 0.0000 0.0000 -0.2095 0.0000 38.7963
#
#
#
# Elastic Compliance Matrix: (Units=1/GPa)
#
#
# Indices 1 2 3 4 5 6 
#
# 1 0.007997 0.000753 -0.007599 0.000000 0.005246 0.000000
# 2 0.000753 0.013214 -0.011074 0.000000 0.005903 0.000000
# 3 -0.007599 -0.011074 0.033697 0.000000 -0.014039 0.000000
# 4 0.000000 0.000000 0.000000 0.038447 0.000000 0.000208
# 5 0.005246 0.005903 -0.014039 0.000000 0.030038 0.000000
# 6 0.000000 0.000000 0.000000 0.000208 0.000000 0.025777
#
#
# Mechanical properties :
#
#
# Convention : Reuss Voigt Hill
#
# Bulk Modulus (GPa) = 52.44742 64.43121 58.43932
# Shear Modulus (GPa) = 26.12796 36.64033 31.38415
#
# Velocity S-wave (km/s) = 3.44770 4.08278 3.77861
# Velocity P-wave (km/s) = 6.30152 7.17898 6.75451
#
# Compressibility (1/GPa) = 0.01906671
#
# Stress axis : x y z
#
# Youngs Moduli (GPa) = 125.05076 75.67848 29.67606
#
# Poissons Ratio (x) = -0.05699 0.22552
# Poissons Ratio (y) = -0.09418 0.32864
# Poissons Ratio (z) = 0.95029 0.83809
#
# Static dielectric constant tensor:
#      x y z
#    x 1.600610 0.000000 -0.111680 
#    y 0.000000 1.809760 0.000000 
#    z -0.111680 0.000000 1.739040 
# 
# From -- ./inp_files/29133.got.cif
#   From: 2010.05.17/outbox.cif.g08.bks.cpg/sg15_15_cif.got.tgz:29133.got - 2010.06.03 18:47:42.
