data_PCOD9307513
_publ_section_title
;
Structure prediction by ZEFSAII (Michael W. Deem and Ramdas Pophale) SiO2 
 PCOD9307513
Probable space group: C 2/C
;
_chemical_formula_sum "Si O2"
_cell_formula_units_Z 44
_cell_length_a 22.594833
_cell_length_b 5.248676
_cell_length_c 18.922328
_cell_angle_alpha 90.000000
_cell_angle_beta 113.796076
_cell_angle_gamma 90.000000
_cell_volume 2053.281690
_symmetry_space_group_name_H-M "C 2/C"
_symmetry_group_IT_number 15
_symmetry_cell_setting 'monoclinic'
loop_
_space_group_symop_operation_xyz
x,y,z
-x,y,1/2-z
-x,-y,-z
x,-y,1/2+z
1/2+x,1/2+y,z
1/2-x,1/2+y,1/2-z
1/2-x,1/2-y,-z
1/2+x,1/2-y,1/2+z
loop_
_atom_site_type_symbol
_atom_site_label
_atom_site_fract_x
_atom_site_fract_y
_atom_site_fract_z
Si Si1 0.060907 0.701125 0.172097
Si Si2 0.000000 0.655541 0.750000
Si Si3 0.755782 0.498044 0.953783
Si Si4 0.398063 0.961308 0.958937
Si Si5 0.120603 0.969689 0.328798
Si Si6 0.945103 0.052957 0.557657
O O1 0.095185 0.583017 0.121232
O O2 0.107560 0.778230 0.258420
O O3 0.009526 0.516967 0.185505
O O4 0.017762 0.937377 0.123176
O O5 0.066134 0.813958 0.789808
O O6 0.824260 0.499604 0.947345
O O7 0.696009 0.473443 0.870661
O O8 0.750000 0.750000 0.000000
O O9 0.750000 0.250000 0.000000
O O10 0.424694 0.711005 0.012394
O O11 0.437677 0.211450 0.000712
O O12 0.101691 0.884196 0.398847
#
# Coordination Sequence:
#
# PCOD9307513 Si02
#       6
#     8   4   8   8   8   8
#     4  12  27  44  73 111 146 190 241 310 368 427
#     4  12  24  46  72 102 152 180 242 292 376 424
#     4  12  26  49  75 102 143 193 243 291 358 438
#     4  12  27  47  74 110 144 189 244 302 355 435
#     4  12  25  44  76 101 144 195 241 292 366 436
#     4  12  23  47  75 107 145 187 239 297 366 431
#
# _framework density 21.429112
#
# number of rings (size 3 to 8) (size 9 to 14) (size 15 to 20)
#    0.000    0.000    7.273    2.182    5.091    0.000 
#    3.273    0.000    0.000    0.000    0.000    0.000 
#    0.000    0.000    0.000    0.000    0.000    0.000 
#
# Total GULP energy -123116.910282 kJ/mol
# GULP energy per Si atom -5596.223195 kJ/mol
# Density = 2.138034 g / cm^3
# Si number density = 21.429112 Si / 1000 Ang^3
#
#
#
# Elastic Constant Matrix: (Units=GPa)
#
#
# Indices 1 2 3 4 5 6 
#
# 1 128.2790 34.2580 57.3892 0.0000 -8.5544 0.0000
# 2 34.2580 126.3602 61.4391 0.0000 1.8813 0.0000
# 3 57.3892 61.4391 131.3989 0.0000 -8.1530 0.0000
# 4 0.0000 0.0000 0.0000 33.5455 0.0000 -3.5309
# 5 -8.5544 1.8813 -8.1530 0.0000 58.4734 0.0000
# 6 0.0000 0.0000 0.0000 -3.5309 0.0000 19.5147
#
#
#
# Elastic Compliance Matrix: (Units=1/GPa)
#
#
# Indices 1 2 3 4 5 6 
#
# 1 0.009791 -0.000798 -0.003846 0.000000 0.000922 0.000000
# 2 -0.000798 0.010367 -0.004566 0.000000 -0.001087 0.000000
# 3 -0.003846 -0.004566 0.011499 0.000000 0.001188 0.000000
# 4 0.000000 0.000000 0.000000 0.030389 0.000000 0.005498
# 5 0.000922 -0.001087 0.001188 0.000000 0.017437 0.000000
# 6 0.000000 0.000000 0.000000 0.005498 0.000000 0.052238
#
#
# Mechanical properties :
#
#
# Convention : Reuss Voigt Hill
#
# Bulk Modulus (GPa) = 75.55114 76.91231 76.23172
# Shear Modulus (GPa) = 32.35156 37.83684 35.09420
#
# Velocity S-wave (km/s) = 3.88970 4.20655 4.05123
# Velocity P-wave (km/s) = 7.45023 7.71770 7.58514
#
# Compressibility (1/GPa) = 0.01323607
#
# Stress axis : x y z
#
# Youngs Moduli (GPa) = 102.13847 96.46409 86.96666
#
# Poissons Ratio (x) = 0.07700 0.33445
# Poissons Ratio (y) = 0.08153 0.39709
# Poissons Ratio (z) = 0.39279 0.44045
#
# Static dielectric constant tensor:
#      x y z
#    x 1.762640 0.000000 0.000830 
#    y 0.000000 1.831430 0.000000 
#    z 0.000830 0.000000 1.801550 
# 
# From -- ./inp_files/212820.got.cif
#   From: 2010.05.17/outbox.cif.g08.bks.cpg/sg15_107_cif.got.tgz:212820.got - 2010.06.03 18:47:42.
