data_PCOD9307952
_publ_section_title
;
Structure prediction by ZEFSAII (Michael W. Deem and Ramdas Pophale) SiO2 
 PCOD9307952
Probable space group: C 2/C
;
_chemical_formula_sum "Si O2"
_cell_formula_units_Z 36
_cell_length_a 5.341001
_cell_length_b 24.048712
_cell_length_c 12.023579
_cell_angle_alpha 90.000000
_cell_angle_beta 103.503025
_cell_angle_gamma 90.000000
_cell_volume 1501.669127
_symmetry_space_group_name_H-M "C 2/C"
_symmetry_group_IT_number 15
_symmetry_cell_setting 'monoclinic'
loop_
_space_group_symop_operation_xyz
x,y,z
-x,y,1/2-z
-x,-y,-z
x,-y,1/2+z
1/2+x,1/2+y,z
1/2-x,1/2+y,1/2-z
1/2-x,1/2-y,-z
1/2+x,1/2-y,1/2+z
loop_
_atom_site_type_symbol
_atom_site_label
_atom_site_fract_x
_atom_site_fract_y
_atom_site_fract_z
Si Si1 0.267789 0.115421 0.641480
Si Si2 0.495971 0.713539 0.492697
Si Si3 0.500000 0.893326 0.750000
Si Si4 0.904642 0.554521 0.433188
Si Si5 0.500000 0.515392 0.750000
Si Si6 0.500000 0.665885 0.250000
O O1 0.500000 0.132896 0.750000
O O2 0.067119 0.165275 0.590433
O O3 0.365226 0.097752 0.529024
O O4 0.147666 0.059675 0.684847
O O5 0.750000 0.750000 0.500000
O O6 0.442567 0.692968 0.362330
O O7 0.250000 0.750000 0.500000
O O8 0.382105 0.926944 0.635406
O O9 0.273827 0.864085 0.793667
O O10 0.673743 0.527201 0.337973
O O11 0.000000 0.500000 0.500000
#
# Coordination Sequence:
#
# PCOD9307952 Si02
#       6
#     8   8   4   8   4   4
#     4  12  28  50  80 121 166 221 277 355 425 504
#     4  12  31  54  85 117 159 213 286 352 423 501
#     4  12  26  48  77 111 162 212 268 328 402 490
#     4  12  25  46  75 122 167 220 280 327 418 505
#     4  12  27  46  83 114 172 227 274 345 418 520
#     4  12  27  52  82 113 148 215 262 349 416 484
#
# _framework density 23.973326
#
# number of rings (size 3 to 8) (size 9 to 14) (size 15 to 20)
#    0.000    0.000    4.444    4.000    7.778    0.000 
#    0.000    0.000    0.000    0.000    0.000    0.000 
#    0.000    0.000    0.000    0.000    0.000    0.000 
#
# Total GULP energy -100466.292537 kJ/mol
# GULP energy per Si atom -5581.460696 kJ/mol
# Density = 2.391876 g / cm^3
# Si number density = 23.973326 Si / 1000 Ang^3
#
#
#
# Elastic Constant Matrix: (Units=GPa)
#
#
# Indices 1 2 3 4 5 6 
#
# 1 119.9021 55.6276 67.9217 0.0000 -17.4458 0.0000
# 2 55.6276 95.6729 57.0995 0.0000 2.2116 0.0000
# 3 67.9217 57.0995 216.3836 0.0000 -3.0508 0.0000
# 4 0.0000 0.0000 0.0000 1.0682 0.0000 -19.9827
# 5 -17.4458 2.2116 -3.0508 0.0000 56.5793 0.0000
# 6 0.0000 0.0000 0.0000 -19.9827 0.0000 51.8410
#
#
#
# Elastic Compliance Matrix: (Units=1/GPa)
#
#
# Indices 1 2 3 4 5 6 
#
# 1 0.013286 -0.006372 -0.002429 0.000000 0.004215 0.000000
# 2 -0.006372 0.015487 -0.002124 0.000000 -0.002685 0.000000
# 3 -0.002429 -0.002124 0.005940 0.000000 -0.000346 0.000000
# 4 0.000000 0.000000 0.000000 -0.150730 0.000000 -0.058100
# 5 0.004215 -0.002685 -0.000346 0.000000 0.019060 0.000000
# 6 0.000000 0.000000 0.000000 -0.058100 0.000000 -0.003106
#
#
# Mechanical properties :
#
#
# Convention : Reuss Voigt Hill
#
# Bulk Modulus (GPa) = 77.75697 88.13958 82.94828
# Shear Modulus (GPa) = -67.63832 38.65168 -14.49332
#
# Velocity S-wave (km/s) = -5.31745 4.01968 -2.46145
# Velocity P-wave (km/s) = 2.27928 7.64128 5.15723
#
# Compressibility (1/GPa) = 0.01286058
#
# Stress axis : x y z
#
# Youngs Moduli (GPa) = 75.26693 64.56858 168.35816
#
# Poissons Ratio (x) = 0.41146 0.40901
# Poissons Ratio (y) = 0.47964 0.35766
# Poissons Ratio (z) = 0.18286 0.13717
#
# Static dielectric constant tensor:
#      x y z
#    x 1.973290 0.000000 -0.468510 
#    y 0.000000 2.286020 0.000000 
#    z -0.468510 0.000000 0.028030 
# 
# From -- ./inp_files/72736.got.cif
#   From: 2010.05.17/outbox.cif.g08.bks.cpg/sg15_37_cif.got.tgz:72736.got - 2010.06.03 18:47:42.
