data_PCOD9307011
_publ_section_title
;
Structure prediction by ZEFSAII (Michael W. Deem and Ramdas Pophale) SiO2 
 PCOD9307011
Probable space group: C 2/C
;
_chemical_formula_sum "Si O2"
_cell_formula_units_Z 48
_cell_length_a 22.165974
_cell_length_b 13.065581
_cell_length_c 20.277787
_cell_angle_alpha 90.000000
_cell_angle_beta 159.470267
_cell_angle_gamma 90.000000
_cell_volume 2059.509063
_symmetry_space_group_name_H-M "C 2/C"
_symmetry_group_IT_number 15
_symmetry_cell_setting 'monoclinic'
loop_
_space_group_symop_operation_xyz
x,y,z
-x,y,1/2-z
-x,-y,-z
x,-y,1/2+z
1/2+x,1/2+y,z
1/2-x,1/2+y,1/2-z
1/2-x,1/2-y,-z
1/2+x,1/2-y,1/2+z
loop_
_atom_site_type_symbol
_atom_site_label
_atom_site_fract_x
_atom_site_fract_y
_atom_site_fract_z
Si Si1 0.739879 0.352781 0.884540
Si Si2 0.831077 0.934560 0.340779
Si Si3 0.464074 0.022188 0.288102
Si Si4 0.402088 0.191610 0.976600
Si Si5 0.647261 0.372600 0.991452
Si Si6 0.212098 0.357874 0.720220
O O1 0.557670 0.386434 0.730099
O O2 0.722351 0.343602 0.786955
O O3 0.793184 0.241575 0.967228
O O4 0.891161 0.435869 0.047701
O O5 0.770204 0.871436 0.216047
O O6 0.842259 0.871537 0.418205
O O7 0.693041 0.022444 0.212807
O O8 0.000000 0.000000 0.500000
O O9 0.500000 0.052660 0.250000
O O10 0.499250 0.125445 0.367286
O O11 0.280185 0.962131 0.105720
O O12 0.332904 0.307381 0.900669
O O13 0.523622 0.186566 0.037045
#
# Coordination Sequence:
#
# PCOD9307011 Si02
#       6
#     8   8   8   8   8   8
#     4  12  23  41  70 108 137 167 225 280 355 421
#     4  12  21  36  66 103 138 169 213 280 357 409
#     4  12  28  48  67  93 139 193 235 275 325 402
#     4  12  24  41  67 101 142 175 226 278 343 409
#     4  12  23  41  69 101 136 176 218 289 350 404
#     4  12  22  37  68 102 136 171 209 287 350 402
#
# _framework density 23.306524
#
# number of rings (size 3 to 8) (size 9 to 14) (size 15 to 20)
#    0.000    0.000    8.333    3.500    0.000    1.333 
#    0.000    0.833    0.000    0.000    0.000    0.000 
#    0.000    0.000    0.000    0.000    0.000    0.000 
#
# Total GULP energy -133964.520110 kJ/mol
# GULP energy per Si atom -5581.855005 kJ/mol
# Density = 2.325348 g / cm^3
# Si number density = 23.306524 Si / 1000 Ang^3
#
#
#
# Elastic Constant Matrix: (Units=GPa)
#
#
# Indices 1 2 3 4 5 6 
#
# 1 107.3812 12.6971 33.5024 0.0032 6.5137 0.0009
# 2 12.6971 89.1329 19.9265 0.0095 -3.0451 0.0044
# 3 33.5024 19.9265 95.4446 0.0078 41.3548 0.0044
# 4 0.0032 0.0095 0.0078 35.1910 0.0049 11.3508
# 5 6.5137 -3.0451 41.3548 0.0049 34.7496 0.0019
# 6 0.0009 0.0044 0.0044 11.3508 0.0019 18.7580
#
#
#
# Elastic Compliance Matrix: (Units=1/GPa)
#
#
# Indices 1 2 3 4 5 6 
#
# 1 0.010891 -0.000021 -0.006056 -0.000001 0.005164 0.000001
# 2 -0.000021 0.013009 -0.006615 -0.000003 0.009017 0.000000
# 3 -0.006056 -0.006615 0.028375 0.000002 -0.033213 -0.000002
# 4 -0.000001 -0.000003 0.000002 0.035308 -0.000006 -0.021365
# 5 0.005164 0.009017 -0.033213 -0.000006 0.068125 0.000002
# 6 0.000001 0.000000 -0.000002 -0.021365 0.000002 0.066239
#
#
# Mechanical properties :
#
#
# Convention : Reuss Voigt Hill
#
# Bulk Modulus (GPa) = 37.18829 47.13453 42.16141
# Shear Modulus (GPa) = 19.50876 32.79526 26.15201
#
# Velocity S-wave (km/s) = 2.89632 3.75524 3.35339
# Velocity P-wave (km/s) = 5.21303 6.25061 5.75525
#
# Compressibility (1/GPa) = 0.02689019
#
# Stress axis : x y z
#
# Youngs Moduli (GPa) = 91.81641 76.86861 35.24270
#
# Poissons Ratio (x) = 0.00163 0.21342
# Poissons Ratio (y) = 0.00195 0.23315
# Poissons Ratio (z) = 0.55603 0.50852
#
# Static dielectric constant tensor:
#      x y z
#    x 1.880400 0.000000 -0.001580 
#    y 0.000000 1.971420 -0.000010 
#    z -0.001580 -0.000010 1.973650 
# 
# From -- ./inp_files/255720.got.cif
#   From: 2010.05.17/outbox.cif.g08.bks.cpg/sg15_128_cif.got.tgz:255720.got - 2010.06.03 18:47:42.
