data_PCOD9307204
_publ_section_title
;
Structure prediction by ZEFSAII (Michael W. Deem and Ramdas Pophale) SiO2 
 PCOD9307204
Probable space group: C 2/C
;
_chemical_formula_sum "Si O2"
_cell_formula_units_Z 40
_cell_length_a 28.031739
_cell_length_b 5.040663
_cell_length_c 13.760292
_cell_angle_alpha 90.000000
_cell_angle_beta 55.100400
_cell_angle_gamma 90.000000
_cell_volume 1594.636687
_symmetry_space_group_name_H-M "C 2/C"
_symmetry_group_IT_number 15
_symmetry_cell_setting 'monoclinic'
loop_
_space_group_symop_operation_xyz
x,y,z
-x,y,1/2-z
-x,-y,-z
x,-y,1/2+z
1/2+x,1/2+y,z
1/2-x,1/2+y,1/2-z
1/2-x,1/2-y,-z
1/2+x,1/2-y,1/2+z
loop_
_atom_site_type_symbol
_atom_site_label
_atom_site_fract_x
_atom_site_fract_y
_atom_site_fract_z
Si Si1 0.362285 0.323217 0.256342
Si Si2 0.668307 0.162386 0.587199
Si Si3 0.284898 0.280708 0.171028
Si Si4 0.500253 0.688368 0.906612
Si Si5 0.951754 0.327603 0.382641
O O1 0.344907 0.607036 0.320235
O O2 0.345343 0.304043 0.162007
O O3 0.430958 0.276914 0.193670
O O4 0.325511 0.108437 0.360585
O O5 0.711678 0.241665 0.449298
O O6 0.610109 0.127215 0.591109
O O7 0.249134 0.537465 0.242406
O O8 0.465363 0.964745 0.953003
O O9 0.464258 0.484528 0.880119
O O10 0.500000 0.500000 0.000000
O O11 0.000000 0.424917 0.250000
#
# Coordination Sequence:
#
# PCOD9307204 Si02
#       5
#     8   8   8   8   8
#     4  12  25  46  72 105 139 185 239 280 352 425
#     4  12  26  45  76 103 142 188 229 288 350 419
#     4  12  29  50  71 102 137 179 243 306 352 405
#     4  12  24  40  67 103 145 185 226 277 335 419
#     4  12  22  42  67 101 145 177 222 271 338 416
#
# _framework density 25.084081000000001
#
# number of rings (size 3 to 8) (size 9 to 14) (size 15 to 20)
#    0.000    0.000    4.000    6.000    0.000    8.000 
#    0.000    0.000    0.000    0.000    0.000    0.000 
#    0.000    0.000    0.000    0.000    0.000    0.000 
#
# Total GULP energy -111955.700893 kJ/mol
# GULP energy per Si atom -5597.785045 kJ/mol
# Density = 2.502699 g / cm^3
# Si number density = 25.084081 Si / 1000 Ang^3
#
#
#
# Elastic Constant Matrix: (Units=GPa)
#
#
# Indices 1 2 3 4 5 6 
#
# 1 96.0179 8.6113 -19.7853 0.0008 6.2581 0.0050
# 2 8.6113 150.3331 2.1322 0.0012 -3.1786 0.0108
# 3 -19.7853 2.1322 80.2390 -0.0023 14.4305 -0.0038
# 4 0.0008 0.0012 -0.0023 39.6531 -0.0008 5.6844
# 5 6.2581 -3.1786 14.4305 -0.0008 48.4908 -0.0006
# 6 0.0050 0.0108 -0.0038 5.6844 -0.0006 38.9239
#
#
#
# Elastic Compliance Matrix: (Units=1/GPa)
#
#
# Indices 1 2 3 4 5 6 
#
# 1 0.011314 -0.000747 0.003255 0.000000 -0.002478 -0.000001
# 2 -0.000747 0.006716 -0.000485 0.000000 0.000681 -0.000002
# 3 0.003255 -0.000485 0.014115 0.000001 -0.004652 0.000001
# 4 0.000000 0.000000 0.000001 0.025758 0.000000 -0.003762
# 5 -0.002478 0.000681 -0.004652 0.000000 0.022371 0.000000
# 6 -0.000001 -0.000002 0.000001 -0.003762 0.000000 0.026241
#
#
# Mechanical properties :
#
#
# Convention : Reuss Voigt Hill
#
# Bulk Modulus (GPa) = 27.63033 34.27850 30.95442
# Shear Modulus (GPa) = 43.65601 47.78900 45.72251
#
# Velocity S-wave (km/s) = 4.17632 4.36954 4.27402
# Velocity P-wave (km/s) = 5.85615 6.25718 6.05998
#
# Compressibility (1/GPa) = 0.03619211
#
# Stress axis : x y z
#
# Youngs Moduli (GPa) = 88.38638 148.89952 70.84641
#
# Poissons Ratio (x) = 0.11117 -0.23062
# Poissons Ratio (y) = 0.06599 0.03436
# Poissons Ratio (z) = -0.28772 0.07222
#
# Static dielectric constant tensor:
#      x y z
#    x 2.082540 -0.000010 0.066230 
#    y -0.000010 1.910240 0.000000 
#    z 0.066230 0.000000 2.098210 
# 
# From -- ./inp_files/179429.got.cif
#   From: 2010.05.17/outbox.cif.g08.bks.cpg/sg15_90_cif.got.tgz:179429.got - 2010.06.03 18:47:42.
