data_PCOD9307580
_publ_section_title
;
Structure prediction by ZEFSAII (Michael W. Deem and Ramdas Pophale) SiO2 
 PCOD9307580
Probable space group: C 2/C
;
_chemical_formula_sum "Si O2"
_cell_formula_units_Z 32
_cell_length_a 13.818870
_cell_length_b 12.084645
_cell_length_c 6.745067
_cell_angle_alpha 90.000000
_cell_angle_beta 93.597726
_cell_angle_gamma 90.000000
_cell_volume 1124.180254
_symmetry_space_group_name_H-M "C 2/C"
_symmetry_group_IT_number 15
_symmetry_cell_setting 'monoclinic'
loop_
_space_group_symop_operation_xyz
x,y,z
-x,y,1/2-z
-x,-y,-z
x,-y,1/2+z
1/2+x,1/2+y,z
1/2-x,1/2+y,1/2-z
1/2-x,1/2-y,-z
1/2+x,1/2-y,1/2+z
loop_
_atom_site_type_symbol
_atom_site_label
_atom_site_fract_x
_atom_site_fract_y
_atom_site_fract_z
Si Si1 0.919036 0.878745 0.865449
Si Si2 0.763318 0.865581 0.119185
Si Si3 0.077158 0.517466 0.132363
Si Si4 0.399182 0.729128 0.960785
O O1 0.878332 0.796802 0.689943
O O2 0.000000 0.947683 0.750000
O O3 0.834384 0.932539 0.977517
O O4 0.012751 0.807612 0.477555
O O5 0.825896 0.839198 0.319912
O O6 0.667290 0.932624 0.148607
O O7 0.750000 0.750000 0.000000
O O8 0.049018 0.509251 0.379968
O O9 0.107337 0.645295 0.108273
#
# Coordination Sequence:
#
# PCOD9307580 Si02
#       4
#     8   8   8   8
#     4   8  21  43  79 106 152 202 250 317 391 459
#     4  12  24  42  71 116 161 204 254 317 397 465
#     4  12  27  46  75 116 161 202 258 328 382 460
#     4   9  22  47  75 111 160 193 264 320 394 464
#
# _framework density 28.465187
#
# number of rings (size 3 to 8) (size 9 to 14) (size 15 to 20)
#    1.500    0.000    0.000    5.250    7.000    1.000 
#    4.500    0.000    0.000    3.000    0.000   24.500 
#    7.500    0.000    0.000    0.000    0.000    0.000 
#
# Total GULP energy -89678.261177 kJ/mol
# GULP energy per Si atom -5604.891324 kJ/mol
# Density = 2.840040 g / cm^3
# Si number density = 28.465187 Si / 1000 Ang^3
#
#
#
# Elastic Constant Matrix: (Units=GPa)
#
#
# Indices 1 2 3 4 5 6 
#
# 1 238.7494 107.6206 154.0831 0.0000 -12.8709 0.0000
# 2 107.6206 205.4548 102.1627 0.0000 12.5625 0.0000
# 3 154.0831 102.1627 256.5696 0.0000 17.9523 0.0000
# 4 0.0000 0.0000 0.0000 11.1981 0.0000 8.6339
# 5 -12.8709 12.5625 17.9523 0.0000 80.5855 0.0000
# 6 0.0000 0.0000 0.0000 8.6339 0.0000 42.5167
#
#
#
# Elastic Compliance Matrix: (Units=1/GPa)
#
#
# Indices 1 2 3 4 5 6 
#
# 1 0.007986 -0.002326 -0.004048 0.000000 0.002540 0.000000
# 2 -0.002326 0.006760 -0.001214 0.000000 -0.001155 0.000000
# 3 -0.004048 -0.001214 0.006952 0.000000 -0.002006 0.000000
# 4 0.000000 0.000000 0.000000 0.105878 0.000000 -0.021501
# 5 0.002540 -0.001155 -0.002006 0.000000 0.013442 0.000000
# 6 0.000000 0.000000 0.000000 -0.021501 0.000000 0.027886
#
#
# Mechanical properties :
#
#
# Convention : Reuss Voigt Hill
#
# Bulk Modulus (GPa) = 153.30414 158.72296 156.01355
# Shear Modulus (GPa) = 26.84507 49.32056 38.08282
#
# Velocity S-wave (km/s) = 3.07430 4.16704 3.66166
# Velocity P-wave (km/s) = 8.15937 8.89009 8.53256
#
# Compressibility (1/GPa) = 0.00652298
#
# Stress axis : x y z
#
# Youngs Moduli (GPa) = 125.21806 147.93131 143.83953
#
# Poissons Ratio (x) = 0.34406 0.58221
# Poissons Ratio (y) = 0.29124 0.17464
# Poissons Ratio (z) = 0.50684 0.17961
#
# Static dielectric constant tensor:
#      x y z
#    x 2.231460 0.000000 -0.062220 
#    y 0.000000 2.110800 0.000000 
#    z -0.062220 0.000000 2.335400 
# 
# From -- ./inp_files/12494.got.cif
#   From: 2010.05.17/outbox.cif.g08.bks.cpg/sg15_7_cif.got.tgz:12494.got - 2010.06.03 18:47:42.
