data_PCOD9307027
_publ_section_title
;
Structure prediction by ZEFSAII (Michael W. Deem and Ramdas Pophale) SiO2 
 PCOD9307027
Probable space group: C 2/C
;
_chemical_formula_sum "Si O2"
_cell_formula_units_Z 56
_cell_length_a 30.118120
_cell_length_b 10.237876
_cell_length_c 9.012304
_cell_angle_alpha 90.000000
_cell_angle_beta 114.486128
_cell_angle_gamma 90.000000
_cell_volume 2528.974027
_symmetry_space_group_name_H-M "C 2/C"
_symmetry_group_IT_number 15
_symmetry_cell_setting 'monoclinic'
loop_
_space_group_symop_operation_xyz
x,y,z
-x,y,1/2-z
-x,-y,-z
x,-y,1/2+z
1/2+x,1/2+y,z
1/2-x,1/2+y,1/2-z
1/2-x,1/2-y,-z
1/2+x,1/2-y,1/2+z
loop_
_atom_site_type_symbol
_atom_site_label
_atom_site_fract_x
_atom_site_fract_y
_atom_site_fract_z
Si Si1 0.816370 0.937666 0.676062
Si Si2 0.897304 0.715196 0.313958
Si Si3 0.330855 0.997471 0.651137
Si Si4 0.770457 0.376636 0.337715
Si Si5 0.967938 0.091460 0.063502
Si Si6 0.618631 0.398417 0.459830
Si Si7 0.191247 0.734104 0.090490
O O1 0.799675 0.834125 0.530936
O O2 0.773065 0.023040 0.683044
O O3 0.850644 0.029423 0.624458
O O4 0.847963 0.874021 0.850957
O O5 0.882152 0.562667 0.275896
O O6 0.944656 0.779539 0.456237
O O7 0.899436 0.770623 0.149613
O O8 0.852468 0.767244 0.356643
O O9 0.303076 0.876167 0.531067
O O10 0.301277 0.061798 0.745337
O O11 0.328157 0.105827 0.519481
O O12 0.742403 0.244950 0.249928
O O13 0.000000 0.127550 0.250000
O O14 0.924120 0.996455 0.053546
O O15 0.000000 0.000000 0.000000
#
# Coordination Sequence:
#
# PCOD9307027 Si02
#       7
#     8   8   8   8   8   8   8
#     4  12  21  38  67 102 145 190 238 298 341 399
#     4  12  26  45  68 102 147 187 230 298 370 425
#     4  12  28  43  60  99 143 208 246 287 348 413
#     4  12  23  41  65  99 142 198 260 294 329 393
#     4  12  23  43  77 118 138 162 220 301 376 445
#     4  12  21  40  67 109 145 174 222 295 369 419
#     4  12  25  44  66  97 147 201 247 297 340 412
#
# _framework density 22.143367000000001
#
# number of rings (size 3 to 8) (size 9 to 14) (size 15 to 20)
#    0.000    0.000   10.000    0.429    2.000    0.571 
#    0.000    0.000    0.000    0.857    0.000    0.000 
#    0.000    0.000    0.000    0.000    0.000    0.000 
#
# Total GULP energy -156500.591190 kJ/mol
# GULP energy per Si atom -5589.306828 kJ/mol
# Density = 2.209297 g / cm^3
# Si number density = 22.143367 Si / 1000 Ang^3
#
#
#
# Elastic Constant Matrix: (Units=GPa)
#
#
# Indices 1 2 3 4 5 6 
#
# 1 64.6139 32.9400 30.0773 0.0000 2.5654 0.0000
# 2 32.9400 89.5481 26.1397 0.0000 3.1097 0.0000
# 3 30.0773 26.1397 130.7673 0.0000 1.8073 0.0000
# 4 0.0000 0.0000 0.0000 52.7871 0.0000 3.9188
# 5 2.5654 3.1097 1.8073 0.0000 40.3745 0.0000
# 6 0.0000 0.0000 0.0000 3.9188 0.0000 31.4649
#
#
#
# Elastic Compliance Matrix: (Units=1/GPa)
#
#
# Indices 1 2 3 4 5 6 
#
# 1 0.020385 -0.006489 -0.003383 0.000000 -0.000644 0.000000
# 2 -0.006489 0.013951 -0.001288 0.000000 -0.000605 0.000000
# 3 -0.003383 -0.001288 0.008684 0.000000 -0.000075 0.000000
# 4 0.000000 0.000000 0.000000 0.019121 0.000000 -0.002381
# 5 -0.000644 -0.000605 -0.000075 0.000000 0.024859 0.000000
# 6 0.000000 0.000000 0.000000 -0.002381 0.000000 0.032078
#
#
# Mechanical properties :
#
#
# Convention : Reuss Voigt Hill
#
# Bulk Modulus (GPa) = 48.30727 51.47148 49.88938
# Shear Modulus (GPa) = 33.71639 37.97677 35.84658
#
# Velocity S-wave (km/s) = 3.90634 4.14580 4.02785
# Velocity P-wave (km/s) = 6.49684 6.79794 6.64910
#
# Compressibility (1/GPa) = 0.02070082
#
# Stress axis : x y z
#
# Youngs Moduli (GPa) = 49.05660 71.67963 115.15852
#
# Poissons Ratio (x) = 0.46510 0.38954
# Poissons Ratio (y) = 0.31831 0.14832
# Poissons Ratio (z) = 0.16594 0.09232
#
# Static dielectric constant tensor:
#      x y z
#    x 1.797010 0.000000 0.023950 
#    y 0.000000 1.954110 0.000000 
#    z 0.023950 0.000000 1.842350 
# 
# From -- ./inp_files/69169.got.cif
#   From: 2010.05.17/outbox.cif.g08.bks.cpg/sg15_35_cif.got.tgz:69169.got - 2010.06.03 18:47:42.
