data_PCOD9307341
_publ_section_title
;
Structure prediction by ZEFSAII (Michael W. Deem and Ramdas Pophale) SiO2 
 PCOD9307341
Probable space group: C 2/C
;
_chemical_formula_sum "Si O2"
_cell_formula_units_Z 40
_cell_length_a 5.174629
_cell_length_b 23.381225
_cell_length_c 17.031969
_cell_angle_alpha 90.000000
_cell_angle_beta 70.279789
_cell_angle_gamma 90.000000
_cell_volume 1939.827856
_symmetry_space_group_name_H-M "C 2/C"
_symmetry_group_IT_number 15
_symmetry_cell_setting 'monoclinic'
loop_
_space_group_symop_operation_xyz
x,y,z
-x,y,1/2-z
-x,-y,-z
x,-y,1/2+z
1/2+x,1/2+y,z
1/2-x,1/2+y,1/2-z
1/2-x,1/2-y,-z
1/2+x,1/2-y,1/2+z
loop_
_atom_site_type_symbol
_atom_site_label
_atom_site_fract_x
_atom_site_fract_y
_atom_site_fract_z
Si Si1 0.689737 0.710773 0.082153
Si Si2 0.637200 0.173508 0.655970
Si Si3 0.000000 0.554116 0.250000
Si Si4 0.814119 0.631671 0.414026
Si Si5 0.704563 0.387339 0.096423
Si Si6 0.500000 0.525385 0.750000
O O1 0.591832 0.758975 0.153010
O O2 0.457522 0.664839 0.086062
O O3 0.959021 0.678791 0.085265
O O4 0.750000 0.750000 0.000000
O O5 0.500000 0.151875 0.750000
O O6 0.480421 0.140768 0.602473
O O7 0.958618 0.159185 0.622441
O O8 0.074230 0.592947 0.167496
O O9 0.255268 0.514134 0.244878
O O10 0.750436 0.596988 0.500864
O O11 0.607350 0.436007 0.166531
#
# Coordination Sequence:
#
# PCOD9307341 Si02
#       6
#     8   8   4   8   8   4
#     4  12  23  41  67 101 142 177 213 253 329 406
#     4  12  23  38  65 107 135 174 211 268 326 396
#     4  12  30  48  67  94 137 174 228 278 334 386
#     4  12  26  45  65 101 137 179 215 268 326 403
#     4  12  23  43  72  97 132 167 227 278 329 380
#     4  12  26  48  71  94 121 176 230 296 328 376
#
# _framework density 20.620384999999999
#
# number of rings (size 3 to 8) (size 9 to 14) (size 15 to 20)
#    0.000    0.000    6.000    4.200    2.800    1.600 
#    0.000    0.000    0.000    0.000    0.000    0.000 
#    0.000    0.000    0.000    0.000    0.000    0.000 
#
# Total GULP energy -111929.054737 kJ/mol
# GULP energy per Si atom -5596.452737 kJ/mol
# Density = 2.057345 g / cm^3
# Si number density = 20.620385 Si / 1000 Ang^3
#
#
#
# Elastic Constant Matrix: (Units=GPa)
#
#
# Indices 1 2 3 4 5 6 
#
# 1 94.3601 12.9700 -4.1255 0.0000 -3.3456 0.0000
# 2 12.9700 78.9751 47.9175 0.0000 1.6295 0.0000
# 3 -4.1255 47.9175 150.0873 0.0000 18.9089 0.0000
# 4 0.0000 0.0000 0.0000 32.7922 0.0000 -3.9742
# 5 -3.3456 1.6295 18.9089 0.0000 23.7495 0.0000
# 6 0.0000 0.0000 0.0000 -3.9742 0.0000 42.2182
#
#
#
# Elastic Compliance Matrix: (Units=1/GPa)
#
#
# Indices 1 2 3 4 5 6 
#
# 1 0.011003 -0.002402 0.000949 0.000000 0.000960 0.000000
# 2 -0.002402 0.016456 -0.005708 0.000000 0.003077 0.000000
# 3 0.000949 -0.005708 0.009386 0.000000 -0.006948 0.000000
# 4 0.000000 0.000000 0.000000 0.030847 0.000000 0.002904
# 5 0.000960 0.003077 -0.006948 0.000000 0.047562 0.000000
# 6 0.000000 0.000000 0.000000 0.002904 0.000000 0.023960
#
#
# Mechanical properties :
#
#
# Convention : Reuss Voigt Hill
#
# Bulk Modulus (GPa) = 44.39845 48.54961 46.47403
# Shear Modulus (GPa) = 31.04707 37.52936 34.28821
#
# Velocity S-wave (km/s) = 3.88448 4.27079 4.08221
# Velocity P-wave (km/s) = 6.45732 6.92207 6.69373
#
# Compressibility (1/GPa) = 0.02252331
#
# Stress axis : x y z
#
# Youngs Moduli (GPa) = 90.88087 60.76702 106.53663
#
# Poissons Ratio (x) = 0.14599 -0.10106
# Poissons Ratio (y) = 0.21833 0.60806
# Poissons Ratio (z) = -0.08621 0.34683
#
# Static dielectric constant tensor:
#      x y z
#    x 1.693030 0.000000 0.022720 
#    y 0.000000 1.701070 0.000000 
#    z 0.022720 0.000000 1.784660 
# 
# From -- ./inp_files/185163.got.cif
#   From: 2010.05.17/outbox.cif.g08.bks.cpg/sg15_93_cif.got.tgz:185163.got - 2010.06.03 18:47:42.
