data_PCOD9307763
_publ_section_title
;
Structure prediction by ZEFSAII (Michael W. Deem and Ramdas Pophale) SiO2 
 PCOD9307763
Probable space group: C 2/C
;
_chemical_formula_sum "Si O2"
_cell_formula_units_Z 40
_cell_length_a 18.672758
_cell_length_b 8.427079
_cell_length_c 12.014719
_cell_angle_alpha 90.000000
_cell_angle_beta 77.050522
_cell_angle_gamma 90.000000
_cell_volume 1842.516213
_symmetry_space_group_name_H-M "C 2/C"
_symmetry_group_IT_number 15
_symmetry_cell_setting 'monoclinic'
loop_
_space_group_symop_operation_xyz
x,y,z
-x,y,1/2-z
-x,-y,-z
x,-y,1/2+z
1/2+x,1/2+y,z
1/2-x,1/2+y,1/2-z
1/2-x,1/2-y,-z
1/2+x,1/2-y,1/2+z
loop_
_atom_site_type_symbol
_atom_site_label
_atom_site_fract_x
_atom_site_fract_y
_atom_site_fract_z
Si Si1 0.846174 0.152984 0.229370
Si Si2 0.527130 0.318161 0.989683
Si Si3 0.421504 0.881004 0.824425
Si Si4 0.810826 0.213445 0.697813
Si Si5 0.377327 0.803449 0.450284
O O1 0.910500 0.204268 0.124284
O O2 0.771416 0.249428 0.235158
O O3 0.870021 0.186329 0.347810
O O4 0.829815 0.969499 0.210724
O O5 0.456232 0.217804 0.980629
O O6 0.500000 0.500000 0.000000
O O7 0.557798 0.258825 0.096796
O O8 0.500000 0.941839 0.750000
O O9 0.370010 0.815032 0.745578
O O10 0.377267 0.019335 0.902469
O O11 0.819056 0.261628 0.565791
#
# Coordination Sequence:
#
# PCOD9307763 Si02
#       5
#     8   8   8   8   8
#     4  12  27  47  73 105 145 190 236 298 359 420
#     4  12  24  47  76 104 141 191 241 292 353 423
#     4  12  25  45  76 104 145 187 239 297 355 425
#     4  12  28  48  71 106 146 184 242 293 359 430
#     4  12  26  47  75 105 143 187 241 292 358 425
#
# _framework density 21.709441999999999
#
# number of rings (size 3 to 8) (size 9 to 14) (size 15 to 20)
#    0.000    0.000    4.000    5.400    5.600    0.800 
#    0.000    0.000    0.000    0.000    0.000    0.000 
#    0.000    0.000    0.000    0.000    0.000    0.000 
#
# Total GULP energy -112075.820593 kJ/mol
# GULP energy per Si atom -5603.791030 kJ/mol
# Density = 2.166003 g / cm^3
# Si number density = 21.709442 Si / 1000 Ang^3
#
#
#
# Elastic Constant Matrix: (Units=GPa)
#
#
# Indices 1 2 3 4 5 6 
#
# 1 83.5093 -17.6466 28.2020 0.0000 -6.6166 0.0000
# 2 -17.6466 82.0245 27.8096 0.0000 3.9102 0.0000
# 3 28.2020 27.8096 120.5590 0.0000 10.0814 0.0000
# 4 0.0000 0.0000 0.0000 15.5118 0.0000 -8.5212
# 5 -6.6166 3.9102 10.0814 0.0000 41.7500 0.0000
# 6 0.0000 0.0000 0.0000 -8.5212 0.0000 5.5681
#
#
#
# Elastic Compliance Matrix: (Units=1/GPa)
#
#
# Indices 1 2 3 4 5 6 
#
# 1 0.014827 0.004672 -0.004803 0.000000 0.003072 0.000000
# 2 0.004672 0.014709 -0.004524 0.000000 0.000455 0.000000
# 3 -0.004803 -0.004524 0.010706 0.000000 -0.002923 0.000000
# 4 0.000000 0.000000 0.000000 0.404668 0.000000 0.619290
# 5 0.003072 0.000455 -0.002923 0.000000 0.025102 0.000000
# 6 0.000000 0.000000 0.000000 0.619290 0.000000 1.127335
#
#
# Mechanical properties :
#
#
# Convention : Reuss Voigt Hill
#
# Bulk Modulus (GPa) = 32.32868 40.31363 36.32115
# Shear Modulus (GPa) = 3.09221 29.08116 16.08668
#
# Velocity S-wave (km/s) = 1.19476 3.66397 2.72508
# Velocity P-wave (km/s) = 4.10209 6.04231 5.16414
#
# Compressibility (1/GPa) = 0.03093229
#
# Stress axis : x y z
#
# Youngs Moduli (GPa) = 67.44252 67.98712 93.40376
#
# Poissons Ratio (x) = -0.31763 0.44863
# Poissons Ratio (y) = -0.31509 0.42254
# Poissons Ratio (z) = 0.32394 0.30756
#
# Static dielectric constant tensor:
#      x y z
#    x 1.750890 0.000000 -0.009450 
#    y 0.000000 1.787130 0.000000 
#    z -0.009450 0.000000 1.797070 
# 
# From -- ./inp_files/102669.got.cif
#   From: 2010.05.17/outbox.cif.g08.bks.cpg/sg15_52_cif.got.tgz:102669.got - 2010.06.03 18:47:42.
