data_PCOD9307872
_publ_section_title
;
Structure prediction by ZEFSAII (Michael W. Deem and Ramdas Pophale) SiO2 
 PCOD9307872
Probable space group: C 2/C
;
_chemical_formula_sum "Si O2"
_cell_formula_units_Z 28
_cell_length_a 5.161315
_cell_length_b 17.401684
_cell_length_c 15.958975
_cell_angle_alpha 90.000000
_cell_angle_beta 119.020691
_cell_angle_gamma 90.000000
_cell_volume 1253.397789
_symmetry_space_group_name_H-M "C 2/C"
_symmetry_group_IT_number 15
_symmetry_cell_setting 'monoclinic'
loop_
_space_group_symop_operation_xyz
x,y,z
-x,y,1/2-z
-x,-y,-z
x,-y,1/2+z
1/2+x,1/2+y,z
1/2-x,1/2+y,1/2-z
1/2-x,1/2-y,-z
1/2+x,1/2-y,1/2+z
loop_
_atom_site_type_symbol
_atom_site_label
_atom_site_fract_x
_atom_site_fract_y
_atom_site_fract_z
Si Si1 0.335494 0.542432 0.398704
Si Si2 0.389375 0.792431 0.601297
Si Si3 0.500000 0.375001 0.750000
Si Si4 0.000000 0.573683 0.750000
Si Si5 0.000000 0.176315 0.750000
O O1 0.500000 0.500000 0.500000
O O2 0.257722 0.625001 0.421808
O O3 0.448653 0.569078 0.323054
O O4 0.072796 0.483166 0.337532
O O5 0.250000 0.750000 0.500000
O O6 0.729484 0.819079 0.676947
O O7 0.310197 0.733163 0.662467
O O8 0.283912 0.624999 0.772608
#
# Coordination Sequence:
#
# PCOD9307872 Si02
#       5
#     8   8   4   4   4
#     4  12  27  48  77 114 158 215 269 341 412 487
#     4  12  27  48  77 114 158 215 269 341 412 487
#     4  12  24  52  80 108 172 202 282 330 410 492
#     4  12  26  48  75 115 158 208 274 338 406 492
#     4  12  26  48  75 115 158 208 274 338 406 492
#
# _framework density 22.339275000000001
#
# number of rings (size 3 to 8) (size 9 to 14) (size 15 to 20)
#    0.000    0.000    5.714    3.429    4.000    2.286 
#    0.000    0.000    0.000    0.000    0.000    0.000 
#    0.000    0.000    0.000    0.000    0.000    0.000 
#
# Total GULP energy -77961.331926 kJ/mol
# GULP energy per Si atom -5568.666566 kJ/mol
# Density = 2.228843 g / cm^3
# Si number density = 22.339275 Si / 1000 Ang^3
#
#
#
# Elastic Constant Matrix: (Units=GPa)
#
#
# Indices 1 2 3 4 5 6 
#
# 1 73.4068 52.2950 39.2608 0.0000 -0.8550 0.0000
# 2 52.2950 199.9888 91.8686 0.0000 2.0298 0.0000
# 3 39.2608 91.8686 226.1891 0.0000 8.7101 0.0000
# 4 0.0000 0.0000 0.0000 79.9941 0.0000 1.8501
# 5 -0.8550 2.0298 8.7101 0.0000 9.2973 0.0000
# 6 0.0000 0.0000 0.0000 1.8501 0.0000 44.0441
#
#
#
# Elastic Compliance Matrix: (Units=1/GPa)
#
#
# Indices 1 2 3 4 5 6 
#
# 1 0.017239 -0.003816 -0.001593 0.000000 0.003911 0.000000
# 2 -0.003816 0.007001 -0.002188 0.000000 0.000170 0.000000
# 3 -0.001593 -0.002188 0.005782 0.000000 -0.005086 0.000000
# 4 0.000000 0.000000 0.000000 0.012513 0.000000 -0.000526
# 5 0.003911 0.000170 -0.005086 0.000000 0.112645 0.000000
# 6 0.000000 0.000000 0.000000 -0.000526 0.000000 0.022727
#
#
# Mechanical properties :
#
#
# Convention : Reuss Voigt Hill
#
# Bulk Modulus (GPa) = 67.43620 96.27040 81.85330
# Shear Modulus (GPa) = 25.24709 47.74445 36.49577
#
# Velocity S-wave (km/s) = 3.36544 4.62805 4.04630
# Velocity P-wave (km/s) = 6.73457 8.47034 7.65183
#
# Compressibility (1/GPa) = 0.01482883
#
# Stress axis : x y z
#
# Youngs Moduli (GPa) = 58.00965 142.82955 172.94830
#
# Poissons Ratio (x) = 0.54498 0.27551
# Poissons Ratio (y) = 0.22134 0.37840
# Poissons Ratio (z) = 0.09241 0.31250
#
# Static dielectric constant tensor:
#      x y z
#    x 1.990980 0.000000 0.016760 
#    y 0.000000 1.804230 0.000000 
#    z 0.016760 0.000000 2.317990 
# 
# From -- ./inp_files/127942.got.cif
#   From: 2010.05.17/outbox.cif.g08.bks.cpg/sg15_64_cif.got.tgz:127942.got - 2010.06.03 18:47:42.
