data_PCOD9307906
_publ_section_title
;
Structure prediction by ZEFSAII (Michael W. Deem and Ramdas Pophale) SiO2 
 PCOD9307906
Probable space group: C 2/C
;
_chemical_formula_sum "Si O2"
_cell_formula_units_Z 48
_cell_length_a 18.796267
_cell_length_b 7.028314
_cell_length_c 23.144897
_cell_angle_alpha 90.000000
_cell_angle_beta 52.075404
_cell_angle_gamma 90.000000
_cell_volume 2411.882234
_symmetry_space_group_name_H-M "C 2/C"
_symmetry_group_IT_number 15
_symmetry_cell_setting 'monoclinic'
loop_
_space_group_symop_operation_xyz
x,y,z
-x,y,1/2-z
-x,-y,-z
x,-y,1/2+z
1/2+x,1/2+y,z
1/2-x,1/2+y,1/2-z
1/2-x,1/2-y,-z
1/2+x,1/2-y,1/2+z
loop_
_atom_site_type_symbol
_atom_site_label
_atom_site_fract_x
_atom_site_fract_y
_atom_site_fract_z
Si Si1 0.920651 0.770934 0.433584
Si Si2 0.233602 0.413282 0.691507
Si Si3 0.174934 0.872756 0.570926
Si Si4 0.589901 0.020263 0.667305
Si Si5 0.313098 0.058643 0.587740
Si Si6 0.129017 0.748030 0.351963
O O1 0.910975 0.640262 0.381483
O O2 0.875623 0.657421 0.508701
O O3 0.025833 0.803298 0.393023
O O4 0.868384 0.967082 0.447947
O O5 0.174564 0.487498 0.667231
O O6 0.281579 0.219325 0.648071
O O7 0.167835 0.366880 0.777607
O O8 0.307538 0.569554 0.671066
O O9 0.250000 0.750000 0.500000
O O10 0.101656 0.724878 0.631368
O O11 0.225950 0.975985 0.598118
O O12 0.500000 0.009944 0.750000
O O13 0.361574 0.888631 0.597334
#
# Coordination Sequence:
#
# PCOD9307906 Si02
#       6
#     8   8   8   8   8   8
#     4  12  27  45  72 106 141 182 239 294 345 416
#     4  12  25  45  72 103 141 189 227 288 355 418
#     4  12  25  45  74 104 138 187 238 290 354 415
#     4  12  25  44  76 106 139 183 241 292 347 418
#     4  12  25  45  73 100 143 187 230 288 355 417
#     4  12  27  45  70 103 144 184 233 285 358 418
#
# _framework density 19.901468999999999
#
# number of rings (size 3 to 8) (size 9 to 14) (size 15 to 20)
#    0.000    0.000    8.333    2.000    0.000    5.333 
#    0.000    0.000    0.000    0.000    0.000    0.000 
#    0.000    0.000    0.000    0.000    0.000    0.000 
#
# Total GULP energy -134394.721683 kJ/mol
# GULP energy per Si atom -5599.780070 kJ/mol
# Density = 1.985617 g / cm^3
# Si number density = 19.901469 Si / 1000 Ang^3
#
#
#
# Elastic Constant Matrix: (Units=GPa)
#
#
# Indices 1 2 3 4 5 6 
#
# 1 116.6411 46.5733 22.8189 0.0002 -7.8363 0.0028
# 2 46.5733 120.2570 45.6183 -0.0040 -5.7558 0.0026
# 3 22.8189 45.6183 107.9860 0.0008 -5.9069 0.0000
# 4 0.0002 -0.0040 0.0008 41.0085 -0.0003 7.2171
# 5 -7.8363 -5.7558 -5.9069 -0.0003 27.2321 0.0000
# 6 0.0028 0.0026 0.0000 7.2171 0.0000 35.0781
#
#
#
# Elastic Compliance Matrix: (Units=1/GPa)
#
#
# Indices 1 2 3 4 5 6 
#
# 1 0.010285 -0.003695 -0.000499 0.000000 0.002070 0.000000
# 2 -0.003695 0.011269 -0.003954 0.000001 0.000461 -0.000001
# 3 -0.000499 -0.003954 0.011115 -0.000001 0.001431 0.000000
# 4 0.000000 0.000001 -0.000001 0.025301 0.000000 -0.005206
# 5 0.002070 0.000461 0.001431 0.000000 0.037725 0.000000
# 6 0.000000 -0.000001 0.000000 -0.005206 0.000000 0.029579
#
#
# Mechanical properties :
#
#
# Convention : Reuss Voigt Hill
#
# Bulk Modulus (GPa) = 61.08114 63.87834 62.47974
# Shear Modulus (GPa) = 34.00708 35.98865 34.99786
#
# Velocity S-wave (km/s) = 4.13821 4.25707 4.19806
# Velocity P-wave (km/s) = 7.32062 7.50537 7.41357
#
# Compressibility (1/GPa) = 0.01637167
#
# Stress axis : x y z
#
# Youngs Moduli (GPa) = 97.22527 88.74234 89.97018
#
# Poissons Ratio (x) = 0.32789 0.04492
# Poissons Ratio (y) = 0.35923 0.35578
# Poissons Ratio (z) = 0.04855 0.35092
#
# Static dielectric constant tensor:
#      x y z
#    x 1.674120 0.000000 0.015060 
#    y 0.000000 1.678190 0.000000 
#    z 0.015060 0.000000 1.681660 
# 
# From -- ./inp_files/278840.got.cif
#   From: 2010.05.17/outbox.cif.g08.bks.cpg/sg15_140_cif.got.tgz:278840.got - 2010.06.03 18:47:42.
