data_PCOD9307531
_publ_section_title
;
Structure prediction by ZEFSAII (Michael W. Deem and Ramdas Pophale) SiO2 
 PCOD9307531
Probable space group: C 2/C
;
_chemical_formula_sum "Si O2"
_cell_formula_units_Z 40
_cell_length_a 15.988571
_cell_length_b 14.814935
_cell_length_c 19.531963
_cell_angle_alpha 90.000000
_cell_angle_beta 22.291298
_cell_angle_gamma 90.000000
_cell_volume 1754.914806
_symmetry_space_group_name_H-M "C 2/C"
_symmetry_group_IT_number 15
_symmetry_cell_setting 'monoclinic'
loop_
_space_group_symop_operation_xyz
x,y,z
-x,y,1/2-z
-x,-y,-z
x,-y,1/2+z
1/2+x,1/2+y,z
1/2-x,1/2+y,1/2-z
1/2-x,1/2-y,-z
1/2+x,1/2-y,1/2+z
loop_
_atom_site_type_symbol
_atom_site_label
_atom_site_fract_x
_atom_site_fract_y
_atom_site_fract_z
Si Si1 0.547268 0.597553 0.928529
Si Si2 0.055719 0.349478 0.043738
Si Si3 0.790245 0.457847 0.452500
Si Si4 0.922659 0.157038 0.161960
Si Si5 0.347933 0.350475 0.431877
O O1 0.464816 0.628750 0.916399
O O2 0.810156 0.611107 0.727966
O O3 0.500000 0.500000 0.000000
O O4 0.428808 0.659164 0.075298
O O5 0.205847 0.410930 0.977670
O O6 0.035959 0.251888 0.094376
O O7 0.180584 0.346044 0.876989
O O8 0.572992 0.424111 0.577225
O O9 0.816796 0.564409 0.444797
O O10 0.000000 0.425761 0.250000
O O11 0.500000 0.362549 0.250000
O O12 0.250000 0.250000 0.500000
#
# Coordination Sequence:
#
# PCOD9307531 Si02
#       5
#     8   8   8   8   8
#     4  12  27  52  75 112 154 203 264 319 381 469
#     4  12  25  44  78 111 153 193 254 326 385 461
#     4  12  23  49  72 110 153 201 251 325 387 466
#     4  12  24  45  76 114 148 195 257 317 399 453
#     4  12  29  50  75 110 155 209 260 314 393 472
#
# _framework density 22.793130999999999
#
# number of rings (size 3 to 8) (size 9 to 14) (size 15 to 20)
#    0.000    0.000    6.000    3.000    2.800    0.800 
#    3.600    0.000    0.000    0.000    0.000    0.000 
#    0.000    0.000    0.000    0.000    0.000    0.000 
#
# Total GULP energy -111735.071308 kJ/mol
# GULP energy per Si atom -5586.753565 kJ/mol
# Density = 2.274125 g / cm^3
# Si number density = 22.793131 Si / 1000 Ang^3
#
#
#
# Elastic Constant Matrix: (Units=GPa)
#
#
# Indices 1 2 3 4 5 6 
#
# 1 148.7553 43.5666 41.9643 -0.0149 34.0797 0.0020
# 2 43.5666 148.9433 25.3397 -0.0170 -3.0761 0.0043
# 3 41.9643 25.3397 173.5511 -0.0313 44.8826 0.0094
# 4 -0.0149 -0.0170 -0.0313 37.8599 0.0139 -1.3790
# 5 34.0797 -3.0761 44.8826 0.0139 25.7217 -0.0042
# 6 0.0020 0.0043 0.0094 -1.3790 -0.0042 26.5039
#
#
#
# Elastic Compliance Matrix: (Units=1/GPa)
#
#
# Indices 1 2 3 4 5 6 
#
# 1 0.012514 -0.004809 0.003850 0.000015 -0.023874 -0.000005
# 2 -0.004809 0.009059 -0.003805 -0.000006 0.014093 0.000002
# 3 0.003850 -0.003805 0.012435 0.000020 -0.027255 -0.000007
# 4 0.000015 -0.000006 0.000020 0.026463 -0.000068 0.001377
# 5 -0.023874 0.014093 -0.027255 -0.000068 0.119753 0.000025
# 6 -0.000005 0.000002 -0.000007 0.001377 0.000025 0.037802
#
#
# Mechanical properties :
#
#
# Convention : Reuss Voigt Hill
#
# Bulk Modulus (GPa) = 40.84605 76.99901 58.92253
# Shear Modulus (GPa) = 21.21225 42.04237 31.62731
#
# Velocity S-wave (km/s) = 3.05395 4.29945 3.72907
# Velocity P-wave (km/s) = 5.51314 7.64866 6.66696
#
# Compressibility (1/GPa) = 0.02448217
#
# Stress axis : x y z
#
# Youngs Moduli (GPa) = 79.90964 110.38910 80.41861
#
# Poissons Ratio (x) = 0.53082 -0.30965
# Poissons Ratio (y) = 0.38425 0.30597
# Poissons Ratio (z) = -0.30769 0.42000
#
# Static dielectric constant tensor:
#      x y z
#    x 1.976750 0.000040 0.092540 
#    y 0.000040 1.944300 0.000020 
#    z 0.092540 0.000020 1.886070 
# 
# From -- ./inp_files/249180.got.cif
#   From: 2010.05.17/outbox.cif.g08.bks.cpg/sg15_125_cif.got.tgz:249180.got - 2010.06.03 18:47:42.
