data_PCOD9307804
_publ_section_title
;
Structure prediction by ZEFSAII (Michael W. Deem and Ramdas Pophale) SiO2 
 PCOD9307804
Probable space group: C 2/C
;
_chemical_formula_sum "Si O2"
_cell_formula_units_Z 40
_cell_length_a 31.578620
_cell_length_b 5.182068
_cell_length_c 13.876679
_cell_angle_alpha 90.000000
_cell_angle_beta 138.310328
_cell_angle_gamma 90.000000
_cell_volume 1510.309569
_symmetry_space_group_name_H-M "C 2/C"
_symmetry_group_IT_number 15
_symmetry_cell_setting 'monoclinic'
loop_
_space_group_symop_operation_xyz
x,y,z
-x,y,1/2-z
-x,-y,-z
x,-y,1/2+z
1/2+x,1/2+y,z
1/2-x,1/2+y,1/2-z
1/2-x,1/2-y,-z
1/2+x,1/2-y,1/2+z
loop_
_atom_site_type_symbol
_atom_site_label
_atom_site_fract_x
_atom_site_fract_y
_atom_site_fract_z
Si Si1 0.974881 0.388578 0.558573
Si Si2 0.319661 0.302490 0.566270
Si Si3 0.765914 0.711562 0.876853
Si Si4 0.562850 0.813481 0.342733
Si Si5 0.150889 0.886516 0.664145
O O1 0.925863 0.575181 0.532911
O O2 0.926799 0.142495 0.471887
O O3 0.000000 0.500000 0.500000
O O4 0.037673 0.445558 0.732877
O O5 0.277411 0.544064 0.463958
O O6 0.293675 0.040151 0.476656
O O7 0.384861 0.345504 0.620333
O O8 0.334981 0.283841 0.704229
O O9 0.808179 0.749850 0.851897
O O10 0.691372 0.655667 0.732136
O O11 0.500000 0.643632 0.250000
#
# Coordination Sequence:
#
# PCOD9307804 Si02
#       5
#     8   8   8   8   8
#     4   9  17  39  80 114 155 203 265 331 413 477
#     4  12  25  49  74 114 165 208 272 336 403 489
#     4  12  28  45  75 115 158 217 265 339 396 489
#     4   8  18  38  74 116 152 200 258 337 399 473
#     4  12  24  48  77 114 163 214 275 327 414 487
#
# _framework density 26.484636999999999
#
# number of rings (size 3 to 8) (size 9 to 14) (size 15 to 20)
#    1.200    0.000    4.000    2.400    0.000    3.200 
#    0.000    3.000    0.000    4.800    0.000    0.000 
#    0.000    0.000    0.000    0.000    0.000    0.000 
#
# Total GULP energy -111494.701199 kJ/mol
# GULP energy per Si atom -5574.735060 kJ/mol
# Density = 2.642436 g / cm^3
# Si number density = 26.484637 Si / 1000 Ang^3
#
#
#
# Elastic Constant Matrix: (Units=GPa)
#
#
# Indices 1 2 3 4 5 6 
#
# 1 184.1199 16.3433 60.6326 -0.0001 -7.8161 -0.0001
# 2 16.3433 128.5699 81.3040 0.0000 -5.1682 0.0006
# 3 60.6326 81.3040 133.5552 0.0000 -9.6702 -0.0001
# 4 -0.0001 0.0000 0.0000 44.7710 0.0000 15.9024
# 5 -7.8161 -5.1682 -9.6702 0.0000 72.3629 0.0001
# 6 -0.0001 0.0006 -0.0001 15.9024 0.0001 19.6584
#
#
#
# Elastic Compliance Matrix: (Units=1/GPa)
#
#
# Indices 1 2 3 4 5 6 
#
# 1 0.006618 0.001719 -0.004029 0.000000 0.000299 0.000000
# 2 0.001719 0.013094 -0.008755 0.000000 -0.000049 -0.000001
# 3 -0.004029 -0.008755 0.014712 0.000000 0.000906 0.000000
# 4 0.000000 0.000000 0.000000 0.031341 0.000000 -0.025353
# 5 0.000299 -0.000049 0.000906 0.000000 0.013969 0.000000
# 6 0.000000 -0.000001 0.000000 -0.025353 0.000000 0.071378
#
#
# Mechanical properties :
#
#
# Convention : Reuss Voigt Hill
#
# Bulk Modulus (GPa) = 81.34571 84.75608 83.05090
# Shear Modulus (GPa) = 28.19434 46.55612 37.37523
#
# Velocity S-wave (km/s) = 3.26629 4.19723 3.76068
# Velocity P-wave (km/s) = 6.70864 7.45388 7.09106
#
# Compressibility (1/GPa) = 0.01229321
#
# Stress axis : x y z
#
# Youngs Moduli (GPa) = 151.09716 76.37219 67.97154
#
# Poissons Ratio (x) = -0.13126 0.27388
# Poissons Ratio (y) = -0.25970 0.59508
# Poissons Ratio (z) = 0.60881 0.66863
#
# Static dielectric constant tensor:
#      x y z
#    x 2.122630 0.000000 0.045540 
#    y 0.000000 2.168870 0.000000 
#    z 0.045540 0.000000 2.216140 
# 
# From -- ./inp_files/171238.got.cif
#   From: 2010.05.17/outbox.cif.g08.bks.cpg/sg15_86_cif.got.tgz:171238.got - 2010.06.03 18:47:42.
