data_PCOD9307117
_publ_section_title
;
Structure prediction by ZEFSAII (Michael W. Deem and Ramdas Pophale) SiO2 
 PCOD9307117
Probable space group: C 2/C
;
_chemical_formula_sum "Si O2"
_cell_formula_units_Z 48
_cell_length_a 20.526704
_cell_length_b 11.953840
_cell_length_c 11.837012
_cell_angle_alpha 90.000000
_cell_angle_beta 110.429773
_cell_angle_gamma 90.000000
_cell_volume 2721.792565
_symmetry_space_group_name_H-M "C 2/C"
_symmetry_group_IT_number 15
_symmetry_cell_setting 'monoclinic'
loop_
_space_group_symop_operation_xyz
x,y,z
-x,y,1/2-z
-x,-y,-z
x,-y,1/2+z
1/2+x,1/2+y,z
1/2-x,1/2+y,1/2-z
1/2-x,1/2-y,-z
1/2+x,1/2-y,1/2+z
loop_
_atom_site_type_symbol
_atom_site_label
_atom_site_fract_x
_atom_site_fract_y
_atom_site_fract_z
Si Si1 0.856868 0.765174 0.914004
Si Si2 0.821252 0.441759 0.538939
Si Si3 0.674507 0.802493 0.486864
Si Si4 0.581469 0.647993 0.279367
Si Si5 0.658278 0.581898 0.881052
Si Si6 0.806750 0.712564 0.239662
O O1 0.776638 0.776750 0.824691
O O2 0.902252 0.796580 0.832905
O O3 0.859647 0.641139 0.972647
O O4 0.868428 0.855292 0.021818
O O5 0.839393 0.570909 0.560130
O O6 0.739564 0.442586 0.455056
O O7 0.828042 0.382647 0.664141
O O8 0.750000 0.750000 0.500000
O O9 0.617328 0.724590 0.395822
O O10 0.673478 0.808066 0.620964
O O11 0.500000 0.637895 0.250000
O O12 0.618048 0.527440 0.317325
O O13 0.659047 0.673352 0.782939
#
# Coordination Sequence:
#
# PCOD9307117 Si02
#       6
#     8   8   8   8   8   8
#     4   9  19  38  60  86 120 155 191 244 304 350
#     4   9  19  36  64  90 115 149 195 258 302 335
#     4  12  22  35  61  92 115 155 204 247 294 348
#     4  12  26  39  56  88 128 163 197 242 297 364
#     4   9  19  37  59  87 119 153 192 249 308 344
#     4   9  19  35  62  93 115 144 199 253 297 352
#
# _framework density 17.635435999999999
#
# number of rings (size 3 to 8) (size 9 to 14) (size 15 to 20)
#    0.000    2.000    3.333    2.000    4.667    0.667 
#    0.000    0.833    0.000    0.000    0.000    0.000 
#    0.000    0.000    0.000    0.000    0.000    0.000 
#
# Total GULP energy -133846.070798 kJ/mol
# GULP energy per Si atom -5576.919617 kJ/mol
# Density = 1.759530 g / cm^3
# Si number density = 17.635436 Si / 1000 Ang^3
#
#
#
# Elastic Constant Matrix: (Units=GPa)
#
#
# Indices 1 2 3 4 5 6 
#
# 1 74.7381 60.0661 52.2534 0.0000 -11.3873 0.0000
# 2 60.0661 165.6797 52.6723 0.0000 -5.5320 0.0000
# 3 52.2534 52.6723 76.5641 0.0000 -16.3150 0.0000
# 4 0.0000 0.0000 0.0000 10.1504 0.0000 2.2228
# 5 -11.3873 -5.5320 -16.3150 0.0000 21.6396 0.0000
# 6 0.0000 0.0000 0.0000 2.2228 0.0000 7.5236
#
#
#
# Elastic Compliance Matrix: (Units=1/GPa)
#
#
# Indices 1 2 3 4 5 6 
#
# 1 0.028997 -0.005496 -0.015556 0.000000 0.002126 0.000000
# 2 -0.005496 0.008875 -0.002963 0.000000 -0.002858 0.000000
# 3 -0.015556 -0.002963 0.028368 0.000000 0.012444 0.000000
# 4 0.000000 0.000000 0.000000 0.105332 0.000000 -0.031119
# 5 0.002126 -0.002858 0.012444 0.000000 0.055982 0.000000
# 6 0.000000 0.000000 0.000000 -0.031119 0.000000 0.142109
#
#
# Mechanical properties :
#
#
# Convention : Reuss Voigt Hill
#
# Bulk Modulus (GPa) = 54.91768 71.88506 63.40137
# Shear Modulus (GPa) = 11.79900 17.99540 14.89720
#
# Velocity S-wave (km/s) = 2.58941 3.19785 2.90958
# Velocity P-wave (km/s) = 6.33626 7.38141 6.87871
#
# Compressibility (1/GPa) = 0.01820907
#
# Stress axis : x y z
#
# Youngs Moduli (GPa) = 34.48618 112.67469 35.25105
#
# Poissons Ratio (x) = 0.61929 0.54836
# Poissons Ratio (y) = 0.18955 0.10447
# Poissons Ratio (z) = 0.53646 0.33391
#
# Static dielectric constant tensor:
#      x y z
#    x 1.590180 0.000000 -0.028220 
#    y 0.000000 1.637230 0.000000 
#    z -0.028220 0.000000 1.591580 
# 
# From -- ./inp_files/103811.got.cif
#   From: 2010.05.17/outbox.cif.g08.bks.cpg/sg15_52_cif.got.tgz:103811.got - 2010.06.03 18:47:42.
