data_PCOD9307221
_publ_section_title
;
Structure prediction by ZEFSAII (Michael W. Deem and Ramdas Pophale) SiO2 
 PCOD9307221
Probable space group: C 2/C
;
_chemical_formula_sum "Si O2"
_cell_formula_units_Z 44
_cell_length_a 13.302815
_cell_length_b 10.263756
_cell_length_c 22.998906
_cell_angle_alpha 90.000000
_cell_angle_beta 149.097286
_cell_angle_gamma 90.000000
_cell_volume 1612.748904
_symmetry_space_group_name_H-M "C 2/C"
_symmetry_group_IT_number 15
_symmetry_cell_setting 'monoclinic'
loop_
_space_group_symop_operation_xyz
x,y,z
-x,y,1/2-z
-x,-y,-z
x,-y,1/2+z
1/2+x,1/2+y,z
1/2-x,1/2+y,1/2-z
1/2-x,1/2-y,-z
1/2+x,1/2-y,1/2+z
loop_
_atom_site_type_symbol
_atom_site_label
_atom_site_fract_x
_atom_site_fract_y
_atom_site_fract_z
Si Si1 0.041708 0.493016 0.390329
Si Si2 0.000000 0.507474 0.750000
Si Si3 0.692810 0.455509 0.286497
Si Si4 0.169253 0.794487 0.597603
Si Si5 0.022353 0.769186 0.402985
Si Si6 0.576439 0.361423 0.908327
O O1 0.989731 0.416386 0.305502
O O2 0.952799 0.636528 0.337351
O O3 0.271277 0.481911 0.512472
O O4 0.925563 0.462571 0.390909
O O5 0.809012 0.415631 0.650271
O O6 0.701138 0.340006 0.338346
O O7 0.609091 0.380254 0.188948
O O8 0.567616 0.590058 0.216929
O O9 0.015702 0.775612 0.469009
O O10 0.054892 0.830219 0.600311
O O11 0.250000 0.750000 0.500000
O O12 0.750000 0.250000 0.000000
#
# Coordination Sequence:
#
# PCOD9307221 Si02
#       6
#     8   4   8   8   8   8
#     4  12  26  44  73 107 146 193 246 308 364 434
#     4  12  22  42  74 106 134 194 254 290 368 434
#     4  12  24  47  74 103 153 192 240 309 365 434
#     4  12  25  45  77 107 143 195 247 297 373 440
#     4  12  24  46  71 108 139 192 252 297 358 440
#     4  12  26  48  70 111 154 189 244 307 367 441
#
# _framework density 27.282609999999998
#
# number of rings (size 3 to 8) (size 9 to 14) (size 15 to 20)
#    0.000    0.000    9.091    0.000    2.545    2.182 
#    0.000    0.000    0.000    0.000    0.000    0.000 
#    0.000    0.000    0.000    0.000    0.000    0.000 
#
# Total GULP energy -122491.163067 kJ/mol
# GULP energy per Si atom -5567.780139 kJ/mol
# Density = 2.722051 g / cm^3
# Si number density = 27.282610 Si / 1000 Ang^3
#
#
#
# Elastic Constant Matrix: (Units=GPa)
#
#
# Indices 1 2 3 4 5 6 
#
# 1 90.5751 -7.2426 28.6371 0.0000 18.5265 0.0000
# 2 -7.2426 81.1447 -3.0068 0.0000 5.9425 0.0000
# 3 28.6371 -3.0068 109.5907 0.0000 0.8476 0.0000
# 4 0.0000 0.0000 0.0000 19.2996 0.0000 5.5743
# 5 18.5265 5.9425 0.8476 0.0000 52.0389 0.0000
# 6 0.0000 0.0000 0.0000 5.5743 0.0000 22.2958
#
#
#
# Elastic Compliance Matrix: (Units=1/GPa)
#
#
# Indices 1 2 3 4 5 6 
#
# 1 0.013203 0.001405 -0.003374 0.000000 -0.004806 0.000000
# 2 0.001405 0.012591 -0.000007 0.000000 -0.001938 0.000000
# 3 -0.003374 -0.000007 0.009998 0.000000 0.001039 0.000000
# 4 0.000000 0.000000 0.000000 0.055847 0.000000 -0.013963
# 5 -0.004806 -0.001938 0.001039 0.000000 0.021132 0.000000
# 6 0.000000 0.000000 0.000000 -0.013963 0.000000 0.048342
#
#
# Mechanical properties :
#
#
# Convention : Reuss Voigt Hill
#
# Bulk Modulus (GPa) = 31.40661 35.34288 33.37475
# Shear Modulus (GPa) = 28.46111 36.25506 32.35808
#
# Velocity S-wave (km/s) = 3.23336 3.64932 3.44762
# Velocity P-wave (km/s) = 5.04738 5.54430 5.30166
#
# Compressibility (1/GPa) = 0.03184043
#
# Stress axis : x y z
#
# Youngs Moduli (GPa) = 75.74157 79.42330 100.01624
#
# Poissons Ratio (x) = -0.11162 0.33748
# Poissons Ratio (y) = -0.10644 0.00068
# Poissons Ratio (z) = 0.25557 0.00054
#
# Static dielectric constant tensor:
#      x y z
#    x 2.277530 0.000000 -0.004470 
#    y 0.000000 2.449260 0.000000 
#    z -0.004470 0.000000 2.074800 
# 
# From -- ./inp_files/295987.got.cif
#   From: 2010.05.17/outbox.cif.g08.bks.cpg/sg15_148_cif.got.tgz:295987.got - 2010.06.03 18:47:42.
