data_PCOD9307245
_publ_section_title
;
Structure prediction by ZEFSAII (Michael W. Deem and Ramdas Pophale) SiO2 
 PCOD9307245
Probable space group: C 2/C
;
_chemical_formula_sum "Si O2"
_cell_formula_units_Z 32
_cell_length_a 23.252432
_cell_length_b 6.403142
_cell_length_c 20.006280
_cell_angle_alpha 90.000000
_cell_angle_beta 26.000574
_cell_angle_gamma 90.000000
_cell_volume 1305.806244
_symmetry_space_group_name_H-M "C 2/C"
_symmetry_group_IT_number 15
_symmetry_cell_setting 'monoclinic'
loop_
_space_group_symop_operation_xyz
x,y,z
-x,y,1/2-z
-x,-y,-z
x,-y,1/2+z
1/2+x,1/2+y,z
1/2-x,1/2+y,1/2-z
1/2-x,1/2-y,-z
1/2+x,1/2-y,1/2+z
loop_
_atom_site_type_symbol
_atom_site_label
_atom_site_fract_x
_atom_site_fract_y
_atom_site_fract_z
Si Si1 0.718109 0.626691 0.465171
Si Si2 0.119667 0.613781 0.908745
Si Si3 0.737430 0.719583 0.156852
Si Si4 0.040062 0.123599 0.837429
O O1 0.750000 0.750000 0.500000
O O2 0.726849 0.378253 0.439742
O O3 0.836410 0.718796 0.295105
O O4 0.564370 0.664369 0.611790
O O5 0.167282 0.470288 0.920726
O O6 0.222510 0.660118 0.743073
O O7 0.000000 0.500000 0.000000
O O8 0.055649 0.827600 0.001160
O O9 0.602510 0.604395 0.277189
#
# Coordination Sequence:
#
# PCOD9307245 Si02
#       4
#     8   8   8   8
#     4  12  28  50  76 110 154 207 275 323 382 470
#     4  12  22  43  75 116 157 198 255 315 402 482
#     4  12  25  46  79 116 159 207 251 331 399 465
#     4  12  25  50  74 115 156 202 265 323 395 467
#
# _framework density 24.505932000000001
#
# number of rings (size 3 to 8) (size 9 to 14) (size 15 to 20)
#    0.000    0.000    5.000    6.000    0.000    1.000 
#    0.000    2.500    0.000    0.000    0.000    0.000 
#    0.000    0.000    0.000    0.000    0.000    0.000 
#
# Total GULP energy -89269.141756 kJ/mol
# GULP energy per Si atom -5579.321360 kJ/mol
# Density = 2.445016 g / cm^3
# Si number density = 24.505932 Si / 1000 Ang^3
#
#
#
# Elastic Constant Matrix: (Units=GPa)
#
#
# Indices 1 2 3 4 5 6 
#
# 1 138.2536 62.2443 32.4317 0.0013 -29.9465 0.0002
# 2 62.2443 123.5396 51.9839 0.0139 -15.2133 -0.0063
# 3 32.4317 51.9839 91.3917 0.0133 -15.8402 -0.0095
# 4 0.0013 0.0139 0.0133 53.0456 -0.0043 -9.7936
# 5 -29.9465 -15.2133 -15.8402 -0.0043 53.8473 0.0013
# 6 0.0002 -0.0063 -0.0095 -9.7936 0.0013 45.9644
#
#
#
# Elastic Compliance Matrix: (Units=1/GPa)
#
#
# Indices 1 2 3 4 5 6 
#
# 1 0.010281 -0.004505 -0.000333 0.000001 0.004347 -0.000001
# 2 -0.004505 0.012701 -0.005730 -0.000002 -0.000602 0.000000
# 3 -0.000333 -0.005730 0.014759 -0.000002 0.002538 0.000002
# 4 0.000001 -0.000002 -0.000002 0.019624 0.000001 0.004181
# 5 0.004347 -0.000602 0.002538 0.000001 0.021565 0.000000
# 6 -0.000001 0.000000 0.000002 0.004181 0.000000 0.022647
#
#
# Mechanical properties :
#
#
# Convention : Reuss Voigt Hill
#
# Bulk Modulus (GPa) = 60.21907 71.83387 66.02647
# Shear Modulus (GPa) = 38.98716 44.33977 41.66346
#
# Velocity S-wave (km/s) = 3.99297 4.25826 4.12775
# Velocity P-wave (km/s) = 6.77385 7.31803 7.05119
#
# Compressibility (1/GPa) = 0.01660604
#
# Stress axis : x y z
#
# Youngs Moduli (GPa) = 97.26924 78.73234 67.75395
#
# Poissons Ratio (x) = 0.35466 0.02254
# Poissons Ratio (y) = 0.43816 0.38826
# Poissons Ratio (z) = 0.03235 0.45117
#
# Static dielectric constant tensor:
#      x y z
#    x 2.101760 -0.000010 0.107260 
#    y -0.000010 2.011460 0.000010 
#    z 0.107260 0.000010 1.991230 
# 
# From -- ./inp_files/115724.got.cif
#   From: 2010.05.17/outbox.cif.g08.bks.cpg/sg15_58_cif.got.tgz:115724.got - 2010.06.03 18:47:42.
