data_PCOD9307566
_publ_section_title
;
Structure prediction by ZEFSAII (Michael W. Deem and Ramdas Pophale) SiO2 
 PCOD9307566
Probable space group: C 2/C
;
_chemical_formula_sum "Si O2"
_cell_formula_units_Z 48
_cell_length_a 15.850707
_cell_length_b 31.214848
_cell_length_c 10.107879
_cell_angle_alpha 90.000000
_cell_angle_beta 29.708321
_cell_angle_gamma 90.000000
_cell_volume 2478.494084
_symmetry_space_group_name_H-M "C 2/C"
_symmetry_group_IT_number 15
_symmetry_cell_setting 'monoclinic'
loop_
_space_group_symop_operation_xyz
x,y,z
-x,y,1/2-z
-x,-y,-z
x,-y,1/2+z
1/2+x,1/2+y,z
1/2-x,1/2+y,1/2-z
1/2-x,1/2-y,-z
1/2+x,1/2-y,1/2+z
loop_
_atom_site_type_symbol
_atom_site_label
_atom_site_fract_x
_atom_site_fract_y
_atom_site_fract_z
Si Si1 0.797117 0.633372 0.184383
Si Si2 0.208972 0.537080 0.314392
Si Si3 0.697030 0.133520 0.642549
Si Si4 0.292619 0.037283 0.879419
Si Si5 0.868155 0.215226 0.539042
Si Si6 0.910244 0.784474 0.504885
O O1 0.739863 0.585159 0.296449
O O2 0.688679 0.671583 0.392184
O O3 0.786264 0.637419 0.039206
O O4 0.996434 0.637643 0.947679
O O5 0.260761 0.529838 0.396113
O O6 0.266349 0.499714 0.138601
O O7 0.000755 0.537236 0.596790
O O8 0.756386 0.085396 0.596148
O O9 0.797336 0.170960 0.577258
O O10 0.958749 0.207537 0.555117
O O11 0.721518 0.249623 0.761592
O O12 0.000000 0.232670 0.250000
O O13 0.000000 0.768515 0.250000
#
# Coordination Sequence:
#
# PCOD9307566 Si02
#       6
#     8   8   8   8   8   8
#     4   9  18  35  59  85 117 153 192 236 288 334
#     4   8  14  27  50  79 111 147 187 232 274 328
#     4   9  18  34  60  89 112 148 201 244 269 333
#     4   8  14  27  49  80 114 144 185 234 278 321
#     4  12  24  41  65  88 110 153 201 238 282 354
#     4  12  26  42  60  86 122 151 185 244 302 346
#
# _framework density 19.366598
#
# number of rings (size 3 to 8) (size 9 to 14) (size 15 to 20)
#    0.000    2.333    1.667    4.000    2.333    0.000 
#    3.000    0.000    3.667    2.000    0.000    0.000 
#    0.000    0.000    0.000    0.000    0.000    0.000 
#
# Total GULP energy -134022.333950 kJ/mol
# GULP energy per Si atom -5584.263915 kJ/mol
# Density = 1.932252 g / cm^3
# Si number density = 19.366598 Si / 1000 Ang^3
#
#
#
# Elastic Constant Matrix: (Units=GPa)
#
#
# Indices 1 2 3 4 5 6 
#
# 1 78.0202 56.7337 30.5569 0.0000 3.4514 0.0000
# 2 56.7337 151.8849 50.8033 0.0000 3.4203 0.0000
# 3 30.5569 50.8033 59.5869 0.0000 10.5952 0.0000
# 4 0.0000 0.0000 0.0000 17.2052 0.0000 9.2932
# 5 3.4514 3.4203 10.5952 0.0000 15.0875 0.0000
# 6 0.0000 0.0000 0.0000 9.2932 0.0000 0.9543
#
#
#
# Elastic Compliance Matrix: (Units=1/GPa)
#
#
# Indices 1 2 3 4 5 6 
#
# 1 0.018633 -0.005236 -0.005193 0.000000 0.000571 0.000000
# 2 -0.005236 0.010889 -0.007282 0.000000 0.003843 0.000000
# 3 -0.005193 -0.007282 0.028737 0.000000 -0.017342 0.000000
# 4 0.000000 0.000000 0.000000 -0.013643 0.000000 0.132864
# 5 0.000571 0.003843 -0.017342 0.000000 0.077457 0.000000
# 6 0.000000 0.000000 0.000000 0.132864 0.000000 -0.245982
#
#
# Mechanical properties :
#
#
# Convention : Reuss Voigt Hill
#
# Bulk Modulus (GPa) = 43.78680 62.85328 53.32004
# Shear Modulus (GPa) = -61.82394 16.74261 -22.54066
#
# Velocity S-wave (km/s) = -5.65617 2.94344 -3.41529
# Velocity P-wave (km/s) = 4.47189 6.63903 3.46979
#
# Compressibility (1/GPa) = 0.02283793
#
# Stress axis : x y z
#
# Youngs Moduli (GPa) = 53.66789 91.83605 34.79793
#
# Poissons Ratio (x) = 0.48086 0.18069
# Poissons Ratio (y) = 0.28101 0.25340
# Poissons Ratio (z) = 0.27868 0.66876
#
# Static dielectric constant tensor:
#      x y z
#    x 1.666210 0.000000 -0.033530 
#    y 0.000000 1.671240 0.000000 
#    z -0.033530 0.000000 1.698590 
# 
# From -- ./inp_files/44443.got.cif
#   From: 2010.05.17/outbox.cif.g08.bks.cpg/sg15_23_cif.got.tgz:44443.got - 2010.06.03 18:47:42.
