data_PCOD9307255
_publ_section_title
;
Structure prediction by ZEFSAII (Michael W. Deem and Ramdas Pophale) SiO2 
 PCOD9307255
Probable space group: C 2/C
;
_chemical_formula_sum "Si O2"
_cell_formula_units_Z 60
_cell_length_a 25.190976
_cell_length_b 8.107480
_cell_length_c 12.024362
_cell_angle_alpha 90.000000
_cell_angle_beta 90.283112
_cell_angle_gamma 90.000000
_cell_volume 2455.769610
_symmetry_space_group_name_H-M "C 2/C"
_symmetry_group_IT_number 15
_symmetry_cell_setting 'monoclinic'
loop_
_space_group_symop_operation_xyz
x,y,z
-x,y,1/2-z
-x,-y,-z
x,-y,1/2+z
1/2+x,1/2+y,z
1/2-x,1/2+y,1/2-z
1/2-x,1/2-y,-z
1/2+x,1/2-y,1/2+z
loop_
_atom_site_type_symbol
_atom_site_label
_atom_site_fract_x
_atom_site_fract_y
_atom_site_fract_z
Si Si1 0.412159 0.645364 0.355794
Si Si2 0.231296 0.797849 0.372637
Si Si3 0.418509 0.284564 0.291193
Si Si4 0.875072 0.694280 0.063424
Si Si5 0.128209 0.680140 0.006557
Si Si6 0.000000 0.457321 0.750000
Si Si7 0.687344 0.333925 0.810849
Si Si8 0.981462 0.660478 0.569001
O O1 0.433206 0.467183 0.322916
O O2 0.376405 0.669496 0.466452
O O3 0.369179 0.671662 0.256217
O O4 0.465119 0.744734 0.394763
O O5 0.250000 0.750000 0.500000
O O6 0.178903 0.687224 0.368162
O O7 0.272466 0.748763 0.276921
O O8 0.210220 0.985223 0.347236
O O9 0.414826 0.254461 0.159451
O O10 0.367560 0.234572 0.365214
O O11 0.464558 0.159055 0.324088
O O12 0.880267 0.516362 0.005721
O O13 0.174214 0.739227 0.925647
O O14 0.070465 0.756318 0.971612
O O15 0.961240 0.576003 0.683077
O O16 0.000000 0.500000 0.500000
#
# Coordination Sequence:
#
# PCOD9307255 Si02
#       8
#     8   8   8   8   8   4   8   8
#     4  12  26  48  78 113 163 205 267 327 399 469
#     4  12  27  53  84 116 157 203 270 340 408 478
#     4  12  27  44  74 113 159 207 265 327 388 472
#     4  12  25  50  79 111 160 207 262 332 396 473
#     4  12  27  46  79 114 162 210 263 321 399 475
#     4  12  22  44  68 108 154 208 264 310 386 470
#     4  12  28  51  81 118 153 210 264 334 410 478
#     4  12  23  46  73 112 158 214 260 315 390 475
#
# _framework density 24.432261
#
# number of rings (size 3 to 8) (size 9 to 14) (size 15 to 20)
#    0.000    0.000    6.667    2.400    1.867    3.200 
#    0.000    2.000    0.000    0.000    0.000    0.000 
#    0.000    0.000    0.000    0.000    0.000    0.000 
#
# Total GULP energy -167255.509314 kJ/mol
# GULP energy per Si atom -5575.183644 kJ/mol
# Density = 2.437665 g / cm^3
# Si number density = 24.432261 Si / 1000 Ang^3
#
#
#
# Elastic Constant Matrix: (Units=GPa)
#
#
# Indices 1 2 3 4 5 6 
#
# 1 79.6069 8.5448 5.9463 0.0000 -7.7299 0.0000
# 2 8.5448 88.6240 29.7100 0.0000 13.1774 0.0000
# 3 5.9463 29.7100 126.7515 0.0000 -5.7424 0.0000
# 4 0.0000 0.0000 0.0000 26.8148 0.0000 -14.7516
# 5 -7.7299 13.1774 -5.7424 0.0000 43.9477 0.0000
# 6 0.0000 0.0000 0.0000 -14.7516 0.0000 32.9292
#
#
#
# Elastic Compliance Matrix: (Units=1/GPa)
#
#
# Indices 1 2 3 4 5 6 
#
# 1 0.013013 -0.001631 -0.000103 0.000000 0.002764 0.000000
# 2 -0.001631 0.013220 -0.003234 0.000000 -0.004673 0.000000
# 3 -0.000103 -0.003234 0.008747 0.000000 0.002095 0.000000
# 4 0.000000 0.000000 0.000000 0.049489 0.000000 0.022170
# 5 0.002764 -0.004673 0.002095 0.000000 0.024915 0.000000
# 6 0.000000 0.000000 0.000000 0.022170 0.000000 0.040300
#
#
# Mechanical properties :
#
#
# Convention : Reuss Voigt Hill
#
# Bulk Modulus (GPa) = 39.92966 42.59829 41.26397
# Shear Modulus (GPa) = 29.76746 37.45709 33.61228
#
# Velocity S-wave (km/s) = 3.49430 3.91973 3.71311
# Velocity P-wave (km/s) = 5.71477 6.16107 5.94212
#
# Compressibility (1/GPa) = 0.02504404
#
# Stress axis : x y z
#
# Youngs Moduli (GPa) = 76.84658 75.64361 114.32259
#
# Poissons Ratio (x) = 0.12339 0.01176
# Poissons Ratio (y) = 0.12535 0.36971
# Poissons Ratio (z) = 0.00791 0.24462
#
# Static dielectric constant tensor:
#      x y z
#    x 2.028320 0.000000 0.060980 
#    y 0.000000 1.927130 0.000000 
#    z 0.060980 0.000000 2.139370 
# 
# From -- ./inp_files/121943.got.cif
#   From: 2010.05.17/outbox.cif.g08.bks.cpg/sg15_61_cif.got.tgz:121943.got - 2010.06.03 18:47:42.
