data_PCOD9307487
_publ_section_title
;
Structure prediction by ZEFSAII (Michael W. Deem and Ramdas Pophale) SiO2 
 PCOD9307487
Probable space group: C 2/C
;
_chemical_formula_sum "Si O2"
_cell_formula_units_Z 40
_cell_length_a 21.829148
_cell_length_b 9.509371
_cell_length_c 8.341564
_cell_angle_alpha 90.000000
_cell_angle_beta 91.132124
_cell_angle_gamma 90.000000
_cell_volume 1731.216078
_symmetry_space_group_name_H-M "C 2/C"
_symmetry_group_IT_number 15
_symmetry_cell_setting 'monoclinic'
loop_
_space_group_symop_operation_xyz
x,y,z
-x,y,1/2-z
-x,-y,-z
x,-y,1/2+z
1/2+x,1/2+y,z
1/2-x,1/2+y,1/2-z
1/2-x,1/2-y,-z
1/2+x,1/2-y,1/2+z
loop_
_atom_site_type_symbol
_atom_site_label
_atom_site_fract_x
_atom_site_fract_y
_atom_site_fract_z
Si Si1 0.818492 0.950367 0.287345
Si Si2 0.633010 0.791850 0.517065
Si Si3 0.501819 0.661535 0.557573
Si Si4 0.368650 0.295740 0.976958
Si Si5 0.678004 0.953241 0.206419
O O1 0.823766 0.839797 0.434465
O O2 0.849546 0.872162 0.139805
O O3 0.748811 0.984797 0.242535
O O4 0.854534 0.089574 0.339118
O O5 0.564420 0.733543 0.506181
O O6 0.651605 0.871038 0.357117
O O7 0.641755 0.907102 0.657601
O O8 0.500000 0.663965 0.750000
O O9 0.500000 0.500000 0.500000
O O10 0.440694 0.735150 0.487877
O O11 0.329315 0.157588 0.939699
#
# Coordination Sequence:
#
# PCOD9307487 Si02
#       5
#     8   8   8   8   8
#     4  12  23  46  74 105 143 189 238 289 350 431
#     4  12  26  46  71 103 147 186 237 293 355 419
#     4  12  26  48  75 101 140 183 247 289 343 427
#     4  12  24  44  74 104 142 189 238 293 350 414
#     4  12  27  45  70 109 145 185 234 294 364 418
#
# _framework density 23.105146000000001
#
# number of rings (size 3 to 8) (size 9 to 14) (size 15 to 20)
#    0.000    0.000    4.000    6.000    2.800    0.800 
#    0.000    0.000    0.000    0.000    0.000    0.000 
#    0.000    0.000    0.000    0.000    0.000    0.000 
#
# Total GULP energy -112219.789730 kJ/mol
# GULP energy per Si atom -5610.989486 kJ/mol
# Density = 2.305256 g / cm^3
# Si number density = 23.105146 Si / 1000 Ang^3
#
#
#
# Elastic Constant Matrix: (Units=GPa)
#
#
# Indices 1 2 3 4 5 6 
#
# 1 174.3103 40.2482 34.4030 0.0000 27.7645 0.0000
# 2 40.2482 88.3545 27.5339 0.0000 28.9265 0.0000
# 3 34.4030 27.5339 69.8165 0.0000 9.4885 0.0000
# 4 0.0000 0.0000 0.0000 41.9469 0.0000 -9.3429
# 5 27.7645 28.9265 9.4885 0.0000 36.3112 0.0000
# 6 0.0000 0.0000 0.0000 -9.3429 0.0000 -25.3710
#
#
#
# Elastic Compliance Matrix: (Units=1/GPa)
#
#
# Indices 1 2 3 4 5 6 
#
# 1 0.007121 -0.001208 -0.002513 0.000000 -0.003826 0.000000
# 2 -0.001208 0.017044 -0.004569 0.000000 -0.011460 0.000000
# 3 -0.002513 -0.004569 0.017219 0.000000 0.001061 0.000000
# 4 0.000000 0.000000 0.000000 0.022033 0.000000 -0.008114
# 5 -0.003826 -0.011460 0.001061 0.000000 0.039317 0.000000
# 6 0.000000 0.000000 0.000000 -0.008114 0.000000 -0.036427
#
#
# Mechanical properties :
#
#
# Convention : Reuss Voigt Hill
#
# Bulk Modulus (GPa) = 40.31490 59.65017 49.98253
# Shear Modulus (GPa) = 54.85186 25.93049 40.39118
#
# Velocity S-wave (km/s) = 4.87767 3.35368 4.18562
# Velocity P-wave (km/s) = 7.01488 6.39290 6.71110
#
# Compressibility (1/GPa) = 0.02480473
#
# Stress axis : x y z
#
# Youngs Moduli (GPa) = 140.42580 58.67090 58.07550
#
# Poissons Ratio (x) = 0.07090 0.14592
# Poissons Ratio (y) = 0.16969 0.26534
# Poissons Ratio (z) = 0.35283 0.26806
#
# Static dielectric constant tensor:
#      x y z
#    x 1.808080 0.000000 0.008740 
#    y 0.000000 1.839110 0.000000 
#    z 0.008740 0.000000 1.939330 
# 
# From -- ./inp_files/59999.got.cif
#   From: 2010.05.17/outbox.cif.g08.bks.cpg/sg15_30_cif.got.tgz:59999.got - 2010.06.03 18:47:42.
