data_PCOD9307212
_publ_section_title
;
Structure prediction by ZEFSAII (Michael W. Deem and Ramdas Pophale) SiO2 
 PCOD9307212
Probable space group: C 2/C
;
_chemical_formula_sum "Si O2"
_cell_formula_units_Z 48
_cell_length_a 8.124543
_cell_length_b 25.735956
_cell_length_c 13.646592
_cell_angle_alpha 90.000000
_cell_angle_beta 137.017614
_cell_angle_gamma 90.000000
_cell_volume 1945.376058
_symmetry_space_group_name_H-M "C 2/C"
_symmetry_group_IT_number 15
_symmetry_cell_setting 'monoclinic'
loop_
_space_group_symop_operation_xyz
x,y,z
-x,y,1/2-z
-x,-y,-z
x,-y,1/2+z
1/2+x,1/2+y,z
1/2-x,1/2+y,1/2-z
1/2-x,1/2-y,-z
1/2+x,1/2-y,1/2+z
loop_
_atom_site_type_symbol
_atom_site_label
_atom_site_fract_x
_atom_site_fract_y
_atom_site_fract_z
Si Si1 0.000000 0.544108 0.750000
Si Si2 0.247584 0.285349 0.399167
Si Si3 0.495310 0.606378 0.997338
Si Si4 0.515532 0.215555 0.373972
Si Si5 0.000000 0.052178 0.750000
Si Si6 0.764521 0.034574 0.241077
Si Si7 0.896951 0.393958 0.500087
O O1 0.759972 0.577326 0.626125
O O2 0.946149 0.502617 0.812139
O O3 0.250000 0.250000 0.500000
O O4 0.436369 0.332945 0.490241
O O5 0.306027 0.249194 0.330879
O O6 0.000000 0.309904 0.250000
O O7 0.638495 0.579263 0.147059
O O8 0.686737 0.599666 0.991867
O O9 0.500000 0.206268 0.250000
O O10 0.750000 0.250000 0.500000
O O11 0.522243 0.163768 0.442426
O O12 0.770086 0.089258 0.662570
O O13 0.019315 0.007021 0.676008
O O14 0.625583 0.068006 0.098562
#
# Coordination Sequence:
#
# PCOD9307212 Si02
#       7
#     4   8   8   8   4   8   8
#     4  12  22  42  72 100 140 190 246 298 368 462
#     4  12  29  50  77 114 157 199 258 328 398 463
#     4  12  24  47  75 106 143 201 248 310 388 462
#     4  12  27  48  81 110 149 201 261 320 385 466
#     4  12  28  46  70 116 152 196 252 324 384 456
#     4  12  25  45  73 106 147 193 251 309 378 455
#     4  12  26  46  75 108 149 196 262 310 389 459
#
# _framework density 24.673893
#
# number of rings (size 3 to 8) (size 9 to 14) (size 15 to 20)
#    0.000    0.000    5.833    4.000    3.500    4.000 
#    0.000    0.000    0.000    0.000    0.000    0.000 
#    0.000    0.000    0.000    0.000    0.000    0.000 
#
# Total GULP energy -133866.417351 kJ/mol
# GULP energy per Si atom -5577.767390 kJ/mol
# Density = 2.461773 g / cm^3
# Si number density = 24.673893 Si / 1000 Ang^3
#
#
#
# Elastic Constant Matrix: (Units=GPa)
#
#
# Indices 1 2 3 4 5 6 
#
# 1 47.6154 20.7163 -1.3121 0.0000 2.1711 0.0000
# 2 20.7163 170.5913 27.1448 0.0000 -1.0704 0.0000
# 3 -1.3121 27.1448 100.3804 0.0000 6.1908 0.0000
# 4 0.0000 0.0000 0.0000 42.6167 0.0000 4.8739
# 5 2.1711 -1.0704 6.1908 0.0000 32.1846 0.0000
# 6 0.0000 0.0000 0.0000 4.8739 0.0000 27.7607
#
#
#
# Elastic Compliance Matrix: (Units=1/GPa)
#
#
# Indices 1 2 3 4 5 6 
#
# 1 0.022389 -0.002921 0.001196 0.000000 -0.001837 0.000000
# 2 -0.002921 0.006515 -0.001848 0.000000 0.000769 0.000000
# 3 0.001196 -0.001848 0.010612 0.000000 -0.002183 0.000000
# 4 0.000000 0.000000 0.000000 0.023946 0.000000 -0.004204
# 5 -0.001837 0.000769 -0.002183 0.000000 0.031640 0.000000
# 6 0.000000 0.000000 0.000000 -0.004204 0.000000 0.036760
#
#
# Mechanical properties :
#
#
# Convention : Reuss Voigt Hill
#
# Bulk Modulus (GPa) = 30.89121 45.74280 38.31700
# Shear Modulus (GPa) = 33.37824 38.64827 36.01325
#
# Velocity S-wave (km/s) = 3.68200 3.96202 3.82458
# Velocity P-wave (km/s) = 5.53382 6.28565 5.92168
#
# Compressibility (1/GPa) = 0.03237167
#
# Stress axis : x y z
#
# Youngs Moduli (GPa) = 44.66467 153.48120 94.23294
#
# Poissons Ratio (x) = 0.44827 -0.11268
# Poissons Ratio (y) = 0.13045 0.17410
# Poissons Ratio (z) = -0.05341 0.28356
#
# Static dielectric constant tensor:
#      x y z
#    x 2.150080 0.000000 -0.018810 
#    y 0.000000 1.920980 0.000000 
#    z -0.018810 0.000000 2.252200 
# 
# From -- ./inp_files/139078.got.cif
#   From: 2010.05.17/outbox.cif.g08.bks.cpg/sg15_70_cif.got.tgz:139078.got - 2010.06.03 18:47:42.
