data_PCOD9307109
_publ_section_title
;
Structure prediction by ZEFSAII (Michael W. Deem and Ramdas Pophale) SiO2 
 PCOD9307109
Probable space group: C 2/C
;
_chemical_formula_sum "Si O2"
_cell_formula_units_Z 40
_cell_length_a 12.599208
_cell_length_b 8.596673
_cell_length_c 26.273732
_cell_angle_alpha 90.000000
_cell_angle_beta 143.977458
_cell_angle_gamma 90.000000
_cell_volume 1673.590426
_symmetry_space_group_name_H-M "C 2/C"
_symmetry_group_IT_number 15
_symmetry_cell_setting 'monoclinic'
loop_
_space_group_symop_operation_xyz
x,y,z
-x,y,1/2-z
-x,-y,-z
x,-y,1/2+z
1/2+x,1/2+y,z
1/2-x,1/2+y,1/2-z
1/2-x,1/2-y,-z
1/2+x,1/2-y,1/2+z
loop_
_atom_site_type_symbol
_atom_site_label
_atom_site_fract_x
_atom_site_fract_y
_atom_site_fract_z
Si Si1 0.804657 0.068824 0.603779
Si Si2 0.377460 0.762919 0.828808
Si Si3 0.937515 0.163529 0.498979
Si Si4 0.867743 0.481268 0.065755
Si Si5 0.031809 0.753227 0.816291
O O1 0.661682 0.196417 0.570656
O O2 0.986953 0.154911 0.652439
O O3 0.686500 0.983732 0.513763
O O4 0.880205 0.919848 0.662366
O O5 0.166753 0.761630 0.735994
O O6 0.440714 0.941096 0.849329
O O7 0.416005 0.719270 0.903081
O O8 0.769929 0.111227 0.468104
O O9 0.000000 0.000000 0.500000
O O10 0.849956 0.334047 0.095236
O O11 0.000000 0.667155 0.750000
#
# Coordination Sequence:
#
# PCOD9307109 Si02
#       5
#     8   8   8   8   8
#     4   9  20  38  58  80 112 154 197 233 284 360
#     4   9  19  37  59  79 108 153 198 234 282 349
#     4   9  17  36  60  83 110 150 196 241 285 341
#     4   9  19  37  59  78 108 156 198 228 282 356
#     4  12  22  34  53  88 121 145 185 250 298 332
#
# _framework density 23.900711000000001
#
# number of rings (size 3 to 8) (size 9 to 14) (size 15 to 20)
#    0.000    2.400    0.000    5.400    0.000    0.000 
#    0.000   25.000    0.000    0.000    0.000    0.000 
#    0.000    0.000    0.000    0.000    0.000    0.000 
#
# Total GULP energy -111356.115456 kJ/mol
# GULP energy per Si atom -5567.805773 kJ/mol
# Density = 2.384631 g / cm^3
# Si number density = 23.900711 Si / 1000 Ang^3
#
#
#
# Elastic Constant Matrix: (Units=GPa)
#
#
# Indices 1 2 3 4 5 6 
#
# 1 37.8648 20.0244 0.3098 0.0000 10.6149 0.0000
# 2 20.0244 128.6507 26.7696 0.0000 -0.3239 0.0000
# 3 0.3098 26.7696 64.1921 0.0000 11.1838 0.0000
# 4 0.0000 0.0000 0.0000 38.3417 0.0000 7.5723
# 5 10.6149 -0.3239 11.1838 0.0000 29.3099 0.0000
# 6 0.0000 0.0000 0.0000 7.5723 0.0000 36.4511
#
#
#
# Elastic Compliance Matrix: (Units=1/GPa)
#
#
# Indices 1 2 3 4 5 6 
#
# 1 0.033667 -0.006302 0.004930 0.000000 -0.014143 0.000000
# 2 -0.006302 0.009757 -0.004772 0.000000 0.004211 0.000000
# 3 0.004930 -0.004772 0.019137 0.000000 -0.009140 0.000000
# 4 0.000000 0.000000 0.000000 0.027197 0.000000 -0.005650
# 5 -0.014143 0.004211 -0.009140 0.000000 0.042774 0.000000
# 6 0.000000 0.000000 0.000000 -0.005650 0.000000 0.028608
#
#
# Mechanical properties :
#
#
# Convention : Reuss Voigt Hill
#
# Bulk Modulus (GPa) = 19.89153 36.10169 27.99661
# Shear Modulus (GPa) = 26.28994 33.06081 29.67537
#
# Velocity S-wave (km/s) = 3.32017 3.72325 3.52747
# Velocity P-wave (km/s) = 4.79986 5.79837 5.32258
#
# Compressibility (1/GPa) = 0.05027265
#
# Stress axis : x y z
#
# Youngs Moduli (GPa) = 29.70281 102.48580 52.25464
#
# Poissons Ratio (x) = 0.64582 -0.25759
# Poissons Ratio (y) = 0.18717 0.24938
# Poissons Ratio (z) = -0.14642 0.48910
#
# Static dielectric constant tensor:
#      x y z
#    x 1.976520 0.000000 0.011800 
#    y 0.000000 1.985860 0.000000 
#    z 0.011800 0.000000 1.930700 
# 
# From -- ./inp_files/242096.got.cif
#   From: 2010.05.17/outbox.cif.g08.bks.cpg/sg15_122_cif.got.tgz:242096.got - 2010.06.03 18:47:42.
