data_PCOD9307664
_publ_section_title
;
Structure prediction by ZEFSAII (Michael W. Deem and Ramdas Pophale) SiO2 
 PCOD9307664
Probable space group: C 2/C
;
_chemical_formula_sum "Si O2"
_cell_formula_units_Z 36
_cell_length_a 17.463757
_cell_length_b 16.223351
_cell_length_c 8.071842
_cell_angle_alpha 90.000000
_cell_angle_beta 44.193420
_cell_angle_gamma 90.000000
_cell_volume 1594.172241
_symmetry_space_group_name_H-M "C 2/C"
_symmetry_group_IT_number 15
_symmetry_cell_setting 'monoclinic'
loop_
_space_group_symop_operation_xyz
x,y,z
-x,y,1/2-z
-x,-y,-z
x,-y,1/2+z
1/2+x,1/2+y,z
1/2-x,1/2+y,1/2-z
1/2-x,1/2-y,-z
1/2+x,1/2-y,1/2+z
loop_
_atom_site_type_symbol
_atom_site_label
_atom_site_fract_x
_atom_site_fract_y
_atom_site_fract_z
Si Si1 0.000000 0.633925 0.250000
Si Si2 0.365753 0.747113 0.727975
Si Si3 0.629067 0.118572 0.515787
Si Si4 0.433175 0.573648 0.517224
Si Si5 0.691614 0.038396 0.760245
O O1 0.950817 0.693093 0.186416
O O2 0.903073 0.580206 0.481098
O O3 0.347376 0.787828 0.574901
O O4 0.414815 0.655909 0.651143
O O5 0.250000 0.750000 0.000000
O O6 0.500000 0.110565 0.750000
O O7 0.687468 0.082342 0.588394
O O8 0.662831 0.058351 0.311826
O O9 0.500000 0.597077 0.250000
O O10 0.500000 0.500000 0.500000
O O11 0.311395 0.546989 0.652309
#
# Coordination Sequence:
#
# PCOD9307664 Si02
#       5
#     4   8   8   8   8
#     4  12  24  46  78 118 150 204 270 320 402 466
#     4  12  28  48  76 112 157 208 262 330 395 475
#     4  12  24  44  77 115 153 191 262 327 393 467
#     4  12  30  52  74 111 159 213 263 319 404 473
#     4  12  25  46  80 115 152 207 255 328 396 472
#
# _framework density 22.582252
#
# number of rings (size 3 to 8) (size 9 to 14) (size 15 to 20)
#    0.000    0.000    5.556    4.000    4.667    2.667 
#    0.000    0.000    0.000    0.000    0.000    0.000 
#    0.000    0.000    0.000    0.000    0.000    0.000 
#
# Total GULP energy -100834.093277 kJ/mol
# GULP energy per Si atom -5601.894071 kJ/mol
# Density = 2.253085 g / cm^3
# Si number density = 22.582252 Si / 1000 Ang^3
#
#
#
# Elastic Constant Matrix: (Units=GPa)
#
#
# Indices 1 2 3 4 5 6 
#
# 1 126.5259 56.6860 42.0543 0.0000 -14.4463 0.0000
# 2 56.6860 152.6392 42.6369 0.0000 -10.4647 0.0000
# 3 42.0543 42.6369 115.0794 0.0000 -23.2278 0.0000
# 4 0.0000 0.0000 0.0000 46.5849 0.0000 11.0799
# 5 -14.4463 -10.4647 -23.2278 0.0000 46.1085 0.0000
# 6 0.0000 0.0000 0.0000 11.0799 0.0000 22.0415
#
#
#
# Elastic Compliance Matrix: (Units=1/GPa)
#
#
# Indices 1 2 3 4 5 6 
#
# 1 0.010193 -0.003044 -0.002329 0.000000 0.001330 0.000000
# 2 -0.003044 0.008221 -0.001947 0.000000 -0.000069 0.000000
# 3 -0.002329 -0.001947 0.011161 0.000000 0.004451 0.000000
# 4 0.000000 0.000000 0.000000 0.024381 0.000000 -0.012256
# 5 0.001330 -0.000069 0.004451 0.000000 0.024331 0.000000
# 6 0.000000 0.000000 0.000000 -0.012256 0.000000 0.051530
#
#
# Mechanical properties :
#
#
# Convention : Reuss Voigt Hill
#
# Bulk Modulus (GPa) = 66.95916 75.22210 71.09063
# Shear Modulus (GPa) = 33.45937 39.80480 36.63209
#
# Velocity S-wave (km/s) = 3.85342 4.20296 4.03198
# Velocity P-wave (km/s) = 7.03662 7.54558 7.29554
#
# Compressibility (1/GPa) = 0.01493448
#
# Stress axis : x y z
#
# Youngs Moduli (GPa) = 98.10618 121.63919 89.60120
#
# Poissons Ratio (x) = 0.37024 0.20867
# Poissons Ratio (y) = 0.29861 0.17450
# Poissons Ratio (z) = 0.22847 0.23689
#
# Static dielectric constant tensor:
#      x y z
#    x 1.877220 0.000000 0.054850 
#    y 0.000000 1.882780 0.000000 
#    z 0.054850 0.000000 1.795680 
# 
# From -- ./inp_files/48260.got.cif
#   From: 2010.05.17/outbox.cif.g08.bks.cpg/sg15_25_cif.got.tgz:48260.got - 2010.06.03 18:47:42.
