data_PCOD9307332
_publ_section_title
;
Structure prediction by ZEFSAII (Michael W. Deem and Ramdas Pophale) SiO2 
 PCOD9307332
Probable space group: C 2/C
;
_chemical_formula_sum "Si O2"
_cell_formula_units_Z 40
_cell_length_a 11.338586
_cell_length_b 13.035455
_cell_length_c 17.557765
_cell_angle_alpha 90.000000
_cell_angle_beta 137.361092
_cell_angle_gamma 90.000000
_cell_volume 1757.858540
_symmetry_space_group_name_H-M "C 2/C"
_symmetry_group_IT_number 15
_symmetry_cell_setting 'monoclinic'
loop_
_space_group_symop_operation_xyz
x,y,z
-x,y,1/2-z
-x,-y,-z
x,-y,1/2+z
1/2+x,1/2+y,z
1/2-x,1/2+y,1/2-z
1/2-x,1/2-y,-z
1/2+x,1/2-y,1/2+z
loop_
_atom_site_type_symbol
_atom_site_label
_atom_site_fract_x
_atom_site_fract_y
_atom_site_fract_z
Si Si1 0.814971 0.893071 0.651185
Si Si2 0.635093 0.591932 0.069552
Si Si3 0.256887 0.911907 0.469426
Si Si4 0.447640 0.193175 0.920673
Si Si5 0.622400 0.999744 0.699544
O O1 0.647522 0.831482 0.539680
O O2 0.000000 0.838166 0.750000
O O3 0.846318 0.988918 0.609276
O O4 0.748214 0.948318 0.696151
O O5 0.659400 0.635096 0.995243
O O6 0.576873 0.685884 0.094861
O O7 0.805361 0.539213 0.186489
O O8 0.500000 0.500000 0.000000
O O9 0.316617 0.845499 0.425674
O O10 0.436343 0.955022 0.588620
O O11 0.393374 0.121643 0.823665
#
# Coordination Sequence:
#
# PCOD9307332 Si02
#       5
#     8   8   8   8   8
#     4   9  17  37  64  87 116 157 197 237 293 362
#     4  12  23  36  58  94 123 150 200 254 295 352
#     4   9  19  39  63  86 116 155 200 248 292 346
#     4   9  21  40  62  86 119 160 198 241 304 356
#     4   9  20  38  58  83 118 158 196 240 295 354
#
# _framework density 22.754960000000001
#
# number of rings (size 3 to 8) (size 9 to 14) (size 15 to 20)
#    0.000    2.400    0.000    4.800    0.000    3.200 
#    0.000   21.000    0.000    4.800    0.000    0.000 
#    0.000    0.000    0.000    0.000    0.000    0.000 
#
# Total GULP energy -111637.366865 kJ/mol
# GULP energy per Si atom -5581.868343 kJ/mol
# Density = 2.270317 g / cm^3
# Si number density = 22.754960 Si / 1000 Ang^3
#
#
#
# Elastic Constant Matrix: (Units=GPa)
#
#
# Indices 1 2 3 4 5 6 
#
# 1 44.5570 1.3578 5.1744 0.0000 1.0681 0.0000
# 2 1.3578 125.0588 20.9876 0.0000 6.5734 0.0000
# 3 5.1744 20.9876 74.7347 0.0000 12.1480 0.0000
# 4 0.0000 0.0000 0.0000 20.2867 0.0000 -6.0110
# 5 1.0681 6.5734 12.1480 0.0000 34.8836 0.0000
# 6 0.0000 0.0000 0.0000 -6.0110 0.0000 14.4492
#
#
#
# Elastic Compliance Matrix: (Units=1/GPa)
#
#
# Indices 1 2 3 4 5 6 
#
# 1 0.022626 0.000022 -0.001547 0.000000 -0.000158 0.000000
# 2 0.000022 0.008413 -0.002233 0.000000 -0.000808 0.000000
# 3 -0.001547 -0.002233 0.014881 0.000000 -0.004714 0.000000
# 4 0.000000 0.000000 0.000000 0.056224 0.000000 0.023390
# 5 -0.000158 -0.000808 -0.004714 0.000000 0.030466 0.000000
# 6 0.000000 0.000000 0.000000 0.023390 0.000000 0.078938
#
#
# Mechanical properties :
#
#
# Convention : Reuss Voigt Hill
#
# Bulk Modulus (GPa) = 26.03824 33.26556 29.65190
# Shear Modulus (GPa) = 21.56428 28.37930 24.97179
#
# Velocity S-wave (km/s) = 3.08177 3.53536 3.31633
# Velocity P-wave (km/s) = 4.91231 5.59605 5.26529
#
# Compressibility (1/GPa) = 0.03840506
#
# Stress axis : x y z
#
# Youngs Moduli (GPa) = 44.19707 118.86085 67.19939
#
# Poissons Ratio (x) = -0.00265 0.10396
# Poissons Ratio (y) = -0.00099 0.15004
# Poissons Ratio (z) = 0.06838 0.26539
#
# Static dielectric constant tensor:
#      x y z
#    x 1.916190 0.000000 -0.030980 
#    y 0.000000 1.832360 0.000000 
#    z -0.030980 0.000000 1.846910 
# 
# From -- ./inp_files/122785.got.cif
#   From: 2010.05.17/outbox.cif.g08.bks.cpg/sg15_62_cif.got.tgz:122785.got - 2010.06.03 18:47:42.
