data_PCOD9307413
_publ_section_title
;
Structure prediction by ZEFSAII (Michael W. Deem and Ramdas Pophale) SiO2 
 PCOD9307413
Probable space group: C 2/C
;
_chemical_formula_sum "Si O2"
_cell_formula_units_Z 32
_cell_length_a 19.447207
_cell_length_b 7.417310
_cell_length_c 17.197791
_cell_angle_alpha 90.000000
_cell_angle_beta 32.938812
_cell_angle_gamma 90.000000
_cell_volume 1348.869945
_symmetry_space_group_name_H-M "C 2/C"
_symmetry_group_IT_number 15
_symmetry_cell_setting 'monoclinic'
loop_
_space_group_symop_operation_xyz
x,y,z
-x,y,1/2-z
-x,-y,-z
x,-y,1/2+z
1/2+x,1/2+y,z
1/2-x,1/2+y,1/2-z
1/2-x,1/2-y,-z
1/2+x,1/2-y,1/2+z
loop_
_atom_site_type_symbol
_atom_site_label
_atom_site_fract_x
_atom_site_fract_y
_atom_site_fract_z
Si Si1 0.118008 0.793585 0.082997
Si Si2 0.398905 0.941549 0.160122
Si Si3 0.734989 0.312351 0.184963
Si Si4 0.989795 0.065519 0.102566
O O1 0.000000 0.753333 0.250000
O O2 0.250000 0.750000 0.000000
O O3 0.138526 0.675941 0.986241
O O4 0.093299 0.985910 0.064000
O O5 0.280070 0.842907 0.229915
O O6 0.469147 0.776482 0.135033
O O7 0.337462 0.121524 0.254163
O O8 0.500000 0.000000 0.000000
O O9 0.638472 0.464595 0.251463
O O10 0.000000 0.000000 0.000000
#
# Coordination Sequence:
#
# PCOD9307413 Si02
#       4
#     8   8   8   8
#     4  12  26  47  78 110 158 215 257 321 405 480
#     4  12  24  40  75 117 152 196 269 337 389 468
#     4  12  23  43  73 109 157 204 257 328 402 463
#     4  12  23  45  75 111 151 203 263 323 395 475
#
# _framework density 23.723559999999999
#
# number of rings (size 3 to 8) (size 9 to 14) (size 15 to 20)
#    0.000    0.000   10.000    0.000    0.000    0.000 
#    0.000    1.250   11.000    0.000    0.000    0.000 
#    0.000    0.000    0.000    0.000    0.000    0.000 
#
# Total GULP energy -89229.283761 kJ/mol
# GULP energy per Si atom -5576.830235 kJ/mol
# Density = 2.366956 g / cm^3
# Si number density = 23.723560 Si / 1000 Ang^3
#
#
#
# Elastic Constant Matrix: (Units=GPa)
#
#
# Indices 1 2 3 4 5 6 
#
# 1 124.7958 41.5713 14.7722 -0.0001 -19.7605 0.0000
# 2 41.5713 159.2303 57.3273 -0.0007 -5.6940 0.0005
# 3 14.7722 57.3273 167.1577 -0.0001 2.8843 0.0001
# 4 -0.0001 -0.0007 -0.0001 31.0093 0.0001 -10.8599
# 5 -19.7605 -5.6940 2.8843 0.0001 34.5543 -0.0001
# 6 0.0000 0.0005 0.0001 -10.8599 -0.0001 49.5634
#
#
#
# Elastic Compliance Matrix: (Units=1/GPa)
#
#
# Indices 1 2 3 4 5 6 
#
# 1 0.009599 -0.002265 -0.000160 0.000000 0.005129 0.000000
# 2 -0.002265 0.007766 -0.002467 0.000000 0.000190 0.000000
# 3 -0.000160 -0.002467 0.006861 0.000000 -0.001071 0.000000
# 4 0.000000 0.000000 0.000000 0.034929 0.000000 0.007653
# 5 0.005129 0.000190 -0.001071 0.000000 0.031994 0.000000
# 6 0.000000 0.000000 0.000000 0.007653 0.000000 0.021853
#
#
# Mechanical properties :
#
#
# Convention : Reuss Voigt Hill
#
# Bulk Modulus (GPa) = 69.23845 75.39170 72.31507
# Shear Modulus (GPa) = 39.18518 45.52627 42.35573
#
# Velocity S-wave (km/s) = 4.06857 4.38543 4.22997
# Velocity P-wave (km/s) = 7.16379 7.58227 7.37600
#
# Compressibility (1/GPa) = 0.01444284
#
# Stress axis : x y z
#
# Youngs Moduli (GPa) = 104.18069 128.75958 145.75282
#
# Poissons Ratio (x) = 0.29164 0.02332
# Poissons Ratio (y) = 0.23597 0.35952
# Poissons Ratio (z) = 0.01667 0.31760
#
# Static dielectric constant tensor:
#      x y z
#    x 2.156600 0.000000 0.017050 
#    y 0.000000 1.951740 0.000000 
#    z 0.017050 0.000000 1.980260 
# 
# From -- ./inp_files/213640.got.cif
#   From: 2010.05.17/outbox.cif.g08.bks.cpg/sg15_107_cif.got.tgz:213640.got - 2010.06.03 18:47:42.
