data_PCOD9307069
_publ_section_title
;
Structure prediction by ZEFSAII (Michael W. Deem and Ramdas Pophale) SiO2 
 PCOD9307069
Probable space group: C 2/C
;
_chemical_formula_sum "Si O2"
_cell_formula_units_Z 56
_cell_length_a 21.933786
_cell_length_b 11.591002
_cell_length_c 19.836700
_cell_angle_alpha 90.000000
_cell_angle_beta 158.498288
_cell_angle_gamma 90.000000
_cell_volume 1848.469898
_symmetry_space_group_name_H-M "C 2/C"
_symmetry_group_IT_number 15
_symmetry_cell_setting 'monoclinic'
loop_
_space_group_symop_operation_xyz
x,y,z
-x,y,1/2-z
-x,-y,-z
x,-y,1/2+z
1/2+x,1/2+y,z
1/2-x,1/2+y,1/2-z
1/2-x,1/2-y,-z
1/2+x,1/2-y,1/2+z
loop_
_atom_site_type_symbol
_atom_site_label
_atom_site_fract_x
_atom_site_fract_y
_atom_site_fract_z
Si Si1 0.693093 0.886687 0.670475
Si Si2 0.000000 0.805134 0.750000
Si Si3 0.500000 0.146884 0.250000
Si Si4 0.045448 0.183310 0.901550
Si Si5 0.219141 0.849967 0.272691
Si Si6 0.857583 0.543719 0.761833
Si Si7 0.034742 0.790113 0.945528
Si Si8 0.261779 0.492927 0.992583
O O1 0.662369 0.923934 0.718620
O O2 0.863924 0.847652 0.802114
O O3 0.698555 0.029930 0.660931
O O4 0.506312 0.865659 0.436821
O O5 0.984338 0.756609 0.656882
O O6 0.842557 0.890291 0.598193
O O7 0.437504 0.231469 0.244313
O O8 0.336575 0.081608 0.055328
O O9 0.159564 0.269492 0.061176
O O10 0.117235 0.088288 0.925443
O O11 0.941496 0.119093 0.850746
O O12 0.154103 0.764817 0.144675
O O13 0.680258 0.609934 0.581211
O O14 0.883664 0.517165 0.710783
#
# Coordination Sequence:
#
# PCOD9307069 Si02
#       8
#     8   4   4   8   8   8   8   8
#     4   7  14  36  65  97 122 168 220 287 331 414
#     4  12  27  43  66 100 152 186 246 287 353 410
#     4  12  27  43  66 100 140 188 230 289 381 426
#     4  12  21  43  69 105 132 178 231 311 367 426
#     4   9  21  37  73  97 137 171 237 287 370 409
#     4   8  15  36  66  92 128 164 231 269 338 402
#     4   8  20  41  65  99 134 190 223 291 342 417
#     4  12  25  42  65  99 139 188 228 293 349 444
#
# _framework density 30.295327
#
# number of rings (size 3 to 8) (size 9 to 14) (size 15 to 20)
#    1.714    0.286    2.857    0.857    2.000    3.429 
#    0.000    3.571    6.286    0.000    0.000    0.000 
#    0.000    0.000    0.000    0.000    0.000    0.000 
#
# Total GULP energy -156466.623917 kJ/mol
# GULP energy per Si atom -5588.093711 kJ/mol
# Density = 3.022637 g / cm^3
# Si number density = 30.295327 Si / 1000 Ang^3
#
#
#
# Elastic Constant Matrix: (Units=GPa)
#
#
# Indices 1 2 3 4 5 6 
#
# 1 142.1762 71.6607 71.8490 0.0000 14.7655 -0.0001
# 2 71.6607 224.8348 85.3252 -0.0001 -6.8108 0.0001
# 3 71.8490 85.3252 142.3766 -0.0010 -3.8991 -0.0002
# 4 0.0000 -0.0001 -0.0010 68.1361 -0.0006 15.5310
# 5 14.7655 -6.8108 -3.8991 -0.0006 66.6535 -0.0001
# 6 -0.0001 0.0001 -0.0002 15.5310 -0.0001 50.6753
#
#
#
# Elastic Compliance Matrix: (Units=1/GPa)
#
#
# Indices 1 2 3 4 5 6 
#
# 1 0.010350 -0.001774 -0.004234 0.000000 -0.002722 0.000000
# 2 -0.001774 0.006071 -0.002720 0.000000 0.000854 0.000000
# 3 -0.004234 -0.002720 0.010826 0.000000 0.001293 0.000000
# 4 0.000000 0.000000 0.000000 0.015779 0.000000 -0.004836
# 5 -0.002722 0.000854 0.001293 0.000000 0.015769 0.000000
# 6 0.000000 0.000000 0.000000 -0.004836 0.000000 0.021216
#
#
# Mechanical properties :
#
#
# Convention : Reuss Voigt Hill
#
# Bulk Modulus (GPa) = 102.13927 107.45082 104.79505
# Shear Modulus (GPa) = 49.63714 55.79649 52.71682
#
# Velocity S-wave (km/s) = 4.05216 4.29622 4.17597
# Velocity P-wave (km/s) = 7.46197 7.75595 7.61038
#
# Compressibility (1/GPa) = 0.00979055
#
# Stress axis : x y z
#
# Youngs Moduli (GPa) = 96.61440 164.71084 92.37265
#
# Poissons Ratio (x) = 0.29227 0.39114
# Poissons Ratio (y) = 0.17144 0.25122
# Poissons Ratio (z) = 0.40910 0.44795
#
# Static dielectric constant tensor:
#      x y z
#    x 2.335250 0.000000 -0.144000 
#    y 0.000000 2.369150 0.000000 
#    z -0.144000 0.000000 2.503860 
# 
# From -- ./inp_files/56521.got.cif
#   From: 2010.05.17/outbox.cif.g08.bks.cpg/sg15_29_cif.got.tgz:56521.got - 2010.06.03 18:47:42.
