data_PCOD9307314
_publ_section_title
;
Structure prediction by ZEFSAII (Michael W. Deem and Ramdas Pophale) SiO2 
 PCOD9307314
Probable space group: C 2/C
;
_chemical_formula_sum "Si O2"
_cell_formula_units_Z 36
_cell_length_a 19.238539
_cell_length_b 6.825162
_cell_length_c 17.898024
_cell_angle_alpha 90.000000
_cell_angle_beta 41.865267
_cell_angle_gamma 90.000000
_cell_volume 1568.426330
_symmetry_space_group_name_H-M "C 2/C"
_symmetry_group_IT_number 15
_symmetry_cell_setting 'monoclinic'
loop_
_space_group_symop_operation_xyz
x,y,z
-x,y,1/2-z
-x,-y,-z
x,-y,1/2+z
1/2+x,1/2+y,z
1/2-x,1/2+y,1/2-z
1/2-x,1/2-y,-z
1/2+x,1/2-y,1/2+z
loop_
_atom_site_type_symbol
_atom_site_label
_atom_site_fract_x
_atom_site_fract_y
_atom_site_fract_z
Si Si1 0.500000 0.583809 0.250000
Si Si2 0.630797 0.785755 0.608789
Si Si3 0.115069 0.093983 0.911190
Si Si4 0.480219 0.879089 0.397469
Si Si5 0.667088 0.890735 0.746984
O O1 0.417776 0.430017 0.348882
O O2 0.521270 0.727645 0.301780
O O3 0.750000 0.750000 0.500000
O O4 0.624440 0.873478 0.697085
O O5 0.580689 0.937118 0.590593
O O6 0.147574 0.190398 0.806524
O O7 0.212729 0.954608 0.851777
O O8 0.098859 0.264210 0.985562
O O9 0.000000 0.000000 0.000000
O O10 0.586647 0.956682 0.350169
#
# Coordination Sequence:
#
# PCOD9307314 Si02
#       5
#     4   8   8   8   8
#     4  12  22  48  72 110 150 180 242 304 366 426
#     4  12  27  44  79 109 144 191 244 305 368 438
#     4  12  29  47  77 105 152 203 243 304 372 444
#     4  12  26  49  76 113 146 192 251 303 369 444
#     4  12  26  50  70 111 147 193 247 304 370 438
#
# _framework density 22.952943999999999
#
# number of rings (size 3 to 8) (size 9 to 14) (size 15 to 20)
#    0.000    0.000    4.444    4.667    9.333    1.778 
#    0.000    0.000    0.000    0.000    0.000    0.000 
#    0.000    0.000    0.000    0.000    0.000    0.000 
#
# Total GULP energy -100654.361054 kJ/mol
# GULP energy per Si atom -5591.908947 kJ/mol
# Density = 2.290070 g / cm^3
# Si number density = 22.952944 Si / 1000 Ang^3
#
#
#
# Elastic Constant Matrix: (Units=GPa)
#
#
# Indices 1 2 3 4 5 6 
#
# 1 77.9604 44.4047 31.2782 -0.0002 -21.3440 0.0002
# 2 44.4047 118.2991 41.7192 -0.0018 -23.5628 0.0019
# 3 31.2782 41.7192 88.2105 -0.0003 -18.9545 0.0006
# 4 -0.0002 -0.0018 -0.0003 63.1125 0.0003 2.5906
# 5 -21.3440 -23.5628 -18.9545 0.0003 44.3718 -0.0002
# 6 0.0002 0.0019 0.0006 2.5906 -0.0002 38.2978
#
#
#
# Elastic Compliance Matrix: (Units=1/GPa)
#
#
# Indices 1 2 3 4 5 6 
#
# 1 0.018108 -0.004720 -0.003144 0.000000 0.004861 0.000000
# 2 -0.004720 0.011951 -0.003416 0.000000 0.002616 -0.000001
# 3 -0.003144 -0.003416 0.014702 0.000000 0.002954 0.000000
# 4 0.000000 0.000000 0.000000 0.015889 0.000000 -0.001075
# 5 0.004861 0.002616 0.002954 0.000000 0.027526 0.000000
# 6 0.000000 -0.000001 0.000000 -0.001075 0.000000 0.026184
#
#
# Mechanical properties :
#
#
# Convention : Reuss Voigt Hill
#
# Bulk Modulus (GPa) = 45.04546 57.69712 51.37129
# Shear Modulus (GPa) = 34.64544 40.29428 37.46986
#
# Velocity S-wave (km/s) = 3.88933 4.19443 4.04476
# Velocity P-wave (km/s) = 6.31165 6.97491 6.65155
#
# Compressibility (1/GPa) = 0.02219980
#
# Stress axis : x y z
#
# Youngs Moduli (GPa) = 55.22552 83.67671 68.01926
#
# Poissons Ratio (x) = 0.39495 0.21385
# Poissons Ratio (y) = 0.26066 0.23237
# Poissons Ratio (z) = 0.17362 0.28586
#
# Static dielectric constant tensor:
#      x y z
#    x 1.864250 0.000000 0.062180 
#    y 0.000000 1.944870 0.000000 
#    z 0.062180 0.000000 1.904910 
# 
# From -- ./inp_files/179937.got.cif
#   From: 2010.05.17/outbox.cif.g08.bks.cpg/sg15_90_cif.got.tgz:179937.got - 2010.06.03 18:47:42.
