data_PCOD9307028
_publ_section_title
;
Structure prediction by ZEFSAII (Michael W. Deem and Ramdas Pophale) SiO2 
 PCOD9307028
Probable space group: C 2/C
;
_chemical_formula_sum "Si O2"
_cell_formula_units_Z 40
_cell_length_a 9.500323
_cell_length_b 10.610269
_cell_length_c 23.951142
_cell_angle_alpha 90.000000
_cell_angle_beta 142.114427
_cell_angle_gamma 90.000000
_cell_volume 1482.588184
_symmetry_space_group_name_H-M "C 2/C"
_symmetry_group_IT_number 15
_symmetry_cell_setting 'monoclinic'
loop_
_space_group_symop_operation_xyz
x,y,z
-x,y,1/2-z
-x,-y,-z
x,-y,1/2+z
1/2+x,1/2+y,z
1/2-x,1/2+y,1/2-z
1/2-x,1/2-y,-z
1/2+x,1/2-y,1/2+z
loop_
_atom_site_type_symbol
_atom_site_label
_atom_site_fract_x
_atom_site_fract_y
_atom_site_fract_z
Si Si1 0.215910 0.014432 0.953717
Si Si2 0.348054 0.350753 0.402798
Si Si3 0.193662 0.246144 0.098303
Si Si4 0.937672 0.386070 0.851783
Si Si5 0.019943 0.791713 0.664160
O O1 0.262572 0.122071 0.921503
O O2 0.968657 0.038740 0.905855
O O3 0.411507 0.021731 0.062584
O O4 0.195238 0.877895 0.920673
O O5 0.489893 0.329784 0.503728
O O6 0.422390 0.234732 0.387167
O O7 0.082630 0.327390 0.334215
O O8 0.409726 0.156795 0.152630
O O9 0.145784 0.257885 0.148532
O O10 0.678711 0.389171 0.748721
#
# Coordination Sequence:
#
# PCOD9307028 Si02
#       5
#     8   8   8   8   8
#     4   9  22  44  62  87 131 170 197 252 327 366
#     4   9  20  41  62  87 124 161 205 260 310 365
#     4   9  20  41  62  87 124 161 205 260 310 365
#     4   9  20  40  60  88 134 162 196 266 310 357
#     4  12  21  38  68  95 119 164 219 254 298 375
#
# _framework density 26.979842999999999
#
# number of rings (size 3 to 8) (size 9 to 14) (size 15 to 20)
#    0.000    2.400    0.000    4.200    0.000    6.400 
#    0.000   36.000    0.000    0.000    0.000    0.000 
#    0.000    0.000    0.000    0.000    0.000    0.000 
#
# Total GULP energy -111859.808269 kJ/mol
# GULP energy per Si atom -5592.990413 kJ/mol
# Density = 2.691844 g / cm^3
# Si number density = 26.979843 Si / 1000 Ang^3
#
#
#
# Elastic Constant Matrix: (Units=GPa)
#
#
# Indices 1 2 3 4 5 6 
#
# 1 143.5149 32.2629 54.0451 0.0000 11.2570 0.0000
# 2 32.2629 80.2443 17.8332 0.0000 -9.4335 0.0000
# 3 54.0451 17.8332 107.5177 0.0000 -4.2088 0.0000
# 4 0.0000 0.0000 0.0000 25.1704 0.0000 -1.4376
# 5 11.2570 -9.4335 -4.2088 0.0000 32.6468 0.0000
# 6 0.0000 0.0000 0.0000 -1.4376 0.0000 45.0285
#
#
#
# Elastic Compliance Matrix: (Units=1/GPa)
#
#
# Indices 1 2 3 4 5 6 
#
# 1 0.009882 -0.003547 -0.004576 0.000000 -0.005022 0.000000
# 2 -0.003547 0.014617 -0.000431 0.000000 0.005391 0.000000
# 3 -0.004576 -0.000431 0.011789 0.000000 0.002973 0.000000
# 4 0.000000 0.000000 0.000000 0.039802 0.000000 0.001271
# 5 -0.005022 0.005391 0.002973 0.000000 0.034304 0.000000
# 6 0.000000 0.000000 0.000000 0.001271 0.000000 0.022249
#
#
# Mechanical properties :
#
#
# Convention : Reuss Voigt Hill
#
# Bulk Modulus (GPa) = 52.13204 59.95104 56.04154
# Shear Modulus (GPa) = 32.02188 35.71152 33.86670
#
# Velocity S-wave (km/s) = 3.44885 3.64213 3.54681
# Velocity P-wave (km/s) = 5.93498 6.32105 6.13106
#
# Compressibility (1/GPa) = 0.01918206
#
# Stress axis : x y z
#
# Youngs Moduli (GPa) = 101.19027 68.41138 84.82705
#
# Poissons Ratio (x) = 0.24264 0.38815
# Poissons Ratio (y) = 0.35890 0.03653
# Poissons Ratio (z) = 0.46303 0.02946
#
# Static dielectric constant tensor:
#      x y z
#    x 2.195840 0.000000 0.180170 
#    y 0.000000 2.041800 0.000000 
#    z 0.180170 0.000000 2.386130 
# 
# From -- ./inp_files/264525.got.cif
#   From: 2010.05.17/outbox.cif.g08.bks.cpg/sg15_133_cif.got.tgz:264525.got - 2010.06.03 18:47:42.
