data_PCOD9307902
_publ_section_title
;
Structure prediction by ZEFSAII (Michael W. Deem and Ramdas Pophale) SiO2 
 PCOD9307902
Probable space group: C 2/C
;
_chemical_formula_sum "Si O2"
_cell_formula_units_Z 40
_cell_length_a 29.436554
_cell_length_b 7.781423
_cell_length_c 8.284929
_cell_angle_alpha 90.000000
_cell_angle_beta 69.530850
_cell_angle_gamma 90.000000
_cell_volume 1777.909972
_symmetry_space_group_name_H-M "C 2/C"
_symmetry_group_IT_number 15
_symmetry_cell_setting 'monoclinic'
loop_
_space_group_symop_operation_xyz
x,y,z
-x,y,1/2-z
-x,-y,-z
x,-y,1/2+z
1/2+x,1/2+y,z
1/2-x,1/2+y,1/2-z
1/2-x,1/2-y,-z
1/2+x,1/2-y,1/2+z
loop_
_atom_site_type_symbol
_atom_site_label
_atom_site_fract_x
_atom_site_fract_y
_atom_site_fract_z
Si Si1 0.400620 0.347741 0.857903
Si Si2 0.197047 0.315535 0.509338
Si Si3 0.538671 0.057595 0.822014
Si Si4 0.404676 0.286428 0.231989
Si Si5 0.303401 0.794896 0.376026
O O1 0.421906 0.205484 0.707449
O O2 0.421076 0.534676 0.790810
O O3 0.343034 0.332911 0.901142
O O4 0.410262 0.295554 0.031206
O O5 0.250000 0.250000 0.500000
O O6 0.152090 0.225920 0.653884
O O7 0.193444 0.292183 0.321478
O O8 0.188905 0.514107 0.565634
O O9 0.500000 0.140523 0.750000
O O10 0.567263 0.883032 0.739313
O O11 0.500000 0.000000 0.000000
O O12 0.250000 0.750000 0.500000
#
# Coordination Sequence:
#
# PCOD9307902 Si02
#       5
#     8   8   8   8   8
#     4  12  27  47  75 109 147 193 245 304 367 438
#     4  12  25  44  71 104 147 192 240 299 364 437
#     4  12  28  50  76 107 147 194 248 306 371 431
#     4  12  27  47  75 108 149 191 246 303 368 438
#     4  12  25  44  71 104 147 191 242 297 366 436
#
# _framework density 22.498328000000001
#
# number of rings (size 3 to 8) (size 9 to 14) (size 15 to 20)
#    0.000    0.000    4.000    6.000    5.600    1.600 
#    0.000    0.000    0.000    0.000    0.000    0.000 
#    0.000    0.000    0.000    0.000    0.000    0.000 
#
# Total GULP energy -111800.616728 kJ/mol
# GULP energy per Si atom -5590.030836 kJ/mol
# Density = 2.244712 g / cm^3
# Si number density = 22.498328 Si / 1000 Ang^3
#
#
#
# Elastic Constant Matrix: (Units=GPa)
#
#
# Indices 1 2 3 4 5 6 
#
# 1 73.3782 5.5996 9.2553 0.0000 -20.9655 0.0000
# 2 5.5996 143.7479 3.7598 0.0000 -27.8087 0.0000
# 3 9.2553 3.7598 111.9209 0.0000 -21.1001 0.0000
# 4 0.0000 0.0000 0.0000 34.1981 0.0000 -1.4491
# 5 -20.9655 -27.8087 -21.1001 0.0000 46.7763 0.0000
# 6 0.0000 0.0000 0.0000 -1.4491 0.0000 27.3925
#
#
#
# Elastic Compliance Matrix: (Units=1/GPa)
#
#
# Indices 1 2 3 4 5 6 
#
# 1 0.015722 0.000856 0.000104 0.000000 0.007602 0.000000
# 2 0.000856 0.007954 0.000684 0.000000 0.005421 0.000000
# 3 0.000104 0.000684 0.009824 0.000000 0.004885 0.000000
# 4 0.000000 0.000000 0.000000 0.029307 0.000000 0.001550
# 5 0.007602 0.005421 0.004885 0.000000 0.030212 0.000000
# 6 0.000000 0.000000 0.000000 0.001550 0.000000 0.036588
#
#
# Mechanical properties :
#
#
# Convention : Reuss Voigt Hill
#
# Bulk Modulus (GPa) = 27.18290 40.69738 33.94014
# Shear Modulus (GPa) = 36.07968 42.36886 39.22427
#
# Velocity S-wave (km/s) = 4.00892 4.34429 4.17997
# Velocity P-wave (km/s) = 5.79111 6.57968 6.19795
#
# Compressibility (1/GPa) = 0.03678784
#
# Stress axis : x y z
#
# Youngs Moduli (GPa) = 63.60641 125.72174 101.78924
#
# Poissons Ratio (x) = -0.10756 -0.01063
# Poissons Ratio (y) = -0.05442 -0.06962
# Poissons Ratio (z) = -0.00664 -0.08599
#
# Static dielectric constant tensor:
#      x y z
#    x 1.792560 0.000000 0.012570 
#    y 0.000000 1.868030 0.000000 
#    z 0.012570 0.000000 1.778360 
# 
# From -- ./inp_files/68263.got.cif
#   From: 2010.05.17/outbox.cif.g08.bks.cpg/sg15_35_cif.got.tgz:68263.got - 2010.06.03 18:47:42.
