data_PCOD9307216
_publ_section_title
;
Structure prediction by ZEFSAII (Michael W. Deem and Ramdas Pophale) SiO2 
 PCOD9307216
Probable space group: C 2/C
;
_chemical_formula_sum "Si O2"
_cell_formula_units_Z 44
_cell_length_a 21.062958
_cell_length_b 8.095724
_cell_length_c 19.491593
_cell_angle_alpha 90.000000
_cell_angle_beta 38.164105
_cell_angle_gamma 90.000000
_cell_volume 2053.769938
_symmetry_space_group_name_H-M "C 2/C"
_symmetry_group_IT_number 15
_symmetry_cell_setting 'monoclinic'
loop_
_space_group_symop_operation_xyz
x,y,z
-x,y,1/2-z
-x,-y,-z
x,-y,1/2+z
1/2+x,1/2+y,z
1/2-x,1/2+y,1/2-z
1/2-x,1/2-y,-z
1/2+x,1/2-y,1/2+z
loop_
_atom_site_type_symbol
_atom_site_label
_atom_site_fract_x
_atom_site_fract_y
_atom_site_fract_z
Si Si1 0.000000 0.843799 0.750000
Si Si2 0.212019 0.117784 0.863401
Si Si3 0.286577 0.494168 0.787104
Si Si4 0.824390 0.619534 0.898434
Si Si5 0.325449 0.171337 0.493850
Si Si6 0.967706 0.031894 0.910202
O O1 0.084432 0.726281 0.710552
O O2 0.051953 0.951039 0.647594
O O3 0.242784 0.310257 0.837589
O O4 0.267446 0.038060 0.882557
O O5 0.244952 0.045049 0.762908
O O6 0.093461 0.073977 0.980797
O O7 0.239854 0.609496 0.885797
O O8 0.410125 0.518203 0.684064
O O9 0.750000 0.750000 0.000000
O O10 0.865134 0.490662 0.919490
O O11 0.250000 0.250000 0.500000
O O12 0.416263 0.288213 0.444969
#
# Coordination Sequence:
#
# PCOD9307216 Si02
#       6
#     4   8   8   8   8   8
#     4  12  22  42  72  98 138 184 234 294 358 408
#     4  12  25  47  71 100 146 191 237 290 359 424
#     4  12  27  48  71 101 146 192 233 298 358 422
#     4  12  22  45  70 101 137 184 235 296 350 424
#     4  12  24  44  72 107 140 178 241 295 352 428
#     4  12  24  45  73 105 139 186 238 296 358 424
#
# _framework density 21.424016999999999
#
# number of rings (size 3 to 8) (size 9 to 14) (size 15 to 20)
#    0.000    0.000    7.273    2.727    0.000    2.182 
#    0.000    1.818    0.000    0.000    0.000    0.000 
#    0.000    0.000    0.000    0.000    0.000    0.000 
#
# Total GULP energy -122921.537348 kJ/mol
# GULP energy per Si atom -5587.342607 kJ/mol
# Density = 2.137526 g / cm^3
# Si number density = 21.424017 Si / 1000 Ang^3
#
#
#
# Elastic Constant Matrix: (Units=GPa)
#
#
# Indices 1 2 3 4 5 6 
#
# 1 82.0631 38.1829 45.8282 -0.0001 7.7173 0.0002
# 2 38.1829 123.5196 67.5677 -0.0002 -10.3834 0.0005
# 3 45.8282 67.5677 145.5018 0.0000 19.4032 0.0001
# 4 -0.0001 -0.0002 0.0000 47.3576 0.0000 5.5516
# 5 7.7173 -10.3834 19.4032 0.0000 45.8817 -0.0001
# 6 0.0002 0.0005 0.0001 5.5516 -0.0001 31.1677
#
#
#
# Elastic Compliance Matrix: (Units=1/GPa)
#
#
# Indices 1 2 3 4 5 6 
#
# 1 0.015662 -0.003307 -0.003122 0.000000 -0.002062 0.000000
# 2 -0.003307 0.012681 -0.005621 0.000000 0.005803 0.000000
# 3 -0.003122 -0.005621 0.011198 0.000000 -0.005482 0.000000
# 4 0.000000 0.000000 0.000000 0.021566 0.000000 -0.003841
# 5 -0.002062 0.005803 -0.005482 0.000000 0.025774 0.000000
# 6 0.000000 0.000000 0.000000 -0.003841 0.000000 0.032769
#
#
# Mechanical properties :
#
#
# Convention : Reuss Voigt Hill
#
# Bulk Modulus (GPa) = 64.76723 72.69356 68.73039
# Shear Modulus (GPa) = 33.58049 38.18177 35.88113
#
# Velocity S-wave (km/s) = 3.96336 4.22618 4.09688
# Velocity P-wave (km/s) = 7.15829 7.60386 7.38444
#
# Compressibility (1/GPa) = 0.01543991
#
# Stress axis : x y z
#
# Youngs Moduli (GPa) = 63.84870 78.85999 89.30559
#
# Poissons Ratio (x) = 0.26078 0.27884
# Poissons Ratio (y) = 0.21114 0.50198
# Poissons Ratio (z) = 0.19936 0.44327
#
# Static dielectric constant tensor:
#      x y z
#    x 1.851040 0.000000 -0.032520 
#    y 0.000000 1.828400 0.000000 
#    z -0.032520 0.000000 1.747040 
# 
# From -- ./inp_files/218477.got.cif
#   From: 2010.05.17/outbox.cif.g08.bks.cpg/sg15_110_cif.got.tgz:218477.got - 2010.06.03 18:47:42.
