data_PCOD9307794
_publ_section_title
;
Structure prediction by ZEFSAII (Michael W. Deem and Ramdas Pophale) SiO2 
 PCOD9307794
Probable space group: C 2/C
;
_chemical_formula_sum "Si O2"
_cell_formula_units_Z 40
_cell_length_a 17.861322
_cell_length_b 22.233807
_cell_length_c 9.043457
_cell_angle_alpha 90.000000
_cell_angle_beta 147.725115
_cell_angle_gamma 90.000000
_cell_volume 1917.733935
_symmetry_space_group_name_H-M "C 2/C"
_symmetry_group_IT_number 15
_symmetry_cell_setting 'monoclinic'
loop_
_space_group_symop_operation_xyz
x,y,z
-x,y,1/2-z
-x,-y,-z
x,-y,1/2+z
1/2+x,1/2+y,z
1/2-x,1/2+y,1/2-z
1/2-x,1/2-y,-z
1/2+x,1/2-y,1/2+z
loop_
_atom_site_type_symbol
_atom_site_label
_atom_site_fract_x
_atom_site_fract_y
_atom_site_fract_z
Si Si1 0.734009 0.608112 0.637346
Si Si2 0.500000 0.863430 0.750000
Si Si3 0.633238 0.787881 0.711470
Si Si4 0.600109 0.486892 0.526320
Si Si5 0.500000 0.291927 0.750000
Si Si6 0.833870 0.609563 0.471521
O O1 0.645802 0.547920 0.519547
O O2 0.633332 0.664839 0.492319
O O3 0.790555 0.620143 0.568085
O O4 0.864011 0.602028 0.965919
O O5 0.550297 0.824036 0.696919
O O6 0.519961 0.749405 0.427884
O O7 0.693435 0.835651 0.689905
O O8 0.750000 0.750000 0.000000
O O9 0.500000 0.500000 0.500000
O O10 0.739694 0.448424 0.779162
O O11 0.500000 0.449826 0.250000
O O12 0.000000 0.597922 0.750000
#
# Coordination Sequence:
#
# PCOD9307794 Si02
#       6
#     8   4   8   8   4   8
#     4  12  26  47  73 107 149 195 242 310 371 443
#     4  12  26  44  69 107 144 184 254 296 368 446
#     4  12  27  45  72 112 144 197 247 305 375 444
#     4  12  27  49  74 109 143 194 251 307 375 442
#     4  12  24  48  75 101 158 192 244 310 378 440
#     4  12  27  48  73 108 150 196 245 307 380 439
#
# _framework density 20.857951
#
# number of rings (size 3 to 8) (size 9 to 14) (size 15 to 20)
#    0.000    0.000    8.000    0.000    7.000    4.000 
#    0.000    0.000    0.000    0.000    0.000    0.000 
#    0.000    0.000    0.000    0.000    0.000    0.000 
#
# Total GULP energy -111570.274201 kJ/mol
# GULP energy per Si atom -5578.513710 kJ/mol
# Density = 2.081048 g / cm^3
# Si number density = 20.857951 Si / 1000 Ang^3
#
#
#
# Elastic Constant Matrix: (Units=GPa)
#
#
# Indices 1 2 3 4 5 6 
#
# 1 121.7544 41.6991 30.0421 0.0000 -6.3970 0.0000
# 2 41.6991 85.6692 45.7953 0.0000 -0.6310 0.0000
# 3 30.0421 45.7953 158.6199 0.0000 -6.7784 0.0000
# 4 0.0000 0.0000 0.0000 37.3052 0.0000 -13.4214
# 5 -6.3970 -0.6310 -6.7784 0.0000 38.1994 0.0000
# 6 0.0000 0.0000 0.0000 -13.4214 0.0000 7.3868
#
#
#
# Elastic Compliance Matrix: (Units=1/GPa)
#
#
# Indices 1 2 3 4 5 6 
#
# 1 0.009985 -0.004579 -0.000505 0.000000 0.001507 0.000000
# 2 -0.004579 0.015912 -0.003777 0.000000 -0.001174 0.000000
# 3 -0.000505 -0.003777 0.007541 0.000000 0.001191 0.000000
# 4 0.000000 0.000000 0.000000 0.077404 0.000000 0.140637
# 5 0.001507 -0.001174 0.001191 0.000000 0.026623 0.000000
# 6 0.000000 0.000000 0.000000 0.140637 0.000000 0.390905
#
#
# Mechanical properties :
#
#
# Convention : Reuss Voigt Hill
#
# Bulk Modulus (GPa) = 63.62601 66.79072 65.20836
# Shear Modulus (GPa) = 9.06896 33.14541 21.10718
#
# Velocity S-wave (km/s) = 2.08744 3.99068 3.18457
# Velocity P-wave (km/s) = 6.03163 7.30241 6.69723
#
# Compressibility (1/GPa) = 0.01571684
#
# Stress axis : x y z
#
# Youngs Moduli (GPa) = 100.14672 62.84506 132.60330
#
# Poissons Ratio (x) = 0.28780 0.06692
# Poissons Ratio (y) = 0.45862 0.50082
# Poissons Ratio (z) = 0.05054 0.23736
#
# Static dielectric constant tensor:
#      x y z
#    x 1.750740 0.000000 -0.125310 
#    y 0.000000 1.719490 0.000000 
#    z -0.125310 0.000000 2.343840 
# 
# From -- ./inp_files/51678.got.cif
#   From: 2010.05.17/outbox.cif.g08.bks.cpg/sg15_26_cif.got.tgz:51678.got - 2010.06.03 18:47:42.
