data_PCOD9307736
_publ_section_title
;
Structure prediction by ZEFSAII (Michael W. Deem and Ramdas Pophale) SiO2 
 PCOD9307736
Probable space group: C 2/C
;
_chemical_formula_sum "Si O2"
_cell_formula_units_Z 32
_cell_length_a 12.161676
_cell_length_b 7.290732
_cell_length_c 13.466499
_cell_angle_alpha 90.000000
_cell_angle_beta 64.415704
_cell_angle_gamma 90.000000
_cell_volume 1076.966447
_symmetry_space_group_name_H-M "C 2/C"
_symmetry_group_IT_number 15
_symmetry_cell_setting 'monoclinic'
loop_
_space_group_symop_operation_xyz
x,y,z
-x,y,1/2-z
-x,-y,-z
x,-y,1/2+z
1/2+x,1/2+y,z
1/2-x,1/2+y,1/2-z
1/2-x,1/2-y,-z
1/2+x,1/2-y,1/2+z
loop_
_atom_site_type_symbol
_atom_site_label
_atom_site_fract_x
_atom_site_fract_y
_atom_site_fract_z
Si Si1 0.758954 0.428293 0.741263
Si Si2 0.000000 0.558095 0.250000
Si Si3 0.837841 0.256621 0.058637
Si Si4 0.000000 0.000000 0.000000
Si Si5 0.628369 0.728985 0.108587
O O1 0.800802 0.586878 0.649441
O O2 0.671749 0.443854 0.875571
O O3 0.675140 0.308882 0.701839
O O4 0.880760 0.351017 0.747891
O O5 0.943153 0.419561 0.354213
O O6 0.978249 0.226453 0.982323
O O7 0.750000 0.250000 0.000000
O O8 0.058120 0.060450 0.088515
O O9 0.750000 0.750000 0.000000
#
# Coordination Sequence:
#
# PCOD9307736 Si02
#       5
#     8   4   8   4   8
#     4  12  26  49  74 109 156 196 257 318 382 465
#     4  12  26  48  70 114 152 202 254 320 392 448
#     4  12  27  49  77 116 153 202 264 319 385 470
#     4  12  24  46  78 106 150 202 246 322 398 436
#     4  12  26  46  75 110 155 197 260 327 382 466
#
# _framework density 29.713090000000001
#
# number of rings (size 3 to 8) (size 9 to 14) (size 15 to 20)
#    0.000    0.000    7.500    1.500    0.000    3.000 
#    0.000    0.000    0.000    0.000    0.000    0.000 
#    0.000    0.000    0.000    0.000    0.000    0.000 
#
# Total GULP energy -89224.050542 kJ/mol
# GULP energy per Si atom -5576.503159 kJ/mol
# Density = 2.964546 g / cm^3
# Si number density = 29.713090 Si / 1000 Ang^3
#
#
#
# Elastic Constant Matrix: (Units=GPa)
#
#
# Indices 1 2 3 4 5 6 
#
# 1 223.6286 28.0229 31.1872 0.0000 40.6626 0.0000
# 2 28.0229 69.8844 15.0555 0.0000 5.9165 0.0000
# 3 31.1872 15.0555 157.9444 0.0000 22.1701 0.0000
# 4 0.0000 0.0000 0.0000 79.0779 0.0000 -8.6054
# 5 40.6626 5.9165 22.1701 0.0000 75.0364 0.0000
# 6 0.0000 0.0000 0.0000 -8.6054 0.0000 58.8092
#
#
#
# Elastic Compliance Matrix: (Units=1/GPa)
#
#
# Indices 1 2 3 4 5 6 
#
# 1 0.005227 -0.001771 -0.000506 0.000000 -0.002543 0.000000
# 2 -0.001771 0.015253 -0.001116 0.000000 0.000087 0.000000
# 3 -0.000506 -0.001116 0.006768 0.000000 -0.001637 0.000000
# 4 0.000000 0.000000 0.000000 0.012850 0.000000 0.001880
# 5 -0.002543 0.000087 -0.001637 0.000000 0.015182 0.000000
# 6 0.000000 0.000000 0.000000 0.001880 0.000000 0.017279
#
#
# Mechanical properties :
#
#
# Convention : Reuss Voigt Hill
#
# Bulk Modulus (GPa) = 48.87849 66.66541 57.77195
# Shear Modulus (GPa) = 58.02731 67.73084 62.87908
#
# Velocity S-wave (km/s) = 4.42398 4.77959 4.60522
# Velocity P-wave (km/s) = 6.52544 7.27629 6.91107
#
# Compressibility (1/GPa) = 0.02045890
#
# Stress axis : x y z
#
# Youngs Moduli (GPa) = 191.32528 65.56163 147.76471
#
# Poissons Ratio (x) = 0.11614 0.07480
# Poissons Ratio (y) = 0.33893 0.16496
# Poissons Ratio (z) = 0.09685 0.07319
#
# Static dielectric constant tensor:
#      x y z
#    x 1.151420 0.000000 0.944830 
#    y 0.000000 2.522900 0.000000 
#    z 0.944830 0.000000 1.688760 
# 
# From -- ./inp_files/140738.got.cif
#   From: 2010.05.17/outbox.cif.g08.bks.cpg/sg15_71_cif.got.tgz:140738.got - 2010.06.03 18:47:42.
