data_PCOD9307538
_publ_section_title
;
Structure prediction by ZEFSAII (Michael W. Deem and Ramdas Pophale) SiO2 
 PCOD9307538
Probable space group: C 2/C
;
_chemical_formula_sum "Si O2"
_cell_formula_units_Z 32
_cell_length_a 8.120483
_cell_length_b 19.264329
_cell_length_c 8.869399
_cell_angle_alpha 90.000000
_cell_angle_beta 67.510886
_cell_angle_gamma 90.000000
_cell_volume 1281.974705
_symmetry_space_group_name_H-M "C 2/C"
_symmetry_group_IT_number 15
_symmetry_cell_setting 'monoclinic'
loop_
_space_group_symop_operation_xyz
x,y,z
-x,y,1/2-z
-x,-y,-z
x,-y,1/2+z
1/2+x,1/2+y,z
1/2-x,1/2+y,1/2-z
1/2-x,1/2-y,-z
1/2+x,1/2-y,1/2+z
loop_
_atom_site_type_symbol
_atom_site_label
_atom_site_fract_x
_atom_site_fract_y
_atom_site_fract_z
Si Si1 0.130990 0.469284 0.326581
Si Si2 0.165563 0.893370 0.805649
Si Si3 0.279797 0.669901 0.895944
Si Si4 0.881886 0.727815 0.090310
O O1 0.247547 0.530639 0.211279
O O2 0.248935 0.407219 0.343822
O O3 0.000000 0.437224 0.250000
O O4 0.000000 0.500000 0.500000
O O5 0.309854 0.845439 0.674276
O O6 0.000000 0.897319 0.750000
O O7 0.131356 0.852672 0.974099
O O8 0.353187 0.715411 0.731088
O O9 0.089927 0.709191 0.991665
O O10 0.750000 0.750000 0.000000
#
# Coordination Sequence:
#
# PCOD9307538 Si02
#       4
#     8   8   8   8
#     4  12  23  49  81 108 152 204 262 322 402 464
#     4  12  27  48  73 112 158 205 266 328 385 473
#     4  12  27  49  81 113 161 209 258 331 396 475
#     4  12  25  48  79 116 155 204 263 323 403 476
#
# _framework density 24.961490999999999
#
# number of rings (size 3 to 8) (size 9 to 14) (size 15 to 20)
#    0.000    0.000    5.000    5.250    0.000    3.000 
#    0.000    2.500    0.000    0.000    0.000    0.000 
#    0.000    0.000    0.000    0.000    0.000    0.000 
#
# Total GULP energy -89553.474759 kJ/mol
# GULP energy per Si atom -5597.092172 kJ/mol
# Density = 2.490468 g / cm^3
# Si number density = 24.961491 Si / 1000 Ang^3
#
#
#
# Elastic Constant Matrix: (Units=GPa)
#
#
# Indices 1 2 3 4 5 6 
#
# 1 139.4476 15.2889 75.4328 0.0000 25.6977 0.0000
# 2 15.2889 159.2937 30.3288 0.0000 -1.2135 0.0000
# 3 75.4328 30.3288 133.6086 0.0000 12.8845 0.0000
# 4 0.0000 0.0000 0.0000 46.8929 0.0000 9.6914
# 5 25.6977 -1.2135 12.8845 0.0000 66.2515 0.0000
# 6 0.0000 0.0000 0.0000 9.6914 0.0000 8.8469
#
#
#
# Elastic Compliance Matrix: (Units=1/GPa)
#
#
# Indices 1 2 3 4 5 6 
#
# 1 0.010913 0.000047 -0.005874 0.000000 -0.003090 0.000000
# 2 0.000047 0.006573 -0.001558 0.000000 0.000405 0.000000
# 3 -0.005874 -0.001558 0.011147 0.000000 0.000082 0.000000
# 4 0.000000 0.000000 0.000000 0.027566 0.000000 -0.030198
# 5 -0.003090 0.000405 0.000082 0.000000 0.016284 0.000000
# 6 0.000000 0.000000 0.000000 -0.030198 0.000000 0.146114
#
#
# Mechanical properties :
#
#
# Convention : Reuss Voigt Hill
#
# Bulk Modulus (GPa) = 72.13205 74.93896 73.53551
# Shear Modulus (GPa) = 21.00959 45.15158 33.08059
#
# Velocity S-wave (km/s) = 2.90432 4.25767 3.64437
# Velocity P-wave (km/s) = 6.34089 7.36596 6.87256
#
# Compressibility (1/GPa) = 0.01386346
#
# Stress axis : x y z
#
# Youngs Moduli (GPa) = 91.63573 152.14096 89.71367
#
# Poissons Ratio (x) = -0.00722 0.52697
# Poissons Ratio (y) = -0.00435 0.13976
# Poissons Ratio (z) = 0.53826 0.23701
#
# Static dielectric constant tensor:
#      x y z
#    x 2.505200 0.000000 0.035820 
#    y 0.000000 2.018460 0.000000 
#    z 0.035820 0.000000 2.033280 
# 
# From -- ./inp_files/22829.got.cif
#   From: 2010.05.17/outbox.cif.g08.bks.cpg/sg15_12_cif.got.tgz:22829.got - 2010.06.03 18:47:42.
