data_PCOD9307932
_publ_section_title
;
Structure prediction by ZEFSAII (Michael W. Deem and Ramdas Pophale) SiO2 
 PCOD9307932
Probable space group: C 2/C
;
_chemical_formula_sum "Si O2"
_cell_formula_units_Z 40
_cell_length_a 21.598157
_cell_length_b 9.373529
_cell_length_c 8.851619
_cell_angle_alpha 90.000000
_cell_angle_beta 97.727308
_cell_angle_gamma 90.000000
_cell_volume 1775.745770
_symmetry_space_group_name_H-M "C 2/C"
_symmetry_group_IT_number 15
_symmetry_cell_setting 'monoclinic'
loop_
_space_group_symop_operation_xyz
x,y,z
-x,y,1/2-z
-x,-y,-z
x,-y,1/2+z
1/2+x,1/2+y,z
1/2-x,1/2+y,1/2-z
1/2-x,1/2-y,-z
1/2+x,1/2-y,1/2+z
loop_
_atom_site_type_symbol
_atom_site_label
_atom_site_fract_x
_atom_site_fract_y
_atom_site_fract_z
Si Si1 0.804759 0.847104 0.456154
Si Si2 0.480528 0.652725 0.567010
Si Si3 0.244103 0.880726 0.386409
Si Si4 0.109028 0.638871 0.587621
Si Si5 0.076991 0.657645 0.922010
O O1 0.750000 0.750000 0.500000
O O2 0.796948 0.857251 0.274906
O O3 0.867718 0.768589 0.521163
O O4 0.788960 0.994883 0.531079
O O5 0.500000 0.649729 0.750000
O O6 0.500000 0.500000 0.500000
O O7 0.410508 0.715084 0.508869
O O8 0.520138 0.772282 0.492378
O O9 0.250000 0.750000 0.500000
O O10 0.317081 0.895749 0.361125
O O11 0.077239 0.648273 0.741487
O O12 0.087259 0.501252 0.486914
#
# Coordination Sequence:
#
# PCOD9307932 Si02
#       5
#     8   8   8   8   8
#     4  12  25  46  70 110 145 193 240 296 361 431
#     4  12  29  50  76 107 143 190 244 305 366 429
#     4  12  27  43  73 106 150 190 240 296 363 430
#     4  12  25  48  73 106 143 194 241 296 360 431
#     4  12  27  47  77 104 151 190 248 297 360 438
#
# _framework density 22.525748
#
# number of rings (size 3 to 8) (size 9 to 14) (size 15 to 20)
#    0.000    0.000    4.000    4.800    8.400    0.000 
#    0.000    0.000    0.000    0.000    0.000    0.000 
#    0.000    0.000    0.000    0.000    0.000    0.000 
#
# Total GULP energy -111855.263189 kJ/mol
# GULP energy per Si atom -5592.763159 kJ/mol
# Density = 2.247448 g / cm^3
# Si number density = 22.525748 Si / 1000 Ang^3
#
#
#
# Elastic Constant Matrix: (Units=GPa)
#
#
# Indices 1 2 3 4 5 6 
#
# 1 76.9148 15.9551 20.4337 0.0000 1.8081 0.0000
# 2 15.9551 155.0050 75.5622 0.0000 9.4016 0.0000
# 3 20.4337 75.5622 232.4456 0.0000 10.3081 0.0000
# 4 0.0000 0.0000 0.0000 47.9187 0.0000 -10.0513
# 5 1.8081 9.4016 10.3081 0.0000 32.0897 0.0000
# 6 0.0000 0.0000 0.0000 -10.0513 0.0000 28.5022
#
#
#
# Elastic Compliance Matrix: (Units=1/GPa)
#
#
# Indices 1 2 3 4 5 6 
#
# 1 0.013432 -0.000950 -0.000863 0.000000 -0.000201 0.000000
# 2 -0.000950 0.007802 -0.002388 0.000000 -0.001465 0.000000
# 3 -0.000863 -0.002388 0.005195 0.000000 -0.000921 0.000000
# 4 0.000000 0.000000 0.000000 0.022536 0.000000 0.007947
# 5 -0.000201 -0.001465 -0.000921 0.000000 0.031899 0.000000
# 6 0.000000 0.000000 0.000000 0.007947 0.000000 0.037888
#
#
# Mechanical properties :
#
#
# Convention : Reuss Voigt Hill
#
# Bulk Modulus (GPa) = 55.46844 76.47417 65.97131
# Shear Modulus (GPa) = 37.54815 45.19641 41.37228
#
# Velocity S-wave (km/s) = 4.08720 4.48418 4.29028
# Velocity P-wave (km/s) = 6.85212 7.79961 7.34116
#
# Compressibility (1/GPa) = 0.01802827
#
# Stress axis : x y z
#
# Youngs Moduli (GPa) = 74.44658 128.17175 192.49299
#
# Poissons Ratio (x) = 0.12172 0.16616
# Poissons Ratio (y) = 0.07070 0.45963
# Poissons Ratio (z) = 0.06426 0.30605
#
# Static dielectric constant tensor:
#      x y z
#    x 1.438250 0.000000 0.149560 
#    y 0.000000 1.666710 0.000000 
#    z 0.149560 0.000000 1.778830 
# 
# From -- ./inp_files/60022.got.cif
#   From: 2010.05.17/outbox.cif.g08.bks.cpg/sg15_31_cif.got.tgz:60022.got - 2010.06.03 18:47:42.
