data_PCOD9307367
_publ_section_title
;
Structure prediction by ZEFSAII (Michael W. Deem and Ramdas Pophale) SiO2 
 PCOD9307367
Probable space group: C 2/C
;
_chemical_formula_sum "Si O2"
_cell_formula_units_Z 48
_cell_length_a 17.388376
_cell_length_b 14.262396
_cell_length_c 8.987119
_cell_angle_alpha 90.000000
_cell_angle_beta 89.906411
_cell_angle_gamma 90.000000
_cell_volume 2228.801679
_symmetry_space_group_name_H-M "C 2/C"
_symmetry_group_IT_number 15
_symmetry_cell_setting 'monoclinic'
loop_
_space_group_symop_operation_xyz
x,y,z
-x,y,1/2-z
-x,-y,-z
x,-y,1/2+z
1/2+x,1/2+y,z
1/2-x,1/2+y,1/2-z
1/2-x,1/2-y,-z
1/2+x,1/2-y,1/2+z
loop_
_atom_site_type_symbol
_atom_site_label
_atom_site_fract_x
_atom_site_fract_y
_atom_site_fract_z
Si Si1 0.724424 0.994800 0.928778
Si Si2 0.336276 0.497195 0.176179
Si Si3 0.322129 0.797569 0.085393
Si Si4 0.326899 0.801056 0.445903
Si Si5 0.440203 0.327929 0.128358
Si Si6 0.049750 0.159395 0.383915
O O1 0.755419 0.986907 0.760436
O O2 0.681364 0.092631 0.950703
O O3 0.808117 0.996631 0.006625
O O4 0.679056 0.906913 0.993541
O O5 0.378566 0.398598 0.202518
O O6 0.395446 0.581701 0.189865
O O7 0.323410 0.792965 0.266658
O O8 0.397190 0.738637 0.042202
O O9 0.250000 0.750000 0.000000
O O10 0.250000 0.750000 0.500000
O O11 0.396045 0.748859 0.530139
O O12 0.500000 0.290991 0.250000
O O13 0.493258 0.382242 0.008165
O O14 0.000000 0.201214 0.250000
#
# Coordination Sequence:
#
# PCOD9307367 Si02
#       6
#     8   8   8   8   8   8
#     4  12  24  42  72 104 140 177 239 289 343 410
#     4  12  23  41  69 107 141 179 226 295 359 421
#     4  12  26  45  71 103 138 186 241 282 344 425
#     4  12  25  46  70 100 143 185 236 291 341 420
#     4  12  26  44  68 106 147 183 233 289 361 421
#     4  12  24  43  68  99 146 186 225 292 358 416
#
# _framework density 21.536237
#
# number of rings (size 3 to 8) (size 9 to 14) (size 15 to 20)
#    0.000    0.000    6.667    4.000    2.333    0.000 
#    0.000    1.667    0.000    0.000    0.000    0.000 
#    0.000    0.000    0.000    0.000    0.000    0.000 
#
# Total GULP energy -134102.212077 kJ/mol
# GULP energy per Si atom -5587.592170 kJ/mol
# Density = 2.148722 g / cm^3
# Si number density = 21.536237 Si / 1000 Ang^3
#
#
#
# Elastic Constant Matrix: (Units=GPa)
#
#
# Indices 1 2 3 4 5 6 
#
# 1 82.6036 45.5060 32.4204 0.0000 29.6487 0.0000
# 2 45.5060 150.1384 38.6925 0.0000 14.8806 0.0000
# 3 32.4204 38.6925 87.7248 0.0000 16.0353 0.0000
# 4 0.0000 0.0000 0.0000 31.0618 0.0000 -2.3763
# 5 29.6487 14.8806 16.0353 0.0000 50.9310 0.0000
# 6 0.0000 0.0000 0.0000 -2.3763 0.0000 23.0467
#
#
#
# Elastic Compliance Matrix: (Units=1/GPa)
#
#
# Indices 1 2 3 4 5 6 
#
# 1 0.018789 -0.003898 -0.003643 0.000000 -0.008652 0.000000
# 2 -0.003898 0.008396 -0.002365 0.000000 0.000561 0.000000
# 3 -0.003643 -0.002365 0.014085 0.000000 -0.001623 0.000000
# 4 0.000000 0.000000 0.000000 0.032450 0.000000 0.003346
# 5 -0.008652 0.000561 -0.001623 0.000000 0.025018 0.000000
# 6 0.000000 0.000000 0.000000 0.003346 0.000000 0.043735
#
#
# Mechanical properties :
#
#
# Convention : Reuss Voigt Hill
#
# Bulk Modulus (GPa) = 46.60360 61.52273 54.06317
# Shear Modulus (GPa) = 29.50931 34.59776 32.05353
#
# Velocity S-wave (km/s) = 3.70566 4.01245 3.86210
# Velocity P-wave (km/s) = 6.32422 7.07782 6.71160
#
# Compressibility (1/GPa) = 0.02145757
#
# Stress axis : x y z
#
# Youngs Moduli (GPa) = 53.22341 119.10428 70.99569
#
# Poissons Ratio (x) = 0.46432 0.25863
# Poissons Ratio (y) = 0.20749 0.16790
# Poissons Ratio (z) = 0.19388 0.28168
#
# Static dielectric constant tensor:
#      x y z
#    x 1.770820 0.000000 -0.013950 
#    y 0.000000 1.767770 0.000000 
#    z -0.013950 0.000000 1.813330 
# 
# From -- ./inp_files/47442.got.cif
#   From: 2010.05.17/outbox.cif.g08.bks.cpg/sg15_24_cif.got.tgz:47442.got - 2010.06.03 18:47:42.
