data_PCOD9307141
_publ_section_title
;
Structure prediction by ZEFSAII (Michael W. Deem and Ramdas Pophale) SiO2 
 PCOD9307141
Probable space group: C 2/C
;
_chemical_formula_sum "Si O2"
_cell_formula_units_Z 32
_cell_length_a 11.341798
_cell_length_b 19.230118
_cell_length_c 9.198272
_cell_angle_alpha 90.000000
_cell_angle_beta 138.950029
_cell_angle_gamma 90.000000
_cell_volume 1317.493155
_symmetry_space_group_name_H-M "C 2/C"
_symmetry_group_IT_number 15
_symmetry_cell_setting 'monoclinic'
loop_
_space_group_symop_operation_xyz
x,y,z
-x,y,1/2-z
-x,-y,-z
x,-y,1/2+z
1/2+x,1/2+y,z
1/2-x,1/2+y,1/2-z
1/2-x,1/2-y,-z
1/2+x,1/2-y,1/2+z
loop_
_atom_site_type_symbol
_atom_site_label
_atom_site_fract_x
_atom_site_fract_y
_atom_site_fract_z
Si Si1 0.949169 0.197209 0.869751
Si Si2 0.783663 0.026499 0.531335
Si Si3 0.315465 0.148984 0.283591
Si Si4 0.657737 0.910944 0.205004
O O1 0.908032 0.278734 0.823306
O O2 0.781013 0.154278 0.772581
O O3 0.000000 0.178572 0.750000
O O4 0.113511 0.174419 0.126421
O O5 0.732245 0.954787 0.407267
O O6 0.000000 0.028313 0.750000
O O7 0.713190 0.089873 0.365236
O O8 0.687334 0.037429 0.595218
O O9 0.455463 0.116464 0.526056
#
# Coordination Sequence:
#
# PCOD9307141 Si02
#       4
#     8   8   8   8
#     4  12  22  38  68  99 135 167 222 284 331 377
#     4  12  25  43  68  98 139 174 218 269 334 393
#     4  12  23  40  69 101 132 171 222 283 331 379
#     4  12  25  44  66 101 134 178 216 272 332 394
#
# _framework density 24.288551999999999
#
# number of rings (size 3 to 8) (size 9 to 14) (size 15 to 20)
#    0.000    0.000    7.500    4.500    0.000    0.000 
#    0.000    0.000    0.000    6.000    0.000    0.000 
#    0.000    0.000    0.000    0.000    0.000    0.000 
#
# Total GULP energy -89564.339566 kJ/mol
# GULP energy per Si atom -5597.771223 kJ/mol
# Density = 2.423327 g / cm^3
# Si number density = 24.288552 Si / 1000 Ang^3
#
#
#
# Elastic Constant Matrix: (Units=GPa)
#
#
# Indices 1 2 3 4 5 6 
#
# 1 50.4229 72.3107 45.6919 0.0000 7.1641 0.0000
# 2 72.3107 173.3851 87.0523 0.0000 8.5977 0.0000
# 3 45.6919 87.0523 187.3142 0.0000 42.1025 0.0000
# 4 0.0000 0.0000 0.0000 31.9331 0.0000 18.2262
# 5 7.1641 8.5977 42.1025 0.0000 25.7410 0.0000
# 6 0.0000 0.0000 0.0000 18.2262 0.0000 23.3512
#
#
#
# Elastic Compliance Matrix: (Units=1/GPa)
#
#
# Indices 1 2 3 4 5 6 
#
# 1 0.051093 -0.019936 -0.002370 0.000000 -0.003685 0.000000
# 2 -0.019936 0.015745 -0.003984 0.000000 0.006806 0.000000
# 3 -0.002370 -0.003984 0.011577 0.000000 -0.016945 0.000000
# 4 0.000000 0.000000 0.000000 0.056475 0.000000 -0.044080
# 5 -0.003685 0.006806 -0.016945 0.000000 0.065317 0.000000
# 6 0.000000 0.000000 0.000000 -0.044080 0.000000 0.077230
#
#
# Mechanical properties :
#
#
# Convention : Reuss Voigt Hill
#
# Bulk Modulus (GPa) = 38.70682 91.24803 64.97742
# Shear Modulus (GPa) = 14.76549 29.94288 22.35418
#
# Velocity S-wave (km/s) = 2.46828 3.51493 3.03703
# Velocity P-wave (km/s) = 4.90857 7.35683 6.25368
#
# Compressibility (1/GPa) = 0.02583524
#
# Stress axis : x y z
#
# Youngs Moduli (GPa) = 19.57203 63.51405 86.37856
#
# Poissons Ratio (x) = 1.26621 0.20472
# Poissons Ratio (y) = 0.39019 0.34411
# Poissons Ratio (z) = 0.04639 0.25303
#
# Static dielectric constant tensor:
#      x y z
#    x 1.910390 0.000000 0.016310 
#    y 0.000000 1.929040 0.000000 
#    z 0.016310 0.000000 1.966040 
# 
# From -- ./inp_files/98618.got.cif
#   From: 2010.05.17/outbox.cif.g08.bks.cpg/sg15_50_cif.got.tgz:98618.got - 2010.06.03 18:47:42.
