data_PCOD9307548
_publ_section_title
;
Structure prediction by ZEFSAII (Michael W. Deem and Ramdas Pophale) SiO2 
 PCOD9307548
Probable space group: C 2/C
;
_chemical_formula_sum "Si O2"
_cell_formula_units_Z 52
_cell_length_a 20.704800
_cell_length_b 10.092866
_cell_length_c 18.446690
_cell_angle_alpha 90.000000
_cell_angle_beta 42.473342
_cell_angle_gamma 90.000000
_cell_volume 2602.955390
_symmetry_space_group_name_H-M "C 2/C"
_symmetry_group_IT_number 15
_symmetry_cell_setting 'monoclinic'
loop_
_space_group_symop_operation_xyz
x,y,z
-x,y,1/2-z
-x,-y,-z
x,-y,1/2+z
1/2+x,1/2+y,z
1/2-x,1/2+y,1/2-z
1/2-x,1/2-y,-z
1/2+x,1/2-y,1/2+z
loop_
_atom_site_type_symbol
_atom_site_label
_atom_site_fract_x
_atom_site_fract_y
_atom_site_fract_z
Si Si1 0.088945 0.269309 0.472070
Si Si2 0.671929 0.066892 0.409565
Si Si3 0.500000 0.671817 0.250000
Si Si4 0.389596 0.873085 0.691565
Si Si5 0.529260 0.829577 0.368661
Si Si6 0.751733 0.851391 0.565434
Si Si7 0.207611 0.893242 0.555195
O O1 0.140861 0.413112 0.432579
O O2 0.072415 0.246775 0.400173
O O3 0.153566 0.169912 0.464254
O O4 0.984468 0.290554 0.593879
O O5 0.678466 0.124147 0.323073
O O6 0.581988 0.142849 0.520446
O O7 0.761140 0.080306 0.388049
O O8 0.537200 0.760865 0.285351
O O9 0.406757 0.596364 0.355551
O O10 0.335758 0.827364 0.807505
O O11 0.422712 0.025651 0.672792
O O12 0.750000 0.750000 0.500000
O O13 0.747220 0.996840 0.534633
O O14 0.250000 0.750000 0.500000
#
# Coordination Sequence:
#
# PCOD9307548 Si02
#       7
#     8   8   4   8   8   8   8
#     4   9  20  41  65  93 125 157 222 268 304 376
#     4   9  18  42  65  91 122 162 218 263 302 383
#     4  12  24  36  64  92 132 172 192 264 332 356
#     4   9  21  38  69  92 121 175 212 259 320 371
#     4   9  19  39  66  95 121 167 220 257 309 388
#     4  12  25  42  62  98 131 167 214 263 319 377
#     4  12  25  42  62  95 132 164 213 262 313 393
#
# _framework density 19.977291000000001
#
# number of rings (size 3 to 8) (size 9 to 14) (size 15 to 20)
#    0.000    1.846    3.077    2.769    2.154    1.846 
#    0.000    0.769    0.000    0.000    0.000    0.000 
#    0.000    0.000    0.000    0.000    0.000    0.000 
#
# Total GULP energy -145180.699715 kJ/mol
# GULP energy per Si atom -5583.873066 kJ/mol
# Density = 1.993182 g / cm^3
# Si number density = 19.977291 Si / 1000 Ang^3
#
#
#
# Elastic Constant Matrix: (Units=GPa)
#
#
# Indices 1 2 3 4 5 6 
#
# 1 120.9504 20.5177 32.5290 0.0000 11.7968 0.0000
# 2 20.5177 48.8256 16.6920 0.0000 11.7638 0.0000
# 3 32.5290 16.6920 107.4222 0.0000 19.9928 0.0000
# 4 0.0000 0.0000 0.0000 16.0458 0.0000 2.1041
# 5 11.7968 11.7638 19.9928 0.0000 35.9454 0.0000
# 6 0.0000 0.0000 0.0000 2.1041 0.0000 25.3482
#
#
#
# Elastic Compliance Matrix: (Units=1/GPa)
#
#
# Indices 1 2 3 4 5 6 
#
# 1 0.009464 -0.003001 -0.002236 0.000000 -0.000880 0.000000
# 2 -0.003001 0.023727 -0.001691 0.000000 -0.005840 0.000000
# 3 -0.002236 -0.001691 0.011165 0.000000 -0.004923 0.000000
# 4 0.000000 0.000000 0.000000 0.063008 0.000000 -0.005230
# 5 -0.000880 -0.005840 -0.004923 0.000000 0.032758 0.000000
# 6 0.000000 0.000000 0.000000 -0.005230 0.000000 0.039885
#
#
# Mechanical properties :
#
#
# Convention : Reuss Voigt Hill
#
# Bulk Modulus (GPa) = 32.78594 46.29728 39.54161
# Shear Modulus (GPa) = 24.50631 29.29850 26.90241
#
# Velocity S-wave (km/s) = 3.50624 3.83376 3.67365
# Velocity P-wave (km/s) = 5.73052 6.54387 6.15065
#
# Compressibility (1/GPa) = 0.03050088
#
# Stress axis : x y z
#
# Youngs Moduli (GPa) = 105.66335 42.14573 89.56496
#
# Poissons Ratio (x) = 0.12646 0.20024
# Poissons Ratio (y) = 0.31705 0.15149
# Poissons Ratio (z) = 0.23623 0.07129
#
# Static dielectric constant tensor:
#      x y z
#    x 1.721230 0.000000 -0.018400 
#    y 0.000000 1.679680 0.000000 
#    z -0.018400 0.000000 1.746950 
# 
# From -- ./inp_files/215016.got.cif
#   From: 2010.05.17/outbox.cif.g08.bks.cpg/sg15_108_cif.got.tgz:215016.got - 2010.06.03 18:47:42.
