data_PCOD9307247
_publ_section_title
;
Structure prediction by ZEFSAII (Michael W. Deem and Ramdas Pophale) SiO2 
 PCOD9307247
Probable space group: C 2/C
;
_chemical_formula_sum "Si O2"
_cell_formula_units_Z 56
_cell_length_a 11.987063
_cell_length_b 8.884294
_cell_length_c 28.080079
_cell_angle_alpha 90.000000
_cell_angle_beta 120.154605
_cell_angle_gamma 90.000000
_cell_volume 2585.746633
_symmetry_space_group_name_H-M "C 2/C"
_symmetry_group_IT_number 15
_symmetry_cell_setting 'monoclinic'
loop_
_space_group_symop_operation_xyz
x,y,z
-x,y,1/2-z
-x,-y,-z
x,-y,1/2+z
1/2+x,1/2+y,z
1/2-x,1/2+y,1/2-z
1/2-x,1/2-y,-z
1/2+x,1/2-y,1/2+z
loop_
_atom_site_type_symbol
_atom_site_label
_atom_site_fract_x
_atom_site_fract_y
_atom_site_fract_z
Si Si1 0.103254 0.444149 0.233725
Si Si2 0.058445 0.846719 0.830257
Si Si3 0.074999 0.400962 0.054541
Si Si4 0.187404 0.606780 0.156123
Si Si5 0.129912 0.928954 0.550856
Si Si6 0.673686 0.828423 0.440942
Si Si7 0.624073 0.438363 0.153501
O O1 0.128461 0.538364 0.191503
O O2 0.240053 0.437470 0.289666
O O3 0.000000 0.507135 0.250000
O O4 0.042592 0.285271 0.203814
O O5 0.157020 0.878067 0.808287
O O6 0.153646 0.773497 0.890380
O O7 0.985439 0.990676 0.836203
O O8 0.168905 0.499655 0.106652
O O9 0.133157 0.250054 0.044274
O O10 0.967370 0.352389 0.069148
O O11 0.000000 0.500000 0.000000
O O12 0.113846 0.765721 0.134086
O O13 0.251162 0.019738 0.556182
O O14 0.128040 0.960710 0.606971
O O15 0.000000 0.000000 0.500000
O O16 0.750000 0.750000 0.500000
#
# Coordination Sequence:
#
# PCOD9307247 Si02
#       7
#     8   8   8   8   8   8   8
#     4  12  25  49  74 103 149 195 244 310 366 438
#     4  12  25  51  73 106 152 194 246 309 374 437
#     4  12  26  43  71 112 151 186 252 307 365 453
#     4  12  26  47  73 111 148 192 252 308 373 441
#     4  12  23  44  74 104 145 196 243 301 379 444
#     4  12  22  43  76 100 145 199 236 301 373 439
#     4  12  25  44  77 105 139 199 247 296 383 439
#
# _framework density 21.657188999999999
#
# number of rings (size 3 to 8) (size 9 to 14) (size 15 to 20)
#    0.000    0.000    7.143    2.571    0.000    1.714 
#    5.143    0.000    0.000    0.000    0.000    0.000 
#    0.000    0.000    0.000    0.000    0.000    0.000 
#
# Total GULP energy -156606.873222 kJ/mol
# GULP energy per Si atom -5593.102615 kJ/mol
# Density = 2.160790 g / cm^3
# Si number density = 21.657189 Si / 1000 Ang^3
#
#
#
# Elastic Constant Matrix: (Units=GPa)
#
#
# Indices 1 2 3 4 5 6 
#
# 1 115.0207 57.0245 0.5322 0.0000 -5.4642 0.0000
# 2 57.0245 149.6895 44.0104 0.0000 3.3872 0.0000
# 3 0.5322 44.0104 119.9372 0.0000 2.6624 0.0000
# 4 0.0000 0.0000 0.0000 41.2437 0.0000 -1.1243
# 5 -5.4642 3.3872 2.6624 0.0000 35.9739 0.0000
# 6 0.0000 0.0000 0.0000 -1.1243 0.0000 50.2703
#
#
#
# Elastic Compliance Matrix: (Units=1/GPa)
#
#
# Indices 1 2 3 4 5 6 
#
# 1 0.011154 -0.004783 0.001661 0.000000 0.002022 0.000000
# 2 -0.004783 0.009549 -0.003452 0.000000 -0.001370 0.000000
# 3 0.001661 -0.003452 0.009600 0.000000 -0.000133 0.000000
# 4 0.000000 0.000000 0.000000 0.024261 0.000000 0.000543
# 5 0.002022 -0.001370 -0.000133 0.000000 0.028244 0.000000
# 6 0.000000 0.000000 0.000000 0.000543 0.000000 0.019905
#
#
# Mechanical properties :
#
#
# Convention : Reuss Voigt Hill
#
# Bulk Modulus (GPa) = 58.29738 65.30908 61.80323
# Shear Modulus (GPa) = 41.12564 44.36960 42.74762
#
# Velocity S-wave (km/s) = 4.36241 4.53119 4.44760
# Velocity P-wave (km/s) = 7.23539 7.58926 7.41444
#
# Compressibility (1/GPa) = 0.01715343
#
# Stress axis : x y z
#
# Youngs Moduli (GPa) = 89.65566 104.72736 104.16618
#
# Poissons Ratio (x) = 0.50092 -0.17300
# Poissons Ratio (y) = 0.42883 0.35960
# Poissons Ratio (z) = -0.14890 0.36154
#
# Static dielectric constant tensor:
#      x y z
#    x 1.769450 0.000000 -0.091600 
#    y 0.000000 1.658670 0.000000 
#    z -0.091600 0.000000 2.102230 
# 
# From -- ./inp_files/310389.got.cif
#   From: 2010.05.17/outbox.cif.g08.bks.cpg/sg15_156_cif.got.tgz:310389.got - 2010.06.03 18:47:42.
