data_PCOD9307915
_publ_section_title
;
Structure prediction by ZEFSAII (Michael W. Deem and Ramdas Pophale) SiO2 
 PCOD9307915
Probable space group: C 2/C
;
_chemical_formula_sum "Si O2"
_cell_formula_units_Z 32
_cell_length_a 19.493805
_cell_length_b 4.900778
_cell_length_c 29.369944
_cell_angle_alpha 90.000000
_cell_angle_beta 151.197104
_cell_angle_gamma 90.000000
_cell_volume 1351.853806
_symmetry_space_group_name_H-M "C 2/C"
_symmetry_group_IT_number 15
_symmetry_cell_setting 'monoclinic'
loop_
_space_group_symop_operation_xyz
x,y,z
-x,y,1/2-z
-x,-y,-z
x,-y,1/2+z
1/2+x,1/2+y,z
1/2-x,1/2+y,1/2-z
1/2-x,1/2-y,-z
1/2+x,1/2-y,1/2+z
loop_
_atom_site_type_symbol
_atom_site_label
_atom_site_fract_x
_atom_site_fract_y
_atom_site_fract_z
Si Si1 0.846909 0.779922 0.011786
Si Si2 0.775884 0.932260 0.696161
Si Si3 0.551682 0.789987 0.120044
Si Si4 0.148230 0.407197 0.814571
O O1 0.965206 0.550560 0.085743
O O2 0.750000 0.750000 0.000000
O O3 0.743617 0.760178 0.908230
O O4 0.934511 0.054251 0.052142
O O5 0.829733 0.811792 0.775364
O O6 0.774575 0.669669 0.662644
O O7 0.631764 0.103725 0.621396
O O8 0.880962 0.165276 0.738423
O O9 0.000000 0.503390 0.750000
#
# Coordination Sequence:
#
# PCOD9307915 Si02
#       4
#     8   8   8   8
#     4  12  26  45  70 102 141 183 232 287 345 412
#     4  12  25  45  71 101 139 184 232 284 348 417
#     4  12  25  45  71 101 139 184 231 283 347 414
#     4  12  26  45  70 102 141 183 233 290 348 413
#
# _framework density 23.671199999999999
#
# number of rings (size 3 to 8) (size 9 to 14) (size 15 to 20)
#    0.000    0.000    0.000   12.000    0.000    6.000 
#    0.000    0.000    0.000    0.000    0.000    0.000 
#    0.000    0.000    0.000    0.000    0.000    0.000 
#
# Total GULP energy -89522.983793 kJ/mol
# GULP energy per Si atom -5595.186487 kJ/mol
# Density = 2.361732 g / cm^3
# Si number density = 23.671200 Si / 1000 Ang^3
#
#
#
# Elastic Constant Matrix: (Units=GPa)
#
#
# Indices 1 2 3 4 5 6 
#
# 1 141.1888 42.4294 15.3676 -0.0110 4.8917 0.0134
# 2 42.4294 177.3001 27.2383 -0.0060 14.6280 0.1073
# 3 15.3676 27.2383 62.0810 0.0055 5.9792 0.0220
# 4 -0.0110 -0.0060 0.0055 48.3039 -0.0061 9.2677
# 5 4.8917 14.6280 5.9792 -0.0061 46.7804 0.0077
# 6 0.0134 0.1073 0.0220 9.2677 0.0077 64.9146
#
#
#
# Elastic Compliance Matrix: (Units=1/GPa)
#
#
# Indices 1 2 3 4 5 6 
#
# 1 0.007712 -0.001654 -0.001170 0.000001 -0.000140 0.000001
# 2 -0.001654 0.006519 -0.002299 0.000002 -0.001572 -0.000010
# 3 -0.001170 -0.002299 0.017541 -0.000002 -0.001401 -0.000001
# 4 0.000001 0.000002 -0.000002 0.021285 0.000003 -0.003039
# 5 -0.000140 -0.001572 -0.001401 0.000003 0.022062 0.000000
# 6 0.000001 -0.000010 -0.000001 -0.003039 0.000000 0.015839
#
#
# Mechanical properties :
#
#
# Convention : Reuss Voigt Hill
#
# Bulk Modulus (GPa) = 46.45664 61.18226 53.81945
# Shear Modulus (GPa) = 46.13407 51.70211 48.91809
#
# Velocity S-wave (km/s) = 4.41948 4.67859 4.55088
# Velocity P-wave (km/s) = 6.76098 7.42216 7.09927
#
# Compressibility (1/GPa) = 0.02152545
#
# Stress axis : x y z
#
# Youngs Moduli (GPa) = 129.66766 153.39868 57.00833
#
# Poissons Ratio (x) = 0.25377 0.06669
# Poissons Ratio (y) = 0.21451 0.13108
# Poissons Ratio (z) = 0.15168 0.35272
#
# Static dielectric constant tensor:
#      x y z
#    x 1.928680 -0.000010 -0.007440 
#    y -0.000010 1.814510 -0.000020 
#    z -0.007440 -0.000020 1.860000 
# 
# From -- ./inp_files/164972.got.cif
#   From: 2010.05.17/outbox.cif.g08.bks.cpg/sg15_83_cif.got.tgz:164972.got - 2010.06.03 18:47:42.
