data_PCOD9307430
_publ_section_title
;
Structure prediction by ZEFSAII (Michael W. Deem and Ramdas Pophale) SiO2 
 PCOD9307430
Probable space group: C 2/C
;
_chemical_formula_sum "Si O2"
_cell_formula_units_Z 40
_cell_length_a 21.691464
_cell_length_b 4.983012
_cell_length_c 21.471740
_cell_angle_alpha 90.000000
_cell_angle_beta 129.893574
_cell_angle_gamma 90.000000
_cell_volume 1780.646153
_symmetry_space_group_name_H-M "C 2/C"
_symmetry_group_IT_number 15
_symmetry_cell_setting 'monoclinic'
loop_
_space_group_symop_operation_xyz
x,y,z
-x,y,1/2-z
-x,-y,-z
x,-y,1/2+z
1/2+x,1/2+y,z
1/2-x,1/2+y,1/2-z
1/2-x,1/2-y,-z
1/2+x,1/2-y,1/2+z
loop_
_atom_site_type_symbol
_atom_site_label
_atom_site_fract_x
_atom_site_fract_y
_atom_site_fract_z
Si Si1 0.201873 0.077034 0.736952
Si Si2 0.865608 0.407724 0.994023
Si Si3 0.182292 0.966595 0.868932
Si Si4 0.083355 0.537131 0.341428
Si Si5 0.408452 0.587537 0.443870
O O1 0.224803 0.377421 0.732412
O O2 0.185335 0.055638 0.798994
O O3 0.130565 0.967532 0.648118
O O4 0.773543 0.472910 0.952396
O O5 0.866411 0.111166 0.966211
O O6 0.894501 0.613796 0.959673
O O7 0.922018 0.443075 0.090464
O O8 0.123649 0.170497 0.866127
O O9 0.144907 0.671663 0.849722
O O10 0.000000 0.536800 0.250000
O O11 0.500000 0.500000 0.500000
#
# Coordination Sequence:
#
# PCOD9307430 Si02
#       5
#     8   8   8   8   8
#     4  12  23  44  70 101 131 169 223 267 328 398
#     4  12  25  47  67  98 134 178 224 263 331 399
#     4  12  24  46  71  94 134 175 223 271 324 400
#     4  12  28  44  69  99 131 175 224 279 328 380
#     4  12  26  43  69 102 137 173 212 279 332 388
#
# _framework density 22.463754999999999
#
# number of rings (size 3 to 8) (size 9 to 14) (size 15 to 20)
#    0.000    0.000    4.000    6.000    5.600    0.000 
#    0.000    0.000    0.000    0.000    0.000    0.000 
#    0.000    0.000    0.000    0.000    0.000    0.000 
#
# Total GULP energy -112095.843422 kJ/mol
# GULP energy per Si atom -5604.792171 kJ/mol
# Density = 2.241263 g / cm^3
# Si number density = 22.463755 Si / 1000 Ang^3
#
#
#
# Elastic Constant Matrix: (Units=GPa)
#
#
# Indices 1 2 3 4 5 6 
#
# 1 27.8526 -0.4285 6.3614 0.0003 13.1116 -0.0013
# 2 -0.4285 69.8875 -0.1241 -0.0043 3.5724 0.0053
# 3 6.3614 -0.1241 122.8070 -0.0020 7.7411 0.0007
# 4 0.0003 -0.0043 -0.0020 10.9785 -0.0015 10.7782
# 5 13.1116 3.5724 7.7411 -0.0015 51.3410 0.0006
# 6 -0.0013 0.0053 0.0007 10.7782 0.0006 15.2163
#
#
#
# Elastic Compliance Matrix: (Units=1/GPa)
#
#
# Indices 1 2 3 4 5 6 
#
# 1 0.041116 0.000778 -0.001478 -0.000020 -0.010332 0.000018
# 2 0.000778 0.014375 0.000050 0.000034 -0.001206 -0.000029
# 3 -0.001478 0.000050 0.008275 0.000006 -0.000874 -0.000005
# 4 -0.000020 0.000034 0.000006 0.299038 0.000013 -0.211817
# 5 -0.010332 -0.001206 -0.000874 0.000013 0.022332 -0.000011
# 6 0.000018 -0.000029 -0.000005 -0.211817 -0.000011 0.215755
#
#
# Mechanical properties :
#
#
# Convention : Reuss Voigt Hill
#
# Bulk Modulus (GPa) = 16.00864 25.79608 20.90236
# Shear Modulus (GPa) = 8.02552 29.82305 18.92429
#
# Velocity S-wave (km/s) = 1.89220 3.64759 2.90562
# Velocity P-wave (km/s) = 3.45192 5.40816 4.53674
#
# Compressibility (1/GPa) = 0.06246628
#
# Stress axis : x y z
#
# Youngs Moduli (GPa) = 24.32124 69.56404 120.85275
#
# Poissons Ratio (x) = -0.05409 0.17859
# Poissons Ratio (y) = -0.01891 -0.00608
# Poissons Ratio (z) = 0.03594 -0.00350
#
# Static dielectric constant tensor:
#      x y z
#    x 1.774790 0.000010 0.082030 
#    y 0.000010 1.788640 -0.000010 
#    z 0.082030 -0.000010 1.608250 
# 
# From -- ./inp_files/246295.got.cif
#   From: 2010.05.17/outbox.cif.g08.bks.cpg/sg15_124_cif.got.tgz:246295.got - 2010.06.03 18:47:42.
