data_PCOD9307504
_publ_section_title
;
Structure prediction by ZEFSAII (Michael W. Deem and Ramdas Pophale) SiO2 
 PCOD9307504
Probable space group: C 2/C
;
_chemical_formula_sum "Si O2"
_cell_formula_units_Z 32
_cell_length_a 5.659764
_cell_length_b 18.042167
_cell_length_c 12.562797
_cell_angle_alpha 90.000000
_cell_angle_beta 102.213562
_cell_angle_gamma 90.000000
_cell_volume 1253.806513
_symmetry_space_group_name_H-M "C 2/C"
_symmetry_group_IT_number 15
_symmetry_cell_setting 'monoclinic'
loop_
_space_group_symop_operation_xyz
x,y,z
-x,y,1/2-z
-x,-y,-z
x,-y,1/2+z
1/2+x,1/2+y,z
1/2-x,1/2+y,1/2-z
1/2-x,1/2-y,-z
1/2+x,1/2-y,1/2+z
loop_
_atom_site_type_symbol
_atom_site_label
_atom_site_fract_x
_atom_site_fract_y
_atom_site_fract_z
Si Si1 0.500000 0.894415 0.750000
Si Si2 0.663163 0.341601 0.362231
Si Si3 0.038221 0.847417 0.582283
Si Si4 0.759719 0.511162 0.406126
Si Si5 0.500000 0.241651 0.750000
O O1 0.309292 0.850841 0.657753
O O2 0.659131 0.948905 0.693470
O O3 0.500000 0.314391 0.250000
O O4 0.569403 0.315071 0.467423
O O5 0.662234 0.430037 0.371461
O O6 0.913137 0.313246 0.336664
O O7 0.928017 0.929859 0.562803
O O8 0.884234 0.801860 0.655040
O O9 0.000000 0.500000 0.500000
#
# Coordination Sequence:
#
# PCOD9307504 Si02
#       5
#     4   8   8   8   4
#     4  12  23  46  80 107 156 200 260 316 397 450
#     4  12  29  47  78 116 158 202 268 328 391 464
#     4  12  27  51  78 115 154 211 264 317 400 468
#     4  12  26  47  81 116 156 199 264 331 390 463
#     4  12  29  52  74 113 162 214 256 322 393 484
#
# _framework density 25.522283000000002
#
# number of rings (size 3 to 8) (size 9 to 14) (size 15 to 20)
#    0.000    0.000    5.000    3.750    8.750    1.000 
#    0.000    0.000    0.000    0.000    0.000    0.000 
#    0.000    0.000    0.000    0.000    0.000    0.000 
#
# Total GULP energy -89361.153062 kJ/mol
# GULP energy per Si atom -5585.072066 kJ/mol
# Density = 2.546419 g / cm^3
# Si number density = 25.522283 Si / 1000 Ang^3
#
#
#
# Elastic Constant Matrix: (Units=GPa)
#
#
# Indices 1 2 3 4 5 6 
#
# 1 65.2444 29.7421 38.5275 0.0000 2.2327 0.0000
# 2 29.7421 139.8020 48.2380 0.0000 -23.0911 0.0000
# 3 38.5275 48.2380 225.5605 0.0000 -31.1359 0.0000
# 4 0.0000 0.0000 0.0000 144.5347 0.0000 -8.0806
# 5 2.2327 -23.0911 -31.1359 0.0000 60.4610 0.0000
# 6 0.0000 0.0000 0.0000 -8.0806 0.0000 41.8390
#
#
#
# Elastic Compliance Matrix: (Units=1/GPa)
#
#
# Indices 1 2 3 4 5 6 
#
# 1 0.018819 -0.003579 -0.002943 0.000000 -0.003577 0.000000
# 2 -0.003579 0.008701 -0.000832 0.000000 0.003027 0.000000
# 3 -0.002943 -0.000832 0.005474 0.000000 0.002610 0.000000
# 4 0.000000 0.000000 0.000000 0.006994 0.000000 0.001351
# 5 -0.003577 0.003027 0.002610 0.000000 0.019172 0.000000
# 6 0.000000 0.000000 0.000000 0.001351 0.000000 0.024162
#
#
# Mechanical properties :
#
#
# Convention : Reuss Voigt Hill
#
# Bulk Modulus (GPa) = 54.68293 73.73580 64.20936
# Shear Modulus (GPa) = 48.01910 70.30688 59.16299
#
# Velocity S-wave (km/s) = 4.34228 5.25424 4.81988
# Velocity P-wave (km/s) = 6.82735 8.10943 7.49585
#
# Compressibility (1/GPa) = 0.01828724
#
# Stress axis : x y z
#
# Youngs Moduli (GPa) = 53.13867 114.92476 182.67486
#
# Poissons Ratio (x) = 0.41132 0.53757
# Poissons Ratio (y) = 0.19019 0.15193
# Poissons Ratio (z) = 0.15638 0.09558
#
# Static dielectric constant tensor:
#      x y z
#    x 1.826250 0.000000 -0.031410 
#    y 0.000000 1.991720 0.000000 
#    z -0.031410 0.000000 1.975260 
# 
# From -- ./inp_files/71920.got.cif
#   From: 2010.05.17/outbox.cif.g08.bks.cpg/sg15_36_cif.got.tgz:71920.got - 2010.06.03 18:47:42.
