data_PCOD9307509
_publ_section_title
;
Structure prediction by ZEFSAII (Michael W. Deem and Ramdas Pophale) SiO2 
 PCOD9307509
Probable space group: C 2/C
;
_chemical_formula_sum "Si O2"
_cell_formula_units_Z 36
_cell_length_a 7.941586
_cell_length_b 15.162931
_cell_length_c 17.439941
_cell_angle_alpha 90.000000
_cell_angle_beta 55.140696
_cell_angle_gamma 90.000000
_cell_volume 1723.235865
_symmetry_space_group_name_H-M "C 2/C"
_symmetry_group_IT_number 15
_symmetry_cell_setting 'monoclinic'
loop_
_space_group_symop_operation_xyz
x,y,z
-x,y,1/2-z
-x,-y,-z
x,-y,1/2+z
1/2+x,1/2+y,z
1/2-x,1/2+y,1/2-z
1/2-x,1/2-y,-z
1/2+x,1/2-y,1/2+z
loop_
_atom_site_type_symbol
_atom_site_label
_atom_site_fract_x
_atom_site_fract_y
_atom_site_fract_z
Si Si1 0.863770 0.926178 0.573707
Si Si2 0.029051 0.425198 0.927214
Si Si3 0.819421 0.984766 0.248584
Si Si4 0.000000 0.644644 0.750000
Si Si5 0.357449 0.266811 0.051976
O O1 0.640318 0.933028 0.594930
O O2 0.967959 0.837495 0.515168
O O3 0.865985 0.955140 0.661926
O O4 0.000000 0.000000 0.500000
O O5 0.241977 0.447720 0.832407
O O6 0.038692 0.324923 0.951434
O O7 0.000000 0.500000 0.000000
O O8 0.639530 0.917003 0.269689
O O9 0.000000 0.936308 0.250000
O O10 0.177711 0.698328 0.656879
O O11 0.250000 0.250000 0.000000
#
# Coordination Sequence:
#
# PCOD9307509 Si02
#       5
#     8   8   8   4   8
#     4  12  23  47  73 107 148 191 241 299 362 434
#     4  12  26  47  74 107 146 196 241 299 369 430
#     4  12  24  46  77 105 147 197 241 299 370 433
#     4  12  26  50  72 110 146 188 246 306 362 436
#     4  12  27  45  72 107 149 190 245 300 362 436
#
# _framework density 20.890930000000001
#
# number of rings (size 3 to 8) (size 9 to 14) (size 15 to 20)
#    0.000    0.000    4.444    6.000    4.667    0.000 
#    4.000    0.000    0.000    0.000    0.000    0.000 
#    0.000    0.000    0.000    0.000    0.000    0.000 
#
# Total GULP energy -100421.912570 kJ/mol
# GULP energy per Si atom -5578.995143 kJ/mol
# Density = 2.084338 g / cm^3
# Si number density = 20.890930 Si / 1000 Ang^3
#
#
#
# Elastic Constant Matrix: (Units=GPa)
#
#
# Indices 1 2 3 4 5 6 
#
# 1 157.4897 32.9877 13.2474 0.0000 13.0756 0.0000
# 2 32.9877 141.7280 52.7230 0.0000 9.3782 0.0000
# 3 13.2474 52.7230 143.0050 0.0000 18.1124 0.0000
# 4 0.0000 0.0000 0.0000 40.6011 0.0000 -3.2242
# 5 13.0756 9.3782 18.1124 0.0000 30.2469 0.0000
# 6 0.0000 0.0000 0.0000 -3.2242 0.0000 22.1207
#
#
#
# Elastic Compliance Matrix: (Units=1/GPa)
#
#
# Indices 1 2 3 4 5 6 
#
# 1 0.006866 -0.001519 0.000260 0.000000 -0.002653 0.000000
# 2 -0.001519 0.008531 -0.002979 0.000000 -0.000205 0.000000
# 3 0.000260 -0.002979 0.008618 0.000000 -0.004349 0.000000
# 4 0.000000 0.000000 0.000000 0.024918 0.000000 0.003632
# 5 -0.002653 -0.000205 -0.004349 0.000000 0.036876 0.000000
# 6 0.000000 0.000000 0.000000 0.003632 0.000000 0.045736
#
#
# Mechanical properties :
#
#
# Convention : Reuss Voigt Hill
#
# Bulk Modulus (GPa) = 64.35292 71.12653 67.73973
# Shear Modulus (GPa) = 34.43515 41.47803 37.95659
#
# Velocity S-wave (km/s) = 4.06437 4.46068 4.26713
# Velocity P-wave (km/s) = 7.27300 7.78786 7.53483
#
# Compressibility (1/GPa) = 0.01553931
#
# Stress axis : x y z
#
# Youngs Moduli (GPa) = 145.64004 117.22009 116.04085
#
# Poissons Ratio (x) = 0.17810 -0.03018
# Poissons Ratio (y) = 0.22128 0.34563
# Poissons Ratio (z) = -0.03788 0.34914
#
# Static dielectric constant tensor:
#      x y z
#    x 1.637870 0.000000 0.018860 
#    y 0.000000 1.351000 0.000000 
#    z 0.018860 0.000000 1.688240 
# 
# From -- ./inp_files/188643.got.cif
#   From: 2010.05.17/outbox.cif.g08.bks.cpg/sg15_95_cif.got.tgz:188643.got - 2010.06.03 18:47:42.
