data_PCOD9307265
_publ_section_title
;
Structure prediction by ZEFSAII (Michael W. Deem and Ramdas Pophale) SiO2 
 PCOD9307265
Probable space group: C 2/C
;
_chemical_formula_sum "Si O2"
_cell_formula_units_Z 48
_cell_length_a 27.393044
_cell_length_b 5.982791
_cell_length_c 20.594265
_cell_angle_alpha 90.000000
_cell_angle_beta 151.724891
_cell_angle_gamma 90.000000
_cell_volume 1598.817879
_symmetry_space_group_name_H-M "C 2/C"
_symmetry_group_IT_number 15
_symmetry_cell_setting 'monoclinic'
loop_
_space_group_symop_operation_xyz
x,y,z
-x,y,1/2-z
-x,-y,-z
x,-y,1/2+z
1/2+x,1/2+y,z
1/2-x,1/2+y,1/2-z
1/2-x,1/2-y,-z
1/2+x,1/2-y,1/2+z
loop_
_atom_site_type_symbol
_atom_site_label
_atom_site_fract_x
_atom_site_fract_y
_atom_site_fract_z
Si Si1 0.500000 0.853313 0.750000
Si Si2 0.000000 0.000000 0.000000
Si Si3 0.288915 0.314146 0.812077
Si Si4 0.414789 0.439016 0.243621
Si Si5 0.858929 0.734332 0.559663
Si Si6 0.808556 0.451052 0.672066
Si Si7 0.517442 0.197894 0.931515
O O1 0.398524 0.003408 0.635778
O O2 0.493453 0.710499 0.677635
O O3 0.096887 0.162179 0.083545
O O4 0.931102 0.236494 0.941720
O O5 0.267444 0.041876 0.784734
O O6 0.269648 0.383019 0.863485
O O7 0.395886 0.596067 0.159474
O O8 0.452079 0.557923 0.353612
O O9 0.320258 0.278365 0.146286
O O10 0.743519 0.818154 0.414445
O O11 0.916090 0.719974 0.556081
O O12 0.927017 0.522214 0.822342
#
# Coordination Sequence:
#
# PCOD9307265 Si02
#       7
#     4   4   8   8   8   8   8
#     4  12  22  44  72 104 146 196 252 308 388 478
#     4  12  26  52  82 112 158 218 262 342 416 484
#     4  12  28  54  81 119 162 214 278 341 409 495
#     4  12  24  46  72 106 149 196 254 318 390 480
#     4  12  24  46  71 109 150 194 253 315 393 468
#     4  12  27  45  76 112 149 201 261 328 392 477
#     4  12  24  49  71 108 151 194 257 316 391 478
#
# _framework density 30.022182999999998
#
# number of rings (size 3 to 8) (size 9 to 14) (size 15 to 20)
#    0.000    0.000    8.333    1.500    0.000    4.667 
#    6.000    0.000    0.000    0.000    0.000    0.000 
#    0.000    0.000    0.000    0.000    0.000    0.000 
#
# Total GULP energy -133844.286818 kJ/mol
# GULP energy per Si atom -5576.845284 kJ/mol
# Density = 2.995385 g / cm^3
# Si number density = 30.022183 Si / 1000 Ang^3
#
#
#
# Elastic Constant Matrix: (Units=GPa)
#
#
# Indices 1 2 3 4 5 6 
#
# 1 199.4390 56.3413 25.1764 -0.0001 18.6684 -0.0001
# 2 56.3413 131.0685 37.6284 0.0004 -2.2795 0.0001
# 3 25.1764 37.6284 72.6123 -0.0001 4.9175 0.0000
# 4 -0.0001 0.0004 -0.0001 50.6576 0.0000 9.3868
# 5 18.6684 -2.2795 4.9175 0.0000 29.8471 0.0000
# 6 -0.0001 0.0001 0.0000 9.3868 0.0000 85.4621
#
#
#
# Elastic Compliance Matrix: (Units=1/GPa)
#
#
# Indices 1 2 3 4 5 6 
#
# 1 0.006180 -0.002570 -0.000542 0.000000 -0.003973 0.000000
# 2 -0.002570 0.010096 -0.004552 0.000000 0.003129 0.000000
# 3 -0.000542 -0.004552 0.016504 0.000000 -0.002728 0.000000
# 4 0.000000 0.000000 0.000000 0.020150 0.000000 -0.002213
# 5 -0.003973 0.003129 -0.002728 0.000000 0.036677 0.000000
# 6 0.000000 0.000000 0.000000 -0.002213 0.000000 0.011944
#
#
# Mechanical properties :
#
#
# Convention : Reuss Voigt Hill
#
# Bulk Modulus (GPa) = 57.30497 71.26801 64.28649
# Shear Modulus (GPa) = 40.75053 52.12495 46.43774
#
# Velocity S-wave (km/s) = 3.68822 4.17131 3.93718
# Velocity P-wave (km/s) = 6.10461 6.85491 6.49061
#
# Compressibility (1/GPa) = 0.01745049
#
# Stress axis : x y z
#
# Youngs Moduli (GPa) = 161.80121 99.05085 60.59306
#
# Poissons Ratio (x) = 0.25458 0.03284
# Poissons Ratio (y) = 0.41587 0.27585
# Poissons Ratio (z) = 0.08769 0.45093
#
# Static dielectric constant tensor:
#      x y z
#    x 2.708780 0.000000 -0.366360 
#    y 0.000000 2.611660 0.000000 
#    z -0.366360 0.000000 2.670370 
# 
# From -- ./inp_files/180021.got.cif
#   From: 2010.05.17/outbox.cif.g08.bks.cpg/sg15_91_cif.got.tgz:180021.got - 2010.06.03 18:47:42.
