data_PCOD9307606
_publ_section_title
;
Structure prediction by ZEFSAII (Michael W. Deem and Ramdas Pophale) SiO2 
 PCOD9307606
Probable space group: C 2/C
;
_chemical_formula_sum "Si O2"
_cell_formula_units_Z 60
_cell_length_a 12.211889
_cell_length_b 26.056091
_cell_length_c 17.413115
_cell_angle_alpha 90.000000
_cell_angle_beta 151.531077
_cell_angle_gamma 90.000000
_cell_volume 2641.176063
_symmetry_space_group_name_H-M "C 2/C"
_symmetry_group_IT_number 15
_symmetry_cell_setting 'monoclinic'
loop_
_space_group_symop_operation_xyz
x,y,z
-x,y,1/2-z
-x,-y,-z
x,-y,1/2+z
1/2+x,1/2+y,z
1/2-x,1/2+y,1/2-z
1/2-x,1/2-y,-z
1/2+x,1/2-y,1/2+z
loop_
_atom_site_type_symbol
_atom_site_label
_atom_site_fract_x
_atom_site_fract_y
_atom_site_fract_z
Si Si1 0.028710 0.590803 0.882202
Si Si2 0.690649 0.496086 0.423784
Si Si3 0.509288 0.447092 0.051694
Si Si4 0.000000 0.681739 0.750000
Si Si5 0.583033 0.902013 0.017758
Si Si6 0.172766 0.804949 0.291229
Si Si7 0.327001 0.859270 0.713104
Si Si8 0.956743 0.224303 0.961489
O O1 0.076847 0.642606 0.865389
O O2 0.761227 0.577478 0.703881
O O3 0.174688 0.540953 0.949484
O O4 0.064629 0.594923 0.995793
O O5 0.500000 0.518963 0.250000
O O6 0.562999 0.460732 0.406638
O O7 0.849854 0.458265 0.471590
O O8 0.500000 0.500000 0.000000
O O9 0.323713 0.408103 0.904038
O O10 0.214218 0.715242 0.853228
O O11 0.464779 0.873728 0.873821
O O12 0.792394 0.865384 0.173401
O O13 0.077565 0.791954 0.148515
O O14 0.422851 0.779176 0.455590
O O15 0.000000 0.785000 0.250000
O O16 0.500000 0.846934 0.750000
O O17 0.148618 0.813459 0.614988
#
# Coordination Sequence:
#
# PCOD9307606 Si02
#       8
#     8   8   8   4   8   8   8   8
#     4  12  26  47  69 103 148 200 247 305 371 448
#     4  12  26  42  71 105 144 195 250 310 365 437
#     4  12  25  42  67  99 144 192 244 305 373 439
#     4  12  26  52  76 102 160 200 248 302 376 462
#     4  12  24  44  71 108 144 192 243 311 377 444
#     4  12  25  48  79 112 149 184 250 321 386 442
#     4  12  24  43  72 104 142 182 247 308 370 435
#     4  12  27  49  76 112 143 200 241 310 384 454
#
# _framework density 22.717153
#
# number of rings (size 3 to 8) (size 9 to 14) (size 15 to 20)
#    0.000    0.000    5.333    4.800    1.867    0.533 
#    0.000    0.000    0.000    0.000    0.000    0.000 
#    0.000    0.000    0.000    0.000    0.000    0.000 
#
# Total GULP energy -168080.910999 kJ/mol
# GULP energy per Si atom -5602.697033 kJ/mol
# Density = 2.266545 g / cm^3
# Si number density = 22.717153 Si / 1000 Ang^3
#
#
#
# Elastic Constant Matrix: (Units=GPa)
#
#
# Indices 1 2 3 4 5 6 
#
# 1 110.1636 13.0296 28.7050 0.0009 7.7490 0.0009
# 2 13.0296 77.4936 13.9360 0.0014 22.4012 0.0002
# 3 28.7050 13.9360 72.9184 -0.0015 -2.6407 0.0000
# 4 0.0009 0.0014 -0.0015 71.7582 0.0011 12.8514
# 5 7.7490 22.4012 -2.6407 0.0011 37.8020 0.0006
# 6 0.0009 0.0002 0.0000 12.8514 0.0006 16.8120
#
#
#
# Elastic Compliance Matrix: (Units=1/GPa)
#
#
# Indices 1 2 3 4 5 6 
#
# 1 0.010337 -0.000374 -0.004077 0.000000 -0.002182 0.000000
# 2 -0.000374 0.016430 -0.003351 0.000000 -0.009894 0.000000
# 3 -0.004077 -0.003351 0.016102 0.000000 0.003946 0.000000
# 4 0.000000 0.000000 0.000000 0.016146 0.000000 -0.012342
# 5 -0.002182 -0.009894 0.003946 0.000000 0.033040 -0.000001
# 6 0.000000 0.000000 0.000000 -0.012342 -0.000001 0.068916
#
#
# Mechanical properties :
#
#
# Convention : Reuss Voigt Hill
#
# Bulk Modulus (GPa) = 36.67672 41.32408 39.00040
# Shear Modulus (GPa) = 26.93038 38.93476 32.93257
#
# Velocity S-wave (km/s) = 3.44679 4.14441 3.81160
# Velocity P-wave (km/s) = 5.65867 6.41340 6.04782
#
# Compressibility (1/GPa) = 0.02726525
#
# Stress axis : x y z
#
# Youngs Moduli (GPa) = 96.73538 60.86506 62.10309
#
# Poissons Ratio (x) = 0.02277 0.25319
# Poissons Ratio (y) = 0.03619 0.20811
# Poissons Ratio (z) = 0.39439 0.20396
#
# Static dielectric constant tensor:
#      x y z
#    x 1.885110 0.000000 -0.062650 
#    y 0.000000 1.858070 0.000000 
#    z -0.062650 0.000000 2.059650 
# 
# From -- ./inp_files/201276.got.cif
#   From: 2010.05.17/outbox.cif.g08.bks.cpg/sg15_101_cif.got.tgz:201276.got - 2010.06.03 18:47:42.
