data_PCOD9307874
_publ_section_title
;
Structure prediction by ZEFSAII (Michael W. Deem and Ramdas Pophale) SiO2 
 PCOD9307874
Probable space group: C 2/C
;
_chemical_formula_sum "Si O2"
_cell_formula_units_Z 28
_cell_length_a 12.181511
_cell_length_b 11.192607
_cell_length_c 7.971783
_cell_angle_alpha 90.000000
_cell_angle_beta 107.083651
_cell_angle_gamma 90.000000
_cell_volume 1038.938503
_symmetry_space_group_name_H-M "C 2/C"
_symmetry_group_IT_number 15
_symmetry_cell_setting 'monoclinic'
loop_
_space_group_symop_operation_xyz
x,y,z
-x,y,1/2-z
-x,-y,-z
x,-y,1/2+z
1/2+x,1/2+y,z
1/2-x,1/2+y,1/2-z
1/2-x,1/2-y,-z
1/2+x,1/2-y,1/2+z
loop_
_atom_site_type_symbol
_atom_site_label
_atom_site_fract_x
_atom_site_fract_y
_atom_site_fract_z
Si Si1 0.944538 0.743621 0.413839
Si Si2 0.500000 0.579271 0.250000
Si Si3 0.776522 0.912875 0.217526
Si Si4 0.890139 0.500345 0.587602
O O1 0.991918 0.837037 0.577879
O O2 0.818327 0.788661 0.307422
O O3 0.922995 0.617502 0.495937
O O4 0.000000 0.749926 0.250000
O O5 0.386120 0.493723 0.209206
O O6 0.718773 0.978429 0.346113
O O7 0.664781 0.896418 0.049560
O O8 0.000000 0.481068 0.750000
#
# Coordination Sequence:
#
# PCOD9307874 Si02
#       4
#     8   4   8   8
#     4  12  26  50  84 120 158 209 271 335 399 476
#     4  12  24  52  84 120 156 208 282 332 394 466
#     4  12  25  49  83 113 159 210 269 330 392 477
#     4  12  28  50  78 120 166 211 261 330 412 479
#
# _framework density 26.950586999999999
#
# number of rings (size 3 to 8) (size 9 to 14) (size 15 to 20)
#    0.000    0.000    5.714    4.286    0.000    3.429 
#    0.000    4.286    0.000    0.000    0.000    0.000 
#    0.000    0.000    0.000    0.000    0.000    0.000 
#
# Total GULP energy -78210.995888 kJ/mol
# GULP energy per Si atom -5586.499706 kJ/mol
# Density = 2.688925 g / cm^3
# Si number density = 26.950587 Si / 1000 Ang^3
#
#
#
# Elastic Constant Matrix: (Units=GPa)
#
#
# Indices 1 2 3 4 5 6 
#
# 1 173.3050 32.7786 75.8856 0.0000 8.1310 0.0000
# 2 32.7786 119.7117 81.2281 0.0000 24.6153 0.0000
# 3 75.8856 81.2281 212.8453 0.0000 33.0830 0.0000
# 4 0.0000 0.0000 0.0000 49.1959 0.0000 0.4177
# 5 8.1310 24.6153 33.0830 0.0000 70.1043 0.0000
# 6 0.0000 0.0000 0.0000 0.4177 0.0000 21.9918
#
#
#
# Elastic Compliance Matrix: (Units=1/GPa)
#
#
# Indices 1 2 3 4 5 6 
#
# 1 0.006858 -0.000356 -0.002380 0.000000 0.000453 0.000000
# 2 -0.000356 0.011579 -0.003957 0.000000 -0.002157 0.000000
# 3 -0.002380 -0.003957 0.007336 0.000000 -0.001797 0.000000
# 4 0.000000 0.000000 0.000000 0.020330 0.000000 -0.000386
# 5 0.000453 -0.002157 -0.001797 0.000000 0.015817 0.000000
# 6 0.000000 0.000000 0.000000 -0.000386 0.000000 0.045479
#
#
# Mechanical properties :
#
#
# Convention : Reuss Voigt Hill
#
# Bulk Modulus (GPa) = 80.72118 98.40517 89.56317
# Shear Modulus (GPa) = 40.02753 49.32304 44.67529
#
# Velocity S-wave (km/s) = 3.85804 4.28264 4.07587
# Velocity P-wave (km/s) = 7.06134 7.81327 7.44680
#
# Compressibility (1/GPa) = 0.01238832
#
# Stress axis : x y z
#
# Youngs Moduli (GPa) = 145.80927 86.36138 136.31715
#
# Poissons Ratio (x) = 0.03078 0.32437
# Poissons Ratio (y) = 0.05196 0.53936
# Poissons Ratio (z) = 0.34696 0.34170
#
# Static dielectric constant tensor:
#      x y z
#    x 2.139810 0.000000 -0.040720 
#    y 0.000000 2.166000 0.000000 
#    z -0.040720 0.000000 2.207140 
# 
# From -- ./inp_files/36419.got.cif
#   From: 2010.05.17/outbox.cif.g08.bks.cpg/sg15_19_cif.got.tgz:36419.got - 2010.06.03 18:47:42.
