data_PCOD9307038
_publ_section_title
;
Structure prediction by ZEFSAII (Michael W. Deem and Ramdas Pophale) SiO2 
 PCOD9307038
Probable space group: C 2/C
;
_chemical_formula_sum "Si O2"
_cell_formula_units_Z 40
_cell_length_a 4.847965
_cell_length_b 12.837783
_cell_length_c 26.122762
_cell_angle_alpha 90.000000
_cell_angle_beta 79.787186
_cell_angle_gamma 90.000000
_cell_volume 1600.046246
_symmetry_space_group_name_H-M "C 2/C"
_symmetry_group_IT_number 15
_symmetry_cell_setting 'monoclinic'
loop_
_space_group_symop_operation_xyz
x,y,z
-x,y,1/2-z
-x,-y,-z
x,-y,1/2+z
1/2+x,1/2+y,z
1/2-x,1/2+y,1/2-z
1/2-x,1/2-y,-z
1/2+x,1/2-y,1/2+z
loop_
_atom_site_type_symbol
_atom_site_label
_atom_site_fract_x
_atom_site_fract_y
_atom_site_fract_z
Si Si1 0.642598 0.490264 0.144632
Si Si2 0.538977 0.207078 0.036203
Si Si3 0.470309 0.287613 0.609774
Si Si4 0.758708 0.543791 0.524170
Si Si5 0.070038 0.612787 0.690075
O O1 0.541596 0.605448 0.135559
O O2 0.740551 0.449540 0.085890
O O3 0.886637 0.486078 0.178112
O O4 0.390883 0.418103 0.172295
O O5 0.687555 0.193428 0.087112
O O6 0.214266 0.239352 0.059941
O O7 0.680947 0.325288 0.015241
O O8 0.455964 0.078774 0.019130
O O9 0.477694 0.199667 0.652408
O O10 0.500000 0.500000 0.500000
O O11 0.000000 0.642430 0.750000
#
# Coordination Sequence:
#
# PCOD9307038 Si02
#       5
#     8   8   8   8   8
#     4  12  25  47  73 102 143 183 233 284 354 417
#     4  12  23  40  66 102 141 185 222 269 339 418
#     4  12  25  46  69 100 140 181 232 284 344 413
#     4  12  21  39  65 100 141 175 216 267 333 420
#     4  12  28  48  71 100 133 182 243 303 351 400
#
# _framework density 24.999275000000001
#
# number of rings (size 3 to 8) (size 9 to 14) (size 15 to 20)
#    0.000    0.000    4.000    7.200    0.000    1.600 
#    0.000    0.000    0.000    0.000    0.000    0.000 
#    0.000    0.000    0.000    0.000    0.000    0.000 
#
# Total GULP energy -112028.369342 kJ/mol
# GULP energy per Si atom -5601.418467 kJ/mol
# Density = 2.494238 g / cm^3
# Si number density = 24.999275 Si / 1000 Ang^3
#
#
#
# Elastic Constant Matrix: (Units=GPa)
#
#
# Indices 1 2 3 4 5 6 
#
# 1 164.9197 19.2268 47.9375 0.0000 -0.2818 0.0000
# 2 19.2268 160.5882 44.8453 0.0000 -5.1066 0.0000
# 3 47.9375 44.8453 156.8678 0.0000 -15.9883 0.0000
# 4 0.0000 0.0000 0.0000 31.1855 0.0000 8.9706
# 5 -0.2818 -5.1066 -15.9883 0.0000 31.7351 0.0000
# 6 0.0000 0.0000 0.0000 8.9706 0.0000 45.3494
#
#
#
# Elastic Compliance Matrix: (Units=1/GPa)
#
#
# Indices 1 2 3 4 5 6 
#
# 1 0.006696 -0.000254 -0.002078 0.000000 -0.001028 0.000000
# 2 -0.000254 0.006777 -0.001844 0.000000 0.000159 0.000000
# 3 -0.002078 -0.001844 0.007911 0.000000 0.003671 0.000000
# 4 0.000000 0.000000 0.000000 0.034001 0.000000 -0.006726
# 5 -0.001028 0.000159 0.003671 0.000000 0.033377 0.000000
# 6 0.000000 0.000000 0.000000 -0.006726 0.000000 0.023381
#
#
# Mechanical properties :
#
#
# Convention : Reuss Voigt Hill
#
# Bulk Modulus (GPa) = 76.73331 78.48834 77.61083
# Shear Modulus (GPa) = 40.05164 46.34508 43.19836
#
# Velocity S-wave (km/s) = 4.00698 4.31031 4.16141
# Velocity P-wave (km/s) = 7.22279 7.49908 7.36223
#
# Compressibility (1/GPa) = 0.01303215
#
# Stress axis : x y z
#
# Youngs Moduli (GPa) = 149.35375 147.54834 126.40490
#
# Poissons Ratio (x) = 0.03747 0.26271
# Poissons Ratio (y) = 0.03793 0.23305
# Poissons Ratio (z) = 0.31040 0.27203
#
# Static dielectric constant tensor:
#      x y z
#    x 1.979410 0.000000 -0.058010 
#    y 0.000000 2.330110 0.000000 
#    z -0.058010 0.000000 1.856750 
# 
# From -- ./inp_files/260179.got.cif
#   From: 2010.05.17/outbox.cif.g08.bks.cpg/sg15_131_cif.got.tgz:260179.got - 2010.06.03 18:47:42.
