data_PCOD9307769
_publ_section_title
;
Structure prediction by ZEFSAII (Michael W. Deem and Ramdas Pophale) SiO2 
 PCOD9307769
Probable space group: C 2/C
;
_chemical_formula_sum "Si O2"
_cell_formula_units_Z 48
_cell_length_a 10.258646
_cell_length_b 14.072653
_cell_length_c 15.080475
_cell_angle_alpha 90.000000
_cell_angle_beta 64.761940
_cell_angle_gamma 90.000000
_cell_volume 1969.294873
_symmetry_space_group_name_H-M "C 2/C"
_symmetry_group_IT_number 15
_symmetry_cell_setting 'monoclinic'
loop_
_space_group_symop_operation_xyz
x,y,z
-x,y,1/2-z
-x,-y,-z
x,-y,1/2+z
1/2+x,1/2+y,z
1/2-x,1/2+y,1/2-z
1/2-x,1/2-y,-z
1/2+x,1/2-y,1/2+z
loop_
_atom_site_type_symbol
_atom_site_label
_atom_site_fract_x
_atom_site_fract_y
_atom_site_fract_z
Si Si1 0.369593 0.556754 0.456983
Si Si2 0.051376 0.246074 0.387090
Si Si3 0.361584 0.808541 0.752387
Si Si4 0.067590 0.603694 0.458828
Si Si5 0.000000 0.366001 0.250000
Si Si6 0.257581 0.506886 0.177282
Si Si7 0.000000 0.009789 0.750000
O O1 0.486813 0.642213 0.421574
O O2 0.219966 0.600995 0.465548
O O3 0.343836 0.525521 0.565255
O O4 0.412962 0.476447 0.370872
O O5 0.211467 0.245892 0.299302
O O6 0.038918 0.315260 0.473304
O O7 0.954042 0.297137 0.341839
O O8 0.500000 0.753039 0.750000
O O9 0.398062 0.859478 0.649726
O O10 0.325772 0.897554 0.826126
O O11 0.000000 0.500000 0.500000
O O12 0.866607 0.432029 0.263544
O O13 0.356250 0.522065 0.235671
#
# Coordination Sequence:
#
# PCOD9307769 Si02
#       7
#     8   8   8   8   4   8   4
#     4  12  24  47  77 110 147 202 255 315 379 459
#     4  12  27  46  76 111 147 199 263 316 374 461
#     4  12  26  49  74 111 157 199 253 325 383 454
#     4  12  25  48  76 110 152 202 258 314 383 465
#     4  12  25  48  74 109 146 210 256 301 390 464
#     4  12  25  46  79 111 151 201 254 312 388 464
#     4  12  25  44  74 115 154 190 252 325 376 448
#
# _framework density 24.374207999999999
#
# number of rings (size 3 to 8) (size 9 to 14) (size 15 to 20)
#    0.000    0.000    5.833    4.500    2.333    0.667 
#    1.500    0.000    0.000    0.000    0.000    0.000 
#    0.000    0.000    0.000    0.000    0.000    0.000 
#
# Total GULP energy -133735.712289 kJ/mol
# GULP energy per Si atom -5572.321345 kJ/mol
# Density = 2.431873 g / cm^3
# Si number density = 24.374208 Si / 1000 Ang^3
#
#
#
# Elastic Constant Matrix: (Units=GPa)
#
#
# Indices 1 2 3 4 5 6 
#
# 1 130.9162 12.8876 32.0279 0.0000 -6.4797 0.0000
# 2 12.8876 63.9574 10.8285 0.0000 -12.2994 0.0000
# 3 32.0279 10.8285 139.8803 0.0000 -7.6116 0.0000
# 4 0.0000 0.0000 0.0000 39.2081 0.0000 -12.9520
# 5 -6.4797 -12.2994 -7.6116 0.0000 31.2381 0.0000
# 6 0.0000 0.0000 0.0000 -12.9520 0.0000 12.2317
#
#
#
# Elastic Compliance Matrix: (Units=1/GPa)
#
#
# Indices 1 2 3 4 5 6 
#
# 1 0.008224 -0.001207 -0.001746 0.000000 0.000805 0.000000
# 2 -0.001207 0.017221 -0.000711 0.000000 0.006357 0.000000
# 3 -0.001746 -0.000711 0.007671 0.000000 0.001227 0.000000
# 4 0.000000 0.000000 0.000000 0.039226 0.000000 0.041536
# 5 0.000805 0.006357 0.001227 0.000000 0.034981 0.000000
# 6 0.000000 0.000000 0.000000 0.041536 0.000000 0.125737
#
#
# Mechanical properties :
#
#
# Convention : Reuss Voigt Hill
#
# Bulk Modulus (GPa) = 38.77595 49.58244 44.17920
# Shear Modulus (GPa) = 20.08166 35.13623 27.60895
#
# Velocity S-wave (km/s) = 2.87346 3.80087 3.36923
# Velocity P-wave (km/s) = 5.19155 6.29671 5.77064
#
# Compressibility (1/GPa) = 0.02578918
#
# Stress axis : x y z
#
# Youngs Moduli (GPa) = 121.59181 58.06715 130.36946
#
# Poissons Ratio (x) = 0.07007 0.22760
# Poissons Ratio (y) = 0.14673 0.09268
# Poissons Ratio (z) = 0.21228 0.04128
#
# Static dielectric constant tensor:
#      x y z
#    x 1.982130 0.000000 0.032160 
#    y 0.000000 1.954800 0.000000 
#    z 0.032160 0.000000 1.866070 
# 
# From -- ./inp_files/144104.got.cif
#   From: 2010.05.17/outbox.cif.g08.bks.cpg/sg15_73_cif.got.tgz:144104.got - 2010.06.03 18:47:42.
