data_PCOD9307402
_publ_section_title
;
Structure prediction by ZEFSAII (Michael W. Deem and Ramdas Pophale) SiO2 
 PCOD9307402
Probable space group: C 2/C
;
_chemical_formula_sum "Si O2"
_cell_formula_units_Z 40
_cell_length_a 15.323839
_cell_length_b 11.555469
_cell_length_c 8.664802
_cell_angle_alpha 90.000000
_cell_angle_beta 87.027321
_cell_angle_gamma 90.000000
_cell_volume 1532.247813
_symmetry_space_group_name_H-M "C 2/C"
_symmetry_group_IT_number 15
_symmetry_cell_setting 'monoclinic'
loop_
_space_group_symop_operation_xyz
x,y,z
-x,y,1/2-z
-x,-y,-z
x,-y,1/2+z
1/2+x,1/2+y,z
1/2-x,1/2+y,1/2-z
1/2-x,1/2-y,-z
1/2+x,1/2-y,1/2+z
loop_
_atom_site_type_symbol
_atom_site_label
_atom_site_fract_x
_atom_site_fract_y
_atom_site_fract_z
Si Si1 0.816114 0.348794 0.690352
Si Si2 0.367635 0.444966 0.744960
Si Si3 0.574697 0.663942 0.954302
Si Si4 0.562210 0.947727 0.364579
Si Si5 0.877788 0.237944 0.976849
O O1 0.728380 0.421088 0.673449
O O2 0.854126 0.268041 0.550760
O O3 0.888816 0.445871 0.718096
O O4 0.817467 0.262079 0.835787
O O5 0.396667 0.569004 0.676384
O O6 0.361294 0.368057 0.591070
O O7 0.428531 0.399116 0.878788
O O8 0.480651 0.720011 0.926031
O O9 0.500000 0.883682 0.250000
O O10 0.500000 0.000000 0.500000
O O11 0.627880 0.855750 0.425989
#
# Coordination Sequence:
#
# PCOD9307402 Si02
#       5
#     8   8   8   8   8
#     4  12  27  46  74 108 149 190 244 309 362 432
#     4  12  29  45  76 108 150 192 240 309 372 431
#     4  12  26  50  72 109 146 196 244 297 367 445
#     4  12  23  43  71 105 139 190 242 301 358 434
#     4  12  26  48  75 104 146 195 249 296 365 440
#
# _framework density 26.105439000000001
#
# number of rings (size 3 to 8) (size 9 to 14) (size 15 to 20)
#    0.000    0.000    4.000    5.400    5.600    1.600 
#    0.000    0.000    0.000    0.000    0.000    0.000 
#    0.000    0.000    0.000    0.000    0.000    0.000 
#
# Total GULP energy -112037.088605 kJ/mol
# GULP energy per Si atom -5601.854430 kJ/mol
# Density = 2.604602 g / cm^3
# Si number density = 26.105439 Si / 1000 Ang^3
#
#
#
# Elastic Constant Matrix: (Units=GPa)
#
#
# Indices 1 2 3 4 5 6 
#
# 1 113.4078 20.3093 6.2155 0.0000 -7.9881 0.0000
# 2 20.3093 125.7489 14.6425 0.0000 -12.0826 0.0000
# 3 6.2155 14.6425 74.3348 0.0000 9.2997 0.0000
# 4 0.0000 0.0000 0.0000 48.1697 0.0000 -0.9155
# 5 -7.9881 -12.0826 9.2997 0.0000 30.3747 0.0000
# 6 0.0000 0.0000 0.0000 -0.9155 0.0000 32.4936
#
#
#
# Elastic Compliance Matrix: (Units=1/GPa)
#
#
# Indices 1 2 3 4 5 6 
#
# 1 0.009230 -0.001184 -0.000815 0.000000 0.002206 0.000000
# 2 -0.001184 0.008755 -0.002103 0.000000 0.003815 0.000000
# 3 -0.000815 -0.002103 0.014627 0.000000 -0.005529 0.000000
# 4 0.000000 0.000000 0.000000 0.020771 0.000000 0.000585
# 5 0.002206 0.003815 -0.005529 0.000000 0.036713 0.000000
# 6 0.000000 0.000000 0.000000 0.000585 0.000000 0.030792
#
#
# Mechanical properties :
#
#
# Convention : Reuss Voigt Hill
#
# Bulk Modulus (GPa) = 40.96861 43.98068 42.47465
# Shear Modulus (GPa) = 36.43633 40.36254 38.39944
#
# Velocity S-wave (km/s) = 3.74001 3.93636 3.83944
# Velocity P-wave (km/s) = 5.86326 6.12730 5.99673
#
# Compressibility (1/GPa) = 0.02440893
#
# Stress axis : x y z
#
# Youngs Moduli (GPa) = 108.34526 114.22051 68.36824
#
# Poissons Ratio (x) = 0.13522 0.05569
# Poissons Ratio (y) = 0.12827 0.14377
# Poissons Ratio (z) = 0.08825 0.24019
#
# Static dielectric constant tensor:
#      x y z
#    x 2.060840 0.000000 -0.032150 
#    y 0.000000 1.968210 0.000000 
#    z -0.032150 0.000000 2.115850 
# 
# From -- ./inp_files/46201.got.cif
#   From: 2010.05.17/outbox.cif.g08.bks.cpg/sg15_24_cif.got.tgz:46201.got - 2010.06.03 18:47:42.
