data_PCOD9307103
_publ_section_title
;
Structure prediction by ZEFSAII (Michael W. Deem and Ramdas Pophale) SiO2 
 PCOD9307103
Probable space group: C 2/C
;
_chemical_formula_sum "Si O2"
_cell_formula_units_Z 56
_cell_length_a 24.314460
_cell_length_b 16.106471
_cell_length_c 21.203718
_cell_angle_alpha 90.000000
_cell_angle_beta 161.210688
_cell_angle_gamma 90.000000
_cell_volume 2674.564480
_symmetry_space_group_name_H-M "C 2/C"
_symmetry_group_IT_number 15
_symmetry_cell_setting 'monoclinic'
loop_
_space_group_symop_operation_xyz
x,y,z
-x,y,1/2-z
-x,-y,-z
x,-y,1/2+z
1/2+x,1/2+y,z
1/2-x,1/2+y,1/2-z
1/2-x,1/2-y,-z
1/2+x,1/2-y,1/2+z
loop_
_atom_site_type_symbol
_atom_site_label
_atom_site_fract_x
_atom_site_fract_y
_atom_site_fract_z
Si Si1 0.945000 0.678552 0.848652
Si Si2 0.080806 0.116567 0.039101
Si Si3 0.726053 0.429374 0.829905
Si Si4 0.917686 0.724568 0.369508
Si Si5 0.738251 0.032694 0.812152
Si Si6 0.118112 0.187708 0.322261
Si Si7 0.910930 0.425806 0.489099
O O1 0.973800 0.719239 0.947773
O O2 0.774751 0.620651 0.665580
O O3 0.959478 0.748689 0.812573
O O4 0.103494 0.618202 0.008781
O O5 0.101028 0.090364 0.134767
O O6 0.920341 0.178002 0.856433
O O7 0.242134 0.175864 0.194128
O O8 0.104620 0.030988 0.025522
O O9 0.680657 0.387719 0.846726
O O10 0.785167 0.524797 0.898444
O O11 0.025774 0.668458 0.437955
O O12 0.590077 0.975768 0.680904
O O13 0.674107 0.057021 0.672154
O O14 0.250000 0.250000 0.500000
O O15 0.000000 0.156644 0.250000
#
# Coordination Sequence:
#
# PCOD9307103 Si02
#       7
#     8   8   8   8   8   8   8
#     4   9  16  29  43  57  81 112 144 178 203 234
#     4   9  15  24  43  64  84 108 136 167 207 254
#     4   9  16  29  43  57  81 112 144 177 204 236
#     4   9  15  24  43  64  84 108 136 166 208 254
#     4   7  12  23  41  60  76 105 142 168 198 246
#     4  12  22  30  42  62  82 114 150 177 203 238
#     4   7  12  23  41  60  76 105 142 167 198 251
#
# _framework density 20.937987
#
# number of rings (size 3 to 8) (size 9 to 14) (size 15 to 20)
#    0.000    3.143    2.857    3.429    0.000    0.000 
#    0.000    0.000    3.143    2.571    0.000    0.000 
#    0.000    2.286    0.000    0.143    0.000    0.000 
#
# Total GULP energy -156000.380663 kJ/mol
# GULP energy per Si atom -5571.442167 kJ/mol
# Density = 2.089033 g / cm^3
# Si number density = 20.937987 Si / 1000 Ang^3
#
#
#
# Elastic Constant Matrix: (Units=GPa)
#
#
# Indices 1 2 3 4 5 6 
#
# 1 79.6697 47.9180 10.4500 0.0112 21.8793 0.0066
# 2 47.9180 129.2456 18.3944 0.0419 19.8836 0.0182
# 3 10.4500 18.3944 37.7277 0.0333 16.7425 0.0165
# 4 0.0112 0.0419 0.0333 28.0208 0.0152 16.5176
# 5 21.8793 19.8836 16.7425 0.0152 23.0299 0.0024
# 6 0.0066 0.0182 0.0165 16.5176 0.0024 42.3701
#
#
#
# Elastic Compliance Matrix: (Units=1/GPa)
#
#
# Indices 1 2 3 4 5 6 
#
# 1 0.020115 -0.005390 0.005125 0.000006 -0.018182 -0.000004
# 2 -0.005390 0.010415 -0.002756 -0.000010 -0.001868 0.000001
# 3 0.005125 -0.002756 0.040649 -0.000027 -0.032041 -0.000003
# 4 0.000006 -0.000010 -0.000027 0.046336 -0.000006 -0.018064
# 5 -0.018182 -0.001868 -0.032041 -0.000006 0.085602 0.000014
# 6 -0.000004 0.000001 -0.000003 -0.018064 0.000014 0.030643
#
#
# Mechanical properties :
#
#
# Convention : Reuss Voigt Hill
#
# Bulk Modulus (GPa) = 15.35222 44.46309 29.90765
# Shear Modulus (GPa) = 19.11947 30.00952 24.56450
#
# Velocity S-wave (km/s) = 3.02511 3.78995 3.42892
# Velocity P-wave (km/s) = 4.42153 6.35872 5.47646
#
# Compressibility (1/GPa) = 0.06513716
#
# Stress axis : x y z
#
# Youngs Moduli (GPa) = 49.71523 96.01450 24.60098
#
# Poissons Ratio (x) = 0.51749 -0.12608
# Poissons Ratio (y) = 0.26795 0.06780
# Poissons Ratio (z) = -0.25480 0.26462
#
# Static dielectric constant tensor:
#      x y z
#    x 1.767700 -0.000010 0.061370 
#    y -0.000010 1.865330 0.000000 
#    z 0.061370 0.000000 1.879200 
# 
# From -- ./inp_files/56106.got.cif
#   From: 2010.05.17/outbox.cif.g08.bks.cpg/sg15_29_cif.got.tgz:56106.got - 2010.06.03 18:47:42.
