data_PCOD9307698
_publ_section_title
;
Structure prediction by ZEFSAII (Michael W. Deem and Ramdas Pophale) SiO2 
 PCOD9307698
Probable space group: C 2/C
;
_chemical_formula_sum "Si O2"
_cell_formula_units_Z 44
_cell_length_a 20.527212
_cell_length_b 5.392122
_cell_length_c 17.148982
_cell_angle_alpha 90.000000
_cell_angle_beta 70.268758
_cell_angle_gamma 90.000000
_cell_volume 1786.692835
_symmetry_space_group_name_H-M "C 2/C"
_symmetry_group_IT_number 15
_symmetry_cell_setting 'monoclinic'
loop_
_space_group_symop_operation_xyz
x,y,z
-x,y,1/2-z
-x,-y,-z
x,-y,1/2+z
1/2+x,1/2+y,z
1/2-x,1/2+y,1/2-z
1/2-x,1/2-y,-z
1/2+x,1/2-y,1/2+z
loop_
_atom_site_type_symbol
_atom_site_label
_atom_site_fract_x
_atom_site_fract_y
_atom_site_fract_z
Si Si1 0.128240 0.604224 0.517682
Si Si2 0.793410 0.806019 0.155668
Si Si3 0.500000 0.469768 0.750000
Si Si4 0.542872 0.399705 0.058911
Si Si5 0.783775 0.665159 0.407723
Si Si6 0.148851 0.947937 0.727796
O O1 0.177127 0.623028 0.421804
O O2 0.075815 0.371891 0.530042
O O3 0.169543 0.560067 0.580941
O O4 0.096613 0.874499 0.539150
O O5 0.849073 0.862903 0.199292
O O6 0.717117 0.719544 0.214504
O O7 0.776097 0.065657 0.122364
O O8 0.487631 0.606580 0.839357
O O9 0.573286 0.335825 0.741204
O O10 0.500000 0.500000 0.000000
O O11 0.750000 0.750000 0.500000
O O12 0.830448 0.871221 0.350643
#
# Coordination Sequence:
#
# PCOD9307698 Si02
#       6
#     8   8   4   8   8   8
#     4  12  26  49  80 112 156 202 271 335 394 464
#     4  12  26  46  80 114 148 208 268 336 392 473
#     4  12  28  50  74 114 164 208 258 324 412 482
#     4  12  28  52  77 113 161 217 264 325 406 486
#     4  12  24  45  77 111 154 198 266 330 402 465
#     4  12  26  48  73 113 156 202 264 324 398 478
#
# _framework density 24.626503
#
# number of rings (size 3 to 8) (size 9 to 14) (size 15 to 20)
#    0.000    0.000    5.455    4.364    0.000    2.182 
#    6.545    0.000    0.000    0.000    0.000    0.000 
#    0.000    0.000    0.000    0.000    0.000    0.000 
#
# Total GULP energy -122874.430817 kJ/mol
# GULP energy per Si atom -5585.201401 kJ/mol
# Density = 2.457045 g / cm^3
# Si number density = 24.626503 Si / 1000 Ang^3
#
#
#
# Elastic Constant Matrix: (Units=GPa)
#
#
# Indices 1 2 3 4 5 6 
#
# 1 141.8273 25.2108 55.4169 -0.0002 13.2569 0.0000
# 2 25.2108 86.6345 29.7613 -0.0008 -7.2477 -0.0001
# 3 55.4169 29.7613 139.6043 -0.0002 13.9404 0.0000
# 4 -0.0002 -0.0008 -0.0002 23.9275 -0.0001 -3.0714
# 5 13.2569 -7.2477 13.9404 -0.0001 44.1148 0.0000
# 6 0.0000 -0.0001 0.0000 -3.0714 0.0000 51.6806
#
#
#
# Elastic Compliance Matrix: (Units=1/GPa)
#
#
# Indices 1 2 3 4 5 6 
#
# 1 0.008662 -0.001696 -0.002880 0.000000 -0.001972 0.000000
# 2 -0.001696 0.013178 -0.002481 0.000000 0.003459 0.000000
# 3 -0.002880 -0.002481 0.009076 0.000000 -0.002410 0.000000
# 4 0.000000 0.000000 0.000000 0.042114 0.000000 0.002503
# 5 -0.001972 0.003459 -0.002410 0.000000 0.024591 0.000000
# 6 0.000000 0.000000 0.000000 0.002503 0.000000 0.019498
#
#
# Mechanical properties :
#
#
# Convention : Reuss Voigt Hill
#
# Bulk Modulus (GPa) = 59.52068 65.42714 62.47391
# Shear Modulus (GPa) = 36.54045 41.12305 38.83175
#
# Velocity S-wave (km/s) = 3.85617 4.09084 3.97524
# Velocity P-wave (km/s) = 6.63691 6.99562 6.81863
#
# Compressibility (1/GPa) = 0.01680088
#
# Stress axis : x y z
#
# Youngs Moduli (GPa) = 115.44777 75.88316 110.18079
#
# Poissons Ratio (x) = 0.12872 0.31731
# Poissons Ratio (y) = 0.19583 0.27340
# Poissons Ratio (z) = 0.33248 0.18830
#
# Static dielectric constant tensor:
#      x y z
#    x 2.104610 0.000000 0.017890 
#    y 0.000000 2.008500 0.000000 
#    z 0.017890 0.000000 2.072910 
# 
# From -- ./inp_files/212816.got.cif
#   From: 2010.05.17/outbox.cif.g08.bks.cpg/sg15_107_cif.got.tgz:212816.got - 2010.06.03 18:47:42.
