data_PCOD9307907
_publ_section_title
;
Structure prediction by ZEFSAII (Michael W. Deem and Ramdas Pophale) SiO2 
 PCOD9307907
Probable space group: C 2/C
;
_chemical_formula_sum "Si O2"
_cell_formula_units_Z 24
_cell_length_a 7.380999
_cell_length_b 18.677606
_cell_length_c 14.056969
_cell_angle_alpha 90.000000
_cell_angle_beta 141.299004
_cell_angle_gamma 90.000000
_cell_volume 1211.674773
_symmetry_space_group_name_H-M "C 2/C"
_symmetry_group_IT_number 15
_symmetry_cell_setting 'monoclinic'
loop_
_space_group_symop_operation_xyz
x,y,z
-x,y,1/2-z
-x,-y,-z
x,-y,1/2+z
1/2+x,1/2+y,z
1/2-x,1/2+y,1/2-z
1/2-x,1/2-y,-z
1/2+x,1/2-y,1/2+z
loop_
_atom_site_type_symbol
_atom_site_label
_atom_site_fract_x
_atom_site_fract_y
_atom_site_fract_z
Si Si1 0.215040 0.823744 0.926156
Si Si2 0.184691 0.822434 0.417183
Si Si3 0.340747 0.575227 0.919659
O O1 0.000000 0.811760 0.750000
O O2 0.250000 0.750000 0.000000
O O3 0.512027 0.849783 0.999450
O O4 0.127928 0.881674 0.968760
O O5 0.250000 0.750000 0.500000
O O6 0.000000 0.802275 0.250000
O O7 0.008808 0.878391 0.408838
O O8 0.000000 0.569187 0.750000
O O9 0.500000 0.500000 0.000000
#
# Coordination Sequence:
#
# PCOD9307907 Si02
#       3
#     8   8   8
#     4  12  25  45  75 108 140 184 241 294 351 422
#     4  12  25  44  76 106 141 183 238 293 353 419
#     4  12  29  49  70 105 147 188 239 294 354 423
#
# _framework density 19.807295
#
# number of rings (size 3 to 8) (size 9 to 14) (size 15 to 20)
#    0.000    0.000    6.667    3.000    4.667    2.667 
#    0.000    0.000    0.000    0.000    0.000    0.000 
#    0.000    0.000    0.000    0.000    0.000    0.000 
#
# Total GULP energy -67129.549560 kJ/mol
# GULP energy per Si atom -5594.129130 kJ/mol
# Density = 1.976221 g / cm^3
# Si number density = 19.807295 Si / 1000 Ang^3
#
#
#
# Elastic Constant Matrix: (Units=GPa)
#
#
# Indices 1 2 3 4 5 6 
#
# 1 176.8555 87.3610 79.3380 0.0016 -4.6964 -0.0032
# 2 87.3610 184.1332 80.2169 0.0052 -16.8710 -0.0086
# 3 79.3380 80.2169 205.9963 0.0218 -22.9136 -0.0382
# 4 0.0016 0.0052 0.0218 -60.7620 0.0077 117.4300
# 5 -4.6964 -16.8710 -22.9136 0.0077 44.9972 -0.0142
# 6 -0.0032 -0.0086 -0.0382 117.4300 -0.0142 -111.4928
#
#
#
# Elastic Compliance Matrix: (Units=1/GPa)
#
#
# Indices 1 2 3 4 5 6 
#
# 1 0.008048 -0.003042 -0.002065 -0.000001 -0.001352 0.000000
# 2 -0.003042 0.007755 -0.001654 0.000000 0.001748 0.000000
# 3 -0.002065 -0.001654 0.006573 0.000002 0.002512 0.000000
# 4 -0.000001 0.000000 0.000002 0.015893 0.000004 0.016739
# 5 -0.001352 0.001748 0.002512 0.000004 0.024017 0.000000
# 6 0.000000 0.000000 0.000000 0.016739 0.000000 0.008661
#
#
# Mechanical properties :
#
#
# Convention : Reuss Voigt Hill
#
# Bulk Modulus (GPa) = 112.95264 117.86853 115.41059
# Shear Modulus (GPa) = 57.19488 -4.11359 26.54065
#
# Velocity S-wave (km/s) = 5.37944 -1.44268 3.66449
# Velocity P-wave (km/s) = 9.78438 7.54067 8.73487
#
# Compressibility (1/GPa) = 0.00885327
#
# Stress axis : x y z
#
# Youngs Moduli (GPa) = 124.25845 128.95138 152.13354
#
# Poissons Ratio (x) = 0.39232 0.31419
# Poissons Ratio (y) = 0.37805 0.25157
# Poissons Ratio (z) = 0.25662 0.21324
#
# Static dielectric constant tensor:
#      x y z
#    x 1.544190 -0.000130 -1.525070 
#    y -0.000130 1.701090 -0.001060 
#    z -1.525070 -0.001060 -10.845510 
# 
# From -- ./inp_files/21356.got.cif
#   From: 2010.05.17/outbox.cif.g08.bks.cpg/sg15_11_cif.got.tgz:21356.got - 2010.06.03 18:47:42.
