data_PCOD9307615
_publ_section_title
;
Structure prediction by ZEFSAII (Michael W. Deem and Ramdas Pophale) SiO2 
 PCOD9307615
Probable space group: C 2/C
;
_chemical_formula_sum "Si O2"
_cell_formula_units_Z 48
_cell_length_a 5.537286
_cell_length_b 22.597646
_cell_length_c 20.667546
_cell_angle_alpha 90.000000
_cell_angle_beta 50.558757
_cell_angle_gamma 90.000000
_cell_volume 1997.201467
_symmetry_space_group_name_H-M "C 2/C"
_symmetry_group_IT_number 15
_symmetry_cell_setting 'monoclinic'
loop_
_space_group_symop_operation_xyz
x,y,z
-x,y,1/2-z
-x,-y,-z
x,-y,1/2+z
1/2+x,1/2+y,z
1/2-x,1/2+y,1/2-z
1/2-x,1/2-y,-z
1/2+x,1/2-y,1/2+z
loop_
_atom_site_type_symbol
_atom_site_label
_atom_site_fract_x
_atom_site_fract_y
_atom_site_fract_z
Si Si1 0.841240 0.754857 0.345131
Si Si2 0.202381 0.991158 0.151199
Si Si3 0.152989 0.904641 0.834351
Si Si4 0.739146 0.128768 0.925398
Si Si5 0.276899 0.196943 0.099892
Si Si6 0.334647 0.562635 0.032305
O O1 0.889666 0.824325 0.351830
O O2 0.476397 0.740056 0.391626
O O3 0.000000 0.738608 0.250000
O O4 0.009895 0.723974 0.378677
O O5 0.477189 0.040008 0.103316
O O6 0.000000 0.980268 0.250000
O O7 0.947731 0.026788 0.152434
O O8 0.346826 0.930698 0.099167
O O9 0.500000 0.898828 0.750000
O O10 0.113411 0.893669 0.917051
O O11 0.931318 0.857486 0.837680
O O12 0.491673 0.167822 0.007862
O O13 0.923381 0.098759 0.953253
O O14 0.500000 0.500000 0.000000
#
# Coordination Sequence:
#
# PCOD9307615 Si02
#       6
#     8   8   8   8   8   8
#     4  12  29  53  79 113 152 206 266 325 394 461
#     4  12  25  45  73 112 154 201 258 318 396 465
#     4  12  25  46  73 110 152 205 256 326 388 466
#     4  12  26  49  76 115 152 203 261 325 393 460
#     4  12  27  50  81 110 155 206 263 326 386 466
#     4  12  24  43  74 108 156 204 251 315 392 472
#
# _framework density 24.033629999999999
#
# number of rings (size 3 to 8) (size 9 to 14) (size 15 to 20)
#    0.000    0.000    5.000    5.000    0.000    5.333 
#    0.000    1.667    0.000    0.000    0.000    0.000 
#    0.000    0.000    0.000    0.000    0.000    0.000 
#
# Total GULP energy -133952.875071 kJ/mol
# GULP energy per Si atom -5581.369795 kJ/mol
# Density = 2.397893 g / cm^3
# Si number density = 24.033630 Si / 1000 Ang^3
#
#
#
# Elastic Constant Matrix: (Units=GPa)
#
#
# Indices 1 2 3 4 5 6 
#
# 1 108.7822 53.9500 24.0543 0.0000 16.0624 0.0000
# 2 53.9500 137.0152 2.6602 0.0000 14.1206 0.0000
# 3 24.0543 2.6602 66.9147 0.0000 16.0021 0.0000
# 4 0.0000 0.0000 0.0000 -58.6485 0.0000 69.5994
# 5 16.0624 14.1206 16.0021 0.0000 31.9860 0.0000
# 6 0.0000 0.0000 0.0000 69.5994 0.0000 -16.0697
#
#
#
# Elastic Compliance Matrix: (Units=1/GPa)
#
#
# Indices 1 2 3 4 5 6 
#
# 1 0.012713 -0.004683 -0.003807 0.000000 -0.002412 0.000000
# 2 -0.004683 0.009391 0.001976 0.000000 -0.002782 0.000000
# 3 -0.003807 0.001976 0.018158 0.000000 -0.008045 0.000000
# 4 0.000000 0.000000 0.000000 0.004119 0.000000 0.017839
# 5 -0.002412 -0.002782 -0.008045 0.000000 0.037728 0.000000
# 6 0.000000 0.000000 0.000000 0.017839 0.000000 0.015032
#
#
# Mechanical properties :
#
#
# Convention : Reuss Voigt Hill
#
# Bulk Modulus (GPa) = 36.72069 52.67122 44.69595
# Shear Modulus (GPa) = 41.92926 6.92341 24.42634
#
# Velocity S-wave (km/s) = 4.18138 1.69911 3.19147
# Velocity P-wave (km/s) = 6.21482 5.08060 5.67611
#
# Compressibility (1/GPa) = 0.02723260
#
# Stress axis : x y z
#
# Youngs Moduli (GPa) = 78.65706 106.48560 55.07147
#
# Poissons Ratio (x) = 0.49872 0.20967
# Poissons Ratio (y) = 0.36838 -0.10880
# Poissons Ratio (z) = 0.29946 -0.21037
#
# Static dielectric constant tensor:
#      x y z
#    x 2.050330 0.000000 0.004530 
#    y 0.000000 1.913060 0.000000 
#    z 0.004530 0.000000 1.964800 
# 
# From -- ./inp_files/228020.got.cif
#   From: 2010.05.17/outbox.cif.g08.bks.cpg/sg15_115_cif.got.tgz:228020.got - 2010.06.03 18:47:42.
