data_PCOD9307654
_publ_section_title
;
Structure prediction by ZEFSAII (Michael W. Deem and Ramdas Pophale) SiO2 
 PCOD9307654
Probable space group: C 2/C
;
_chemical_formula_sum "Si O2"
_cell_formula_units_Z 60
_cell_length_a 25.280354
_cell_length_b 13.751128
_cell_length_c 19.996472
_cell_angle_alpha 90.000000
_cell_angle_beta 22.663763
_cell_angle_gamma 90.000000
_cell_volume 2678.546721
_symmetry_space_group_name_H-M "C 2/C"
_symmetry_group_IT_number 15
_symmetry_cell_setting 'monoclinic'
loop_
_space_group_symop_operation_xyz
x,y,z
-x,y,1/2-z
-x,-y,-z
x,-y,1/2+z
1/2+x,1/2+y,z
1/2-x,1/2+y,1/2-z
1/2-x,1/2-y,-z
1/2+x,1/2-y,1/2+z
loop_
_atom_site_type_symbol
_atom_site_label
_atom_site_fract_x
_atom_site_fract_y
_atom_site_fract_z
Si Si1 0.432818 0.931339 0.024147
Si Si2 0.999272 0.010747 0.081926
Si Si3 0.816677 0.194591 0.620500
Si Si4 0.682924 0.990114 0.482290
Si Si5 0.500000 0.817467 0.750000
Si Si6 0.653167 0.789272 0.055157
Si Si7 0.448956 0.680736 0.925137
Si Si8 0.140887 0.277208 0.794419
O O1 0.315605 0.863238 0.195001
O O2 0.563980 0.867011 0.850963
O O3 0.500000 0.000000 0.000000
O O4 0.372568 0.982148 0.029111
O O5 0.846253 0.994054 0.286559
O O6 0.085080 0.932875 0.026400
O O7 0.062292 0.115763 0.024034
O O8 0.000000 0.000000 0.000000
O O9 0.794176 0.245648 0.576450
O O10 0.860210 0.275356 0.624216
O O11 0.646704 0.093589 0.557138
O O12 0.621531 0.894934 0.591145
O O13 0.531576 0.739182 0.772049
O O14 0.500000 0.754072 0.250000
O O15 0.750000 0.750000 0.000000
O O16 0.541545 0.693200 0.883591
O O17 0.300274 0.730626 0.092548
#
# Coordination Sequence:
#
# PCOD9307654 Si02
#       8
#     8   8   8   8   4   8   8   8
#     4  12  25  42  75 115 148 193 261 322 386 447
#     4  12  25  46  76 110 151 188 253 331 387 442
#     4  12  26  47  78 110 150 201 255 329 385 450
#     4  12  26  51  77 109 152 205 255 315 392 464
#     4  12  26  52  74 106 158 208 248 312 378 478
#     4  12  30  52  76 109 154 207 255 306 382 476
#     4  12  26  47  73 111 154 203 257 311 385 460
#     4  12  24  44  74 111 149 195 259 322 383 444
#
# _framework density 22.400207000000002
#
# number of rings (size 3 to 8) (size 9 to 14) (size 15 to 20)
#    0.000    0.000    6.000    3.200    7.467    2.133 
#    6.000    0.000    0.000    0.000    0.000    0.000 
#    0.000    0.000    0.000    0.000    0.000    0.000 
#
# Total GULP energy -167487.781972 kJ/mol
# GULP energy per Si atom -5582.926066 kJ/mol
# Density = 2.234922 g / cm^3
# Si number density = 22.400207 Si / 1000 Ang^3
#
#
#
# Elastic Constant Matrix: (Units=GPa)
#
#
# Indices 1 2 3 4 5 6 
#
# 1 109.9257 27.5749 16.4783 -0.0001 -0.5486 0.0000
# 2 27.5749 91.7674 7.2869 -0.0001 7.5295 0.0001
# 3 16.4783 7.2869 105.0249 -0.0002 -16.8091 0.0001
# 4 -0.0001 -0.0001 -0.0002 25.7785 0.0001 8.0481
# 5 -0.5486 7.5295 -16.8091 0.0001 37.0596 -0.0001
# 6 0.0000 0.0001 0.0001 8.0481 -0.0001 50.5663
#
#
#
# Elastic Compliance Matrix: (Units=1/GPa)
#
#
# Indices 1 2 3 4 5 6 
#
# 1 0.010032 -0.002918 -0.001351 0.000000 0.000129 0.000000
# 2 -0.002918 0.012077 -0.000841 0.000000 -0.002878 0.000000
# 3 -0.001351 -0.000841 0.010584 0.000000 0.004952 0.000000
# 4 0.000000 0.000000 0.000000 0.040820 0.000000 -0.006497
# 5 0.000129 -0.002878 0.004952 0.000000 0.029816 0.000000
# 6 0.000000 0.000000 0.000000 -0.006497 0.000000 0.020810
#
#
# Mechanical properties :
#
#
# Convention : Reuss Voigt Hill
#
# Bulk Modulus (GPa) = 44.49564 45.48870 44.99217
# Shear Modulus (GPa) = 35.24841 39.70608 37.47724
#
# Velocity S-wave (km/s) = 3.97113 4.21477 4.09476
# Velocity P-wave (km/s) = 6.39794 6.63604 6.51808
#
# Compressibility (1/GPa) = 0.02247411
#
# Stress axis : x y z
#
# Youngs Moduli (GPa) = 99.67952 82.80343 94.47913
#
# Poissons Ratio (x) = 0.24160 0.12764
# Poissons Ratio (y) = 0.29084 0.07944
# Poissons Ratio (z) = 0.13467 0.06962
#
# Static dielectric constant tensor:
#      x y z
#    x 1.869570 0.000000 0.059550 
#    y 0.000000 1.992810 0.000000 
#    z 0.059550 0.000000 1.883730 
# 
# From -- ./inp_files/257861.got.cif
#   From: 2010.05.17/outbox.cif.g08.bks.cpg/sg15_129_cif.got.tgz:257861.got - 2010.06.03 18:47:42.
