data_PCOD9307222
_publ_section_title
;
Structure prediction by ZEFSAII (Michael W. Deem and Ramdas Pophale) SiO2 
 PCOD9307222
Probable space group: C 2/C
;
_chemical_formula_sum "Si O2"
_cell_formula_units_Z 60
_cell_length_a 20.381232
_cell_length_b 11.589557
_cell_length_c 17.502063
_cell_angle_alpha 90.000000
_cell_angle_beta 139.232722
_cell_angle_gamma 90.000000
_cell_volume 2699.552800
_symmetry_space_group_name_H-M "C 2/C"
_symmetry_group_IT_number 15
_symmetry_cell_setting 'monoclinic'
loop_
_space_group_symop_operation_xyz
x,y,z
-x,y,1/2-z
-x,-y,-z
x,-y,1/2+z
1/2+x,1/2+y,z
1/2-x,1/2+y,1/2-z
1/2-x,1/2-y,-z
1/2+x,1/2-y,1/2+z
loop_
_atom_site_type_symbol
_atom_site_label
_atom_site_fract_x
_atom_site_fract_y
_atom_site_fract_z
Si Si1 0.822225 0.371934 0.228032
Si Si2 0.013495 0.797174 0.104110
Si Si3 0.269831 0.826378 0.940212
Si Si4 0.500000 0.148684 0.250000
Si Si5 0.306034 0.590157 0.426037
Si Si6 0.238328 0.816313 0.310809
Si Si7 0.290057 0.076192 0.010424
Si Si8 0.976692 0.382848 0.028067
O O1 0.798444 0.244182 0.178262
O O2 0.746076 0.465315 0.125339
O O3 0.796204 0.374144 0.293833
O O4 0.940404 0.391406 0.331165
O O5 0.008766 0.725248 0.180081
O O6 0.123407 0.853081 0.204883
O O7 0.923435 0.889053 0.016949
O O8 0.010291 0.715900 0.025820
O O9 0.250000 0.750000 0.000000
O O10 0.374229 0.850218 0.984288
O O11 0.246042 0.953878 0.946956
O O12 0.399054 0.075251 0.146441
O O13 0.246218 0.677259 0.317494
O O14 0.284636 0.628852 0.493844
O O15 0.293234 0.853045 0.435927
O O16 0.000000 0.500000 0.000000
#
# Coordination Sequence:
#
# PCOD9307222 Si02
#       8
#     8   8   8   4   8   8   8   8
#     4  12  27  48  74 104 159 200 250 323 382 468
#     4  12  24  42  73 107 149 185 250 315 391 452
#     4  12  28  51  71 111 155 203 254 314 394 467
#     4  12  22  42  74 112 140 194 250 328 376 454
#     4  12  25  46  70 110 148 195 248 320 389 451
#     4  12  24  45  72 109 142 195 252 321 376 459
#     4  12  26  44  75 104 149 193 257 312 382 461
#     4  12  26  47  79 113 144 208 269 309 376 473
#
# _framework density 22.225904
#
# number of rings (size 3 to 8) (size 9 to 14) (size 15 to 20)
#    0.000    0.000    6.667    3.600    3.733    1.067 
#    2.400    1.333    0.000    0.000    0.000    0.000 
#    0.000    0.000    0.000    0.000    0.000    0.000 
#
# Total GULP energy -167380.376333 kJ/mol
# GULP energy per Si atom -5579.345878 kJ/mol
# Density = 2.217532 g / cm^3
# Si number density = 22.225904 Si / 1000 Ang^3
#
#
#
# Elastic Constant Matrix: (Units=GPa)
#
#
# Indices 1 2 3 4 5 6 
#
# 1 100.4455 -2.2715 24.1420 0.0000 -10.4765 0.0000
# 2 -2.2715 73.0189 22.1693 0.0000 -5.9162 0.0000
# 3 24.1420 22.1693 124.2142 0.0000 13.9810 0.0000
# 4 0.0000 0.0000 0.0000 36.2715 0.0000 -9.2254
# 5 -10.4765 -5.9162 13.9810 0.0000 43.8605 0.0000
# 6 0.0000 0.0000 0.0000 -9.2254 0.0000 26.4725
#
#
#
# Elastic Compliance Matrix: (Units=1/GPa)
#
#
# Indices 1 2 3 4 5 6 
#
# 1 0.011064 0.001511 -0.002843 0.000000 0.003753 0.000000
# 2 0.001511 0.015046 -0.003369 0.000000 0.003464 0.000000
# 3 -0.002843 -0.003369 0.009679 0.000000 -0.004219 0.000000
# 4 0.000000 0.000000 0.000000 0.030251 0.000000 0.010542
# 5 0.003753 0.003464 -0.004219 0.000000 0.025508 0.000000
# 6 0.000000 0.000000 0.000000 0.010542 0.000000 0.041449
#
#
# Mechanical properties :
#
#
# Convention : Reuss Voigt Hill
#
# Bulk Modulus (GPa) = 37.89485 42.86204 40.37844
# Shear Modulus (GPa) = 33.07005 38.23015 35.65010
#
# Velocity S-wave (km/s) = 3.86152 4.15187 4.00933
# Velocity P-wave (km/s) = 6.08019 6.50467 6.29600
#
# Compressibility (1/GPa) = 0.02638881
#
# Stress axis : x y z
#
# Youngs Moduli (GPa) = 90.37945 66.46440 103.31414
#
# Poissons Ratio (x) = -0.10045 0.29368
# Poissons Ratio (y) = -0.13659 0.34806
# Poissons Ratio (z) = 0.25691 0.22392
#
# Static dielectric constant tensor:
#      x y z
#    x 1.882620 0.000000 -0.002760 
#    y 0.000000 1.860990 0.000000 
#    z -0.002760 0.000000 1.857110 
# 
# From -- ./inp_files/215219.got.cif
#   From: 2010.05.17/outbox.cif.g08.bks.cpg/sg15_108_cif.got.tgz:215219.got - 2010.06.03 18:47:42.
