data_PCOD9307184
_publ_section_title
;
Structure prediction by ZEFSAII (Michael W. Deem and Ramdas Pophale) SiO2 
 PCOD9307184
Probable space group: C 2/C
;
_chemical_formula_sum "Si O2"
_cell_formula_units_Z 44
_cell_length_a 12.849699
_cell_length_b 25.597243
_cell_length_c 8.675822
_cell_angle_alpha 90.000000
_cell_angle_beta 48.649136
_cell_angle_gamma 90.000000
_cell_volume 2142.152691
_symmetry_space_group_name_H-M "C 2/C"
_symmetry_group_IT_number 15
_symmetry_cell_setting 'monoclinic'
loop_
_space_group_symop_operation_xyz
x,y,z
-x,y,1/2-z
-x,-y,-z
x,-y,1/2+z
1/2+x,1/2+y,z
1/2-x,1/2+y,1/2-z
1/2-x,1/2-y,-z
1/2+x,1/2-y,1/2+z
loop_
_atom_site_type_symbol
_atom_site_label
_atom_site_fract_x
_atom_site_fract_y
_atom_site_fract_z
Si Si1 0.000000 0.105183 0.250000
Si Si2 0.353003 0.484394 0.720194
Si Si3 0.956522 0.299935 0.126235
Si Si4 0.000000 0.354808 0.750000
Si Si5 0.627838 0.694993 0.915331
Si Si6 0.762425 0.072944 0.036704
Si Si7 0.500000 0.648442 0.750000
O O1 0.113630 0.065269 0.205974
O O2 0.924895 0.143822 0.442739
O O3 0.500000 0.500000 0.500000
O O4 0.245677 0.464846 0.698174
O O5 0.302083 0.534964 0.858972
O O6 0.789710 0.295109 0.286595
O O7 0.000000 0.325758 0.250000
O O8 0.996069 0.324817 0.919779
O O9 0.036195 0.244721 0.050121
O O10 0.134444 0.391178 0.623668
O O11 0.592971 0.682902 0.771723
O O12 0.893563 0.110497 0.942154
#
# Coordination Sequence:
#
# PCOD9307184 Si02
#       7
#     4   8   8   4   8   8   4
#     4  12  23  40  72 107 143 188 232 313 366 428
#     4  12  22  41  72 103 141 186 247 304 355 443
#     4  12  29  50  74 108 153 199 254 308 373 451
#     4  12  31  50  72 109 161 198 240 315 384 440
#     4  12  27  45  74 109 146 194 252 305 376 443
#     4  12  25  45  70 108 142 191 248 301 375 444
#     4  12  22  42  74 102 142 188 248 298 364 444
#
# _framework density 20.540087
#
# number of rings (size 3 to 8) (size 9 to 14) (size 15 to 20)
#    0.000    0.000    8.182    1.091    5.091    2.182 
#    0.000    0.000    0.000    0.000    0.000    0.000 
#    0.000    0.000    0.000    0.000    0.000    0.000 
#
# Total GULP energy -122915.917808 kJ/mol
# GULP energy per Si atom -5587.087173 kJ/mol
# Density = 2.049334 g / cm^3
# Si number density = 20.540087 Si / 1000 Ang^3
#
#
#
# Elastic Constant Matrix: (Units=GPa)
#
#
# Indices 1 2 3 4 5 6 
#
# 1 147.3587 57.6548 61.1373 0.0000 -0.8092 0.0000
# 2 57.6548 108.7255 64.5248 0.0000 -2.6698 0.0000
# 3 61.1373 64.5248 87.2335 0.0000 -0.7601 0.0000
# 4 0.0000 0.0000 0.0000 34.9653 0.0000 -2.4380
# 5 -0.8092 -2.6698 -0.7601 0.0000 44.6428 0.0000
# 6 0.0000 0.0000 0.0000 -2.4380 0.0000 45.2210
#
#
#
# Elastic Compliance Matrix: (Units=1/GPa)
#
#
# Indices 1 2 3 4 5 6 
#
# 1 0.009806 -0.002000 -0.005394 0.000000 -0.000034 0.000000
# 2 -0.002000 0.016829 -0.011039 0.000000 0.000782 0.000000
# 3 -0.005394 -0.011039 0.023406 0.000000 -0.000359 0.000000
# 4 0.000000 0.000000 0.000000 0.028708 0.000000 0.001548
# 5 -0.000034 0.000782 -0.000359 0.000000 0.022440 0.000000
# 6 0.000000 0.000000 0.000000 0.001548 0.000000 0.022197
#
#
# Mechanical properties :
#
#
# Convention : Reuss Voigt Hill
#
# Bulk Modulus (GPa) = 75.90085 78.88351 77.39218
# Shear Modulus (GPa) = 30.36867 35.63254 33.00060
#
# Velocity S-wave (km/s) = 3.84931 4.16959 4.01264
# Velocity P-wave (km/s) = 7.53585 7.85294 7.69603
#
# Compressibility (1/GPa) = 0.01317508
#
# Stress axis : x y z
#
# Youngs Moduli (GPa) = 101.97618 59.42238 42.72397
#
# Poissons Ratio (x) = 0.11884 0.23044
# Poissons Ratio (y) = 0.20394 0.47165
# Poissons Ratio (z) = 0.55002 0.65599
#
# Static dielectric constant tensor:
#      x y z
#    x 1.779770 0.000000 -0.009930 
#    y 0.000000 1.721650 0.000000 
#    z -0.009930 0.000000 2.132120 
# 
# From -- ./inp_files/34042.got.cif
#   From: 2010.05.17/outbox.cif.g08.bks.cpg/sg15_18_cif.got.tgz:34042.got - 2010.06.03 18:47:42.
