data_PCOD9307750
_publ_section_title
;
Structure prediction by ZEFSAII (Michael W. Deem and Ramdas Pophale) SiO2 
 PCOD9307750
Probable space group: C 2/C
;
_chemical_formula_sum "Si O2"
_cell_formula_units_Z 32
_cell_length_a 6.941892
_cell_length_b 7.684687
_cell_length_c 27.491429
_cell_angle_alpha 90.000000
_cell_angle_beta 49.558468
_cell_angle_gamma 90.000000
_cell_volume 1116.156228
_symmetry_space_group_name_H-M "C 2/C"
_symmetry_group_IT_number 15
_symmetry_cell_setting 'monoclinic'
loop_
_space_group_symop_operation_xyz
x,y,z
-x,y,1/2-z
-x,-y,-z
x,-y,1/2+z
1/2+x,1/2+y,z
1/2-x,1/2+y,1/2-z
1/2-x,1/2-y,-z
1/2+x,1/2-y,1/2+z
loop_
_atom_site_type_symbol
_atom_site_label
_atom_site_fract_x
_atom_site_fract_y
_atom_site_fract_z
Si Si1 0.428443 0.024030 0.650437
Si Si2 0.925061 0.203933 0.911677
Si Si3 0.234786 0.183718 0.057383
Si Si4 0.099615 0.907212 0.283354
O O1 0.493554 0.214279 0.619585
O O2 0.357892 0.021069 0.718662
O O3 0.153326 0.972339 0.672469
O O4 0.650194 0.895761 0.596094
O O5 0.042878 0.244077 0.944595
O O6 0.114925 0.165087 0.834641
O O7 0.773157 0.025495 0.940306
O O8 0.250000 0.250000 0.000000
O O9 0.000000 0.806189 0.250000
#
# Coordination Sequence:
#
# PCOD9307750 Si02
#       4
#     8   8   8   8
#     4   9  24  45  70 103 146 182 249 308 389 445
#     4  12  24  47  71 102 147 191 247 313 378 449
#     4  12  28  45  71 108 147 203 258 302 374 460
#     4   8  21  44  67 108 133 184 245 310 397 456
#
# _framework density 28.669823000000001
#
# number of rings (size 3 to 8) (size 9 to 14) (size 15 to 20)
#    1.500    0.000    2.500    0.750    7.000    3.000 
#    0.000    5.000    0.000    0.000    0.000    0.000 
#    0.000    0.000    0.000    0.000    0.000    0.000 
#
# Total GULP energy -89160.422315 kJ/mol
# GULP energy per Si atom -5572.526395 kJ/mol
# Density = 2.860457 g / cm^3
# Si number density = 28.669823 Si / 1000 Ang^3
#
#
#
# Elastic Constant Matrix: (Units=GPa)
#
#
# Indices 1 2 3 4 5 6 
#
# 1 106.3668 71.7557 55.8939 0.0000 23.0492 0.0000
# 2 71.7557 184.4091 72.1026 0.0000 10.1828 0.0000
# 3 55.8939 72.1026 178.2250 0.0000 27.8505 0.0000
# 4 0.0000 0.0000 0.0000 51.2700 0.0000 11.7483
# 5 23.0492 10.1828 27.8505 0.0000 56.9492 0.0000
# 6 0.0000 0.0000 0.0000 11.7483 0.0000 50.1234
#
#
#
# Elastic Compliance Matrix: (Units=1/GPa)
#
#
# Indices 1 2 3 4 5 6 
#
# 1 0.014452 -0.004603 -0.002041 0.000000 -0.004028 0.000000
# 2 -0.004603 0.007909 -0.001977 0.000000 0.001416 0.000000
# 3 -0.002041 -0.001977 0.007435 0.000000 -0.002456 0.000000
# 4 0.000000 0.000000 0.000000 0.020612 0.000000 -0.004831
# 5 -0.004028 0.001416 -0.002456 0.000000 0.020138 0.000000
# 6 0.000000 0.000000 0.000000 -0.004831 0.000000 0.021083
#
#
# Mechanical properties :
#
#
# Convention : Reuss Voigt Hill
#
# Bulk Modulus (GPa) = 79.65990 96.50060 88.08025
# Shear Modulus (GPa) = 44.22654 49.61842 46.92248
#
# Velocity S-wave (km/s) = 3.93188 4.16466 4.04994
# Velocity P-wave (km/s) = 6.96121 7.54044 7.25661
#
# Compressibility (1/GPa) = 0.01255337
#
# Stress axis : x y z
#
# Youngs Moduli (GPa) = 69.19506 126.44245 134.50618
#
# Poissons Ratio (x) = 0.58203 0.27448
# Poissons Ratio (y) = 0.31851 0.26595
# Poissons Ratio (z) = 0.14120 0.25000
#
# Static dielectric constant tensor:
#      x y z
#    x 2.397060 0.000000 -0.213460 
#    y 0.000000 2.484600 0.000000 
#    z -0.213460 0.000000 2.385400 
# 
# From -- ./inp_files/286969.got.cif
#   From: 2010.05.17/outbox.cif.g08.bks.cpg/sg15_144_cif.got.tgz:286969.got - 2010.06.03 18:47:42.
