data_PCOD9307744
_publ_section_title
;
Structure prediction by ZEFSAII (Michael W. Deem and Ramdas Pophale) SiO2 
 PCOD9307744
Probable space group: C 2/C
;
_chemical_formula_sum "Si O2"
_cell_formula_units_Z 36
_cell_length_a 4.885607
_cell_length_b 13.844108
_cell_length_c 19.891846
_cell_angle_alpha 90.000000
_cell_angle_beta 85.909816
_cell_angle_gamma 90.000000
_cell_volume 1341.995454
_symmetry_space_group_name_H-M "C 2/C"
_symmetry_group_IT_number 15
_symmetry_cell_setting 'monoclinic'
loop_
_space_group_symop_operation_xyz
x,y,z
-x,y,1/2-z
-x,-y,-z
x,-y,1/2+z
1/2+x,1/2+y,z
1/2-x,1/2+y,1/2-z
1/2-x,1/2-y,-z
1/2+x,1/2-y,1/2+z
loop_
_atom_site_type_symbol
_atom_site_label
_atom_site_fract_x
_atom_site_fract_y
_atom_site_fract_z
Si Si1 0.313238 0.455389 0.559811
Si Si2 0.002623 0.406488 0.346810
Si Si3 0.750000 0.750000 0.500000
Si Si4 0.184437 0.910256 0.683870
Si Si5 0.989012 0.779628 0.135034
O O1 0.500000 0.500000 0.500000
O O2 0.080835 0.531551 0.585762
O O3 0.491596 0.430873 0.623152
O O4 0.210409 0.354625 0.533851
O O5 0.720371 0.357194 0.329222
O O6 0.202151 0.315731 0.356401
O O7 0.163102 0.488830 0.304153
O O8 0.486991 0.712084 0.554124
O O9 0.000000 0.881782 0.750000
O O10 0.396150 0.824066 0.663852
#
# Coordination Sequence:
#
# PCOD9307744 Si02
#       5
#     8   8   4   8   8
#     4  12  26  51  84 121 165 213 278 347 418 494
#     4  12  26  52  77 120 160 217 266 349 403 505
#     4  12  24  46  80 118 158 206 268 344 408 492
#     4  12  30  54  82 118 168 223 279 344 429 509
#     4  12  28  47  80 121 159 212 277 337 421 493
#
# _framework density 26.825723
#
# number of rings (size 3 to 8) (size 9 to 14) (size 15 to 20)
#    0.000    0.000    6.667    1.333    3.111    6.222 
#    0.000    0.000    0.000    0.000    0.000    0.000 
#    0.000    0.000    0.000    0.000    0.000    0.000 
#
# Total GULP energy -100472.845202 kJ/mol
# GULP energy per Si atom -5581.824733 kJ/mol
# Density = 2.676467 g / cm^3
# Si number density = 26.825723 Si / 1000 Ang^3
#
#
#
# Elastic Constant Matrix: (Units=GPa)
#
#
# Indices 1 2 3 4 5 6 
#
# 1 121.4602 57.5766 56.2745 0.0000 -25.6860 0.0000
# 2 57.5766 162.8279 53.5898 0.0000 -6.6531 0.0000
# 3 56.2745 53.5898 138.3307 0.0000 -27.8758 0.0000
# 4 0.0000 0.0000 0.0000 35.2227 0.0000 -36.6731
# 5 -25.6860 -6.6531 -27.8758 0.0000 43.2339 0.0000
# 6 0.0000 0.0000 0.0000 -36.6731 0.0000 61.7308
#
#
#
# Elastic Compliance Matrix: (Units=1/GPa)
#
#
# Indices 1 2 3 4 5 6 
#
# 1 0.012013 -0.003169 -0.002666 0.000000 0.004931 0.000000
# 2 -0.003169 0.007898 -0.002189 0.000000 -0.002079 0.000000
# 3 -0.002666 -0.002189 0.010085 0.000000 0.004582 0.000000
# 4 0.000000 0.000000 0.000000 0.074428 0.000000 0.044216
# 5 0.004931 -0.002079 0.004582 0.000000 0.028694 0.000000
# 6 0.000000 0.000000 0.000000 0.044216 0.000000 0.042467
#
#
# Mechanical properties :
#
#
# Convention : Reuss Voigt Hill
#
# Bulk Modulus (GPa) = 71.69746 84.16672 77.93209
# Shear Modulus (GPa) = 25.47353 45.04934 35.26143
#
# Velocity S-wave (km/s) = 3.08489 4.10241 3.62949
# Velocity P-wave (km/s) = 6.28282 7.34052 6.83217
#
# Compressibility (1/GPa) = 0.01394750
#
# Stress axis : x y z
#
# Youngs Moduli (GPa) = 83.24124 126.61974 99.15749
#
# Poissons Ratio (x) = 0.40127 0.26433
# Poissons Ratio (y) = 0.26380 0.21709
# Poissons Ratio (z) = 0.22190 0.27721
#
# Static dielectric constant tensor:
#      x y z
#    x 2.166980 0.000000 0.042010 
#    y 0.000000 2.015800 0.000000 
#    z 0.042010 0.000000 2.212430 
# 
# From -- ./inp_files/226449.got.cif
#   From: 2010.05.17/outbox.cif.g08.bks.cpg/sg15_114_cif.got.tgz:226449.got - 2010.06.03 18:47:42.
