data_PCOD9307689
_publ_section_title
;
Structure prediction by ZEFSAII (Michael W. Deem and Ramdas Pophale) SiO2 
 PCOD9307689
Probable space group: C 2/C
;
_chemical_formula_sum "Si O2"
_cell_formula_units_Z 44
_cell_length_a 22.969699
_cell_length_b 14.251109
_cell_length_c 16.709156
_cell_angle_alpha 90.000000
_cell_angle_beta 21.743492
_cell_angle_gamma 90.000000
_cell_volume 2026.237495
_symmetry_space_group_name_H-M "C 2/C"
_symmetry_group_IT_number 15
_symmetry_cell_setting 'monoclinic'
loop_
_space_group_symop_operation_xyz
x,y,z
-x,y,1/2-z
-x,-y,-z
x,-y,1/2+z
1/2+x,1/2+y,z
1/2-x,1/2+y,1/2-z
1/2-x,1/2-y,-z
1/2+x,1/2-y,1/2+z
loop_
_atom_site_type_symbol
_atom_site_label
_atom_site_fract_x
_atom_site_fract_y
_atom_site_fract_z
Si Si1 0.456522 0.280338 0.056392
Si Si2 0.280252 0.449975 0.983715
Si Si3 0.305753 0.712305 0.586124
Si Si4 0.523141 0.543683 0.557343
Si Si5 0.855439 0.567473 0.208547
Si Si6 0.500000 0.857090 0.250000
O O1 0.351148 0.320250 0.117527
O O2 0.455258 0.351226 0.132506
O O3 0.399773 0.175854 0.148318
O O4 0.638527 0.264873 0.798881
O O5 0.306108 0.367015 0.016539
O O6 0.206020 0.535956 0.126781
O O7 0.148090 0.414525 0.091367
O O8 0.431378 0.484673 0.741841
O O9 0.438746 0.788712 0.397353
O O10 0.500000 0.500000 0.500000
O O11 0.706822 0.550251 0.341399
O O12 0.000000 0.500000 0.000000
#
# Coordination Sequence:
#
# PCOD9307689 Si02
#       6
#     8   8   8   8   8   4
#     4  12  26  47  77 107 153 203 253 308 383 458
#     4  12  28  45  76 110 156 195 255 320 382 456
#     4  12  24  45  75 109 147 197 253 319 374 443
#     4  12  29  47  75 112 152 200 256 313 385 453
#     4  12  26  49  76 109 155 203 252 315 384 454
#     4  12  26  42  70 116 146 194 258 312 384 446
#
# _framework density 21.715126000000001
#
# number of rings (size 3 to 8) (size 9 to 14) (size 15 to 20)
#    0.000    0.000    5.455    3.273    7.636    0.727 
#    0.000    0.000    0.000    0.000    0.000    0.000 
#    0.000    0.000    0.000    0.000    0.000    0.000 
#
# Total GULP energy -123204.364675 kJ/mol
# GULP energy per Si atom -5600.198394 kJ/mol
# Density = 2.166570 g / cm^3
# Si number density = 21.715126 Si / 1000 Ang^3
#
#
#
# Elastic Constant Matrix: (Units=GPa)
#
#
# Indices 1 2 3 4 5 6 
#
# 1 97.5538 38.5327 27.7915 0.0000 -18.4066 0.0001
# 2 38.5327 123.5835 35.9928 -0.0001 -5.8711 0.0001
# 3 27.7915 35.9928 95.4813 -0.0001 -13.8687 0.0003
# 4 0.0000 -0.0001 -0.0001 33.2935 0.0000 -0.6050
# 5 -18.4066 -5.8711 -13.8687 0.0000 44.4608 -0.0002
# 6 0.0001 0.0001 0.0003 -0.6050 -0.0002 43.7685
#
#
#
# Elastic Compliance Matrix: (Units=1/GPa)
#
#
# Indices 1 2 3 4 5 6 
#
# 1 0.012894 -0.003263 -0.001896 0.000000 0.004316 0.000000
# 2 -0.003263 0.009916 -0.002927 0.000000 -0.000954 0.000000
# 3 -0.001896 -0.002927 0.012526 0.000000 0.002736 0.000000
# 4 0.000000 0.000000 0.000000 0.030043 0.000000 0.000415
# 5 0.004316 -0.000954 0.002736 0.000000 0.025006 0.000000
# 6 0.000000 0.000000 0.000000 0.000415 0.000000 0.022853
#
#
# Mechanical properties :
#
#
# Convention : Reuss Voigt Hill
#
# Bulk Modulus (GPa) = 52.18124 57.91696 55.04910
# Shear Modulus (GPa) = 36.81920 38.59133 37.70527
#
# Velocity S-wave (km/s) = 4.12218 4.22022 4.17149
# Velocity P-wave (km/s) = 6.83656 7.10465 6.97190
#
# Compressibility (1/GPa) = 0.01916397
#
# Stress axis : x y z
#
# Youngs Moduli (GPa) = 77.55483 100.84516 79.83487
#
# Poissons Ratio (x) = 0.32906 0.15138
# Poissons Ratio (y) = 0.25307 0.23367
# Poissons Ratio (z) = 0.14705 0.29516
#
# Static dielectric constant tensor:
#      x y z
#    x 1.897160 0.000000 -0.005850 
#    y 0.000000 1.843740 0.000000 
#    z -0.005850 0.000000 1.764950 
# 
# From -- ./inp_files/219658.got.cif
#   From: 2010.05.17/outbox.cif.g08.bks.cpg/sg15_110_cif.got.tgz:219658.got - 2010.06.03 18:47:42.
