data_PCOD9307911
_publ_section_title
;
Structure prediction by ZEFSAII (Michael W. Deem and Ramdas Pophale) SiO2 
 PCOD9307911
Probable space group: C 2/C
;
_chemical_formula_sum "Si O2"
_cell_formula_units_Z 48
_cell_length_a 29.458910
_cell_length_b 7.192281
_cell_length_c 9.682622
_cell_angle_alpha 90.000000
_cell_angle_beta 99.343295
_cell_angle_gamma 90.000000
_cell_volume 2024.305672
_symmetry_space_group_name_H-M "C 2/C"
_symmetry_group_IT_number 15
_symmetry_cell_setting 'monoclinic'
loop_
_space_group_symop_operation_xyz
x,y,z
-x,y,1/2-z
-x,-y,-z
x,-y,1/2+z
1/2+x,1/2+y,z
1/2-x,1/2+y,1/2-z
1/2-x,1/2-y,-z
1/2+x,1/2-y,1/2+z
loop_
_atom_site_type_symbol
_atom_site_label
_atom_site_fract_x
_atom_site_fract_y
_atom_site_fract_z
Si Si1 0.971820 0.104398 0.108030
Si Si2 0.291919 0.738166 0.914008
Si Si3 0.392050 0.407560 0.194839
Si Si4 0.768182 0.179313 0.363011
Si Si5 0.864126 0.767470 0.891286
Si Si6 0.608617 0.862491 0.558137
O O1 0.895203 0.416418 0.425884
O O2 0.000000 0.190949 0.250000
O O3 0.934037 0.252650 0.032649
O O4 0.000000 0.000000 0.000000
O O5 0.273098 0.826813 0.764178
O O6 0.341451 0.814004 0.985542
O O7 0.250000 0.750000 0.000000
O O8 0.379624 0.588716 0.280700
O O9 0.291575 0.521428 0.878306
O O10 0.365076 0.369331 0.040837
O O11 0.443410 0.440976 0.168655
O O12 0.386849 0.231736 0.289973
O O13 0.750000 0.250000 0.500000
O O14 0.812091 0.299386 0.337415
#
# Coordination Sequence:
#
# PCOD9307911 Si02
#       6
#     8   8   8   8   8   8
#     4  12  25  52  85 115 160 206 263 343 411 483
#     4  12  26  45  72 111 156 210 267 326 382 476
#     4  12  25  51  79 113 161 207 264 340 404 470
#     4  12  25  45  67 108 161 205 267 321 387 460
#     4  12  28  47  82 115 162 219 268 330 405 489
#     4  12  27  48  81 117 160 212 271 326 416 480
#
# _framework density 23.711834
#
# number of rings (size 3 to 8) (size 9 to 14) (size 15 to 20)
#    0.000    0.000    5.000    4.000    7.000    0.000 
#    0.000    4.167    0.000    0.000    0.000    0.000 
#    0.000    0.000    0.000    0.000    0.000    0.000 
#
# Total GULP energy -134223.959215 kJ/mol
# GULP energy per Si atom -5592.664967 kJ/mol
# Density = 2.365786 g / cm^3
# Si number density = 23.711834 Si / 1000 Ang^3
#
#
#
# Elastic Constant Matrix: (Units=GPa)
#
#
# Indices 1 2 3 4 5 6 
#
# 1 138.3114 28.8945 72.5741 0.0000 -0.8400 0.0000
# 2 28.8945 136.3047 63.0208 0.0000 11.4636 0.0000
# 3 72.5741 63.0208 170.0400 0.0000 5.2586 0.0000
# 4 0.0000 0.0000 0.0000 19.8103 0.0000 5.2194
# 5 -0.8400 11.4636 5.2586 0.0000 54.7393 0.0000
# 6 0.0000 0.0000 0.0000 5.2194 0.0000 33.8191
#
#
#
# Elastic Compliance Matrix: (Units=1/GPa)
#
#
# Indices 1 2 3 4 5 6 
#
# 1 0.009337 -0.000213 -0.003924 0.000000 0.000565 0.000000
# 2 -0.000213 0.008990 -0.003192 0.000000 -0.001579 0.000000
# 3 -0.003924 -0.003192 0.008746 0.000000 -0.000232 0.000000
# 4 0.000000 0.000000 0.000000 0.052618 0.000000 -0.008121
# 5 0.000565 -0.001579 -0.000232 0.000000 0.018630 0.000000
# 6 0.000000 0.000000 0.000000 -0.008121 0.000000 0.030822
#
#
# Mechanical properties :
#
#
# Convention : Reuss Voigt Hill
#
# Bulk Modulus (GPa) = 80.54342 85.95943 83.25143
# Shear Modulus (GPa) = 33.79749 40.35152 37.07450
#
# Velocity S-wave (km/s) = 3.77947 4.12970 3.95846
# Velocity P-wave (km/s) = 7.28609 7.68568 7.48855
#
# Compressibility (1/GPa) = 0.01241566
#
# Stress axis : x y z
#
# Youngs Moduli (GPa) = 107.10433 111.22896 114.33837
#
# Poissons Ratio (x) = 0.02365 0.44862
# Poissons Ratio (y) = 0.02277 0.36502
# Poissons Ratio (z) = 0.42024 0.35510
#
# Static dielectric constant tensor:
#      x y z
#    x 2.073200 0.000000 0.024080 
#    y 0.000000 2.411140 0.000000 
#    z 0.024080 0.000000 2.038650 
# 
# From -- ./inp_files/64893.got.cif
#   From: 2010.05.17/outbox.cif.g08.bks.cpg/sg15_33_cif.got.tgz:64893.got - 2010.06.03 18:47:42.
