data_PCOD9307033
_publ_section_title
;
Structure prediction by ZEFSAII (Michael W. Deem and Ramdas Pophale) SiO2 
 PCOD9307033
Probable space group: C 2/C
;
_chemical_formula_sum "Si O2"
_cell_formula_units_Z 40
_cell_length_a 11.147741
_cell_length_b 16.407420
_cell_length_c 12.931988
_cell_angle_alpha 90.000000
_cell_angle_beta 52.511205
_cell_angle_gamma 90.000000
_cell_volume 1876.827122
_symmetry_space_group_name_H-M "C 2/C"
_symmetry_group_IT_number 15
_symmetry_cell_setting 'monoclinic'
loop_
_space_group_symop_operation_xyz
x,y,z
-x,y,1/2-z
-x,-y,-z
x,-y,1/2+z
1/2+x,1/2+y,z
1/2-x,1/2+y,1/2-z
1/2-x,1/2-y,-z
1/2+x,1/2-y,1/2+z
loop_
_atom_site_type_symbol
_atom_site_label
_atom_site_fract_x
_atom_site_fract_y
_atom_site_fract_z
Si Si1 0.637577 0.552832 0.881612
Si Si2 0.909099 0.249485 0.127451
Si Si3 0.557388 0.716644 0.832549
Si Si4 0.683490 0.157580 0.541105
Si Si5 0.356859 0.582366 0.263445
O O1 0.561050 0.620163 0.849069
O O2 0.742454 0.602270 0.907648
O O3 0.719105 0.484106 0.770574
O O4 0.500000 0.500000 0.000000
O O5 0.733153 0.260437 0.240167
O O6 0.932693 0.159018 0.162565
O O7 0.006232 0.320008 0.131943
O O8 0.962129 0.250396 0.979980
O O9 0.500000 0.740281 0.750000
O O10 0.750000 0.250000 0.500000
O O11 0.736015 0.115146 0.408030
O O12 0.500000 0.545695 0.250000
#
# Coordination Sequence:
#
# PCOD9307033 Si02
#       5
#     8   8   8   8   8
#     4  12  23  39  68 105 140 189 237 296 365 429
#     4  12  24  45  76 106 135 198 248 297 351 449
#     4  12  26  44  72 102 142 185 245 298 370 430
#     4  12  22  42  72 105 141 190 247 299 347 444
#     4  12  21  38  72 104 143 184 247 295 354 423
#
# _framework density 21.312563000000001
#
# number of rings (size 3 to 8) (size 9 to 14) (size 15 to 20)
#    0.000    0.000   10.000    1.200    0.000    0.000 
#    0.000    1.000    8.800    0.000    0.000    0.000 
#    0.000    0.000    0.000    0.000    0.000    0.000 
#
# Total GULP energy -111674.893326 kJ/mol
# GULP energy per Si atom -5583.744666 kJ/mol
# Density = 2.126406 g / cm^3
# Si number density = 21.312563 Si / 1000 Ang^3
#
#
#
# Elastic Constant Matrix: (Units=GPa)
#
#
# Indices 1 2 3 4 5 6 
#
# 1 96.3130 49.6265 39.0829 0.0000 18.5577 0.0000
# 2 49.6265 118.0603 40.5487 0.0000 16.4273 0.0000
# 3 39.0829 40.5487 122.9369 0.0000 26.2479 0.0000
# 4 0.0000 0.0000 0.0000 40.5910 0.0000 12.4265
# 5 18.5577 16.4273 26.2479 0.0000 38.8605 0.0000
# 6 0.0000 0.0000 0.0000 12.4265 0.0000 42.1119
#
#
#
# Elastic Compliance Matrix: (Units=1/GPa)
#
#
# Indices 1 2 3 4 5 6 
#
# 1 0.014434 -0.004820 -0.002293 0.000000 -0.003307 0.000000
# 2 -0.004820 0.011330 -0.001956 0.000000 -0.001167 0.000000
# 3 -0.002293 -0.001956 0.010631 0.000000 -0.005259 0.000000
# 4 0.000000 0.000000 0.000000 0.027083 0.000000 -0.007992
# 5 -0.003307 -0.001167 -0.005259 0.000000 0.031358 0.000000
# 6 0.000000 0.000000 0.000000 -0.007992 0.000000 0.026104
#
#
# Mechanical properties :
#
#
# Convention : Reuss Voigt Hill
#
# Bulk Modulus (GPa) = 54.76891 66.20294 60.48592
# Shear Modulus (GPa) = 34.44416 38.18280 36.31348
#
# Velocity S-wave (km/s) = 4.02449 4.23728 4.13225
# Velocity P-wave (km/s) = 6.88107 7.42089 7.15607
#
# Compressibility (1/GPa) = 0.01825853
#
# Stress axis : x y z
#
# Youngs Moduli (GPa) = 69.28205 88.25940 94.06362
#
# Poissons Ratio (x) = 0.42537 0.21569
# Poissons Ratio (y) = 0.33391 0.18396
# Poissons Ratio (z) = 0.15886 0.17261
#
# Static dielectric constant tensor:
#      x y z
#    x 1.858270 0.000000 0.006360 
#    y 0.000000 1.791930 0.000000 
#    z 0.006360 0.000000 1.893020 
# 
# From -- ./inp_files/143287.got.cif
#   From: 2010.05.17/outbox.cif.g08.bks.cpg/sg15_72_cif.got.tgz:143287.got - 2010.06.03 18:47:42.
