data_PCOD9307059
_publ_section_title
;
Structure prediction by ZEFSAII (Michael W. Deem and Ramdas Pophale) SiO2 
 PCOD9307059
Probable space group: C 2/C
;
_chemical_formula_sum "Si O2"
_cell_formula_units_Z 48
_cell_length_a 14.000570
_cell_length_b 15.090270
_cell_length_c 10.832969
_cell_angle_alpha 90.000000
_cell_angle_beta 65.252099
_cell_angle_gamma 90.000000
_cell_volume 2078.508885
_symmetry_space_group_name_H-M "C 2/C"
_symmetry_group_IT_number 15
_symmetry_cell_setting 'monoclinic'
loop_
_space_group_symop_operation_xyz
x,y,z
-x,y,1/2-z
-x,-y,-z
x,-y,1/2+z
1/2+x,1/2+y,z
1/2-x,1/2+y,1/2-z
1/2-x,1/2-y,-z
1/2+x,1/2-y,1/2+z
loop_
_atom_site_type_symbol
_atom_site_label
_atom_site_fract_x
_atom_site_fract_y
_atom_site_fract_z
Si Si1 0.835348 0.327454 0.994249
Si Si2 0.706332 0.339326 0.465299
Si Si3 0.522188 0.311733 0.996685
Si Si4 0.500000 0.592488 0.750000
Si Si5 0.500000 0.064240 0.250000
Si Si6 0.856361 0.936692 0.753237
Si Si7 0.329645 0.959597 0.212266
O O1 0.920238 0.281133 0.039204
O O2 0.802221 0.411115 0.097178
O O3 0.750000 0.250000 0.000000
O O4 0.907353 0.371527 0.849469
O O5 0.750000 0.250000 0.500000
O O6 0.603023 0.312556 0.444000
O O7 0.667545 0.400977 0.598234
O O8 0.791420 0.391463 0.338327
O O9 0.571295 0.370650 0.862735
O O10 0.551012 0.350178 0.115342
O O11 0.418947 0.527994 0.727227
O O12 0.444756 0.999237 0.178828
O O13 0.748943 0.956493 0.741322
#
# Coordination Sequence:
#
# PCOD9307059 Si02
#       7
#     8   8   8   4   4   8   8
#     4  12  28  49  75 107 150 195 249 302 374 444
#     4  12  27  43  72 104 146 188 245 304 368 437
#     4  12  25  43  72 105 142 192 242 309 365 439
#     4  12  21  42  69 104 140 180 240 302 367 426
#     4  12  29  50  77 106 154 200 244 312 371 450
#     4  12  23  45  71 105 143 185 246 303 365 433
#     4  12  27  47  74 107 144 195 245 302 373 446
#
# _framework density 23.093478999999999
#
# number of rings (size 3 to 8) (size 9 to 14) (size 15 to 20)
#    0.000    0.000    3.333    6.500    7.000    0.000 
#    0.000    0.000    0.000    0.000    0.000    0.000 
#    0.000    0.000    0.000    0.000    0.000    0.000 
#
# Total GULP energy -134181.550500 kJ/mol
# GULP energy per Si atom -5590.897937 kJ/mol
# Density = 2.304092 g / cm^3
# Si number density = 23.093479 Si / 1000 Ang^3
#
#
#
# Elastic Constant Matrix: (Units=GPa)
#
#
# Indices 1 2 3 4 5 6 
#
# 1 122.4353 45.6305 -3.5639 0.0000 -4.9754 0.0000
# 2 45.6305 70.8195 17.9160 0.0000 -15.5282 0.0000
# 3 -3.5639 17.9160 107.6883 0.0000 -7.1618 0.0000
# 4 0.0000 0.0000 0.0000 40.6387 0.0000 12.7834
# 5 -4.9754 -15.5282 -7.1618 0.0000 21.6751 0.0000
# 6 0.0000 0.0000 0.0000 12.7834 0.0000 49.8048
#
#
#
# Elastic Compliance Matrix: (Units=1/GPa)
#
#
# Indices 1 2 3 4 5 6 
#
# 1 0.011151 -0.008189 0.001545 0.000000 -0.002796 0.000000
# 2 -0.008189 0.023213 -0.003223 0.000000 0.013685 0.000000
# 3 0.001545 -0.003223 0.009962 0.000000 0.001338 0.000000
# 4 0.000000 0.000000 0.000000 0.026768 0.000000 -0.006871
# 5 -0.002796 0.013685 0.001338 0.000000 0.055740 0.000000
# 6 0.000000 0.000000 0.000000 -0.006871 0.000000 0.021842
#
#
# Mechanical properties :
#
#
# Convention : Reuss Voigt Hill
#
# Bulk Modulus (GPa) = 40.66110 46.76760 43.71435
# Shear Modulus (GPa) = 28.31156 38.48774 33.39965
#
# Velocity S-wave (km/s) = 3.50516 4.08684 3.80713
# Velocity P-wave (km/s) = 5.83326 6.52419 6.18838
#
# Compressibility (1/GPa) = 0.02459353
#
# Stress axis : x y z
#
# Youngs Moduli (GPa) = 89.67946 43.08002 100.37816
#
# Poissons Ratio (x) = 0.35277 -0.15513
# Poissons Ratio (y) = 0.73437 0.32349
# Poissons Ratio (z) = -0.13859 0.13884
#
# Static dielectric constant tensor:
#      x y z
#    x 1.910340 0.000000 -0.006870 
#    y 0.000000 1.930040 0.000000 
#    z -0.006870 0.000000 1.823040 
# 
# From -- ./inp_files/96918.got.cif
#   From: 2010.05.17/outbox.cif.g08.bks.cpg/sg15_49_cif.got.tgz:96918.got - 2010.06.03 18:47:42.
