data_PCOD9307539
_publ_section_title
;
Structure prediction by ZEFSAII (Michael W. Deem and Ramdas Pophale) SiO2 
 PCOD9307539
Probable space group: C 2/C
;
_chemical_formula_sum "Si O2"
_cell_formula_units_Z 36
_cell_length_a 4.734821
_cell_length_b 14.473958
_cell_length_c 19.505112
_cell_angle_alpha 90.000000
_cell_angle_beta 88.730392
_cell_angle_gamma 90.000000
_cell_volume 1336.388379
_symmetry_space_group_name_H-M "C 2/C"
_symmetry_group_IT_number 15
_symmetry_cell_setting 'monoclinic'
loop_
_space_group_symop_operation_xyz
x,y,z
-x,y,1/2-z
-x,-y,-z
x,-y,1/2+z
1/2+x,1/2+y,z
1/2-x,1/2+y,1/2-z
1/2-x,1/2-y,-z
1/2+x,1/2-y,1/2+z
loop_
_atom_site_type_symbol
_atom_site_label
_atom_site_fract_x
_atom_site_fract_y
_atom_site_fract_z
Si Si1 0.427784 0.685499 0.448292
Si Si2 0.308938 0.579202 0.849368
Si Si3 0.000000 0.557675 0.250000
Si Si4 0.435986 0.212015 0.354265
Si Si5 0.711166 0.950875 0.052201
O O1 0.250000 0.750000 0.500000
O O2 0.758975 0.794498 0.577177
O O3 0.420471 0.597200 0.496505
O O4 0.246483 0.686342 0.379713
O O5 0.201989 0.511445 0.790723
O O6 0.413247 0.682491 0.829127
O O7 0.562943 0.528453 0.888605
O O8 0.034339 0.597126 0.899492
O O9 0.854531 0.631338 0.302365
O O10 0.500000 0.000000 0.000000
#
# Coordination Sequence:
#
# PCOD9307539 Si02
#       5
#     8   8   4   8   8
#     4  12  23  49  85 117 155 201 270 341 419 484
#     4  12  27  53  80 115 168 213 270 340 397 487
#     4  12  34  54  80 120 168 228 290 318 406 504
#     4  12  27  52  85 117 162 221 269 342 405 487
#     4  12  26  47  81 122 159 204 261 341 424 480
#
# _framework density 26.938275999999998
#
# number of rings (size 3 to 8) (size 9 to 14) (size 15 to 20)
#    0.000    0.000    4.444    4.000    0.000   12.444 
#    0.000    0.000    0.000    0.000    0.000    0.000 
#    0.000    0.000    0.000    0.000    0.000    0.000 
#
# Total GULP energy -100618.348329 kJ/mol
# GULP energy per Si atom -5589.908240 kJ/mol
# Density = 2.687696 g / cm^3
# Si number density = 26.938276 Si / 1000 Ang^3
#
#
#
# Elastic Constant Matrix: (Units=GPa)
#
#
# Indices 1 2 3 4 5 6 
#
# 1 150.4574 29.5833 59.3245 0.0000 28.7783 0.0000
# 2 29.5833 164.5689 124.1237 0.0000 24.8783 0.0000
# 3 59.3245 124.1237 172.7796 0.0000 40.3651 0.0000
# 4 0.0000 0.0000 0.0000 51.4232 0.0000 1.8280
# 5 28.7783 24.8783 40.3651 0.0000 62.5799 0.0000
# 6 0.0000 0.0000 0.0000 1.8280 0.0000 33.5965
#
#
#
# Elastic Compliance Matrix: (Units=1/GPa)
#
#
# Indices 1 2 3 4 5 6 
#
# 1 0.008063 0.001276 -0.003179 0.000000 -0.002164 0.000000
# 2 0.001276 0.013521 -0.010313 0.000000 0.000690 0.000000
# 3 -0.003179 -0.010313 0.015293 0.000000 -0.004302 0.000000
# 4 0.000000 0.000000 0.000000 0.019484 0.000000 -0.001060
# 5 -0.002164 0.000690 -0.004302 0.000000 0.019476 0.000000
# 6 0.000000 0.000000 0.000000 -0.001060 0.000000 0.029823
#
#
# Mechanical properties :
#
#
# Convention : Reuss Voigt Hill
#
# Bulk Modulus (GPa) = 80.35539 101.54099 90.94819
# Shear Modulus (GPa) = 37.24663 47.83822 42.54243
#
# Velocity S-wave (km/s) = 3.72246 4.21865 3.97830
# Velocity P-wave (km/s) = 6.95484 7.84252 7.41198
#
# Compressibility (1/GPa) = 0.01244472
#
# Stress axis : x y z
#
# Youngs Moduli (GPa) = 124.02116 73.95918 65.38944
#
# Poissons Ratio (x) = -0.09435 0.20789
# Poissons Ratio (y) = -0.15821 0.67433
# Poissons Ratio (z) = 0.39430 0.76271
#
# Static dielectric constant tensor:
#      x y z
#    x 1.843940 0.000000 -0.095390 
#    y 0.000000 1.064870 0.000000 
#    z -0.095390 0.000000 2.137910 
# 
# From -- ./inp_files/260251.got.cif
#   From: 2010.05.17/outbox.cif.g08.bks.cpg/sg15_131_cif.got.tgz:260251.got - 2010.06.03 18:47:42.
