data_PCOD9307159
_publ_section_title
;
Structure prediction by ZEFSAII (Michael W. Deem and Ramdas Pophale) SiO2 
 PCOD9307159
Probable space group: C 2/C
;
_chemical_formula_sum "Si O2"
_cell_formula_units_Z 52
_cell_length_a 18.555993
_cell_length_b 18.468402
_cell_length_c 15.545213
_cell_angle_alpha 90.000000
_cell_angle_beta 152.302497
_cell_angle_gamma 90.000000
_cell_volume 2476.164812
_symmetry_space_group_name_H-M "C 2/C"
_symmetry_group_IT_number 15
_symmetry_cell_setting 'monoclinic'
loop_
_space_group_symop_operation_xyz
x,y,z
-x,y,1/2-z
-x,-y,-z
x,-y,1/2+z
1/2+x,1/2+y,z
1/2-x,1/2+y,1/2-z
1/2-x,1/2-y,-z
1/2+x,1/2-y,1/2+z
loop_
_atom_site_type_symbol
_atom_site_label
_atom_site_fract_x
_atom_site_fract_y
_atom_site_fract_z
Si Si1 0.329576 0.102105 0.995472
Si Si2 0.910368 0.803903 0.334964
Si Si3 0.185059 0.025986 0.455572
Si Si4 0.240372 0.174171 0.251059
Si Si5 0.679555 0.177061 0.965229
Si Si6 0.388513 0.039453 0.314526
Si Si7 0.500000 0.232434 0.250000
O O1 0.202073 0.127542 0.792248
O O2 0.262472 0.035489 0.977487
O O3 0.491328 0.078219 0.124118
O O4 0.361054 0.175693 0.083098
O O5 0.814423 0.738081 0.273063
O O6 0.056323 0.818940 0.549371
O O7 0.972248 0.780110 0.305644
O O8 0.233339 0.105873 0.477056
O O9 0.000000 0.017913 0.250000
O O10 0.266770 0.010139 0.633885
O O11 0.300135 0.179229 0.410913
O O12 0.293287 0.099768 0.264330
O O13 0.500000 0.171128 0.750000
O O14 0.750000 0.250000 0.000000
O O15 0.500000 0.000000 0.500000
#
# Coordination Sequence:
#
# PCOD9307159 Si02
#       7
#     8   8   8   8   8   8   4
#     4  12  23  42  68 100 142 186 229 274 350 436
#     4  12  25  39  68 106 143 183 225 289 354 426
#     4  12  26  46  71 102 136 188 238 288 356 428
#     4  12  24  44  67 105 139 182 234 296 345 416
#     4  12  27  50  75 100 136 188 243 298 356 419
#     4  12  25  44  68  97 138 183 236 293 355 415
#     4  12  22  40  68 100 146 182 222 266 360 428
#
# _framework density 21.000218
#
# number of rings (size 3 to 8) (size 9 to 14) (size 15 to 20)
#    0.000    0.000    4.615    5.538    3.231    2.462 
#    0.000    3.077    0.000    0.000    0.000    0.000 
#    0.000    0.000    0.000    0.000    0.000    0.000 
#
# Total GULP energy -145566.607924 kJ/mol
# GULP energy per Si atom -5598.715689 kJ/mol
# Density = 2.095242 g / cm^3
# Si number density = 21.000218 Si / 1000 Ang^3
#
#
#
# Elastic Constant Matrix: (Units=GPa)
#
#
# Indices 1 2 3 4 5 6 
#
# 1 75.7836 24.5312 33.0643 0.0000 -16.9330 0.0000
# 2 24.5312 90.8429 19.0100 0.0000 -6.0816 0.0000
# 3 33.0643 19.0100 169.9420 0.0000 -7.0755 0.0000
# 4 0.0000 0.0000 0.0000 42.5677 0.0000 -3.9831
# 5 -16.9330 -6.0816 -7.0755 0.0000 36.8037 0.0000
# 6 0.0000 0.0000 0.0000 -3.9831 0.0000 21.6910
#
#
#
# Elastic Compliance Matrix: (Units=1/GPa)
#
#
# Indices 1 2 3 4 5 6 
#
# 1 0.017008 -0.003593 -0.002627 0.000000 0.006726 0.000000
# 2 -0.003593 0.012129 -0.000648 0.000000 0.000227 0.000000
# 3 -0.002627 -0.000648 0.006465 0.000000 -0.000073 0.000000
# 4 0.000000 0.000000 0.000000 0.023903 0.000000 0.004389
# 5 0.006726 0.000227 -0.000073 0.000000 0.030289 0.000000
# 6 0.000000 0.000000 0.000000 0.004389 0.000000 0.046908
#
#
# Mechanical properties :
#
#
# Convention : Reuss Voigt Hill
#
# Bulk Modulus (GPa) = 45.73446 54.41995 50.07721
# Shear Modulus (GPa) = 31.70051 37.54335 34.62193
#
# Velocity S-wave (km/s) = 3.88949 4.23278 4.06476
# Velocity P-wave (km/s) = 6.48044 7.06108 6.77698
#
# Compressibility (1/GPa) = 0.02186535
#
# Stress axis : x y z
#
# Youngs Moduli (GPa) = 58.79753 82.44690 154.67951
#
# Poissons Ratio (x) = 0.29620 0.40636
# Poissons Ratio (y) = 0.21124 0.10029
# Poissons Ratio (z) = 0.15447 0.05345
#
# Static dielectric constant tensor:
#      x y z
#    x 1.750940 0.000000 -0.016860 
#    y 0.000000 1.716620 0.000000 
#    z -0.016860 0.000000 1.796340 
# 
# From -- ./inp_files/163641.got.cif
#   From: 2010.05.17/outbox.cif.g08.bks.cpg/sg15_82_cif.got.tgz:163641.got - 2010.06.03 18:47:42.
