data_PCOD9307789
_publ_section_title
;
Structure prediction by ZEFSAII (Michael W. Deem and Ramdas Pophale) SiO2 
 PCOD9307789
Probable space group: C 2/C
;
_chemical_formula_sum "Si O2"
_cell_formula_units_Z 56
_cell_length_a 29.085347
_cell_length_b 8.602158
_cell_length_c 20.548990
_cell_angle_alpha 90.000000
_cell_angle_beta 28.086245
_cell_angle_gamma 90.000000
_cell_volume 2420.520068
_symmetry_space_group_name_H-M "C 2/C"
_symmetry_group_IT_number 15
_symmetry_cell_setting 'monoclinic'
loop_
_space_group_symop_operation_xyz
x,y,z
-x,y,1/2-z
-x,-y,-z
x,-y,1/2+z
1/2+x,1/2+y,z
1/2-x,1/2+y,1/2-z
1/2-x,1/2-y,-z
1/2+x,1/2-y,1/2+z
loop_
_atom_site_type_symbol
_atom_site_label
_atom_site_fract_x
_atom_site_fract_y
_atom_site_fract_z
Si Si1 0.314871 0.221921 0.552682
Si Si2 0.398702 0.726699 0.518683
Si Si3 0.932651 0.560197 0.728862
Si Si4 0.079947 0.122402 0.460739
Si Si5 0.230330 0.119138 0.159405
Si Si6 0.894419 0.336823 0.668665
Si Si7 0.000000 0.313669 0.750000
Si Si8 0.750000 0.750000 0.000000
O O1 0.352697 0.277845 0.575258
O O2 0.209883 0.295446 0.669916
O O3 0.400086 0.269721 0.395945
O O4 0.293323 0.038395 0.583649
O O5 0.487585 0.804450 0.369724
O O6 0.423060 0.550625 0.506607
O O7 0.301602 0.744101 0.596573
O O8 0.382068 0.823973 0.606342
O O9 0.922344 0.499314 0.667369
O O10 0.974262 0.419313 0.720069
O O11 0.832597 0.613057 0.886111
O O12 0.136151 0.109588 0.322340
O O13 0.977331 0.209933 0.582074
O O14 0.203175 0.157332 0.120428
#
# Coordination Sequence:
#
# PCOD9307789 Si02
#       8
#     8   8   8   8   8   8   4   4
#     4  12  26  49  75 107 149 199 246 311 378 447
#     4  12  25  44  80 110 145 194 256 315 377 448
#     4  12  26  47  74 105 154 202 251 305 386 456
#     4  12  25  47  76 115 149 190 258 319 369 451
#     4  12  24  48  74 105 157 197 247 314 380 448
#     4  12  26  46  77 109 149 195 247 315 379 443
#     4  12  24  54  70 100 156 206 240 306 374 458
#     4  12  28  44  74 106 150 200 252 302 378 460
#
# _framework density 23.135525000000001
#
# number of rings (size 3 to 8) (size 9 to 14) (size 15 to 20)
#    0.000    0.000    7.143    1.714    4.000    1.714 
#    2.571    0.000    0.000    0.000    0.000    0.000 
#    0.000    0.000    0.000    0.000    0.000    0.000 
#
# Total GULP energy -156316.983815 kJ/mol
# GULP energy per Si atom -5582.749422 kJ/mol
# Density = 2.308287 g / cm^3
# Si number density = 23.135525 Si / 1000 Ang^3
#
#
#
# Elastic Constant Matrix: (Units=GPa)
#
#
# Indices 1 2 3 4 5 6 
#
# 1 6.4220 1.2155 -5.9025 -0.0010 -6.4599 0.0000
# 2 1.2155 28.8242 14.2099 -0.0019 -4.7758 0.0007
# 3 -5.9025 14.2099 146.8327 -0.0033 -14.9768 0.0008
# 4 -0.0010 -0.0019 -0.0033 23.1328 0.0009 8.2101
# 5 -6.4599 -4.7758 -14.9768 0.0009 41.8651 -0.0002
# 6 0.0000 0.0007 0.0008 8.2101 -0.0002 15.8993
#
#
#
# Elastic Compliance Matrix: (Units=1/GPa)
#
#
# Indices 1 2 3 4 5 6 
#
# 1 0.204291 -0.009054 0.012660 0.000010 0.035019 -0.000004
# 2 -0.009054 0.037200 -0.003813 0.000003 0.001483 -0.000003
# 3 0.012660 -0.003813 0.008140 0.000002 0.004431 -0.000001
# 4 0.000010 0.000003 0.000002 0.052929 0.000001 -0.027331
# 5 0.035019 0.001483 0.004431 0.000001 0.031044 0.000000
# 6 -0.000004 -0.000003 -0.000001 -0.027331 0.000000 0.077009
#
#
# Mechanical properties :
#
#
# Convention : Reuss Voigt Hill
#
# Bulk Modulus (GPa) = 4.01254 22.34718 13.17986
# Shear Modulus (GPa) = 10.11943 27.68317 18.90130
#
# Velocity S-wave (km/s) = 2.09368 3.46289 2.86139
# Velocity P-wave (km/s) = 2.75368 5.06646 4.07749
#
# Compressibility (1/GPa) = 0.24921901
#
# Stress axis : x y z
#
# Youngs Moduli (GPa) = 4.89498 26.88158 122.84541
#
# Poissons Ratio (x) = 0.24338 -1.55526
# Poissons Ratio (y) = 0.04432 0.46839
# Poissons Ratio (z) = -0.06197 0.10249
#
# Static dielectric constant tensor:
#      x y z
#    x 1.891530 0.000000 -0.021970 
#    y 0.000000 1.853400 0.000000 
#    z -0.021970 0.000000 1.863920 
# 
# From -- ./inp_files/258988.got.cif
#   From: 2010.05.17/outbox.cif.g08.bks.cpg/sg15_130_cif.got.tgz:258988.got - 2010.06.03 18:47:42.
