data_PCOD9307820
_publ_section_title
;
Structure prediction by ZEFSAII (Michael W. Deem and Ramdas Pophale) SiO2 
 PCOD9307820
Probable space group: C 2/C
;
_chemical_formula_sum "Si O2"
_cell_formula_units_Z 20
_cell_length_a 20.408410
_cell_length_b 7.509592
_cell_length_c 14.842872
_cell_angle_alpha 90.000000
_cell_angle_beta 17.700201
_cell_angle_gamma 90.000000
_cell_volume 691.622384
_symmetry_space_group_name_H-M "C 2/C"
_symmetry_group_IT_number 15
_symmetry_cell_setting 'monoclinic'
loop_
_space_group_symop_operation_xyz
x,y,z
-x,y,1/2-z
-x,-y,-z
x,-y,1/2+z
1/2+x,1/2+y,z
1/2-x,1/2+y,1/2-z
1/2-x,1/2-y,-z
1/2+x,1/2-y,1/2+z
loop_
_atom_site_type_symbol
_atom_site_label
_atom_site_fract_x
_atom_site_fract_y
_atom_site_fract_z
Si Si1 0.000000 0.526969 0.750000
Si Si2 0.967023 0.965348 0.685559
Si Si3 0.408592 0.160107 0.555865
O O1 0.231929 0.608254 0.469753
O O2 0.047237 0.411846 0.600910
O O3 0.156430 0.831020 0.410251
O O4 0.000000 0.004818 0.750000
O O5 0.002300 0.140220 0.576333
O O6 0.500000 0.000000 0.500000
#
# Coordination Sequence:
#
# PCOD9307820 Si02
#       3
#     4   8   8
#     4  12  24  48  80 108 154 202 248 312 382 448
#     4  12  26  52  79 111 151 203 253 314 379 447
#     4  12  25  47  80 112 150 201 253 309 380 450
#
# _framework density 28.917515999999999
#
# number of rings (size 3 to 8) (size 9 to 14) (size 15 to 20)
#    0.000    0.000    6.000    4.800    0.000    0.000 
#   10.800    4.000    0.000    2.400    0.000    0.000 
#    0.000    0.000    0.000    0.000    0.000    0.000 
#
# Total GULP energy -56068.530876 kJ/mol
# GULP energy per Si atom -5606.853088 kJ/mol
# Density = 2.885170 g / cm^3
# Si number density = 28.917516 Si / 1000 Ang^3
#
#
#
# Elastic Constant Matrix: (Units=GPa)
#
#
# Indices 1 2 3 4 5 6 
#
# 1 219.0690 101.9403 93.7398 -0.0003 13.7476 0.0000
# 2 101.9403 201.1797 63.6368 -0.0003 2.5557 0.0000
# 3 93.7398 63.6368 232.2555 -0.0005 -21.5879 0.0003
# 4 -0.0003 -0.0003 -0.0005 22.5931 0.0005 17.0685
# 5 13.7476 2.5557 -21.5879 0.0005 80.3172 -0.0001
# 6 0.0000 0.0000 0.0003 17.0685 -0.0001 56.8705
#
#
#
# Elastic Compliance Matrix: (Units=1/GPa)
#
#
# Indices 1 2 3 4 5 6 
#
# 1 0.006897 -0.002785 -0.002177 0.000000 -0.001677 0.000000
# 2 -0.002785 0.006594 -0.000675 0.000000 0.000086 0.000000
# 3 -0.002177 -0.000675 0.005544 0.000000 0.001884 0.000000
# 4 0.000000 0.000000 0.000000 0.057240 0.000000 -0.017179
# 5 -0.001677 0.000086 0.001884 0.000000 0.013241 0.000000
# 6 0.000000 0.000000 0.000000 -0.017179 0.000000 0.022740
#
#
# Mechanical properties :
#
#
# Convention : Reuss Voigt Hill
#
# Bulk Modulus (GPa) = 128.81976 130.12644 129.47310
# Shear Modulus (GPa) = 39.64548 58.16865 48.90707
#
# Velocity S-wave (km/s) = 3.70670 4.48988 4.11696
# Velocity P-wave (km/s) = 7.93495 8.48384 8.21398
#
# Compressibility (1/GPa) = 0.00776278
#
# Stress axis : x y z
#
# Youngs Moduli (GPa) = 144.98155 151.64546 180.37225
#
# Poissons Ratio (x) = 0.42237 0.39260
# Poissons Ratio (y) = 0.40381 0.12170
# Poissons Ratio (z) = 0.31556 0.10232
#
# Static dielectric constant tensor:
#      x y z
#    x 2.309170 0.000000 -0.049480 
#    y 0.000000 2.215030 0.000000 
#    z -0.049480 0.000000 2.191200 
# 
# From -- ./inp_files/26550.got.cif
#   From: 2010.05.17/outbox.cif.g08.bks.cpg/sg15_14_cif.got.tgz:26550.got - 2010.06.03 18:47:42.
