data_PCOD9307118
_publ_section_title
;
Structure prediction by ZEFSAII (Michael W. Deem and Ramdas Pophale) SiO2 
 PCOD9307118
Probable space group: C 2/C
;
_chemical_formula_sum "Si O2"
_cell_formula_units_Z 48
_cell_length_a 10.792255
_cell_length_b 18.096030
_cell_length_c 14.249891
_cell_angle_alpha 90.000000
_cell_angle_beta 42.790204
_cell_angle_gamma 90.000000
_cell_volume 1890.509195
_symmetry_space_group_name_H-M "C 2/C"
_symmetry_group_IT_number 15
_symmetry_cell_setting 'monoclinic'
loop_
_space_group_symop_operation_xyz
x,y,z
-x,y,1/2-z
-x,-y,-z
x,-y,1/2+z
1/2+x,1/2+y,z
1/2-x,1/2+y,1/2-z
1/2-x,1/2-y,-z
1/2+x,1/2-y,1/2+z
loop_
_atom_site_type_symbol
_atom_site_label
_atom_site_fract_x
_atom_site_fract_y
_atom_site_fract_z
Si Si1 0.956504 0.334177 0.992920
Si Si2 0.191926 0.930405 0.263416
Si Si3 0.718499 0.600255 0.480630
Si Si4 0.058391 0.713653 0.613893
Si Si5 0.759538 0.073260 0.539020
Si Si6 0.828273 0.102487 0.216354
O O1 0.853376 0.339228 0.950617
O O2 0.170707 0.350430 0.854869
O O3 0.831160 0.394361 0.115011
O O4 0.949999 0.270756 0.077605
O O5 0.227282 0.920571 0.355247
O O6 0.988196 0.897439 0.365630
O O7 0.201480 0.017255 0.239833
O O8 0.772202 0.513131 0.465721
O O9 0.708534 0.608682 0.374265
O O10 0.250000 0.750000 0.500000
O O11 0.099899 0.625890 0.593682
O O12 0.000000 0.734740 0.750000
O O13 0.951833 0.106102 0.392885
#
# Coordination Sequence:
#
# PCOD9307118 Si02
#       6
#     8   8   8   8   8   8
#     4  12  22  35  62  95 124 171 212 261 318 380
#     4   9  18  36  56  94 136 170 197 245 325 393
#     4   9  20  36  62 101 140 162 195 250 332 408
#     4  12  29  47  65  86 117 169 232 275 309 366
#     4   9  20  41  61  88 135 172 198 257 315 384
#     4   9  20  34  59  98 138 165 192 247 324 406
#
# _framework density 25.389986
#
# number of rings (size 3 to 8) (size 9 to 14) (size 15 to 20)
#    0.000    2.000    1.667    3.500    7.000    0.000 
#    0.000    0.000    0.000    4.000    0.000    0.000 
#    0.000    0.000    0.000    0.000    0.000    0.000 
#
# Total GULP energy -134044.541268 kJ/mol
# GULP energy per Si atom -5585.189220 kJ/mol
# Density = 2.533220 g / cm^3
# Si number density = 25.389986 Si / 1000 Ang^3
#
#
#
# Elastic Constant Matrix: (Units=GPa)
#
#
# Indices 1 2 3 4 5 6 
#
# 1 87.4293 18.9295 7.4930 0.0004 0.1685 -0.0004
# 2 18.9295 44.8751 14.1599 -0.0003 -5.0203 0.0001
# 3 7.4930 14.1599 159.8374 -0.0005 9.5490 0.0005
# 4 0.0004 -0.0003 -0.0005 6.4328 0.0000 -20.4357
# 5 0.1685 -5.0203 9.5490 0.0000 35.6399 0.0001
# 6 -0.0004 0.0001 0.0005 -20.4357 0.0001 29.8535
#
#
#
# Elastic Compliance Matrix: (Units=1/GPa)
#
#
# Indices 1 2 3 4 5 6 
#
# 1 0.012612 -0.005389 -0.000066 0.000000 -0.000801 0.000000
# 2 -0.005389 0.025755 -0.002284 -0.000001 0.004265 -0.000001
# 3 -0.000066 -0.002284 0.006586 0.000000 -0.002086 0.000000
# 4 0.000000 -0.000001 0.000000 -0.132343 0.000000 -0.090593
# 5 -0.000801 0.004265 -0.002086 0.000000 0.029222 0.000000
# 6 0.000000 -0.000001 0.000000 -0.090593 0.000000 -0.028517
#
#
# Mechanical properties :
#
#
# Convention : Reuss Voigt Hill
#
# Bulk Modulus (GPa) = 33.92588 41.47852 37.70220
# Shear Modulus (GPa) = -81.45702 31.15587 -25.15058
#
# Velocity S-wave (km/s) = -5.67027 3.50679 -3.15075
# Velocity P-wave (km/s) = 5.42940 5.72440 1.28265
#
# Compressibility (1/GPa) = 0.02947602
#
# Stress axis : x y z
#
# Youngs Moduli (GPa) = 79.29117 38.82743 151.82797
#
# Poissons Ratio (x) = 0.20923 0.01002
# Poissons Ratio (y) = 0.42728 0.34675
# Poissons Ratio (z) = 0.00523 0.08867
#
# Static dielectric constant tensor:
#      x y z
#    x 1.997630 0.000000 -0.035870 
#    y 0.000000 2.061840 0.000000 
#    z -0.035870 0.000000 1.924060 
# 
# From -- ./inp_files/32030.got.cif
#   From: 2010.05.17/outbox.cif.g08.bks.cpg/sg15_17_cif.got.tgz:32030.got - 2010.06.03 18:47:42.
