data_PCOD9307806
_publ_section_title
;
Structure prediction by ZEFSAII (Michael W. Deem and Ramdas Pophale) SiO2 
 PCOD9307806
Probable space group: C 2/C
;
_chemical_formula_sum "Si O2"
_cell_formula_units_Z 48
_cell_length_a 18.850405
_cell_length_b 9.566294
_cell_length_c 11.931204
_cell_angle_alpha 90.000000
_cell_angle_beta 95.770767
_cell_angle_gamma 90.000000
_cell_volume 2140.632628
_symmetry_space_group_name_H-M "C 2/C"
_symmetry_group_IT_number 15
_symmetry_cell_setting 'monoclinic'
loop_
_space_group_symop_operation_xyz
x,y,z
-x,y,1/2-z
-x,-y,-z
x,-y,1/2+z
1/2+x,1/2+y,z
1/2-x,1/2+y,1/2-z
1/2-x,1/2-y,-z
1/2+x,1/2-y,1/2+z
loop_
_atom_site_type_symbol
_atom_site_label
_atom_site_fract_x
_atom_site_fract_y
_atom_site_fract_z
Si Si1 0.952064 0.261875 0.384416
Si Si2 0.121260 0.280811 0.742845
Si Si3 0.500000 0.999033 0.750000
Si Si4 0.104213 0.031002 0.300448
Si Si5 0.819866 0.654511 0.004892
Si Si6 0.500000 0.500000 0.000000
Si Si7 0.241305 0.370743 0.588855
O O1 0.003484 0.386415 0.351456
O O2 0.929856 0.149513 0.284409
O O3 0.875896 0.316416 0.415234
O O4 0.986662 0.168861 0.486241
O O5 0.059631 0.393421 0.714412
O O6 0.141427 0.312897 0.873722
O O7 0.188320 0.315724 0.675961
O O8 0.102097 0.116181 0.731929
O O9 0.184469 0.075640 0.345557
O O10 0.059828 0.010683 0.406768
O O11 0.750000 0.750000 0.000000
O O12 0.793590 0.498464 0.983267
O O13 0.250000 0.250000 0.500000
#
# Coordination Sequence:
#
# PCOD9307806 Si02
#       7
#     8   8   4   8   8   4   8
#     4  12  26  50  74 108 153 196 249 308 371 446
#     4  12  29  47  76 110 149 196 247 310 374 448
#     4  12  28  48  74 112 150 192 248 314 362 444
#     4  12  28  47  77 108 154 193 248 308 377 450
#     4  12  25  50  76 107 149 195 245 307 372 442
#     4  12  24  48  78 106 142 204 242 300 376 446
#     4  12  30  47  76 111 146 195 250 307 374 449
#
# _framework density 22.423279000000001
#
# number of rings (size 3 to 8) (size 9 to 14) (size 15 to 20)
#    0.000    0.000    6.667    1.000   11.667    0.667 
#    0.000    0.000    0.000    0.000    0.000    0.000 
#    0.000    0.000    0.000    0.000    0.000    0.000 
#
# Total GULP energy -133730.951432 kJ/mol
# GULP energy per Si atom -5572.122976 kJ/mol
# Density = 2.237224 g / cm^3
# Si number density = 22.423279 Si / 1000 Ang^3
#
#
#
# Elastic Constant Matrix: (Units=GPa)
#
#
# Indices 1 2 3 4 5 6 
#
# 1 94.5975 57.5978 24.3086 0.0000 -46.5476 0.0000
# 2 57.5978 193.7166 38.0347 0.0000 -19.2775 0.0000
# 3 24.3086 38.0347 61.2818 0.0000 -35.8159 0.0000
# 4 0.0000 0.0000 0.0000 48.8552 0.0000 -7.6990
# 5 -46.5476 -19.2775 -35.8159 0.0000 50.7602 0.0000
# 6 0.0000 0.0000 0.0000 -7.6990 0.0000 38.9531
#
#
#
# Elastic Compliance Matrix: (Units=1/GPa)
#
#
# Indices 1 2 3 4 5 6 
#
# 1 0.026606 -0.007162 0.011165 0.000000 0.029556 0.000000
# 2 -0.007162 0.007816 -0.007001 0.000000 -0.008538 0.000000
# 3 0.011165 -0.007001 0.035166 0.000000 0.032392 0.000000
# 4 0.000000 0.000000 0.000000 0.021127 0.000000 0.004176
# 5 0.029556 -0.008538 0.032392 0.000000 0.066416 0.000000
# 6 0.000000 0.000000 0.000000 0.004176 0.000000 0.026497
#
#
# Mechanical properties :
#
#
# Convention : Reuss Voigt Hill
#
# Bulk Modulus (GPa) = 15.72494 65.49754 40.61124
# Shear Modulus (GPa) = 23.71682 43.02403 33.37042
#
# Velocity S-wave (km/s) = 3.25574 4.38507 3.86191
# Velocity P-wave (km/s) = 4.60012 7.41023 6.16736
#
# Compressibility (1/GPa) = 0.06359325
#
# Stress axis : x y z
#
# Youngs Moduli (GPa) = 37.58578 127.93624 28.43669
#
# Poissons Ratio (x) = 0.91623 -0.31749
# Poissons Ratio (y) = 0.26918 0.19908
# Poissons Ratio (z) = -0.41964 0.89565
#
# Static dielectric constant tensor:
#      x y z
#    x 0.927520 0.000000 0.039200 
#    y 0.000000 1.784780 0.000000 
#    z 0.039200 0.000000 1.877290 
# 
# From -- ./inp_files/159784.got.cif
#   From: 2010.05.17/outbox.cif.g08.bks.cpg/sg15_80_cif.got.tgz:159784.got - 2010.06.03 18:47:42.
