data_PCOD9307293
_publ_section_title
;
Structure prediction by ZEFSAII (Michael W. Deem and Ramdas Pophale) SiO2 
 PCOD9307293
Probable space group: C 2/C
;
_chemical_formula_sum "Si O2"
_cell_formula_units_Z 36
_cell_length_a 14.149897
_cell_length_b 15.275381
_cell_length_c 7.604744
_cell_angle_alpha 90.000000
_cell_angle_beta 127.333954
_cell_angle_gamma 90.000000
_cell_volume 1306.951444
_symmetry_space_group_name_H-M "C 2/C"
_symmetry_group_IT_number 15
_symmetry_cell_setting 'monoclinic'
loop_
_space_group_symop_operation_xyz
x,y,z
-x,y,1/2-z
-x,-y,-z
x,-y,1/2+z
1/2+x,1/2+y,z
1/2-x,1/2+y,1/2-z
1/2-x,1/2-y,-z
1/2+x,1/2-y,1/2+z
loop_
_atom_site_type_symbol
_atom_site_label
_atom_site_fract_x
_atom_site_fract_y
_atom_site_fract_z
Si Si1 0.204085 0.439730 0.968218
Si Si2 0.936259 0.713466 0.335574
Si Si3 0.132470 0.035906 0.153445
Si Si4 0.357415 0.312396 0.553084
Si Si5 0.000000 0.588276 0.750000
O O1 0.126667 0.355046 0.863279
O O2 0.312438 0.421910 0.955309
O O3 0.111901 0.522363 0.850317
O O4 0.274078 0.457047 0.224094
O O5 0.858703 0.783831 0.351708
O O6 0.000000 0.766851 0.250000
O O7 0.982362 0.647021 0.550039
O O8 0.152315 0.098843 0.343087
O O9 0.000000 0.000000 0.000000
O O10 0.500000 0.296560 0.750000
O O11 0.250000 0.250000 0.500000
#
# Coordination Sequence:
#
# PCOD9307293 Si02
#       5
#     8   8   8   8   4
#     4  12  22  45  79 122 164 215 293 360 426 516
#     4  12  25  46  84 129 167 224 288 361 448 527
#     4  12  27  48  82 122 165 232 292 353 433 527
#     4  12  26  54  83 116 177 231 281 366 442 516
#     4  12  22  46  82 124 176 212 282 380 430 508
#
# _framework density 27.545017999999999
#
# number of rings (size 3 to 8) (size 9 to 14) (size 15 to 20)
#    0.000    0.000    6.667    4.000    0.000    0.000 
#    4.000    5.556    0.000    0.000    0.000    0.000 
#    0.000    0.000    0.000    0.000    0.000    0.000 
#
# Total GULP energy -100279.509193 kJ/mol
# GULP energy per Si atom -5571.083844 kJ/mol
# Density = 2.748232 g / cm^3
# Si number density = 27.545018 Si / 1000 Ang^3
#
#
#
# Elastic Constant Matrix: (Units=GPa)
#
#
# Indices 1 2 3 4 5 6 
#
# 1 248.2744 43.1349 51.8909 0.0000 -19.1733 0.0000
# 2 43.1349 135.0437 37.9345 0.0000 2.2670 0.0000
# 3 51.8909 37.9345 101.1790 0.0000 8.1415 0.0000
# 4 0.0000 0.0000 0.0000 62.0432 0.0000 13.3055
# 5 -19.1733 2.2670 8.1415 0.0000 73.3919 0.0000
# 6 0.0000 0.0000 0.0000 13.3055 0.0000 32.5038
#
#
#
# Elastic Compliance Matrix: (Units=1/GPa)
#
#
# Indices 1 2 3 4 5 6 
#
# 1 0.004770 -0.000925 -0.002222 0.000000 0.001521 0.000000
# 2 -0.000925 0.008457 -0.002680 0.000000 -0.000206 0.000000
# 3 -0.002222 -0.002680 0.012177 0.000000 -0.001849 0.000000
# 4 0.000000 0.000000 0.000000 0.017669 0.000000 -0.007233
# 5 0.001521 -0.000206 -0.001849 0.000000 0.014234 0.000000
# 6 0.000000 0.000000 0.000000 -0.007233 0.000000 0.033726
#
#
# Mechanical properties :
#
#
# Convention : Reuss Voigt Hill
#
# Bulk Modulus (GPa) = 72.72769 83.37974 78.05371
# Shear Modulus (GPa) = 46.61119 57.02357 51.81738
#
# Velocity S-wave (km/s) = 4.11808 4.55488 4.34197
# Velocity P-wave (km/s) = 7.00514 7.61568 7.31678
#
# Compressibility (1/GPa) = 0.01374992
#
# Stress axis : x y z
#
# Youngs Moduli (GPa) = 209.62351 118.24989 82.12508
#
# Poissons Ratio (x) = 0.10939 0.18250
# Poissons Ratio (y) = 0.19392 0.22006
# Poissons Ratio (z) = 0.46582 0.31687
#
# Static dielectric constant tensor:
#      x y z
#    x 0.095040 0.000000 -0.881370 
#    y 0.000000 2.280550 0.000000 
#    z -0.881370 0.000000 2.202790 
# 
# From -- ./inp_files/39469.got.cif
#   From: 2010.05.17/outbox.cif.g08.bks.cpg/sg15_20_cif.got.tgz:39469.got - 2010.06.03 18:47:42.
