data_PCOD9307857
_publ_section_title
;
Structure prediction by ZEFSAII (Michael W. Deem and Ramdas Pophale) SiO2 
 PCOD9307857
Probable space group: C 2/C
;
_chemical_formula_sum "Si O2"
_cell_formula_units_Z 44
_cell_length_a 10.307396
_cell_length_b 9.509585
_cell_length_c 19.168020
_cell_angle_alpha 90.000000
_cell_angle_beta 107.783703
_cell_angle_gamma 90.000000
_cell_volume 1789.053771
_symmetry_space_group_name_H-M "C 2/C"
_symmetry_group_IT_number 15
_symmetry_cell_setting 'monoclinic'
loop_
_space_group_symop_operation_xyz
x,y,z
-x,y,1/2-z
-x,-y,-z
x,-y,1/2+z
1/2+x,1/2+y,z
1/2-x,1/2+y,1/2-z
1/2-x,1/2-y,-z
1/2+x,1/2-y,1/2+z
loop_
_atom_site_type_symbol
_atom_site_label
_atom_site_fract_x
_atom_site_fract_y
_atom_site_fract_z
Si Si1 0.716778 0.003504 0.159733
Si Si2 0.681048 0.238416 0.562685
Si Si3 0.276160 0.210252 0.728475
Si Si4 0.128252 0.351768 0.505190
Si Si5 0.000000 0.288808 0.750000
Si Si6 0.328630 0.012477 0.123661
O O1 0.796673 0.122030 0.218168
O O2 0.769946 0.881988 0.116439
O O3 0.646615 0.891760 0.202786
O O4 0.645481 0.099211 0.088101
O O5 0.750000 0.250000 0.500000
O O6 0.522050 0.207962 0.530758
O O7 0.697688 0.386760 0.604052
O O8 0.301572 0.129377 0.661118
O O9 0.121329 0.204734 0.732442
O O10 0.250000 0.250000 0.500000
O O11 0.137390 0.477161 0.450286
O O12 0.938289 0.390791 0.680720
#
# Coordination Sequence:
#
# PCOD9307857 Si02
#       6
#     8   8   8   8   4   8
#     4  12  24  50  76 113 155 209 266 327 398 473
#     4  12  27  47  82 114 154 209 262 324 398 473
#     4  12  26  46  77 109 155 203 266 325 394 472
#     4  12  28  48  78 116 163 203 268 333 396 474
#     4  12  26  46  80 108 158 208 262 324 396 474
#     4  12  27  50  76 115 157 210 263 329 401 474
#
# _framework density 24.594007000000001
#
# number of rings (size 3 to 8) (size 9 to 14) (size 15 to 20)
#    0.000    0.000    7.273    1.636    2.545    2.182 
#    0.000    0.000    0.000    0.000    0.000    0.000 
#    0.000    0.000    0.000    0.000    0.000    0.000 
#
# Total GULP energy -122731.865351 kJ/mol
# GULP energy per Si atom -5578.721152 kJ/mol
# Density = 2.453803 g / cm^3
# Si number density = 24.594007 Si / 1000 Ang^3
#
#
#
# Elastic Constant Matrix: (Units=GPa)
#
#
# Indices 1 2 3 4 5 6 
#
# 1 119.6686 45.2430 25.0521 0.0000 1.9922 0.0000
# 2 45.2430 146.9983 55.1299 0.0000 -1.1011 0.0000
# 3 25.0521 55.1299 161.8352 0.0000 -13.0911 0.0000
# 4 0.0000 0.0000 0.0000 58.1316 0.0000 -7.8997
# 5 1.9922 -1.1011 -13.0911 0.0000 29.0489 0.0000
# 6 0.0000 0.0000 0.0000 -7.8997 0.0000 49.0008
#
#
#
# Elastic Compliance Matrix: (Units=1/GPa)
#
#
# Indices 1 2 3 4 5 6 
#
# 1 0.009529 -0.002701 -0.000639 0.000000 -0.001044 0.000000
# 2 -0.002701 0.008589 -0.002560 0.000000 -0.000643 0.000000
# 3 -0.000639 -0.002560 0.007416 0.000000 0.003289 0.000000
# 4 0.000000 0.000000 0.000000 0.017588 0.000000 0.002835
# 5 -0.001044 -0.000643 0.003289 0.000000 0.035954 0.000000
# 6 0.000000 0.000000 0.000000 0.002835 0.000000 0.020865
#
#
# Mechanical properties :
#
#
# Convention : Reuss Voigt Hill
#
# Bulk Modulus (GPa) = 72.81213 75.48355 74.14784
# Shear Modulus (GPa) = 42.98517 47.44140 45.21329
#
# Velocity S-wave (km/s) = 4.18519 4.39678 4.29229
# Velocity P-wave (km/s) = 7.28178 7.51891 7.40130
#
# Compressibility (1/GPa) = 0.01373398
#
# Stress axis : x y z
#
# Youngs Moduli (GPa) = 104.94577 116.42425 134.83968
#
# Poissons Ratio (x) = 0.31443 0.08623
# Poissons Ratio (y) = 0.28343 0.34518
# Poissons Ratio (z) = 0.06711 0.29804
#
# Static dielectric constant tensor:
#      x y z
#    x 2.022230 0.000000 0.093250 
#    y 0.000000 2.023190 0.000000 
#    z 0.093250 0.000000 2.077820 
# 
# From -- ./inp_files/236227.got.cif
#   From: 2010.05.17/outbox.cif.g08.bks.cpg/sg15_119_cif.got.tgz:236227.got - 2010.06.03 18:47:42.
