data_PCOD9307449
_publ_section_title
;
Structure prediction by ZEFSAII (Michael W. Deem and Ramdas Pophale) SiO2 
 PCOD9307449
Probable space group: C 2/C
;
_chemical_formula_sum "Si O2"
_cell_formula_units_Z 48
_cell_length_a 8.056565
_cell_length_b 17.725774
_cell_length_c 28.060196
_cell_angle_alpha 90.000000
_cell_angle_beta 148.280264
_cell_angle_gamma 90.000000
_cell_volume 2106.867569
_symmetry_space_group_name_H-M "C 2/C"
_symmetry_group_IT_number 15
_symmetry_cell_setting 'monoclinic'
loop_
_space_group_symop_operation_xyz
x,y,z
-x,y,1/2-z
-x,-y,-z
x,-y,1/2+z
1/2+x,1/2+y,z
1/2-x,1/2+y,1/2-z
1/2-x,1/2-y,-z
1/2+x,1/2-y,1/2+z
loop_
_atom_site_type_symbol
_atom_site_label
_atom_site_fract_x
_atom_site_fract_y
_atom_site_fract_z
Si Si1 0.126677 0.413157 0.405448
Si Si2 0.365535 0.245523 0.849175
Si Si3 0.753824 0.837616 0.912800
Si Si4 0.743542 0.806445 0.644680
Si Si5 0.132752 0.527270 0.083002
Si Si6 0.616752 0.025159 0.225582
O O1 0.477690 0.382066 0.493655
O O2 0.907577 0.343250 0.366721
O O3 0.064562 0.479594 0.427424
O O4 0.038578 0.450354 0.334015
O O5 0.424720 0.295368 0.910651
O O6 0.585208 0.264499 0.857216
O O7 0.000000 0.262322 0.750000
O O8 0.564144 0.779882 0.900561
O O9 0.508528 0.900756 0.833070
O O10 0.620113 0.884018 0.590834
O O11 0.000000 0.814906 0.750000
O O12 0.507492 0.513732 0.182529
O O13 0.000000 0.500000 0.000000
O O14 0.500000 0.037457 0.250000
#
# Coordination Sequence:
#
# PCOD9307449 Si02
#       6
#     8   8   8   8   8   8
#     4  12  27  46  69 105 148 178 228 304 358 405
#     4  12  25  46  71 103 142 191 233 288 357 418
#     4  12  25  46  75 101 139 192 238 282 347 431
#     4  12  23  44  75 101 137 190 241 283 341 433
#     4  12  24  43  72 104 137 183 238 293 353 416
#     4  12  24  43  70 103 138 184 234 292 350 418
#
# _framework density 22.782639
#
# number of rings (size 3 to 8) (size 9 to 14) (size 15 to 20)
#    0.000    0.000    5.000    6.000    2.333    1.333 
#    3.000    0.000    0.000    0.000    0.000    0.000 
#    0.000    0.000    0.000    0.000    0.000    0.000 
#
# Total GULP energy -134238.330923 kJ/mol
# GULP energy per Si atom -5593.263788 kJ/mol
# Density = 2.273078 g / cm^3
# Si number density = 22.782639 Si / 1000 Ang^3
#
#
#
# Elastic Constant Matrix: (Units=GPa)
#
#
# Indices 1 2 3 4 5 6 
#
# 1 116.0033 3.0096 23.8888 0.0018 2.6587 0.0022
# 2 3.0096 72.2560 5.0793 0.0034 -10.0579 0.0025
# 3 23.8888 5.0793 86.9720 0.0042 7.6761 0.0043
# 4 0.0018 0.0034 0.0042 22.5322 0.0006 -3.2590
# 5 2.6587 -10.0579 7.6761 0.0006 39.4792 0.0018
# 6 0.0022 0.0025 0.0043 -3.2590 0.0018 37.8629
#
#
#
# Elastic Compliance Matrix: (Units=1/GPa)
#
#
# Indices 1 2 3 4 5 6 
#
# 1 0.009142 -0.000233 -0.002480 0.000000 -0.000193 0.000000
# 2 -0.000233 0.014475 -0.001127 -0.000002 0.003923 -0.000001
# 3 -0.002480 -0.001127 0.012470 -0.000002 -0.002545 -0.000001
# 4 0.000000 -0.000002 -0.000002 0.044940 -0.000001 0.003868
# 5 -0.000193 0.003923 -0.002545 -0.000001 0.026837 -0.000001
# 6 0.000000 -0.000001 -0.000001 0.003868 -0.000001 0.026744
#
#
# Mechanical properties :
#
#
# Convention : Reuss Voigt Hill
#
# Bulk Modulus (GPa) = 35.20641 37.68741 36.44691
# Shear Modulus (GPa) = 32.94732 36.19178 34.56955
#
# Velocity S-wave (km/s) = 3.80697 3.99001 3.89956
# Velocity P-wave (km/s) = 5.90006 6.14857 6.02560
#
# Compressibility (1/GPa) = 0.02840391
#
# Stress axis : x y z
#
# Youngs Moduli (GPa) = 109.38896 69.08627 80.19462
#
# Poissons Ratio (x) = 0.01611 0.19891
# Poissons Ratio (y) = 0.02552 0.09042
# Poissons Ratio (z) = 0.27132 0.07789
#
# Static dielectric constant tensor:
#      x y z
#    x 1.887630 0.000000 0.009710 
#    y 0.000000 1.982000 0.000010 
#    z 0.009710 0.000010 1.831710 
# 
# From -- ./inp_files/308851.got.cif
#   From: 2010.05.17/outbox.cif.g08.bks.cpg/sg15_155_cif.got.tgz:308851.got - 2010.06.03 18:47:42.
