data_PCOD9307238
_publ_section_title
;
Structure prediction by ZEFSAII (Michael W. Deem and Ramdas Pophale) SiO2 
 PCOD9307238
Probable space group: C 2/C
;
_chemical_formula_sum "Si O2"
_cell_formula_units_Z 40
_cell_length_a 14.009576
_cell_length_b 16.322732
_cell_length_c 23.069386
_cell_angle_alpha 90.000000
_cell_angle_beta 160.191620
_cell_angle_gamma 90.000000
_cell_volume 1787.697716
_symmetry_space_group_name_H-M "C 2/C"
_symmetry_group_IT_number 15
_symmetry_cell_setting 'monoclinic'
loop_
_space_group_symop_operation_xyz
x,y,z
-x,y,1/2-z
-x,-y,-z
x,-y,1/2+z
1/2+x,1/2+y,z
1/2-x,1/2+y,1/2-z
1/2-x,1/2-y,-z
1/2+x,1/2-y,1/2+z
loop_
_atom_site_type_symbol
_atom_site_label
_atom_site_fract_x
_atom_site_fract_y
_atom_site_fract_z
Si Si1 0.499747 0.405312 0.094376
Si Si2 0.577535 0.048547 0.859108
Si Si3 0.740049 0.069366 0.634114
Si Si4 0.010020 0.739773 0.040375
Si Si5 0.453763 0.701588 0.074290
O O1 0.642719 0.397960 0.238266
O O2 0.395894 0.323412 0.003119
O O3 0.775435 0.442063 0.217949
O O4 0.224673 0.461004 0.945170
O O5 0.500000 0.070196 0.750000
O O6 0.838270 0.110022 0.019313
O O7 0.651931 0.153890 0.553276
O O8 0.000000 0.028337 0.750000
O O9 0.500000 0.000000 0.500000
O O10 0.254284 0.718724 0.226676
O O11 0.068818 0.766162 0.005730
O O12 0.250000 0.750000 0.000000
#
# Coordination Sequence:
#
# PCOD9307238 Si02
#       5
#     8   8   8   8   8
#     4  12  26  47  74 113 149 197 258 311 388 457
#     4  12  24  44  72 109 151 194 246 314 382 455
#     4  12  28  53  77 110 153 204 258 317 388 460
#     4  12  25  46  75 109 151 195 255 319 376 460
#     4  12  22  43  73 107 149 196 255 310 374 456
#
# _framework density 22.375147999999999
#
# number of rings (size 3 to 8) (size 9 to 14) (size 15 to 20)
#    0.000    0.000    6.000    3.600    0.000    3.200 
#    0.000    0.000    0.000    0.000    0.000    0.000 
#    0.000    0.000    0.000    0.000    0.000    0.000 
#
# Total GULP energy -111461.534644 kJ/mol
# GULP energy per Si atom -5573.076732 kJ/mol
# Density = 2.232422 g / cm^3
# Si number density = 22.375148 Si / 1000 Ang^3
#
#
#
# Elastic Constant Matrix: (Units=GPa)
#
#
# Indices 1 2 3 4 5 6 
#
# 1 107.4931 8.1532 16.5153 0.0038 0.5604 -0.0086
# 2 8.1532 142.2663 44.2530 0.0337 2.6870 -0.0067
# 3 16.5153 44.2530 79.2513 0.1227 -13.8626 -0.0274
# 4 0.0038 0.0337 0.1227 -36.4520 -0.0229 1.5074
# 5 0.5604 2.6870 -13.8626 -0.0229 54.9992 -0.0120
# 6 -0.0086 -0.0067 -0.0274 1.5074 -0.0120 18.3803
#
#
#
# Elastic Compliance Matrix: (Units=1/GPa)
#
#
# Indices 1 2 3 4 5 6 
#
# 1 0.009634 0.000146 -0.002205 -0.000006 -0.000661 0.000001
# 2 0.000146 0.008661 -0.005169 -0.000008 -0.001727 -0.000005
# 3 -0.002205 -0.005169 0.016750 0.000049 0.004497 0.000021
# 4 -0.000006 -0.000008 0.000049 -0.027340 0.000002 0.002242
# 5 -0.000661 -0.001727 0.004497 0.000002 0.019407 0.000018
# 6 0.000001 -0.000005 0.000021 0.002242 0.000018 0.054222
#
#
# Mechanical properties :
#
#
# Convention : Reuss Voigt Hill
#
# Bulk Modulus (GPa) = 48.56645 51.87262 50.21954
# Shear Modulus (GPa) = 48.70797 24.72479 36.71638
#
# Velocity S-wave (km/s) = 4.67076 3.32778 4.05525
# Velocity P-wave (km/s) = 7.13027 6.16433 6.66482
#
# Compressibility (1/GPa) = 0.02059034
#
# Stress axis : x y z
#
# Youngs Moduli (GPa) = 103.79858 115.45814 59.70015
#
# Poissons Ratio (x) = -0.01688 0.13163
# Poissons Ratio (y) = -0.01518 0.30858
# Poissons Ratio (z) = 0.22887 0.59679
#
# Static dielectric constant tensor:
#      x y z
#    x 1.931670 0.000000 0.055000 
#    y 0.000000 1.679590 0.000020 
#    z 0.055000 0.000020 1.833030 
# 
# From -- ./inp_files/274755.got.cif
#   From: 2010.05.17/outbox.cif.g08.bks.cpg/sg15_138_cif.got.tgz:274755.got - 2010.06.03 18:47:42.
