data_PCOD9307773
_publ_section_title
;
Structure prediction by ZEFSAII (Michael W. Deem and Ramdas Pophale) SiO2 
 PCOD9307773
Probable space group: C 2/C
;
_chemical_formula_sum "Si O2"
_cell_formula_units_Z 24
_cell_length_a 10.303402
_cell_length_b 18.385594
_cell_length_c 8.445368
_cell_angle_alpha 90.000000
_cell_angle_beta 44.533140
_cell_angle_gamma 90.000000
_cell_volume 1122.003369
_symmetry_space_group_name_H-M "C 2/C"
_symmetry_group_IT_number 15
_symmetry_cell_setting 'monoclinic'
loop_
_space_group_symop_operation_xyz
x,y,z
-x,y,1/2-z
-x,-y,-z
x,-y,1/2+z
1/2+x,1/2+y,z
1/2-x,1/2+y,1/2-z
1/2-x,1/2-y,-z
1/2+x,1/2-y,1/2+z
loop_
_atom_site_type_symbol
_atom_site_label
_atom_site_fract_x
_atom_site_fract_y
_atom_site_fract_z
Si Si1 0.083826 0.653653 0.848702
Si Si2 0.739171 0.707067 0.336548
Si Si3 0.049285 0.077722 0.888012
O O1 0.194357 0.729686 0.751220
O O2 0.236870 0.595446 0.766035
O O3 0.000000 0.637372 0.750000
O O4 0.926475 0.667260 0.118652
O O5 0.750000 0.750000 0.500000
O O6 0.577629 0.647511 0.458521
O O7 0.000000 0.070640 0.750000
O O8 0.000000 0.000000 0.000000
#
# Coordination Sequence:
#
# PCOD9307773 Si02
#       3
#     8   8   8
#     4  12  26  44  76 111 144 191 252 310 369 448
#     4  12  24  47  79 107 145 199 254 304 374 453
#     4  12  29  48  72 107 154 195 249 314 378 439
#
# _framework density 21.390311000000001
#
# number of rings (size 3 to 8) (size 9 to 14) (size 15 to 20)
#    0.000    0.000    6.667    2.000    4.667    1.333 
#    0.000    0.000    0.000    0.000    0.000    0.000 
#    0.000    0.000    0.000    0.000    0.000    0.000 
#
# Total GULP energy -67024.826254 kJ/mol
# GULP energy per Si atom -5585.402188 kJ/mol
# Density = 2.134163 g / cm^3
# Si number density = 21.390311 Si / 1000 Ang^3
#
#
#
# Elastic Constant Matrix: (Units=GPa)
#
#
# Indices 1 2 3 4 5 6 
#
# 1 197.9671 60.6542 78.9791 0.0000 -10.9073 0.0000
# 2 60.6542 102.5306 47.9741 0.0000 -7.0903 0.0000
# 3 78.9791 47.9741 136.1475 0.0000 -27.8283 0.0000
# 4 0.0000 0.0000 0.0000 71.3488 0.0000 -71.0062
# 5 -10.9073 -7.0903 -27.8283 0.0000 34.1323 0.0000
# 6 0.0000 0.0000 0.0000 -71.0062 0.0000 171.8612
#
#
#
# Elastic Compliance Matrix: (Units=1/GPa)
#
#
# Indices 1 2 3 4 5 6 
#
# 1 0.007197 -0.002725 -0.003432 0.000000 -0.001065 0.000000
# 2 -0.002725 0.012746 -0.003057 0.000000 -0.000715 0.000000
# 3 -0.003432 -0.003057 0.012071 0.000000 0.008110 0.000000
# 4 0.000000 0.000000 0.000000 0.023803 0.000000 0.009834
# 5 -0.001065 -0.000715 0.008110 0.000000 0.035421 0.000000
# 6 0.000000 0.000000 0.000000 0.009834 0.000000 0.009882
#
#
# Mechanical properties :
#
#
# Convention : Reuss Voigt Hill
#
# Bulk Modulus (GPa) = 73.60780 90.20667 81.90724
# Shear Modulus (GPa) = 40.29798 72.07099 56.18449
#
# Velocity S-wave (km/s) = 4.34514 5.81089 5.13063
# Velocity P-wave (km/s) = 7.72400 9.34266 8.57162
#
# Compressibility (1/GPa) = 0.01358552
#
# Stress axis : x y z
#
# Youngs Moduli (GPa) = 138.94769 78.45566 82.84542
#
# Poissons Ratio (x) = 0.21380 0.28435
# Poissons Ratio (y) = 0.37866 0.25323
# Poissons Ratio (z) = 0.47691 0.23981
#
# Static dielectric constant tensor:
#      x y z
#    x 1.786220 0.000000 -0.015090 
#    y 0.000000 1.704250 0.000000 
#    z -0.015090 0.000000 1.814320 
# 
# From -- ./inp_files/22021.got.cif
#   From: 2010.05.17/outbox.cif.g08.bks.cpg/sg15_12_cif.got.tgz:22021.got - 2010.06.03 18:47:42.
