data_PCOD9307656
_publ_section_title
;
Structure prediction by ZEFSAII (Michael W. Deem and Ramdas Pophale) SiO2 
 PCOD9307656
Probable space group: C 2/C
;
_chemical_formula_sum "Si O2"
_cell_formula_units_Z 32
_cell_length_a 15.526289
_cell_length_b 20.869643
_cell_length_c 9.267325
_cell_angle_alpha 90.000000
_cell_angle_beta 25.327988
_cell_angle_gamma 90.000000
_cell_volume 1284.627730
_symmetry_space_group_name_H-M "C 2/C"
_symmetry_group_IT_number 15
_symmetry_cell_setting 'monoclinic'
loop_
_space_group_symop_operation_xyz
x,y,z
-x,y,1/2-z
-x,-y,-z
x,-y,1/2+z
1/2+x,1/2+y,z
1/2-x,1/2+y,1/2-z
1/2-x,1/2-y,-z
1/2+x,1/2-y,1/2+z
loop_
_atom_site_type_symbol
_atom_site_label
_atom_site_fract_x
_atom_site_fract_y
_atom_site_fract_z
Si Si1 0.090937 0.342303 0.772284
Si Si2 0.896077 0.445710 0.252149
Si Si3 0.432409 0.284250 0.633390
Si Si4 0.000000 0.107248 0.250000
Si Si5 0.000000 0.853960 0.250000
O O1 0.305268 0.378903 0.459377
O O2 0.000000 0.345329 0.750000
O O3 0.949913 0.378685 0.097167
O O4 0.079843 0.269615 0.845972
O O5 0.656640 0.440762 0.592647
O O6 0.000000 0.449303 0.250000
O O7 0.000000 0.500000 0.000000
O O8 0.541881 0.338635 0.562788
O O9 0.378222 0.319963 0.566550
O O10 0.250000 0.250000 0.000000
#
# Coordination Sequence:
#
# PCOD9307656 Si02
#       5
#     8   8   8   4   4
#     4  12  26  47  72 113 161 204 258 320 396 482
#     4  12  29  52  79 111 153 212 279 336 395 479
#     4  12  24  44  75 113 161 207 248 321 403 479
#     4  12  26  49  82 116 159 212 264 334 412 476
#     4  12  26  41  68 110 155 204 248 304 398 472
#
# _framework density 24.909942000000001
#
# number of rings (size 3 to 8) (size 9 to 14) (size 15 to 20)
#    0.000    0.000    3.750    6.000    1.750    2.000 
#    0.000    0.000    0.000    0.000    0.000    0.000 
#    0.000    0.000    0.000    0.000    0.000    0.000 
#
# Total GULP energy -89130.803883 kJ/mol
# GULP energy per Si atom -5570.675243 kJ/mol
# Density = 2.485325 g / cm^3
# Si number density = 24.909942 Si / 1000 Ang^3
#
#
#
# Elastic Constant Matrix: (Units=GPa)
#
#
# Indices 1 2 3 4 5 6 
#
# 1 259.0586 43.3460 53.4519 -0.0131 -0.8404 0.0105
# 2 43.3460 84.5120 -1.5601 -0.0156 5.9225 -0.0024
# 3 53.4519 -1.5601 85.5577 -0.0556 1.2233 -0.0072
# 4 -0.0131 -0.0156 -0.0556 27.9241 0.0056 11.3412
# 5 -0.8404 5.9225 1.2233 0.0056 64.8341 -0.0003
# 6 0.0105 -0.0024 -0.0072 11.3412 -0.0003 5.1953
#
#
#
# Elastic Compliance Matrix: (Units=1/GPa)
#
#
# Indices 1 2 3 4 5 6 
#
# 1 0.004949 -0.002622 -0.003145 0.000008 0.000363 -0.000032
# 2 -0.002622 0.013302 0.001899 0.000040 -0.001285 -0.000073
# 3 -0.003145 0.001899 0.013694 0.000144 -0.000473 -0.000287
# 4 0.000008 0.000040 0.000144 0.315814 -0.000036 -0.689414
# 5 0.000363 -0.001285 -0.000473 -0.000036 0.015555 0.000078
# 6 -0.000032 -0.000073 -0.000287 -0.689414 0.000078 1.697458
#
#
# Mechanical properties :
#
#
# Convention : Reuss Voigt Hill
#
# Bulk Modulus (GPa) = 41.30494 68.84485 55.07490
# Shear Modulus (GPa) = 2.40781 41.85007 22.12894
#
# Velocity S-wave (km/s) = 0.98423 4.10329 2.98377
# Velocity P-wave (km/s) = 4.23194 7.08144 5.83336
#
# Compressibility (1/GPa) = 0.02421018
#
# Stress axis : x y z
#
# Youngs Moduli (GPa) = 202.06737 75.17421 73.02386
#
# Poissons Ratio (x) = 0.19709 0.22964
# Poissons Ratio (y) = 0.52977 -0.13866
# Poissons Ratio (z) = 0.63545 -0.14275
#
# Static dielectric constant tensor:
#      x y z
#    x 2.802940 0.000030 4.776640 
#    y 0.000030 1.944330 0.000200 
#    z 4.776640 0.000200 34.280700 
# 
# From -- ./inp_files/41906.got.cif
#   From: 2010.05.17/outbox.cif.g08.bks.cpg/sg15_21_cif.got.tgz:41906.got - 2010.06.03 18:47:42.
