data_PCOD9307476
_publ_section_title
;
Structure prediction by ZEFSAII (Michael W. Deem and Ramdas Pophale) SiO2 
 PCOD9307476
Probable space group: C 2/C
;
_chemical_formula_sum "Si O2"
_cell_formula_units_Z 56
_cell_length_a 16.276303
_cell_length_b 17.746784
_cell_length_c 8.888353
_cell_angle_alpha 90.000000
_cell_angle_beta 73.516823
_cell_angle_gamma 90.000000
_cell_volume 2461.905847
_symmetry_space_group_name_H-M "C 2/C"
_symmetry_group_IT_number 15
_symmetry_cell_setting 'monoclinic'
loop_
_space_group_symop_operation_xyz
x,y,z
-x,y,1/2-z
-x,-y,-z
x,-y,1/2+z
1/2+x,1/2+y,z
1/2-x,1/2+y,1/2-z
1/2-x,1/2-y,-z
1/2+x,1/2-y,1/2+z
loop_
_atom_site_type_symbol
_atom_site_label
_atom_site_fract_x
_atom_site_fract_y
_atom_site_fract_z
Si Si1 0.331884 0.225234 0.360946
Si Si2 0.407843 0.405122 0.952162
Si Si3 0.136272 0.951012 0.848534
Si Si4 0.336434 0.937410 0.704769
Si Si5 0.255486 0.687434 0.624218
Si Si6 0.400894 0.088369 0.827794
Si Si7 0.043676 0.166814 0.573835
O O1 0.250000 0.250000 0.500000
O O2 0.339471 0.139350 0.302174
O O3 0.312817 0.276912 0.225431
O O4 0.416145 0.252907 0.405654
O O5 0.411554 0.427111 0.777551
O O6 0.409970 0.476878 0.059052
O O7 0.311051 0.378104 0.024208
O O8 0.473236 0.342495 0.980056
O O9 0.235823 0.960776 0.757653
O O10 0.121972 0.885585 0.978981
O O11 0.374064 0.920439 0.518458
O O12 0.384486 0.007828 0.756004
O O13 0.250000 0.750000 0.500000
O O14 0.163225 0.651716 0.708576
O O15 0.500000 0.108924 0.750000
O O16 0.000000 0.138466 0.750000
#
# Coordination Sequence:
#
# PCOD9307476 Si02
#       7
#     8   8   8   8   8   8   8
#     4  12  27  49  79 108 155 204 260 314 394 463
#     4  12  25  45  74 110 156 195 258 310 390 464
#     4  12  23  45  77 109 154 210 250 318 390 473
#     4  12  25  51  79 114 153 210 261 318 387 467
#     4  12  25  51  76 106 156 200 250 322 388 461
#     4  12  28  51  79 115 153 202 268 323 388 459
#     4  12  26  45  70 112 151 199 252 318 381 459
#
# _framework density 22.746604000000001
#
# number of rings (size 3 to 8) (size 9 to 14) (size 15 to 20)
#    0.000    0.000    7.143    2.143    2.000    0.571 
#    5.143    0.000    0.000    0.000    0.000    0.000 
#    0.000    0.000    0.000    0.000    0.000    0.000 
#
# Total GULP energy -156570.416504 kJ/mol
# GULP energy per Si atom -5591.800589 kJ/mol
# Density = 2.269483 g / cm^3
# Si number density = 22.746604 Si / 1000 Ang^3
#
#
#
# Elastic Constant Matrix: (Units=GPa)
#
#
# Indices 1 2 3 4 5 6 
#
# 1 134.1435 45.9765 17.6583 0.0000 -11.9679 0.0000
# 2 45.9765 98.6599 14.0453 0.0000 12.4616 0.0000
# 3 17.6583 14.0453 99.4636 0.0000 1.9987 0.0000
# 4 0.0000 0.0000 0.0000 16.8725 0.0000 31.8262
# 5 -11.9679 12.4616 1.9987 0.0000 42.1710 0.0000
# 6 0.0000 0.0000 0.0000 31.8262 0.0000 6.3149
#
#
#
# Elastic Compliance Matrix: (Units=1/GPa)
#
#
# Indices 1 2 3 4 5 6 
#
# 1 0.009648 -0.004873 -0.001110 0.000000 0.004231 0.000000
# 2 -0.004873 0.013195 -0.000893 0.000000 -0.005240 0.000000
# 3 -0.001110 -0.000893 0.010388 0.000000 -0.000543 0.000000
# 4 0.000000 0.000000 0.000000 -0.006967 0.000000 0.035114
# 5 0.004231 -0.005240 -0.000543 0.000000 0.026488 0.000000
# 6 0.000000 0.000000 0.000000 0.035114 0.000000 -0.018616
#
#
# Mechanical properties :
#
#
# Convention : Reuss Voigt Hill
#
# Bulk Modulus (GPa) = 51.33237 54.18080 52.75659
# Shear Modulus (GPa) = 91.94412 30.04414 60.99413
#
# Velocity S-wave (km/s) = 6.36465 3.63825 5.18390
# Velocity P-wave (km/s) = 8.75373 6.44361 7.68596
#
# Compressibility (1/GPa) = 0.01948088
#
# Stress axis : x y z
#
# Youngs Moduli (GPa) = 103.64557 75.78375 96.26503
#
# Poissons Ratio (x) = 0.36926 0.10684
# Poissons Ratio (y) = 0.50502 0.08596
# Poissons Ratio (z) = 0.11503 0.06767
#
# Static dielectric constant tensor:
#      x y z
#    x 1.879150 0.000000 0.015360 
#    y 0.000000 1.779460 0.000000 
#    z 0.015360 0.000000 1.951100 
# 
# From -- ./inp_files/49027.got.cif
#   From: 2010.05.17/outbox.cif.g08.bks.cpg/sg15_25_cif.got.tgz:49027.got - 2010.06.03 18:47:42.
