data_PCOD9307354
_publ_section_title
;
Structure prediction by ZEFSAII (Michael W. Deem and Ramdas Pophale) SiO2 
 PCOD9307354
Probable space group: C 2/C
;
_chemical_formula_sum "Si O2"
_cell_formula_units_Z 64
_cell_length_a 17.028417
_cell_length_b 12.911000
_cell_length_c 15.402986
_cell_angle_alpha 90.000000
_cell_angle_beta 53.700576
_cell_angle_gamma 90.000000
_cell_volume 2729.220862
_symmetry_space_group_name_H-M "C 2/C"
_symmetry_group_IT_number 15
_symmetry_cell_setting 'monoclinic'
loop_
_space_group_symop_operation_xyz
x,y,z
-x,y,1/2-z
-x,-y,-z
x,-y,1/2+z
1/2+x,1/2+y,z
1/2-x,1/2+y,1/2-z
1/2-x,1/2-y,-z
1/2+x,1/2-y,1/2+z
loop_
_atom_site_type_symbol
_atom_site_label
_atom_site_fract_x
_atom_site_fract_y
_atom_site_fract_z
Si Si1 0.412828 0.932977 0.758783
Si Si2 0.644187 0.465270 0.308589
Si Si3 0.432592 0.997224 0.461275
Si Si4 0.284557 0.238074 0.249950
Si Si5 0.253941 0.631279 0.389422
Si Si6 0.546549 0.404116 0.125253
Si Si7 0.160323 0.275270 0.490995
Si Si8 0.721164 0.534751 0.955551
O O1 0.500000 0.870750 0.750000
O O2 0.483583 0.014216 0.665764
O O3 0.355401 0.855895 0.732284
O O4 0.331162 0.991919 0.868908
O O5 0.667554 0.348584 0.261973
O O6 0.692247 0.547491 0.210438
O O7 0.527923 0.472739 0.381720
O O8 0.682644 0.465042 0.381971
O O9 0.372094 0.105501 0.495038
O O10 0.500000 0.000000 0.500000
O O11 0.355760 0.907217 0.524450
O O12 0.251401 0.229230 0.171457
O O13 0.195004 0.233935 0.374988
O O14 0.289446 0.628504 0.466904
O O15 0.500000 0.405516 0.250000
O O16 0.565379 0.289722 0.078692
O O17 0.653629 0.452195 0.049295
O O18 0.250000 0.250000 0.500000
#
# Coordination Sequence:
#
# PCOD9307354 Si02
#       8
#     8   8   8   8   8   8   8   8
#     4  12  23  41  70 103 138 185 232 300 371 425
#     4  12  25  46  71 103 139 189 237 291 357 431
#     4  12  23  40  68  99 143 188 232 294 372 443
#     4  12  25  43  70 103 144 185 234 296 361 436
#     4  12  24  46  70 102 144 190 235 293 364 429
#     4  12  24  43  72 103 135 185 236 298 366 429
#     4  12  24  43  69 107 149 178 234 312 369 426
#     4  12  25  47  70 100 144 188 238 296 355 431
#
# _framework density 23.449916000000002
#
# number of rings (size 3 to 8) (size 9 to 14) (size 15 to 20)
#    0.000    0.000    7.500    3.375    0.000    1.500 
#    0.000    0.000    0.000    0.000    0.000    0.000 
#    0.000    0.000    0.000    0.000    0.000    0.000 
#
# Total GULP energy -178593.473262 kJ/mol
# GULP energy per Si atom -5581.046039 kJ/mol
# Density = 2.339654 g / cm^3
# Si number density = 23.449916 Si / 1000 Ang^3
#
#
#
# Elastic Constant Matrix: (Units=GPa)
#
#
# Indices 1 2 3 4 5 6 
#
# 1 107.8178 -4.9250 52.8736 0.0000 6.6180 0.0000
# 2 -4.9250 29.3914 14.2728 0.0000 -8.1417 0.0000
# 3 52.8736 14.2728 189.0498 0.0000 -4.0960 0.0000
# 4 0.0000 0.0000 0.0000 33.8421 0.0000 7.2231
# 5 6.6180 -8.1417 -4.0960 0.0000 50.7325 0.0000
# 6 0.0000 0.0000 0.0000 7.2231 0.0000 20.8711
#
#
#
# Elastic Compliance Matrix: (Units=1/GPa)
#
#
# Indices 1 2 3 4 5 6 
#
# 1 0.011155 0.003176 -0.003386 0.000000 -0.001219 0.000000
# 2 0.003176 0.037801 -0.003626 0.000000 0.005359 0.000000
# 3 -0.003386 -0.003626 0.006519 0.000000 0.000386 0.000000
# 4 0.000000 0.000000 0.000000 0.031906 0.000000 -0.011042
# 5 -0.001219 0.005359 0.000386 0.000000 0.020762 0.000000
# 6 0.000000 0.000000 0.000000 -0.011042 0.000000 0.051735
#
#
# Mechanical properties :
#
#
# Convention : Reuss Voigt Hill
#
# Bulk Modulus (GPa) = 20.91921 50.07795 35.49858
# Shear Modulus (GPa) = 27.25035 38.69163 32.97099
#
# Velocity S-wave (km/s) = 3.41261 4.06639 3.75376
# Velocity P-wave (km/s) = 4.94652 6.59158 5.82739
#
# Compressibility (1/GPa) = 0.04780296
#
# Stress axis : x y z
#
# Youngs Moduli (GPa) = 89.64309 26.45416 153.40323
#
# Poissons Ratio (x) = -0.08402 0.51944
# Poissons Ratio (y) = -0.28470 0.55624
# Poissons Ratio (z) = 0.30354 0.09592
#
# Static dielectric constant tensor:
#      x y z
#    x 2.020890 0.000000 0.108220 
#    y 0.000000 2.111500 0.000000 
#    z 0.108220 0.000000 1.974800 
# 
# From -- ./inp_files/162542.got.cif
#   From: 2010.05.17/outbox.cif.g08.bks.cpg/sg15_82_cif.got.tgz:162542.got - 2010.06.03 18:47:42.
