data_PCOD9307765
_publ_section_title
;
Structure prediction by ZEFSAII (Michael W. Deem and Ramdas Pophale) SiO2 
 PCOD9307765
Probable space group: C 2/C
;
_chemical_formula_sum "Si O2"
_cell_formula_units_Z 44
_cell_length_a 21.619601
_cell_length_b 6.864242
_cell_length_c 18.326230
_cell_angle_alpha 90.000000
_cell_angle_beta 52.863431
_cell_angle_gamma 90.000000
_cell_volume 2168.103513
_symmetry_space_group_name_H-M "C 2/C"
_symmetry_group_IT_number 15
_symmetry_cell_setting 'monoclinic'
loop_
_space_group_symop_operation_xyz
x,y,z
-x,y,1/2-z
-x,-y,-z
x,-y,1/2+z
1/2+x,1/2+y,z
1/2-x,1/2+y,1/2-z
1/2-x,1/2-y,-z
1/2+x,1/2-y,1/2+z
loop_
_atom_site_type_symbol
_atom_site_label
_atom_site_fract_x
_atom_site_fract_y
_atom_site_fract_z
Si Si1 0.870646 0.179951 0.701156
Si Si2 0.500000 0.500000 0.500000
Si Si3 0.360811 0.289711 0.509449
Si Si4 0.762590 0.371694 0.417648
Si Si5 0.714450 0.953565 0.838564
Si Si6 0.588995 0.116299 0.181454
O O1 0.841151 0.382366 0.686421
O O2 0.895569 0.225495 0.766066
O O3 0.938803 0.092224 0.604224
O O4 0.795470 0.041644 0.754262
O O5 0.426432 0.404840 0.506724
O O6 0.289723 0.434939 0.543810
O O7 0.393007 0.205920 0.410516
O O8 0.328557 0.112780 0.581307
O O9 0.750000 0.250000 0.500000
O O10 0.734505 0.234861 0.372454
O O11 0.851192 0.439965 0.348974
O O12 0.500000 0.052806 0.250000
#
# Coordination Sequence:
#
# PCOD9307765 Si02
#       6
#     8   4   8   8   8   8
#     4  12  25  47  74 108 147 193 247 305 376 446
#     4  12  26  46  72 112 148 184 244 304 374 434
#     4  12  25  50  77 108 150 193 251 309 366 449
#     4  12  24  47  76 107 143 200 248 300 374 443
#     4  12  25  49  78 101 149 197 253 304 367 458
#     4  12  25  47  74 108 151 194 245 316 371 436
#
# _framework density 20.294235
#
# number of rings (size 3 to 8) (size 9 to 14) (size 15 to 20)
#    0.000    0.000    7.273    3.818    0.000    0.727 
#    9.818    0.000    0.000    0.000    0.000    0.000 
#    0.000    0.000    0.000    0.000    0.000    0.000 
#
# Total GULP energy -122648.700724 kJ/mol
# GULP energy per Si atom -5574.940942 kJ/mol
# Density = 2.024804 g / cm^3
# Si number density = 20.294235 Si / 1000 Ang^3
#
#
#
# Elastic Constant Matrix: (Units=GPa)
#
#
# Indices 1 2 3 4 5 6 
#
# 1 85.0109 15.3525 37.8065 0.0088 -25.0862 -0.0049
# 2 15.3525 49.8386 31.2584 0.0144 -4.7167 -0.0063
# 3 37.8065 31.2584 120.8286 0.0035 -36.8201 -0.0017
# 4 0.0088 0.0144 0.0035 39.6530 -0.0005 -0.0207
# 5 -25.0862 -4.7167 -36.8201 -0.0005 39.8727 0.0019
# 6 -0.0049 -0.0063 -0.0017 -0.0207 0.0019 11.5011
#
#
#
# Elastic Compliance Matrix: (Units=1/GPa)
#
#
# Indices 1 2 3 4 5 6 
#
# 1 0.015325 -0.002938 -0.001674 -0.000002 0.007748 0.000003
# 2 -0.002938 0.024986 -0.007246 -0.000008 -0.005584 0.000012
# 3 -0.001674 -0.007246 0.014045 0.000002 0.011059 -0.000004
# 4 -0.000002 -0.000008 0.000002 0.025219 0.000000 0.000045
# 5 0.007748 -0.005584 0.011059 0.000000 0.039507 -0.000005
# 6 0.000003 0.000012 -0.000004 0.000045 -0.000005 0.086948
#
#
# Mechanical properties :
#
#
# Convention : Reuss Voigt Hill
#
# Bulk Modulus (GPa) = 32.63739 47.16809 39.90274
# Shear Modulus (GPa) = 20.83703 29.62275 25.22989
#
# Velocity S-wave (km/s) = 3.20776 3.82470 3.52974
# Velocity P-wave (km/s) = 5.46230 6.54194 6.02635
#
# Compressibility (1/GPa) = 0.03063971
#
# Stress axis : x y z
#
# Youngs Moduli (GPa) = 65.25449 40.02235 71.20180
#
# Poissons Ratio (x) = 0.11757 0.11918
# Poissons Ratio (y) = 0.19169 0.51596
# Poissons Ratio (z) = 0.10923 0.29002
#
# Static dielectric constant tensor:
#      x y z
#    x 1.713870 0.000000 0.028230 
#    y 0.000000 1.707650 0.000000 
#    z 0.028230 0.000000 1.707980 
# 
# From -- ./inp_files/253942.got.cif
#   From: 2010.05.17/outbox.cif.g08.bks.cpg/sg15_127_cif.got.tgz:253942.got - 2010.06.03 18:47:42.
