data_PCOD9307971
_publ_section_title
;
Structure prediction by ZEFSAII (Michael W. Deem and Ramdas Pophale) SiO2 
 PCOD9307971
Probable space group: C 2/C
;
_chemical_formula_sum "Si O2"
_cell_formula_units_Z 32
_cell_length_a 32.123416
_cell_length_b 4.771652
_cell_length_c 8.196164
_cell_angle_alpha 90.000000
_cell_angle_beta 79.538929
_cell_angle_gamma 90.000000
_cell_volume 1235.440496
_symmetry_space_group_name_H-M "C 2/C"
_symmetry_group_IT_number 15
_symmetry_cell_setting 'monoclinic'
loop_
_space_group_symop_operation_xyz
x,y,z
-x,y,1/2-z
-x,-y,-z
x,-y,1/2+z
1/2+x,1/2+y,z
1/2-x,1/2+y,1/2-z
1/2-x,1/2-y,-z
1/2+x,1/2-y,1/2+z
loop_
_atom_site_type_symbol
_atom_site_label
_atom_site_fract_x
_atom_site_fract_y
_atom_site_fract_z
Si Si1 0.205165 0.153917 0.460328
Si Si2 0.328754 0.130777 0.192414
Si Si3 0.046960 0.903929 0.274655
Si Si4 0.422256 0.072731 0.559301
O O1 0.304090 0.838943 0.193262
O O2 0.173062 0.243757 0.626134
O O3 0.123581 0.569116 0.395084
O O4 0.195848 0.840780 0.411132
O O5 0.250000 0.250000 0.500000
O O6 0.045717 0.681421 0.424805
O O7 0.000000 0.973938 0.250000
O O8 0.071653 0.180457 0.311988
O O9 0.069397 0.730127 0.115259
#
# Coordination Sequence:
#
# PCOD9307971 Si02
#       4
#     8   8   8   8
#     4  12  25  47  73 104 140 184 232 287 351 428
#     4  12  26  45  71 106 141 182 232 291 354 418
#     4  12  25  47  73 104 142 192 242 294 355 426
#     4  12  26  45  71 106 143 186 239 298 355 420
#
# _framework density 25.901689000000001
#
# number of rings (size 3 to 8) (size 9 to 14) (size 15 to 20)
#    0.000    0.000    0.000   10.500    0.000    4.000 
#    0.000    0.000    0.000    0.000    0.000    0.000 
#    0.000    0.000    0.000    0.000    0.000    0.000 
#
# Total GULP energy -89832.465432 kJ/mol
# GULP energy per Si atom -5614.529089 kJ/mol
# Density = 2.584274 g / cm^3
# Si number density = 25.901689 Si / 1000 Ang^3
#
#
#
# Elastic Constant Matrix: (Units=GPa)
#
#
# Indices 1 2 3 4 5 6 
#
# 1 127.6449 40.3452 21.3944 0.0000 2.2873 0.0000
# 2 40.3452 153.6041 28.0808 0.0000 8.0104 0.0000
# 3 21.3944 28.0808 100.5588 0.0000 -5.9075 0.0000
# 4 0.0000 0.0000 0.0000 13.8870 0.0000 -4.3826
# 5 2.2873 8.0104 -5.9075 0.0000 39.4956 0.0000
# 6 0.0000 0.0000 0.0000 -4.3826 0.0000 41.0684
#
#
#
# Elastic Compliance Matrix: (Units=1/GPa)
#
#
# Indices 1 2 3 4 5 6 
#
# 1 0.008700 -0.002032 -0.001300 0.000000 -0.000286 0.000000
# 2 -0.002032 0.007449 -0.001745 0.000000 -0.001654 0.000000
# 3 -0.001300 -0.001745 0.010829 0.000000 0.002049 0.000000
# 4 0.000000 0.000000 0.000000 0.074520 0.000000 0.007952
# 5 -0.000286 -0.001654 0.002049 0.000000 0.025978 0.000000
# 6 0.000000 0.000000 0.000000 0.007952 0.000000 0.025198
#
#
# Mechanical properties :
#
#
# Convention : Reuss Voigt Hill
#
# Bulk Modulus (GPa) = 59.44387 62.38316 60.91352
# Shear Modulus (GPa) = 29.68486 38.35604 34.02045
#
# Velocity S-wave (km/s) = 3.38902 3.85233 3.62808
# Velocity P-wave (km/s) = 6.18980 6.62753 6.41240
#
# Compressibility (1/GPa) = 0.01682259
#
# Stress axis : x y z
#
# Youngs Moduli (GPa) = 114.94687 134.24010 92.34727
#
# Poissons Ratio (x) = 0.27283 0.12007
# Poissons Ratio (y) = 0.23362 0.16114
# Poissons Ratio (z) = 0.14945 0.23425
#
# Static dielectric constant tensor:
#      x y z
#    x 2.027260 0.000000 -0.004200 
#    y 0.000000 1.969410 0.000000 
#    z -0.004200 0.000000 2.098380 
# 
# From -- ./inp_files/68014.got.cif
#   From: 2010.05.17/outbox.cif.g08.bks.cpg/sg15_35_cif.got.tgz:68014.got - 2010.06.03 18:47:42.
