data_PCOD9307627
_publ_section_title
;
Structure prediction by ZEFSAII (Michael W. Deem and Ramdas Pophale) SiO2 
 PCOD9307627
Probable space group: C 2/C
;
_chemical_formula_sum "Si O2"
_cell_formula_units_Z 40
_cell_length_a 27.040514
_cell_length_b 7.600412
_cell_length_c 9.902981
_cell_angle_alpha 90.000000
_cell_angle_beta 69.655706
_cell_angle_gamma 90.000000
_cell_volume 1908.293157
_symmetry_space_group_name_H-M "C 2/C"
_symmetry_group_IT_number 15
_symmetry_cell_setting 'monoclinic'
loop_
_space_group_symop_operation_xyz
x,y,z
-x,y,1/2-z
-x,-y,-z
x,-y,1/2+z
1/2+x,1/2+y,z
1/2-x,1/2+y,1/2-z
1/2-x,1/2-y,-z
1/2+x,1/2-y,1/2+z
loop_
_atom_site_type_symbol
_atom_site_label
_atom_site_fract_x
_atom_site_fract_y
_atom_site_fract_z
Si Si1 0.222557 0.201272 0.886228
Si Si2 0.905872 0.664099 0.368630
Si Si3 0.107942 0.334483 0.938944
Si Si4 0.536297 0.481626 0.596126
Si Si5 0.707476 0.293595 0.927081
O O1 0.171413 0.319243 0.899171
O O2 0.268216 0.215848 0.731978
O O3 0.203168 0.001701 0.911741
O O4 0.250000 0.250000 0.000000
O O5 0.916411 0.488057 0.444537
O O6 0.904988 0.638091 0.207450
O O7 0.847570 0.718483 0.472230
O O8 0.942465 0.828718 0.374783
O O9 0.082926 0.151177 0.013105
O O10 0.500000 0.406769 0.750000
O O11 0.500000 0.500000 0.500000
O O12 0.750000 0.250000 0.000000
#
# Coordination Sequence:
#
# PCOD9307627 Si02
#       5
#     8   8   8   8   8
#     4  12  26  42  71 105 149 197 242 300 367 443
#     4  12  28  48  75 110 154 194 251 308 371 449
#     4  12  28  49  74 111 151 197 249 310 372 446
#     4  12  28  52  81 109 145 197 255 314 376 432
#     4  12  24  44  67 105 148 193 246 293 364 445
#
# _framework density 20.96114
#
# number of rings (size 3 to 8) (size 9 to 14) (size 15 to 20)
#    0.000    0.000    6.000    3.600    5.600    1.600 
#    0.000    0.000    0.000    0.000    0.000    0.000 
#    0.000    0.000    0.000    0.000    0.000    0.000 
#
# Total GULP energy -111963.677090 kJ/mol
# GULP energy per Si atom -5598.183854 kJ/mol
# Density = 2.091343 g / cm^3
# Si number density = 20.961140 Si / 1000 Ang^3
#
#
#
# Elastic Constant Matrix: (Units=GPa)
#
#
# Indices 1 2 3 4 5 6 
#
# 1 99.1532 20.9441 52.0332 0.0000 8.2151 0.0000
# 2 20.9441 128.9356 42.4518 0.0000 11.9525 0.0000
# 3 52.0332 42.4518 191.1385 0.0000 22.5544 0.0000
# 4 0.0000 0.0000 0.0000 37.1365 0.0000 -2.1672
# 5 8.2151 11.9525 22.5544 0.0000 41.6814 0.0000
# 6 0.0000 0.0000 0.0000 -2.1672 0.0000 28.8107
#
#
#
# Elastic Compliance Matrix: (Units=1/GPa)
#
#
# Indices 1 2 3 4 5 6 
#
# 1 0.011878 -0.000906 -0.002977 0.000000 -0.000471 0.000000
# 2 -0.000906 0.008524 -0.001473 0.000000 -0.001469 0.000000
# 3 -0.002977 -0.001473 0.006677 0.000000 -0.002604 0.000000
# 4 0.000000 0.000000 0.000000 0.027046 0.000000 0.002035
# 5 -0.000471 -0.001469 -0.002604 0.000000 0.025914 0.000000
# 6 0.000000 0.000000 0.000000 0.002035 0.000000 0.034862
#
#
# Mechanical properties :
#
#
# Convention : Reuss Voigt Hill
#
# Bulk Modulus (GPa) = 61.09877 72.23173 66.66525
# Shear Modulus (GPa) = 38.14783 41.77894 39.96338
#
# Velocity S-wave (km/s) = 4.27069 4.46933 4.37114
# Velocity P-wave (km/s) = 7.31644 7.82099 7.57292
#
# Compressibility (1/GPa) = 0.01636694
#
# Stress axis : x y z
#
# Youngs Moduli (GPa) = 84.19027 117.31344 149.77599
#
# Poissons Ratio (x) = 0.10625 0.44585
# Poissons Ratio (y) = 0.07625 0.22068
# Poissons Ratio (z) = 0.25062 0.17285
#
# Static dielectric constant tensor:
#      x y z
#    x 1.734500 0.000000 -0.014190 
#    y 0.000000 1.739630 0.000000 
#    z -0.014190 0.000000 1.646090 
# 
# From -- ./inp_files/59903.got.cif
#   From: 2010.05.17/outbox.cif.g08.bks.cpg/sg15_30_cif.got.tgz:59903.got - 2010.06.03 18:47:42.
