data_PCOD9307748
_publ_section_title
;
Structure prediction by ZEFSAII (Michael W. Deem and Ramdas Pophale) SiO2 
 PCOD9307748
Probable space group: C 2/C
;
_chemical_formula_sum "Si O2"
_cell_formula_units_Z 40
_cell_length_a 22.843129
_cell_length_b 6.406741
_cell_length_c 18.828100
_cell_angle_alpha 90.000000
_cell_angle_beta 141.863094
_cell_angle_gamma 90.000000
_cell_volume 1701.634193
_symmetry_space_group_name_H-M "C 2/C"
_symmetry_group_IT_number 15
_symmetry_cell_setting 'monoclinic'
loop_
_space_group_symop_operation_xyz
x,y,z
-x,y,1/2-z
-x,-y,-z
x,-y,1/2+z
1/2+x,1/2+y,z
1/2-x,1/2+y,1/2-z
1/2-x,1/2-y,-z
1/2+x,1/2-y,1/2+z
loop_
_atom_site_type_symbol
_atom_site_label
_atom_site_fract_x
_atom_site_fract_y
_atom_site_fract_z
Si Si1 0.070580 0.876030 0.619562
Si Si2 0.669103 0.687093 0.076825
Si Si3 0.902154 0.928101 0.616261
Si Si4 0.030836 0.527641 0.883495
Si Si5 0.865726 0.202772 0.701513
O O1 0.158109 0.828821 0.650692
O O2 0.023794 0.674498 0.611711
O O3 0.100911 0.028293 0.710979
O O4 0.000000 0.000000 0.500000
O O5 0.775450 0.689926 0.150833
O O6 0.617166 0.507050 0.981371
O O7 0.610390 0.891090 0.997764
O O8 0.913242 0.679949 0.617905
O O9 0.000000 0.983961 0.750000
O O10 0.835314 0.068825 0.602722
O O11 0.950502 0.371829 0.775815
#
# Coordination Sequence:
#
# PCOD9307748 Si02
#       5
#     8   8   8   8   8
#     4  12  24  47  70 110 146 194 253 296 366 448
#     4  12  28  46  75 109 151 191 250 307 367 442
#     4  12  24  50  71 106 145 193 250 300 365 451
#     4  12  25  46  78  96 152 196 243 304 381 421
#     4  12  29  46  75 113 145 196 249 307 370 440
#
# _framework density 23.506816000000001
#
# number of rings (size 3 to 8) (size 9 to 14) (size 15 to 20)
#    0.000    0.000    8.000    1.200    5.600    2.400 
#    0.000    0.000    0.000    0.000    0.000    0.000 
#    0.000    0.000    0.000    0.000    0.000    0.000 
#
# Total GULP energy -111753.739181 kJ/mol
# GULP energy per Si atom -5587.686959 kJ/mol
# Density = 2.345331 g / cm^3
# Si number density = 23.506816 Si / 1000 Ang^3
#
#
#
# Elastic Constant Matrix: (Units=GPa)
#
#
# Indices 1 2 3 4 5 6 
#
# 1 103.0911 31.9549 12.8578 0.0000 -19.9838 0.0000
# 2 31.9549 134.3438 23.5099 -0.0005 -17.8807 0.0002
# 3 12.8578 23.5099 42.4861 -0.0002 -5.9970 0.0000
# 4 0.0000 -0.0005 -0.0002 19.2369 -0.0001 -14.2562
# 5 -19.9838 -17.8807 -5.9970 -0.0001 41.0039 0.0000
# 6 0.0000 0.0002 0.0000 -14.2562 0.0000 44.6370
#
#
#
# Elastic Compliance Matrix: (Units=1/GPa)
#
#
# Indices 1 2 3 4 5 6 
#
# 1 0.011350 -0.001785 -0.001814 0.000000 0.004488 0.000000
# 2 -0.001785 0.008897 -0.004042 0.000000 0.002419 0.000000
# 3 -0.001814 -0.004042 0.026496 0.000000 0.001229 0.000000
# 4 0.000000 0.000000 0.000000 0.068102 0.000000 0.021751
# 5 0.004488 0.002419 0.001229 0.000000 0.027810 0.000000
# 6 0.000000 0.000000 0.000000 0.021751 0.000000 0.029350
#
#
# Mechanical properties :
#
#
# Convention : Reuss Voigt Hill
#
# Bulk Modulus (GPa) = 31.78413 46.28511 39.03462
# Shear Modulus (GPa) = 25.28154 35.08213 30.18183
#
# Velocity S-wave (km/s) = 3.28304 3.86738 3.58713
# Velocity P-wave (km/s) = 5.28410 6.29881 5.81364
#
# Compressibility (1/GPa) = 0.03146224
#
# Stress axis : x y z
#
# Youngs Moduli (GPa) = 88.10916 112.39245 37.74157
#
# Poissons Ratio (x) = 0.20061 0.06845
# Poissons Ratio (y) = 0.15727 0.15254
# Poissons Ratio (z) = 0.15980 0.45427
#
# Static dielectric constant tensor:
#      x y z
#    x 2.092350 0.000000 0.033520 
#    y 0.000000 1.888940 0.000000 
#    z 0.033520 0.000000 1.857680 
# 
# From -- ./inp_files/254522.got.cif
#   From: 2010.05.17/outbox.cif.g08.bks.cpg/sg15_128_cif.got.tgz:254522.got - 2010.06.03 18:47:42.
