data_PCOD9307301
_publ_section_title
;
Structure prediction by ZEFSAII (Michael W. Deem and Ramdas Pophale) SiO2 
 PCOD9307301
Probable space group: C 2/C
;
_chemical_formula_sum "Si O2"
_cell_formula_units_Z 32
_cell_length_a 11.216926
_cell_length_b 13.078217
_cell_length_c 9.719440
_cell_angle_alpha 90.000000
_cell_angle_beta 69.352452
_cell_angle_gamma 90.000000
_cell_volume 1334.232360
_symmetry_space_group_name_H-M "C 2/C"
_symmetry_group_IT_number 15
_symmetry_cell_setting 'monoclinic'
loop_
_space_group_symop_operation_xyz
x,y,z
-x,y,1/2-z
-x,-y,-z
x,-y,1/2+z
1/2+x,1/2+y,z
1/2-x,1/2+y,1/2-z
1/2-x,1/2-y,-z
1/2+x,1/2-y,1/2+z
loop_
_atom_site_type_symbol
_atom_site_label
_atom_site_fract_x
_atom_site_fract_y
_atom_site_fract_z
Si Si1 0.380834 0.446904 0.629637
Si Si2 0.500000 0.738892 0.250000
Si Si3 0.717980 0.607241 0.606627
Si Si4 0.500000 0.233488 0.250000
Si Si5 0.495757 0.121518 0.982426
O O1 0.500000 0.500000 0.500000
O O2 0.424164 0.341659 0.683929
O O3 0.330865 0.520311 0.769810
O O4 0.277191 0.432001 0.552019
O O5 0.569958 0.818153 0.116482
O O6 0.612790 0.694897 0.651607
O O7 0.854588 0.645514 0.596857
O O8 0.550363 0.167714 0.355826
O O9 0.500000 0.000000 0.000000
#
# Coordination Sequence:
#
# PCOD9307301 Si02
#       5
#     8   4   8   4   8
#     4  12  22  46  75 113 138 184 248 306 357 437
#     4  12  24  46  72 102 144 188 248 288 362 436
#     4  12  26  46  78 105 148 186 243 308 364 431
#     4  12  24  50  72 100 142 194 244 294 362 434
#     4  12  30  48  67 106 152 196 239 301 365 432
#
# _framework density 23.983827000000002
#
# number of rings (size 3 to 8) (size 9 to 14) (size 15 to 20)
#    0.000    0.000    7.500    1.500    7.000    0.000 
#    0.000    3.750    0.000    0.000    0.000    0.000 
#    0.000    0.000    0.000    0.000    0.000    0.000 
#
# Total GULP energy -89566.044594 kJ/mol
# GULP energy per Si atom -5597.877787 kJ/mol
# Density = 2.392924 g / cm^3
# Si number density = 23.983827 Si / 1000 Ang^3
#
#
#
# Elastic Constant Matrix: (Units=GPa)
#
#
# Indices 1 2 3 4 5 6 
#
# 1 53.7560 8.3114 9.7448 0.0000 4.3649 0.0000
# 2 8.3114 179.2213 82.1382 0.0000 21.1396 0.0000
# 3 9.7448 82.1382 170.3279 0.0000 44.3697 0.0000
# 4 0.0000 0.0000 0.0000 44.8214 0.0000 9.0044
# 5 4.3649 21.1396 44.3697 0.0000 43.2165 0.0000
# 6 0.0000 0.0000 0.0000 9.0044 0.0000 18.6417
#
#
#
# Elastic Compliance Matrix: (Units=1/GPa)
#
#
# Indices 1 2 3 4 5 6 
#
# 1 0.018868 -0.000490 -0.000559 0.000000 -0.001093 0.000000
# 2 -0.000490 0.007176 -0.003455 0.000000 0.000087 0.000000
# 3 -0.000559 -0.003455 0.009711 0.000000 -0.008224 0.000000
# 4 0.000000 0.000000 0.000000 0.024708 0.000000 -0.011935
# 5 -0.001093 0.000087 -0.008224 0.000000 0.031651 0.000000
# 6 0.000000 0.000000 0.000000 -0.011935 0.000000 0.059408
#
#
# Mechanical properties :
#
#
# Convention : Reuss Voigt Hill
#
# Bulk Modulus (GPa) = 37.38560 67.07709 52.23135
# Shear Modulus (GPa) = 29.50796 41.54331 35.52563
#
# Velocity S-wave (km/s) = 3.51141 4.16641 3.85285
# Velocity P-wave (km/s) = 5.66230 7.15358 6.45118
#
# Compressibility (1/GPa) = 0.02674826
#
# Stress axis : x y z
#
# Youngs Moduli (GPa) = 52.99885 139.36147 102.97197
#
# Poissons Ratio (x) = 0.06831 0.05751
# Poissons Ratio (y) = 0.02598 0.35575
# Poissons Ratio (z) = 0.02960 0.48147
#
# Static dielectric constant tensor:
#      x y z
#    x 1.943380 0.000000 0.041140 
#    y 0.000000 1.933580 0.000000 
#    z 0.041140 0.000000 1.939730 
# 
# From -- ./inp_files/27944.got.cif
#   From: 2010.05.17/outbox.cif.g08.bks.cpg/sg15_14_cif.got.tgz:27944.got - 2010.06.03 18:47:42.
