data_PCOD9307206
_publ_section_title
;
Structure prediction by ZEFSAII (Michael W. Deem and Ramdas Pophale) SiO2 
 PCOD9307206
Probable space group: C 2/C
;
_chemical_formula_sum "Si O2"
_cell_formula_units_Z 52
_cell_length_a 28.709227
_cell_length_b 13.878589
_cell_length_c 8.543020
_cell_angle_alpha 90.000000
_cell_angle_beta 137.988782
_cell_angle_gamma 90.000000
_cell_volume 2278.156474
_symmetry_space_group_name_H-M "C 2/C"
_symmetry_group_IT_number 15
_symmetry_cell_setting 'monoclinic'
loop_
_space_group_symop_operation_xyz
x,y,z
-x,y,1/2-z
-x,-y,-z
x,-y,1/2+z
1/2+x,1/2+y,z
1/2-x,1/2+y,1/2-z
1/2-x,1/2-y,-z
1/2+x,1/2-y,1/2+z
loop_
_atom_site_type_symbol
_atom_site_label
_atom_site_fract_x
_atom_site_fract_y
_atom_site_fract_z
Si Si1 0.372005 0.821827 0.116037
Si Si2 0.954003 0.098436 0.882567
Si Si3 0.500000 0.246831 0.750000
Si Si4 0.820824 0.008346 0.085591
Si Si5 0.779485 0.510082 0.918065
Si Si6 0.235984 0.272777 0.147076
Si Si7 0.878657 0.812251 0.911434
O O1 0.434452 0.814824 0.147085
O O2 0.394965 0.781159 0.344415
O O3 0.310661 0.749712 0.908388
O O4 0.335075 0.926595 0.028805
O O5 0.936711 0.141238 0.668751
O O6 0.878605 0.070536 0.764301
O O7 0.984500 0.181350 0.067213
O O8 0.000000 0.000000 0.000000
O O9 0.853706 0.107050 0.226138
O O10 0.742968 0.995417 0.956780
O O11 0.799392 0.001027 0.850676
O O12 0.795866 0.620208 0.922894
O O13 0.183549 0.212486 0.123881
O O14 0.250000 0.250000 0.000000
#
# Coordination Sequence:
#
# PCOD9307206 Si02
#       7
#     8   8   4   8   8   8   8
#     4  12  25  46  71 108 150 200 255 310 373 451
#     4  12  26  45  70 109 150 196 243 307 389 467
#     4  12  28  46  70 102 156 200 244 306 376 458
#     4  12  22  42  67 106 145 182 245 301 379 438
#     4  12  24  41  73 107 142 195 250 312 363 437
#     4  12  24  44  75 109 150 190 252 319 375 436
#     4  12  24  45  72 109 146 193 241 313 383 444
#
# _framework density 22.825472999999999
#
# number of rings (size 3 to 8) (size 9 to 14) (size 15 to 20)
#    0.000    0.000    4.615    6.923    0.000    1.846 
#    0.000    0.000    0.000   16.615    0.000    0.000 
#    0.000    0.000    0.000    0.000    0.000    0.000 
#
# Total GULP energy -145190.808351 kJ/mol
# GULP energy per Si atom -5584.261860 kJ/mol
# Density = 2.277352 g / cm^3
# Si number density = 22.825473 Si / 1000 Ang^3
#
#
#
# Elastic Constant Matrix: (Units=GPa)
#
#
# Indices 1 2 3 4 5 6 
#
# 1 147.0509 54.8029 44.9516 0.0000 30.0333 0.0000
# 2 54.8029 155.1204 56.1901 0.0000 0.1897 0.0000
# 3 44.9516 56.1901 101.3306 0.0000 -2.9457 0.0000
# 4 0.0000 0.0000 0.0000 33.9300 0.0000 -4.0166
# 5 30.0333 0.1897 -2.9457 0.0000 28.2607 0.0000
# 6 0.0000 0.0000 0.0000 -4.0166 0.0000 33.8157
#
#
#
# Elastic Compliance Matrix: (Units=1/GPa)
#
#
# Indices 1 2 3 4 5 6 
#
# 1 0.011630 -0.002615 -0.004080 0.000000 -0.012767 0.000000
# 2 -0.002615 0.008663 -0.003575 0.000000 0.002348 0.000000
# 3 -0.004080 -0.003575 0.013830 0.000000 0.005802 0.000000
# 4 0.000000 0.000000 0.000000 0.029893 0.000000 0.003551
# 5 -0.012767 0.002348 0.005802 0.000000 0.049541 0.000000
# 6 0.000000 0.000000 0.000000 0.003551 0.000000 0.029994
#
#
# Mechanical properties :
#
#
# Convention : Reuss Voigt Hill
#
# Bulk Modulus (GPa) = 73.63066 79.48793 76.55929
# Shear Modulus (GPa) = 29.65274 35.70508 32.67891
#
# Velocity S-wave (km/s) = 3.60822 3.95937 3.78787
# Velocity P-wave (km/s) = 7.04891 7.47007 7.26255
#
# Compressibility (1/GPa) = 0.01358130
#
# Stress axis : x y z
#
# Youngs Moduli (GPa) = 85.98703 115.43680 72.30710
#
# Poissons Ratio (x) = 0.30188 0.29502
# Poissons Ratio (y) = 0.22487 0.25852
# Poissons Ratio (z) = 0.35083 0.41272
#
# Static dielectric constant tensor:
#      x y z
#    x 1.866250 0.000000 -0.025750 
#    y 0.000000 1.870810 0.000000 
#    z -0.025750 0.000000 1.881880 
# 
# From -- ./inp_files/70180.got.cif
#   From: 2010.05.17/outbox.cif.g08.bks.cpg/sg15_36_cif.got.tgz:70180.got - 2010.06.03 18:47:42.
