data_PCOD9307479
_publ_section_title
;
Structure prediction by ZEFSAII (Michael W. Deem and Ramdas Pophale) SiO2 
 PCOD9307479
Probable space group: C 2/C
;
_chemical_formula_sum "Si O2"
_cell_formula_units_Z 44
_cell_length_a 30.572650
_cell_length_b 5.031103
_cell_length_c 15.266353
_cell_angle_alpha 90.000000
_cell_angle_beta 123.948684
_cell_angle_gamma 90.000000
_cell_volume 1947.905645
_symmetry_space_group_name_H-M "C 2/C"
_symmetry_group_IT_number 15
_symmetry_cell_setting 'monoclinic'
loop_
_space_group_symop_operation_xyz
x,y,z
-x,y,1/2-z
-x,-y,-z
x,-y,1/2+z
1/2+x,1/2+y,z
1/2-x,1/2+y,1/2-z
1/2-x,1/2-y,-z
1/2+x,1/2-y,1/2+z
loop_
_atom_site_type_symbol
_atom_site_label
_atom_site_fract_x
_atom_site_fract_y
_atom_site_fract_z
Si Si1 0.026914 0.260204 0.980149
Si Si2 0.740666 0.112301 0.784311
Si Si3 0.000000 0.835935 0.250000
Si Si4 0.603735 0.487913 0.776929
Si Si5 0.881492 0.499554 0.820111
Si Si6 0.783807 0.996885 0.007861
O O1 0.014693 0.281726 0.862874
O O2 0.088081 0.347403 0.066744
O O3 0.000000 0.500000 0.000000
O O4 0.000000 0.000000 0.000000
O O5 0.756141 0.929466 0.719108
O O6 0.681268 0.024320 0.739329
O O7 0.782690 0.016581 0.902448
O O8 0.053854 0.981105 0.283650
O O9 0.602532 0.188726 0.741828
O O10 0.658525 0.523311 0.888250
O O11 0.603873 0.701717 0.696105
O O12 0.750000 0.250000 0.000000
O O13 0.750000 0.750000 0.000000
#
# Coordination Sequence:
#
# PCOD9307479 Si02
#       6
#     8   8   4   8   8   8
#     4  12  26  49  73 105 147 196 250 319 375 443
#     4  12  26  43  68 106 145 189 247 312 380 458
#     4  12  28  48  76 112 152 202 274 300 390 466
#     4  12  25  46  74 105 144 200 248 315 373 459
#     4  12  24  49  70 101 149 193 245 311 395 433
#     4  12  23  46  71 100 139 191 246 300 381 446
#
# _framework density 22.588363000000001
#
# number of rings (size 3 to 8) (size 9 to 14) (size 15 to 20)
#    0.000    0.000    7.273    2.182    2.545    2.909 
#    0.000    0.000    0.000    0.000    0.000    0.000 
#    0.000    0.000    0.000    0.000    0.000    0.000 
#
# Total GULP energy -122723.298985 kJ/mol
# GULP energy per Si atom -5578.331772 kJ/mol
# Density = 2.253695 g / cm^3
# Si number density = 22.588363 Si / 1000 Ang^3
#
#
#
# Elastic Constant Matrix: (Units=GPa)
#
#
# Indices 1 2 3 4 5 6 
#
# 1 102.0264 14.8450 20.9313 0.0000 16.5711 0.0001
# 2 14.8450 121.8814 9.2385 -0.0001 3.2972 0.0002
# 3 20.9313 9.2385 174.9275 -0.0001 13.1589 0.0001
# 4 0.0000 -0.0001 -0.0001 28.1436 0.0000 4.7672
# 5 16.5711 3.2972 13.1589 0.0000 46.4708 0.0000
# 6 0.0001 0.0002 0.0001 4.7672 0.0000 31.6585
#
#
#
# Elastic Compliance Matrix: (Units=1/GPa)
#
#
# Indices 1 2 3 4 5 6 
#
# 1 0.010729 -0.001140 -0.000962 0.000000 -0.003472 0.000000
# 2 -0.001140 0.008369 -0.000298 0.000000 -0.000103 0.000000
# 3 -0.000962 -0.000298 0.005947 0.000000 -0.001320 0.000000
# 4 0.000000 0.000000 0.000000 0.036462 0.000000 -0.005491
# 5 -0.003472 -0.000103 -0.001320 0.000000 0.023138 0.000000
# 6 0.000000 0.000000 0.000000 -0.005491 0.000000 0.032414
#
#
# Mechanical properties :
#
#
# Convention : Reuss Voigt Hill
#
# Bulk Modulus (GPa) = 49.39678 54.31832 51.85755
# Shear Modulus (GPa) = 38.87828 44.84262 41.86045
#
# Velocity S-wave (km/s) = 4.15319 4.46040 4.30954
# Velocity P-wave (km/s) = 6.70182 7.11521 6.91160
#
# Compressibility (1/GPa) = 0.02024423
#
# Stress axis : x y z
#
# Youngs Moduli (GPa) = 93.20836 119.49008 168.15745
#
# Poissons Ratio (x) = 0.13620 0.16183
# Poissons Ratio (y) = 0.10624 0.05009
# Poissons Ratio (z) = 0.08970 0.03559
#
# Static dielectric constant tensor:
#      x y z
#    x 1.872770 0.000000 -0.142930 
#    y 0.000000 1.695970 0.000000 
#    z -0.142930 0.000000 2.505210 
# 
# From -- ./inp_files/175788.got.cif
#   From: 2010.05.17/outbox.cif.g08.bks.cpg/sg15_88_cif.got.tgz:175788.got - 2010.06.03 18:47:42.
