data_PCOD9307122
_publ_section_title
;
Structure prediction by ZEFSAII (Michael W. Deem and Ramdas Pophale) SiO2 
 PCOD9307122
Probable space group: C 2/C
;
_chemical_formula_sum "Si O2"
_cell_formula_units_Z 52
_cell_length_a 18.067809
_cell_length_b 11.003180
_cell_length_c 26.636491
_cell_angle_alpha 90.000000
_cell_angle_beta 27.426310
_cell_angle_gamma 90.000000
_cell_volume 2439.111466
_symmetry_space_group_name_H-M "C 2/C"
_symmetry_group_IT_number 15
_symmetry_cell_setting 'monoclinic'
loop_
_space_group_symop_operation_xyz
x,y,z
-x,y,1/2-z
-x,-y,-z
x,-y,1/2+z
1/2+x,1/2+y,z
1/2-x,1/2+y,1/2-z
1/2-x,1/2-y,-z
1/2+x,1/2-y,1/2+z
loop_
_atom_site_type_symbol
_atom_site_label
_atom_site_fract_x
_atom_site_fract_y
_atom_site_fract_z
Si Si1 0.392529 0.773446 0.041197
Si Si2 0.366974 0.008567 0.988132
Si Si3 0.777992 0.581439 0.704074
Si Si4 0.228132 0.123095 0.982114
Si Si5 0.250555 0.653563 0.348530
Si Si6 0.500000 0.800306 0.250000
Si Si7 0.483843 0.536499 0.951568
O O1 0.301381 0.812206 0.147800
O O2 0.368933 0.881702 0.015756
O O3 0.584158 0.776119 0.938481
O O4 0.357683 0.647460 0.034377
O O5 0.548534 0.059027 0.874924
O O6 0.274379 0.015988 0.992327
O O7 0.274857 0.098375 0.081052
O O8 0.744273 0.458868 0.692481
O O9 0.639237 0.590557 0.828835
O O10 0.357920 0.125953 0.859983
O O11 0.250000 0.250000 0.000000
O O12 0.068132 0.080728 0.049927
O O13 0.414947 0.725879 0.255854
O O14 0.500000 0.500000 0.000000
#
# Coordination Sequence:
#
# PCOD9307122 Si02
#       7
#     8   8   8   8   8   4   8
#     4   9  21  43  66  94 128 178 228 273 329 409
#     4   9  20  41  68  90 129 174 227 272 327 409
#     4   9  21  41  68  92 129 179 217 275 342 388
#     4  12  26  42  65 101 138 176 219 282 339 397
#     4   9  18  38  66  97 121 173 234 264 324 412
#     4  12  22  36  64  94 138 170 212 274 338 388
#     4  12  27  42  63 104 139 169 230 283 330 413
#
# _framework density 21.319237999999999
#
# number of rings (size 3 to 8) (size 9 to 14) (size 15 to 20)
#    0.000    1.846    1.538    3.692    6.462    3.077 
#    0.000    0.000    0.000    0.000    0.000    0.000 
#    0.000    0.000    0.000    0.000    0.000    0.000 
#
# Total GULP energy -144957.369438 kJ/mol
# GULP energy per Si atom -5575.283440 kJ/mol
# Density = 2.127071 g / cm^3
# Si number density = 21.319238 Si / 1000 Ang^3
#
#
#
# Elastic Constant Matrix: (Units=GPa)
#
#
# Indices 1 2 3 4 5 6 
#
# 1 99.4258 23.7411 19.0603 0.0002 13.9483 0.0000
# 2 23.7411 69.8830 21.4968 -0.0001 14.4255 0.0002
# 3 19.0603 21.4968 118.2834 -0.0002 24.0689 0.0006
# 4 0.0002 -0.0001 -0.0002 28.6612 -0.0005 4.2077
# 5 13.9483 14.4255 24.0689 -0.0005 26.9146 -0.0003
# 6 0.0000 0.0002 0.0006 4.2077 -0.0003 23.6117
#
#
#
# Elastic Compliance Matrix: (Units=1/GPa)
#
#
# Indices 1 2 3 4 5 6 
#
# 1 0.011397 -0.002911 -0.000517 0.000000 -0.003884 0.000000
# 2 -0.002911 0.017033 -0.001315 0.000000 -0.006445 0.000000
# 3 -0.000517 -0.001315 0.010487 0.000000 -0.008405 0.000000
# 4 0.000000 0.000000 0.000000 0.035828 0.000001 -0.006385
# 5 -0.003884 -0.006445 -0.008405 0.000001 0.050138 0.000001
# 6 0.000000 0.000000 0.000000 -0.006385 0.000001 0.043490
#
#
# Mechanical properties :
#
#
# Convention : Reuss Voigt Hill
#
# Bulk Modulus (GPa) = 33.97843 46.24319 40.11081
# Shear Modulus (GPa) = 26.64259 30.72378 28.68319
#
# Velocity S-wave (km/s) = 3.53894 3.80034 3.67197
# Velocity P-wave (km/s) = 5.71588 6.40271 6.06902
#
# Compressibility (1/GPa) = 0.02943044
#
# Stress axis : x y z
#
# Youngs Moduli (GPa) = 87.74367 58.70790 95.35647
#
# Poissons Ratio (x) = 0.17090 0.04932
# Poissons Ratio (y) = 0.25543 0.12541
# Poissons Ratio (z) = 0.04538 0.07721
#
# Static dielectric constant tensor:
#      x y z
#    x 1.855070 0.000000 -0.014000 
#    y 0.000000 1.878080 0.000000 
#    z -0.014000 0.000000 1.760230 
# 
# From -- ./inp_files/298858.got.cif
#   From: 2010.05.17/outbox.cif.g08.bks.cpg/sg15_150_cif.got.tgz:298858.got - 2010.06.03 18:47:42.
