data_PCOD9307097
_publ_section_title
;
Structure prediction by ZEFSAII (Michael W. Deem and Ramdas Pophale) SiO2 
 PCOD9307097
Probable space group: C 2/C
;
_chemical_formula_sum "Si O2"
_cell_formula_units_Z 44
_cell_length_a 11.784397
_cell_length_b 15.170004
_cell_length_c 12.328458
_cell_angle_alpha 90.000000
_cell_angle_beta 94.003520
_cell_angle_gamma 90.000000
_cell_volume 2198.572257
_symmetry_space_group_name_H-M "C 2/C"
_symmetry_group_IT_number 15
_symmetry_cell_setting 'monoclinic'
loop_
_space_group_symop_operation_xyz
x,y,z
-x,y,1/2-z
-x,-y,-z
x,-y,1/2+z
1/2+x,1/2+y,z
1/2-x,1/2+y,1/2-z
1/2-x,1/2-y,-z
1/2+x,1/2-y,1/2+z
loop_
_atom_site_type_symbol
_atom_site_label
_atom_site_fract_x
_atom_site_fract_y
_atom_site_fract_z
Si Si1 0.942489 0.092333 0.020647
Si Si2 0.275883 0.160723 0.569504
Si Si3 0.476435 0.101122 0.972931
Si Si4 0.698612 0.807790 0.185326
Si Si5 0.057138 0.240795 0.872609
Si Si6 0.000000 0.176116 0.250000
O O1 0.957519 0.119407 0.146142
O O2 0.808578 0.089378 0.986199
O O3 0.998023 0.168954 0.948349
O O4 0.000000 0.000000 0.000000
O O5 0.250000 0.250000 0.500000
O O6 0.407908 0.138947 0.570773
O O7 0.251071 0.166203 0.694844
O O8 0.371609 0.118443 0.884666
O O9 0.458174 0.162596 0.076635
O O10 0.500000 0.000000 0.000000
O O11 0.808044 0.776876 0.125836
O O12 0.603756 0.734408 0.209262
O O13 0.000000 0.236351 0.750000
#
# Coordination Sequence:
#
# PCOD9307097 Si02
#       6
#     8   8   8   8   8   4
#     4  12  28  45  71 108 139 184 240 288 353 423
#     4  12  21  47  73  96 139 188 233 287 349 427
#     4  12  27  44  69 106 140 186 241 287 352 417
#     4  12  22  44  75  96 142 189 232 288 358 417
#     4  12  25  45  69 104 144 185 234 299 351 412
#     4  12  24  46  76  96 138 194 232 282 358 424
#
# _framework density 20.012989000000001
#
# number of rings (size 3 to 8) (size 9 to 14) (size 15 to 20)
#    0.000    0.000    9.091    0.545    3.818    1.455 
#    0.000    0.000    0.000    0.000    0.000    0.000 
#    0.000    0.000    0.000    0.000    0.000    0.000 
#
# Total GULP energy -122990.611819 kJ/mol
# GULP energy per Si atom -5590.482355 kJ/mol
# Density = 1.996744 g / cm^3
# Si number density = 20.012989 Si / 1000 Ang^3
#
#
#
# Elastic Constant Matrix: (Units=GPa)
#
#
# Indices 1 2 3 4 5 6 
#
# 1 122.6229 24.4597 20.4571 0.0000 0.9471 0.0000
# 2 24.4597 120.4269 44.9804 0.0000 5.5615 0.0000
# 3 20.4571 44.9804 138.8470 0.0000 16.1585 0.0000
# 4 0.0000 0.0000 0.0000 16.4651 0.0000 -2.5093
# 5 0.9471 5.5615 16.1585 0.0000 39.1687 0.0000
# 6 0.0000 0.0000 0.0000 -2.5093 0.0000 29.9714
#
#
#
# Elastic Compliance Matrix: (Units=1/GPa)
#
#
# Indices 1 2 3 4 5 6 
#
# 1 0.008580 -0.001447 -0.000835 0.000000 0.000343 0.000000
# 2 -0.001447 0.009691 -0.002910 0.000000 -0.000141 0.000000
# 3 -0.000835 -0.002910 0.008632 0.000000 -0.003128 0.000000
# 4 0.000000 0.000000 0.000000 0.061519 0.000000 0.005151
# 5 0.000343 -0.000141 -0.003128 0.000000 0.026832 0.000000
# 6 0.000000 0.000000 0.000000 0.005151 0.000000 0.033796
#
#
# Mechanical properties :
#
#
# Convention : Reuss Voigt Hill
#
# Bulk Modulus (GPa) = 60.53488 62.41014 61.47251
# Shear Modulus (GPa) = 30.31370 36.58768 33.45069
#
# Velocity S-wave (km/s) = 3.89614 4.28038 4.09277
# Velocity P-wave (km/s) = 7.11009 7.46200 7.28817
#
# Compressibility (1/GPa) = 0.01651940
#
# Stress axis : x y z
#
# Youngs Moduli (GPa) = 116.54530 103.18873 115.84863
#
# Poissons Ratio (x) = 0.14926 0.09679
# Poissons Ratio (y) = 0.16858 0.33712
# Poissons Ratio (z) = 0.09737 0.30028
#
# Static dielectric constant tensor:
#      x y z
#    x 1.694110 0.000000 0.004460 
#    y 0.000000 1.891950 0.000000 
#    z 0.004460 0.000000 1.765420 
# 
# From -- ./inp_files/86139.got.cif
#   From: 2010.05.17/outbox.cif.g08.bks.cpg/sg15_44_cif.got.tgz:86139.got - 2010.06.03 18:47:42.
