data_PCOD9307681
_publ_section_title
;
Structure prediction by ZEFSAII (Michael W. Deem and Ramdas Pophale) SiO2 
 PCOD9307681
Probable space group: C 2/C
;
_chemical_formula_sum "Si O2"
_cell_formula_units_Z 60
_cell_length_a 26.180572
_cell_length_b 9.058733
_cell_length_c 25.018753
_cell_angle_alpha 90.000000
_cell_angle_beta 28.739358
_cell_angle_gamma 90.000000
_cell_volume 2852.989152
_symmetry_space_group_name_H-M "C 2/C"
_symmetry_group_IT_number 15
_symmetry_cell_setting 'monoclinic'
loop_
_space_group_symop_operation_xyz
x,y,z
-x,y,1/2-z
-x,-y,-z
x,-y,1/2+z
1/2+x,1/2+y,z
1/2-x,1/2+y,1/2-z
1/2-x,1/2-y,-z
1/2+x,1/2-y,1/2+z
loop_
_atom_site_type_symbol
_atom_site_label
_atom_site_fract_x
_atom_site_fract_y
_atom_site_fract_z
Si Si1 0.113290 0.991986 0.021178
Si Si2 0.195113 0.342149 0.096761
Si Si3 0.969139 0.719229 0.172385
Si Si4 0.727833 0.960955 0.814994
Si Si5 0.249188 0.802177 0.816568
Si Si6 0.000000 0.533397 0.250000
Si Si7 0.017119 0.529268 0.546812
Si Si8 0.916657 0.793991 0.696599
O O1 0.161299 0.906677 0.925209
O O2 0.216192 0.051168 0.958266
O O3 0.036427 0.867653 0.116925
O O4 0.031534 0.127939 0.091467
O O5 0.103546 0.433616 0.151459
O O6 0.136552 0.247900 0.197587
O O7 0.250000 0.250000 0.000000
O O8 0.845427 0.730457 0.269599
O O9 0.982796 0.629756 0.213688
O O10 0.016266 0.620191 0.081287
O O11 0.713044 0.892252 0.770028
O O12 0.838974 0.902710 0.735636
O O13 0.718328 0.138407 0.824839
O O14 0.635487 0.903545 0.938887
O O15 0.000000 0.500000 0.500000
O O16 0.933960 0.640738 0.649295
#
# Coordination Sequence:
#
# PCOD9307681 Si02
#       8
#     8   8   8   8   8   4   8   8
#     4  12  27  49  77 107 154 197 253 321 380 453
#     4  12  28  49  77 110 149 198 259 321 384 455
#     4  12  26  48  71 109 152 193 253 311 376 454
#     4  12  27  42  76 106 154 201 245 309 378 455
#     4  12  26  47  69 114 153 198 252 308 377 461
#     4  12  26  48  78 102 148 198 252 324 378 452
#     4  12  24  45  72 105 152 197 238 307 382 445
#     4  12  27  47  75 112 148 200 254 309 382 466
#
# _framework density 21.030573
#
# number of rings (size 3 to 8) (size 9 to 14) (size 15 to 20)
#    0.000    0.000    6.667    2.400    5.600    2.133 
#    0.000    0.000    0.000    0.000    0.000    0.000 
#    0.000    0.000    0.000    0.000    0.000    0.000 
#
# Total GULP energy -167663.070508 kJ/mol
# GULP energy per Si atom -5588.769017 kJ/mol
# Density = 2.098271 g / cm^3
# Si number density = 21.030573 Si / 1000 Ang^3
#
#
#
# Elastic Constant Matrix: (Units=GPa)
#
#
# Indices 1 2 3 4 5 6 
#
# 1 95.1521 47.7118 33.2663 0.0042 -6.0429 0.0015
# 2 47.7118 131.4973 56.2264 0.0055 13.8465 0.0022
# 3 33.2663 56.2264 108.0954 0.0042 1.3554 0.0015
# 4 0.0042 0.0055 0.0042 52.3624 -0.0006 -4.6143
# 5 -6.0429 13.8465 1.3554 -0.0006 46.5826 0.0000
# 6 0.0015 0.0022 0.0015 -4.6143 0.0000 52.7313
#
#
#
# Elastic Compliance Matrix: (Units=1/GPa)
#
#
# Indices 1 2 3 4 5 6 
#
# 1 0.013610 -0.004452 -0.001912 0.000000 0.003144 0.000000
# 2 -0.004452 0.011604 -0.004617 -0.000001 -0.003892 0.000000
# 3 -0.001912 -0.004617 0.012232 0.000000 0.000768 0.000000
# 4 0.000000 -0.000001 0.000000 0.019246 0.000000 0.001684
# 5 0.003144 -0.003892 0.000768 0.000000 0.023010 0.000000
# 6 0.000000 0.000000 0.000000 0.001684 0.000000 0.019111
#
#
# Mechanical properties :
#
#
# Convention : Reuss Voigt Hill
#
# Bulk Modulus (GPa) = 64.58519 67.68376 66.13447
# Shear Modulus (GPa) = 39.70273 43.50460 41.60366
#
# Velocity S-wave (km/s) = 4.34966 4.55316 4.45257
# Velocity P-wave (km/s) = 7.48351 7.73919 7.61242
#
# Compressibility (1/GPa) = 0.01548343
#
# Stress axis : x y z
#
# Youngs Moduli (GPa) = 73.47596 86.17747 81.75554
#
# Poissons Ratio (x) = 0.38362 0.15635
# Poissons Ratio (y) = 0.32708 0.37747
# Poissons Ratio (z) = 0.14051 0.39789
#
# Static dielectric constant tensor:
#      x y z
#    x 1.755810 0.000000 -0.056380 
#    y 0.000000 1.781860 0.000000 
#    z -0.056380 0.000000 1.788560 
# 
# From -- ./inp_files/283367.got.cif
#   From: 2010.05.17/outbox.cif.g08.bks.cpg/sg15_142_cif.got.tgz:283367.got - 2010.06.03 18:47:42.
