data_PCOD9307149
_publ_section_title
;
Structure prediction by ZEFSAII (Michael W. Deem and Ramdas Pophale) SiO2 
 PCOD9307149
Probable space group: C 2/C
;
_chemical_formula_sum "Si O2"
_cell_formula_units_Z 56
_cell_length_a 18.993948
_cell_length_b 13.950426
_cell_length_c 12.404610
_cell_angle_alpha 90.000000
_cell_angle_beta 53.838767
_cell_angle_gamma 90.000000
_cell_volume 2653.706676
_symmetry_space_group_name_H-M "C 2/C"
_symmetry_group_IT_number 15
_symmetry_cell_setting 'monoclinic'
loop_
_space_group_symop_operation_xyz
x,y,z
-x,y,1/2-z
-x,-y,-z
x,-y,1/2+z
1/2+x,1/2+y,z
1/2-x,1/2+y,1/2-z
1/2-x,1/2-y,-z
1/2+x,1/2-y,1/2+z
loop_
_atom_site_type_symbol
_atom_site_label
_atom_site_fract_x
_atom_site_fract_y
_atom_site_fract_z
Si Si1 0.176515 0.315180 0.246827
Si Si2 0.184857 0.881288 0.838441
Si Si3 0.512982 0.112209 0.515065
Si Si4 0.100581 0.187014 0.628134
Si Si5 0.351571 0.064491 0.930032
Si Si6 0.788738 0.941260 0.308871
Si Si7 0.628205 0.121476 0.213457
O O1 0.191449 0.202302 0.243921
O O2 0.188398 0.361144 0.118653
O O3 0.239438 0.368368 0.274393
O O4 0.077835 0.340094 0.372397
O O5 0.279509 0.892389 0.809939
O O6 0.159175 0.982100 0.810164
O O7 0.120497 0.844729 0.989141
O O8 0.580026 0.115452 0.553623
O O9 0.558364 0.152761 0.366470
O O10 0.500000 0.000000 0.500000
O O11 0.154540 0.117632 0.658253
O O12 0.133660 0.295295 0.620152
O O13 0.000000 0.181983 0.750000
O O14 0.395302 0.979475 0.819572
O O15 0.281516 0.006873 0.064554
#
# Coordination Sequence:
#
# PCOD9307149 Si02
#       7
#     8   8   8   8   8   8   8
#     4  12  24  39  66  98 137 173 211 274 325 392
#     4  12  24  46  66  96 131 171 220 273 326 389
#     4  12  23  38  63 105 138 168 209 272 334 387
#     4  12  27  43  69  96 124 173 229 271 322 389
#     4  12  22  39  66  98 132 173 213 266 339 390
#     4  12  23  45  67  92 133 175 224 265 327 389
#     4  12  23  40  69  99 132 171 215 274 327 395
#
# _framework density 21.102558999999999
#
# number of rings (size 3 to 8) (size 9 to 14) (size 15 to 20)
#    0.000    0.000    8.571    2.571    2.000    1.143 
#    0.000    1.429    0.000    0.000    0.000    0.000 
#    0.000    0.000    0.000    0.000    0.000    0.000 
#
# Total GULP energy -156874.087600 kJ/mol
# GULP energy per Si atom -5602.645986 kJ/mol
# Density = 2.105453 g / cm^3
# Si number density = 21.102559 Si / 1000 Ang^3
#
#
#
# Elastic Constant Matrix: (Units=GPa)
#
#
# Indices 1 2 3 4 5 6 
#
# 1 66.8173 26.3407 -4.0450 0.0000 15.7580 0.0000
# 2 26.3407 87.5145 2.8011 0.0000 12.4398 0.0000
# 3 -4.0450 2.8011 48.0904 0.0000 13.1576 0.0000
# 4 0.0000 0.0000 0.0000 27.2162 0.0000 7.2483
# 5 15.7580 12.4398 13.1576 0.0000 28.7924 0.0000
# 6 0.0000 0.0000 0.0000 7.2483 0.0000 24.2146
#
#
#
# Elastic Compliance Matrix: (Units=1/GPa)
#
#
# Indices 1 2 3 4 5 6 
#
# 1 0.019650 -0.004499 0.004943 0.000000 -0.011070 0.000000
# 2 -0.004499 0.013234 -0.000296 0.000000 -0.003120 0.000000
# 3 0.004943 -0.000296 0.025067 0.000000 -0.014033 0.000000
# 4 0.000000 0.000000 0.000000 0.039926 0.000000 -0.011951
# 5 -0.011070 -0.003120 -0.014033 0.000000 0.048551 0.000000
# 6 0.000000 0.000000 0.000000 -0.011951 0.000000 0.044875
#
#
# Mechanical properties :
#
#
# Convention : Reuss Voigt Hill
#
# Bulk Modulus (GPa) = 17.16796 28.06840 22.61818
# Shear Modulus (GPa) = 23.76207 27.86634 25.81421
#
# Velocity S-wave (km/s) = 3.35927 3.63784 3.50133
# Velocity P-wave (km/s) = 4.81658 5.56552 5.20454
#
# Compressibility (1/GPa) = 0.05824805
#
# Stress axis : x y z
#
# Youngs Moduli (GPa) = 50.89141 75.56393 39.89366
#
# Poissons Ratio (x) = 0.33996 -0.19721
# Poissons Ratio (y) = 0.22896 0.01179
# Poissons Ratio (z) = -0.25158 0.02233
#
# Static dielectric constant tensor:
#      x y z
#    x 1.735220 0.000000 -0.001640 
#    y 0.000000 1.727920 0.000000 
#    z -0.001640 0.000000 1.818440 
# 
# From -- ./inp_files/105643.got.cif
#   From: 2010.05.17/outbox.cif.g08.bks.cpg/sg15_53_cif.got.tgz:105643.got - 2010.06.03 18:47:42.
