data_PCOD9307464
_publ_section_title
;
Structure prediction by ZEFSAII (Michael W. Deem and Ramdas Pophale) SiO2 
 PCOD9307464
Probable space group: C 2/C
;
_chemical_formula_sum "Si O2"
_cell_formula_units_Z 36
_cell_length_a 4.891057
_cell_length_b 19.659502
_cell_length_c 16.267256
_cell_angle_alpha 90.000000
_cell_angle_beta 102.922825
_cell_angle_gamma 90.000000
_cell_volume 1524.572593
_symmetry_space_group_name_H-M "C 2/C"
_symmetry_group_IT_number 15
_symmetry_cell_setting 'monoclinic'
loop_
_space_group_symop_operation_xyz
x,y,z
-x,y,1/2-z
-x,-y,-z
x,-y,1/2+z
1/2+x,1/2+y,z
1/2-x,1/2+y,1/2-z
1/2-x,1/2-y,-z
1/2+x,1/2-y,1/2+z
loop_
_atom_site_type_symbol
_atom_site_label
_atom_site_fract_x
_atom_site_fract_y
_atom_site_fract_z
Si Si1 0.000000 0.789124 0.250000
Si Si2 0.670427 0.680062 0.335903
Si Si3 0.739937 0.629955 0.068710
Si Si4 0.179797 0.491420 0.342837
Si Si5 0.207430 0.101484 0.878179
O O1 0.815251 0.743864 0.300104
O O2 0.788302 0.836138 0.184357
O O3 0.500000 0.644317 0.250000
O O4 0.445928 0.684840 0.394168
O O5 0.933413 0.640693 0.390344
O O6 0.683479 0.555771 0.103103
O O7 0.684837 0.629292 0.968886
O O8 0.429215 0.440633 0.338190
O O9 0.000000 0.510941 0.250000
O O10 0.968996 0.449026 0.386612
#
# Coordination Sequence:
#
# PCOD9307464 Si02
#       5
#     4   8   8   8   8
#     4  12  28  48  72  98 158 192 258 276 376 424
#     4  12  25  48  71 102 142 198 241 302 346 429
#     4  12  26  46  76 110 144 182 251 300 363 424
#     4  12  23  45  74 108 145 190 234 296 373 439
#     4  12  27  46  73 110 147 192 232 307 363 438
#
# _framework density 23.613174000000001
#
# number of rings (size 3 to 8) (size 9 to 14) (size 15 to 20)
#    0.000    0.000    4.444    5.333    3.111    1.778 
#    0.000    0.000    0.000    0.000    0.000    0.000 
#    0.000    0.000    0.000    0.000    0.000    0.000 
#
# Total GULP energy -100831.667701 kJ/mol
# GULP energy per Si atom -5601.759317 kJ/mol
# Density = 2.355943 g / cm^3
# Si number density = 23.613174 Si / 1000 Ang^3
#
#
#
# Elastic Constant Matrix: (Units=GPa)
#
#
# Indices 1 2 3 4 5 6 
#
# 1 111.7161 16.6558 0.5472 0.0000 -3.2145 0.0000
# 2 16.6558 80.7745 44.9759 0.0000 -3.5526 0.0000
# 3 0.5472 44.9759 135.3971 0.0000 -1.4242 0.0000
# 4 0.0000 0.0000 0.0000 81.2571 0.0000 -31.4619
# 5 -3.2145 -3.5526 -1.4242 0.0000 26.5689 0.0000
# 6 0.0000 0.0000 0.0000 -31.4619 0.0000 31.0028
#
#
#
# Elastic Compliance Matrix: (Units=1/GPa)
#
#
# Indices 1 2 3 4 5 6 
#
# 1 0.009314 -0.002290 0.000732 0.000000 0.000860 0.000000
# 2 -0.002290 0.015836 -0.005235 0.000000 0.001560 0.000000
# 3 0.000732 -0.005235 0.009120 0.000000 -0.000122 0.000000
# 4 0.000000 0.000000 0.000000 0.020272 0.000000 0.020572
# 5 0.000860 0.001560 -0.000122 0.000000 0.037944 0.000000
# 6 0.000000 0.000000 0.000000 0.020572 0.000000 0.053132
#
#
# Mechanical properties :
#
#
# Convention : Reuss Voigt Hill
#
# Bulk Modulus (GPa) = 48.34596 50.24949 49.29772
# Shear Modulus (GPa) = 30.10273 45.47968 37.79121
#
# Velocity S-wave (km/s) = 3.57435 4.39342 4.00488
# Velocity P-wave (km/s) = 6.12807 6.86022 6.50445
#
# Compressibility (1/GPa) = 0.02068425
#
# Stress axis : x y z
#
# Youngs Moduli (GPa) = 107.36648 63.14843 109.64614
#
# Poissons Ratio (x) = 0.14464 -0.08029
# Poissons Ratio (y) = 0.24592 0.57395
# Poissons Ratio (z) = -0.07862 0.33056
#
# Static dielectric constant tensor:
#      x y z
#    x 1.220150 0.000000 -0.023810 
#    y 0.000000 1.911590 0.000000 
#    z -0.023810 0.000000 1.868100 
# 
# From -- ./inp_files/128776.got.cif
#   From: 2010.05.17/outbox.cif.g08.bks.cpg/sg15_65_cif.got.tgz:128776.got - 2010.06.03 18:47:42.
