data_PCOD9307646
_publ_section_title
;
Structure prediction by ZEFSAII (Michael W. Deem and Ramdas Pophale) SiO2 
 PCOD9307646
Probable space group: C 2/C
;
_chemical_formula_sum "Si O2"
_cell_formula_units_Z 40
_cell_length_a 15.235616
_cell_length_b 17.339601
_cell_length_c 15.049932
_cell_angle_alpha 90.000000
_cell_angle_beta 25.332169
_cell_angle_gamma 90.000000
_cell_volume 1701.142995
_symmetry_space_group_name_H-M "C 2/C"
_symmetry_group_IT_number 15
_symmetry_cell_setting 'monoclinic'
loop_
_space_group_symop_operation_xyz
x,y,z
-x,y,1/2-z
-x,-y,-z
x,-y,1/2+z
1/2+x,1/2+y,z
1/2-x,1/2+y,1/2-z
1/2-x,1/2-y,-z
1/2+x,1/2-y,1/2+z
loop_
_atom_site_type_symbol
_atom_site_label
_atom_site_fract_x
_atom_site_fract_y
_atom_site_fract_z
Si Si1 0.500000 0.820373 0.750000
Si Si2 0.524928 0.274602 0.406867
Si Si3 0.346530 0.229245 0.726553
Si Si4 0.500000 0.676829 0.250000
Si Si5 0.383758 0.424036 0.447344
Si Si6 0.181960 0.422658 0.153010
O O1 0.516511 0.768608 0.648360
O O2 0.695091 0.873927 0.584336
O O3 0.288517 0.245632 0.668510
O O4 0.577779 0.263636 0.471190
O O5 0.505598 0.366133 0.401232
O O6 0.374327 0.271718 0.795972
O O7 0.385467 0.137372 0.708605
O O8 0.349317 0.623309 0.443313
O O9 0.500000 0.447334 0.250000
O O10 0.289822 0.498059 0.583059
O O11 0.000000 0.440214 0.250000
#
# Coordination Sequence:
#
# PCOD9307646 Si02
#       6
#     4   8   8   4   8   8
#     4  12  24  48  74 102 142 190 240 300 352 430
#     4  12  24  44  74 106 137 185 247 292 352 428
#     4  12  24  44  73 105 138 189 242 292 354 423
#     4  12  24  48  74 100 146 192 244 300 346 422
#     4  12  25  45  73 105 145 188 235 299 365 419
#     4  12  25  45  71 105 146 188 237 295 363 423
#
# _framework density 23.513603
#
# number of rings (size 3 to 8) (size 9 to 14) (size 15 to 20)
#    0.000    0.000    8.000    3.600    0.000    0.800 
#    0.000    1.000    0.000    0.000    0.000    0.000 
#    0.000    0.000    0.000    0.000    0.000    0.000 
#
# Total GULP energy -111762.291203 kJ/mol
# GULP energy per Si atom -5588.114560 kJ/mol
# Density = 2.346009 g / cm^3
# Si number density = 23.513603 Si / 1000 Ang^3
#
#
#
# Elastic Constant Matrix: (Units=GPa)
#
#
# Indices 1 2 3 4 5 6 
#
# 1 166.5712 58.8248 48.0656 0.0124 -10.0956 -0.0042
# 2 58.8248 163.2381 28.9333 0.0082 -0.7879 -0.0169
# 3 48.0656 28.9333 101.7699 0.0134 -0.7426 -0.0096
# 4 0.0124 0.0082 0.0134 34.3046 -0.0177 8.8454
# 5 -10.0956 -0.7879 -0.7426 -0.0177 61.3935 0.0094
# 6 -0.0042 -0.0169 -0.0096 8.8454 0.0094 34.1733
#
#
#
# Elastic Compliance Matrix: (Units=1/GPa)
#
#
# Indices 1 2 3 4 5 6 
#
# 1 0.007739 -0.002250 -0.003006 0.000000 0.001207 -0.000001
# 2 -0.002250 0.007106 -0.000960 -0.000002 -0.000290 0.000003
# 3 -0.003006 -0.000960 0.011516 -0.000004 -0.000367 0.000004
# 4 0.000000 -0.000002 -0.000004 0.031235 0.000010 -0.008085
# 5 0.001207 -0.000290 -0.000367 0.000010 0.016479 -0.000007
# 6 -0.000001 0.000003 0.000004 -0.008085 -0.000007 0.031355
#
#
# Mechanical properties :
#
#
# Convention : Reuss Voigt Hill
#
# Bulk Modulus (GPa) = 71.79626 78.13629 74.96627
# Shear Modulus (GPa) = 40.81474 45.69131 43.25302
#
# Velocity S-wave (km/s) = 4.17080 4.41294 4.29358
# Velocity P-wave (km/s) = 7.33446 7.69856 7.51871
#
# Compressibility (1/GPa) = 0.01392830
#
# Stress axis : x y z
#
# Youngs Moduli (GPa) = 129.21949 140.73555 86.83445
#
# Poissons Ratio (x) = 0.31666 0.26107
# Poissons Ratio (y) = 0.29075 0.08332
# Poissons Ratio (z) = 0.38850 0.13504
#
# Static dielectric constant tensor:
#      x y z
#    x 1.866490 -0.000020 -0.073880 
#    y -0.000020 1.873820 0.000000 
#    z -0.073880 0.000000 1.954920 
# 
# From -- ./inp_files/39432.got.cif
#   From: 2010.05.17/outbox.cif.g08.bks.cpg/sg15_20_cif.got.tgz:39432.got - 2010.06.03 18:47:42.
