data_PCOD9307561
_publ_section_title
;
Structure prediction by ZEFSAII (Michael W. Deem and Ramdas Pophale) SiO2 
 PCOD9307561
Probable space group: C 2/C
;
_chemical_formula_sum "Si O2"
_cell_formula_units_Z 32
_cell_length_a 9.591882
_cell_length_b 16.485216
_cell_length_c 9.977142
_cell_angle_alpha 90.000000
_cell_angle_beta 117.081687
_cell_angle_gamma 90.000000
_cell_volume 1404.654336
_symmetry_space_group_name_H-M "C 2/C"
_symmetry_group_IT_number 15
_symmetry_cell_setting 'monoclinic'
loop_
_space_group_symop_operation_xyz
x,y,z
-x,y,1/2-z
-x,-y,-z
x,-y,1/2+z
1/2+x,1/2+y,z
1/2-x,1/2+y,1/2-z
1/2-x,1/2-y,-z
1/2+x,1/2-y,1/2+z
loop_
_atom_site_type_symbol
_atom_site_label
_atom_site_fract_x
_atom_site_fract_y
_atom_site_fract_z
Si Si1 0.472132 0.078639 0.399004
Si Si2 0.861577 0.861682 0.791402
Si Si3 0.237100 0.314329 0.150517
Si Si4 0.994030 0.102552 0.883781
O O1 0.500000 0.070664 0.250000
O O2 0.291236 0.099571 0.337837
O O3 0.590189 0.144594 0.513915
O O4 0.500000 0.000000 0.500000
O O5 0.801710 0.774758 0.819080
O O6 0.000000 0.846190 0.750000
O O7 0.931117 0.917455 0.942197
O O8 0.383324 0.326229 0.112271
O O9 0.316336 0.364672 0.309550
O O10 0.000000 0.048183 0.750000
#
# Coordination Sequence:
#
# PCOD9307561 Si02
#       4
#     8   8   8   8
#     4  12  27  48  71 100 142 187 229 281 348 418
#     4  12  24  40  69 109 137 175 230 293 340 399
#     4   9  21  40  72  97 136 180 231 275 337 410
#     4   8  19  37  65  97 128 179 223 272 337 398
#
# _framework density 22.781404999999999
#
# number of rings (size 3 to 8) (size 9 to 14) (size 15 to 20)
#    1.500    0.000    2.500    2.250    3.500    7.000 
#    4.500    2.500    0.000    0.000    0.000    0.000 
#    0.000    0.000    0.000    0.000    0.000    0.000 
#
# Total GULP energy -89143.739757 kJ/mol
# GULP energy per Si atom -5571.483735 kJ/mol
# Density = 2.272955 g / cm^3
# Si number density = 22.781405 Si / 1000 Ang^3
#
#
#
# Elastic Constant Matrix: (Units=GPa)
#
#
# Indices 1 2 3 4 5 6 
#
# 1 79.6209 2.4321 34.7933 0.0000 22.7595 0.0000
# 2 2.4321 70.5090 40.6021 0.0000 9.2099 0.0000
# 3 34.7933 40.6021 175.5777 0.0000 52.6790 0.0000
# 4 0.0000 0.0000 0.0000 460.1778 0.0000 -70.2172
# 5 22.7595 9.2099 52.6790 0.0000 32.5416 0.0000
# 6 0.0000 0.0000 0.0000 -70.2172 0.0000 31.1820
#
#
#
# Elastic Compliance Matrix: (Units=1/GPa)
#
#
# Indices 1 2 3 4 5 6 
#
# 1 0.015757 0.000891 0.000104 0.000000 -0.011441 0.000000
# 2 0.000891 0.016554 -0.004690 0.000000 0.002284 0.000000
# 3 0.000104 -0.004690 0.012411 0.000000 -0.018837 0.000000
# 4 0.000000 0.000000 0.000000 0.003311 0.000000 0.007455
# 5 -0.011441 0.002284 -0.018837 0.000000 0.068579 0.000000
# 6 0.000000 0.000000 0.000000 0.007455 0.000000 0.048857
#
#
# Mechanical properties :
#
#
# Convention : Reuss Voigt Hill
#
# Bulk Modulus (GPa) = 26.78596 53.48471 40.13534
# Shear Modulus (GPa) = 26.98282 121.30562 74.14422
#
# Velocity S-wave (km/s) = 3.44528 7.30502 5.71109
# Velocity P-wave (km/s) = 5.25452 9.73033 7.81950
#
# Compressibility (1/GPa) = 0.03733299
#
# Stress axis : x y z
#
# Youngs Moduli (GPa) = 63.46277 60.40764 80.57365
#
# Poissons Ratio (x) = -0.05382 -0.00840
# Poissons Ratio (y) = -0.05654 0.37789
# Poissons Ratio (z) = -0.00662 0.28331
#
# Static dielectric constant tensor:
#      x y z
#    x 1.798530 0.000000 -0.043740 
#    y 0.000000 1.908760 0.000000 
#    z -0.043740 0.000000 1.970960 
# 
# From -- ./inp_files/76519.got.cif
#   From: 2010.05.17/outbox.cif.g08.bks.cpg/sg15_39_cif.got.tgz:76519.got - 2010.06.03 18:47:42.
