data_PCOD9307089
_publ_section_title
;
Structure prediction by ZEFSAII (Michael W. Deem and Ramdas Pophale) SiO2 
 PCOD9307089
Probable space group: C 2/C
;
_chemical_formula_sum "Si O2"
_cell_formula_units_Z 48
_cell_length_a 8.648812
_cell_length_b 16.785843
_cell_length_c 24.444285
_cell_angle_alpha 90.000000
_cell_angle_beta 45.394053
_cell_angle_gamma 90.000000
_cell_volume 2526.552783
_symmetry_space_group_name_H-M "C 2/C"
_symmetry_group_IT_number 15
_symmetry_cell_setting 'monoclinic'
loop_
_space_group_symop_operation_xyz
x,y,z
-x,y,1/2-z
-x,-y,-z
x,-y,1/2+z
1/2+x,1/2+y,z
1/2-x,1/2+y,1/2-z
1/2-x,1/2-y,-z
1/2+x,1/2-y,1/2+z
loop_
_atom_site_type_symbol
_atom_site_label
_atom_site_fract_x
_atom_site_fract_y
_atom_site_fract_z
Si Si1 0.041361 0.510082 0.424359
Si Si2 0.791137 0.850200 0.340764
Si Si3 0.047810 0.791511 0.081466
Si Si4 0.317599 0.340945 0.840009
Si Si5 0.604042 0.415001 0.982366
Si Si6 0.467918 0.707487 0.421478
O O1 0.121081 0.423742 0.383964
O O2 0.234805 0.569215 0.361668
O O3 0.000000 0.500000 0.500000
O O4 0.839902 0.557653 0.446611
O O5 0.879146 0.829100 0.379562
O O6 0.649039 0.772851 0.362309
O O7 0.000000 0.862756 0.250000
O O8 0.867579 0.723579 0.128414
O O9 0.250000 0.750000 0.000000
O O10 0.982238 0.864682 0.059307
O O11 0.500000 0.330054 0.750000
O O12 0.395147 0.328487 0.882468
O O13 0.572411 0.357925 0.937079
O O14 0.500000 0.500000 0.000000
O O15 0.250000 0.750000 0.500000
#
# Coordination Sequence:
#
# PCOD9307089 Si02
#       6
#     8   8   8   8   8   8
#     4  12  23  43  68  95 130 180 226 269 326 407
#     4  12  25  42  66  99 137 173 218 282 342 388
#     4  12  21  45  69  93 126 179 224 266 322 411
#     4  12  25  42  66  99 136 171 217 283 343 388
#     4  12  24  40  69  98 125 165 236 278 313 385
#     4  12  23  42  69  98 128 176 230 272 327 411
#
# _framework density 18.998218000000001
#
# number of rings (size 3 to 8) (size 9 to 14) (size 15 to 20)
#    0.000    0.000    6.667    4.500    0.000    0.000 
#    0.000    0.000    0.000    0.000    0.000    0.000 
#    0.000    0.000    0.000    0.000    0.000    0.000 
#
# Total GULP energy -133940.221507 kJ/mol
# GULP energy per Si atom -5580.842563 kJ/mol
# Density = 1.895498 g / cm^3
# Si number density = 18.998218 Si / 1000 Ang^3
#
#
#
# Elastic Constant Matrix: (Units=GPa)
#
#
# Indices 1 2 3 4 5 6 
#
# 1 79.4905 14.2721 12.4043 -0.0018 4.5002 0.0025
# 2 14.2721 120.4619 15.1767 -0.0024 -10.5585 0.0025
# 3 12.4043 15.1767 113.5077 -0.0021 -6.8464 0.0041
# 4 -0.0018 -0.0024 -0.0021 35.3478 0.0016 -13.2764
# 5 4.5002 -10.5585 -6.8464 0.0016 25.8331 -0.0027
# 6 0.0025 0.0025 0.0041 -13.2764 -0.0027 38.8498
#
#
#
# Elastic Compliance Matrix: (Units=1/GPa)
#
#
# Indices 1 2 3 4 5 6 
#
# 1 0.013299 -0.001692 -0.001431 0.000000 -0.003388 -0.000001
# 2 -0.001692 0.008928 -0.000783 0.000000 0.003736 0.000000
# 3 -0.001431 -0.000783 0.009214 0.000000 0.002371 -0.000001
# 4 0.000000 0.000000 0.000000 0.032456 -0.000001 0.011091
# 5 -0.003388 0.003736 0.002371 -0.000001 0.041456 0.000002
# 6 -0.000001 0.000000 -0.000001 0.011091 0.000002 0.029530
#
#
# Mechanical properties :
#
#
# Convention : Reuss Voigt Hill
#
# Bulk Modulus (GPa) = 42.32426 44.12958 43.22692
# Shear Modulus (GPa) = 33.20637 38.11329 35.65983
#
# Velocity S-wave (km/s) = 4.18529 4.48387 4.33715
# Velocity P-wave (km/s) = 6.75884 7.07711 6.91980
#
# Compressibility (1/GPa) = 0.02362711
#
# Stress axis : x y z
#
# Youngs Moduli (GPa) = 75.19304 112.00641 108.52852
#
# Poissons Ratio (x) = 0.18954 0.15535
# Poissons Ratio (y) = 0.12725 0.08503
# Poissons Ratio (z) = 0.10763 0.08775
#
# Static dielectric constant tensor:
#      x y z
#    x 1.635770 0.000000 -0.020920 
#    y 0.000000 1.560510 0.000010 
#    z -0.020920 0.000010 1.626800 
# 
# From -- ./inp_files/289038.got.cif
#   From: 2010.05.17/outbox.cif.g08.bks.cpg/sg15_145_cif.got.tgz:289038.got - 2010.06.03 18:47:42.
