data_PCOD9307073
_publ_section_title
;
Structure prediction by ZEFSAII (Michael W. Deem and Ramdas Pophale) SiO2 
 PCOD9307073
Probable space group: C 2/C
;
_chemical_formula_sum "Si O2"
_cell_formula_units_Z 60
_cell_length_a 22.528323
_cell_length_b 11.744466
_cell_length_c 13.782783
_cell_angle_alpha 90.000000
_cell_angle_beta 132.689140
_cell_angle_gamma 90.000000
_cell_volume 2680.475709
_symmetry_space_group_name_H-M "C 2/C"
_symmetry_group_IT_number 15
_symmetry_cell_setting 'monoclinic'
loop_
_space_group_symop_operation_xyz
x,y,z
-x,y,1/2-z
-x,-y,-z
x,-y,1/2+z
1/2+x,1/2+y,z
1/2-x,1/2+y,1/2-z
1/2-x,1/2-y,-z
1/2+x,1/2-y,1/2+z
loop_
_atom_site_type_symbol
_atom_site_label
_atom_site_fract_x
_atom_site_fract_y
_atom_site_fract_z
Si Si1 0.807662 0.393506 0.190909
Si Si2 0.500000 0.545791 0.750000
Si Si3 0.253279 0.184779 0.902930
Si Si4 0.818444 0.832225 0.801002
Si Si5 0.427136 0.673987 0.849597
Si Si6 0.879776 0.049862 0.976253
Si Si7 0.921047 0.576110 0.413380
Si Si8 0.678468 0.940409 0.518292
O O1 0.849631 0.279974 0.280037
O O2 0.848467 0.502299 0.286599
O O3 0.710911 0.399509 0.107506
O O4 0.821562 0.400541 0.091970
O O5 0.478158 0.622361 0.818831
O O6 0.575953 0.472845 0.872727
O O7 0.275283 0.274694 0.845200
O O8 0.164444 0.141225 0.779924
O O9 0.313209 0.077713 0.971094
O O10 0.250000 0.250000 0.000000
O O11 0.756374 0.889167 0.658121
O O12 0.870837 0.931740 0.906153
O O13 0.433404 0.809293 0.866566
O O14 0.435577 0.625442 0.967603
O O15 0.895164 0.598892 0.495795
O O16 0.000000 0.500000 0.500000
#
# Coordination Sequence:
#
# PCOD9307073 Si02
#       8
#     8   4   8   8   8   8   8   8
#     4  12  25  45  77 106 142 191 239 302 366 438
#     4  12  30  44  74 110 142 202 244 304 358 440
#     4  12  22  39  76 103 139 189 241 298 353 437
#     4  12  21  43  74 109 139 182 242 301 364 427
#     4  12  24  49  67 102 150 188 243 300 363 429
#     4  12  25  48  76 109 146 189 247 303 368 429
#     4  12  27  47  71 103 148 194 238 301 366 430
#     4  12  23  44  69 111 139 184 246 297 364 434
#
# _framework density 22.384086
#
# number of rings (size 3 to 8) (size 9 to 14) (size 15 to 20)
#    0.000    0.000    6.667    4.000    1.867    2.667 
#    0.000    0.000    0.000    0.000    0.000    0.000 
#    0.000    0.000    0.000    0.000    0.000    0.000 
#
# Total GULP energy -167893.973159 kJ/mol
# GULP energy per Si atom -5596.465772 kJ/mol
# Density = 2.233314 g / cm^3
# Si number density = 22.384086 Si / 1000 Ang^3
#
#
#
# Elastic Constant Matrix: (Units=GPa)
#
#
# Indices 1 2 3 4 5 6 
#
# 1 80.5370 -6.1865 30.4669 0.0000 -24.2045 0.0000
# 2 -6.1865 75.9399 15.5507 0.0000 -6.4806 0.0000
# 3 30.4669 15.5507 80.5740 0.0000 -27.2070 0.0000
# 4 0.0000 0.0000 0.0000 17.8753 0.0000 -20.9399
# 5 -24.2045 -6.4806 -27.2070 0.0000 45.8895 0.0000
# 6 0.0000 0.0000 0.0000 -20.9399 0.0000 22.2516
#
#
#
# Elastic Compliance Matrix: (Units=1/GPa)
#
#
# Indices 1 2 3 4 5 6 
#
# 1 0.016238 0.002792 -0.004568 0.000000 0.006251 0.000000
# 2 0.002792 0.014198 -0.003278 0.000000 0.001534 0.000000
# 3 -0.004568 -0.003278 0.017255 0.000000 0.007358 0.000000
# 4 0.000000 0.000000 0.000000 -0.546383 0.000000 -0.514176
# 5 0.006251 0.001534 0.007358 0.000000 0.029668 0.000000
# 6 0.000000 0.000000 0.000000 -0.514176 0.000000 -0.438926
#
#
# Mechanical properties :
#
#
# Convention : Reuss Voigt Hill
#
# Bulk Modulus (GPa) = 26.60792 35.19033 30.89913
# Shear Modulus (GPa) = -5.64771 30.35126 12.35178
#
# Velocity S-wave (km/s) = -1.59015 3.68629 2.35161
# Velocity P-wave (km/s) = 2.92256 5.82010 4.60516
#
# Compressibility (1/GPa) = 0.03758279
#
# Stress axis : x y z
#
# Youngs Moduli (GPa) = 61.58502 70.43313 57.95287
#
# Poissons Ratio (x) = -0.19663 0.26473
# Poissons Ratio (y) = -0.17192 0.18995
# Poissons Ratio (z) = 0.28132 0.23086
#
# Static dielectric constant tensor:
#      x y z
#    x 1.923540 0.000000 -0.054730 
#    y 0.000000 1.849200 0.000000 
#    z -0.054730 0.000000 1.880690 
# 
# From -- ./inp_files/173167.got.cif
#   From: 2010.05.17/outbox.cif.g08.bks.cpg/sg15_87_cif.got.tgz:173167.got - 2010.06.03 18:47:42.
