data_PCOD9307712
_publ_section_title
;
Structure prediction by ZEFSAII (Michael W. Deem and Ramdas Pophale) SiO2 
 PCOD9307712
Probable space group: C 2/C
;
_chemical_formula_sum "Si O2"
_cell_formula_units_Z 32
_cell_length_a 21.670505
_cell_length_b 13.164918
_cell_length_c 4.908255
_cell_angle_alpha 90.000000
_cell_angle_beta 65.826889
_cell_angle_gamma 90.000000
_cell_volume 1277.491098
_symmetry_space_group_name_H-M "C 2/C"
_symmetry_group_IT_number 15
_symmetry_cell_setting 'monoclinic'
loop_
_space_group_symop_operation_xyz
x,y,z
-x,y,1/2-z
-x,-y,-z
x,-y,1/2+z
1/2+x,1/2+y,z
1/2-x,1/2+y,1/2-z
1/2-x,1/2-y,-z
1/2+x,1/2-y,1/2+z
loop_
_atom_site_type_symbol
_atom_site_label
_atom_site_fract_x
_atom_site_fract_y
_atom_site_fract_z
Si Si1 0.000000 0.500000 0.000000
Si Si2 0.232433 0.064320 0.135584
Si Si3 0.622955 0.725916 0.466471
Si Si4 0.000000 0.076022 0.750000
Si Si5 0.379831 0.135976 0.018712
O O1 0.000000 0.411556 0.750000
O O2 0.058755 0.444806 0.112354
O O3 0.191955 0.163321 0.298628
O O4 0.311964 0.084046 0.031141
O O5 0.215145 0.969963 0.363299
O O6 0.565449 0.647281 0.653647
O O7 0.632928 0.815995 0.664866
O O8 0.603105 0.773248 0.213627
O O9 0.000000 0.000000 0.500000
#
# Coordination Sequence:
#
# PCOD9307712 Si02
#       5
#     4   8   8   4   8
#     4  12  26  44  68 100 150 192 236 296 364 446
#     4  12  24  46  72 106 143 197 243 303 369 438
#     4  12  26  45  74 104 145 190 254 306 364 441
#     4  12  26  48  70 104 138 192 244 308 370 422
#     4  12  26  45  71 108 146 195 244 304 371 449
#
# _framework density 25.049097
#
# number of rings (size 3 to 8) (size 9 to 14) (size 15 to 20)
#    0.000    0.000    0.000   10.500    5.250    0.000 
#    0.000    0.000    0.000    0.000    0.000    0.000 
#    0.000    0.000    0.000    0.000    0.000    0.000 
#
# Total GULP energy -89589.153105 kJ/mol
# GULP energy per Si atom -5599.322069 kJ/mol
# Density = 2.499208 g / cm^3
# Si number density = 25.049097 Si / 1000 Ang^3
#
#
#
# Elastic Constant Matrix: (Units=GPa)
#
#
# Indices 1 2 3 4 5 6 
#
# 1 105.4954 38.4016 35.4437 0.0000 -16.5403 0.0000
# 2 38.4016 95.3693 24.3300 0.0000 -15.5695 0.0000
# 3 35.4437 24.3300 110.0604 0.0000 18.8310 0.0000
# 4 0.0000 0.0000 0.0000 50.6696 0.0000 5.5925
# 5 -16.5403 -15.5695 18.8310 0.0000 59.3136 0.0000
# 6 0.0000 0.0000 0.0000 5.5925 0.0000 60.6450
#
#
#
# Elastic Compliance Matrix: (Units=1/GPa)
#
#
# Indices 1 2 3 4 5 6 
#
# 1 0.012688 -0.003455 -0.003989 0.000000 0.003898 0.000000
# 2 -0.003455 0.012982 -0.002300 0.000000 0.003175 0.000000
# 3 -0.003989 -0.002300 0.011815 0.000000 -0.005467 0.000000
# 4 0.000000 0.000000 0.000000 0.019939 0.000000 -0.001839
# 5 0.003898 0.003175 -0.005467 0.000000 0.020516 0.000000
# 6 0.000000 0.000000 0.000000 -0.001839 0.000000 0.016659
#
#
# Mechanical properties :
#
#
# Convention : Reuss Voigt Hill
#
# Bulk Modulus (GPa) = 55.56937 56.36396 55.96667
# Shear Modulus (GPa) = 41.63713 48.30895 44.97304
#
# Velocity S-wave (km/s) = 4.08146 4.39631 4.24181
# Velocity P-wave (km/s) = 6.66659 6.95128 6.81042
#
# Compressibility (1/GPa) = 0.01799553
#
# Stress axis : x y z
#
# Youngs Moduli (GPa) = 78.81374 77.03068 84.64165
#
# Poissons Ratio (x) = 0.26614 0.33765
# Poissons Ratio (y) = 0.27230 0.19470
# Poissons Ratio (z) = 0.31441 0.17719
#
# Static dielectric constant tensor:
#      x y z
#    x 1.954550 0.000000 -0.073560 
#    y 0.000000 1.913530 0.000000 
#    z -0.073560 0.000000 2.701420 
# 
# From -- ./inp_files/9528.got.cif
#   From: 2010.05.17/outbox.cif.g08.bks.cpg/sg15_5_cif.got.tgz:9528.got - 2010.06.03 18:47:42.
