data_PCOD9307001
_publ_section_title
;
Structure prediction by ZEFSAII (Michael W. Deem and Ramdas Pophale) SiO2 
 PCOD9307001
Probable space group: C 2/C
;
_chemical_formula_sum "Si O2"
_cell_formula_units_Z 56
_cell_length_a 24.506562
_cell_length_b 9.716431
_cell_length_c 11.872390
_cell_angle_alpha 90.000000
_cell_angle_beta 60.970781
_cell_angle_gamma 90.000000
_cell_volume 2471.859221
_symmetry_space_group_name_H-M "C 2/C"
_symmetry_group_IT_number 15
_symmetry_cell_setting 'monoclinic'
loop_
_space_group_symop_operation_xyz
x,y,z
-x,y,1/2-z
-x,-y,-z
x,-y,1/2+z
1/2+x,1/2+y,z
1/2-x,1/2+y,1/2-z
1/2-x,1/2-y,-z
1/2+x,1/2-y,1/2+z
loop_
_atom_site_type_symbol
_atom_site_label
_atom_site_fract_x
_atom_site_fract_y
_atom_site_fract_z
Si Si1 0.365837 0.430805 0.877532
Si Si2 0.500000 0.556287 0.750000
Si Si3 0.000000 0.531868 0.750000
Si Si4 0.645567 0.236716 0.800301
Si Si5 0.901499 0.303628 0.501637
Si Si6 0.181022 0.764187 0.021446
Si Si7 0.486853 0.339391 0.491765
Si Si8 0.616511 0.945545 0.758263
O O1 0.440247 0.460710 0.783842
O O2 0.335573 0.366782 0.795578
O O3 0.362245 0.311837 0.975630
O O4 0.339247 0.577189 0.940378
O O5 0.522628 0.657866 0.630874
O O6 0.946046 0.616211 0.869623
O O7 0.957589 0.459312 0.696495
O O8 0.648603 0.096394 0.725755
O O9 0.675610 0.231246 0.893748
O O10 0.571846 0.265162 0.895527
O O11 0.869325 0.398485 0.627188
O O12 0.949761 0.224940 0.532441
O O13 0.141488 0.659683 0.139385
O O14 0.250000 0.750000 0.000000
O O15 0.500000 0.500000 0.500000
#
# Coordination Sequence:
#
# PCOD9307001 Si02
#       8
#     8   4   4   8   8   8   8   8
#     4  12  24  45  77 108 151 192 248 305 382 464
#     4  12  21  35  62 112 149 181 234 294 369 451
#     4  12  23  45  68 116 167 191 230 300 389 485
#     4  12  25  47  72 107 148 196 246 311 382 449
#     4  12  23  41  68 110 154 199 234 290 382 469
#     4  12  31  53  75 106 144 198 275 327 372 437
#     4  12  21  34  61 104 150 187 232 285 357 461
#     4  12  28  45  75 110 157 198 249 310 388 456
#
# _framework density 22.655011999999999
#
# number of rings (size 3 to 8) (size 9 to 14) (size 15 to 20)
#    0.000    0.000    7.143    2.571    4.000    1.714 
#    0.000    0.714    0.000    0.000    0.000    0.000 
#    0.000    0.000    0.000    0.000    0.000    0.000 
#
# Total GULP energy -156452.160335 kJ/mol
# GULP energy per Si atom -5587.577155 kJ/mol
# Density = 2.260345 g / cm^3
# Si number density = 22.655012 Si / 1000 Ang^3
#
#
#
# Elastic Constant Matrix: (Units=GPa)
#
#
# Indices 1 2 3 4 5 6 
#
# 1 93.4881 42.0302 22.1714 0.0000 20.6039 0.0000
# 2 42.0302 122.6109 46.7939 0.0000 24.6433 0.0000
# 3 22.1714 46.7939 87.1932 0.0000 46.0786 0.0000
# 4 0.0000 0.0000 0.0000 36.1085 0.0000 16.1026
# 5 20.6039 24.6433 46.0786 0.0000 26.6290 0.0000
# 6 0.0000 0.0000 0.0000 16.1026 0.0000 12.9429
#
#
#
# Elastic Compliance Matrix: (Units=1/GPa)
#
#
# Indices 1 2 3 4 5 6 
#
# 1 0.022904 -0.007157 0.045378 0.000000 -0.089620 0.000000
# 2 -0.007157 0.012493 -0.019888 0.000000 0.028390 0.000000
# 3 0.045378 -0.019888 0.227142 0.000000 -0.409750 0.000000
# 4 0.000000 0.000000 0.000000 0.062209 0.000000 -0.077396
# 5 -0.089620 0.028390 -0.409750 0.000000 0.789649 0.000000
# 6 0.000000 0.000000 0.000000 -0.077396 0.000000 0.173553
#
#
# Mechanical properties :
#
#
# Convention : Reuss Voigt Hill
#
# Bulk Modulus (GPa) = 3.34219 58.36478 30.85348
# Shear Modulus (GPa) = 3.70091 27.95586 15.82838
#
# Velocity S-wave (km/s) = 1.27951 3.51662 2.64610
# Velocity P-wave (km/s) = 1.91345 6.50439 4.79419
#
# Compressibility (1/GPa) = 0.29920510
#
# Stress axis : x y z
#
# Youngs Moduli (GPa) = 43.66056 80.04203 4.40253
#
# Poissons Ratio (x) = 0.57287 -0.19978
# Poissons Ratio (y) = 0.31248 0.08756
# Poissons Ratio (z) = -1.98124 1.59190
#
# Static dielectric constant tensor:
#      x y z
#    x 1.860640 0.000000 0.068070 
#    y 0.000000 1.818960 0.000000 
#    z 0.068070 0.000000 1.943330 
# 
# From -- ./inp_files/121941.got.cif
#   From: 2010.05.17/outbox.cif.g08.bks.cpg/sg15_61_cif.got.tgz:121941.got - 2010.06.03 18:47:42.
