data_PCOD9307632
_publ_section_title
;
Structure prediction by ZEFSAII (Michael W. Deem and Ramdas Pophale) SiO2 
 PCOD9307632
Probable space group: C 2/C
;
_chemical_formula_sum "Si O2"
_cell_formula_units_Z 44
_cell_length_a 12.882741
_cell_length_b 4.841289
_cell_length_c 24.552639
_cell_angle_alpha 90.000000
_cell_angle_beta 109.495075
_cell_angle_gamma 90.000000
_cell_volume 1443.534713
_symmetry_space_group_name_H-M "C 2/C"
_symmetry_group_IT_number 15
_symmetry_cell_setting 'monoclinic'
loop_
_space_group_symop_operation_xyz
x,y,z
-x,y,1/2-z
-x,-y,-z
x,-y,1/2+z
1/2+x,1/2+y,z
1/2-x,1/2+y,1/2-z
1/2-x,1/2-y,-z
1/2+x,1/2-y,1/2+z
loop_
_atom_site_type_symbol
_atom_site_label
_atom_site_fract_x
_atom_site_fract_y
_atom_site_fract_z
Si Si1 0.189659 0.124789 0.935798
Si Si2 0.500000 0.305337 0.750000
Si Si3 0.691578 0.465343 0.725843
Si Si4 0.837134 0.843099 0.894737
Si Si5 0.558601 0.127490 0.062420
Si Si6 0.425534 0.067335 0.620250
O O1 0.195348 0.369254 0.885537
O O2 0.314330 0.041099 0.923743
O O3 0.138148 0.821777 0.919549
O O4 0.250000 0.250000 0.000000
O O5 0.593478 0.517852 0.748271
O O6 0.460570 0.141826 0.689234
O O7 0.790624 0.639642 0.766257
O O8 0.671170 0.538020 0.661064
O O9 0.898138 0.063903 0.943414
O O10 0.943319 0.633173 0.887241
O O11 0.441391 0.211956 0.081071
O O12 0.500000 0.000000 0.000000
#
# Coordination Sequence:
#
# PCOD9307632 Si02
#       6
#     8   4   8   8   8   8
#     4  12  25  46  73 108 147 197 258 319 393 469
#     4  12  28  50  78 112 164 198 266 320 396 488
#     4  12  27  48  74 109 151 202 255 315 386 466
#     4  12  24  45  68 102 144 186 248 307 381 459
#     4  12  24  44  70 103 142 188 243 310 376 454
#     4  12  26  45  72 109 145 201 249 317 398 466
#
# _framework density 30.480736
#
# number of rings (size 3 to 8) (size 9 to 14) (size 15 to 20)
#    0.000    0.000    1.818    8.727    0.000    1.455 
#    0.000    0.000    0.000    0.000    0.000    0.000 
#    0.000    0.000    0.000    0.000    0.000    0.000 
#
# Total GULP energy -123086.658439 kJ/mol
# GULP energy per Si atom -5594.848111 kJ/mol
# Density = 3.041136 g / cm^3
# Si number density = 30.480736 Si / 1000 Ang^3
#
#
#
# Elastic Constant Matrix: (Units=GPa)
#
#
# Indices 1 2 3 4 5 6 
#
# 1 246.5088 25.8573 15.4577 0.0000 -38.7016 0.0000
# 2 25.8573 185.0549 20.7789 0.0000 12.7207 0.0000
# 3 15.4577 20.7789 123.9158 0.0000 0.1029 0.0000
# 4 0.0000 0.0000 0.0000 56.3220 0.0000 32.9659
# 5 -38.7016 12.7207 0.1029 0.0000 79.5012 0.0000
# 6 0.0000 0.0000 0.0000 32.9659 0.0000 128.7361
#
#
#
# Elastic Compliance Matrix: (Units=1/GPa)
#
#
# Indices 1 2 3 4 5 6 
#
# 1 0.004527 -0.000743 -0.000442 0.000000 0.002323 0.000000
# 2 -0.000743 0.005692 -0.000861 0.000000 -0.001271 0.000000
# 3 -0.000442 -0.000861 0.008270 0.000000 -0.000088 0.000000
# 4 0.000000 0.000000 0.000000 0.020885 0.000000 -0.005348
# 5 0.002323 -0.001271 -0.000088 0.000000 0.013913 0.000000
# 6 0.000000 0.000000 0.000000 -0.005348 0.000000 0.009137
#
#
# Mechanical properties :
#
#
# Convention : Reuss Voigt Hill
#
# Bulk Modulus (GPa) = 69.45755 75.51858 72.48806
# Shear Modulus (GPa) = 70.11277 85.80424 77.95851
#
# Velocity S-wave (km/s) = 4.80128 5.31144 5.06279
# Velocity P-wave (km/s) = 7.31937 7.90221 7.61637
#
# Compressibility (1/GPa) = 0.01439728
#
# Stress axis : x y z
#
# Youngs Moduli (GPa) = 220.89672 175.69806 120.92561
#
# Poissons Ratio (x) = 0.13047 0.05346
# Poissons Ratio (y) = 0.16404 0.10408
# Poissons Ratio (z) = 0.09766 0.15122
#
# Static dielectric constant tensor:
#      x y z
#    x 2.893130 0.000000 0.050100 
#    y 0.000000 2.177410 0.000000 
#    z 0.050100 0.000000 2.507210 
# 
# From -- ./inp_files/271916.got.cif
#   From: 2010.05.17/outbox.cif.g08.bks.cpg/sg15_136_cif.got.tgz:271916.got - 2010.06.03 18:47:42.
