data_PCOD9307107
_publ_section_title
;
Structure prediction by ZEFSAII (Michael W. Deem and Ramdas Pophale) SiO2 
 PCOD9307107
Probable space group: C 2/C
;
_chemical_formula_sum "Si O2"
_cell_formula_units_Z 44
_cell_length_a 15.667411
_cell_length_b 15.473908
_cell_length_c 28.782485
_cell_angle_alpha 90.000000
_cell_angle_beta 20.696168
_cell_angle_gamma 90.000000
_cell_volume 2466.080045
_symmetry_space_group_name_H-M "C 2/C"
_symmetry_group_IT_number 15
_symmetry_cell_setting 'monoclinic'
loop_
_space_group_symop_operation_xyz
x,y,z
-x,y,1/2-z
-x,-y,-z
x,-y,1/2+z
1/2+x,1/2+y,z
1/2-x,1/2+y,1/2-z
1/2-x,1/2-y,-z
1/2+x,1/2-y,1/2+z
loop_
_atom_site_type_symbol
_atom_site_label
_atom_site_fract_x
_atom_site_fract_y
_atom_site_fract_z
Si Si1 0.628607 0.253280 0.367895
Si Si2 0.939102 0.432390 0.490182
Si Si3 0.134043 0.173903 0.764008
Si Si4 0.355587 0.916328 0.968295
Si Si5 0.500000 0.321334 0.750000
Si Si6 0.134244 0.656614 0.136826
O O1 0.701703 0.299214 0.282259
O O2 0.514097 0.160315 0.411131
O O3 0.409648 0.309443 0.501490
O O4 0.845842 0.235233 0.292218
O O5 0.928621 0.490968 0.449643
O O6 0.691902 0.382938 0.626430
O O7 0.000000 0.500000 0.500000
O O8 0.149296 0.362833 0.376407
O O9 0.017457 0.258176 0.800154
O O10 0.919392 0.104139 0.876949
O O11 0.373317 0.904631 0.904160
O O12 0.000000 0.619723 0.250000
#
# Coordination Sequence:
#
# PCOD9307107 Si02
#       6
#     8   8   8   8   4   8
#     4   9  19  36  52  81 108 138 179 221 257 311
#     4  12  22  33  53  83 114 142 166 217 277 321
#     4   9  20  35  56  76 108 141 176 222 263 309
#     4   9  19  35  52  79 110 136 177 222 262 312
#     4  12  22  32  54  82 112 138 178 216 266 332
#     4   9  17  34  61  78  97 140 189 220 251 308
#
# _framework density 17.842082000000001
#
# number of rings (size 3 to 8) (size 9 to 14) (size 15 to 20)
#    0.000    2.182    1.818    4.364    2.545    0.727 
#    0.000    0.000    2.000    2.182    0.000    0.000 
#    0.000    0.000    0.000    0.000    0.000    0.000 
#
# Total GULP energy -122771.653342 kJ/mol
# GULP energy per Si atom -5580.529697 kJ/mol
# Density = 1.780147 g / cm^3
# Si number density = 17.842082 Si / 1000 Ang^3
#
#
#
# Elastic Constant Matrix: (Units=GPa)
#
#
# Indices 1 2 3 4 5 6 
#
# 1 94.3423 14.5126 44.9895 -0.0048 -17.8718 -0.0117
# 2 14.5126 36.1031 20.1214 -0.0163 -6.2861 -0.0040
# 3 44.9895 20.1214 114.5699 -0.0689 3.3336 0.0186
# 4 -0.0048 -0.0163 -0.0689 9.3518 -0.0001 10.4361
# 5 -17.8718 -6.2861 3.3336 -0.0001 28.2362 -0.0011
# 6 -0.0117 -0.0040 0.0186 10.4361 -0.0011 16.9420
#
#
#
# Elastic Compliance Matrix: (Units=1/GPa)
#
#
# Indices 1 2 3 4 5 6 
#
# 1 0.015753 -0.000983 -0.006319 -0.000194 0.010498 0.000138
# 2 -0.000983 0.032433 -0.005521 0.000001 0.007250 0.000013
# 3 -0.006319 -0.005521 0.012374 0.000320 -0.006689 -0.000217
# 4 -0.000194 0.000001 0.000320 0.342094 -0.000168 -0.210727
# 5 0.010498 0.007250 -0.006689 -0.000168 0.044464 0.000122
# 6 0.000138 0.000013 -0.000217 -0.210727 0.000122 0.188831
#
#
# Mechanical properties :
#
#
# Convention : Reuss Voigt Hill
#
# Bulk Modulus (GPa) = 28.64146 44.91804 36.77975
# Shear Modulus (GPa) = 7.42686 21.93211 14.67949
#
# Velocity S-wave (km/s) = 2.04245 3.50985 2.87147
# Velocity P-wave (km/s) = 4.65293 6.45410 5.62606
#
# Compressibility (1/GPa) = 0.03491442
#
# Stress axis : x y z
#
# Youngs Moduli (GPa) = 63.48060 30.83282 80.81391
#
# Poissons Ratio (x) = 0.03030 0.51065
# Poissons Ratio (y) = 0.06239 0.44618
# Poissons Ratio (z) = 0.40112 0.17023
#
# Static dielectric constant tensor:
#      x y z
#    x 1.633870 -0.000010 0.012040 
#    y -0.000010 1.587790 0.000000 
#    z 0.012040 0.000000 1.604340 
# 
# From -- ./inp_files/39088.got.cif
#   From: 2010.05.17/outbox.cif.g08.bks.cpg/sg15_20_cif.got.tgz:39088.got - 2010.06.03 18:47:42.
