data_PCOD9307148
_publ_section_title
;
Structure prediction by ZEFSAII (Michael W. Deem and Ramdas Pophale) SiO2 
 PCOD9307148
Probable space group: C 2/C
;
_chemical_formula_sum "Si O2"
_cell_formula_units_Z 48
_cell_length_a 13.904440
_cell_length_b 35.335842
_cell_length_c 13.427334
_cell_angle_alpha 90.000000
_cell_angle_beta 21.118533
_cell_angle_gamma 90.000000
_cell_volume 2376.956698
_symmetry_space_group_name_H-M "C 2/C"
_symmetry_group_IT_number 15
_symmetry_cell_setting 'monoclinic'
loop_
_space_group_symop_operation_xyz
x,y,z
-x,y,1/2-z
-x,-y,-z
x,-y,1/2+z
1/2+x,1/2+y,z
1/2-x,1/2+y,1/2-z
1/2-x,1/2-y,-z
1/2+x,1/2-y,1/2+z
loop_
_atom_site_type_symbol
_atom_site_label
_atom_site_fract_x
_atom_site_fract_y
_atom_site_fract_z
Si Si1 0.935600 0.776735 0.518776
Si Si2 0.265691 0.978199 0.278508
Si Si3 0.000000 0.177962 0.750000
Si Si4 0.000000 0.897998 0.750000
Si Si5 0.000000 0.548793 0.750000
Si Si6 0.000000 0.378097 0.750000
Si Si7 0.601187 0.103447 0.937781
Si Si8 0.941407 0.856062 0.604431
O O1 0.662743 0.754808 0.801570
O O2 0.970530 0.795811 0.376062
O O3 0.943477 0.811069 0.590288
O O4 0.343653 0.975947 0.319285
O O5 0.297467 0.935038 0.210906
O O6 0.000000 0.000000 0.500000
O O7 0.500000 0.000000 0.000000
O O8 0.251829 0.150180 0.498996
O O9 0.259862 0.924125 0.520866
O O10 0.953470 0.872281 0.892149
O O11 0.013269 0.402433 0.636674
O O12 0.857406 0.129974 0.675907
O O13 0.348772 0.125095 0.132990
#
# Coordination Sequence:
#
# PCOD9307148 Si02
#       8
#     8   8   4   4   4   4   8   8
#     4  12  24  40  61  98 142 178 224 288 352 414
#     4  12  26  45  70 106 145 179 224 292 357 420
#     4  12  22  39  64  95 131 188 236 272 335 421
#     4  12  22  44  76 104 120 180 252 292 330 400
#     4  12  24  45  76 103 135 184 240 282 339 425
#     4  12  22  40  68 100 136 176 234 284 336 418
#     4  12  23  44  69  99 138 180 230 284 343 411
#     4  12  23  43  70 100 130 178 240 290 339 403
#
# _framework density 20.193888999999999
#
# number of rings (size 3 to 8) (size 9 to 14) (size 15 to 20)
#    0.000    0.000    6.667    4.500    0.000    0.667 
#    0.000    2.500    0.000    0.000    0.000    0.000 
#    0.000    0.000    0.000    0.000    0.000    0.000 
#
# Total GULP energy -134032.184393 kJ/mol
# GULP energy per Si atom -5584.674350 kJ/mol
# Density = 2.014793 g / cm^3
# Si number density = 20.193889 Si / 1000 Ang^3
#
#
#
# Elastic Constant Matrix: (Units=GPa)
#
#
# Indices 1 2 3 4 5 6 
#
# 1 134.9204 153.1005 172.9957 -0.0001 -18.7159 0.0002
# 2 153.1005 520.7952 614.6896 -0.0005 -113.0914 0.0001
# 3 172.9957 614.6896 920.5619 -0.0005 -159.0979 0.0009
# 4 -0.0001 -0.0005 -0.0005 42.3364 0.0001 2.2505
# 5 -18.7159 -113.0914 -159.0979 0.0001 57.3634 -0.0002
# 6 0.0002 0.0001 0.0009 2.2505 -0.0002 33.2368
#
#
#
# Elastic Compliance Matrix: (Units=1/GPa)
#
#
# Indices 1 2 3 4 5 6 
#
# 1 0.011990 -0.004426 -0.000249 0.000000 -0.005505 0.000000
# 2 -0.004426 0.010827 -0.005682 0.000000 0.004143 0.000000
# 3 -0.000249 -0.005682 0.005718 0.000000 0.004575 0.000000
# 4 0.000000 0.000000 0.000000 0.023706 0.000000 -0.001605
# 5 -0.005505 0.004143 0.004575 0.000000 0.036494 0.000000
# 6 0.000000 0.000000 0.000000 -0.001605 0.000000 0.030196
#
#
# Mechanical properties :
#
#
# Convention : Reuss Voigt Hill
#
# Bulk Modulus (GPa) = 127.86485 384.20543 256.03514
# Shear Modulus (GPa) = 35.14872 68.95343 52.05108
#
# Velocity S-wave (km/s) = 4.17653 5.84977 5.08248
# Velocity P-wave (km/s) = 9.31203 15.37198 12.70849
#
# Compressibility (1/GPa) = 0.00782076
#
# Stress axis : x y z
#
# Youngs Moduli (GPa) = 83.40153 92.35875 174.88696
#
# Poissons Ratio (x) = 0.40879 0.04359
# Poissons Ratio (y) = 0.36914 0.99371
# Poissons Ratio (z) = 0.02079 0.52479
#
# Static dielectric constant tensor:
#      x y z
#    x 1.821820 0.000000 0.048680 
#    y 0.000000 2.034570 0.000000 
#    z 0.048680 0.000000 1.729770 
# 
# From -- ./inp_files/157687.got.cif
#   From: 2010.05.17/outbox.cif.g08.bks.cpg/sg15_79_cif.got.tgz:157687.got - 2010.06.03 18:47:42.
