data_PCOD9307754
_publ_section_title
;
Structure prediction by ZEFSAII (Michael W. Deem and Ramdas Pophale) SiO2 
 PCOD9307754
Probable space group: C 2/C
;
_chemical_formula_sum "Si O2"
_cell_formula_units_Z 48
_cell_length_a 13.663522
_cell_length_b 9.475827
_cell_length_c 26.960725
_cell_angle_alpha 90.000000
_cell_angle_beta 143.410777
_cell_angle_gamma 90.000000
_cell_volume 2080.709387
_symmetry_space_group_name_H-M "C 2/C"
_symmetry_group_IT_number 15
_symmetry_cell_setting 'monoclinic'
loop_
_space_group_symop_operation_xyz
x,y,z
-x,y,1/2-z
-x,-y,-z
x,-y,1/2+z
1/2+x,1/2+y,z
1/2-x,1/2+y,1/2-z
1/2-x,1/2-y,-z
1/2+x,1/2-y,1/2+z
loop_
_atom_site_type_symbol
_atom_site_label
_atom_site_fract_x
_atom_site_fract_y
_atom_site_fract_z
Si Si1 0.177951 0.655293 0.326124
Si Si2 0.694188 0.691177 0.332163
Si Si3 0.794161 0.592269 0.825249
Si Si4 0.340627 0.844280 0.995586
Si Si5 0.662054 0.432053 0.171394
Si Si6 0.689779 0.652676 0.930626
O O1 0.175634 0.774445 0.282635
O O2 0.314770 0.543541 0.363942
O O3 0.199030 0.745324 0.385627
O O4 0.000000 0.582076 0.250000
O O5 0.500000 0.718184 0.250000
O O6 0.726341 0.528760 0.332817
O O7 0.778455 0.721746 0.418858
O O8 0.786602 0.782489 0.329244
O O9 0.788996 0.534444 0.767477
O O10 0.967696 0.651817 0.913752
O O11 0.299050 0.011057 0.973737
O O12 0.250000 0.750000 0.000000
O O13 0.485920 0.415787 0.125462
O O14 0.750000 0.750000 0.000000
#
# Coordination Sequence:
#
# PCOD9307754 Si02
#       6
#     8   8   8   8   8   8
#     4  12  26  48  75 107 150 198 249 310 379 453
#     4  12  25  46  72 103 143 187 244 302 373 450
#     4  12  24  47  73 102 145 192 249 301 377 446
#     4  12  27  46  72 106 144 191 242 309 372 446
#     4  12  27  46  75 107 144 198 248 305 375 456
#     4  12  28  48  72 109 150 191 249 311 379 445
#
# _framework density 23.069056
#
# number of rings (size 3 to 8) (size 9 to 14) (size 15 to 20)
#    0.000    0.000    3.333    6.500    7.000    0.667 
#    0.000    0.000    0.000    0.000    0.000    0.000 
#    0.000    0.000    0.000    0.000    0.000    0.000 
#
# Total GULP energy -134166.595222 kJ/mol
# GULP energy per Si atom -5590.274801 kJ/mol
# Density = 2.301655 g / cm^3
# Si number density = 23.069056 Si / 1000 Ang^3
#
#
#
# Elastic Constant Matrix: (Units=GPa)
#
#
# Indices 1 2 3 4 5 6 
#
# 1 77.4864 9.8513 44.0653 0.0000 -9.0261 0.0000
# 2 9.8513 74.6899 6.9685 0.0000 -6.9433 0.0000
# 3 44.0653 6.9685 120.3506 0.0000 -14.1728 0.0000
# 4 0.0000 0.0000 0.0000 12.9506 0.0000 -0.0178
# 5 -9.0261 -6.9433 -14.1728 0.0000 42.6193 0.0000
# 6 0.0000 0.0000 0.0000 -0.0178 0.0000 62.9951
#
#
#
# Elastic Compliance Matrix: (Units=1/GPa)
#
#
# Indices 1 2 3 4 5 6 
#
# 1 0.016563 -0.001518 -0.005820 0.000000 0.001325 0.000000
# 2 -0.001518 0.013769 -0.000016 0.000000 0.001916 0.000000
# 3 -0.005820 -0.000016 0.010715 0.000000 0.002328 0.000000
# 4 0.000000 0.000000 0.000000 0.077216 0.000000 0.000022
# 5 0.001325 0.001916 0.002328 0.000000 0.024831 0.000000
# 6 0.000000 0.000000 0.000000 0.000022 0.000000 0.015874
#
#
# Mechanical properties :
#
#
# Convention : Reuss Voigt Hill
#
# Bulk Modulus (GPa) = 37.96819 43.81080 40.88950
# Shear Modulus (GPa) = 27.40391 37.82247 32.61319
#
# Velocity S-wave (km/s) = 3.45034 4.05351 3.76403
# Velocity P-wave (km/s) = 5.68923 6.39846 6.05424
#
# Compressibility (1/GPa) = 0.02633784
#
# Stress axis : x y z
#
# Youngs Moduli (GPa) = 60.37610 72.62923 93.32526
#
# Poissons Ratio (x) = 0.11028 0.54319
# Poissons Ratio (y) = 0.09167 0.00146
# Poissons Ratio (z) = 0.35141 0.00113
#
# Static dielectric constant tensor:
#      x y z
#    x 1.917430 0.000000 0.044730 
#    y 0.000000 1.844540 0.000000 
#    z 0.044730 0.000000 1.725330 
# 
# From -- ./inp_files/295456.got.cif
#   From: 2010.05.17/outbox.cif.g08.bks.cpg/sg15_148_cif.got.tgz:295456.got - 2010.06.03 18:47:42.
