data_PCOD9307647
_publ_section_title
;
Structure prediction by ZEFSAII (Michael W. Deem and Ramdas Pophale) SiO2 
 PCOD9307647
Probable space group: C 2/C
;
_chemical_formula_sum "Si O2"
_cell_formula_units_Z 52
_cell_length_a 9.082472
_cell_length_b 19.450804
_cell_length_c 16.838504
_cell_angle_alpha 90.000000
_cell_angle_beta 133.803989
_cell_angle_gamma 90.000000
_cell_volume 2146.886471
_symmetry_space_group_name_H-M "C 2/C"
_symmetry_group_IT_number 15
_symmetry_cell_setting 'monoclinic'
loop_
_space_group_symop_operation_xyz
x,y,z
-x,y,1/2-z
-x,-y,-z
x,-y,1/2+z
1/2+x,1/2+y,z
1/2-x,1/2+y,1/2-z
1/2-x,1/2-y,-z
1/2+x,1/2-y,1/2+z
loop_
_atom_site_type_symbol
_atom_site_label
_atom_site_fract_x
_atom_site_fract_y
_atom_site_fract_z
Si Si1 0.353595 0.020309 0.271771
Si Si2 0.000000 0.234834 0.750000
Si Si3 0.166768 0.573747 0.511224
Si Si4 0.737558 0.816757 0.440111
Si Si5 0.193968 0.633155 0.697013
Si Si6 0.058168 0.040772 0.439558
Si Si7 0.668869 0.305711 0.530699
O O1 0.500000 0.025153 0.250000
O O2 0.465584 0.043493 0.393848
O O3 0.152577 0.063187 0.178571
O O4 0.285885 0.940528 0.253783
O O5 0.104999 0.180082 0.729075
O O6 0.190568 0.283695 0.842372
O O7 0.145449 0.614504 0.585788
O O8 0.323224 0.510729 0.574282
O O9 0.261268 0.622809 0.479341
O O10 0.750000 0.750000 0.500000
O O11 0.497082 0.827423 0.336120
O O12 0.802820 0.892914 0.494727
O O13 0.927953 0.802765 0.453150
O O14 0.000000 0.000000 0.500000
O O15 0.750000 0.250000 0.500000
#
# Coordination Sequence:
#
# PCOD9307647 Si02
#       7
#     8   4   8   8   8   8   8
#     4  12  25  42  74 110 140 198 253 310 382 454
#     4  12  26  46  74 106 140 206 240 298 390 462
#     4  12  25  48  73 108 146 198 250 315 382 456
#     4  12  24  46  74 105 149 193 244 317 381 447
#     4  12  26  48  76 107 151 190 253 317 381 461
#     4  12  24  44  73 106 149 194 251 317 374 460
#     4  12  26  46  76 102 149 197 248 302 383 461
#
# _framework density 24.221122999999999
#
# number of rings (size 3 to 8) (size 9 to 14) (size 15 to 20)
#    0.000    0.000    7.692    1.385    3.231    0.000 
#    0.000    0.000    3.385    0.000    0.000    0.000 
#    0.000    0.000    0.000    0.000    0.000    0.000 
#
# Total GULP energy -145438.808383 kJ/mol
# GULP energy per Si atom -5593.800322 kJ/mol
# Density = 2.416599 g / cm^3
# Si number density = 24.221123 Si / 1000 Ang^3
#
#
#
# Elastic Constant Matrix: (Units=GPa)
#
#
# Indices 1 2 3 4 5 6 
#
# 1 164.1622 46.3832 46.7461 0.0000 24.1548 0.0000
# 2 46.3832 110.0831 -4.1561 0.0000 -0.6396 0.0000
# 3 46.7461 -4.1561 78.4862 0.0001 8.9698 0.0000
# 4 0.0000 0.0000 0.0001 15.6337 0.0000 7.1941
# 5 24.1548 -0.6396 8.9698 0.0000 47.8527 0.0000
# 6 0.0000 0.0000 0.0000 7.1941 0.0000 58.1419
#
#
#
# Elastic Compliance Matrix: (Units=1/GPa)
#
#
# Indices 1 2 3 4 5 6 
#
# 1 0.009348 -0.004163 -0.005357 0.000000 -0.003770 0.000000
# 2 -0.004163 0.010956 0.002864 0.000000 0.001711 0.000000
# 3 -0.005357 0.002864 0.016115 0.000000 -0.000278 0.000000
# 4 0.000000 0.000000 0.000000 0.067826 0.000000 -0.008392
# 5 -0.003770 0.001711 -0.000278 0.000000 0.022876 0.000000
# 6 0.000000 0.000000 0.000000 -0.008392 0.000000 0.018238
#
#
# Mechanical properties :
#
#
# Convention : Reuss Voigt Hill
#
# Bulk Modulus (GPa) = 43.27635 58.96418 51.12027
# Shear Modulus (GPa) = 30.05289 41.90955 35.98122
#
# Velocity S-wave (km/s) = 3.52628 4.16419 3.85844
# Velocity P-wave (km/s) = 5.87244 6.89330 6.40325
#
# Compressibility (1/GPa) = 0.02310731
#
# Stress axis : x y z
#
# Youngs Moduli (GPa) = 106.97526 91.27304 62.05288
#
# Poissons Ratio (x) = 0.37996 0.33243
# Poissons Ratio (y) = 0.44533 -0.17772
# Poissons Ratio (z) = 0.57309 -0.26141
#
# Static dielectric constant tensor:
#      x y z
#    x 1.933730 0.000000 -0.028300 
#    y 0.000000 1.963540 0.000000 
#    z -0.028300 0.000000 2.074430 
# 
# From -- ./inp_files/192599.got.cif
#   From: 2010.05.17/outbox.cif.g08.bks.cpg/sg15_97_cif.got.tgz:192599.got - 2010.06.03 18:47:42.
