data_PCOD9307961
_publ_section_title
;
Structure prediction by ZEFSAII (Michael W. Deem and Ramdas Pophale) SiO2 
 PCOD9307961
Probable space group: C 2/C
;
_chemical_formula_sum "Si O2"
_cell_formula_units_Z 32
_cell_length_a 9.451821
_cell_length_b 16.459888
_cell_length_c 12.980727
_cell_angle_alpha 90.000000
_cell_angle_beta 128.750912
_cell_angle_gamma 90.000000
_cell_volume 1574.947610
_symmetry_space_group_name_H-M "C 2/C"
_symmetry_group_IT_number 15
_symmetry_cell_setting 'monoclinic'
loop_
_space_group_symop_operation_xyz
x,y,z
-x,y,1/2-z
-x,-y,-z
x,-y,1/2+z
1/2+x,1/2+y,z
1/2-x,1/2+y,1/2-z
1/2-x,1/2-y,-z
1/2+x,1/2-y,1/2+z
loop_
_atom_site_type_symbol
_atom_site_label
_atom_site_fract_x
_atom_site_fract_y
_atom_site_fract_z
Si Si1 0.112897 0.553378 0.629843
Si Si2 0.668627 0.325396 0.523712
Si Si3 0.535754 0.234844 0.887691
Si Si4 0.000000 0.562664 0.250000
Si Si5 0.500000 0.398044 0.250000
O O1 0.111219 0.499234 0.730173
O O2 0.312373 0.557005 0.675135
O O3 0.000000 0.500000 0.500000
O O4 0.029734 0.643274 0.611055
O O5 0.750000 0.250000 0.500000
O O6 0.575196 0.295568 0.587093
O O7 0.521679 0.355498 0.372218
O O8 0.842920 0.382852 0.625363
O O9 0.500000 0.246900 0.750000
O O10 0.750000 0.250000 0.000000
#
# Coordination Sequence:
#
# PCOD9307961 Si02
#       5
#     8   8   8   4   4
#     4  12  26  48  72 110 149 190 241 312 372 440
#     4  12  26  46  79 105 143 199 250 300 369 452
#     4  12  28  47  72 108 150 191 248 307 366 440
#     4  12  27  48  72 109 150 188 248 304 379 438
#     4  12  25  46  78 105 146 192 254 298 375 434
#
# _framework density 20.318135999999999
#
# number of rings (size 3 to 8) (size 9 to 14) (size 15 to 20)
#    0.000    0.000    6.250    2.250    7.000    3.000 
#    0.000    0.000    0.000    0.000    0.000    0.000 
#    0.000    0.000    0.000    0.000    0.000    0.000 
#
# Total GULP energy -89279.895277 kJ/mol
# GULP energy per Si atom -5579.993455 kJ/mol
# Density = 2.027189 g / cm^3
# Si number density = 20.318136 Si / 1000 Ang^3
#
#
#
# Elastic Constant Matrix: (Units=GPa)
#
#
# Indices 1 2 3 4 5 6 
#
# 1 164.5257 56.1336 57.2198 0.0000 0.9436 0.0000
# 2 56.1336 93.2380 47.1044 0.0000 5.4960 0.0000
# 3 57.2198 47.1044 148.5702 0.0000 2.7223 0.0000
# 4 0.0000 0.0000 0.0000 40.0305 0.0000 12.5276
# 5 0.9436 5.4960 2.7223 0.0000 51.5352 0.0000
# 6 0.0000 0.0000 0.0000 12.5276 0.0000 -14.5232
#
#
#
# Elastic Compliance Matrix: (Units=1/GPa)
#
#
# Indices 1 2 3 4 5 6 
#
# 1 0.008068 -0.003936 -0.001866 0.000000 0.000371 0.000000
# 2 -0.003936 0.014760 -0.003139 0.000000 -0.001336 0.000000
# 3 -0.001866 -0.003139 0.008446 0.000000 -0.000077 0.000000
# 4 0.000000 0.000000 0.000000 0.019671 0.000000 0.016968
# 5 0.000371 -0.001336 -0.000077 0.000000 0.019544 0.000000
# 6 0.000000 0.000000 0.000000 0.016968 0.000000 -0.054219
#
#
# Mechanical properties :
#
#
# Convention : Reuss Voigt Hill
#
# Bulk Modulus (GPa) = 74.67754 80.80549 77.74152
# Shear Modulus (GPa) = 129.47838 31.80023 80.63930
#
# Velocity S-wave (km/s) = 7.99149 3.96045 6.30670
# Velocity P-wave (km/s) = 11.04472 7.79551 9.55918
#
# Compressibility (1/GPa) = 0.01339091
#
# Stress axis : x y z
#
# Youngs Moduli (GPa) = 123.94692 67.75167 118.39703
#
# Poissons Ratio (x) = 0.26670 0.22093
# Poissons Ratio (y) = 0.48791 0.37166
# Poissons Ratio (z) = 0.23129 0.21268
#
# Static dielectric constant tensor:
#      x y z
#    x 1.660510 0.000000 0.119560 
#    y 0.000000 1.660430 0.000000 
#    z 0.119560 0.000000 1.264050 
# 
# From -- ./inp_files/56353.got.cif
#   From: 2010.05.17/outbox.cif.g08.bks.cpg/sg15_29_cif.got.tgz:56353.got - 2010.06.03 18:47:42.
