data_PCOD9307774
_publ_section_title
;
Structure prediction by ZEFSAII (Michael W. Deem and Ramdas Pophale) SiO2 
 PCOD9307774
Probable space group: C 2/C
;
_chemical_formula_sum "Si O2"
_cell_formula_units_Z 60
_cell_length_a 20.200711
_cell_length_b 9.130592
_cell_length_c 23.971644
_cell_angle_alpha 90.000000
_cell_angle_beta 38.657888
_cell_angle_gamma 90.000000
_cell_volume 2761.933896
_symmetry_space_group_name_H-M "C 2/C"
_symmetry_group_IT_number 15
_symmetry_cell_setting 'monoclinic'
loop_
_space_group_symop_operation_xyz
x,y,z
-x,y,1/2-z
-x,-y,-z
x,-y,1/2+z
1/2+x,1/2+y,z
1/2-x,1/2+y,1/2-z
1/2-x,1/2-y,-z
1/2+x,1/2-y,1/2+z
loop_
_atom_site_type_symbol
_atom_site_label
_atom_site_fract_x
_atom_site_fract_y
_atom_site_fract_z
Si Si1 0.608202 0.284451 0.144457
Si Si2 0.750000 0.750000 0.000000
Si Si3 0.831730 0.097052 0.227729
Si Si4 0.977521 0.055854 0.953254
Si Si5 0.457101 0.861646 0.928761
Si Si6 0.843505 0.560681 0.732082
Si Si7 0.730815 0.001004 0.596051
Si Si8 0.248163 0.532548 0.406554
O O1 0.500000 0.288122 0.250000
O O2 0.583570 0.227658 0.098820
O O3 0.665830 0.439487 0.114193
O O4 0.684593 0.161773 0.119616
O O5 0.703271 0.902144 0.060154
O O6 0.769559 0.683271 0.049438
O O7 0.842662 0.271205 0.213128
O O8 0.792231 0.059262 0.315824
O O9 0.748729 0.028860 0.238636
O O10 0.944172 0.021444 0.141807
O O11 0.999718 0.229473 0.938390
O O12 0.857062 0.015524 0.018029
O O13 0.000000 0.000000 0.000000
O O14 0.547020 0.976862 0.852579
O O15 0.360113 0.941729 0.022391
O O16 0.819424 0.560136 0.813769
#
# Coordination Sequence:
#
# PCOD9307774 Si02
#       8
#     8   4   8   8   8   8   8   8
#     4  12  24  47  80 108 145 203 246 309 374 452
#     4  12  26  46  76 108 152 200 244 312 380 444
#     4  12  29  49  75 110 152 198 252 318 380 455
#     4  12  27  47  78 107 148 198 248 310 381 446
#     4  12  26  47  76 111 148 199 250 304 381 454
#     4  12  28  48  76 111 152 197 254 316 378 450
#     4  12  25  50  76 106 155 191 250 315 378 448
#     4  12  27  48  73 110 154 195 254 308 377 459
#
# _framework density 21.723908999999999
#
# number of rings (size 3 to 8) (size 9 to 14) (size 15 to 20)
#    0.000    0.000    6.667    2.800    5.600    0.533 
#    0.000    2.000    0.000    0.000    0.000    0.000 
#    0.000    0.000    0.000    0.000    0.000    0.000 
#
# Total GULP energy -167557.818044 kJ/mol
# GULP energy per Si atom -5585.260601 kJ/mol
# Density = 2.167446 g / cm^3
# Si number density = 21.723909 Si / 1000 Ang^3
#
#
#
# Elastic Constant Matrix: (Units=GPa)
#
#
# Indices 1 2 3 4 5 6 
#
# 1 59.6197 19.0928 38.6514 0.0000 -2.0269 -0.0001
# 2 19.0928 111.4726 48.8021 0.0001 1.9313 -0.0002
# 3 38.6514 48.8021 167.5747 0.0000 -0.9065 0.0000
# 4 0.0000 0.0001 0.0000 28.0837 0.0000 12.1275
# 5 -2.0269 1.9313 -0.9065 0.0000 41.8702 0.0000
# 6 -0.0001 -0.0002 0.0000 12.1275 0.0000 31.8757
#
#
#
# Elastic Compliance Matrix: (Units=1/GPa)
#
#
# Indices 1 2 3 4 5 6 
#
# 1 0.020009 -0.001634 -0.004134 0.000000 0.000954 0.000000
# 2 -0.001634 0.010427 -0.002663 0.000000 -0.000618 0.000000
# 3 -0.004134 -0.002663 0.007697 0.000000 0.000089 0.000000
# 4 0.000000 0.000000 0.000000 0.042608 0.000000 -0.016211
# 5 0.000954 -0.000618 0.000089 0.000000 0.023960 0.000000
# 6 0.000000 0.000000 0.000000 -0.016211 0.000000 0.037539
#
#
# Mechanical properties :
#
#
# Convention : Reuss Voigt Hill
#
# Bulk Modulus (GPa) = 47.01221 61.30662 54.15942
# Shear Modulus (GPa) = 30.08546 35.84064 32.96305
#
# Velocity S-wave (km/s) = 3.72546 4.06621 3.89956
# Velocity P-wave (km/s) = 6.33981 7.09419 6.72758
#
# Compressibility (1/GPa) = 0.02127107
#
# Stress axis : x y z
#
# Youngs Moduli (GPa) = 49.97817 95.90231 129.91893
#
# Poissons Ratio (x) = 0.15668 0.53710
# Poissons Ratio (y) = 0.08165 0.34600
# Poissons Ratio (z) = 0.20662 0.25541
#
# Static dielectric constant tensor:
#      x y z
#    x 1.791400 0.000000 0.002500 
#    y 0.000000 1.826960 0.000000 
#    z 0.002500 0.000000 1.764510 
# 
# From -- ./inp_files/279662.got.cif
#   From: 2010.05.17/outbox.cif.g08.bks.cpg/sg15_140_cif.got.tgz:279662.got - 2010.06.03 18:47:42.
