data_PCOD9307063
_publ_section_title
;
Structure prediction by ZEFSAII (Michael W. Deem and Ramdas Pophale) SiO2 
 PCOD9307063
Probable space group: C 2/C
;
_chemical_formula_sum "Si O2"
_cell_formula_units_Z 48
_cell_length_a 30.607395
_cell_length_b 7.559131
_cell_length_c 18.313987
_cell_angle_alpha 90.000000
_cell_angle_beta 141.220822
_cell_angle_gamma 90.000000
_cell_volume 2653.858739
_symmetry_space_group_name_H-M "C 2/C"
_symmetry_group_IT_number 15
_symmetry_cell_setting 'monoclinic'
loop_
_space_group_symop_operation_xyz
x,y,z
-x,y,1/2-z
-x,-y,-z
x,-y,1/2+z
1/2+x,1/2+y,z
1/2-x,1/2+y,1/2-z
1/2-x,1/2-y,-z
1/2+x,1/2-y,1/2+z
loop_
_atom_site_type_symbol
_atom_site_label
_atom_site_fract_x
_atom_site_fract_y
_atom_site_fract_z
Si Si1 0.942466 0.044151 0.486147
Si Si2 0.942465 0.455850 0.486145
Si Si3 0.439604 0.749999 0.109348
Si Si4 0.280118 0.250003 0.458562
Si Si5 0.709156 0.543091 0.770512
Si Si6 0.209156 0.543096 0.270514
O O1 0.947674 0.250001 0.514119
O O2 0.945643 0.917333 0.561406
O O3 0.869694 0.010311 0.349941
O O4 0.000000 0.000000 0.500000
O O5 0.945642 0.582670 0.561404
O O6 0.869693 0.489691 0.349939
O O7 0.000000 0.500000 0.500000
O O8 0.500000 0.750001 0.250000
O O9 0.363203 0.749998 0.049021
O O10 0.250000 0.250000 0.500000
O O11 0.246185 0.422545 0.377854
O O12 0.246184 0.077465 0.377850
O O13 0.750000 0.499998 0.749999
O O14 0.712783 0.749997 0.792204
#
# Coordination Sequence:
#
# PCOD9307063 Si02
#       6
#     8   8   8   8   8   8
#     4  12  23  42  72 101 130 178 228 275 330 403
#     4  12  23  42  72 101 130 178 228 275 330 403
#     4  12  28  46  64 104 145 174 219 283 344 394
#     4  12  28  44  68 102 141 178 220 286 339 387
#     4  12  21  42  72  99 126 175 234 279 324 396
#     4  12  21  42  72  99 126 175 234 279 324 396
#
# _framework density 18.086870999999999
#
# number of rings (size 3 to 8) (size 9 to 14) (size 15 to 20)
#    0.000    0.000   10.000    0.000    4.667    1.333 
#    0.000    0.000    0.000    0.000    0.000    0.000 
#    0.000    0.000    0.000    0.000    0.000    0.000 
#
# Total GULP energy -134070.567764 kJ/mol
# GULP energy per Si atom -5586.273657 kJ/mol
# Density = 1.804570 g / cm^3
# Si number density = 18.086871 Si / 1000 Ang^3
#
#
#
# Elastic Constant Matrix: (Units=GPa)
#
#
# Indices 1 2 3 4 5 6 
#
# 1 197.1052 68.0322 101.5267 0.0000 9.6121 0.0000
# 2 68.0322 205.5711 74.4999 -0.0001 -10.2254 0.0000
# 3 101.5267 74.4999 160.0063 0.0000 11.2243 0.0000
# 4 0.0000 -0.0001 0.0000 34.3108 0.0000 -2.7655
# 5 9.6121 -10.2254 11.2243 0.0000 47.1532 0.0000
# 6 0.0000 0.0000 0.0000 -2.7655 0.0000 24.5036
#
#
#
# Elastic Compliance Matrix: (Units=1/GPa)
#
#
# Indices 1 2 3 4 5 6 
#
# 1 0.007708 -0.001004 -0.004371 0.000000 -0.000749 0.000000
# 2 -0.001004 0.006165 -0.002381 0.000000 0.002108 0.000000
# 3 -0.004371 -0.002381 0.010277 0.000000 -0.002072 0.000000
# 4 0.000000 0.000000 0.000000 0.029413 0.000000 0.003320
# 5 -0.000749 0.002108 -0.002072 0.000000 0.022310 0.000000
# 6 0.000000 0.000000 0.000000 0.003320 0.000000 0.041185
#
#
# Mechanical properties :
#
#
# Convention : Reuss Voigt Hill
#
# Bulk Modulus (GPa) = 115.77184 116.75557 116.26371
# Shear Modulus (GPa) = 36.91439 42.43511 39.67475
#
# Velocity S-wave (km/s) = 4.52259 4.84900 4.68863
# Velocity P-wave (km/s) = 9.56135 9.80016 9.68149
#
# Compressibility (1/GPa) = 0.00863768
#
# Stress axis : x y z
#
# Youngs Moduli (GPa) = 129.73837 162.21747 97.30475
#
# Poissons Ratio (x) = 0.16289 0.42529
# Poissons Ratio (y) = 0.13027 0.23168
# Poissons Ratio (z) = 0.56705 0.38624
#
# Static dielectric constant tensor:
#      x y z
#    x 1.776630 0.000000 0.029640 
#    y 0.000000 1.623580 0.000000 
#    z 0.029640 0.000000 1.573970 
# 
# From -- ./inp_files/176987.got.cif
#   From: 2010.05.17/outbox.cif.g08.bks.cpg/sg15_89_cif.got.tgz:176987.got - 2010.06.03 18:47:42.
