data_PCOD9307524
_publ_section_title
;
Structure prediction by ZEFSAII (Michael W. Deem and Ramdas Pophale) SiO2 
 PCOD9307524
Probable space group: C 2/C
;
_chemical_formula_sum "Si O2"
_cell_formula_units_Z 44
_cell_length_a 7.895287
_cell_length_b 26.289445
_cell_length_c 14.873329
_cell_angle_alpha 90.000000
_cell_angle_beta 42.428713
_cell_angle_gamma 90.000000
_cell_volume 2082.813810
_symmetry_space_group_name_H-M "C 2/C"
_symmetry_group_IT_number 15
_symmetry_cell_setting 'monoclinic'
loop_
_space_group_symop_operation_xyz
x,y,z
-x,y,1/2-z
-x,-y,-z
x,-y,1/2+z
1/2+x,1/2+y,z
1/2-x,1/2+y,1/2-z
1/2-x,1/2-y,-z
1/2+x,1/2-y,1/2+z
loop_
_atom_site_type_symbol
_atom_site_label
_atom_site_fract_x
_atom_site_fract_y
_atom_site_fract_z
Si Si1 0.509315 0.233366 0.851293
Si Si2 0.392526 0.171738 0.193654
Si Si3 0.474570 0.047971 0.942791
Si Si4 0.070712 0.927252 0.818392
Si Si5 0.000000 0.512872 0.250000
Si Si6 0.281105 0.849809 0.105878
O O1 0.500000 0.222160 0.750000
O O2 0.725399 0.277257 0.769889
O O3 0.568677 0.182524 0.880879
O O4 0.250000 0.250000 0.000000
O O5 0.500000 0.161148 0.250000
O O6 0.208287 0.125230 0.240278
O O7 0.615668 0.170382 0.031513
O O8 0.663097 0.090514 0.905542
O O9 0.498449 0.022853 0.836782
O O10 0.209150 0.077168 0.036905
O O11 0.500000 0.000000 0.000000
O O12 0.253971 0.953456 0.820056
O O13 0.000000 0.954583 0.750000
O O14 0.000000 0.840466 0.250000
#
# Coordination Sequence:
#
# PCOD9307524 Si02
#       6
#     8   8   8   8   4   8
#     4  12  26  48  77 110 152 200 253 314 392 458
#     4  12  26  48  78 107 146 205 251 310 386 468
#     4  12  27  47  75 107 154 200 253 321 384 451
#     4  12  23  48  75 105 146 192 262 305 378 466
#     4  12  26  44  74 114 138 206 250 322 388 450
#     4  12  29  48  73 116 154 198 261 323 380 460
#
# _framework density 21.125268999999999
#
# number of rings (size 3 to 8) (size 9 to 14) (size 15 to 20)
#    0.000    0.000    6.364    2.727    6.364    2.909 
#    0.000    0.000    0.000    0.000    0.000    0.000 
#    0.000    0.000    0.000    0.000    0.000    0.000 
#
# Total GULP energy -122622.485893 kJ/mol
# GULP energy per Si atom -5573.749359 kJ/mol
# Density = 2.107719 g / cm^3
# Si number density = 21.125269 Si / 1000 Ang^3
#
#
#
# Elastic Constant Matrix: (Units=GPa)
#
#
# Indices 1 2 3 4 5 6 
#
# 1 110.0739 17.9056 43.7235 0.0000 28.8855 0.0000
# 2 17.9056 87.1049 36.7667 0.0000 10.0126 0.0000
# 3 43.7235 36.7667 138.0907 0.0000 22.3184 0.0000
# 4 0.0000 0.0000 0.0000 86.5339 0.0000 -10.7820
# 5 28.8855 10.0126 22.3184 0.0000 52.3762 0.0000
# 6 0.0000 0.0000 0.0000 -10.7820 0.0000 11.0291
#
#
#
# Elastic Compliance Matrix: (Units=1/GPa)
#
#
# Indices 1 2 3 4 5 6 
#
# 1 0.011599 -0.000670 -0.002665 0.000000 -0.005134 0.000000
# 2 -0.000670 0.013030 -0.003130 0.000000 -0.000788 0.000000
# 3 -0.002665 -0.003130 0.009219 0.000000 -0.001861 0.000000
# 4 0.000000 0.000000 0.000000 0.013159 0.000000 0.012864
# 5 -0.005134 -0.000788 -0.001861 0.000000 0.022867 0.000000
# 6 0.000000 0.000000 0.000000 0.012864 0.000000 0.103245
#
#
# Mechanical properties :
#
#
# Convention : Reuss Voigt Hill
#
# Bulk Modulus (GPa) = 47.80057 59.11790 53.45924
# Shear Modulus (GPa) = 25.90389 45.77941 35.84165
#
# Velocity S-wave (km/s) = 3.50552 4.66020 4.12348
# Velocity P-wave (km/s) = 6.24990 7.54996 6.93048
#
# Compressibility (1/GPa) = 0.02092025
#
# Stress axis : x y z
#
# Youngs Moduli (GPa) = 86.21173 76.74772 108.46712
#
# Poissons Ratio (x) = 0.05138 0.28904
# Poissons Ratio (y) = 0.05772 0.33948
# Poissons Ratio (z) = 0.22973 0.24021
#
# Static dielectric constant tensor:
#      x y z
#    x 1.741150 0.000000 -0.089180 
#    y 0.000000 1.719250 0.000000 
#    z -0.089180 0.000000 1.868680 
# 
# From -- ./inp_files/139207.got.cif
#   From: 2010.05.17/outbox.cif.g08.bks.cpg/sg15_70_cif.got.tgz:139207.got - 2010.06.03 18:47:42.
