data_PCOD9307503
_publ_section_title
;
Structure prediction by ZEFSAII (Michael W. Deem and Ramdas Pophale) SiO2 
 PCOD9307503
Probable space group: C 2/C
;
_chemical_formula_sum "Si O2"
_cell_formula_units_Z 60
_cell_length_a 11.732349
_cell_length_b 15.895452
_cell_length_c 15.431342
_cell_angle_alpha 90.000000
_cell_angle_beta 122.330740
_cell_angle_gamma 90.000000
_cell_volume 2431.674407
_symmetry_space_group_name_H-M "C 2/C"
_symmetry_group_IT_number 15
_symmetry_cell_setting 'monoclinic'
loop_
_space_group_symop_operation_xyz
x,y,z
-x,y,1/2-z
-x,-y,-z
x,-y,1/2+z
1/2+x,1/2+y,z
1/2-x,1/2+y,1/2-z
1/2-x,1/2-y,-z
1/2+x,1/2-y,1/2+z
loop_
_atom_site_type_symbol
_atom_site_label
_atom_site_fract_x
_atom_site_fract_y
_atom_site_fract_z
Si Si1 0.633095 0.763903 0.292834
Si Si2 0.801035 0.333857 0.565317
Si Si3 0.116472 0.729297 0.961675
Si Si4 0.175406 0.069140 0.255841
Si Si5 0.955487 0.414446 0.939078
Si Si6 0.352523 0.612083 0.804333
Si Si7 0.467607 0.386747 0.972226
Si Si8 0.500000 0.259775 0.250000
O O1 0.736717 0.770510 0.428312
O O2 0.483033 0.777514 0.172426
O O3 0.649130 0.661075 0.289679
O O4 0.721059 0.831228 0.271680
O O5 0.750000 0.250000 0.500000
O O6 0.673740 0.390877 0.534876
O O7 0.873151 0.299298 0.680676
O O8 0.915377 0.374562 0.553697
O O9 0.012638 0.791724 0.969940
O O10 0.102427 0.641196 0.005696
O O11 0.337926 0.073278 0.320012
O O12 0.066216 0.077807 0.135295
O O13 0.160428 0.967267 0.266776
O O14 0.000000 0.500000 0.000000
O O15 0.461243 0.678650 0.812383
O O16 0.411336 0.579379 0.920138
#
# Coordination Sequence:
#
# PCOD9307503 Si02
#       8
#     8   8   8   8   8   8   8   4
#     4  12  26  48  79 108 151 203 249 308 381 450
#     4  12  24  47  77 105 147 200 250 307 379 463
#     4  12  23  46  80 105 149 195 251 305 378 454
#     4  12  28  47  75 112 155 195 258 311 382 449
#     4  12  29  49  73 114 152 198 254 315 380 452
#     4  12  28  47  76 115 148 201 254 315 377 455
#     4  12  24  48  77 109 150 202 254 312 380 452
#     4  12  26  46  78 106 152 192 266 302 384 456
#
# _framework density 24.674358000000002
#
# number of rings (size 3 to 8) (size 9 to 14) (size 15 to 20)
#    0.000    0.000    6.667    2.800    4.667    1.067 
#    2.400    0.000    0.000    0.000    0.000    0.000 
#    0.000    0.000    0.000    0.000    0.000    0.000 
#
# Total GULP energy -167182.602003 kJ/mol
# GULP energy per Si atom -5572.753400 kJ/mol
# Density = 2.461820 g / cm^3
# Si number density = 24.674358 Si / 1000 Ang^3
#
#
#
# Elastic Constant Matrix: (Units=GPa)
#
#
# Indices 1 2 3 4 5 6 
#
# 1 83.9194 43.6017 20.2412 0.0000 30.0059 0.0000
# 2 43.6017 142.3410 20.8802 0.0000 6.6630 0.0000
# 3 20.2412 20.8802 115.0705 0.0000 24.1335 0.0000
# 4 0.0000 0.0000 0.0000 25.6972 0.0000 3.0425
# 5 30.0059 6.6630 24.1335 0.0000 53.2234 0.0000
# 6 0.0000 0.0000 0.0000 3.0425 0.0000 17.2916
#
#
#
# Elastic Compliance Matrix: (Units=1/GPa)
#
#
# Indices 1 2 3 4 5 6 
#
# 1 0.017935 -0.005014 -0.000283 0.000000 -0.009355 0.000000
# 2 -0.005014 0.008625 -0.001160 0.000000 0.002273 0.000000
# 3 -0.000283 -0.001160 0.009821 0.000000 -0.004148 0.000000
# 4 0.000000 0.000000 0.000000 0.039743 0.000000 -0.006993
# 5 -0.009355 0.002273 -0.004148 0.000000 0.025659 0.000000
# 6 0.000000 0.000000 0.000000 -0.006993 0.000000 0.059062
#
#
# Mechanical properties :
#
#
# Convention : Reuss Voigt Hill
#
# Bulk Modulus (GPa) = 42.61409 56.75303 49.68356
# Shear Modulus (GPa) = 27.53602 36.34961 31.94282
#
# Velocity S-wave (km/s) = 3.34425 3.84236 3.60192
# Velocity P-wave (km/s) = 5.67627 6.53725 6.12192
#
# Compressibility (1/GPa) = 0.02346642
#
# Stress axis : x y z
#
# Youngs Moduli (GPa) = 55.75800 115.94088 101.82729
#
# Poissons Ratio (x) = 0.58136 0.02880
# Poissons Ratio (y) = 0.27959 0.11810
# Poissons Ratio (z) = 0.01577 0.13446
#
# Static dielectric constant tensor:
#      x y z
#    x 2.137510 0.000000 -0.175200 
#    y 0.000000 1.892080 0.000000 
#    z -0.175200 0.000000 2.203940 
# 
# From -- ./inp_files/244717.got.cif
#   From: 2010.05.17/outbox.cif.g08.bks.cpg/sg15_123_cif.got.tgz:244717.got - 2010.06.03 18:47:42.
