data_PCOD9307372
_publ_section_title
;
Structure prediction by ZEFSAII (Michael W. Deem and Ramdas Pophale) SiO2 
 PCOD9307372
Probable space group: C 2/C
;
_chemical_formula_sum "Si O2"
_cell_formula_units_Z 28
_cell_length_a 17.012899
_cell_length_b 16.352712
_cell_length_c 4.830500
_cell_angle_alpha 90.000000
_cell_angle_beta 115.139542
_cell_angle_gamma 90.000000
_cell_volume 1216.581260
_symmetry_space_group_name_H-M "C 2/C"
_symmetry_group_IT_number 15
_symmetry_cell_setting 'monoclinic'
loop_
_space_group_symop_operation_xyz
x,y,z
-x,y,1/2-z
-x,-y,-z
x,-y,1/2+z
1/2+x,1/2+y,z
1/2-x,1/2+y,1/2-z
1/2-x,1/2-y,-z
1/2+x,1/2-y,1/2+z
loop_
_atom_site_type_symbol
_atom_site_label
_atom_site_fract_x
_atom_site_fract_y
_atom_site_fract_z
Si Si1 0.500000 0.169467 0.750000
Si Si2 0.300999 0.335210 0.625722
Si Si3 0.579823 0.318324 0.186888
Si Si4 0.855624 0.552904 0.777883
O O1 0.451290 0.228348 0.457778
O O2 0.431697 0.113545 0.805297
O O3 0.250000 0.250000 0.500000
O O4 0.233400 0.405757 0.452786
O O5 0.383958 0.350734 0.550450
O O6 0.338001 0.325985 0.988586
O O7 0.500000 0.352920 0.250000
O O8 0.862503 0.530022 0.108642
#
# Coordination Sequence:
#
# PCOD9307372 Si02
#       4
#     4   8   8   8
#     4  12  26  42  72 108 144 180 222 284 364 412
#     4  12  24  43  72  97 140 185 241 284 331 412
#     4  12  23  41  71 107 131 173 240 294 339 388
#     4  12  28  45  67 103 149 187 220 277 359 430
#
# _framework density 23.015315999999999
#
# number of rings (size 3 to 8) (size 9 to 14) (size 15 to 20)
#    0.000    0.000    5.714    3.429    8.000    0.000 
#    0.000    0.000    0.000   17.143    0.000    0.000 
#    0.000    0.000    0.000    0.000    0.000    0.000 
#
# Total GULP energy -78312.380559 kJ/mol
# GULP energy per Si atom -5593.741469 kJ/mol
# Density = 2.296293 g / cm^3
# Si number density = 23.015316 Si / 1000 Ang^3
#
#
#
# Elastic Constant Matrix: (Units=GPa)
#
#
# Indices 1 2 3 4 5 6 
#
# 1 122.5492 29.9326 -17.9824 0.0000 -3.1397 0.0000
# 2 29.9326 23.9363 -3.4714 0.0000 6.8853 0.0000
# 3 -17.9824 -3.4714 82.4419 0.0000 -12.7963 0.0000
# 4 0.0000 0.0000 0.0000 -56.6820 0.0000 14.9415
# 5 -3.1397 6.8853 -12.7963 0.0000 41.1197 0.0000
# 6 0.0000 0.0000 0.0000 14.9415 0.0000 29.7519
#
#
#
# Elastic Compliance Matrix: (Units=1/GPa)
#
#
# Indices 1 2 3 4 5 6 
#
# 1 0.012850 -0.017014 0.002817 0.000000 0.004707 0.000000
# 2 -0.017014 0.066463 -0.002986 0.000000 -0.013357 0.000000
# 3 0.002817 -0.002986 0.013376 0.000000 0.004877 0.000000
# 4 0.000000 0.000000 0.000000 -0.015580 0.000000 0.007824
# 5 0.004707 -0.013357 0.004877 0.000000 0.028433 0.000000
# 6 0.000000 0.000000 0.000000 0.007824 0.000000 0.029682
#
#
# Mechanical properties :
#
#
# Convention : Reuss Voigt Hill
#
# Bulk Modulus (GPa) = 17.14612 27.32057 22.23334
# Shear Modulus (GPa) = 26.45097 17.53450 21.99274
#
# Velocity S-wave (km/s) = 3.39378 2.76318 3.09458
# Velocity P-wave (km/s) = 4.77734 4.69857 4.73812
#
# Compressibility (1/GPa) = 0.05832225
#
# Stress axis : x y z
#
# Youngs Moduli (GPa) = 77.82376 15.04606 74.76343
#
# Poissons Ratio (x) = 0.25599 -0.21060
# Poissons Ratio (y) = 1.32408 0.22323
# Poissons Ratio (z) = -0.21922 0.04492
#
# Static dielectric constant tensor:
#      x y z
#    x 2.017310 0.000000 0.238290 
#    y 0.000000 1.875060 0.000000 
#    z 0.238290 0.000000 2.189430 
# 
# From -- ./inp_files/6591.got.cif
#   From: 2010.05.17/outbox.cif.g08.bks.cpg/sg15_4_cif.got.tgz:6591.got - 2010.06.03 18:47:42.
