data_PCOD9307483
_publ_section_title
;
Structure prediction by ZEFSAII (Michael W. Deem and Ramdas Pophale) SiO2 
 PCOD9307483
Probable space group: C 2/C
;
_chemical_formula_sum "Si O2"
_cell_formula_units_Z 36
_cell_length_a 19.558950
_cell_length_b 13.304497
_cell_length_c 12.026696
_cell_angle_alpha 90.000000
_cell_angle_beta 153.609617
_cell_angle_gamma 90.000000
_cell_volume 1391.064515
_symmetry_space_group_name_H-M "C 2/C"
_symmetry_group_IT_number 15
_symmetry_cell_setting 'monoclinic'
loop_
_space_group_symop_operation_xyz
x,y,z
-x,y,1/2-z
-x,-y,-z
x,-y,1/2+z
1/2+x,1/2+y,z
1/2-x,1/2+y,1/2-z
1/2-x,1/2-y,-z
1/2+x,1/2-y,1/2+z
loop_
_atom_site_type_symbol
_atom_site_label
_atom_site_fract_x
_atom_site_fract_y
_atom_site_fract_z
Si Si1 0.000000 0.993591 0.250000
Si Si2 0.935017 0.390994 0.870326
Si Si3 0.334092 0.118745 0.465027
Si Si4 0.179880 0.919554 0.319388
Si Si5 0.778041 0.165968 0.853874
O O1 0.960325 0.927111 0.299127
O O2 0.145826 0.068475 0.476773
O O3 0.837109 0.366599 0.837008
O O4 0.827036 0.386551 0.606377
O O5 0.000000 0.500000 0.000000
O O6 0.093643 0.333173 0.082513
O O7 0.217590 0.033005 0.332642
O O8 0.320038 0.233775 0.482040
O O9 0.500000 0.082235 0.750000
O O10 0.161857 0.850586 0.185016
#
# Coordination Sequence:
#
# PCOD9307483 Si02
#       5
#     4   8   8   8   8
#     4  12  24  42  70 104 142 184 230 290 350 410
#     4  12  23  46  73 102 138 191 232 284 354 417
#     4  12  24  43  75 105 138 185 236 289 348 419
#     4  12  25  48  73 101 143 188 234 286 352 421
#     4  12  26  42  72 108 141 179 238 294 345 415
#
# _framework density 25.879460000000002
#
# number of rings (size 3 to 8) (size 9 to 14) (size 15 to 20)
#    0.000    0.000    7.778    1.333    3.111    2.667 
#    0.000    0.000    0.000    0.000    0.000    0.000 
#    0.000    0.000    0.000    0.000    0.000    0.000 
#
# Total GULP energy -100829.524910 kJ/mol
# GULP energy per Si atom -5601.640273 kJ/mol
# Density = 2.582056 g / cm^3
# Si number density = 25.879460 Si / 1000 Ang^3
#
#
#
# Elastic Constant Matrix: (Units=GPa)
#
#
# Indices 1 2 3 4 5 6 
#
# 1 169.9164 32.1956 6.7794 0.0000 -2.7868 0.0000
# 2 32.1956 69.0004 -17.6703 0.0000 6.5323 0.0000
# 3 6.7794 -17.6703 106.3901 0.0000 0.4167 0.0000
# 4 0.0000 0.0000 0.0000 18.5790 0.0000 0.0568
# 5 -2.7868 6.5323 0.4167 0.0000 49.3877 0.0000
# 6 0.0000 0.0000 0.0000 0.0568 0.0000 -8.7313
#
#
#
# Elastic Compliance Matrix: (Units=1/GPa)
#
#
# Indices 1 2 3 4 5 6 
#
# 1 0.006583 -0.003403 -0.000988 0.000000 0.000830 0.000000
# 2 -0.003403 0.017101 0.003067 0.000000 -0.002480 0.000000
# 3 -0.000988 0.003067 0.009974 0.000000 -0.000546 0.000000
# 4 0.000000 0.000000 0.000000 0.053823 0.000000 0.000350
# 5 0.000830 -0.002480 -0.000546 0.000000 0.020627 0.000000
# 6 0.000000 0.000000 0.000000 0.000350 0.000000 -0.114529
#
#
# Mechanical properties :
#
#
# Convention : Reuss Voigt Hill
#
# Bulk Modulus (GPa) = 32.24880 43.10181 37.67531
# Shear Modulus (GPa) = 761.63719 33.44724 397.54221
#
# Velocity S-wave (km/s) = 17.17384 3.59893 12.40752
# Velocity P-wave (km/s) = 20.14305 5.82758 14.82739
#
# Compressibility (1/GPa) = 0.03100891
#
# Stress axis : x y z
#
# Youngs Moduli (GPa) = 151.90343 58.47679 100.26234
#
# Poissons Ratio (x) = 0.19901 0.09906
# Poissons Ratio (y) = 0.51697 -0.30749
# Poissons Ratio (z) = 0.15008 -0.17934
#
# Static dielectric constant tensor:
#      x y z
#    x 2.135990 0.000000 0.035750 
#    y 0.000000 2.150660 0.000000 
#    z 0.035750 0.000000 2.012650 
# 
# From -- ./inp_files/85367.got.cif
#   From: 2010.05.17/outbox.cif.g08.bks.cpg/sg15_43_cif.got.tgz:85367.got - 2010.06.03 18:47:42.
