data_PCOD9307253
_publ_section_title
;
Structure prediction by ZEFSAII (Michael W. Deem and Ramdas Pophale) SiO2 
 PCOD9307253
Probable space group: C 2/C
;
_chemical_formula_sum "Si O2"
_cell_formula_units_Z 32
_cell_length_a 9.309989
_cell_length_b 24.167307
_cell_length_c 5.177819
_cell_angle_alpha 90.000000
_cell_angle_beta 93.516255
_cell_angle_gamma 90.000000
_cell_volume 1162.802442
_symmetry_space_group_name_H-M "C 2/C"
_symmetry_group_IT_number 15
_symmetry_cell_setting 'monoclinic'
loop_
_space_group_symop_operation_xyz
x,y,z
-x,y,1/2-z
-x,-y,-z
x,-y,1/2+z
1/2+x,1/2+y,z
1/2-x,1/2+y,1/2-z
1/2-x,1/2-y,-z
1/2+x,1/2-y,1/2+z
loop_
_atom_site_type_symbol
_atom_site_label
_atom_site_fract_x
_atom_site_fract_y
_atom_site_fract_z
Si Si1 0.000000 0.553242 0.750000
Si Si2 0.187284 0.027963 0.622610
Si Si3 0.674468 0.768291 0.718613
Si Si4 0.399850 0.348197 0.490437
Si Si5 0.500000 0.872553 0.750000
O O1 0.858316 0.519272 0.671798
O O2 0.024377 0.592664 0.508666
O O3 0.170081 0.090937 0.529223
O O4 0.132034 0.985049 0.402861
O O5 0.500000 0.757238 0.750000
O O6 0.693784 0.710304 0.524931
O O7 0.643835 0.835609 0.737300
O O8 0.750000 0.750000 0.000000
O O9 0.500000 0.350380 0.250000
O O10 0.500000 0.342943 0.750000
#
# Coordination Sequence:
#
# PCOD9307253 Si02
#       5
#     4   8   8   8   4
#     4  12  24  45  74 108 144 183 242 304 366 420
#     4  12  26  46  70 102 140 193 246 297 351 421
#     4   8  21  42  69 112 137 189 225 301 356 439
#     4   9  21  46  69 105 144 191 236 294 360 431
#     4  12  22  43  80 110 144 183 232 306 364 438
#
# _framework density 27.519722999999999
#
# number of rings (size 3 to 8) (size 9 to 14) (size 15 to 20)
#    1.500    0.000    2.500    2.250    1.750    1.000 
#    4.500    8.750    0.000    0.000    0.000    0.000 
#    0.000    0.000    0.000    0.000    0.000    0.000 
#
# Total GULP energy -89528.559880 kJ/mol
# GULP energy per Si atom -5595.534993 kJ/mol
# Density = 2.745709 g / cm^3
# Si number density = 27.519723 Si / 1000 Ang^3
#
#
#
# Elastic Constant Matrix: (Units=GPa)
#
#
# Indices 1 2 3 4 5 6 
#
# 1 107.3186 37.1564 65.8190 0.0000 -9.8148 0.0000
# 2 37.1564 186.5227 106.8802 0.0000 -5.6831 0.0000
# 3 65.8190 106.8802 286.9517 0.0000 -1.2185 0.0000
# 4 0.0000 0.0000 0.0000 51.9241 0.0000 64.4235
# 5 -9.8148 -5.6831 -1.2185 0.0000 63.8601 0.0000
# 6 0.0000 0.0000 0.0000 64.4235 0.0000 -130.9346
#
#
#
# Elastic Compliance Matrix: (Units=1/GPa)
#
#
# Indices 1 2 3 4 5 6 
#
# 1 0.011131 -0.000902 -0.002210 0.000000 0.001588 0.000000
# 2 -0.000902 0.006909 -0.002365 0.000000 0.000431 0.000000
# 3 -0.002210 -0.002365 0.004871 0.000000 -0.000457 0.000000
# 4 0.000000 0.000000 0.000000 0.011959 0.000000 0.005884
# 5 0.001588 0.000431 -0.000457 0.000000 0.015933 0.000000
# 6 0.000000 0.000000 0.000000 0.005884 0.000000 -0.004742
#
#
# Mechanical properties :
#
#
# Convention : Reuss Voigt Hill
#
# Bulk Modulus (GPa) = 83.63742 111.16713 97.40228
# Shear Modulus (GPa) = 81.96628 21.69908 51.83268
#
# Velocity S-wave (km/s) = 5.46344 2.81106 4.34461
# Velocity P-wave (km/s) = 8.38193 7.14277 7.78704
#
# Compressibility (1/GPa) = 0.01195637
#
# Stress axis : x y z
#
# Youngs Moduli (GPa) = 89.83606 144.73588 205.30950
#
# Poissons Ratio (x) = 0.13062 0.45381
# Poissons Ratio (y) = 0.08108 0.48547
# Poissons Ratio (z) = 0.19857 0.34224
#
# Static dielectric constant tensor:
#      x y z
#    x 1.868940 0.000000 0.036910 
#    y 0.000000 2.147100 0.000000 
#    z 0.036910 0.000000 2.001790 
# 
# From -- ./inp_files/4793.got.cif
#   From: 2010.05.17/outbox.cif.g08.bks.cpg/sg15_3_cif.got.tgz:4793.got - 2010.06.03 18:47:42.
