data_PCOD9307129
_publ_section_title
;
Structure prediction by ZEFSAII (Michael W. Deem and Ramdas Pophale) SiO2 
 PCOD9307129
Probable space group: C 2/C
;
_chemical_formula_sum "Si O2"
_cell_formula_units_Z 44
_cell_length_a 17.324948
_cell_length_b 16.093377
_cell_length_c 23.144775
_cell_angle_alpha 90.000000
_cell_angle_beta 19.417067
_cell_angle_gamma 90.000000
_cell_volume 2145.300228
_symmetry_space_group_name_H-M "C 2/C"
_symmetry_group_IT_number 15
_symmetry_cell_setting 'monoclinic'
loop_
_space_group_symop_operation_xyz
x,y,z
-x,y,1/2-z
-x,-y,-z
x,-y,1/2+z
1/2+x,1/2+y,z
1/2-x,1/2+y,1/2-z
1/2-x,1/2-y,-z
1/2+x,1/2-y,1/2+z
loop_
_atom_site_type_symbol
_atom_site_label
_atom_site_fract_x
_atom_site_fract_y
_atom_site_fract_z
Si Si1 0.000000 0.535378 0.250000
Si Si2 0.463474 0.737057 0.488127
Si Si3 0.931092 0.424535 0.090293
Si Si4 0.199751 0.961260 0.569712
Si Si5 0.540546 0.579216 0.512962
Si Si6 0.507978 0.707108 0.159769
O O1 0.843029 0.492136 0.411795
O O2 0.797752 0.580639 0.357291
O O3 0.531626 0.830368 0.458386
O O4 0.504185 0.664382 0.504191
O O5 0.572283 0.713003 0.349968
O O6 0.190643 0.743593 0.667190
O O7 0.661191 0.430080 0.297308
O O8 0.000000 0.500000 0.000000
O O9 0.094598 0.433428 0.031728
O O10 0.043580 0.885978 0.655623
O O11 0.000000 0.009399 0.750000
O O12 0.500000 0.500000 0.500000
O O13 0.750000 0.750000 0.000000
#
# Coordination Sequence:
#
# PCOD9307129 Si02
#       6
#     4   8   8   8   8   8
#     4  12  28  46  78 104 148 198 256 298 366 448
#     4  12  25  43  68 103 148 187 237 303 370 440
#     4  12  26  45  71 104 148 192 241 306 375 443
#     4  12  23  43  70 111 145 183 241 310 377 443
#     4  12  26  48  71 105 146 195 246 301 370 441
#     4  12  22  37  66 106 144 179 228 302 379 437
#
# _framework density 20.509951000000001
#
# number of rings (size 3 to 8) (size 9 to 14) (size 15 to 20)
#    0.000    0.000    7.273    2.727    5.091    0.000 
#    0.000    0.909    2.000    0.000    0.000    0.000 
#    0.000    0.000    0.000    0.000    0.000    0.000 
#
# Total GULP energy -122763.302207 kJ/mol
# GULP energy per Si atom -5580.150100 kJ/mol
# Density = 2.046327 g / cm^3
# Si number density = 20.509951 Si / 1000 Ang^3
#
#
#
# Elastic Constant Matrix: (Units=GPa)
#
#
# Indices 1 2 3 4 5 6 
#
# 1 96.8171 71.3564 47.2821 -0.0046 4.8787 0.0082
# 2 71.3564 136.4325 45.0143 0.0056 7.2839 0.0164
# 3 47.2821 45.0143 155.5543 -0.0009 3.4382 0.0128
# 4 -0.0046 0.0056 -0.0009 31.3985 0.0035 -3.3977
# 5 4.8787 7.2839 3.4382 0.0035 50.4065 -0.0096
# 6 0.0082 0.0164 0.0128 -3.3977 -0.0096 37.1581
#
#
#
# Elastic Compliance Matrix: (Units=1/GPa)
#
#
# Indices 1 2 3 4 5 6 
#
# 1 0.018026 -0.008408 -0.003039 0.000004 -0.000322 0.000001
# 2 -0.008408 0.012077 -0.000920 -0.000004 -0.000869 -0.000004
# 3 -0.003039 -0.000920 0.007621 0.000000 -0.000093 -0.000002
# 4 0.000004 -0.000004 0.000000 0.032167 -0.000002 0.002941
# 5 -0.000322 -0.000869 -0.000093 -0.000002 0.020002 0.000005
# 6 0.000001 -0.000004 -0.000002 0.002941 0.000005 0.027181
#
#
# Mechanical properties :
#
#
# Convention : Reuss Voigt Hill
#
# Bulk Modulus (GPa) = 76.98321 79.56773 78.27547
# Shear Modulus (GPa) = 34.21441 38.80268 36.50855
#
# Velocity S-wave (km/s) = 4.08877 4.35431 4.22363
# Velocity P-wave (km/s) = 7.73995 8.00993 7.87610
#
# Compressibility (1/GPa) = 0.01298984
#
# Stress axis : x y z
#
# Youngs Moduli (GPa) = 55.47530 82.80142 131.22323
#
# Poissons Ratio (x) = 0.69620 0.39878
# Poissons Ratio (y) = 0.46644 0.12072
# Poissons Ratio (z) = 0.16859 0.07617
#
# Static dielectric constant tensor:
#      x y z
#    x 2.167100 0.000470 0.158900 
#    y 0.000470 1.747550 0.000190 
#    z 0.158900 0.000190 1.815270 
# 
# From -- ./inp_files/47400.got.cif
#   From: 2010.05.17/outbox.cif.g08.bks.cpg/sg15_24_cif.got.tgz:47400.got - 2010.06.03 18:47:42.
