data_PCOD9307924
_publ_section_title
;
Structure prediction by ZEFSAII (Michael W. Deem and Ramdas Pophale) SiO2 
 PCOD9307924
Probable space group: C 2/C
;
_chemical_formula_sum "Si O2"
_cell_formula_units_Z 56
_cell_length_a 15.927964
_cell_length_b 21.445765
_cell_length_c 9.885997
_cell_angle_alpha 90.000000
_cell_angle_beta 143.519145
_cell_angle_gamma 90.000000
_cell_volume 2007.768783
_symmetry_space_group_name_H-M "C 2/C"
_symmetry_group_IT_number 15
_symmetry_cell_setting 'monoclinic'
loop_
_space_group_symop_operation_xyz
x,y,z
-x,y,1/2-z
-x,-y,-z
x,-y,1/2+z
1/2+x,1/2+y,z
1/2-x,1/2+y,1/2-z
1/2-x,1/2-y,-z
1/2+x,1/2-y,1/2+z
loop_
_atom_site_type_symbol
_atom_site_label
_atom_site_fract_x
_atom_site_fract_y
_atom_site_fract_z
Si Si1 0.403593 0.818129 0.857043
Si Si2 0.695071 0.188722 0.852910
Si Si3 0.135784 0.815434 0.202005
Si Si4 0.048787 0.455620 0.685873
Si Si5 0.618419 0.513381 0.988273
Si Si6 0.789999 0.051412 0.640269
Si Si7 0.663686 0.366378 0.732425
O O1 0.527893 0.810027 0.127310
O O2 0.386691 0.752292 0.759004
O O3 0.449911 0.881437 0.844273
O O4 0.261404 0.829323 0.755055
O O5 0.750000 0.250000 0.000000
O O6 0.754242 0.188723 0.778013
O O7 0.754039 0.131349 0.019095
O O8 0.984557 0.832875 0.943156
O O9 0.180449 0.874133 0.350967
O O10 0.889004 0.461063 0.566918
O O11 0.000000 0.500000 0.500000
O O12 0.227750 0.470803 0.897637
O O13 0.659856 0.454567 0.135962
O O14 0.639235 0.568982 0.126485
O O15 0.433953 0.515416 0.752055
#
# Coordination Sequence:
#
# PCOD9307924 Si02
#       7
#     8   8   8   8   8   8   8
#     4  12  26  50  77 121 167 221 276 354 423 512
#     4  12  25  45  76 119 165 217 281 337 428 500
#     4  12  26  48  79 120 167 218 284 349 422 515
#     4  12  29  53  80 121 164 227 285 343 429 515
#     4  12  27  51  74 116 155 213 279 341 419 498
#     4  12  28  51  79 116 159 220 283 345 427 497
#     4  12  26  45  78 115 160 211 277 345 415 497
#
# _framework density 27.891658
#
# number of rings (size 3 to 8) (size 9 to 14) (size 15 to 20)
#    0.000    0.000    5.714    3.000    4.000    0.571 
#    2.571    0.000    0.000    0.000    0.000    0.000 
#    0.000    0.000    0.000    0.000    0.000    0.000 
#
# Total GULP energy -156735.175159 kJ/mol
# GULP energy per Si atom -5597.684827 kJ/mol
# Density = 2.782818 g / cm^3
# Si number density = 27.891658 Si / 1000 Ang^3
#
#
#
# Elastic Constant Matrix: (Units=GPa)
#
#
# Indices 1 2 3 4 5 6 
#
# 1 187.9454 83.8320 42.7087 0.0000 9.6021 0.0000
# 2 83.8320 170.4832 56.3217 0.0000 -18.9476 0.0000
# 3 42.7087 56.3217 236.7109 0.0000 -23.7281 0.0000
# 4 0.0000 0.0000 0.0000 41.5101 0.0000 0.6753
# 5 9.6021 -18.9476 -23.7281 0.0000 72.8542 0.0000
# 6 0.0000 0.0000 0.0000 0.6753 0.0000 -14.2408
#
#
#
# Elastic Compliance Matrix: (Units=1/GPa)
#
#
# Indices 1 2 3 4 5 6 
#
# 1 0.007150 -0.003529 -0.000658 0.000000 -0.002075 0.000000
# 2 -0.003529 0.008211 -0.001092 0.000000 0.002245 0.000000
# 3 -0.000658 -0.001092 0.004738 0.000000 0.001346 0.000000
# 4 0.000000 0.000000 0.000000 0.024072 0.000000 0.001141
# 5 -0.002075 0.002245 0.001346 0.000000 0.015022 0.000000
# 6 0.000000 0.000000 0.000000 0.001141 0.000000 -0.070167
#
#
# Mechanical properties :
#
#
# Convention : Reuss Voigt Hill
#
# Bulk Modulus (GPa) = 104.81250 106.76270 105.78760
# Shear Modulus (GPa) = 1807.37734 47.50984 927.44359
#
# Velocity S-wave (km/s) = 25.48345 4.13167 18.25482
# Velocity P-wave (km/s) = 30.05885 7.81803 21.96197
#
# Compressibility (1/GPa) = 0.00954085
#
# Stress axis : x y z
#
# Youngs Moduli (GPa) = 139.85068 121.78240 211.05579
#
# Poissons Ratio (x) = 0.42979 0.13896
# Poissons Ratio (y) = 0.49356 0.23046
# Poissons Ratio (z) = 0.09208 0.13298
#
# Static dielectric constant tensor:
#      x y z
#    x 2.117060 0.000000 -0.009130 
#    y 0.000000 2.195460 0.000000 
#    z -0.009130 0.000000 2.240200 
# 
# From -- ./inp_files/57241.got.cif
#   From: 2010.05.17/outbox.cif.g08.bks.cpg/sg15_29_cif.got.tgz:57241.got - 2010.06.03 18:47:42.
