data_PCOD9307855
_publ_section_title
;
Structure prediction by ZEFSAII (Michael W. Deem and Ramdas Pophale) SiO2 
 PCOD9307855
Probable space group: C 2/C
;
_chemical_formula_sum "Si O2"
_cell_formula_units_Z 28
_cell_length_a 12.534314
_cell_length_b 7.996523
_cell_length_c 17.281653
_cell_angle_alpha 90.000000
_cell_angle_beta 40.652297
_cell_angle_gamma 90.000000
_cell_volume 1128.442530
_symmetry_space_group_name_H-M "C 2/C"
_symmetry_group_IT_number 15
_symmetry_cell_setting 'monoclinic'
loop_
_space_group_symop_operation_xyz
x,y,z
-x,y,1/2-z
-x,-y,-z
x,-y,1/2+z
1/2+x,1/2+y,z
1/2-x,1/2+y,1/2-z
1/2-x,1/2-y,-z
1/2+x,1/2-y,1/2+z
loop_
_atom_site_type_symbol
_atom_site_label
_atom_site_fract_x
_atom_site_fract_y
_atom_site_fract_z
Si Si1 0.286800 0.372553 0.155462
Si Si2 0.500000 0.631244 0.250000
Si Si3 0.458344 0.939871 0.608137
Si Si4 0.791532 0.944327 0.494071
O O1 0.147305 0.243601 0.202740
O O2 0.428393 0.258480 0.115025
O O3 0.205485 0.484997 0.265939
O O4 0.330944 0.487262 0.057690
O O5 0.415378 0.519200 0.363071
O O6 0.606161 0.009707 0.578570
O O7 0.500000 0.000000 0.500000
O O8 0.750000 0.750000 0.500000
#
# Coordination Sequence:
#
# PCOD9307855 Si02
#       4
#     8   4   8   8
#     4  12  27  49  78 110 156 199 254 316 385 454
#     4  12  24  50  76 106 156 206 246 316 382 444
#     4  12  27  48  76 112 149 199 258 309 380 457
#     4  12  29  48  76 112 154 201 254 317 383 450
#
# _framework density 24.812961000000001
#
# number of rings (size 3 to 8) (size 9 to 14) (size 15 to 20)
#    0.000    0.000    5.714    2.571   12.000    1.143 
#    0.000    0.000    0.000    0.000    0.000    0.000 
#    0.000    0.000    0.000    0.000    0.000    0.000 
#
# Total GULP energy -78436.539310 kJ/mol
# GULP energy per Si atom -5602.609951 kJ/mol
# Density = 2.475649 g / cm^3
# Si number density = 24.812961 Si / 1000 Ang^3
#
#
#
# Elastic Constant Matrix: (Units=GPa)
#
#
# Indices 1 2 3 4 5 6 
#
# 1 132.4631 42.9257 57.2080 0.0000 0.3858 0.0000
# 2 42.9257 157.2843 102.3046 0.0000 32.7019 0.0000
# 3 57.2080 102.3046 197.2447 0.0000 42.0317 0.0000
# 4 0.0000 0.0000 0.0000 72.0503 0.0000 5.8212
# 5 0.3858 32.7019 42.0317 0.0000 58.2841 0.0000
# 6 0.0000 0.0000 0.0000 5.8212 0.0000 49.5026
#
#
#
# Elastic Compliance Matrix: (Units=1/GPa)
#
#
# Indices 1 2 3 4 5 6 
#
# 1 0.009044 -0.001409 -0.002420 0.000000 0.002476 0.000000
# 2 -0.001409 0.010041 -0.004255 0.000000 -0.002556 0.000000
# 3 -0.002420 -0.004255 0.008822 0.000000 -0.003959 0.000000
# 4 0.000000 0.000000 0.000000 0.014012 0.000000 -0.001648
# 5 0.002476 -0.002556 -0.003959 0.000000 0.021430 0.000000
# 6 0.000000 0.000000 0.000000 -0.001648 0.000000 0.020395
#
#
# Mechanical properties :
#
#
# Convention : Reuss Voigt Hill
#
# Bulk Modulus (GPa) = 85.17775 99.09651 92.13713
# Shear Modulus (GPa) = 48.15803 54.93767 51.54785
#
# Velocity S-wave (km/s) = 4.41028 4.71050 4.56286
# Velocity P-wave (km/s) = 7.76766 8.34321 8.06057
#
# Compressibility (1/GPa) = 0.01174015
#
# Stress axis : x y z
#
# Youngs Moduli (GPa) = 110.57418 99.58711 113.35219
#
# Poissons Ratio (x) = 0.14032 0.27428
# Poissons Ratio (y) = 0.15580 0.48229
# Poissons Ratio (z) = 0.26756 0.42372
#
# Static dielectric constant tensor:
#      x y z
#    x 2.035530 0.000000 -0.121410 
#    y 0.000000 2.069620 0.000000 
#    z -0.121410 0.000000 1.903370 
# 
# From -- ./inp_files/93080.got.cif
#   From: 2010.05.17/outbox.cif.g08.bks.cpg/sg15_47_cif.got.tgz:93080.got - 2010.06.03 18:47:42.
