data_PCOD9307438
_publ_section_title
;
Structure prediction by ZEFSAII (Michael W. Deem and Ramdas Pophale) SiO2 
 PCOD9307438
Probable space group: C 2/C
;
_chemical_formula_sum "Si O2"
_cell_formula_units_Z 40
_cell_length_a 10.811914
_cell_length_b 20.276318
_cell_length_c 17.302166
_cell_angle_alpha 90.000000
_cell_angle_beta 28.964113
_cell_angle_gamma 90.000000
_cell_volume 1836.844035
_symmetry_space_group_name_H-M "C 2/C"
_symmetry_group_IT_number 15
_symmetry_cell_setting 'monoclinic'
loop_
_space_group_symop_operation_xyz
x,y,z
-x,y,1/2-z
-x,-y,-z
x,-y,1/2+z
1/2+x,1/2+y,z
1/2-x,1/2+y,1/2-z
1/2-x,1/2-y,-z
1/2+x,1/2-y,1/2+z
loop_
_atom_site_type_symbol
_atom_site_label
_atom_site_fract_x
_atom_site_fract_y
_atom_site_fract_z
Si Si1 0.500000 0.914498 0.750000
Si Si2 0.275183 0.230311 0.075362
Si Si3 0.000000 0.976403 0.250000
Si Si4 0.043144 0.132411 0.958773
Si Si5 0.654267 0.114474 0.855214
Si Si6 0.753563 0.533880 0.972382
O O1 0.257665 0.870745 0.859428
O O2 0.384655 0.965809 0.875243
O O3 0.000000 0.201527 0.250000
O O4 0.250000 0.250000 0.000000
O O5 0.328062 0.298824 0.089319
O O6 0.508327 0.180311 0.960242
O O7 0.754627 0.930298 0.369809
O O8 0.969043 0.018645 0.344650
O O9 0.107471 0.124474 0.833185
O O10 0.162265 0.073844 0.946581
O O11 0.452360 0.077162 0.911425
#
# Coordination Sequence:
#
# PCOD9307438 Si02
#       6
#     4   8   4   8   8   8
#     4  12  24  41  74 103 134 184 228 268 358 414
#     4  12  25  46  75 103 128 181 239 283 333 406
#     4  12  28  43  66 111 146 170 226 290 350 400
#     4  12  24  47  73 100 138 185 230 282 339 412
#     4  12  25  47  70 102 144 179 227 289 339 402
#     4  12  23  44  74 100 138 186 229 279 337 416
#
# _framework density 21.776481
#
# number of rings (size 3 to 8) (size 9 to 14) (size 15 to 20)
#    0.000    0.000    8.000    2.400    1.400    2.400 
#    0.000    2.000    0.000    0.000    0.000    0.000 
#    0.000    0.000    0.000    0.000    0.000    0.000 
#
# Total GULP energy -111867.620333 kJ/mol
# GULP energy per Si atom -5593.381017 kJ/mol
# Density = 2.172692 g / cm^3
# Si number density = 21.776481 Si / 1000 Ang^3
#
#
#
# Elastic Constant Matrix: (Units=GPa)
#
#
# Indices 1 2 3 4 5 6 
#
# 1 46.1969 0.8927 13.1099 0.0093 -4.9643 0.1262
# 2 0.8927 55.6206 27.1289 0.2476 0.4414 -0.2607
# 3 13.1099 27.1289 109.5376 0.2114 -2.2602 -0.0386
# 4 0.0093 0.2476 0.2114 34.2818 -0.2868 2.0847
# 5 -4.9643 0.4414 -2.2602 -0.2868 44.6704 0.4106
# 6 0.1262 -0.2607 -0.0386 2.0847 0.4106 -18.5334
#
#
#
# Elastic Compliance Matrix: (Units=1/GPa)
#
#
# Indices 1 2 3 4 5 6 
#
# 1 0.022711 0.001046 -0.002928 0.000012 0.002364 0.000200
# 2 0.001046 0.020506 -0.005211 -0.000102 -0.000348 -0.000290
# 3 -0.002928 -0.005211 0.010776 -0.000028 0.000271 0.000034
# 4 0.000012 -0.000102 -0.000028 0.028974 0.000157 0.003264
# 5 0.002364 -0.000348 0.000271 0.000157 0.022662 0.000540
# 6 0.000200 -0.000290 0.000034 0.003264 0.000540 -0.053572
#
#
# Mechanical properties :
#
#
# Convention : Reuss Voigt Hill
#
# Bulk Modulus (GPa) = 25.12197 32.62422 28.87310
# Shear Modulus (GPa) = 62.88447 23.43201 43.15824
#
# Velocity S-wave (km/s) = 5.37958 3.28384 4.45665
# Velocity P-wave (km/s) = 7.08152 5.42144 6.30634
#
# Compressibility (1/GPa) = 0.03980579
#
# Stress axis : x y z
#
# Youngs Moduli (GPa) = 44.03204 48.76716 92.79909
#
# Poissons Ratio (x) = -0.05101 0.27175
# Poissons Ratio (y) = -0.04605 0.48356
# Poissons Ratio (z) = 0.12894 0.25412
#
# Static dielectric constant tensor:
#      x y z
#    x 1.721500 -0.000010 0.039390 
#    y -0.000010 1.826720 0.000020 
#    z 0.039390 0.000020 1.830990 
# 
# From -- ./inp_files/30538.got.cif
#   From: 2010.05.17/outbox.cif.g08.bks.cpg/sg15_16_cif.got.tgz:30538.got - 2010.06.03 18:47:42.
