data_PCOD9307677
_publ_section_title
;
Structure prediction by ZEFSAII (Michael W. Deem and Ramdas Pophale) SiO2 
 PCOD9307677
Probable space group: C 2/C
;
_chemical_formula_sum "Si O2"
_cell_formula_units_Z 44
_cell_length_a 24.890858
_cell_length_b 4.952310
_cell_length_c 14.665043
_cell_angle_alpha 90.000000
_cell_angle_beta 93.293201
_cell_angle_gamma 90.000000
_cell_volume 1804.734253
_symmetry_space_group_name_H-M "C 2/C"
_symmetry_group_IT_number 15
_symmetry_cell_setting 'monoclinic'
loop_
_space_group_symop_operation_xyz
x,y,z
-x,y,1/2-z
-x,-y,-z
x,-y,1/2+z
1/2+x,1/2+y,z
1/2-x,1/2+y,1/2-z
1/2-x,1/2-y,-z
1/2+x,1/2-y,1/2+z
loop_
_atom_site_type_symbol
_atom_site_label
_atom_site_fract_x
_atom_site_fract_y
_atom_site_fract_z
Si Si1 0.596187 0.147600 0.509108
Si Si2 0.714273 0.999881 0.469239
Si Si3 0.215369 0.640597 0.263380
Si Si4 0.500000 0.648428 0.750000
Si Si5 0.932454 0.834874 0.610774
Si Si6 0.400381 0.038223 0.785329
O O1 0.655699 0.022138 0.505832
O O2 0.593282 0.428183 0.453280
O O3 0.587338 0.172569 0.615963
O O4 0.559694 0.926834 0.452248
O O5 0.750000 0.250000 0.500000
O O6 0.706855 0.018615 0.361598
O O7 0.750000 0.750000 0.500000
O O8 0.259952 0.438792 0.225730
O O9 0.156881 0.615937 0.212308
O O10 0.485000 0.464101 0.662133
O O11 0.448533 0.833129 0.766295
O O12 0.899561 0.741223 0.698239
#
# Coordination Sequence:
#
# PCOD9307677 Si02
#       6
#     8   8   8   4   8   8
#     4  12  28  48  81 112 158 212 259 330 398 470
#     4  12  24  45  70 111 154 197 264 313 377 469
#     4  12  27  47  77 113 155 205 254 321 389 462
#     4  12  28  54  82 116 160 212 258 342 392 476
#     4  12  27  52  76 116 156 199 268 326 386 480
#     4  12  29  54  81 114 164 207 267 327 403 469
#
# _framework density 24.380322
#
# number of rings (size 3 to 8) (size 9 to 14) (size 15 to 20)
#    0.000    0.000    3.636    4.909    7.636    1.455 
#    0.000    0.000    0.000    0.000    0.000    0.000 
#    0.000    0.000    0.000    0.000    0.000    0.000 
#
# Total GULP energy -123283.805631 kJ/mol
# GULP energy per Si atom -5603.809347 kJ/mol
# Density = 2.432483 g / cm^3
# Si number density = 24.380322 Si / 1000 Ang^3
#
#
#
# Elastic Constant Matrix: (Units=GPa)
#
#
# Indices 1 2 3 4 5 6 
#
# 1 137.9086 43.3414 32.4205 0.0000 13.0448 0.0000
# 2 43.3414 146.8998 35.2017 0.0000 7.7028 0.0000
# 3 32.4205 35.2017 165.2671 0.0000 -0.2003 0.0000
# 4 0.0000 0.0000 0.0000 28.6209 0.0000 7.9855
# 5 13.0448 7.7028 -0.2003 0.0000 34.0302 0.0000
# 6 0.0000 0.0000 0.0000 7.9855 0.0000 25.4049
#
#
#
# Elastic Compliance Matrix: (Units=1/GPa)
#
#
# Indices 1 2 3 4 5 6 
#
# 1 0.008447 -0.002053 -0.001223 0.000000 -0.002780 0.000000
# 2 -0.002053 0.007765 -0.001252 0.000000 -0.000978 0.000000
# 3 -0.001223 -0.001252 0.006558 0.000000 0.000791 0.000000
# 4 0.000000 0.000000 0.000000 0.038298 0.000000 -0.012038
# 5 -0.002780 -0.000978 0.000791 0.000000 0.030677 0.000000
# 6 0.000000 0.000000 0.000000 -0.012038 0.000000 0.043146
#
#
# Mechanical properties :
#
#
# Convention : Reuss Voigt Hill
#
# Bulk Modulus (GPa) = 72.92497 74.66697 73.79597
# Shear Modulus (GPa) = 33.66544 40.21866 36.94205
#
# Velocity S-wave (km/s) = 3.72000 4.06598 3.89683
# Velocity P-wave (km/s) = 6.95899 7.26191 7.11206
#
# Compressibility (1/GPa) = 0.01371272
#
# Stress axis : x y z
#
# Youngs Moduli (GPa) = 118.38495 128.79095 152.47584
#
# Poissons Ratio (x) = 0.26445 0.18649
# Poissons Ratio (y) = 0.24308 0.19093
# Poissons Ratio (z) = 0.14479 0.16127
#
# Static dielectric constant tensor:
#      x y z
#    x 0.197660 0.000000 0.834110 
#    y 0.000000 1.915620 0.000000 
#    z 0.834110 0.000000 1.537090 
# 
# From -- ./inp_files/170871.got.cif
#   From: 2010.05.17/outbox.cif.g08.bks.cpg/sg15_86_cif.got.tgz:170871.got - 2010.06.03 18:47:42.
