data_PCOD9307256
_publ_section_title
;
Structure prediction by ZEFSAII (Michael W. Deem and Ramdas Pophale) SiO2 
 PCOD9307256
Probable space group: C 2/C
;
_chemical_formula_sum "Si O2"
_cell_formula_units_Z 48
_cell_length_a 24.607447
_cell_length_b 4.808424
_cell_length_c 15.389441
_cell_angle_alpha 90.000000
_cell_angle_beta 80.036165
_cell_angle_gamma 90.000000
_cell_volume 1793.460703
_symmetry_space_group_name_H-M "C 2/C"
_symmetry_group_IT_number 15
_symmetry_cell_setting 'monoclinic'
loop_
_space_group_symop_operation_xyz
x,y,z
-x,y,1/2-z
-x,-y,-z
x,-y,1/2+z
1/2+x,1/2+y,z
1/2-x,1/2+y,1/2-z
1/2-x,1/2-y,-z
1/2+x,1/2-y,1/2+z
loop_
_atom_site_type_symbol
_atom_site_label
_atom_site_fract_x
_atom_site_fract_y
_atom_site_fract_z
Si Si1 0.417513 0.332440 0.166493
Si Si2 0.607608 0.811436 0.216928
Si Si3 0.733567 0.180785 0.696843
Si Si4 0.000000 0.500000 0.500000
Si Si5 0.670572 0.368575 0.448463
Si Si6 0.113324 0.653506 0.041032
Si Si7 0.500000 0.500000 0.500000
O O1 0.426560 0.539477 0.244602
O O2 0.366309 0.453765 0.125127
O O3 0.465020 0.281483 0.080485
O O4 0.402982 0.030523 0.203670
O O5 0.671797 0.725483 0.197539
O O6 0.601597 0.006452 0.134516
O O7 0.766361 0.412453 0.741665
O O8 0.766670 0.117627 0.599129
O O9 0.055417 0.275366 0.507604
O O10 0.984307 0.250082 0.434062
O O11 0.649661 0.568731 0.530623
O O12 0.649844 0.062100 0.476189
#
# Coordination Sequence:
#
# PCOD9307256 Si02
#       7
#     8   8   8   4   8   8   4
#     4  12  23  45  72  97 137 178 229 276 338 401
#     4  12  26  45  68 107 140 170 228 294 330 386
#     4  12  23  40  71 103 134 182 226 272 338 403
#     4  12  22  44  68  94 126 192 218 272 336 412
#     4  12  23  43  74  96 137 192 219 270 340 413
#     4  12  26  44  70 100 142 175 233 281 334 405
#     4  12  24  40  76  94 126 184 238 258 338 430
#
# _framework density 26.763898999999999
#
# number of rings (size 3 to 8) (size 9 to 14) (size 15 to 20)
#    0.000    0.000    6.667    4.000    0.000    1.333 
#    0.000    5.000    0.000    0.000    0.000    0.000 
#    0.000    0.000    0.000    0.000    0.000    0.000 
#
# Total GULP energy -134001.462432 kJ/mol
# GULP energy per Si atom -5583.394268 kJ/mol
# Density = 2.670298 g / cm^3
# Si number density = 26.763899 Si / 1000 Ang^3
#
#
#
# Elastic Constant Matrix: (Units=GPa)
#
#
# Indices 1 2 3 4 5 6 
#
# 1 66.5521 12.3168 60.4027 0.0000 -37.5137 0.0000
# 2 12.3168 193.3221 22.1289 0.0000 -5.4602 0.0000
# 3 60.4027 22.1289 128.6412 0.0000 -34.5859 0.0000
# 4 0.0000 0.0000 0.0000 64.9670 0.0000 -7.9682
# 5 -37.5137 -5.4602 -34.5859 0.0000 30.5526 0.0000
# 6 0.0000 0.0000 0.0000 -7.9682 0.0000 26.8743
#
#
#
# Elastic Compliance Matrix: (Units=1/GPa)
#
#
# Indices 1 2 3 4 5 6 
#
# 1 0.059293 -0.000756 -0.011750 0.000000 0.059366 0.000000
# 2 -0.000756 0.005287 -0.000791 0.000000 -0.000878 0.000000
# 3 -0.011750 -0.000791 0.013670 0.000000 0.000907 0.000000
# 4 0.000000 0.000000 0.000000 0.015973 0.000000 0.004736
# 5 0.059366 -0.000878 0.000907 0.000000 0.106493 0.000000
# 6 0.000000 0.000000 0.000000 0.004736 0.000000 0.038614
#
#
# Mechanical properties :
#
#
# Convention : Reuss Voigt Hill
#
# Bulk Modulus (GPa) = 19.35820 64.24578 41.80199
# Shear Modulus (GPa) = 17.65898 44.05659 30.85779
#
# Velocity S-wave (km/s) = 2.57146 4.06164 3.39921
# Velocity P-wave (km/s) = 4.00814 6.78621 5.57305
#
# Compressibility (1/GPa) = 0.05165768
#
# Stress axis : x y z
#
# Youngs Moduli (GPa) = 16.86540 189.15874 73.15069
#
# Poissons Ratio (x) = 0.14299 0.85949
# Poissons Ratio (y) = 0.01275 0.05783
# Poissons Ratio (z) = 0.19816 0.14955
#
# Static dielectric constant tensor:
#      x y z
#    x 2.289580 0.000000 -0.078580 
#    y 0.000000 3.060500 0.000000 
#    z -0.078580 0.000000 2.387240 
# 
# From -- ./inp_files/180026.got.cif
#   From: 2010.05.17/outbox.cif.g08.bks.cpg/sg15_91_cif.got.tgz:180026.got - 2010.06.03 18:47:42.
