data_PCOD9307026
_publ_section_title
;
Structure prediction by ZEFSAII (Michael W. Deem and Ramdas Pophale) SiO2 
 PCOD9307026
Probable space group: C 2/C
;
_chemical_formula_sum "Si O2"
_cell_formula_units_Z 36
_cell_length_a 28.100742
_cell_length_b 6.579629
_cell_length_c 10.690243
_cell_angle_alpha 90.000000
_cell_angle_beta 135.872790
_cell_angle_gamma 90.000000
_cell_volume 1376.177091
_symmetry_space_group_name_H-M "C 2/C"
_symmetry_group_IT_number 15
_symmetry_cell_setting 'monoclinic'
loop_
_space_group_symop_operation_xyz
x,y,z
-x,y,1/2-z
-x,-y,-z
x,-y,1/2+z
1/2+x,1/2+y,z
1/2-x,1/2+y,1/2-z
1/2-x,1/2-y,-z
1/2+x,1/2-y,1/2+z
loop_
_atom_site_type_symbol
_atom_site_label
_atom_site_fract_x
_atom_site_fract_y
_atom_site_fract_z
Si Si1 0.068242 0.054540 0.835746
Si Si2 0.232960 0.560499 0.055851
Si Si3 0.168126 0.232683 0.648964
Si Si4 0.413729 0.890936 0.806327
Si Si5 0.500000 0.063082 0.250000
O O1 0.133237 0.924073 0.988226
O O2 0.069576 0.156835 0.702447
O O3 0.000000 0.937640 0.750000
O O4 0.058820 0.264397 0.897808
O O5 0.223266 0.636224 0.179797
O O6 0.292840 0.395945 0.172261
O O7 0.159548 0.468687 0.882473
O O8 0.250000 0.750000 0.000000
O O9 0.106149 0.366808 0.586276
O O10 0.468256 0.015245 0.822110
#
# Coordination Sequence:
#
# PCOD9307026 Si02
#       5
#     8   8   8   8   4
#     4   7  18  37  61  88 121 151 203 241 291 357
#     4  12  25  38  60  94 122 157 205 249 295 366
#     4  12  21  38  66  84 123 168 193 245 318 344
#     4   9  20  41  58  90 123 152 202 250 292 360
#     4   6  18  38  64  80 130 142 200 256 282 344
#
# _framework density 26.159424000000001
#
# number of rings (size 3 to 8) (size 9 to 14) (size 15 to 20)
#    2.000    0.000    0.000    4.667    0.000    3.556 
#    2.000    1.111    0.000    0.000    0.000    0.000 
#    0.000    0.000    0.000    0.000    0.000    0.000 
#
# Total GULP energy -100222.214841 kJ/mol
# GULP energy per Si atom -5567.900825 kJ/mol
# Density = 2.609988 g / cm^3
# Si number density = 26.159424 Si / 1000 Ang^3
#
#
#
# Elastic Constant Matrix: (Units=GPa)
#
#
# Indices 1 2 3 4 5 6 
#
# 1 180.9938 40.6091 3.9063 0.0000 -31.0040 0.0000
# 2 40.6091 68.6521 20.1921 0.0000 -5.7558 0.0000
# 3 3.9063 20.1921 8.5808 0.0000 -32.9130 0.0000
# 4 0.0000 0.0000 0.0000 43.7388 0.0000 -4.0878
# 5 -31.0040 -5.7558 -32.9130 0.0000 40.1807 0.0000
# 6 0.0000 0.0000 0.0000 -4.0878 0.0000 43.5145
#
#
#
# Elastic Compliance Matrix: (Units=1/GPa)
#
#
# Indices 1 2 3 4 5 6 
#
# 1 0.005613 -0.001254 -0.007619 0.000000 -0.002090 0.000000
# 2 -0.001254 0.012647 0.012117 0.000000 0.010769 0.000000
# 3 -0.007619 0.012117 -0.035297 0.000000 -0.033056 0.000000
# 4 0.000000 0.000000 0.000000 0.023066 0.000000 0.002167
# 5 -0.002090 0.010769 -0.033056 0.000000 -0.002259 0.000000
# 6 0.000000 0.000000 0.000000 0.002167 0.000000 0.023184
#
#
# Mechanical properties :
#
#
# Convention : Reuss Voigt Hill
#
# Bulk Modulus (GPa) = -94.78865 43.07131 -25.85867
# Shear Modulus (GPa) = 294.97531 38.38807 166.68169
#
# Velocity S-wave (km/s) = 10.63040 3.83491 7.99099
# Velocity P-wave (km/s) = 10.69393 6.00911 8.67380
#
# Compressibility (1/GPa) = -0.01054979
#
# Stress axis : x y z
#
# Youngs Moduli (GPa) = 178.15945 79.06917 -28.33121
#
# Poissons Ratio (x) = 0.09918 -0.21587
# Poissons Ratio (y) = 0.22348 0.34329
# Poissons Ratio (z) = 1.35746 -0.95809
#
# Static dielectric constant tensor:
#      x y z
#    x 3.366710 0.000000 0.117280 
#    y 0.000000 2.042660 0.000000 
#    z 0.117280 0.000000 2.251130 
# 
# From -- ./inp_files/59778.got.cif
#   From: 2010.05.17/outbox.cif.g08.bks.cpg/sg15_30_cif.got.tgz:59778.got - 2010.06.03 18:47:42.
