data_PCOD9307818
_publ_section_title
;
Structure prediction by ZEFSAII (Michael W. Deem and Ramdas Pophale) SiO2 
 PCOD9307818
Probable space group: C 2/C
;
_chemical_formula_sum "Si O2"
_cell_formula_units_Z 32
_cell_length_a 10.555158
_cell_length_b 15.133231
_cell_length_c 8.478943
_cell_angle_alpha 90.000000
_cell_angle_beta 103.026880
_cell_angle_gamma 90.000000
_cell_volume 1319.516908
_symmetry_space_group_name_H-M "C 2/C"
_symmetry_group_IT_number 15
_symmetry_cell_setting 'monoclinic'
loop_
_space_group_symop_operation_xyz
x,y,z
-x,y,1/2-z
-x,-y,-z
x,-y,1/2+z
1/2+x,1/2+y,z
1/2-x,1/2+y,1/2-z
1/2-x,1/2-y,-z
1/2+x,1/2-y,1/2+z
loop_
_atom_site_type_symbol
_atom_site_label
_atom_site_fract_x
_atom_site_fract_y
_atom_site_fract_z
Si Si1 0.236990 0.230380 0.681216
Si Si2 0.000000 0.500000 0.000000
Si Si3 0.500000 0.851425 0.250000
Si Si4 0.707927 0.088651 0.344448
Si Si5 0.855010 0.945056 0.195213
O O1 0.250000 0.250000 0.500000
O O2 0.382166 0.206670 0.778022
O O3 0.194969 0.317141 0.761145
O O4 0.155119 0.142796 0.700356
O O5 0.081930 0.434318 0.908210
O O6 0.046640 0.584332 0.901340
O O7 0.822123 0.081251 0.506989
O O8 0.743001 0.014188 0.221767
O O9 0.000000 0.983196 0.250000
#
# Coordination Sequence:
#
# PCOD9307818 Si02
#       5
#     8   4   4   8   8
#     4  12  29  48  75 115 154 200 260 318 392 462
#     4  12  24  48  80 104 152 194 262 326 376 460
#     4  12  28  48  80 114 150 206 262 320 386 460
#     4  12  26  50  76 111 151 202 261 323 386 469
#     4  12  27  49  72 108 151 203 251 315 397 458
#
# _framework density 24.251301999999999
#
# number of rings (size 3 to 8) (size 9 to 14) (size 15 to 20)
#    0.000    0.000    5.000    3.000    8.750    0.000 
#    0.000    0.000    0.000    0.000    0.000    0.000 
#    0.000    0.000    0.000    0.000    0.000    0.000 
#
# Total GULP energy -89224.293058 kJ/mol
# GULP energy per Si atom -5576.518316 kJ/mol
# Density = 2.419610 g / cm^3
# Si number density = 24.251302 Si / 1000 Ang^3
#
#
#
# Elastic Constant Matrix: (Units=GPa)
#
#
# Indices 1 2 3 4 5 6 
#
# 1 63.4990 24.1250 7.0990 0.0000 -41.3422 0.0000
# 2 24.1250 164.4775 37.5689 0.0000 -42.0216 0.0000
# 3 7.0990 37.5689 103.9810 0.0000 -10.9619 0.0000
# 4 0.0000 0.0000 0.0000 44.6278 0.0000 -18.1951
# 5 -41.3422 -42.0216 -10.9619 0.0000 43.0129 0.0000
# 6 0.0000 0.0000 0.0000 -18.1951 0.0000 36.8924
#
#
#
# Elastic Compliance Matrix: (Units=1/GPa)
#
#
# Indices 1 2 3 4 5 6 
#
# 1 0.046255 0.006106 -0.000050 0.000000 0.050411 0.000000
# 2 0.006106 0.009405 -0.002289 0.000000 0.014474 0.000000
# 3 -0.000050 -0.002289 0.010489 0.000000 0.000389 0.000000
# 4 0.000000 0.000000 0.000000 0.028047 0.000000 0.013833
# 5 0.050411 0.014474 0.000389 0.000000 0.085941 0.000000
# 6 0.000000 0.000000 0.000000 0.013833 0.000000 0.033928
#
#
# Mechanical properties :
#
#
# Convention : Reuss Voigt Hill
#
# Bulk Modulus (GPa) = 13.57156 52.17146 32.87151
# Shear Modulus (GPa) = 21.63643 42.45094 32.04369
#
# Velocity S-wave (km/s) = 2.99017 4.18839 3.63894
# Velocity P-wave (km/s) = 4.18687 6.70445 5.58926
#
# Compressibility (1/GPa) = 0.07368351
#
# Stress axis : x y z
#
# Youngs Moduli (GPa) = 21.61922 106.32732 95.34167
#
# Poissons Ratio (x) = -0.64925 0.00473
# Poissons Ratio (y) = -0.13201 0.21824
# Poissons Ratio (z) = 0.00107 0.24339
#
# Static dielectric constant tensor:
#      x y z
#    x 2.478600 0.000000 0.216510 
#    y 0.000000 1.990420 0.000000 
#    z 0.216510 0.000000 2.039340 
# 
# From -- ./inp_files/27688.got.cif
#   From: 2010.05.17/outbox.cif.g08.bks.cpg/sg15_14_cif.got.tgz:27688.got - 2010.06.03 18:47:42.
