data_PCOD9307673
_publ_section_title
;
Structure prediction by ZEFSAII (Michael W. Deem and Ramdas Pophale) SiO2 
 PCOD9307673
Probable space group: C 2/C
;
_chemical_formula_sum "Si O2"
_cell_formula_units_Z 44
_cell_length_a 11.740515
_cell_length_b 23.294562
_cell_length_c 14.687299
_cell_angle_alpha 90.000000
_cell_angle_beta 149.099793
_cell_angle_gamma 90.000000
_cell_volume 2062.821219
_symmetry_space_group_name_H-M "C 2/C"
_symmetry_group_IT_number 15
_symmetry_cell_setting 'monoclinic'
loop_
_space_group_symop_operation_xyz
x,y,z
-x,y,1/2-z
-x,-y,-z
x,-y,1/2+z
1/2+x,1/2+y,z
1/2-x,1/2+y,1/2-z
1/2-x,1/2-y,-z
1/2+x,1/2-y,1/2+z
loop_
_atom_site_type_symbol
_atom_site_label
_atom_site_fract_x
_atom_site_fract_y
_atom_site_fract_z
Si Si1 0.948417 0.591154 0.109905
Si Si2 0.151131 0.674185 0.103331
Si Si3 0.299145 0.504859 0.792495
Si Si4 0.875561 0.212964 0.007413
Si Si5 0.500000 0.467924 0.250000
Si Si6 0.421236 0.885960 0.288298
O O1 0.018829 0.642887 0.092512
O O2 0.104133 0.538182 0.184956
O O3 0.000000 0.604054 0.250000
O O4 0.695486 0.571081 0.925279
O O5 0.408346 0.682155 0.304790
O O6 0.059023 0.737680 0.019331
O O7 0.113163 0.638164 0.984606
O O8 0.390319 0.494771 0.754285
O O9 0.214504 0.569985 0.743627
O O10 0.500000 0.500000 0.000000
O O11 0.750000 0.250000 0.000000
O O12 0.720583 0.167077 0.849662
O O13 0.500000 0.917461 0.250000
#
# Coordination Sequence:
#
# PCOD9307673 Si02
#       6
#     8   8   8   8   4   8
#     4  12  27  51  73 105 147 194 248 301 367 444
#     4  12  25  43  72 101 145 189 238 303 369 427
#     4  12  26  48  74 109 147 194 243 300 371 447
#     4  12  24  45  69 106 147 185 241 308 364 430
#     4  12  26  46  74  98 152 188 238 310 356 434
#     4  12  25  41  71 106 144 189 239 296 370 434
#
# _framework density 21.330012
#
# number of rings (size 3 to 8) (size 9 to 14) (size 15 to 20)
#    0.000    0.000    7.273    2.727    0.000    0.000 
#    3.273    0.909    2.000    0.000    0.000    0.000 
#    0.000    0.000    0.000    0.000    0.000    0.000 
#
# Total GULP energy -123173.173068 kJ/mol
# GULP energy per Si atom -5598.780594 kJ/mol
# Density = 2.128146 g / cm^3
# Si number density = 21.330012 Si / 1000 Ang^3
#
#
#
# Elastic Constant Matrix: (Units=GPa)
#
#
# Indices 1 2 3 4 5 6 
#
# 1 124.7500 34.2921 31.6810 0.0001 -20.4266 0.0001
# 2 34.2921 91.4614 30.1661 0.0000 1.2573 0.0000
# 3 31.6810 30.1661 163.7079 0.0003 -1.6287 0.0003
# 4 0.0001 0.0000 0.0003 26.7264 0.0002 -6.6856
# 5 -20.4266 1.2573 -1.6287 0.0002 37.2397 0.0001
# 6 0.0001 0.0000 0.0003 -6.6856 0.0001 39.0161
#
#
#
# Elastic Compliance Matrix: (Units=1/GPa)
#
#
# Indices 1 2 3 4 5 6 
#
# 1 0.010230 -0.003491 -0.001280 0.000000 0.005673 0.000000
# 2 -0.003491 0.012841 -0.001715 0.000000 -0.002424 0.000000
# 3 -0.001280 -0.001715 0.006669 0.000000 -0.000352 0.000000
# 4 0.000000 0.000000 0.000000 0.039092 0.000000 0.006699
# 5 0.005673 -0.002424 -0.000352 0.000000 0.030031 0.000000
# 6 0.000000 0.000000 0.000000 0.006699 0.000000 0.026778
#
#
# Mechanical properties :
#
#
# Convention : Reuss Voigt Hill
#
# Bulk Modulus (GPa) = 59.63788 63.57752 61.60770
# Shear Modulus (GPa) = 34.67350 39.51511 37.09430
#
# Velocity S-wave (km/s) = 4.03621 4.30881 4.17474
# Velocity P-wave (km/s) = 7.05278 7.39092 7.22383
#
# Compressibility (1/GPa) = 0.01676787
#
# Stress axis : x y z
#
# Youngs Moduli (GPa) = 97.75456 77.87265 149.95670
#
# Poissons Ratio (x) = 0.27188 0.19193
# Poissons Ratio (y) = 0.34129 0.25714
# Poissons Ratio (z) = 0.12512 0.13353
#
# Static dielectric constant tensor:
#      x y z
#    x 1.770760 0.000000 -0.034690 
#    y 0.000000 1.767180 0.000000 
#    z -0.034690 0.000000 1.724980 
# 
# From -- ./inp_files/148630.got.cif
#   From: 2010.05.17/outbox.cif.g08.bks.cpg/sg15_75_cif.got.tgz:148630.got - 2010.06.03 18:47:42.
