data_PCOD9307588
_publ_section_title
;
Structure prediction by ZEFSAII (Michael W. Deem and Ramdas Pophale) SiO2 
 PCOD9307588
Probable space group: C 2/C
;
_chemical_formula_sum "Si O2"
_cell_formula_units_Z 32
_cell_length_a 16.723761
_cell_length_b 8.800960
_cell_length_c 19.066044
_cell_angle_alpha 90.000000
_cell_angle_beta 154.799261
_cell_angle_gamma 90.000000
_cell_volume 1194.871023
_symmetry_space_group_name_H-M "C 2/C"
_symmetry_group_IT_number 15
_symmetry_cell_setting 'monoclinic'
loop_
_space_group_symop_operation_xyz
x,y,z
-x,y,1/2-z
-x,-y,-z
x,-y,1/2+z
1/2+x,1/2+y,z
1/2-x,1/2+y,1/2-z
1/2-x,1/2-y,-z
1/2+x,1/2-y,1/2+z
loop_
_atom_site_type_symbol
_atom_site_label
_atom_site_fract_x
_atom_site_fract_y
_atom_site_fract_z
Si Si1 0.690075 0.771343 0.258758
Si Si2 0.006485 0.296956 0.608478
Si Si3 0.000000 0.500000 0.000000
Si Si4 0.500000 0.956341 0.750000
Si Si5 0.609973 0.549951 0.464154
O O1 0.824245 0.669539 0.314518
O O2 0.564246 0.884194 0.114358
O O3 0.828288 0.873576 0.413652
O O4 0.555574 0.657831 0.194093
O O5 0.863074 0.398653 0.449834
O O6 0.037421 0.357522 0.710538
O O7 0.955427 0.121423 0.572884
O O8 0.308372 0.045359 0.581576
#
# Coordination Sequence:
#
# PCOD9307588 Si02
#       5
#     8   8   4   4   8
#     4  12  26  48  81 116 154 214 279 325 391 485
#     4  12  26  49  81 118 156 212 269 333 400 484
#     4  12  24  42  78 114 150 200 268 326 390 480
#     4  12  28  50  78 124 166 206 260 340 426 472
#     4  12  28  51  80 117 165 210 268 335 403 484
#
# _framework density 26.781134000000002
#
# number of rings (size 3 to 8) (size 9 to 14) (size 15 to 20)
#    0.000    0.000    5.000    4.500    0.000    1.000 
#    0.000    1.250    0.000    0.000    0.000    0.000 
#    0.000    0.000    0.000    0.000    0.000    0.000 
#
# Total GULP energy -89230.239536 kJ/mol
# GULP energy per Si atom -5576.889971 kJ/mol
# Density = 2.672018 g / cm^3
# Si number density = 26.781134 Si / 1000 Ang^3
#
#
#
# Elastic Constant Matrix: (Units=GPa)
#
#
# Indices 1 2 3 4 5 6 
#
# 1 107.4763 28.2964 17.8283 0.0007 12.0749 -0.0002
# 2 28.2964 118.4110 37.5236 0.0027 11.0205 -0.0003
# 3 17.8283 37.5236 75.3882 0.0030 23.2039 -0.0003
# 4 0.0007 0.0027 0.0030 28.8099 0.0009 2.9745
# 5 12.0749 11.0205 23.2039 0.0009 58.4570 -0.0002
# 6 -0.0002 -0.0003 -0.0003 2.9745 -0.0002 31.2747
#
#
#
# Elastic Compliance Matrix: (Units=1/GPa)
#
#
# Indices 1 2 3 4 5 6 
#
# 1 0.010141 -0.001982 -0.001005 0.000000 -0.001322 0.000000
# 2 -0.001982 0.010415 -0.004826 0.000000 0.000362 0.000000
# 3 -0.001005 -0.004826 0.017726 -0.000001 -0.005919 0.000000
# 4 0.000000 0.000000 -0.000001 0.035055 0.000000 -0.003334
# 5 -0.001322 0.000362 -0.005919 0.000000 0.019661 0.000000
# 6 0.000000 0.000000 0.000000 -0.003334 0.000000 0.032292
#
#
# Mechanical properties :
#
#
# Convention : Reuss Voigt Hill
#
# Bulk Modulus (GPa) = 44.13836 52.06356 48.10096
# Shear Modulus (GPa) = 33.67729 38.21679 35.94704
#
# Velocity S-wave (km/s) = 3.54997 3.78167 3.66765
# Velocity P-wave (km/s) = 5.77235 6.20891 5.99461
#
# Compressibility (1/GPa) = 0.02265603
#
# Stress axis : x y z
#
# Youngs Moduli (GPa) = 98.60538 96.01933 56.41320
#
# Poissons Ratio (x) = 0.19031 0.05668
# Poissons Ratio (y) = 0.19544 0.27227
# Poissons Ratio (z) = 0.09908 0.46343
#
# Static dielectric constant tensor:
#      x y z
#    x 2.101240 0.000000 0.091420 
#    y 0.000000 0.764900 0.000000 
#    z 0.091420 0.000000 1.461360 
# 
# From -- ./inp_files/247204.got.cif
#   From: 2010.05.17/outbox.cif.g08.bks.cpg/sg15_124_cif.got.tgz:247204.got - 2010.06.03 18:47:42.
