data_PCOD9307373
_publ_section_title
;
Structure prediction by ZEFSAII (Michael W. Deem and Ramdas Pophale) SiO2 
 PCOD9307373
Probable space group: C 2/C
;
_chemical_formula_sum "Si O2"
_cell_formula_units_Z 44
_cell_length_a 12.124980
_cell_length_b 22.947520
_cell_length_c 9.157235
_cell_angle_alpha 90.000000
_cell_angle_beta 125.079189
_cell_angle_gamma 90.000000
_cell_volume 2085.089754
_symmetry_space_group_name_H-M "C 2/C"
_symmetry_group_IT_number 15
_symmetry_cell_setting 'monoclinic'
loop_
_space_group_symop_operation_xyz
x,y,z
-x,y,1/2-z
-x,-y,-z
x,-y,1/2+z
1/2+x,1/2+y,z
1/2-x,1/2+y,1/2-z
1/2-x,1/2-y,-z
1/2+x,1/2-y,1/2+z
loop_
_atom_site_type_symbol
_atom_site_label
_atom_site_fract_x
_atom_site_fract_y
_atom_site_fract_z
Si Si1 0.110481 0.044407 0.646240
Si Si2 0.264446 0.972779 0.978946
Si Si3 0.477041 0.330149 0.067294
Si Si4 0.604749 0.232642 0.957711
Si Si5 0.500000 0.955109 0.750000
Si Si6 0.798620 0.373029 0.777309
O O1 0.230787 0.042052 0.619829
O O2 0.054130 0.108677 0.614094
O O3 0.162797 0.021312 0.840124
O O4 0.000000 0.000000 0.500000
O O5 0.243972 0.916897 0.860830
O O6 0.410579 0.001890 0.082798
O O7 0.500000 0.308179 0.250000
O O8 0.540441 0.285716 0.999748
O O9 0.322682 0.344807 0.907932
O O10 0.500000 0.217601 0.750000
O O11 0.750000 0.250000 0.000000
O O12 0.625101 0.178549 0.081484
O O13 0.396385 0.913191 0.755367
#
# Coordination Sequence:
#
# PCOD9307373 Si02
#       6
#     8   8   8   8   4   8
#     4  12  23  41  73 106 142 188 238 299 372 437
#     4  12  25  44  69 106 150 188 235 300 372 445
#     4  12  27  49  76 108 147 195 256 306 371 442
#     4  12  28  51  78 112 147 197 253 308 374 440
#     4  12  26  46  68 112 148 190 246 298 380 442
#     4  12  27  47  75 105 152 193 245 313 365 447
#
# _framework density 21.102208999999998
#
# number of rings (size 3 to 8) (size 9 to 14) (size 15 to 20)
#    0.000    0.000    5.455    4.364    2.545    3.636 
#    0.000    0.000    0.000    0.000    0.000    0.000 
#    0.000    0.000    0.000    0.000    0.000    0.000 
#
# Total GULP energy -123184.668969 kJ/mol
# GULP energy per Si atom -5599.303135 kJ/mol
# Density = 2.105418 g / cm^3
# Si number density = 21.102209 Si / 1000 Ang^3
#
#
#
# Elastic Constant Matrix: (Units=GPa)
#
#
# Indices 1 2 3 4 5 6 
#
# 1 87.5071 -6.9207 25.4607 0.0000 -2.5548 0.0000
# 2 -6.9207 69.3255 23.7539 0.0000 6.6097 0.0000
# 3 25.4607 23.7539 140.6141 0.0000 20.4432 0.0000
# 4 0.0000 0.0000 0.0000 38.7886 0.0000 1.6870
# 5 -2.5548 6.6097 20.4432 0.0000 42.2573 0.0000
# 6 0.0000 0.0000 0.0000 1.6870 0.0000 39.4640
#
#
#
# Elastic Compliance Matrix: (Units=1/GPa)
#
#
# Indices 1 2 3 4 5 6 
#
# 1 0.012479 0.002056 -0.002872 0.000000 0.001822 0.000000
# 2 0.002056 0.015709 -0.002890 0.000000 -0.000935 0.000000
# 3 -0.002872 -0.002890 0.008691 0.000000 -0.003926 0.000000
# 4 0.000000 0.000000 0.000000 0.025829 0.000000 -0.001104
# 5 0.001822 -0.000935 -0.003926 0.000000 0.025820 0.000000
# 6 0.000000 0.000000 0.000000 -0.001104 0.000000 0.025387
#
#
# Mechanical properties :
#
#
# Convention : Reuss Voigt Hill
#
# Bulk Modulus (GPa) = 33.93603 42.44825 38.19214
# Shear Modulus (GPa) = 38.12459 41.11218 39.61838
#
# Velocity S-wave (km/s) = 4.25510 4.41868 4.33766
# Velocity P-wave (km/s) = 6.34490 6.79648 6.57457
#
# Compressibility (1/GPa) = 0.02946720
#
# Stress axis : x y z
#
# Youngs Moduli (GPa) = 80.13461 63.65627 115.06617
#
# Poissons Ratio (x) = -0.13088 0.33044
# Poissons Ratio (y) = -0.16476 0.33256
# Poissons Ratio (z) = 0.23013 0.18398
#
# Static dielectric constant tensor:
#      x y z
#    x 1.786830 0.000000 0.002630 
#    y 0.000000 1.711770 0.000000 
#    z 0.002630 0.000000 1.743910 
# 
# From -- ./inp_files/32748.got.cif
#   From: 2010.05.17/outbox.cif.g08.bks.cpg/sg15_17_cif.got.tgz:32748.got - 2010.06.03 18:47:42.
