data_PCOD9307738
_publ_section_title
;
Structure prediction by ZEFSAII (Michael W. Deem and Ramdas Pophale) SiO2 
 PCOD9307738
Probable space group: C 2/C
;
_chemical_formula_sum "Si O2"
_cell_formula_units_Z 40
_cell_length_a 5.375754
_cell_length_b 18.470019
_cell_length_c 18.418090
_cell_angle_alpha 90.000000
_cell_angle_beta 78.224742
_cell_angle_gamma 90.000000
_cell_volume 1790.252616
_symmetry_space_group_name_H-M "C 2/C"
_symmetry_group_IT_number 15
_symmetry_cell_setting 'monoclinic'
loop_
_space_group_symop_operation_xyz
x,y,z
-x,y,1/2-z
-x,-y,-z
x,-y,1/2+z
1/2+x,1/2+y,z
1/2-x,1/2+y,1/2-z
1/2-x,1/2-y,-z
1/2+x,1/2-y,1/2+z
loop_
_atom_site_type_symbol
_atom_site_label
_atom_site_fract_x
_atom_site_fract_y
_atom_site_fract_z
Si Si1 0.369209 0.699679 0.055682
Si Si2 0.940546 0.614374 0.170062
Si Si3 0.151135 0.261534 0.171856
Si Si4 0.392368 0.026441 0.583406
Si Si5 0.612247 0.617178 0.918267
O O1 0.174634 0.646444 0.108521
O O2 0.487844 0.751723 0.108906
O O3 0.250000 0.750000 0.000000
O O4 0.575054 0.650463 0.001192
O O5 0.000000 0.597577 0.250000
O O6 0.748213 0.681409 0.183188
O O7 0.842922 0.543029 0.136277
O O8 0.374439 0.316020 0.138175
O O9 0.000000 0.289197 0.250000
O O10 0.622250 0.074503 0.602310
O O11 0.132781 0.069326 0.584763
O O12 0.500000 0.000000 0.500000
#
# Coordination Sequence:
#
# PCOD9307738 Si02
#       5
#     8   8   8   8   8
#     4  12  24  46  78 114 147 194 264 322 379 458
#     4  12  27  47  75 111 152 201 255 322 388 462
#     4  12  27  47  77 111 155 202 255 324 389 461
#     4  12  27  48  76 108 151 198 251 313 381 458
#     4  12  27  48  78 111 149 197 255 313 378 462
#
# _framework density 22.343214
#
# number of rings (size 3 to 8) (size 9 to 14) (size 15 to 20)
#    0.000    0.000    6.000    3.600    2.800    0.800 
#    0.000    4.000    0.000    0.000    0.000    0.000 
#    0.000    0.000    0.000    0.000    0.000    0.000 
#
# Total GULP energy -112055.514579 kJ/mol
# GULP energy per Si atom -5602.775729 kJ/mol
# Density = 2.229236 g / cm^3
# Si number density = 22.343214 Si / 1000 Ang^3
#
#
#
# Elastic Constant Matrix: (Units=GPa)
#
#
# Indices 1 2 3 4 5 6 
#
# 1 76.2711 37.0470 25.4450 0.0000 2.4040 0.0000
# 2 37.0470 108.7004 50.8374 0.0000 8.2682 0.0000
# 3 25.4450 50.8374 153.4757 0.0000 -0.0854 0.0000
# 4 0.0000 0.0000 0.0000 16.3344 0.0000 -7.1230
# 5 2.4040 8.2682 -0.0854 0.0000 41.9714 0.0000
# 6 0.0000 0.0000 0.0000 -7.1230 0.0000 11.6564
#
#
#
# Elastic Compliance Matrix: (Units=1/GPa)
#
#
# Indices 1 2 3 4 5 6 
#
# 1 0.015839 -0.004940 -0.000989 0.000000 0.000064 0.000000
# 2 -0.004940 0.012625 -0.003364 0.000000 -0.002211 0.000000
# 3 -0.000989 -0.003364 0.007794 0.000000 0.000735 0.000000
# 4 0.000000 0.000000 0.000000 0.083461 0.000000 0.051002
# 5 0.000064 -0.002211 0.000735 0.000000 0.024259 0.000000
# 6 0.000000 0.000000 0.000000 0.051002 0.000000 0.116956
#
#
# Mechanical properties :
#
#
# Convention : Reuss Voigt Hill
#
# Bulk Modulus (GPa) = 56.59140 62.78956 59.69048
# Shear Modulus (GPa) = 17.51851 29.00029 23.25940
#
# Velocity S-wave (km/s) = 2.80315 3.60661 3.22996
# Velocity P-wave (km/s) = 5.98833 6.74587 6.37836
#
# Compressibility (1/GPa) = 0.01767053
#
# Stress axis : x y z
#
# Youngs Moduli (GPa) = 63.13599 79.20925 128.29637
#
# Poissons Ratio (x) = 0.39131 0.12695
# Poissons Ratio (y) = 0.31191 0.43159
# Poissons Ratio (z) = 0.06247 0.26646
#
# Static dielectric constant tensor:
#      x y z
#    x 1.881430 0.000000 0.003540 
#    y 0.000000 1.834900 0.000000 
#    z 0.003540 0.000000 1.786410 
# 
# From -- ./inp_files/184213.got.cif
#   From: 2010.05.17/outbox.cif.g08.bks.cpg/sg15_93_cif.got.tgz:184213.got - 2010.06.03 18:47:42.
