data_PCOD9307362
_publ_section_title
;
Structure prediction by ZEFSAII (Michael W. Deem and Ramdas Pophale) SiO2 
 PCOD9307362
Probable space group: C 2/C
;
_chemical_formula_sum "Si O2"
_cell_formula_units_Z 56
_cell_length_a 14.286767
_cell_length_b 14.856843
_cell_length_c 12.411504
_cell_angle_alpha 90.000000
_cell_angle_beta 83.449107
_cell_angle_gamma 90.000000
_cell_volume 2617.218991
_symmetry_space_group_name_H-M "C 2/C"
_symmetry_group_IT_number 15
_symmetry_cell_setting 'monoclinic'
loop_
_space_group_symop_operation_xyz
x,y,z
-x,y,1/2-z
-x,-y,-z
x,-y,1/2+z
1/2+x,1/2+y,z
1/2-x,1/2+y,1/2-z
1/2-x,1/2-y,-z
1/2+x,1/2-y,1/2+z
loop_
_atom_site_type_symbol
_atom_site_label
_atom_site_fract_x
_atom_site_fract_y
_atom_site_fract_z
Si Si1 0.000000 0.229417 0.750000
Si Si2 0.353976 0.833764 0.906819
Si Si3 0.253628 0.645503 0.483567
Si Si4 0.694896 0.604826 0.259512
Si Si5 0.855921 0.720527 0.643108
Si Si6 0.000000 0.395547 0.250000
Si Si7 0.094508 0.522395 0.548299
Si Si8 0.183703 0.110580 0.787118
O O1 0.048743 0.295423 0.655536
O O2 0.086572 0.164352 0.775312
O O3 0.286545 0.854491 0.812426
O O4 0.348010 0.931366 0.963275
O O5 0.339851 0.774450 0.016941
O O6 0.250000 0.750000 0.500000
O O7 0.303628 0.624629 0.366674
O O8 0.150006 0.603391 0.488828
O O9 0.297602 0.610454 0.587801
O O10 0.623466 0.677761 0.319194
O O11 0.683413 0.497027 0.264972
O O12 0.767320 0.667035 0.713269
O O13 0.945985 0.662639 0.668064
O O14 0.926380 0.455429 0.324891
O O15 0.000000 0.500000 0.500000
#
# Coordination Sequence:
#
# PCOD9307362 Si02
#       8
#     4   8   8   8   8   4   8   8
#     4  12  29  47  74 106 148 192 248 296 366 432
#     4  12  25  45  74 103 141 189 241 301 360 433
#     4  12  24  46  72 102 148 191 238 298 368 434
#     4  12  26  45  76 101 139 194 243 288 363 430
#     4  12  25  46  72 101 145 186 239 296 366 430
#     4  12  23  41  64 106 144 174 232 296 364 432
#     4  12  25  38  68 108 138 177 233 300 360 422
#     4  12  27  48  72 108 145 192 240 303 363 437
#
# _framework density 21.396758999999999
#
# number of rings (size 3 to 8) (size 9 to 14) (size 15 to 20)
#    0.000    0.000    7.143    1.714    6.000    1.714 
#    0.000    1.429    0.000    0.000    0.000    0.000 
#    0.000    0.000    0.000    0.000    0.000    0.000 
#
# Total GULP energy -156047.094711 kJ/mol
# GULP energy per Si atom -5573.110525 kJ/mol
# Density = 2.134806 g / cm^3
# Si number density = 21.396759 Si / 1000 Ang^3
#
#
#
# Elastic Constant Matrix: (Units=GPa)
#
#
# Indices 1 2 3 4 5 6 
#
# 1 61.6211 3.0235 13.7102 0.0000 16.9547 0.0000
# 2 3.0235 140.5498 26.0646 0.0000 -0.9207 0.0000
# 3 13.7102 26.0646 105.3512 0.0000 -10.5205 0.0000
# 4 0.0000 0.0000 0.0000 45.0392 0.0000 -4.7754
# 5 16.9547 -0.9207 -10.5205 0.0000 21.4767 0.0000
# 6 0.0000 0.0000 0.0000 -4.7754 0.0000 37.3696
#
#
#
# Elastic Compliance Matrix: (Units=1/GPa)
#
#
# Indices 1 2 3 4 5 6 
#
# 1 0.023056 0.000323 -0.005148 0.000000 -0.020710 0.000000
# 2 0.000323 0.007469 -0.001980 0.000000 -0.000905 0.000000
# 3 -0.005148 -0.001980 0.011618 0.000000 0.009671 0.000000
# 4 0.000000 0.000000 0.000000 0.022508 0.000000 0.002876
# 5 -0.020710 -0.000905 0.009671 0.000000 0.067609 0.000000
# 6 0.000000 0.000000 0.000000 0.002876 0.000000 0.027127
#
#
# Mechanical properties :
#
#
# Convention : Reuss Voigt Hill
#
# Bulk Modulus (GPa) = 35.04892 43.67986 39.36439
# Shear Modulus (GPa) = 27.39584 38.42536 32.91060
#
# Velocity S-wave (km/s) = 3.58211 4.24234 3.92613
# Velocity P-wave (km/s) = 5.79006 6.66747 6.24420
#
# Compressibility (1/GPa) = 0.02853155
#
# Stress axis : x y z
#
# Youngs Moduli (GPa) = 43.37272 133.88153 86.07524
#
# Poissons Ratio (x) = -0.04326 0.44316
# Poissons Ratio (y) = -0.01402 0.17046
# Poissons Ratio (z) = 0.22330 0.26514
#
# Static dielectric constant tensor:
#      x y z
#    x 1.851160 0.000000 0.013090 
#    y 0.000000 1.658180 0.000000 
#    z 0.013090 0.000000 1.725050 
# 
# From -- ./inp_files/97073.got.cif
#   From: 2010.05.17/outbox.cif.g08.bks.cpg/sg15_49_cif.got.tgz:97073.got - 2010.06.03 18:47:42.
