data_PCOD9307142
_publ_section_title
;
Structure prediction by ZEFSAII (Michael W. Deem and Ramdas Pophale) SiO2 
 PCOD9307142
Probable space group: C 2/C
;
_chemical_formula_sum "Si O2"
_cell_formula_units_Z 52
_cell_length_a 11.902475
_cell_length_b 28.181289
_cell_length_c 8.605277
_cell_angle_alpha 90.000000
_cell_angle_beta 58.637372
_cell_angle_gamma 90.000000
_cell_volume 2464.706120
_symmetry_space_group_name_H-M "C 2/C"
_symmetry_group_IT_number 15
_symmetry_cell_setting 'monoclinic'
loop_
_space_group_symop_operation_xyz
x,y,z
-x,y,1/2-z
-x,-y,-z
x,-y,1/2+z
1/2+x,1/2+y,z
1/2-x,1/2+y,1/2-z
1/2-x,1/2-y,-z
1/2+x,1/2-y,1/2+z
loop_
_atom_site_type_symbol
_atom_site_label
_atom_site_fract_x
_atom_site_fract_y
_atom_site_fract_z
Si Si1 0.788154 0.350311 0.185133
Si Si2 0.736796 0.533878 0.182233
Si Si3 0.139060 0.550582 0.727689
Si Si4 0.978594 0.829566 0.950101
Si Si5 0.834905 0.902245 0.519552
Si Si6 0.396378 0.759885 0.964058
Si Si7 0.500000 0.484789 0.250000
O O1 0.855633 0.397020 0.205851
O O2 0.672064 0.332413 0.383163
O O3 0.724180 0.368090 0.068513
O O4 0.883420 0.307051 0.076556
O O5 0.823341 0.489357 0.174626
O O6 0.762710 0.577646 0.278875
O O7 0.584548 0.517990 0.301929
O O8 0.759175 0.547303 0.988184
O O9 0.000000 0.540479 0.750000
O O10 0.049297 0.874721 0.976830
O O11 0.000000 0.830352 0.750000
O O12 0.050251 0.783826 0.972511
O O13 0.892190 0.948862 0.395790
O O14 0.500000 0.766359 0.750000
O O15 0.250000 0.750000 0.000000
#
# Coordination Sequence:
#
# PCOD9307142 Si02
#       7
#     8   8   8   8   8   8   4
#     4  12  25  47  72 102 141 189 238 295 360 438
#     4  12  25  41  68 103 140 190 243 295 356 415
#     4  12  26  46  66  97 145 191 241 293 351 428
#     4  12  25  44  74 107 144 182 232 301 364 426
#     4  12  22  40  71 104 143 184 234 293 357 418
#     4  12  25  50  79 104 142 187 233 291 369 438
#     4  12  22  38  70 102 140 180 236 296 348 406
#
# _framework density 21.097850000000001
#
# number of rings (size 3 to 8) (size 9 to 14) (size 15 to 20)
#    0.000    0.000    7.692    1.846    3.231    2.462 
#    2.769    0.769    0.000    0.000    0.000    0.000 
#    0.000    0.000    0.000    0.000    0.000    0.000 
#
# Total GULP energy -145459.164559 kJ/mol
# GULP energy per Si atom -5594.583252 kJ/mol
# Density = 2.104983 g / cm^3
# Si number density = 21.097850 Si / 1000 Ang^3
#
#
#
# Elastic Constant Matrix: (Units=GPa)
#
#
# Indices 1 2 3 4 5 6 
#
# 1 80.7940 8.7840 5.9390 0.0000 0.0690 0.0000
# 2 8.7840 68.9064 34.2005 0.0000 4.0822 0.0000
# 3 5.9390 34.2005 87.2358 0.0000 10.4600 0.0000
# 4 0.0000 0.0000 0.0000 22.1648 0.0000 -59.3454
# 5 0.0690 4.0822 10.4600 0.0000 30.5503 0.0000
# 6 0.0000 0.0000 0.0000 -59.3454 0.0000 -237.1279
#
#
#
# Elastic Compliance Matrix: (Units=1/GPa)
#
#
# Indices 1 2 3 4 5 6 
#
# 1 0.012559 -0.001461 -0.000315 0.000000 0.000275 0.000000
# 2 -0.001461 0.018189 -0.007029 0.000000 -0.000021 0.000000
# 3 -0.000315 -0.007029 0.014732 0.000000 -0.004104 0.000000
# 4 0.000000 0.000000 0.000000 0.027015 0.000000 -0.006761
# 5 0.000275 -0.000021 -0.004104 0.000000 0.034140 0.000000
# 6 0.000000 0.000000 0.000000 -0.006761 0.000000 -0.002525
#
#
# Mechanical properties :
#
#
# Convention : Reuss Voigt Hill
#
# Bulk Modulus (GPa) = 35.88079 37.19814 36.53947
# Shear Modulus (GPa) = 38.16521 -24.34837 6.90842
#
# Velocity S-wave (km/s) = 4.25780 -3.40084 1.81151
# Velocity P-wave (km/s) = 6.41994 1.49951 4.66177
#
# Compressibility (1/GPa) = 0.02787006
#
# Stress axis : x y z
#
# Youngs Moduli (GPa) = 79.62473 54.97972 67.87761
#
# Poissons Ratio (x) = 0.08031 0.02140
# Poissons Ratio (y) = 0.11631 0.47710
# Poissons Ratio (z) = 0.02510 0.38644
#
# Static dielectric constant tensor:
#      x y z
#    x 1.749210 0.000000 -0.007580 
#    y 0.000000 1.724560 0.000000 
#    z -0.007580 0.000000 1.825890 
# 
# From -- ./inp_files/34062.got.cif
#   From: 2010.05.17/outbox.cif.g08.bks.cpg/sg15_18_cif.got.tgz:34062.got - 2010.06.03 18:47:42.
