data_PCOD9307473
_publ_section_title
;
Structure prediction by ZEFSAII (Michael W. Deem and Ramdas Pophale) SiO2 
 PCOD9307473
Probable space group: C 2/C
;
_chemical_formula_sum "Si O2"
_cell_formula_units_Z 48
_cell_length_a 13.611480
_cell_length_b 13.887328
_cell_length_c 14.380110
_cell_angle_alpha 90.000000
_cell_angle_beta 118.791386
_cell_angle_gamma 90.000000
_cell_volume 2382.200227
_symmetry_space_group_name_H-M "C 2/C"
_symmetry_group_IT_number 15
_symmetry_cell_setting 'monoclinic'
loop_
_space_group_symop_operation_xyz
x,y,z
-x,y,1/2-z
-x,-y,-z
x,-y,1/2+z
1/2+x,1/2+y,z
1/2-x,1/2+y,1/2-z
1/2-x,1/2-y,-z
1/2+x,1/2-y,1/2+z
loop_
_atom_site_type_symbol
_atom_site_label
_atom_site_fract_x
_atom_site_fract_y
_atom_site_fract_z
Si Si1 0.000000 0.664076 0.250000
Si Si2 0.454707 0.091110 0.924227
Si Si3 0.500000 0.674731 0.250000
Si Si4 0.569420 0.421654 0.590131
Si Si5 0.842355 0.316298 0.089557
Si Si6 0.186233 0.500572 0.304527
Si Si7 0.623025 0.754736 0.977329
O O1 0.107116 0.592281 0.290871
O O2 0.032427 0.729006 0.353535
O O3 0.556935 0.156389 0.934259
O O4 0.381913 0.054307 0.805919
O O5 0.381807 0.151608 0.961209
O O6 0.500000 0.000000 0.000000
O O7 0.487878 0.613847 0.339666
O O8 0.395186 0.747647 0.192826
O O9 0.500000 0.500000 0.500000
O O10 0.691755 0.464460 0.669390
O O11 0.590636 0.333778 0.528710
O O12 0.802296 0.419874 0.109594
O O13 0.750000 0.250000 0.000000
O O14 0.750000 0.750000 0.000000
#
# Coordination Sequence:
#
# PCOD9307473 Si02
#       7
#     4   8   4   8   8   8   8
#     4  12  23  45  76 104 146 190 240 302 362 434
#     4  12  24  44  74 107 139 187 243 296 360 434
#     4  12  25  51  68 104 148 190 248 298 360 444
#     4  12  29  49  72 109 150 191 241 302 373 433
#     4  12  24  43  74 105 140 187 242 301 357 427
#     4  12  23  46  74 106 143 188 244 296 359 439
#     4  12  26  46  72 108 147 189 245 300 360 434
#
# _framework density 20.149439999999998
#
# number of rings (size 3 to 8) (size 9 to 14) (size 15 to 20)
#    0.000    0.000    8.333    1.000    2.333    3.333 
#    0.000    0.000    0.000    0.000    0.000    0.000 
#    0.000    0.000    0.000    0.000    0.000    0.000 
#
# Total GULP energy -134157.415940 kJ/mol
# GULP energy per Si atom -5589.892331 kJ/mol
# Density = 2.010358 g / cm^3
# Si number density = 20.149440 Si / 1000 Ang^3
#
#
#
# Elastic Constant Matrix: (Units=GPa)
#
#
# Indices 1 2 3 4 5 6 
#
# 1 97.3978 65.4233 32.4814 0.0000 -10.7664 0.0000
# 2 65.4233 118.7639 53.4283 0.0000 -5.1731 0.0000
# 3 32.4814 53.4283 108.4460 0.0000 0.4888 0.0000
# 4 0.0000 0.0000 0.0000 53.4477 0.0000 1.0584
# 5 -10.7664 -5.1731 0.4888 0.0000 40.0662 0.0000
# 6 0.0000 0.0000 0.0000 1.0584 0.0000 33.7901
#
#
#
# Elastic Compliance Matrix: (Units=1/GPa)
#
#
# Indices 1 2 3 4 5 6 
#
# 1 0.016770 -0.008767 -0.000719 0.000000 0.003383 0.000000
# 2 -0.008767 0.015488 -0.005003 0.000000 -0.000295 0.000000
# 3 -0.000719 -0.005003 0.011906 0.000000 -0.000984 0.000000
# 4 0.000000 0.000000 0.000000 0.018721 0.000000 -0.000586
# 5 0.003383 -0.000295 -0.000984 0.000000 0.025842 0.000000
# 6 0.000000 0.000000 0.000000 -0.000586 0.000000 0.029613
#
#
# Mechanical properties :
#
#
# Convention : Reuss Voigt Hill
#
# Bulk Modulus (GPa) = 65.85385 69.69707 67.77546
# Shear Modulus (GPa) = 32.81288 37.01243 34.91266
#
# Velocity S-wave (km/s) = 4.03982 4.29055 4.16707
# Velocity P-wave (km/s) = 7.38335 7.69482 7.54069
#
# Compressibility (1/GPa) = 0.01518514
#
# Stress axis : x y z
#
# Youngs Moduli (GPa) = 59.63034 64.56791 83.99331
#
# Poissons Ratio (x) = 0.56609 0.06037
# Poissons Ratio (y) = 0.52280 0.42022
# Poissons Ratio (z) = 0.04286 0.32303
#
# Static dielectric constant tensor:
#      x y z
#    x 1.706850 0.000000 -0.013950 
#    y 0.000000 1.762140 0.000000 
#    z -0.013950 0.000000 1.758960 
# 
# From -- ./inp_files/152792.got.cif
#   From: 2010.05.17/outbox.cif.g08.bks.cpg/sg15_77_cif.got.tgz:152792.got - 2010.06.03 18:47:42.
