data_PCOD9307600
_publ_section_title
;
Structure prediction by ZEFSAII (Michael W. Deem and Ramdas Pophale) SiO2 
 PCOD9307600
Probable space group: C 2/C
;
_chemical_formula_sum "Si O2"
_cell_formula_units_Z 40
_cell_length_a 18.141485
_cell_length_b 13.774821
_cell_length_c 8.713645
_cell_angle_alpha 90.000000
_cell_angle_beta 124.539071
_cell_angle_gamma 90.000000
_cell_volume 1793.695368
_symmetry_space_group_name_H-M "C 2/C"
_symmetry_group_IT_number 15
_symmetry_cell_setting 'monoclinic'
loop_
_space_group_symop_operation_xyz
x,y,z
-x,y,1/2-z
-x,-y,-z
x,-y,1/2+z
1/2+x,1/2+y,z
1/2-x,1/2+y,1/2-z
1/2-x,1/2-y,-z
1/2+x,1/2-y,1/2+z
loop_
_atom_site_type_symbol
_atom_site_label
_atom_site_fract_x
_atom_site_fract_y
_atom_site_fract_z
Si Si1 0.551804 0.413999 0.150662
Si Si2 0.941531 0.575759 0.032083
Si Si3 0.206674 0.144282 0.425039
Si Si4 0.241507 0.022500 0.776113
Si Si5 0.032746 0.244906 0.137294
O O1 0.500000 0.594945 0.750000
O O2 0.539770 0.314228 0.043656
O O3 0.500000 0.500000 0.000000
O O4 0.657224 0.437337 0.275425
O O5 0.926041 0.675247 0.922584
O O6 0.841778 0.541133 0.951757
O O7 0.000000 0.595053 0.250000
O O8 0.000000 0.500000 0.000000
O O9 0.500000 0.200479 0.750000
O O10 0.229767 0.073039 0.595223
O O11 0.232505 0.093071 0.294619
O O12 0.101791 0.166044 0.284628
O O13 0.250000 0.250000 0.500000
#
# Coordination Sequence:
#
# PCOD9307600 Si02
#       5
#     8   8   8   8   8
#     4  12  24  43  70 110 150 189 251 319 386 461
#     4  12  28  50  74 108 152 206 264 318 380 466
#     4  12  26  48  75 116 154 200 252 317 391 463
#     4  12  26  47  78 111 153 203 258 321 388 463
#     4  12  25  47  75 108 154 199 250 320 389 458
#
# _framework density 22.300329000000001
#
# number of rings (size 3 to 8) (size 9 to 14) (size 15 to 20)
#    0.000    0.000    6.000    4.200    2.800    0.000 
#    0.000    3.000    0.000    0.000    0.000    0.000 
#    0.000    0.000    0.000    0.000    0.000    0.000 
#
# Total GULP energy -111731.273404 kJ/mol
# GULP energy per Si atom -5586.563670 kJ/mol
# Density = 2.224957 g / cm^3
# Si number density = 22.300329 Si / 1000 Ang^3
#
#
#
# Elastic Constant Matrix: (Units=GPa)
#
#
# Indices 1 2 3 4 5 6 
#
# 1 121.8441 29.4488 58.7101 0.0000 9.9610 0.0000
# 2 29.4488 91.9013 19.6246 0.0000 -12.2338 0.0000
# 3 58.7101 19.6246 115.1017 0.0000 7.9977 0.0000
# 4 0.0000 0.0000 0.0000 40.6571 0.0000 -7.4462
# 5 9.9610 -12.2338 7.9977 0.0000 54.9646 0.0000
# 6 0.0000 0.0000 0.0000 -7.4462 0.0000 39.8796
#
#
#
# Elastic Compliance Matrix: (Units=1/GPa)
#
#
# Indices 1 2 3 4 5 6 
#
# 1 0.011611 -0.002851 -0.005299 0.000000 -0.001968 0.000000
# 2 -0.002851 0.012443 -0.000905 0.000000 0.003418 0.000000
# 3 -0.005299 -0.000905 0.011610 0.000000 -0.000930 0.000000
# 4 0.000000 0.000000 0.000000 0.025467 0.000000 0.004755
# 5 -0.001968 0.003418 -0.000930 0.000000 0.019446 0.000000
# 6 0.000000 0.000000 0.000000 0.004755 0.000000 0.025963
#
#
# Mechanical properties :
#
#
# Convention : Reuss Voigt Hill
#
# Bulk Modulus (GPa) = 56.96933 60.49046 58.72990
# Shear Modulus (GPa) = 38.31381 41.83783 40.07582
#
# Velocity S-wave (km/s) = 4.14947 4.33611 4.24382
# Velocity P-wave (km/s) = 6.96846 7.22865 7.09974
#
# Compressibility (1/GPa) = 0.01755330
#
# Stress axis : x y z
#
# Youngs Moduli (GPa) = 86.12818 80.36682 86.13260
#
# Poissons Ratio (x) = 0.22911 0.45646
# Poissons Ratio (y) = 0.24553 0.07794
# Poissons Ratio (z) = 0.45643 0.07272
#
# Static dielectric constant tensor:
#      x y z
#    x 1.996060 0.000000 -0.002450 
#    y 0.000000 1.851570 0.000000 
#    z -0.002450 0.000000 1.909600 
# 
# From -- ./inp_files/50469.got.cif
#   From: 2010.05.17/outbox.cif.g08.bks.cpg/sg15_26_cif.got.tgz:50469.got - 2010.06.03 18:47:42.
