data_PCOD9307555
_publ_section_title
;
Structure prediction by ZEFSAII (Michael W. Deem and Ramdas Pophale) SiO2 
 PCOD9307555
Probable space group: C 2/C
;
_chemical_formula_sum "Si O2"
_cell_formula_units_Z 52
_cell_length_a 18.086581
_cell_length_b 19.855154
_cell_length_c 9.153527
_cell_angle_alpha 90.000000
_cell_angle_beta 132.247717
_cell_angle_gamma 90.000000
_cell_volume 2433.288698
_symmetry_space_group_name_H-M "C 2/C"
_symmetry_group_IT_number 15
_symmetry_cell_setting 'monoclinic'
loop_
_space_group_symop_operation_xyz
x,y,z
-x,y,1/2-z
-x,-y,-z
x,-y,1/2+z
1/2+x,1/2+y,z
1/2-x,1/2+y,1/2-z
1/2-x,1/2-y,-z
1/2+x,1/2-y,1/2+z
loop_
_atom_site_type_symbol
_atom_site_label
_atom_site_fract_x
_atom_site_fract_y
_atom_site_fract_z
Si Si1 0.903105 0.045001 0.378553
Si Si2 0.840641 0.164179 0.816407
Si Si3 0.617517 0.930358 0.412657
Si Si4 0.898526 0.172971 0.566192
Si Si5 0.000000 0.106010 0.250000
Si Si6 0.731579 0.789645 0.627250
Si Si7 0.789335 0.459053 0.276865
O O1 0.921411 0.101362 0.523669
O O2 0.907015 0.072677 0.217247
O O3 0.808880 0.002617 0.307594
O O4 0.000000 0.000000 0.500000
O O5 0.844200 0.161178 0.646797
O O6 0.832833 0.240596 0.858129
O O7 0.746687 0.116780 0.733118
O O8 0.939182 0.140037 0.036256
O O9 0.500000 0.912154 0.250000
O O10 0.681477 0.863490 0.545286
O O11 0.668502 0.953578 0.329595
O O12 0.628576 0.996406 0.528929
O O13 0.834350 0.206135 0.353968
O O14 0.000000 0.208988 0.750000
O O15 0.750000 0.750000 0.500000
#
# Coordination Sequence:
#
# PCOD9307555 Si02
#       7
#     8   8   8   8   4   8   8
#     4  12  24  39  72 114 156 189 239 305 397 471
#     4  12  26  44  74 105 154 196 248 317 396 464
#     4  12  28  50  79 107 148 210 272 320 379 463
#     4  12  25  45  69 110 149 191 244 313 381 471
#     4  12  24  40  70 116 148 202 236 310 396 488
#     4  12  27  51  75 108 152 205 256 321 399 468
#     4  12  24  48  73 108 152 196 253 325 379 453
#
# _framework density 21.370255
#
# number of rings (size 3 to 8) (size 9 to 14) (size 15 to 20)
#    0.000    0.000    6.154    3.692    4.308    0.000 
#    0.000    0.769    0.000    0.000    0.000    0.000 
#    0.000    0.000    0.000    0.000    0.000    0.000 
#
# Total GULP energy -144999.704434 kJ/mol
# GULP energy per Si atom -5576.911709 kJ/mol
# Density = 2.132162 g / cm^3
# Si number density = 21.370255 Si / 1000 Ang^3
#
#
#
# Elastic Constant Matrix: (Units=GPa)
#
#
# Indices 1 2 3 4 5 6 
#
# 1 120.7340 38.2586 46.1121 0.0000 -25.1557 0.0000
# 2 38.2586 80.9616 34.7876 0.0000 -20.6241 0.0000
# 3 46.1121 34.7876 135.2369 0.0000 -9.2126 0.0000
# 4 0.0000 0.0000 0.0000 12.8913 0.0000 -7.9758
# 5 -25.1557 -20.6241 -9.2126 0.0000 53.0881 0.0000
# 6 0.0000 0.0000 0.0000 -7.9758 0.0000 27.5804
#
#
#
# Elastic Compliance Matrix: (Units=1/GPa)
#
#
# Indices 1 2 3 4 5 6 
#
# 1 0.011059 -0.003156 -0.002718 0.000000 0.003543 0.000000
# 2 -0.003156 0.016130 -0.002781 0.000000 0.004288 0.000000
# 3 -0.002718 -0.002781 0.008981 0.000000 -0.000810 0.000000
# 4 0.000000 0.000000 0.000000 0.094475 0.000000 0.027320
# 5 0.003543 0.004288 -0.000810 0.000000 0.022041 0.000000
# 6 0.000000 0.000000 0.000000 0.027320 0.000000 0.044158
#
#
# Mechanical properties :
#
#
# Convention : Reuss Voigt Hill
#
# Bulk Modulus (GPa) = 53.01838 63.91658 58.46748
# Shear Modulus (GPa) = 22.68194 33.23024 27.95609
#
# Velocity S-wave (km/s) = 3.26142 3.94760 3.62080
# Velocity P-wave (km/s) = 6.24866 7.12405 6.70066
#
# Compressibility (1/GPa) = 0.01886138
#
# Stress axis : x y z
#
# Youngs Moduli (GPa) = 90.42633 61.99560 111.34217
#
# Poissons Ratio (x) = 0.19564 0.30259
# Poissons Ratio (y) = 0.28535 0.30966
# Poissons Ratio (z) = 0.24575 0.17242
#
# Static dielectric constant tensor:
#      x y z
#    x 2.195960 0.000000 0.183710 
#    y 0.000000 1.860950 0.000000 
#    z 0.183710 0.000000 1.940430 
# 
# From -- ./inp_files/50733.got.cif
#   From: 2010.05.17/outbox.cif.g08.bks.cpg/sg15_26_cif.got.tgz:50733.got - 2010.06.03 18:47:42.
