data_PCOD9307574
_publ_section_title
;
Structure prediction by ZEFSAII (Michael W. Deem and Ramdas Pophale) SiO2 
 PCOD9307574
Probable space group: C 2/C
;
_chemical_formula_sum "Si O2"
_cell_formula_units_Z 44
_cell_length_a 12.089488
_cell_length_b 20.321120
_cell_length_c 8.363835
_cell_angle_alpha 90.000000
_cell_angle_beta 67.555948
_cell_angle_gamma 90.000000
_cell_volume 1899.117204
_symmetry_space_group_name_H-M "C 2/C"
_symmetry_group_IT_number 15
_symmetry_cell_setting 'monoclinic'
loop_
_space_group_symop_operation_xyz
x,y,z
-x,y,1/2-z
-x,-y,-z
x,-y,1/2+z
1/2+x,1/2+y,z
1/2-x,1/2+y,1/2-z
1/2-x,1/2-y,-z
1/2+x,1/2-y,1/2+z
loop_
_atom_site_type_symbol
_atom_site_label
_atom_site_fract_x
_atom_site_fract_y
_atom_site_fract_z
Si Si1 0.307150 0.924344 0.504137
Si Si2 0.253428 0.184185 0.597237
Si Si3 0.536867 0.428469 0.544508
Si Si4 0.369965 0.214265 0.858310
Si Si5 0.500000 0.647393 0.750000
Si Si6 0.638622 0.065845 0.162503
O O1 0.180551 0.918461 0.479887
O O2 0.379480 0.856102 0.443640
O O3 0.297646 0.934539 0.699843
O O4 0.362594 0.991911 0.406884
O O5 0.250000 0.250000 0.500000
O O6 0.337460 0.193477 0.698884
O O7 0.291824 0.117950 0.485739
O O8 0.118491 0.183530 0.731077
O O9 0.500000 0.419166 0.750000
O O10 0.500000 0.500000 0.500000
O O11 0.476919 0.387398 0.433966
O O12 0.500000 0.248806 0.750000
O O13 0.250000 0.250000 0.000000
O O14 0.500000 0.087276 0.250000
#
# Coordination Sequence:
#
# PCOD9307574 Si02
#       6
#     8   8   8   8   4   8
#     4  12  24  46  71 112 148 192 250 313 379 460
#     4  12  28  48  76 103 148 195 254 306 386 453
#     4  12  24  41  73 109 155 197 249 308 385 455
#     4  12  28  50  78 111 151 201 254 315 380 459
#     4  12  26  48  72 112 148 198 248 312 376 454
#     4  12  26  46  75 106 146 196 246 313 381 457
#
# _framework density 23.168658000000001
#
# number of rings (size 3 to 8) (size 9 to 14) (size 15 to 20)
#    0.000    0.000    2.727    7.636    3.818    0.727 
#    0.000    0.000    0.000    0.000    0.000    0.000 
#    0.000    0.000    0.000    0.000    0.000    0.000 
#
# Total GULP energy -122746.886859 kJ/mol
# GULP energy per Si atom -5579.403948 kJ/mol
# Density = 2.311593 g / cm^3
# Si number density = 23.168658 Si / 1000 Ang^3
#
#
#
# Elastic Constant Matrix: (Units=GPa)
#
#
# Indices 1 2 3 4 5 6 
#
# 1 121.6344 -8.5246 20.5914 0.0000 -7.8079 0.0000
# 2 -8.5246 97.1837 35.1544 0.0000 -11.9936 0.0000
# 3 20.5914 35.1544 116.3430 0.0000 19.4160 0.0000
# 4 0.0000 0.0000 0.0000 22.6582 0.0000 2.9484
# 5 -7.8079 -11.9936 19.4160 0.0000 64.2027 0.0000
# 6 0.0000 0.0000 0.0000 2.9484 0.0000 -0.7546
#
#
#
# Elastic Compliance Matrix: (Units=1/GPa)
#
#
# Indices 1 2 3 4 5 6 
#
# 1 0.008935 0.001982 -0.002552 0.000000 0.002229 0.000000
# 2 0.001982 0.012735 -0.004883 0.000000 0.004097 0.000000
# 3 -0.002552 -0.004883 0.011297 0.000000 -0.004639 0.000000
# 4 0.000000 0.000000 0.000000 0.029258 0.000000 0.114322
# 5 0.002229 0.004097 -0.004639 0.000000 0.018015 0.000000
# 6 0.000000 0.000000 0.000000 0.114322 0.000000 -0.878541
#
#
# Mechanical properties :
#
#
# Convention : Reuss Voigt Hill
#
# Bulk Modulus (GPa) = 45.32765 47.73372 46.53068
# Shear Modulus (GPa) = -6.40991 36.41724 15.00366
#
# Velocity S-wave (km/s) = -1.66512 3.96893 2.54753
# Velocity P-wave (km/s) = 3.98871 6.45374 5.36472
#
# Compressibility (1/GPa) = 0.02206159
#
# Stress axis : x y z
#
# Youngs Moduli (GPa) = 111.91412 78.52100 88.52297
#
# Poissons Ratio (x) = -0.15564 0.22594
# Poissons Ratio (y) = -0.22183 0.43223
# Poissons Ratio (z) = 0.28564 0.38339
#
# Static dielectric constant tensor:
#      x y z
#    x 1.860720 0.000000 -0.192670 
#    y 0.000000 1.848290 0.000000 
#    z -0.192670 0.000000 1.248500 
# 
# From -- ./inp_files/30703.got.cif
#   From: 2010.05.17/outbox.cif.g08.bks.cpg/sg15_16_cif.got.tgz:30703.got - 2010.06.03 18:47:42.
