data_PCOD9307752
_publ_section_title
;
Structure prediction by ZEFSAII (Michael W. Deem and Ramdas Pophale) SiO2 
 PCOD9307752
Probable space group: C 2/C
;
_chemical_formula_sum "Si O2"
_cell_formula_units_Z 28
_cell_length_a 11.562554
_cell_length_b 8.438407
_cell_length_c 16.182528
_cell_angle_alpha 90.000000
_cell_angle_beta 127.151033
_cell_angle_gamma 90.000000
_cell_volume 1258.473807
_symmetry_space_group_name_H-M "C 2/C"
_symmetry_group_IT_number 15
_symmetry_cell_setting 'monoclinic'
loop_
_space_group_symop_operation_xyz
x,y,z
-x,y,1/2-z
-x,-y,-z
x,-y,1/2+z
1/2+x,1/2+y,z
1/2-x,1/2+y,1/2-z
1/2-x,1/2-y,-z
1/2+x,1/2-y,1/2+z
loop_
_atom_site_type_symbol
_atom_site_label
_atom_site_fract_x
_atom_site_fract_y
_atom_site_fract_z
Si Si1 0.852513 0.123584 0.813400
Si Si2 0.694971 0.155113 0.897630
Si Si3 0.560060 0.984914 0.619582
Si Si4 0.500000 0.417291 0.750000
O O1 0.811937 0.071347 0.889483
O O2 0.704909 0.090027 0.697225
O O3 0.902565 0.304734 0.840798
O O4 0.975503 0.022960 0.820060
O O5 0.565749 0.045290 0.873388
O O6 0.633060 0.297673 0.815079
O O7 0.750000 0.250000 0.000000
O O8 0.500000 0.000000 0.500000
#
# Coordination Sequence:
#
# PCOD9307752 Si02
#       4
#     8   8   8   4
#     4  12  25  45  72 102 144 184 242 290 357 422
#     4  12  24  47  71  98 146 185 234 301 356 418
#     4  12  24  48  73 105 141 189 238 294 358 421
#     4  12  26  44  66 106 138 188 238 288 354 424
#
# _framework density 22.249172000000002
#
# number of rings (size 3 to 8) (size 9 to 14) (size 15 to 20)
#    0.000    0.000    8.571    0.000    4.000    1.143 
#    5.143    2.857    0.000    0.000    0.000    0.000 
#    0.000    0.000    0.000    0.000    0.000    0.000 
#
# Total GULP energy -78271.718025 kJ/mol
# GULP energy per Si atom -5590.837002 kJ/mol
# Density = 2.219853 g / cm^3
# Si number density = 22.249172 Si / 1000 Ang^3
#
#
#
# Elastic Constant Matrix: (Units=GPa)
#
#
# Indices 1 2 3 4 5 6 
#
# 1 133.6404 39.4744 -15.8895 0.0000 -41.0291 0.0000
# 2 39.4744 110.4838 15.8496 0.0000 -15.4245 0.0000
# 3 -15.8895 15.8496 74.8900 0.0000 -24.6530 0.0000
# 4 0.0000 0.0000 0.0000 37.9913 0.0000 -0.1814
# 5 -41.0291 -15.4245 -24.6530 0.0000 36.3801 0.0000
# 6 0.0000 0.0000 0.0000 -0.1814 0.0000 46.7195
#
#
#
# Elastic Compliance Matrix: (Units=1/GPa)
#
#
# Indices 1 2 3 4 5 6 
#
# 1 0.020853 -0.005268 0.016148 0.000000 0.032226 0.000000
# 2 -0.005268 0.010998 -0.004976 0.000000 -0.004650 0.000000
# 3 0.016148 -0.004976 0.029775 0.000000 0.036278 0.000000
# 4 0.000000 0.000000 0.000000 0.026322 0.000000 0.000102
# 5 0.032226 -0.004650 0.036278 0.000000 0.086445 0.000000
# 6 0.000000 0.000000 0.000000 0.000102 0.000000 0.021405
#
#
# Mechanical properties :
#
#
# Convention : Reuss Voigt Hill
#
# Bulk Modulus (GPa) = 13.61785 44.20926 28.91355
# Shear Modulus (GPa) = 23.98470 42.85683 33.42076
#
# Velocity S-wave (km/s) = 3.28686 4.39364 3.87991
# Velocity P-wave (km/s) = 4.53194 6.75662 5.75284
#
# Compressibility (1/GPa) = 0.07343304
#
# Stress axis : x y z
#
# Youngs Moduli (GPa) = 47.95583 90.92689 33.58570
#
# Poissons Ratio (x) = 0.47898 -0.54233
# Poissons Ratio (y) = 0.25262 0.16712
# Poissons Ratio (z) = -0.77438 0.45245
#
# Static dielectric constant tensor:
#      x y z
#    x 1.866880 0.000000 0.011830 
#    y 0.000000 1.770510 0.000000 
#    z 0.011830 0.000000 1.861270 
# 
# From -- ./inp_files/140282.got.cif
#   From: 2010.05.17/outbox.cif.g08.bks.cpg/sg15_71_cif.got.tgz:140282.got - 2010.06.03 18:47:42.
