data_PCOD9307732
_publ_section_title
;
Structure prediction by ZEFSAII (Michael W. Deem and Ramdas Pophale) SiO2 
 PCOD9307732
Probable space group: C 2/C
;
_chemical_formula_sum "Si O2"
_cell_formula_units_Z 44
_cell_length_a 7.866336
_cell_length_b 17.420610
_cell_length_c 16.982254
_cell_angle_alpha 90.000000
_cell_angle_beta 111.021111
_cell_angle_gamma 90.000000
_cell_volume 2172.308301
_symmetry_space_group_name_H-M "C 2/C"
_symmetry_group_IT_number 15
_symmetry_cell_setting 'monoclinic'
loop_
_space_group_symop_operation_xyz
x,y,z
-x,y,1/2-z
-x,-y,-z
x,-y,1/2+z
1/2+x,1/2+y,z
1/2-x,1/2+y,1/2-z
1/2-x,1/2-y,-z
1/2+x,1/2-y,1/2+z
loop_
_atom_site_type_symbol
_atom_site_label
_atom_site_fract_x
_atom_site_fract_y
_atom_site_fract_z
Si Si1 0.139832 0.327933 0.971072
Si Si2 0.000000 0.700297 0.750000
Si Si3 0.197566 0.018400 0.066915
Si Si4 0.521877 0.911714 0.109376
Si Si5 0.646374 0.805673 0.707013
Si Si6 0.204757 0.977395 0.752357
O O1 0.247887 0.393182 0.939642
O O2 0.958056 0.306554 0.893252
O O3 0.250000 0.250000 0.000000
O O4 0.098250 0.366030 0.047936
O O5 0.034473 0.647610 0.831845
O O6 0.821956 0.751617 0.736359
O O7 0.352656 0.964549 0.055159
O O8 0.204023 0.000064 0.160709
O O9 0.000000 0.000000 0.000000
O O10 0.671993 0.966729 0.174529
O O11 0.500000 0.783831 0.750000
O O12 0.711016 0.892641 0.731075
O O13 0.000000 0.976653 0.750000
#
# Coordination Sequence:
#
# PCOD9307732 Si02
#       6
#     8   4   8   8   8   8
#     4  12  28  46  74 109 149 191 244 313 374 437
#     4  12  28  46  76 108 146 202 250 304 376 448
#     4  12  26  46  71 108 145 191 246 306 369 440
#     4  12  26  50  71 109 147 194 249 308 367 447
#     4  12  25  48  74 105 152 196 248 308 373 442
#     4  12  24  46  77 104 141 201 247 298 375 443
#
# _framework density 20.254951999999999
#
# number of rings (size 3 to 8) (size 9 to 14) (size 15 to 20)
#    0.000    0.000    6.364    2.727    5.091    2.909 
#    0.000    0.000    0.000    0.000    0.000    0.000 
#    0.000    0.000    0.000    0.000    0.000    0.000 
#
# Total GULP energy -123213.207037 kJ/mol
# GULP energy per Si atom -5600.600320 kJ/mol
# Density = 2.020885 g / cm^3
# Si number density = 20.254952 Si / 1000 Ang^3
#
#
#
# Elastic Constant Matrix: (Units=GPa)
#
#
# Indices 1 2 3 4 5 6 
#
# 1 149.9892 72.4450 51.6063 0.0000 12.6836 0.0000
# 2 72.4450 124.7465 51.7635 0.0000 17.4831 0.0000
# 3 51.6063 51.7635 116.1256 0.0000 12.1119 0.0000
# 4 0.0000 0.0000 0.0000 32.9167 0.0000 2.0095
# 5 12.6836 17.4831 12.1119 0.0000 46.3362 0.0000
# 6 0.0000 0.0000 0.0000 2.0095 0.0000 -59.8153
#
#
#
# Elastic Compliance Matrix: (Units=1/GPa)
#
#
# Indices 1 2 3 4 5 6 
#
# 1 0.009712 -0.004685 -0.002195 0.000000 -0.000317 0.000000
# 2 -0.004685 0.012419 -0.003186 0.000000 -0.002571 0.000000
# 3 -0.002195 -0.003186 0.011122 0.000000 -0.001104 0.000000
# 4 0.000000 0.000000 0.000000 0.030318 0.000000 0.001019
# 5 -0.000317 -0.002571 -0.001104 0.000000 0.022927 0.000000
# 6 0.000000 0.000000 0.000000 0.001019 0.000000 -0.016684
#
#
# Mechanical properties :
#
#
# Convention : Reuss Voigt Hill
#
# Bulk Modulus (GPa) = 76.20572 82.49898 79.35235
# Shear Modulus (GPa) = 53.01199 18.22395 35.61797
#
# Velocity S-wave (km/s) = 5.12144 3.00280 4.19798
# Velocity P-wave (km/s) = 8.52509 7.26919 7.92207
#
# Compressibility (1/GPa) = 0.01312238
#
# Stress axis : x y z
#
# Youngs Moduli (GPa) = 102.96655 80.52022 89.91271
#
# Poissons Ratio (x) = 0.37724 0.19732
# Poissons Ratio (y) = 0.48240 0.28644
# Poissons Ratio (z) = 0.22596 0.25652
#
# Static dielectric constant tensor:
#      x y z
#    x 1.706640 0.000000 -0.020860 
#    y 0.000000 1.693990 0.000000 
#    z -0.020860 0.000000 1.717720 
# 
# From -- ./inp_files/189342.got.cif
#   From: 2010.05.17/outbox.cif.g08.bks.cpg/sg15_95_cif.got.tgz:189342.got - 2010.06.03 18:47:42.
