data_PCOD9307703
_publ_section_title
;
Structure prediction by ZEFSAII (Michael W. Deem and Ramdas Pophale) SiO2 
 PCOD9307703
Probable space group: C 2/C
;
_chemical_formula_sum "Si O2"
_cell_formula_units_Z 44
_cell_length_a 21.921681
_cell_length_b 5.371704
_cell_length_c 16.601668
_cell_angle_alpha 90.000000
_cell_angle_beta 123.805324
_cell_angle_gamma 90.000000
_cell_volume 1624.439498
_symmetry_space_group_name_H-M "C 2/C"
_symmetry_group_IT_number 15
_symmetry_cell_setting 'monoclinic'
loop_
_space_group_symop_operation_xyz
x,y,z
-x,y,1/2-z
-x,-y,-z
x,-y,1/2+z
1/2+x,1/2+y,z
1/2-x,1/2+y,1/2-z
1/2-x,1/2-y,-z
1/2+x,1/2-y,1/2+z
loop_
_atom_site_type_symbol
_atom_site_label
_atom_site_fract_x
_atom_site_fract_y
_atom_site_fract_z
Si Si1 0.000000 0.500000 0.500000
Si Si2 0.737159 0.768686 0.790809
Si Si3 0.837345 0.260702 0.077154
Si Si4 0.428588 0.739324 0.850655
Si Si5 0.051574 0.259981 0.213142
Si Si6 0.128538 0.237059 0.991212
O O1 0.935084 0.733483 0.449986
O O2 0.936737 0.295210 0.493958
O O3 0.753191 0.519524 0.752711
O O4 0.651290 0.751778 0.745277
O O5 0.794225 0.776655 0.904743
O O6 0.866309 0.260350 0.190692
O O7 0.750000 0.250000 0.000000
O O8 0.865743 0.520540 0.061757
O O9 0.872445 0.014008 0.062859
O O10 0.464108 0.509052 0.833505
O O11 0.461384 0.025400 0.863355
O O12 0.000000 0.319546 0.250000
#
# Coordination Sequence:
#
# PCOD9307703 Si02
#       6
#     4   8   8   8   8   8
#     4  12  28  48  72 114 152 192 248 306 396 446
#     4  12  24  46  68 106 144 191 240 293 372 448
#     4  12  25  47  74 106 142 194 254 308 362 439
#     4  12  26  45  73 102 147 190 239 306 360 450
#     4  12  25  46  70 103 142 191 242 294 370 432
#     4  12  26  45  75 108 150 191 244 315 372 451
#
# _framework density 27.086268
#
# number of rings (size 3 to 8) (size 9 to 14) (size 15 to 20)
#    0.000    0.000    1.818    8.727    0.000    1.455 
#    0.000    0.000    0.000    0.000    0.000    0.000 
#    0.000    0.000    0.000    0.000    0.000    0.000 
#
# Total GULP energy -123044.489560 kJ/mol
# GULP energy per Si atom -5592.931344 kJ/mol
# Density = 2.702462 g / cm^3
# Si number density = 27.086268 Si / 1000 Ang^3
#
#
#
# Elastic Constant Matrix: (Units=GPa)
#
#
# Indices 1 2 3 4 5 6 
#
# 1 89.3641 81.2536 -12.6007 0.0000 35.2256 -0.0003
# 2 81.2536 216.9340 84.2427 -0.0001 -46.0275 -0.0002
# 3 -12.6007 84.2427 93.2521 0.0000 66.1666 -0.0005
# 4 0.0000 -0.0001 0.0000 55.9202 0.0001 -23.7946
# 5 35.2256 -46.0275 66.1666 0.0001 43.8873 0.0002
# 6 -0.0003 -0.0002 -0.0005 -23.7946 0.0002 39.5764
#
#
#
# Elastic Compliance Matrix: (Units=1/GPa)
#
#
# Indices 1 2 3 4 5 6 
#
# 1 0.005449 0.002058 -0.006451 0.000000 0.007510 0.000000
# 2 0.002058 0.001040 0.003784 0.000000 -0.006266 0.000000
# 3 -0.006451 0.003784 0.000809 0.000000 0.007927 0.000000
# 4 0.000000 0.000000 0.000000 0.024030 0.000000 0.014448
# 5 0.007510 -0.006266 0.007927 0.000000 -0.001764 0.000000
# 6 0.000000 0.000000 0.000000 0.014448 0.000000 0.033954
#
#
# Mechanical properties :
#
#
# Convention : Reuss Voigt Hill
#
# Bulk Modulus (GPa) = 164.49068 78.37128 121.43098
# Shear Modulus (GPa) = 74.89051 44.32042 59.60547
#
# Velocity S-wave (km/s) = 5.26393 4.04947 4.69612
# Velocity P-wave (km/s) = 9.88967 7.13169 8.62167
#
# Compressibility (1/GPa) = 0.00607937
#
# Stress axis : x y z
#
# Youngs Moduli (GPa) = 183.50656 961.36951 1236.16370
#
# Poissons Ratio (x) = -1.97806 7.97470
# Poissons Ratio (y) = -0.37757 -4.67769
# Poissons Ratio (z) = 1.18383 -3.63786
#
# Static dielectric constant tensor:
#      x y z
#    x 2.187130 0.000010 0.042010 
#    y 0.000010 -4.883310 0.000010 
#    z 0.042010 0.000010 2.392240 
# 
# From -- ./inp_files/217852.got.cif
#   From: 2010.05.17/outbox.cif.g08.bks.cpg/sg15_109_cif.got.tgz:217852.got - 2010.06.03 18:47:42.
