data_PCOD9307203
_publ_section_title
;
Structure prediction by ZEFSAII (Michael W. Deem and Ramdas Pophale) SiO2 
 PCOD9307203
Probable space group: C 2/C
;
_chemical_formula_sum "Si O2"
_cell_formula_units_Z 32
_cell_length_a 16.983366
_cell_length_b 4.806403
_cell_length_c 18.653939
_cell_angle_alpha 90.000000
_cell_angle_beta 52.534269
_cell_angle_gamma 90.000000
_cell_volume 1208.593770
_symmetry_space_group_name_H-M "C 2/C"
_symmetry_group_IT_number 15
_symmetry_cell_setting 'monoclinic'
loop_
_space_group_symop_operation_xyz
x,y,z
-x,y,1/2-z
-x,-y,-z
x,-y,1/2+z
1/2+x,1/2+y,z
1/2-x,1/2+y,1/2-z
1/2-x,1/2-y,-z
1/2+x,1/2-y,1/2+z
loop_
_atom_site_type_symbol
_atom_site_label
_atom_site_fract_x
_atom_site_fract_y
_atom_site_fract_z
Si Si1 0.288067 0.628250 0.342597
Si Si2 0.001058 0.606312 0.918394
Si Si3 0.897537 0.634538 0.345229
Si Si4 0.370739 0.631194 0.655599
O O1 0.312726 0.368414 0.381250
O O2 0.304866 0.502617 0.254171
O O3 0.186301 0.805174 0.387452
O O4 0.367313 0.854664 0.321611
O O5 0.094060 0.429977 0.837690
O O6 0.915109 0.483573 0.915930
O O7 0.033665 0.926694 0.900488
O O8 0.000000 0.500000 0.000000
O O9 0.000000 0.740812 0.250000
#
# Coordination Sequence:
#
# PCOD9307203 Si02
#       4
#     8   8   8   8
#     4  12  23  40  70 103 129 170 227 297 332 387
#     4  12  26  44  66  96 140 185 221 271 343 420
#     4  12  22  42  67 101 132 170 234 280 334 397
#     4  12  23  43  66 101 136 172 227 281 346 397
#
# _framework density 26.477053000000002
#
# number of rings (size 3 to 8) (size 9 to 14) (size 15 to 20)
#    0.000    0.000    5.000    7.500    0.000    0.000 
#    0.000    7.500    0.000    0.000    0.000    0.000 
#    0.000    0.000    0.000    0.000    0.000    0.000 
#
# Total GULP energy -89372.568253 kJ/mol
# GULP energy per Si atom -5585.785516 kJ/mol
# Density = 2.641679 g / cm^3
# Si number density = 26.477053 Si / 1000 Ang^3
#
#
#
# Elastic Constant Matrix: (Units=GPa)
#
#
# Indices 1 2 3 4 5 6 
#
# 1 194.7137 79.8976 46.8064 -0.0018 41.4418 0.0053
# 2 79.8976 173.0170 24.2712 -0.0079 16.4662 0.0099
# 3 46.8064 24.2712 53.9664 -0.0033 31.4309 -0.0006
# 4 -0.0018 -0.0079 -0.0033 21.7698 -0.0001 2.7029
# 5 41.4418 16.4662 31.4309 -0.0001 46.7355 0.0035
# 6 0.0053 0.0099 -0.0006 2.7029 0.0035 80.7533
#
#
#
# Elastic Compliance Matrix: (Units=1/GPa)
#
#
# Indices 1 2 3 4 5 6 
#
# 1 0.007906 -0.002817 -0.003428 -0.000001 -0.003713 0.000000
# 2 -0.002817 0.007180 -0.001262 0.000002 0.000816 -0.000001
# 3 -0.003428 -0.001262 0.032946 0.000004 -0.018673 0.000001
# 4 -0.000001 0.000002 0.000004 0.046127 -0.000002 -0.001544
# 5 -0.003713 0.000816 -0.018673 -0.000002 0.036960 -0.000002
# 6 0.000000 -0.000001 0.000001 -0.001544 -0.000002 0.012435
#
#
# Mechanical properties :
#
#
# Convention : Reuss Voigt Hill
#
# Bulk Modulus (GPa) = 30.28529 80.40527 55.34528
# Shear Modulus (GPa) = 29.48612 47.89984 38.69298
#
# Velocity S-wave (km/s) = 3.34076 4.25798 3.82694
# Velocity P-wave (km/s) = 5.13264 7.38970 6.36206
#
# Compressibility (1/GPa) = 0.03301933
#
# Stress axis : x y z
#
# Youngs Moduli (GPa) = 126.49230 139.28096 30.35270
#
# Poissons Ratio (x) = 0.39229 0.10404
# Poissons Ratio (y) = 0.35627 0.03830
# Poissons Ratio (z) = 0.43358 0.17573
#
# Static dielectric constant tensor:
#      x y z
#    x 2.198440 0.000000 -0.039830 
#    y 0.000000 1.999150 0.000010 
#    z -0.039830 0.000010 2.156670 
# 
# From -- ./inp_files/241384.got.cif
#   From: 2010.05.17/outbox.cif.g08.bks.cpg/sg15_121_cif.got.tgz:241384.got - 2010.06.03 18:47:42.
