data_PCOD9307349
_publ_section_title
;
Structure prediction by ZEFSAII (Michael W. Deem and Ramdas Pophale) SiO2 
 PCOD9307349
Probable space group: C 2/C
;
_chemical_formula_sum "Si O2"
_cell_formula_units_Z 56
_cell_length_a 26.242327
_cell_length_b 17.633011
_cell_length_c 9.467059
_cell_angle_alpha 90.000000
_cell_angle_beta 39.920303
_cell_angle_gamma 90.000000
_cell_volume 2811.191649
_symmetry_space_group_name_H-M "C 2/C"
_symmetry_group_IT_number 15
_symmetry_cell_setting 'monoclinic'
loop_
_space_group_symop_operation_xyz
x,y,z
-x,y,1/2-z
-x,-y,-z
x,-y,1/2+z
1/2+x,1/2+y,z
1/2-x,1/2+y,1/2-z
1/2-x,1/2-y,-z
1/2+x,1/2-y,1/2+z
loop_
_atom_site_type_symbol
_atom_site_label
_atom_site_fract_x
_atom_site_fract_y
_atom_site_fract_z
Si Si1 0.803001 0.520024 0.993207
Si Si2 0.883529 0.804259 0.368463
Si Si3 0.395340 0.134971 0.337031
Si Si4 0.426855 0.139123 0.606636
Si Si5 0.572549 0.690999 0.403154
Si Si6 0.447563 0.546228 0.226486
Si Si7 0.700856 0.452154 0.975025
O O1 0.840624 0.436644 0.928285
O O2 0.869773 0.577479 0.795941
O O3 0.732377 0.505519 0.032758
O O4 0.768665 0.549844 0.213240
O O5 0.861277 0.718274 0.375876
O O6 0.883821 0.815502 0.538307
O O7 0.828912 0.868868 0.417482
O O8 0.976940 0.811971 0.131618
O O9 0.413083 0.138600 0.466964
O O10 0.479059 0.124249 0.077722
O O11 0.409438 0.225030 0.693095
O O12 0.588521 0.621239 0.267411
O O13 0.500000 0.566324 0.250000
O O14 0.377132 0.491281 0.423601
O O15 0.500000 0.500000 0.000000
#
# Coordination Sequence:
#
# PCOD9307349 Si02
#       7
#     8   8   8   8   8   8   8
#     4  12  23  41  57  94 127 164 206 248 324 367
#     4   9  18  37  62  90 117 160 204 255 314 364
#     4   9  19  39  67  86 116 165 215 254 303 373
#     4   9  19  40  65  89 118 163 213 257 302 367
#     4   9  18  37  65  89 115 157 215 258 297 359
#     4  12  23  40  65  90 124 167 213 254 299 371
#     4  12  25  37  59  91 130 162 196 257 320 373
#
# _framework density 19.920377999999999
#
# number of rings (size 3 to 8) (size 9 to 14) (size 15 to 20)
#    0.000    1.714    2.857    4.714    0.000    0.571 
#    2.571    5.000    0.000    0.000    0.000    0.000 
#    0.000    0.000    0.000    0.000    0.000    0.000 
#
# Total GULP energy -156327.835561 kJ/mol
# GULP energy per Si atom -5583.136984 kJ/mol
# Density = 1.987504 g / cm^3
# Si number density = 19.920378 Si / 1000 Ang^3
#
#
#
# Elastic Constant Matrix: (Units=GPa)
#
#
# Indices 1 2 3 4 5 6 
#
# 1 36.6674 22.5749 -3.2451 0.0000 -4.2488 0.0000
# 2 22.5749 146.2409 35.4232 0.0000 -13.4138 0.0000
# 3 -3.2451 35.4232 46.4406 0.0000 -1.9860 0.0000
# 4 0.0000 0.0000 0.0000 8.1930 0.0000 4.0158
# 5 -4.2488 -13.4138 -1.9860 0.0000 18.8605 0.0000
# 6 0.0000 0.0000 0.0000 4.0158 0.0000 31.4359
#
#
#
# Elastic Compliance Matrix: (Units=1/GPa)
#
#
# Indices 1 2 3 4 5 6 
#
# 1 0.032284 -0.006438 0.007314 0.000000 0.003465 0.000000
# 2 -0.006438 0.010238 -0.008046 0.000000 0.004984 0.000000
# 3 0.007314 -0.008046 0.028133 0.000000 -0.001112 0.000000
# 4 0.000000 0.000000 0.000000 0.130209 0.000000 -0.016633
# 5 0.003465 0.004984 -0.001112 0.000000 0.057229 0.000000
# 6 0.000000 0.000000 0.000000 -0.016633 0.000000 0.033936
#
#
# Mechanical properties :
#
#
# Convention : Reuss Voigt Hill
#
# Bulk Modulus (GPa) = 17.75635 37.65053 27.70344
# Shear Modulus (GPa) = 15.37805 23.33761 19.35783
#
# Velocity S-wave (km/s) = 2.78146 3.42650 3.12069
# Velocity P-wave (km/s) = 4.38730 5.88184 5.18866
#
# Compressibility (1/GPa) = 0.05631788
#
# Stress axis : x y z
#
# Youngs Moduli (GPa) = 30.97473 97.67728 35.54492
#
# Poissons Ratio (x) = 0.62881 -0.25999
# Poissons Ratio (y) = 0.19940 0.28598
# Poissons Ratio (z) = -0.22656 0.78588
#
# Static dielectric constant tensor:
#      x y z
#    x 1.715540 0.000000 -0.000300 
#    y 0.000000 1.715910 0.000000 
#    z -0.000300 0.000000 1.687820 
# 
# From -- ./inp_files/67138.got.cif
#   From: 2010.05.17/outbox.cif.g08.bks.cpg/sg15_34_cif.got.tgz:67138.got - 2010.06.03 18:47:42.
