data_PCOD9307099
_publ_section_title
;
Structure prediction by ZEFSAII (Michael W. Deem and Ramdas Pophale) SiO2 
 PCOD9307099
Probable space group: C 2/C
;
_chemical_formula_sum "Si O2"
_cell_formula_units_Z 64
_cell_length_a 28.764357
_cell_length_b 11.747402
_cell_length_c 17.583631
_cell_angle_alpha 90.000000
_cell_angle_beta 31.428197
_cell_angle_gamma 90.000000
_cell_volume 3098.138053
_symmetry_space_group_name_H-M "C 2/C"
_symmetry_group_IT_number 15
_symmetry_cell_setting 'monoclinic'
loop_
_space_group_symop_operation_xyz
x,y,z
-x,y,1/2-z
-x,-y,-z
x,-y,1/2+z
1/2+x,1/2+y,z
1/2-x,1/2+y,1/2-z
1/2-x,1/2-y,-z
1/2+x,1/2-y,1/2+z
loop_
_atom_site_type_symbol
_atom_site_label
_atom_site_fract_x
_atom_site_fract_y
_atom_site_fract_z
Si Si1 0.680517 0.243980 0.026176
Si Si2 0.832542 0.212800 0.711966
Si Si3 0.906151 0.504483 0.334799
Si Si4 0.905250 0.992466 0.677228
Si Si5 0.252051 0.821198 0.578058
Si Si6 0.902663 0.543516 0.154600
Si Si7 0.093356 0.022518 0.653712
Si Si8 0.231121 0.902258 0.350472
O O1 0.634650 0.123332 0.080854
O O2 0.610417 0.343427 0.134806
O O3 0.750000 0.250000 0.000000
O O4 0.737428 0.261595 0.870566
O O5 0.865024 0.118627 0.726265
O O6 0.892811 0.325979 0.637351
O O7 0.818812 0.130738 0.658113
O O8 0.837408 0.403615 0.450720
O O9 0.899994 0.524107 0.250717
O O10 0.000000 0.486837 0.250000
O O11 0.915138 0.969512 0.752123
O O12 0.828020 0.898223 0.772791
O O13 0.000000 0.000000 0.500000
O O14 0.250000 0.750000 0.500000
O O15 0.259148 0.721119 0.627573
O O16 0.825476 0.469033 0.220552
O O17 0.000000 0.500000 0.000000
O O18 0.000000 0.996278 0.750000
O O19 0.170405 0.972757 0.493679
#
# Coordination Sequence:
#
# PCOD9307099 Si02
#       8
#     8   8   8   8   8   8   8   8
#     4  12  21  47  75 100 144 188 244 307 367 437
#     4  12  27  45  78 105 148 196 248 312 378 446
#     4  12  26  46  77 111 141 196 250 304 383 458
#     4  12  26  45  75 111 147 191 257 312 370 448
#     4  12  25  50  75 103 152 205 246 306 381 461
#     4  12  28  49  72 112 155 188 249 317 376 449
#     4  12  24  46  73 105 145 193 247 305 375 445
#     4  12  28  48  73 105 150 201 245 303 380 455
#
# _framework density 20.657568000000001
#
# number of rings (size 3 to 8) (size 9 to 14) (size 15 to 20)
#    0.000    0.000    7.500    1.125    7.000    1.500 
#    0.000    0.000    0.000    0.000    0.000    0.000 
#    0.000    0.000    0.000    0.000    0.000    0.000 
#
# Total GULP energy -178220.610317 kJ/mol
# GULP energy per Si atom -5569.394072 kJ/mol
# Density = 2.061055 g / cm^3
# Si number density = 20.657568 Si / 1000 Ang^3
#
#
#
# Elastic Constant Matrix: (Units=GPa)
#
#
# Indices 1 2 3 4 5 6 
#
# 1 89.4628 35.4386 21.6429 0.0000 -7.6187 0.0000
# 2 35.4386 139.7449 37.3064 0.0000 -22.1425 0.0000
# 3 21.6429 37.3064 109.5417 0.0000 -14.4082 0.0000
# 4 0.0000 0.0000 0.0000 25.7732 0.0000 0.2584
# 5 -7.6187 -22.1425 -14.4082 0.0000 30.9989 0.0000
# 6 0.0000 0.0000 0.0000 0.2584 0.0000 33.8111
#
#
#
# Elastic Compliance Matrix: (Units=1/GPa)
#
#
# Indices 1 2 3 4 5 6 
#
# 1 0.012666 -0.002737 -0.001511 0.000000 0.000456 0.000000
# 2 -0.002737 0.009150 -0.001922 0.000000 0.004970 0.000000
# 3 -0.001511 -0.001922 0.010494 0.000000 0.003134 0.000000
# 4 0.000000 0.000000 0.000000 0.038803 0.000000 -0.000297
# 5 0.000456 0.004970 0.003134 0.000000 0.037378 0.000000
# 6 0.000000 0.000000 0.000000 -0.000297 0.000000 0.029578
#
#
# Mechanical properties :
#
#
# Convention : Reuss Voigt Hill
#
# Bulk Modulus (GPa) = 50.06842 58.61394 54.34118
# Shear Modulus (GPa) = 31.83380 34.40740 33.12060
#
# Velocity S-wave (km/s) = 3.92985 4.08561 4.00849
# Velocity P-wave (km/s) = 6.69937 7.11983 6.91280
#
# Compressibility (1/GPa) = 0.01997267
#
# Stress axis : x y z
#
# Youngs Moduli (GPa) = 78.95075 109.28378 95.29163
#
# Poissons Ratio (x) = 0.29906 0.14394
# Poissons Ratio (y) = 0.21605 0.18314
# Poissons Ratio (z) = 0.11926 0.21004
#
# Static dielectric constant tensor:
#      x y z
#    x 1.670900 0.000000 0.085710 
#    y 0.000000 1.711380 0.000000 
#    z 0.085710 0.000000 1.789780 
# 
# From -- ./inp_files/225168.got.cif
#   From: 2010.05.17/outbox.cif.g08.bks.cpg/sg15_113_cif.got.tgz:225168.got - 2010.06.03 18:47:42.
