data_PCOD9307671
_publ_section_title
;
Structure prediction by ZEFSAII (Michael W. Deem and Ramdas Pophale) SiO2 
 PCOD9307671
Probable space group: C 2/C
;
_chemical_formula_sum "Si O2"
_cell_formula_units_Z 28
_cell_length_a 22.997071
_cell_length_b 5.253354
_cell_length_c 8.907756
_cell_angle_alpha 90.000000
_cell_angle_beta 73.127613
_cell_angle_gamma 90.000000
_cell_volume 1029.836722
_symmetry_space_group_name_H-M "C 2/C"
_symmetry_group_IT_number 15
_symmetry_cell_setting 'monoclinic'
loop_
_space_group_symop_operation_xyz
x,y,z
-x,y,1/2-z
-x,-y,-z
x,-y,1/2+z
1/2+x,1/2+y,z
1/2-x,1/2+y,1/2-z
1/2-x,1/2-y,-z
1/2+x,1/2-y,1/2+z
loop_
_atom_site_type_symbol
_atom_site_label
_atom_site_fract_x
_atom_site_fract_y
_atom_site_fract_z
Si Si1 0.069421 0.005997 0.509705
Si Si2 0.771208 0.351438 0.820422
Si Si3 0.000000 0.376850 0.750000
Si Si4 0.606351 0.848166 0.238589
O O1 0.113628 0.120233 0.352278
O O2 0.096370 0.766146 0.578956
O O3 0.055247 0.211316 0.648328
O O4 0.000000 0.000000 0.500000
O O5 0.738779 0.612085 0.784389
O O6 0.839909 0.454139 0.786057
O O7 0.750000 0.250000 0.000000
O O8 0.960737 0.548134 0.668449
#
# Coordination Sequence:
#
# PCOD9307671 Si02
#       4
#     8   8   4   8
#     4  12  24  49  77 128 180 230 284 364 462 551
#     4  12  33  64  95 130 177 245 315 383 453 535
#     4  12  24  44  82 124 174 220 290 360 462 526
#     4  12  29  49  86 125 179 231 299 373 453 546
#
# _framework density 27.188773999999999
#
# number of rings (size 3 to 8) (size 9 to 14) (size 15 to 20)
#    0.000    0.000    5.714    1.714    8.000    2.286 
#    0.000    0.000    0.000    0.000    0.000    0.000 
#    0.000    0.000    0.000    0.000    0.000    0.000 
#
# Total GULP energy -78341.480643 kJ/mol
# GULP energy per Si atom -5595.820046 kJ/mol
# Density = 2.712689 g / cm^3
# Si number density = 27.188774 Si / 1000 Ang^3
#
#
#
# Elastic Constant Matrix: (Units=GPa)
#
#
# Indices 1 2 3 4 5 6 
#
# 1 228.7802 113.3463 62.1402 0.0000 7.8247 0.0000
# 2 113.3463 202.9608 75.9576 0.0000 15.8699 0.0000
# 3 62.1402 75.9576 136.1794 0.0000 3.9617 0.0000
# 4 0.0000 0.0000 0.0000 65.6673 0.0000 8.3453
# 5 7.8247 15.8699 3.9617 0.0000 30.0080 0.0000
# 6 0.0000 0.0000 0.0000 8.3453 0.0000 78.7343
#
#
#
# Elastic Compliance Matrix: (Units=1/GPa)
#
#
# Indices 1 2 3 4 5 6 
#
# 1 0.006178 -0.003040 -0.001128 0.000000 0.000145 0.000000
# 2 -0.003040 0.007974 -0.002973 0.000000 -0.003032 0.000000
# 3 -0.001128 -0.002973 0.009498 0.000000 0.000612 0.000000
# 4 0.000000 0.000000 0.000000 0.015436 0.000000 -0.001636
# 5 0.000145 -0.003032 0.000612 0.000000 0.034809 0.000000
# 6 0.000000 0.000000 0.000000 -0.001636 0.000000 0.012874
#
#
# Mechanical properties :
#
#
# Convention : Reuss Voigt Hill
#
# Bulk Modulus (GPa) = 106.72074 118.97872 112.84973
# Shear Modulus (GPa) = 47.99644 55.98035 51.98840
#
# Velocity S-wave (km/s) = 4.20611 4.54249 4.37753
# Velocity P-wave (km/s) = 7.93256 8.44793 8.19430
#
# Compressibility (1/GPa) = 0.00937025
#
# Stress axis : x y z
#
# Youngs Moduli (GPa) = 161.85524 125.40565 105.28277
#
# Poissons Ratio (x) = 0.38118 0.11877
# Poissons Ratio (y) = 0.49197 0.31296
# Poissons Ratio (z) = 0.18259 0.37278
#
# Static dielectric constant tensor:
#      x y z
#    x 2.126860 0.000000 0.187840 
#    y 0.000000 2.457890 0.000000 
#    z 0.187840 0.000000 2.545200 
# 
# From -- ./inp_files/64277.got.cif
#   From: 2010.05.17/outbox.cif.g08.bks.cpg/sg15_33_cif.got.tgz:64277.got - 2010.06.03 18:47:42.
