data_PCOD9307041
_publ_section_title
;
Structure prediction by ZEFSAII (Michael W. Deem and Ramdas Pophale) SiO2 
 PCOD9307041
Probable space group: C 2/C
;
_chemical_formula_sum "Si O2"
_cell_formula_units_Z 36
_cell_length_a 14.307781
_cell_length_b 27.374049
_cell_length_c 9.427998
_cell_angle_alpha 90.000000
_cell_angle_beta 31.702472
_cell_angle_gamma 90.000000
_cell_volume 1940.485644
_symmetry_space_group_name_H-M "C 2/C"
_symmetry_group_IT_number 15
_symmetry_cell_setting 'monoclinic'
loop_
_space_group_symop_operation_xyz
x,y,z
-x,y,1/2-z
-x,-y,-z
x,-y,1/2+z
1/2+x,1/2+y,z
1/2-x,1/2+y,1/2-z
1/2-x,1/2-y,-z
1/2+x,1/2-y,1/2+z
loop_
_atom_site_type_symbol
_atom_site_label
_atom_site_fract_x
_atom_site_fract_y
_atom_site_fract_z
Si Si1 0.815440 0.189006 0.552581
Si Si2 0.344383 0.888721 0.059491
Si Si3 0.611829 0.524271 0.729620
Si Si4 0.000000 0.716370 0.750000
Si Si5 0.906280 0.459682 0.220814
O O1 0.767063 0.158543 0.753649
O O2 0.645419 0.190029 0.663632
O O3 0.875767 0.245337 0.498978
O O4 0.000000 0.167046 0.250000
O O5 0.239548 0.934778 0.129084
O O6 0.408276 0.910878 0.127165
O O7 0.500000 0.876758 0.750000
O O8 0.500000 0.549363 0.750000
O O9 0.716741 0.481768 0.510232
O O10 0.500000 0.500000 0.000000
O O11 0.000000 0.453691 0.250000
O O12 0.000000 0.500000 0.000000
#
# Coordination Sequence:
#
# PCOD9307041 Si02
#       5
#     8   8   8   4   8
#     4   9  20  41  69  93 121 154 207 255 310 390
#     4  12  25  40  56  93 127 158 211 260 301 365
#     4  12  23  37  57  81 119 168 214 252 295 348
#     4   8  18  44  72  92 118 158 202 248 332 390
#     4  12  21  40  57  77 121 173 204 241 299 353
#
# _framework density 18.552057999999999
#
# number of rings (size 3 to 8) (size 9 to 14) (size 15 to 20)
#    0.667    0.444    6.667    0.000    4.667    0.000 
#    4.000    1.111    0.000    0.000    0.000    0.000 
#    0.000    0.000    0.000    0.000    0.000    0.000 
#
# Total GULP energy -100216.665317 kJ/mol
# GULP energy per Si atom -5567.592518 kJ/mol
# Density = 1.850983 g / cm^3
# Si number density = 18.552058 Si / 1000 Ang^3
#
#
#
# Elastic Constant Matrix: (Units=GPa)
#
#
# Indices 1 2 3 4 5 6 
#
# 1 112.3873 9.3195 31.6207 0.0000 2.6158 0.0000
# 2 9.3195 63.5218 45.1770 0.0000 10.0785 0.0000
# 3 31.6207 45.1770 163.9984 0.0000 14.2273 0.0000
# 4 0.0000 0.0000 0.0000 21.4862 0.0000 2.6784
# 5 2.6158 10.0785 14.2273 0.0000 30.6592 0.0000
# 6 0.0000 0.0000 0.0000 2.6784 0.0000 -0.4759
#
#
#
# Elastic Compliance Matrix: (Units=1/GPa)
#
#
# Indices 1 2 3 4 5 6 
#
# 1 0.009409 -0.000120 -0.001787 0.000000 0.000066 0.000000
# 2 -0.000120 0.020087 -0.005145 0.000000 -0.004205 0.000000
# 3 -0.001787 -0.005145 0.008023 0.000000 -0.001879 0.000000
# 4 0.000000 0.000000 0.000000 0.027351 0.000000 0.153943
# 5 0.000066 -0.004205 -0.001879 0.000000 0.034865 0.000000
# 6 0.000000 0.000000 0.000000 0.153943 0.000000 -1.234917
#
#
# Mechanical properties :
#
#
# Convention : Reuss Voigt Hill
#
# Bulk Modulus (GPa) = 42.70985 56.90466 49.80725
# Shear Modulus (GPa) = -4.49126 27.25325 11.38100
#
# Velocity S-wave (km/s) = -1.55761 3.83693 2.47950
# Velocity P-wave (km/s) = 4.45384 7.09711 5.92476
#
# Compressibility (1/GPa) = 0.02341380
#
# Stress axis : x y z
#
# Youngs Moduli (GPa) = 106.28179 49.78367 124.64861
#
# Poissons Ratio (x) = 0.00598 0.22272
# Poissons Ratio (y) = 0.01277 0.64137
# Poissons Ratio (z) = 0.18990 0.25616
#
# Static dielectric constant tensor:
#      x y z
#    x 2.489140 0.000000 0.384480 
#    y 0.000000 1.702840 0.000000 
#    z 0.384480 0.000000 2.017120 
# 
# From -- ./inp_files/25892.got.cif
#   From: 2010.05.17/outbox.cif.g08.bks.cpg/sg15_13_cif.got.tgz:25892.got - 2010.06.03 18:47:42.
