data_PCOD9307283
_publ_section_title
;
Structure prediction by ZEFSAII (Michael W. Deem and Ramdas Pophale) SiO2 
 PCOD9307283
Probable space group: C 2/C
;
_chemical_formula_sum "Si O2"
_cell_formula_units_Z 40
_cell_length_a 19.323426
_cell_length_b 6.950888
_cell_length_c 27.576630
_cell_angle_alpha 90.000000
_cell_angle_beta 26.248194
_cell_angle_gamma 90.000000
_cell_volume 1638.112353
_symmetry_space_group_name_H-M "C 2/C"
_symmetry_group_IT_number 15
_symmetry_cell_setting 'monoclinic'
loop_
_space_group_symop_operation_xyz
x,y,z
-x,y,1/2-z
-x,-y,-z
x,-y,1/2+z
1/2+x,1/2+y,z
1/2-x,1/2+y,1/2-z
1/2-x,1/2-y,-z
1/2+x,1/2-y,1/2+z
loop_
_atom_site_type_symbol
_atom_site_label
_atom_site_fract_x
_atom_site_fract_y
_atom_site_fract_z
Si Si1 0.912146 0.516217 0.647915
Si Si2 0.075207 0.184862 0.979664
Si Si3 0.333907 0.039159 0.356848
Si Si4 0.495047 0.253344 0.173468
Si Si5 0.147450 0.863807 0.757450
O O1 0.992026 0.327989 0.620596
O O2 0.935741 0.669340 0.675751
O O3 0.732010 0.461164 0.751147
O O4 0.969128 0.643292 0.566814
O O5 0.203120 0.292882 0.866488
O O6 0.181549 0.087600 0.954604
O O7 0.000000 0.000000 0.000000
O O8 0.500000 0.923083 0.250000
O O9 0.349337 0.162122 0.297039
O O10 0.359838 0.179500 0.385948
O O11 0.464418 0.478486 0.194475
#
# Coordination Sequence:
#
# PCOD9307283 Si02
#       5
#     8   8   8   8   8
#     4  12  23  38  71 101 136 180 239 277 346 422
#     4  12  25  42  73 109 137 178 237 293 353 412
#     4   8  20  46  65  90 145 174 231 284 345 410
#     4   9  21  43  66  92 130 192 224 275 344 413
#     4  12  22  45  67  99 145 180 223 290 357 405
#
# _framework density 24.41835
#
# number of rings (size 3 to 8) (size 9 to 14) (size 15 to 20)
#    1.200    0.000    4.000    3.000    0.000    0.800 
#   10.800    1.000    0.000    0.000    0.000    0.000 
#    0.000    0.000    0.000    0.000    0.000    0.000 
#
# Total GULP energy -111526.915360 kJ/mol
# GULP energy per Si atom -5576.345768 kJ/mol
# Density = 2.436277 g / cm^3
# Si number density = 24.418350 Si / 1000 Ang^3
#
#
#
# Elastic Constant Matrix: (Units=GPa)
#
#
# Indices 1 2 3 4 5 6 
#
# 1 93.9786 35.0616 -1.3290 -0.0090 -11.4753 -0.0015
# 2 35.0616 134.4919 23.7487 -0.0143 -2.7313 -0.0044
# 3 -1.3290 23.7487 38.1838 0.0039 8.3001 -0.0038
# 4 -0.0090 -0.0143 0.0039 30.0091 -0.0002 -1.4099
# 5 -11.4753 -2.7313 8.3001 -0.0002 32.3058 0.0040
# 6 -0.0015 -0.0044 -0.0038 -1.4099 0.0040 29.6229
#
#
#
# Elastic Compliance Matrix: (Units=1/GPa)
#
#
# Indices 1 2 3 4 5 6 
#
# 1 0.012410 -0.003479 0.001802 0.000002 0.003651 0.000000
# 2 -0.003479 0.009473 -0.006269 0.000004 0.001176 0.000000
# 3 0.001802 -0.006269 0.031909 -0.000006 -0.008088 0.000004
# 4 0.000002 0.000004 -0.000006 0.033398 0.000003 0.001590
# 5 0.003651 0.001176 -0.008088 0.000003 0.034428 -0.000005
# 6 0.000000 0.000000 0.000004 0.001590 -0.000005 0.033833
#
#
# Mechanical properties :
#
#
# Convention : Reuss Voigt Hill
#
# Bulk Modulus (GPa) = 26.38467 42.40187 34.39327
# Shear Modulus (GPa) = 27.17737 32.33241 29.75489
#
# Velocity S-wave (km/s) = 3.33977 3.64277 3.49456
# Velocity P-wave (km/s) = 5.06960 5.92414 5.51345
#
# Compressibility (1/GPa) = 0.03790079
#
# Stress axis : x y z
#
# Youngs Moduli (GPa) = 80.57954 105.56054 31.33942
#
# Poissons Ratio (x) = 0.36729 -0.05648
# Poissons Ratio (y) = 0.28037 0.19645
# Poissons Ratio (z) = -0.14523 0.66171
#
# Static dielectric constant tensor:
#      x y z
#    x 2.012970 0.000020 0.121440 
#    y 0.000020 1.944720 0.000040 
#    z 0.121440 0.000040 2.048880 
# 
# From -- ./inp_files/318259.got.cif
#   From: 2010.05.17/outbox.cif.g08.bks.cpg/sg15_160_cif.got.tgz:318259.got - 2010.06.03 18:47:42.
