data_PCOD9307034
_publ_section_title
;
Structure prediction by ZEFSAII (Michael W. Deem and Ramdas Pophale) SiO2 
 PCOD9307034
Probable space group: C 2/C
;
_chemical_formula_sum "Si O2"
_cell_formula_units_Z 60
_cell_length_a 8.600812
_cell_length_b 17.405763
_cell_length_c 21.258324
_cell_angle_alpha 90.000000
_cell_angle_beta 100.737445
_cell_angle_gamma 90.000000
_cell_volume 3126.728931
_symmetry_space_group_name_H-M "C 2/C"
_symmetry_group_IT_number 15
_symmetry_cell_setting 'monoclinic'
loop_
_space_group_symop_operation_xyz
x,y,z
-x,y,1/2-z
-x,-y,-z
x,-y,1/2+z
1/2+x,1/2+y,z
1/2-x,1/2+y,1/2-z
1/2-x,1/2-y,-z
1/2+x,1/2-y,1/2+z
loop_
_atom_site_type_symbol
_atom_site_label
_atom_site_fract_x
_atom_site_fract_y
_atom_site_fract_z
Si Si1 0.899461 0.690639 0.833662
Si Si2 0.995798 0.441524 0.558107
Si Si3 0.219464 0.671966 0.533903
Si Si4 0.500000 0.326070 0.750000
Si Si5 0.997639 0.954264 0.064737
Si Si6 0.316298 0.558718 0.145848
Si Si7 0.667332 0.059531 0.860679
Si Si8 0.309737 0.569191 0.738051
O O1 0.849948 0.693055 0.902811
O O2 0.936297 0.769515 0.800197
O O3 0.756959 0.652238 0.783631
O O4 0.047209 0.630840 0.843805
O O5 0.897776 0.372640 0.521572
O O6 0.910637 0.488244 0.608090
O O7 0.000000 0.500000 0.500000
O O8 0.170289 0.414878 0.592151
O O9 0.250000 0.750000 0.500000
O O10 0.367130 0.613376 0.555267
O O11 0.618897 0.381628 0.797795
O O12 0.171062 0.920140 0.090363
O O13 0.950662 0.019400 0.112673
O O14 0.000000 0.000000 0.000000
O O15 0.249544 0.486375 0.179173
O O16 0.732489 0.040600 0.796444
O O17 0.500000 0.567074 0.750000
#
# Coordination Sequence:
#
# PCOD9307034 Si02
#       8
#     8   8   8   4   8   8   8   8
#     4  12  25  46  67 100 147 179 232 291 358 410
#     4  12  22  45  73 103 135 184 239 285 347 424
#     4  12  27  46  68 103 147 180 225 303 356 406
#     4  12  28  44  70 108 140 180 236 304 348 412
#     4  12  23  41  71 105 134 183 236 282 348 429
#     4  12  24  44  70  99 144 180 235 295 342 422
#     4  12  21  38  76 100 129 188 236 277 343 430
#     4  12  21  42  70  98 132 187 231 278 348 418
#
# _framework density 19.189382999999999
#
# number of rings (size 3 to 8) (size 9 to 14) (size 15 to 20)
#    0.000    0.000   10.000    0.000    1.867    2.133 
#    2.400    1.333    0.000    0.000    0.000    0.000 
#    0.000    0.000    0.000    0.000    0.000    0.000 
#
# Total GULP energy -167452.988086 kJ/mol
# GULP energy per Si atom -5581.766270 kJ/mol
# Density = 1.914571 g / cm^3
# Si number density = 19.189383 Si / 1000 Ang^3
#
#
#
# Elastic Constant Matrix: (Units=GPa)
#
#
# Indices 1 2 3 4 5 6 
#
# 1 105.7099 37.7751 50.9320 0.0000 7.1007 0.0000
# 2 37.7751 97.8184 28.6871 0.0000 1.4242 0.0000
# 3 50.9320 28.6871 110.5708 0.0000 -14.2295 0.0000
# 4 0.0000 0.0000 0.0000 44.7245 0.0000 -1.1401
# 5 7.1007 1.4242 -14.2295 0.0000 56.1875 0.0000
# 6 0.0000 0.0000 0.0000 -1.1401 0.0000 21.9922
#
#
#
# Elastic Compliance Matrix: (Units=1/GPa)
#
#
# Indices 1 2 3 4 5 6 
#
# 1 0.013738 -0.003557 -0.005806 0.000000 -0.003116 0.000000
# 2 -0.003557 0.012045 -0.001517 0.000000 -0.000240 0.000000
# 3 -0.005806 -0.001517 0.012623 0.000000 0.003969 0.000000
# 4 0.000000 0.000000 0.000000 0.022389 0.000000 0.001161
# 5 -0.003116 -0.000240 0.003969 0.000000 0.019203 0.000000
# 6 0.000000 0.000000 0.000000 0.001161 0.000000 0.045531
#
#
# Mechanical properties :
#
#
# Convention : Reuss Voigt Hill
#
# Bulk Modulus (GPa) = 60.08003 60.98747 60.53375
# Shear Modulus (GPa) = 32.71446 37.69450 35.20448
#
# Velocity S-wave (km/s) = 4.13343 4.43690 4.28785
# Velocity P-wave (km/s) = 7.35916 7.62227 7.49187
#
# Compressibility (1/GPa) = 0.01664446
#
# Stress axis : x y z
#
# Youngs Moduli (GPa) = 72.79209 83.02062 79.22077
#
# Poissons Ratio (x) = 0.29531 0.45997
# Poissons Ratio (y) = 0.25892 0.12022
# Poissons Ratio (z) = 0.42264 0.12598
#
# Static dielectric constant tensor:
#      x y z
#    x 1.699960 0.000000 0.020290 
#    y 0.000000 1.598520 0.000000 
#    z 0.020290 0.000000 1.796740 
# 
# From -- ./inp_files/232722.got.cif
#   From: 2010.05.17/outbox.cif.g08.bks.cpg/sg15_117_cif.got.tgz:232722.got - 2010.06.03 18:47:42.
