data_PCOD9307537
_publ_section_title
;
Structure prediction by ZEFSAII (Michael W. Deem and Ramdas Pophale) SiO2 
 PCOD9307537
Probable space group: C 2/C
;
_chemical_formula_sum "Si O2"
_cell_formula_units_Z 24
_cell_length_a 16.779118
_cell_length_b 13.235701
_cell_length_c 13.854301
_cell_angle_alpha 90.000000
_cell_angle_beta 15.329099
_cell_angle_gamma 90.000000
_cell_volume 813.394411
_symmetry_space_group_name_H-M "C 2/C"
_symmetry_group_IT_number 15
_symmetry_cell_setting 'monoclinic'
loop_
_space_group_symop_operation_xyz
x,y,z
-x,y,1/2-z
-x,-y,-z
x,-y,1/2+z
1/2+x,1/2+y,z
1/2-x,1/2+y,1/2-z
1/2-x,1/2-y,-z
1/2+x,1/2-y,1/2+z
loop_
_atom_site_type_symbol
_atom_site_label
_atom_site_fract_x
_atom_site_fract_y
_atom_site_fract_z
Si Si1 0.500000 0.140884 0.250000
Si Si2 0.046709 0.298950 0.910527
Si Si3 0.000000 0.176426 0.250000
Si Si4 0.079271 0.009309 0.520133
O O1 0.508250 0.212173 0.145673
O O2 0.207149 0.070129 0.600135
O O3 0.241441 0.265569 0.775853
O O4 0.137760 0.416222 0.797410
O O5 0.112992 0.095724 0.036260
O O6 0.750000 0.250000 0.500000
O O7 0.000000 0.000000 0.500000
#
# Coordination Sequence:
#
# PCOD9307537 Si02
#       4
#     4   8   4   8
#     4  12  23  49  78 110 164 198 255 335 422 460
#     4  12  25  45  79 119 157 197 252 337 421 477
#     4  12  29  57  80 110 168 228 273 335 412 490
#     4  12  29  51  83 117 162 217 282 333 406 501
#
# _framework density 29.505980000000001
#
# number of rings (size 3 to 8) (size 9 to 14) (size 15 to 20)
#    0.000    0.000    6.667    2.000    0.000    4.000 
#    0.000    0.000    0.000    0.000    0.000    0.000 
#    0.000    0.000    0.000    0.000    0.000    0.000 
#
# Total GULP energy -67146.073339 kJ/mol
# GULP energy per Si atom -5595.506112 kJ/mol
# Density = 2.943882 g / cm^3
# Si number density = 29.505980 Si / 1000 Ang^3
#
#
#
# Elastic Constant Matrix: (Units=GPa)
#
#
# Indices 1 2 3 4 5 6 
#
# 1 260.0845 153.6804 111.4765 0.4239 -54.8755 0.3565
# 2 153.6804 329.9236 136.6782 0.2061 -38.9145 0.2073
# 3 111.4765 136.6782 179.5774 0.7086 -34.4515 0.7600
# 4 0.4239 0.2061 0.7086 -99.7012 0.0790 -135.9667
# 5 -54.8755 -38.9145 -34.4515 0.0790 92.1122 0.0192
# 6 0.3565 0.2073 0.7600 -135.9667 0.0192 -5.7269
#
#
#
# Elastic Compliance Matrix: (Units=1/GPa)
#
#
# Indices 1 2 3 4 5 6 
#
# 1 0.006267 -0.001787 -0.002111 0.000002 0.002189 0.000006
# 2 -0.001787 0.004973 -0.002669 -0.000012 0.000039 -0.000003
# 3 -0.002111 -0.002669 0.009106 0.000041 0.001021 0.000007
# 4 0.000002 -0.000012 0.000041 0.000320 0.000013 -0.007589
# 5 0.002189 0.000039 0.001021 0.000013 0.012559 0.000010
# 6 0.000006 -0.000003 0.000007 -0.007589 0.000010 0.005565
#
#
# Mechanical properties :
#
#
# Convention : Reuss Voigt Hill
#
# Bulk Modulus (GPa) = 138.61531 174.80619 156.71075
# Shear Modulus (GPa) = 92.03579 21.85353 56.94466
#
# Velocity S-wave (km/s) = 5.59106 2.72444 4.39787
# Velocity P-wave (km/s) = 9.42129 8.32284 8.88905
#
# Compressibility (1/GPa) = 0.00721421
#
# Stress axis : x y z
#
# Youngs Moduli (GPa) = 159.55996 201.07024 109.82158
#
# Poissons Ratio (x) = 0.35925 0.23179
# Poissons Ratio (y) = 0.28509 0.29308
# Poissons Ratio (z) = 0.33677 0.53660
#
# Static dielectric constant tensor:
#      x y z
#    x 2.346620 -0.000370 0.429510 
#    y -0.000370 1.385160 0.001170 
#    z 0.429510 0.001170 2.435990 
# 
# From -- ./inp_files/160635.got.cif
#   From: 2010.05.17/outbox.cif.g08.bks.cpg/sg15_81_cif.got.tgz:160635.got - 2010.06.03 18:47:42.
