data_PCOD9307529
_publ_section_title
;
Structure prediction by ZEFSAII (Michael W. Deem and Ramdas Pophale) SiO2 
 PCOD9307529
Probable space group: C 2/C
;
_chemical_formula_sum "Si O2"
_cell_formula_units_Z 40
_cell_length_a 13.105171
_cell_length_b 8.231969
_cell_length_c 20.689202
_cell_angle_alpha 90.000000
_cell_angle_beta 38.981312
_cell_angle_gamma 90.000000
_cell_volume 1404.064237
_symmetry_space_group_name_H-M "C 2/C"
_symmetry_group_IT_number 15
_symmetry_cell_setting 'monoclinic'
loop_
_space_group_symop_operation_xyz
x,y,z
-x,y,1/2-z
-x,-y,-z
x,-y,1/2+z
1/2+x,1/2+y,z
1/2-x,1/2+y,1/2-z
1/2-x,1/2-y,-z
1/2+x,1/2-y,1/2+z
loop_
_atom_site_type_symbol
_atom_site_label
_atom_site_fract_x
_atom_site_fract_y
_atom_site_fract_z
Si Si1 0.513197 0.831962 0.531195
Si Si2 0.318097 0.153671 0.361054
Si Si3 0.536912 0.692909 0.296833
Si Si4 0.715357 0.019133 0.256694
Si Si5 0.233178 0.805028 0.446051
O O1 0.699593 0.786013 0.448928
O O2 0.419919 0.868332 0.642794
O O3 0.413410 0.711097 0.534249
O O4 0.500000 0.000000 0.500000
O O5 0.500000 0.195219 0.250000
O O6 0.237890 0.103042 0.332710
O O7 0.307003 0.987624 0.407227
O O8 0.627673 0.527843 0.274628
O O9 0.625776 0.709113 0.174190
O O10 0.374332 0.706314 0.431346
O O11 0.635852 0.847550 0.278325
#
# Coordination Sequence:
#
# PCOD9307529 Si02
#       5
#     8   8   8   8   8
#     4  12  28  47  76 124 161 221 288 337 412 513
#     4  12  26  51  80 118 171 222 275 347 432 491
#     4  12  24  50  77 117 159 216 263 342 410 484
#     4  12  23  48  81 109 171 206 274 341 406 488
#     4  12  24  49  80 111 163 216 282 347 419 496
#
# _framework density 28.488724000000001
#
# number of rings (size 3 to 8) (size 9 to 14) (size 15 to 20)
#    0.000    0.000    6.000    4.200    0.000    2.400 
#    7.200    1.000    0.000    0.000    0.000    0.000 
#    0.000    0.000    0.000    0.000    0.000    0.000 
#
# Total GULP energy -111973.647511 kJ/mol
# GULP energy per Si atom -5598.682376 kJ/mol
# Density = 2.842388 g / cm^3
# Si number density = 28.488724 Si / 1000 Ang^3
#
#
#
# Elastic Constant Matrix: (Units=GPa)
#
#
# Indices 1 2 3 4 5 6 
#
# 1 176.8159 67.7779 83.4039 0.0000 3.7435 0.0000
# 2 67.7779 88.5842 52.2645 0.0000 -12.5008 0.0000
# 3 83.4039 52.2645 244.0029 0.0000 -12.0377 0.0000
# 4 0.0000 0.0000 0.0000 50.3604 0.0000 0.3572
# 5 3.7435 -12.5008 -12.0377 0.0000 83.6491 0.0000
# 6 0.0000 0.0000 0.0000 0.3572 0.0000 45.8632
#
#
#
# Elastic Compliance Matrix: (Units=1/GPa)
#
#
# Indices 1 2 3 4 5 6 
#
# 1 0.008801 -0.005873 -0.001826 0.000000 -0.001534 0.000000
# 2 -0.005873 0.017042 -0.001515 0.000000 0.002592 0.000000
# 3 -0.001826 -0.001515 0.005076 0.000000 0.000586 0.000000
# 4 0.000000 0.000000 0.000000 0.019858 0.000000 -0.000155
# 5 -0.001534 0.002592 0.000586 0.000000 0.012495 0.000000
# 6 0.000000 0.000000 0.000000 -0.000155 0.000000 0.021805
#
#
# Mechanical properties :
#
#
# Convention : Reuss Voigt Hill
#
# Bulk Modulus (GPa) = 80.05966 101.81061 90.93513
# Shear Modulus (GPa) = 46.43949 56.37165 51.40557
#
# Velocity S-wave (km/s) = 4.04183 4.45312 4.25245
# Velocity P-wave (km/s) = 7.06718 7.89019 7.49000
#
# Compressibility (1/GPa) = 0.01249068
#
# Stress axis : x y z
#
# Youngs Moduli (GPa) = 113.62953 58.67986 197.01121
#
# Poissons Ratio (x) = 0.34461 0.35973
# Poissons Ratio (y) = 0.66731 0.29848
# Poissons Ratio (z) = 0.20748 0.08890
#
# Static dielectric constant tensor:
#      x y z
#    x 2.357050 0.000000 0.057990 
#    y 0.000000 2.184780 0.000000 
#    z 0.057990 0.000000 2.348780 
# 
# From -- ./inp_files/298299.got.cif
#   From: 2010.05.17/outbox.cif.g08.bks.cpg/sg15_150_cif.got.tgz:298299.got - 2010.06.03 18:47:42.
