data_PCOD9307390
_publ_section_title
;
Structure prediction by ZEFSAII (Michael W. Deem and Ramdas Pophale) SiO2 
 PCOD9307390
Probable space group: C 2/C
;
_chemical_formula_sum "Si O2"
_cell_formula_units_Z 40
_cell_length_a 11.469942
_cell_length_b 22.364615
_cell_length_c 11.336379
_cell_angle_alpha 90.000000
_cell_angle_beta 138.823428
_cell_angle_gamma 90.000000
_cell_volume 1914.585591
_symmetry_space_group_name_H-M "C 2/C"
_symmetry_group_IT_number 15
_symmetry_cell_setting 'monoclinic'
loop_
_space_group_symop_operation_xyz
x,y,z
-x,y,1/2-z
-x,-y,-z
x,-y,1/2+z
1/2+x,1/2+y,z
1/2-x,1/2+y,1/2-z
1/2-x,1/2-y,-z
1/2+x,1/2-y,1/2+z
loop_
_atom_site_type_symbol
_atom_site_label
_atom_site_fract_x
_atom_site_fract_y
_atom_site_fract_z
Si Si1 0.000000 0.634242 0.750000
Si Si2 0.000000 0.613134 0.250000
Si Si3 0.292942 0.313941 0.085116
Si Si4 0.708606 0.290849 0.150196
Si Si5 0.125827 0.164186 0.230483
Si Si6 0.082432 0.566952 0.055818
O O1 0.164166 0.677799 0.847982
O O2 0.981860 0.594017 0.618822
O O3 0.184336 0.646330 0.412417
O O4 0.019274 0.585348 0.137081
O O5 0.500000 0.326903 0.250000
O O6 0.231016 0.312437 0.174169
O O7 0.250000 0.250000 0.000000
O O8 0.731064 0.218921 0.158372
O O9 0.511493 0.314912 0.975778
O O10 0.219657 0.099165 0.292522
O O11 0.000000 0.165468 0.250000
O O12 0.000000 0.500000 0.000000
#
# Coordination Sequence:
#
# PCOD9307390 Si02
#       6
#     4   4   8   8   8   8
#     4  12  23  46  76 104 150 191 244 318 376 438
#     4  12  25  46  72 100 140 193 242 298 368 428
#     4  12  24  40  66 106 154 189 227 288 372 460
#     4  12  23  42  73 115 151 183 242 309 382 457
#     4  12  24  42  72 112 151 191 236 308 381 447
#     4  12  27  49  72 100 141 196 254 302 362 442
#
# _framework density 20.892249
#
# number of rings (size 3 to 8) (size 9 to 14) (size 15 to 20)
#    0.000    0.000    6.000    6.000    0.000    0.000 
#    0.000    2.000    0.000    0.000    0.000    0.000 
#    0.000    0.000    0.000    0.000    0.000    0.000 
#
# Total GULP energy -111344.011704 kJ/mol
# GULP energy per Si atom -5567.200585 kJ/mol
# Density = 2.084470 g / cm^3
# Si number density = 20.892249 Si / 1000 Ang^3
#
#
#
# Elastic Constant Matrix: (Units=GPa)
#
#
# Indices 1 2 3 4 5 6 
#
# 1 108.7618 53.4294 43.1322 0.0000 -15.6630 0.0000
# 2 53.4294 109.6324 70.0685 0.0000 4.8594 0.0000
# 3 43.1322 70.0685 157.5556 0.0000 -3.2955 0.0000
# 4 0.0000 0.0000 0.0000 -7.4317 0.0000 8.9083
# 5 -15.6630 4.8594 -3.2955 0.0000 56.2792 0.0000
# 6 0.0000 0.0000 0.0000 8.9083 0.0000 27.0866
#
#
#
# Elastic Compliance Matrix: (Units=1/GPa)
#
#
# Indices 1 2 3 4 5 6 
#
# 1 0.013073 -0.006037 -0.000808 0.000000 0.004112 0.000000
# 2 -0.006037 0.015648 -0.005376 0.000000 -0.003346 0.000000
# 3 -0.000808 -0.005376 0.008975 0.000000 0.000765 0.000000
# 4 0.000000 0.000000 0.000000 -0.096511 0.000000 0.031741
# 5 0.004112 -0.003346 0.000765 0.000000 0.019247 0.000000
# 6 0.000000 0.000000 0.000000 0.031741 0.000000 0.026480
#
#
# Mechanical properties :
#
#
# Convention : Reuss Voigt Hill
#
# Bulk Modulus (GPa) = 75.45264 78.80110 77.12687
# Shear Modulus (GPa) = 317.03582 29.14147 173.08864
#
# Velocity S-wave (km/s) = 12.33197 3.73882 9.11198
# Velocity P-wave (km/s) = 15.45844 7.51253 12.15322
#
# Compressibility (1/GPa) = 0.01325335
#
# Stress axis : x y z
#
# Youngs Moduli (GPa) = 76.49568 63.90651 111.41888
#
# Poissons Ratio (x) = 0.38579 0.09003
# Poissons Ratio (y) = 0.46179 0.59902
# Poissons Ratio (z) = 0.06181 0.34358
#
# Static dielectric constant tensor:
#      x y z
#    x 1.674620 0.000000 0.020760 
#    y 0.000000 1.714010 0.000000 
#    z 0.020760 0.000000 1.769580 
# 
# From -- ./inp_files/89337.got.cif
#   From: 2010.05.17/outbox.cif.g08.bks.cpg/sg15_45_cif.got.tgz:89337.got - 2010.06.03 18:47:42.
