data_PCOD9307271
_publ_section_title
;
Structure prediction by ZEFSAII (Michael W. Deem and Ramdas Pophale) SiO2 
 PCOD9307271
Probable space group: C 2/C
;
_chemical_formula_sum "Si O2"
_cell_formula_units_Z 48
_cell_length_a 21.583117
_cell_length_b 11.183785
_cell_length_c 12.551548
_cell_angle_alpha 90.000000
_cell_angle_beta 44.258083
_cell_angle_gamma 90.000000
_cell_volume 2114.405003
_symmetry_space_group_name_H-M "C 2/C"
_symmetry_group_IT_number 15
_symmetry_cell_setting 'monoclinic'
loop_
_space_group_symop_operation_xyz
x,y,z
-x,y,1/2-z
-x,-y,-z
x,-y,1/2+z
1/2+x,1/2+y,z
1/2-x,1/2+y,1/2-z
1/2-x,1/2-y,-z
1/2+x,1/2-y,1/2+z
loop_
_atom_site_type_symbol
_atom_site_label
_atom_site_fract_x
_atom_site_fract_y
_atom_site_fract_z
Si Si1 0.591786 0.197989 0.022067
Si Si2 0.000000 0.908259 0.250000
Si Si3 0.253180 0.146892 0.084638
Si Si4 0.350095 0.937194 0.843115
Si Si5 0.294908 0.741876 0.742816
Si Si6 0.000000 0.500000 0.000000
Si Si7 0.905514 0.008199 0.674059
O O1 0.552178 0.325395 0.102168
O O2 0.597945 0.128306 0.126629
O O3 0.693542 0.199122 0.858705
O O4 0.528370 0.127836 0.020854
O O5 0.070972 0.980847 0.229997
O O6 0.315523 0.189734 0.106320
O O7 0.160536 0.104266 0.251857
O O8 0.250000 0.250000 0.000000
O O9 0.287268 0.029575 0.981670
O O10 0.302250 0.836720 0.830092
O O11 0.414843 0.008084 0.685638
O O12 0.355920 0.627631 0.693039
O O13 0.000000 0.000000 0.500000
#
# Coordination Sequence:
#
# PCOD9307271 Si02
#       7
#     8   4   8   8   8   4   8
#     4  12  22  44  73 112 146 198 256 311 392 460
#     4  12  24  46  78 108 146 194 260 320 384 460
#     4  12  29  47  77 114 157 207 260 322 397 470
#     4  12  24  46  74 112 151 202 254 318 384 468
#     4  12  26  49  80 111 154 205 261 315 396 474
#     4  12  24  40  72 108 158 186 250 314 378 454
#     4  12  28  50  80 113 153 203 259 327 388 467
#
# _framework density 22.701423999999999
#
# number of rings (size 3 to 8) (size 9 to 14) (size 15 to 20)
#    0.000    0.000    5.000    4.500    4.667    1.333 
#    0.000    1.667    0.000    0.000    0.000    0.000 
#    0.000    0.000    0.000    0.000    0.000    0.000 
#
# Total GULP energy -133835.635409 kJ/mol
# GULP energy per Si atom -5576.484809 kJ/mol
# Density = 2.264975 g / cm^3
# Si number density = 22.701424 Si / 1000 Ang^3
#
#
#
# Elastic Constant Matrix: (Units=GPa)
#
#
# Indices 1 2 3 4 5 6 
#
# 1 92.4861 62.6626 13.4708 0.0000 4.2522 0.0000
# 2 62.6626 102.8836 31.6843 0.0000 15.2183 0.0000
# 3 13.4708 31.6843 117.1276 0.0000 -15.3124 0.0000
# 4 0.0000 0.0000 0.0000 32.2759 0.0000 19.8594
# 5 4.2522 15.2183 -15.3124 0.0000 32.0276 0.0000
# 6 0.0000 0.0000 0.0000 19.8594 0.0000 36.6606
#
#
#
# Elastic Compliance Matrix: (Units=1/GPa)
#
#
# Indices 1 2 3 4 5 6 
#
# 1 0.019020 -0.012817 0.001862 0.000000 0.004455 0.000000
# 2 -0.012817 0.020857 -0.005591 0.000000 -0.010882 0.000000
# 3 0.001862 -0.005591 0.010828 0.000000 0.007586 0.000000
# 4 0.000000 0.000000 0.000000 0.046473 0.000000 -0.025175
# 5 0.004455 -0.010882 0.007586 0.000000 0.039429 0.000000
# 6 0.000000 0.000000 0.000000 -0.025175 0.000000 0.040915
#
#
# Mechanical properties :
#
#
# Convention : Reuss Voigt Hill
#
# Bulk Modulus (GPa) = 56.77277 58.68140 57.72708
# Shear Modulus (GPa) = 23.09628 33.83813 28.46721
#
# Velocity S-wave (km/s) = 3.19312 3.86498 3.54500
# Velocity P-wave (km/s) = 6.21751 6.76925 6.49924
#
# Compressibility (1/GPa) = 0.01761408
#
# Stress axis : x y z
#
# Youngs Moduli (GPa) = 52.57514 47.94449 92.35640
#
# Poissons Ratio (x) = 0.61451 -0.17197
# Poissons Ratio (y) = 0.67386 0.51634
# Poissons Ratio (z) = -0.09790 0.26804
#
# Static dielectric constant tensor:
#      x y z
#    x 1.616600 0.000000 0.064680 
#    y 0.000000 1.881820 0.000000 
#    z 0.064680 0.000000 1.889270 
# 
# From -- ./inp_files/111484.got.cif
#   From: 2010.05.17/outbox.cif.g08.bks.cpg/sg15_56_cif.got.tgz:111484.got - 2010.06.03 18:47:42.
