data_PCOD9307786
_publ_section_title
;
Structure prediction by ZEFSAII (Michael W. Deem and Ramdas Pophale) SiO2 
 PCOD9307786
Probable space group: C 2/C
;
_chemical_formula_sum "Si O2"
_cell_formula_units_Z 44
_cell_length_a 23.066310
_cell_length_b 6.578289
_cell_length_c 22.939345
_cell_angle_alpha 90.000000
_cell_angle_beta 143.255728
_cell_angle_gamma 90.000000
_cell_volume 2082.335951
_symmetry_space_group_name_H-M "C 2/C"
_symmetry_group_IT_number 15
_symmetry_cell_setting 'monoclinic'
loop_
_space_group_symop_operation_xyz
x,y,z
-x,y,1/2-z
-x,-y,-z
x,-y,1/2+z
1/2+x,1/2+y,z
1/2-x,1/2+y,1/2-z
1/2-x,1/2-y,-z
1/2+x,1/2-y,1/2+z
loop_
_atom_site_type_symbol
_atom_site_label
_atom_site_fract_x
_atom_site_fract_y
_atom_site_fract_z
Si Si1 0.325932 0.181267 0.933849
Si Si2 0.500000 0.973388 0.750000
Si Si3 0.986823 0.980640 0.589042
Si Si4 0.917868 0.603767 0.894978
Si Si5 0.381397 0.804153 0.757191
Si Si6 0.848677 0.321265 0.048868
O O1 0.329043 0.113128 0.868539
O O2 0.224107 0.296703 0.856754
O O3 0.417037 0.334426 0.012915
O O4 0.333514 0.998370 0.987183
O O5 0.459519 0.848558 0.770807
O O6 0.587265 0.100068 0.846280
O O7 0.915010 0.852392 0.572786
O O8 0.032807 0.817020 0.582264
O O9 0.083215 0.086196 0.691739
O O10 0.891519 0.472607 0.816458
O O11 0.000000 0.500000 0.000000
O O12 0.750000 0.250000 0.000000
#
# Coordination Sequence:
#
# PCOD9307786 Si02
#       6
#     8   4   8   8   8   8
#     4  12  28  48  74 111 147 189 247 301 369 438
#     4  12  24  54  68 106 148 184 256 296 364 438
#     4  12  24  48  74 103 142 197 231 311 364 424
#     4  12  24  50  71 106 147 184 246 297 370 436
#     4  12  29  44  75 107 141 192 242 298 363 437
#     4  12  28  47  74 109 147 195 247 304 360 442
#
# _framework density 21.130116999999998
#
# number of rings (size 3 to 8) (size 9 to 14) (size 15 to 20)
#    0.000    0.000    7.273    1.636    7.636    2.909 
#    0.000    0.000    0.000    0.000    0.000    0.000 
#    0.000    0.000    0.000    0.000    0.000    0.000 
#
# Total GULP energy -122844.578308 kJ/mol
# GULP energy per Si atom -5583.844469 kJ/mol
# Density = 2.108202 g / cm^3
# Si number density = 21.130117 Si / 1000 Ang^3
#
#
#
# Elastic Constant Matrix: (Units=GPa)
#
#
# Indices 1 2 3 4 5 6 
#
# 1 96.0558 42.0820 16.2952 -0.0001 -7.9738 0.0003
# 2 42.0820 107.0562 31.2419 0.0001 -15.0370 0.0003
# 3 16.2952 31.2419 81.4573 0.0002 5.7132 -0.0002
# 4 -0.0001 0.0001 0.0002 32.7417 0.0000 -1.5787
# 5 -7.9738 -15.0370 5.7132 0.0000 41.8329 0.0000
# 6 0.0003 0.0003 -0.0002 -1.5787 0.0000 30.9586
#
#
#
# Elastic Compliance Matrix: (Units=1/GPa)
#
#
# Indices 1 2 3 4 5 6 
#
# 1 0.012640 -0.004607 -0.000822 0.000000 0.000866 0.000000
# 2 -0.004607 0.013054 -0.004395 0.000000 0.004415 0.000000
# 3 -0.000822 -0.004395 0.014386 0.000000 -0.003701 0.000000
# 4 0.000000 0.000000 0.000000 0.030617 0.000000 0.001561
# 5 0.000866 0.004415 -0.003701 0.000000 0.026162 0.000000
# 6 0.000000 0.000000 0.000000 0.001561 0.000000 0.032381
#
#
# Mechanical properties :
#
#
# Convention : Reuss Voigt Hill
#
# Bulk Modulus (GPa) = 48.94238 51.53417 50.23827
# Shear Modulus (GPa) = 32.11294 34.10332 33.10813
#
# Velocity S-wave (km/s) = 3.90265 4.02178 3.96266
# Velocity P-wave (km/s) = 6.59699 6.78293 6.69061
#
# Compressibility (1/GPa) = 0.02043219
#
# Stress axis : x y z
#
# Youngs Moduli (GPa) = 79.11161 76.60209 69.51177
#
# Poissons Ratio (x) = 0.35292 0.05716
# Poissons Ratio (y) = 0.36448 0.30549
# Poissons Ratio (z) = 0.06506 0.33665
#
# Static dielectric constant tensor:
#      x y z
#    x 1.697300 0.000000 -0.024160 
#    y 0.000000 2.710060 0.000000 
#    z -0.024160 0.000000 1.779200 
# 
# From -- ./inp_files/281270.got.cif
#   From: 2010.05.17/outbox.cif.g08.bks.cpg/sg15_141_cif.got.tgz:281270.got - 2010.06.03 18:47:42.
