data_PCOD9307146
_publ_section_title
;
Structure prediction by ZEFSAII (Michael W. Deem and Ramdas Pophale) SiO2 
 PCOD9307146
Probable space group: C 2/C
;
_chemical_formula_sum "Si O2"
_cell_formula_units_Z 56
_cell_length_a 14.071193
_cell_length_b 20.362194
_cell_length_c 18.702280
_cell_angle_alpha 90.000000
_cell_angle_beta 28.952401
_cell_angle_gamma 90.000000
_cell_volume 2593.998654
_symmetry_space_group_name_H-M "C 2/C"
_symmetry_group_IT_number 15
_symmetry_cell_setting 'monoclinic'
loop_
_space_group_symop_operation_xyz
x,y,z
-x,y,1/2-z
-x,-y,-z
x,-y,1/2+z
1/2+x,1/2+y,z
1/2-x,1/2+y,1/2-z
1/2-x,1/2-y,-z
1/2+x,1/2-y,1/2+z
loop_
_atom_site_type_symbol
_atom_site_label
_atom_site_fract_x
_atom_site_fract_y
_atom_site_fract_z
Si Si1 0.025915 0.112339 0.395874
Si Si2 0.126378 0.505817 0.346436
Si Si3 0.853619 0.873333 0.167446
Si Si4 0.677872 0.254637 0.831474
Si Si5 0.632497 0.406551 0.097041
Si Si6 0.327029 0.972569 0.418603
Si Si7 0.610116 0.210564 0.037264
O O1 0.067960 0.189515 0.358299
O O2 0.955398 0.112937 0.525027
O O3 0.843703 0.082234 0.470541
O O4 0.221775 0.067202 0.257941
O O5 0.255934 0.440941 0.254022
O O6 0.000000 0.500000 0.500000
O O7 0.957295 0.495419 0.399311
O O8 0.706078 0.811905 0.267410
O O9 0.001318 0.858292 0.135187
O O10 0.599750 0.236754 0.962200
O O11 0.888859 0.286976 0.709828
O O12 0.500000 0.433841 0.250000
O O13 0.803726 0.363125 0.018826
O O14 0.703662 0.460023 0.992335
O O15 0.500000 0.955023 0.250000
O O16 0.750000 0.250000 0.000000
#
# Coordination Sequence:
#
# PCOD9307146 Si02
#       7
#     8   8   8   8   8   8   8
#     4  12  26  48  72 107 150 193 246 308 374 455
#     4  12  27  46  77 109 146 191 248 311 380 440
#     4  12  23  44  69  98 148 191 243 307 370 445
#     4  12  25  42  68 100 146 198 242 306 375 447
#     4  12  22  39  66 104 146 180 236 313 374 441
#     4  12  26  46  74 104 146 195 246 303 375 448
#     4  12  22  39  62 102 146 191 242 304 382 451
#
# _framework density 21.588291000000002
#
# number of rings (size 3 to 8) (size 9 to 14) (size 15 to 20)
#    0.000    0.000    7.143    3.429    2.000    1.143 
#    0.000    0.714    0.000    0.000    0.000    0.000 
#    0.000    0.000    0.000    0.000    0.000    0.000 
#
# Total GULP energy -156202.573164 kJ/mol
# GULP energy per Si atom -5578.663327 kJ/mol
# Density = 2.153916 g / cm^3
# Si number density = 21.588291 Si / 1000 Ang^3
#
#
#
# Elastic Constant Matrix: (Units=GPa)
#
#
# Indices 1 2 3 4 5 6 
#
# 1 35.6582 -7.9485 -0.1294 0.0072 -19.1256 0.0046
# 2 -7.9485 105.8244 10.1722 -0.0478 -10.3983 0.0211
# 3 -0.1294 10.1722 74.0863 -0.0200 5.4862 0.0133
# 4 0.0072 -0.0478 -0.0200 31.2077 -0.0097 -1.9200
# 5 -19.1256 -10.3983 5.4862 -0.0097 27.8068 -0.0013
# 6 0.0046 0.0211 0.0133 -1.9200 -0.0013 31.7057
#
#
#
# Elastic Compliance Matrix: (Units=1/GPa)
#
#
# Indices 1 2 3 4 5 6 
#
# 1 0.050376 0.007923 -0.003841 0.000009 0.038369 -0.000009
# 2 0.007923 0.011257 -0.002280 0.000017 0.010109 -0.000006
# 3 -0.003841 -0.002280 0.014271 0.000004 -0.006310 -0.000004
# 4 0.000009 0.000017 0.000004 0.032163 0.000023 0.001948
# 5 0.038369 0.010109 -0.006310 0.000023 0.067378 -0.000005
# 6 -0.000009 -0.000006 -0.000004 0.001948 -0.000005 0.031658
#
#
# Mechanical properties :
#
#
# Convention : Reuss Voigt Hill
#
# Bulk Modulus (GPa) = 12.57737 24.41751 18.49744
# Shear Modulus (GPa) = 21.73877 32.37568 27.05722
#
# Velocity S-wave (km/s) = 3.17672 3.87678 3.54408
# Velocity P-wave (km/s) = 4.39250 5.60128 5.03331
#
# Compressibility (1/GPa) = 0.07950789
#
# Stress axis : x y z
#
# Youngs Moduli (GPa) = 19.85070 88.83165 70.06993
#
# Poissons Ratio (x) = -0.70383 0.26915
# Poissons Ratio (y) = -0.15728 0.15979
# Poissons Ratio (z) = 0.07625 0.20257
#
# Static dielectric constant tensor:
#      x y z
#    x 1.984270 0.000050 -0.079390 
#    y 0.000050 1.850660 0.000020 
#    z -0.079390 0.000020 1.837030 
# 
# From -- ./inp_files/206911.got.cif
#   From: 2010.05.17/outbox.cif.g08.bks.cpg/sg15_104_cif.got.tgz:206911.got - 2010.06.03 18:47:42.
