data_PCOD9307983
_publ_section_title
;
Structure prediction by ZEFSAII (Michael W. Deem and Ramdas Pophale) SiO2 
 PCOD9307983
Probable space group: C 2/C
;
_chemical_formula_sum "Si O2"
_cell_formula_units_Z 40
_cell_length_a 17.298729
_cell_length_b 11.693863
_cell_length_c 17.582727
_cell_angle_alpha 90.000000
_cell_angle_beta 153.734994
_cell_angle_gamma 90.000000
_cell_volume 1573.964152
_symmetry_space_group_name_H-M "C 2/C"
_symmetry_group_IT_number 15
_symmetry_cell_setting 'monoclinic'
loop_
_space_group_symop_operation_xyz
x,y,z
-x,y,1/2-z
-x,-y,-z
x,-y,1/2+z
1/2+x,1/2+y,z
1/2-x,1/2+y,1/2-z
1/2-x,1/2-y,-z
1/2+x,1/2-y,1/2+z
loop_
_atom_site_type_symbol
_atom_site_label
_atom_site_fract_x
_atom_site_fract_y
_atom_site_fract_z
Si Si1 0.207925 0.415416 0.604429
Si Si2 0.298301 0.337302 0.974732
Si Si3 0.954315 0.806943 0.525457
Si Si4 0.819243 0.151323 0.738761
Si Si5 0.697415 0.087178 0.920950
O O1 0.045047 0.331013 0.472507
O O2 0.188029 0.547810 0.606556
O O3 0.263980 0.410604 0.565839
O O4 0.363907 0.364823 0.793014
O O5 0.256167 0.269233 0.860146
O O6 0.195679 0.455302 0.892095
O O7 0.250000 0.250000 0.000000
O O8 0.502810 0.368192 0.152709
O O9 0.880193 0.846081 0.379183
O O10 0.817764 0.843925 0.469879
O O11 0.500000 0.131918 0.750000
#
# Coordination Sequence:
#
# PCOD9307983 Si02
#       5
#     8   8   8   8   8
#     4  12  26  50  73 109 153 199 250 308 369 455
#     4  12  25  47  76 108 148 196 250 308 373 441
#     4  12  27  47  77 108 153 200 246 310 382 443
#     4  12  27  48  77 110 154 195 251 315 376 440
#     4  12  26  47  75 109 146 197 253 306 373 450
#
# _framework density 25.413540000000001
#
# number of rings (size 3 to 8) (size 9 to 14) (size 15 to 20)
#    0.000    0.000    4.000    6.000    2.800    0.000 
#    0.000    3.000    0.000    0.000    0.000    0.000 
#    0.000    0.000    0.000    0.000    0.000    0.000 
#
# Total GULP energy -112298.446465 kJ/mol
# GULP energy per Si atom -5614.922323 kJ/mol
# Density = 2.535570 g / cm^3
# Si number density = 25.413540 Si / 1000 Ang^3
#
#
#
# Elastic Constant Matrix: (Units=GPa)
#
#
# Indices 1 2 3 4 5 6 
#
# 1 109.8082 38.6728 15.1636 0.0005 -31.9837 0.0004
# 2 38.6728 127.8976 20.1537 -0.0016 -15.3269 -0.0006
# 3 15.1636 20.1537 71.7065 -0.0020 -25.4681 -0.0009
# 4 0.0005 -0.0016 -0.0020 39.6129 -0.0014 -4.1381
# 5 -31.9837 -15.3269 -25.4681 -0.0014 63.7015 -0.0004
# 6 0.0004 -0.0006 -0.0009 -4.1381 -0.0004 32.5728
#
#
#
# Elastic Compliance Matrix: (Units=1/GPa)
#
#
# Indices 1 2 3 4 5 6 
#
# 1 0.011628 -0.002924 0.000218 0.000000 0.005221 0.000000
# 2 -0.002924 0.008999 -0.001939 0.000000 -0.000078 0.000000
# 3 0.000218 -0.001939 0.016687 0.000001 0.006314 0.000001
# 4 0.000000 0.000000 0.000001 0.025584 0.000001 0.003250
# 5 0.005221 -0.000078 0.006314 0.000001 0.020826 0.000001
# 6 0.000000 0.000000 0.000001 0.003250 0.000001 0.031113
#
#
# Mechanical properties :
#
#
# Convention : Reuss Voigt Hill
#
# Bulk Modulus (GPa) = 35.68497 50.82141 43.25319
# Shear Modulus (GPa) = 37.46199 42.87225 40.16712
#
# Velocity S-wave (km/s) = 3.84356 4.11175 3.97991
# Velocity P-wave (km/s) = 5.81115 6.52558 6.17870
#
# Compressibility (1/GPa) = 0.02802301
#
# Stress axis : x y z
#
# Youngs Moduli (GPa) = 86.00295 111.12171 59.92584
#
# Poissons Ratio (x) = 0.32497 -0.01304
# Poissons Ratio (y) = 0.25151 0.11617
# Poissons Ratio (z) = -0.01871 0.21542
#
# Static dielectric constant tensor:
#      x y z
#    x 1.989930 0.000000 0.021790 
#    y 0.000000 1.991900 0.000000 
#    z 0.021790 0.000000 1.988110 
# 
# From -- ./inp_files/46047.got.cif
#   From: 2010.05.17/outbox.cif.g08.bks.cpg/sg15_24_cif.got.tgz:46047.got - 2010.06.03 18:47:42.
