data_PCOD9307996
_publ_section_title
;
Structure prediction by ZEFSAII (Michael W. Deem and Ramdas Pophale) SiO2 
 PCOD9307996
Probable space group: C 2/C
;
_chemical_formula_sum "Si O2"
_cell_formula_units_Z 40
_cell_length_a 11.927022
_cell_length_b 15.858405
_cell_length_c 18.124651
_cell_angle_alpha 90.000000
_cell_angle_beta 152.151263
_cell_angle_gamma 90.000000
_cell_volume 1601.427291
_symmetry_space_group_name_H-M "C 2/C"
_symmetry_group_IT_number 15
_symmetry_cell_setting 'monoclinic'
loop_
_space_group_symop_operation_xyz
x,y,z
-x,y,1/2-z
-x,-y,-z
x,-y,1/2+z
1/2+x,1/2+y,z
1/2-x,1/2+y,1/2-z
1/2-x,1/2-y,-z
1/2+x,1/2-y,1/2+z
loop_
_atom_site_type_symbol
_atom_site_label
_atom_site_fract_x
_atom_site_fract_y
_atom_site_fract_z
Si Si1 0.392148 0.418398 0.568808
Si Si2 0.497365 0.916811 0.447003
Si Si3 0.810144 0.142834 0.859511
Si Si4 0.698670 0.903702 0.919495
Si Si5 0.116310 0.323558 0.642793
O O1 0.282567 0.380059 0.429102
O O2 0.329263 0.518118 0.535221
O O3 0.668946 0.392231 0.729007
O O4 0.250198 0.388958 0.558190
O O5 0.325756 0.919461 0.276105
O O6 0.441077 0.843413 0.471993
O O7 0.500000 0.000000 0.500000
O O8 0.750507 0.236419 0.797026
O O9 0.093098 0.137532 0.007049
O O10 0.500000 0.941643 0.750000
O O11 0.555013 0.838393 0.887024
#
# Coordination Sequence:
#
# PCOD9307996 Si02
#       5
#     8   8   8   8   8
#     4  12  26  49  79 108 151 208 256 309 386 474
#     4  12  26  47  74 112 153 198 257 322 387 455
#     4  12  27  47  78 113 155 199 256 322 391 461
#     4  12  25  47  79 107 152 206 264 307 382 468
#     4  12  27  48  75 115 154 200 258 324 385 454
#
# _framework density 24.977719
#
# number of rings (size 3 to 8) (size 9 to 14) (size 15 to 20)
#    0.000    0.000    4.000    6.000    0.000    5.600 
#    0.000    0.000    0.000    0.000    0.000    0.000 
#    0.000    0.000    0.000    0.000    0.000    0.000 
#
# Total GULP energy -111801.542388 kJ/mol
# GULP energy per Si atom -5590.077119 kJ/mol
# Density = 2.492087 g / cm^3
# Si number density = 24.977719 Si / 1000 Ang^3
#
#
#
# Elastic Constant Matrix: (Units=GPa)
#
#
# Indices 1 2 3 4 5 6 
#
# 1 157.2963 25.5831 27.5197 0.0019 -8.7952 0.0012
# 2 25.5831 101.4650 8.4585 0.0081 -14.2328 0.0017
# 3 27.5197 8.4585 103.7523 0.0051 -5.8822 0.0028
# 4 0.0019 0.0081 0.0051 31.3666 0.0012 -3.2632
# 5 -8.7952 -14.2328 -5.8822 0.0012 48.6707 0.0006
# 6 0.0012 0.0017 0.0028 -3.2632 0.0006 21.2307
#
#
#
# Elastic Compliance Matrix: (Units=1/GPa)
#
#
# Indices 1 2 3 4 5 6 
#
# 1 0.006933 -0.001523 -0.001680 0.000000 0.000604 0.000000
# 2 -0.001523 0.010659 -0.000306 -0.000003 0.002805 -0.000001
# 3 -0.001680 -0.000306 0.010156 -0.000002 0.000834 -0.000002
# 4 0.000000 -0.000003 -0.000002 0.032399 -0.000002 0.004980
# 5 0.000604 0.002805 0.000834 -0.000002 0.021576 -0.000001
# 6 0.000000 -0.000001 -0.000002 0.004980 -0.000001 0.047867
#
#
# Mechanical properties :
#
#
# Convention : Reuss Voigt Hill
#
# Bulk Modulus (GPa) = 48.24236 53.95956 51.10096
# Shear Modulus (GPa) = 34.83853 40.31708 37.57781
#
# Velocity S-wave (km/s) = 3.73873 4.02197 3.88294
# Velocity P-wave (km/s) = 6.16389 6.57406 6.37228
#
# Compressibility (1/GPa) = 0.02072867
#
# Stress axis : x y z
#
# Youngs Moduli (GPa) = 144.23843 93.82101 98.46084
#
# Poissons Ratio (x) = 0.14291 0.16546
# Poissons Ratio (y) = 0.21970 0.03012
# Poissons Ratio (z) = 0.24239 0.02870
#
# Static dielectric constant tensor:
#      x y z
#    x 1.928740 0.000000 0.035800 
#    y 0.000000 2.092570 0.000000 
#    z 0.035800 0.000000 2.036050 
# 
# From -- ./inp_files/199729.got.cif
#   From: 2010.05.17/outbox.cif.g08.bks.cpg/sg15_100_cif.got.tgz:199729.got - 2010.06.03 18:47:42.
