data_PCOD9307022
_publ_section_title
;
Structure prediction by ZEFSAII (Michael W. Deem and Ramdas Pophale) SiO2 
 PCOD9307022
Probable space group: C 2/C
;
_chemical_formula_sum "Si O2"
_cell_formula_units_Z 48
_cell_length_a 23.894995
_cell_length_b 11.800012
_cell_length_c 19.848163
_cell_angle_alpha 90.000000
_cell_angle_beta 156.105423
_cell_angle_gamma 90.000000
_cell_volume 2266.855116
_symmetry_space_group_name_H-M "C 2/C"
_symmetry_group_IT_number 15
_symmetry_cell_setting 'monoclinic'
loop_
_space_group_symop_operation_xyz
x,y,z
-x,y,1/2-z
-x,-y,-z
x,-y,1/2+z
1/2+x,1/2+y,z
1/2-x,1/2+y,1/2-z
1/2-x,1/2-y,-z
1/2+x,1/2-y,1/2+z
loop_
_atom_site_type_symbol
_atom_site_label
_atom_site_fract_x
_atom_site_fract_y
_atom_site_fract_z
Si Si1 0.217835 0.745984 0.158443
Si Si2 0.244882 0.022405 0.614374
Si Si3 0.933234 0.098463 0.470444
Si Si4 0.283024 0.659825 0.697615
Si Si5 0.151519 0.814707 0.443068
Si Si6 0.550091 0.021364 0.977172
O O1 0.226116 0.843640 0.110757
O O2 0.363166 0.688448 0.342205
O O3 0.176119 0.801348 0.182985
O O4 0.109109 0.645956 0.027407
O O5 0.406882 0.001446 0.781575
O O6 0.186954 0.960792 0.618045
O O7 0.172099 0.950152 0.475357
O O8 0.062783 0.135674 0.660757
O O9 0.000000 0.000000 0.500000
O O10 0.199705 0.754775 0.565630
O O11 0.173337 0.559911 0.588633
O O12 0.250000 0.750000 0.500000
O O13 0.000000 0.791126 0.250000
O O14 0.500000 0.000000 0.000000
#
# Coordination Sequence:
#
# PCOD9307022 Si02
#       6
#     8   8   8   8   8   8
#     4  12  22  36  66 103 144 166 216 287 366 415
#     4  12  25  39  66  99 137 178 232 285 352 413
#     4  12  21  38  58 104 146 176 208 274 368 434
#     4  12  24  38  67  97 135 177 233 280 344 416
#     4  12  27  49  70  93 135 194 246 288 328 415
#     4  12  21  38  60 101 141 173 211 276 361 430
#
# _framework density 21.174710000000001
#
# number of rings (size 3 to 8) (size 9 to 14) (size 15 to 20)
#    0.000    0.000    8.333    3.000    2.333    0.000 
#    0.000    0.000    0.000    5.000    0.000    0.000 
#    0.000    0.000    0.000    0.000    0.000    0.000 
#
# Total GULP energy -133851.979804 kJ/mol
# GULP energy per Si atom -5577.165825 kJ/mol
# Density = 2.112652 g / cm^3
# Si number density = 21.174710 Si / 1000 Ang^3
#
#
#
# Elastic Constant Matrix: (Units=GPa)
#
#
# Indices 1 2 3 4 5 6 
#
# 1 47.0956 38.6842 29.3573 0.0000 18.2527 0.0000
# 2 38.6842 141.5984 53.6873 0.0000 17.7284 0.0000
# 3 29.3573 53.6873 159.8305 0.0000 45.1429 0.0000
# 4 0.0000 0.0000 0.0000 46.5277 0.0000 3.5327
# 5 18.2527 17.7284 45.1429 0.0000 34.1123 0.0000
# 6 0.0000 0.0000 0.0000 3.5327 0.0000 29.6068
#
#
#
# Elastic Compliance Matrix: (Units=1/GPa)
#
#
# Indices 1 2 3 4 5 6 
#
# 1 0.032398 -0.007262 0.000509 0.000000 -0.014235 0.000000
# 2 -0.007262 0.009741 -0.002564 0.000000 0.002217 0.000000
# 3 0.000509 -0.002564 0.010739 0.000000 -0.013151 0.000000
# 4 0.000000 0.000000 0.000000 0.021689 0.000000 -0.002588
# 5 -0.014235 0.002217 -0.013151 0.000000 0.053183 0.000000
# 6 0.000000 0.000000 0.000000 -0.002588 0.000000 0.034085
#
#
# Mechanical properties :
#
#
# Convention : Reuss Voigt Hill
#
# Bulk Modulus (GPa) = 29.20243 65.77580 47.48912
# Shear Modulus (GPa) = 26.05752 37.16908 31.61330
#
# Velocity S-wave (km/s) = 3.51179 4.19424 3.86809
# Velocity P-wave (km/s) = 5.50134 7.38826 6.51349
#
# Compressibility (1/GPa) = 0.03424372
#
# Stress axis : x y z
#
# Youngs Moduli (GPa) = 30.86628 102.66094 93.11944
#
# Poissons Ratio (x) = 0.74549 -0.04740
# Poissons Ratio (y) = 0.22414 0.23877
# Poissons Ratio (z) = -0.01571 0.26324
#
# Static dielectric constant tensor:
#      x y z
#    x 1.876350 0.000000 0.038870 
#    y 0.000000 1.855800 0.000000 
#    z 0.038870 0.000000 1.909360 
# 
# From -- ./inp_files/65045.got.cif
#   From: 2010.05.17/outbox.cif.g08.bks.cpg/sg15_33_cif.got.tgz:65045.got - 2010.06.03 18:47:42.
