data_PCOD9307784
_publ_section_title
;
Structure prediction by ZEFSAII (Michael W. Deem and Ramdas Pophale) SiO2 
 PCOD9307784
Probable space group: C 2/C
;
_chemical_formula_sum "Si O2"
_cell_formula_units_Z 48
_cell_length_a 26.652571
_cell_length_b 14.074322
_cell_length_c 11.735060
_cell_angle_alpha 90.000000
_cell_angle_beta 148.520614
_cell_angle_gamma 90.000000
_cell_volume 2298.698042
_symmetry_space_group_name_H-M "C 2/C"
_symmetry_group_IT_number 15
_symmetry_cell_setting 'monoclinic'
loop_
_space_group_symop_operation_xyz
x,y,z
-x,y,1/2-z
-x,-y,-z
x,-y,1/2+z
1/2+x,1/2+y,z
1/2-x,1/2+y,1/2-z
1/2-x,1/2-y,-z
1/2+x,1/2-y,1/2+z
loop_
_atom_site_type_symbol
_atom_site_label
_atom_site_fract_x
_atom_site_fract_y
_atom_site_fract_z
Si Si1 0.893298 0.316226 0.721680
Si Si2 0.000000 0.548726 0.250000
Si Si3 0.669382 0.394896 0.974672
Si Si4 0.321660 0.941260 0.792875
Si Si5 0.543112 0.344727 0.511966
Si Si6 0.713304 0.727498 0.188637
Si Si7 0.000000 0.003185 0.250000
O O1 0.853958 0.376195 0.750271
O O2 0.810931 0.275420 0.479406
O O3 0.956993 0.385679 0.766255
O O4 0.959141 0.227101 0.885372
O O5 0.085898 0.485984 0.467263
O O6 0.607372 0.377133 0.741881
O O7 0.594857 0.433186 0.925031
O O8 0.751224 0.474283 0.117524
O O9 0.720297 0.298412 0.112119
O O10 0.263686 0.873075 0.766156
O O11 0.613257 0.290388 0.559535
O O12 0.501721 0.434388 0.362916
#
# Coordination Sequence:
#
# PCOD9307784 Si02
#       7
#     8   4   8   8   8   8   4
#     4  12  24  48  73 101 142 188 235 287 355 408
#     4  12  25  47  70 104 148 182 230 294 350 410
#     4  12  28  44  75 107 138 188 235 287 345 424
#     4  12  28  44  75 107 138 188 235 287 345 424
#     4  12  24  48  73 101 142 188 235 287 355 408
#     4  12  25  47  70 104 148 182 230 294 350 410
#     4  12  25  47  70 104 148 182 230 294 350 410
#
# _framework density 20.881384000000001
#
# number of rings (size 3 to 8) (size 9 to 14) (size 15 to 20)
#    0.000    0.000    6.667    2.000    9.333    0.000 
#    0.000    0.000    0.000    0.000    0.000    0.000 
#    0.000    0.000    0.000    0.000    0.000    0.000 
#
# Total GULP energy -134449.147075 kJ/mol
# GULP energy per Si atom -5602.047795 kJ/mol
# Density = 2.083386 g / cm^3
# Si number density = 20.881384 Si / 1000 Ang^3
#
#
#
# Elastic Constant Matrix: (Units=GPa)
#
#
# Indices 1 2 3 4 5 6 
#
# 1 43.0697 0.3138 -0.7300 0.0000 -2.1522 0.0000
# 2 0.3138 56.2027 20.3932 0.0000 -20.1702 0.0000
# 3 -0.7300 20.3932 97.3135 0.0000 -11.8217 0.0000
# 4 0.0000 0.0000 0.0000 42.6421 0.0000 13.4855
# 5 -2.1522 -20.1702 -11.8217 0.0000 19.3104 0.0000
# 6 0.0000 0.0000 0.0000 13.4855 0.0000 5.9771
#
#
#
# Elastic Compliance Matrix: (Units=1/GPa)
#
#
# Indices 1 2 3 4 5 6 
#
# 1 0.023422 0.001192 0.000426 0.000000 0.004116 0.000000
# 2 0.001192 0.029117 -0.002574 0.000000 0.028971 0.000000
# 3 0.000426 -0.002574 0.011341 0.000000 0.004302 0.000000
# 4 0.000000 0.000000 0.000000 0.081856 0.000000 -0.184682
# 5 0.004116 0.028971 0.004302 0.000000 0.085139 0.000000
# 6 0.000000 0.000000 0.000000 -0.184682 0.000000 0.583980
#
#
# Mechanical properties :
#
#
# Convention : Reuss Voigt Hill
#
# Bulk Modulus (GPa) = 16.13701 26.28223 21.20962
# Shear Modulus (GPa) = 5.97069 25.35986 15.66528
#
# Velocity S-wave (km/s) = 1.69279 3.48871 2.74195
# Velocity P-wave (km/s) = 3.40080 5.37046 4.49485
#
# Compressibility (1/GPa) = 0.06196936
#
# Stress axis : x y z
#
# Youngs Moduli (GPa) = 42.69421 34.34420 88.17392
#
# Poissons Ratio (x) = -0.04094 -0.03756
# Poissons Ratio (y) = -0.05089 0.22692
# Poissons Ratio (z) = -0.01819 0.08838
#
# Static dielectric constant tensor:
#      x y z
#    x 1.769140 0.000000 0.033070 
#    y 0.000000 1.726880 0.000000 
#    z 0.033070 0.000000 1.738110 
# 
# From -- ./inp_files/96432.got.cif
#   From: 2010.05.17/outbox.cif.g08.bks.cpg/sg15_49_cif.got.tgz:96432.got - 2010.06.03 18:47:42.
