data_PCOD9307760
_publ_section_title
;
Structure prediction by ZEFSAII (Michael W. Deem and Ramdas Pophale) SiO2 
 PCOD9307760
Probable space group: C 2/C
;
_chemical_formula_sum "Si O2"
_cell_formula_units_Z 64
_cell_length_a 29.028799
_cell_length_b 11.878924
_cell_length_c 17.686110
_cell_angle_alpha 90.000000
_cell_angle_beta 28.256313
_cell_angle_gamma 90.000000
_cell_volume 2887.234702
_symmetry_space_group_name_H-M "C 2/C"
_symmetry_group_IT_number 15
_symmetry_cell_setting 'monoclinic'
loop_
_space_group_symop_operation_xyz
x,y,z
-x,y,1/2-z
-x,-y,-z
x,-y,1/2+z
1/2+x,1/2+y,z
1/2-x,1/2+y,1/2-z
1/2-x,1/2-y,-z
1/2+x,1/2-y,1/2+z
loop_
_atom_site_type_symbol
_atom_site_label
_atom_site_fract_x
_atom_site_fract_y
_atom_site_fract_z
Si Si1 0.738798 0.223666 0.930037
Si Si2 0.889489 0.212231 0.604540
Si Si3 0.904138 0.533073 0.335486
Si Si4 0.062615 0.056226 0.341300
Si Si5 0.265151 0.826830 0.551814
Si Si6 0.893779 0.545656 0.167495
Si Si7 0.102242 0.069739 0.625232
Si Si8 0.215227 0.886310 0.377770
O O1 0.687233 0.341372 0.980726
O O2 0.664476 0.123994 0.025116
O O3 0.750000 0.250000 0.000000
O O4 0.846395 0.186443 0.749371
O O5 0.884888 0.347387 0.622520
O O6 0.808613 0.144729 0.673368
O O7 0.992500 0.165413 0.428234
O O8 0.852577 0.412372 0.412659
O O9 0.898057 0.566036 0.253489
O O10 0.000000 0.530000 0.250000
O O11 0.167702 0.104001 0.211939
O O12 0.085010 0.980241 0.234647
O O13 0.000000 0.000000 0.500000
O O14 0.250000 0.750000 0.500000
O O15 0.286135 0.736880 0.585062
O O16 0.812387 0.453505 0.261638
O O17 0.000000 0.500000 0.000000
O O18 0.000000 0.123339 0.750000
O O19 0.128289 0.961212 0.537407
#
# Coordination Sequence:
#
# PCOD9307760 Si02
#       8
#     8   8   8   8   8   8   8   8
#     4  12  24  50  75 104 154 202 250 325 394 461
#     4  12  27  44  79 109 150 201 258 321 393 468
#     4  12  28  48  77 112 150 211 267 311 397 484
#     4  12  26  45  74 114 147 199 264 320 382 470
#     4  12  25  47  77 106 157 205 254 323 390 469
#     4  12  27  49  71 109 162 197 255 333 390 462
#     4  12  24  47  75 105 154 194 250 318 395 458
#     4  12  26  48  75 111 152 205 259 319 400 471
#
# _framework density 22.166540000000001
#
# number of rings (size 3 to 8) (size 9 to 14) (size 15 to 20)
#    0.000    0.000    6.250    3.375    3.500    2.500 
#    0.000    0.000    0.000    0.000    0.000    0.000 
#    0.000    0.000    0.000    0.000    0.000    0.000 
#
# Total GULP energy -178270.229073 kJ/mol
# GULP energy per Si atom -5570.944659 kJ/mol
# Density = 2.211609 g / cm^3
# Si number density = 22.166540 Si / 1000 Ang^3
#
#
#
# Elastic Constant Matrix: (Units=GPa)
#
#
# Indices 1 2 3 4 5 6 
#
# 1 54.8059 17.3441 -6.2987 0.0000 -2.2853 0.0000
# 2 17.3441 113.1660 14.1225 0.0000 -2.2544 0.0000
# 3 -6.2987 14.1225 61.1962 0.0000 -3.8764 0.0000
# 4 0.0000 0.0000 0.0000 42.9815 0.0000 -1.1518
# 5 -2.2853 -2.2544 -3.8764 0.0000 41.3662 0.0000
# 6 0.0000 0.0000 0.0000 -1.1518 0.0000 30.1681
#
#
#
# Elastic Compliance Matrix: (Units=1/GPa)
#
#
# Indices 1 2 3 4 5 6 
#
# 1 0.019686 -0.003353 0.002874 0.000000 0.001174 0.000000
# 2 -0.003353 0.009673 -0.002571 0.000000 0.000101 0.000000
# 3 0.002874 -0.002571 0.017334 0.000000 0.001643 0.000000
# 4 0.000000 0.000000 0.000000 0.023290 0.000000 0.000889
# 5 0.001174 0.000101 0.001643 0.000000 0.024399 0.000000
# 6 0.000000 0.000000 0.000000 0.000889 0.000000 0.033182
#
#
# Mechanical properties :
#
#
# Convention : Reuss Voigt Hill
#
# Bulk Modulus (GPa) = 24.63330 31.05598 27.84464
# Shear Modulus (GPa) = 33.96879 36.50316 35.23598
#
# Velocity S-wave (km/s) = 3.91888 4.06244 3.99131
# Velocity P-wave (km/s) = 5.62261 6.00377 5.81632
#
# Compressibility (1/GPa) = 0.04059546
#
# Stress axis : x y z
#
# Youngs Moduli (GPa) = 50.79631 103.37792 57.68969
#
# Poissons Ratio (x) = 0.34657 -0.16582
# Poissons Ratio (y) = 0.17029 0.14832
# Poissons Ratio (z) = -0.14600 0.26578
#
# Static dielectric constant tensor:
#      x y z
#    x 1.765270 0.000000 -0.004650 
#    y 0.000000 1.935600 0.000000 
#    z -0.004650 0.000000 1.756180 
# 
# From -- ./inp_files/225167.got.cif
#   From: 2010.05.17/outbox.cif.g08.bks.cpg/sg15_113_cif.got.tgz:225167.got - 2010.06.03 18:47:42.
