data_PCOD9307976
_publ_section_title
;
Structure prediction by ZEFSAII (Michael W. Deem and Ramdas Pophale) SiO2 
 PCOD9307976
Probable space group: C 2/C
;
_chemical_formula_sum "Si O2"
_cell_formula_units_Z 56
_cell_length_a 26.380338
_cell_length_b 13.097498
_cell_length_c 12.941606
_cell_angle_alpha 90.000000
_cell_angle_beta 32.911211
_cell_angle_gamma 90.000000
_cell_volume 2429.559454
_symmetry_space_group_name_H-M "C 2/C"
_symmetry_group_IT_number 15
_symmetry_cell_setting 'monoclinic'
loop_
_space_group_symop_operation_xyz
x,y,z
-x,y,1/2-z
-x,-y,-z
x,-y,1/2+z
1/2+x,1/2+y,z
1/2-x,1/2+y,1/2-z
1/2-x,1/2-y,-z
1/2+x,1/2-y,1/2+z
loop_
_atom_site_type_symbol
_atom_site_label
_atom_site_fract_x
_atom_site_fract_y
_atom_site_fract_z
Si Si1 0.693112 0.648136 0.579865
Si Si2 0.092116 0.154561 0.144856
Si Si3 0.128765 0.795297 0.969511
Si Si4 0.898996 0.556035 0.474448
Si Si5 0.686786 0.146344 0.467432
Si Si6 0.999530 0.878427 0.486335
Si Si7 0.715124 0.057221 0.632757
O O1 0.750000 0.750000 0.500000
O O2 0.647369 0.647726 0.544490
O O3 0.608375 0.648751 0.805338
O O4 0.758147 0.549071 0.468013
O O5 0.063421 0.163187 0.313592
O O6 0.000000 0.107035 0.250000
O O7 0.111329 0.267483 0.068577
O O8 0.189994 0.093727 0.971028
O O9 0.217833 0.815819 0.745615
O O10 0.121684 0.675534 0.009399
O O11 0.043252 0.836639 0.047478
O O12 0.836825 0.465563 0.534102
O O13 0.873411 0.546948 0.640256
O O14 0.000000 0.538178 0.250000
O O15 0.695084 0.136934 0.576350
O O16 0.000000 0.000000 0.500000
#
# Coordination Sequence:
#
# PCOD9307976 Si02
#       7
#     8   8   8   8   8   8   8
#     4  12  27  44  72 112 154 196 248 321 387 456
#     4  12  27  44  75 109 147 193 255 325 380 463
#     4  12  25  47  74 107 154 202 254 323 385 465
#     4  12  27  47  75 110 149 206 258 312 389 464
#     4  12  25  48  76 106 149 203 259 308 397 467
#     4  12  26  45  75 112 150 200 264 317 396 467
#     4  12  25  47  76 105 150 199 250 319 387 460
#
# _framework density 23.049447000000001
#
# number of rings (size 3 to 8) (size 9 to 14) (size 15 to 20)
#    0.000    0.000    5.714    3.857    4.000    2.857 
#    0.000    0.000    0.000    0.000    0.000    0.000 
#    0.000    0.000    0.000    0.000    0.000    0.000 
#
# Total GULP energy -156617.408326 kJ/mol
# GULP energy per Si atom -5593.478869 kJ/mol
# Density = 2.299699 g / cm^3
# Si number density = 23.049447 Si / 1000 Ang^3
#
#
#
# Elastic Constant Matrix: (Units=GPa)
#
#
# Indices 1 2 3 4 5 6 
#
# 1 41.9624 0.1785 8.4147 0.0000 9.7816 0.0000
# 2 0.1785 130.5519 19.3130 0.0000 -13.3425 0.0000
# 3 8.4147 19.3130 172.1045 0.0000 -0.0803 0.0000
# 4 0.0000 0.0000 0.0000 33.7402 0.0000 4.5219
# 5 9.7816 -13.3425 -0.0803 0.0000 26.8095 0.0000
# 6 0.0000 0.0000 0.0000 4.5219 0.0000 13.1205
#
#
#
# Elastic Compliance Matrix: (Units=1/GPa)
#
#
# Indices 1 2 3 4 5 6 
#
# 1 0.026426 -0.000890 -0.001197 0.000000 -0.010088 0.000000
# 2 -0.000890 0.008243 -0.000879 0.000000 0.004425 0.000000
# 3 -0.001197 -0.000879 0.005968 0.000000 0.000017 0.000000
# 4 0.000000 0.000000 0.000000 0.031074 0.000000 -0.010709
# 5 -0.010088 0.004425 0.000017 0.000000 0.043183 0.000000
# 6 0.000000 0.000000 0.000000 -0.010709 0.000000 0.079908
#
#
# Mechanical properties :
#
#
# Convention : Reuss Voigt Hill
#
# Bulk Modulus (GPa) = 28.81483 44.49236 36.65359
# Shear Modulus (GPa) = 23.55128 35.84821 29.69974
#
# Velocity S-wave (km/s) = 3.19998 3.94797 3.59349
# Velocity P-wave (km/s) = 5.11680 6.33458 5.75798
#
# Compressibility (1/GPa) = 0.03470436
#
# Stress axis : x y z
#
# Youngs Moduli (GPa) = 37.84112 121.31057 167.57046
#
# Poissons Ratio (x) = 0.10798 0.20056
# Poissons Ratio (y) = 0.03368 0.14737
# Poissons Ratio (z) = 0.04529 0.10669
#
# Static dielectric constant tensor:
#      x y z
#    x 1.885760 0.000000 -0.020420 
#    y 0.000000 1.847320 0.000000 
#    z -0.020420 0.000000 1.744260 
# 
# From -- ./inp_files/181936.got.cif
#   From: 2010.05.17/outbox.cif.g08.bks.cpg/sg15_91_cif.got.tgz:181936.got - 2010.06.03 18:47:42.
