data_PCOD9307824
_publ_section_title
;
Structure prediction by ZEFSAII (Michael W. Deem and Ramdas Pophale) SiO2 
 PCOD9307824
Probable space group: C 2/C
;
_chemical_formula_sum "Si O2"
_cell_formula_units_Z 36
_cell_length_a 12.907832
_cell_length_b 17.806039
_cell_length_c 8.562270
_cell_angle_alpha 90.000000
_cell_angle_beta 47.377130
_cell_angle_gamma 90.000000
_cell_volume 1448.055387
_symmetry_space_group_name_H-M "C 2/C"
_symmetry_group_IT_number 15
_symmetry_cell_setting 'monoclinic'
loop_
_space_group_symop_operation_xyz
x,y,z
-x,y,1/2-z
-x,-y,-z
x,-y,1/2+z
1/2+x,1/2+y,z
1/2-x,1/2+y,1/2-z
1/2-x,1/2-y,-z
1/2+x,1/2-y,1/2+z
loop_
_atom_site_type_symbol
_atom_site_label
_atom_site_fract_x
_atom_site_fract_y
_atom_site_fract_z
Si Si1 0.151613 0.242917 0.862912
Si Si2 0.288986 0.595182 0.262447
Si Si3 0.090586 0.661952 0.003467
Si Si4 0.135999 0.528748 0.713192
Si Si5 0.000000 0.848928 0.750000
O O1 0.226346 0.323617 0.787860
O O2 0.246391 0.188441 0.657874
O O3 0.993896 0.265994 0.975582
O O4 0.125323 0.203743 0.056597
O O5 0.229644 0.568459 0.488740
O O6 0.228822 0.536205 0.198641
O O7 0.452127 0.604546 0.145369
O O8 0.000000 0.646710 0.250000
O O9 0.088180 0.590819 0.889410
O O10 0.000000 0.506610 0.750000
#
# Coordination Sequence:
#
# PCOD9307824 Si02
#       5
#     8   8   8   8   4
#     4  12  24  48  81 114 154 200 260 322 390 463
#     4  12  27  46  80 112 153 205 258 322 387 466
#     4  12  27  48  79 116 156 201 260 326 387 463
#     4  12  27  48  76 113 153 203 262 322 385 460
#     4  12  24  50  80 116 152 208 260 316 400 460
#
# _framework density 24.860925999999999
#
# number of rings (size 3 to 8) (size 9 to 14) (size 15 to 20)
#    0.000    0.000    6.667    3.333    3.111    0.889 
#    0.000    0.000    0.000    0.000    0.000    0.000 
#    0.000    0.000    0.000    0.000    0.000    0.000 
#
# Total GULP energy -100599.944750 kJ/mol
# GULP energy per Si atom -5588.885819 kJ/mol
# Density = 2.480434 g / cm^3
# Si number density = 24.860926 Si / 1000 Ang^3
#
#
#
# Elastic Constant Matrix: (Units=GPa)
#
#
# Indices 1 2 3 4 5 6 
#
# 1 120.6636 63.9968 2.6468 0.0000 -0.1120 0.0000
# 2 63.9968 145.3111 60.6340 0.0000 12.1830 0.0000
# 3 2.6468 60.6340 119.9037 0.0000 11.1212 0.0000
# 4 0.0000 0.0000 0.0000 55.3852 0.0000 21.0059
# 5 -0.1120 12.1830 11.1212 0.0000 38.1022 0.0000
# 6 0.0000 0.0000 0.0000 21.0059 0.0000 53.9374
#
#
#
# Elastic Compliance Matrix: (Units=1/GPa)
#
#
# Indices 1 2 3 4 5 6 
#
# 1 0.011636 -0.006431 0.002879 0.000000 0.001250 0.000000
# 2 -0.006431 0.012366 -0.005903 0.000000 -0.002250 0.000000
# 3 0.002879 -0.005903 0.011394 0.000000 -0.001430 0.000000
# 4 0.000000 0.000000 0.000000 0.021184 0.000000 -0.008250
# 5 0.001250 -0.002250 -0.001430 0.000000 0.027386 0.000000
# 6 0.000000 0.000000 0.000000 -0.008250 0.000000 0.021753
#
#
# Mechanical properties :
#
#
# Convention : Reuss Voigt Hill
#
# Bulk Modulus (GPa) = 60.65234 71.15927 65.90580
# Shear Modulus (GPa) = 38.42499 46.72500 42.57500
#
# Velocity S-wave (km/s) = 3.93567 4.33997 4.14276
# Velocity P-wave (km/s) = 6.71583 7.33477 7.03211
#
# Compressibility (1/GPa) = 0.01648741
#
# Stress axis : x y z
#
# Youngs Moduli (GPa) = 85.93744 80.86883 87.76585
#
# Poissons Ratio (x) = 0.52007 -0.25270
# Poissons Ratio (y) = 0.55267 0.51804
# Poissons Ratio (z) = -0.24744 0.47733
#
# Static dielectric constant tensor:
#      x y z
#    x 2.200290 0.000000 -0.072910 
#    y 0.000000 1.989880 0.000000 
#    z -0.072910 0.000000 1.982560 
# 
# From -- ./inp_files/28965.got.cif
#   From: 2010.05.17/outbox.cif.g08.bks.cpg/sg15_15_cif.got.tgz:28965.got - 2010.06.03 18:47:42.
