data_PCOD9307291
_publ_section_title
;
Structure prediction by ZEFSAII (Michael W. Deem and Ramdas Pophale) SiO2 
 PCOD9307291
Probable space group: C 2/C
;
_chemical_formula_sum "Si O2"
_cell_formula_units_Z 40
_cell_length_a 6.606727
_cell_length_b 15.568529
_cell_length_c 17.390646
_cell_angle_alpha 90.000000
_cell_angle_beta 80.284447
_cell_angle_gamma 90.000000
_cell_volume 1763.095242
_symmetry_space_group_name_H-M "C 2/C"
_symmetry_group_IT_number 15
_symmetry_cell_setting 'monoclinic'
loop_
_space_group_symop_operation_xyz
x,y,z
-x,y,1/2-z
-x,-y,-z
x,-y,1/2+z
1/2+x,1/2+y,z
1/2-x,1/2+y,1/2-z
1/2-x,1/2-y,-z
1/2+x,1/2-y,1/2+z
loop_
_atom_site_type_symbol
_atom_site_label
_atom_site_fract_x
_atom_site_fract_y
_atom_site_fract_z
Si Si1 0.704810 0.137104 0.132944
Si Si2 0.616078 0.579824 0.530409
Si Si3 0.872939 0.485810 0.145894
Si Si4 0.000000 0.913216 0.750000
Si Si5 0.572047 0.695779 0.827378
Si Si6 0.500000 0.164479 0.750000
O O1 0.563713 0.051149 0.141671
O O2 0.869772 0.132998 0.190954
O O3 0.556554 0.217957 0.152414
O O4 0.815699 0.140307 0.043687
O O5 0.500000 0.500000 0.500000
O O6 0.810195 0.542668 0.564592
O O7 0.476612 0.630029 0.601199
O O8 0.673571 0.531572 0.194963
O O9 0.921105 0.399800 0.189305
O O10 0.500000 0.658572 0.750000
O O11 0.811864 0.714169 0.800382
#
# Coordination Sequence:
#
# PCOD9307291 Si02
#       6
#     8   8   8   4   8   4
#     4  12  27  46  76 112 154 195 251 317 383 447
#     4  12  25  49  77 111 153 199 252 315 378 453
#     4  12  23  46  77 108 146 200 257 309 373 451
#     4  12  22  45  78 107 148 198 258 306 377 446
#     4  12  27  49  73 109 153 197 250 306 382 447
#     4  12  24  47  78 107 148 202 254 310 367 458
#
# _framework density 22.687373000000001
#
# number of rings (size 3 to 8) (size 9 to 14) (size 15 to 20)
#    0.000    0.000    6.000    4.800    0.000    3.200 
#    0.000    2.000    0.000    0.000    0.000    0.000 
#    0.000    0.000    0.000    0.000    0.000    0.000 
#
# Total GULP energy -112075.908219 kJ/mol
# GULP energy per Si atom -5603.795411 kJ/mol
# Density = 2.263574 g / cm^3
# Si number density = 22.687373 Si / 1000 Ang^3
#
#
#
# Elastic Constant Matrix: (Units=GPa)
#
#
# Indices 1 2 3 4 5 6 
#
# 1 163.0384 61.0089 84.2580 0.0000 4.8517 0.0000
# 2 61.0089 81.0968 72.2093 0.0000 6.6970 0.0000
# 3 84.2580 72.2093 190.6156 0.0000 1.6569 0.0000
# 4 0.0000 0.0000 0.0000 42.2293 0.0000 -4.7760
# 5 4.8517 6.6970 1.6569 0.0000 55.1520 0.0000
# 6 0.0000 0.0000 0.0000 -4.7760 0.0000 49.1305
#
#
#
# Elastic Compliance Matrix: (Units=1/GPa)
#
#
# Indices 1 2 3 4 5 6 
#
# 1 0.009088 -0.004904 -0.002158 0.000000 -0.000139 0.000000
# 2 -0.004904 0.021487 -0.005955 0.000000 -0.001999 0.000000
# 3 -0.002158 -0.005955 0.008450 0.000000 0.000659 0.000000
# 4 0.000000 0.000000 0.000000 0.023943 0.000000 0.002328
# 5 -0.000139 -0.001999 0.000659 0.000000 0.018367 0.000000
# 6 0.000000 0.000000 0.000000 0.002328 0.000000 0.020580
#
#
# Mechanical properties :
#
#
# Convention : Reuss Voigt Hill
#
# Bulk Modulus (GPa) = 76.97115 96.63369 86.80242
# Shear Modulus (GPa) = 37.79839 43.78730 40.79285
#
# Velocity S-wave (km/s) = 4.08616 4.39798 4.24493
# Velocity P-wave (km/s) = 7.50085 8.27500 7.89742
#
# Compressibility (1/GPa) = 0.01299188
#
# Stress axis : x y z
#
# Youngs Moduli (GPa) = 110.03473 46.53916 118.33775
#
# Poissons Ratio (x) = 0.22821 0.25542
# Poissons Ratio (y) = 0.53956 0.70470
# Poissons Ratio (z) = 0.23750 0.27714
#
# Static dielectric constant tensor:
#      x y z
#    x 1.844090 0.000000 -0.022310 
#    y 0.000000 1.868230 0.000000 
#    z -0.022310 0.000000 1.816150 
# 
# From -- ./inp_files/184280.got.cif
#   From: 2010.05.17/outbox.cif.g08.bks.cpg/sg15_93_cif.got.tgz:184280.got - 2010.06.03 18:47:42.
