data_PCOD9307921
_publ_section_title
;
Structure prediction by ZEFSAII (Michael W. Deem and Ramdas Pophale) SiO2 
 PCOD9307921
Probable space group: C 2/C
;
_chemical_formula_sum "Si O2"
_cell_formula_units_Z 48
_cell_length_a 14.292291
_cell_length_b 18.182517
_cell_length_c 16.816549
_cell_angle_alpha 90.000000
_cell_angle_beta 152.903391
_cell_angle_gamma 90.000000
_cell_volume 1990.552759
_symmetry_space_group_name_H-M "C 2/C"
_symmetry_group_IT_number 15
_symmetry_cell_setting 'monoclinic'
loop_
_space_group_symop_operation_xyz
x,y,z
-x,y,1/2-z
-x,-y,-z
x,-y,1/2+z
1/2+x,1/2+y,z
1/2-x,1/2+y,1/2-z
1/2-x,1/2-y,-z
1/2+x,1/2-y,1/2+z
loop_
_atom_site_type_symbol
_atom_site_label
_atom_site_fract_x
_atom_site_fract_y
_atom_site_fract_z
Si Si1 0.073854 0.611764 0.932733
Si Si2 0.500000 0.896783 0.750000
Si Si3 0.000000 0.284653 0.250000
Si Si4 0.230284 0.153528 0.179822
Si Si5 0.274598 0.465373 0.102106
Si Si6 0.869184 0.744678 0.418787
Si Si7 0.218934 0.989221 0.209234
O O1 0.136972 0.660059 0.905071
O O2 0.872116 0.560272 0.772310
O O3 0.251075 0.553750 0.082138
O O4 0.024706 0.674186 0.960003
O O5 0.681899 0.854425 0.841844
O O6 0.377748 0.936886 0.583933
O O7 0.846278 0.246604 0.195331
O O8 0.345069 0.219340 0.310659
O O9 0.278811 0.075658 0.258856
O O10 0.995162 0.179684 0.013580
O O11 0.500000 0.439955 0.250000
O O12 0.258257 0.453925 0.185588
O O13 0.000000 0.000000 0.000000
#
# Coordination Sequence:
#
# PCOD9307921 Si02
#       7
#     8   4   4   8   8   8   8
#     4  12  25  45  75 112 158 203 263 333 408 488
#     4  12  27  56  80 114 165 216 278 342 391 484
#     4  12  27  44  76 114 163 208 258 328 421 502
#     4  12  27  51  76 111 159 214 271 333 404 476
#     4  12  27  45  79 123 156 206 267 339 416 478
#     4  12  27  48  75 113 162 214 263 326 411 501
#     4  12  26  48  81 115 160 212 271 344 412 480
#
# _framework density 24.113903000000001
#
# number of rings (size 3 to 8) (size 9 to 14) (size 15 to 20)
#    0.000    0.000    5.000    4.500    5.833    0.667 
#    3.000    0.000    0.000    0.000    0.000    0.000 
#    0.000    0.000    0.000    0.000    0.000    0.000 
#
# Total GULP energy -133720.207268 kJ/mol
# GULP energy per Si atom -5571.675303 kJ/mol
# Density = 2.405902 g / cm^3
# Si number density = 24.113903 Si / 1000 Ang^3
#
#
#
# Elastic Constant Matrix: (Units=GPa)
#
#
# Indices 1 2 3 4 5 6 
#
# 1 145.3599 48.7604 48.3181 0.0130 -6.9738 -0.0070
# 2 48.7604 87.3029 30.6956 0.0491 9.9135 0.0061
# 3 48.3181 30.6956 114.5603 0.0674 -1.3696 0.0197
# 4 0.0130 0.0491 0.0674 34.5160 0.0150 -0.2501
# 5 -6.9738 9.9135 -1.3696 0.0150 44.5852 -0.0020
# 6 -0.0070 0.0061 0.0197 -0.2501 -0.0020 39.7902
#
#
#
# Elastic Compliance Matrix: (Units=1/GPa)
#
#
# Indices 1 2 3 4 5 6 
#
# 1 0.009440 -0.004589 -0.002723 0.000007 0.002413 0.000004
# 2 -0.004589 0.015267 -0.002205 -0.000014 -0.004180 -0.000002
# 3 -0.002723 -0.002205 0.010473 -0.000016 0.000386 -0.000005
# 4 0.000007 -0.000014 -0.000016 0.028973 -0.000006 0.000182
# 5 0.002413 -0.004180 0.000386 -0.000006 0.023748 0.000002
# 6 0.000004 -0.000002 -0.000005 0.000182 0.000002 0.025133
#
#
# Mechanical properties :
#
#
# Convention : Reuss Voigt Hill
#
# Bulk Modulus (GPa) = 61.93566 66.97462 64.45514
# Shear Modulus (GPa) = 36.37672 38.40823 37.39247
#
# Velocity S-wave (km/s) = 3.88820 3.99530 3.94211
# Velocity P-wave (km/s) = 6.77480 7.00841 6.89259
#
# Compressibility (1/GPa) = 0.01614579
#
# Stress axis : x y z
#
# Youngs Moduli (GPa) = 105.93553 65.49895 95.48344
#
# Poissons Ratio (x) = 0.30057 0.26000
# Poissons Ratio (y) = 0.48613 0.21057
# Poissons Ratio (z) = 0.28846 0.14445
#
# Static dielectric constant tensor:
#      x y z
#    x 1.913340 -0.000020 -0.087170 
#    y -0.000020 1.917960 -0.000050 
#    z -0.087170 -0.000050 2.223000 
# 
# From -- ./inp_files/206530.got.cif
#   From: 2010.05.17/outbox.cif.g08.bks.cpg/sg15_104_cif.got.tgz:206530.got - 2010.06.03 18:47:42.
