data_PCOD9307594
_publ_section_title
;
Structure prediction by ZEFSAII (Michael W. Deem and Ramdas Pophale) SiO2 
 PCOD9307594
Probable space group: C 2/C
;
_chemical_formula_sum "Si O2"
_cell_formula_units_Z 44
_cell_length_a 14.558984
_cell_length_b 5.174768
_cell_length_c 23.137081
_cell_angle_alpha 90.000000
_cell_angle_beta 109.554766
_cell_angle_gamma 90.000000
_cell_volume 1642.592542
_symmetry_space_group_name_H-M "C 2/C"
_symmetry_group_IT_number 15
_symmetry_cell_setting 'monoclinic'
loop_
_space_group_symop_operation_xyz
x,y,z
-x,y,1/2-z
-x,-y,-z
x,-y,1/2+z
1/2+x,1/2+y,z
1/2-x,1/2+y,1/2-z
1/2-x,1/2-y,-z
1/2+x,1/2-y,1/2+z
loop_
_atom_site_type_symbol
_atom_site_label
_atom_site_fract_x
_atom_site_fract_y
_atom_site_fract_z
Si Si1 0.565866 0.237395 0.395096
Si Si2 0.500000 0.000000 0.000000
Si Si3 0.782040 0.571263 0.788677
Si Si4 0.500707 0.753073 0.319347
Si Si5 0.843799 0.224586 0.978876
Si Si6 0.224974 0.719631 0.586013
O O1 0.511745 0.176310 0.442353
O O2 0.521862 0.472083 0.349421
O O3 0.678845 0.301700 0.432808
O O4 0.572388 0.978403 0.356740
O O5 0.549625 0.262053 0.973163
O O6 0.765336 0.279372 0.764828
O O7 0.895085 0.642322 0.815398
O O8 0.742671 0.627397 0.844290
O O9 0.500000 0.737256 0.250000
O O10 0.856946 0.516984 0.953132
O O11 0.817673 0.003587 0.928593
O O12 0.750000 0.250000 0.000000
#
# Coordination Sequence:
#
# PCOD9307594 Si02
#       6
#     8   4   8   8   8   8
#     4  12  26  44  72 103 141 187 232 301 355 432
#     4  12  28  46  74 106 148 186 244 290 372 430
#     4  12  24  43  70 101 139 184 233 296 360 426
#     4  12  25  46  70 103 138 183 242 292 359 427
#     4  12  26  47  70 103 142 188 235 295 350 434
#     4  12  25  47  70 103 143 186 239 291 366 424
#
# _framework density 26.786923000000002
#
# number of rings (size 3 to 8) (size 9 to 14) (size 15 to 20)
#    0.000    0.000    1.818    8.727    0.000    1.455 
#    0.000    0.000    0.000    0.000    0.000    0.000 
#    0.000    0.000    0.000    0.000    0.000    0.000 
#
# Total GULP energy -123133.769605 kJ/mol
# GULP energy per Si atom -5596.989527 kJ/mol
# Density = 2.672595 g / cm^3
# Si number density = 26.786923 Si / 1000 Ang^3
#
#
#
# Elastic Constant Matrix: (Units=GPa)
#
#
# Indices 1 2 3 4 5 6 
#
# 1 153.1840 12.0409 5.5022 0.0000 -12.5851 0.0000
# 2 12.0409 146.3733 61.7750 0.0000 -1.0339 0.0001
# 3 5.5022 61.7750 135.8701 0.0000 -18.6357 0.0000
# 4 0.0000 0.0000 0.0000 61.7091 0.0000 24.3939
# 5 -12.5851 -1.0339 -18.6357 0.0000 43.3926 0.0000
# 6 0.0000 0.0001 0.0000 24.3939 0.0000 51.2799
#
#
#
# Elastic Compliance Matrix: (Units=1/GPa)
#
#
# Indices 1 2 3 4 5 6 
#
# 1 0.006740 -0.000674 0.000318 0.000000 0.002075 0.000000
# 2 -0.000674 0.008619 -0.004134 0.000000 -0.001765 0.000000
# 3 0.000318 -0.004134 0.009803 0.000000 0.004204 0.000000
# 4 0.000000 0.000000 0.000000 0.019958 0.000000 -0.009494
# 5 0.002075 -0.001765 0.004204 0.000000 0.025411 0.000000
# 6 0.000000 0.000000 0.000000 -0.009494 0.000000 0.024017
#
#
# Mechanical properties :
#
#
# Convention : Reuss Voigt Hill
#
# Bulk Modulus (GPa) = 61.79163 66.00707 63.89935
# Shear Modulus (GPa) = 45.90415 55.01694 50.46054
#
# Velocity S-wave (km/s) = 4.14415 4.53688 4.34496
# Velocity P-wave (km/s) = 6.78355 7.22076 7.00557
#
# Compressibility (1/GPa) = 0.01618342
#
# Stress axis : x y z
#
# Youngs Moduli (GPa) = 148.36427 116.01680 102.00788
#
# Poissons Ratio (x) = 0.07821 -0.03246
# Poissons Ratio (y) = 0.10001 0.42168
# Poissons Ratio (z) = -0.04721 0.47959
#
# Static dielectric constant tensor:
#      x y z
#    x 2.955780 0.000000 0.245060 
#    y 0.000000 2.161880 0.000000 
#    z 0.245060 0.000000 2.188450 
# 
# From -- ./inp_files/271917.got.cif
#   From: 2010.05.17/outbox.cif.g08.bks.cpg/sg15_136_cif.got.tgz:271917.got - 2010.06.03 18:47:42.
