data_PCOD9307319
_publ_section_title
;
Structure prediction by ZEFSAII (Michael W. Deem and Ramdas Pophale) SiO2 
 PCOD9307319
Probable space group: C 2/C
;
_chemical_formula_sum "Si O2"
_cell_formula_units_Z 32
_cell_length_a 8.463617
_cell_length_b 33.115204
_cell_length_c 5.306444
_cell_angle_alpha 90.000000
_cell_angle_beta 64.118407
_cell_angle_gamma 90.000000
_cell_volume 1338.085322
_symmetry_space_group_name_H-M "C 2/C"
_symmetry_group_IT_number 15
_symmetry_cell_setting 'monoclinic'
loop_
_space_group_symop_operation_xyz
x,y,z
-x,y,1/2-z
-x,-y,-z
x,-y,1/2+z
1/2+x,1/2+y,z
1/2-x,1/2+y,1/2-z
1/2-x,1/2-y,-z
1/2+x,1/2-y,1/2+z
loop_
_atom_site_type_symbol
_atom_site_label
_atom_site_fract_x
_atom_site_fract_y
_atom_site_fract_z
Si Si1 0.000000 0.735807 0.750000
Si Si2 0.500000 0.887008 0.750000
Si Si3 0.288371 0.163234 0.776400
Si Si4 0.500000 0.288858 0.250000
Si Si5 0.000000 0.473216 0.250000
Si Si6 0.298246 0.415699 0.882703
O O1 0.841258 0.703783 0.886398
O O2 0.984159 0.761450 0.508535
O O3 0.553220 0.859060 0.478036
O O4 0.676262 0.910927 0.714548
O O5 0.164019 0.181285 0.649309
O O6 0.195337 0.129011 0.002585
O O7 0.827875 0.444919 0.368869
O O8 0.000000 0.500000 0.500000
O O9 0.500000 0.430417 0.750000
#
# Coordination Sequence:
#
# PCOD9307319 Si02
#       6
#     4   4   8   4   4   8
#     4  12  25  46  68 101 162 206 260 344 417 448
#     4  12  22  48  78 111 156 202 278 334 387 456
#     4  12  25  46  73 104 152 211 271 337 389 472
#     4  12  29  42  69 110 146 212 274 336 405 472
#     4  12  28  56  85 126 172 200 248 324 399 484
#     4  12  27  50  85 117 157 216 268 321 391 480
#
# _framework density 23.914766
#
# number of rings (size 3 to 8) (size 9 to 14) (size 15 to 20)
#    0.000    0.000    5.000    4.500    5.250    1.000 
#    0.000    0.000    0.000    0.000    0.000    0.000 
#    0.000    0.000    0.000    0.000    0.000    0.000 
#
# Total GULP energy -89510.220705 kJ/mol
# GULP energy per Si atom -5594.388794 kJ/mol
# Density = 2.386033 g / cm^3
# Si number density = 23.914766 Si / 1000 Ang^3
#
#
#
# Elastic Constant Matrix: (Units=GPa)
#
#
# Indices 1 2 3 4 5 6 
#
# 1 178.0783 63.9581 56.3408 0.0000 -16.8693 0.0000
# 2 63.9581 125.2877 59.2434 0.0000 4.5852 0.0000
# 3 56.3408 59.2434 124.1850 0.0000 13.6393 0.0000
# 4 0.0000 0.0000 0.0000 49.2547 0.0000 12.5370
# 5 -16.8693 4.5852 13.6393 0.0000 51.0706 0.0000
# 6 0.0000 0.0000 0.0000 12.5370 0.0000 13.4194
#
#
#
# Elastic Compliance Matrix: (Units=1/GPa)
#
#
# Indices 1 2 3 4 5 6 
#
# 1 0.007795 -0.002909 -0.002534 0.000000 0.003513 0.000000
# 2 -0.002909 0.011400 -0.004019 0.000000 -0.000911 0.000000
# 3 -0.002534 -0.004019 0.011509 0.000000 -0.003550 0.000000
# 4 0.000000 0.000000 0.000000 0.026637 0.000000 -0.024885
# 5 0.003513 -0.000911 -0.003550 0.000000 0.021771 0.000000
# 6 0.000000 0.000000 0.000000 -0.024885 0.000000 0.097768
#
#
# Mechanical properties :
#
#
# Convention : Reuss Voigt Hill
#
# Bulk Modulus (GPa) = 84.88953 87.40394 86.14673
# Shear Modulus (GPa) = 25.03358 39.28286 32.15822
#
# Velocity S-wave (km/s) = 3.23891 4.05732 3.67100
# Velocity P-wave (km/s) = 7.03997 7.65353 7.35315
#
# Compressibility (1/GPa) = 0.01178002
#
# Stress axis : x y z
#
# Youngs Moduli (GPa) = 128.28642 87.71563 86.88629
#
# Poissons Ratio (x) = 0.25521 0.22020
# Poissons Ratio (y) = 0.37325 0.34916
# Poissons Ratio (z) = 0.32512 0.35249
#
# Static dielectric constant tensor:
#      x y z
#    x 2.094190 0.000000 0.014120 
#    y 0.000000 1.880680 0.000000 
#    z 0.014120 0.000000 1.915440 
# 
# From -- ./inp_files/2620.got.cif
#   From: 2010.05.17/outbox.cif.g08.bks.cpg/sg15_2_cif.got.tgz:2620.got - 2010.06.03 18:47:42.
