data_PCOD9307053
_publ_section_title
;
Structure prediction by ZEFSAII (Michael W. Deem and Ramdas Pophale) SiO2 
 PCOD9307053
Probable space group: C 2/C
;
_chemical_formula_sum "Si O2"
_cell_formula_units_Z 32
_cell_length_a 17.769111
_cell_length_b 7.598247
_cell_length_c 18.989855
_cell_angle_alpha 90.000000
_cell_angle_beta 29.802846
_cell_angle_gamma 90.000000
_cell_volume 1274.301094
_symmetry_space_group_name_H-M "C 2/C"
_symmetry_group_IT_number 15
_symmetry_cell_setting 'monoclinic'
loop_
_space_group_symop_operation_xyz
x,y,z
-x,y,1/2-z
-x,-y,-z
x,-y,1/2+z
1/2+x,1/2+y,z
1/2-x,1/2+y,1/2-z
1/2-x,1/2-y,-z
1/2+x,1/2-y,1/2+z
loop_
_atom_site_type_symbol
_atom_site_label
_atom_site_fract_x
_atom_site_fract_y
_atom_site_fract_z
Si Si1 0.573280 0.394689 0.576620
Si Si2 0.058670 0.595823 0.883417
Si Si3 0.841171 0.946138 0.360208
Si Si4 0.207594 0.838493 0.870374
O O1 0.576025 0.198025 0.546291
O O2 0.693772 0.460218 0.537297
O O3 0.413442 0.414359 0.747133
O O4 0.583300 0.532294 0.504800
O O5 0.165747 0.746163 0.830910
O O6 0.148324 0.462031 0.761453
O O7 0.000000 0.500000 0.000000
O O8 0.734897 0.812783 0.406344
O O9 0.000000 0.842135 0.250000
#
# Coordination Sequence:
#
# PCOD9307053 Si02
#       4
#     8   8   8   8
#     4   9  21  42  60  94 125 159 210 257 304 378
#     4  12  25  39  63  97 128 162 213 258 310 380
#     4   8  21  41  65  91 126 158 217 254 306 371
#     4  12  21  41  67  88 129 173 201 259 325 360
#
# _framework density 25.111805
#
# number of rings (size 3 to 8) (size 9 to 14) (size 15 to 20)
#    1.500    0.000    0.000    6.000    0.000    0.000 
#    4.500    6.250    0.000    0.000    0.000    0.000 
#    0.000    0.000    0.000    0.000    0.000    0.000 
#
# Total GULP energy -89365.017655 kJ/mol
# GULP energy per Si atom -5585.313603 kJ/mol
# Density = 2.505465 g / cm^3
# Si number density = 25.111805 Si / 1000 Ang^3
#
#
#
# Elastic Constant Matrix: (Units=GPa)
#
#
# Indices 1 2 3 4 5 6 
#
# 1 137.6973 61.7588 14.3638 0.0000 19.8366 0.0000
# 2 61.7588 119.3324 27.9313 0.0000 23.4487 0.0000
# 3 14.3638 27.9313 61.0196 0.0000 26.3086 0.0000
# 4 0.0000 0.0000 0.0000 38.5919 0.0000 4.4560
# 5 19.8366 23.4487 26.3086 0.0000 34.2574 0.0000
# 6 0.0000 0.0000 0.0000 4.4560 0.0000 55.0757
#
#
#
# Elastic Compliance Matrix: (Units=1/GPa)
#
#
# Indices 1 2 3 4 5 6 
#
# 1 0.009711 -0.004659 0.001340 0.000000 -0.003463 0.000000
# 2 -0.004659 0.012149 -0.003053 0.000000 -0.003273 0.000000
# 3 0.001340 -0.003053 0.025271 0.000000 -0.018094 0.000000
# 4 0.000000 0.000000 0.000000 0.026157 0.000000 -0.002116
# 5 -0.003463 -0.003273 -0.018094 0.000000 0.047332 0.000000
# 6 0.000000 0.000000 0.000000 -0.002116 0.000000 0.018328
#
#
# Mechanical properties :
#
#
# Convention : Reuss Voigt Hill
#
# Bulk Modulus (GPa) = 29.08095 58.46191 43.77143
# Shear Modulus (GPa) = 30.64581 39.85136 35.24859
#
# Velocity S-wave (km/s) = 3.49718 3.98798 3.75062
# Velocity P-wave (km/s) = 5.28325 6.67357 6.01869
#
# Compressibility (1/GPa) = 0.03438677
#
# Stress axis : x y z
#
# Youngs Moduli (GPa) = 102.97599 82.31181 39.57049
#
# Poissons Ratio (x) = 0.38348 -0.05301
# Poissons Ratio (y) = 0.47975 0.12081
# Poissons Ratio (z) = -0.13796 0.25130
#
# Static dielectric constant tensor:
#      x y z
#    x 2.068020 0.000000 -0.039440 
#    y 0.000000 2.024060 0.000000 
#    z -0.039440 0.000000 1.958310 
# 
# From -- ./inp_files/208403.got.cif
#   From: 2010.05.17/outbox.cif.g08.bks.cpg/sg15_105_cif.got.tgz:208403.got - 2010.06.03 18:47:42.
