data_PCOD9307375
_publ_section_title
;
Structure prediction by ZEFSAII (Michael W. Deem and Ramdas Pophale) SiO2 
 PCOD9307375
Probable space group: C 2/C
;
_chemical_formula_sum "Si O2"
_cell_formula_units_Z 48
_cell_length_a 11.248835
_cell_length_b 30.238381
_cell_length_c 14.611231
_cell_angle_alpha 90.000000
_cell_angle_beta 149.566561
_cell_angle_gamma 90.000000
_cell_volume 2517.468890
_symmetry_space_group_name_H-M "C 2/C"
_symmetry_group_IT_number 15
_symmetry_cell_setting 'monoclinic'
loop_
_space_group_symop_operation_xyz
x,y,z
-x,y,1/2-z
-x,-y,-z
x,-y,1/2+z
1/2+x,1/2+y,z
1/2-x,1/2+y,1/2-z
1/2-x,1/2-y,-z
1/2+x,1/2-y,1/2+z
loop_
_atom_site_type_symbol
_atom_site_label
_atom_site_fract_x
_atom_site_fract_y
_atom_site_fract_z
Si Si1 0.650464 0.312182 0.756030
Si Si2 0.469717 0.552280 0.497706
Si Si3 0.758624 0.459336 0.466728
Si Si4 0.247449 0.722404 0.903136
Si Si5 0.158194 0.596279 0.137876
Si Si6 0.001545 0.444684 0.358408
O O1 0.500000 0.321275 0.750000
O O2 0.464237 0.309707 0.549922
O O3 0.750455 0.262278 0.832820
O O4 0.829285 0.350933 0.856021
O O5 0.500000 0.500000 0.500000
O O6 0.292389 0.556717 0.464282
O O7 0.367020 0.576207 0.339632
O O8 0.730510 0.565244 0.702338
O O9 0.500000 0.466837 0.250000
O O10 0.920802 0.424518 0.521455
O O11 0.910713 0.504643 0.570620
O O12 0.000000 0.697966 0.750000
O O13 0.250000 0.750000 0.000000
O O14 0.166514 0.581532 0.037531
O O15 0.000000 0.434715 0.250000
#
# Coordination Sequence:
#
# PCOD9307375 Si02
#       6
#     8   8   8   8   8   8
#     4   9  19  35  57  88 120 155 189 245 304 365
#     4  12  23  42  60  83 116 170 208 248 304 343
#     4  12  23  42  63  79 121 168 213 252 297 356
#     4   7  13  33  56  77 112 152 183 225 300 369
#     4  12  25  39  58  92 123 156 205 254 300 360
#     4  12  25  39  58  85 121 165 206 251 302 352
#
# _framework density 19.066770000000002
#
# number of rings (size 3 to 8) (size 9 to 14) (size 15 to 20)
#    0.000    1.667    5.000    2.000    2.333    0.000 
#    9.000    0.833    0.000    0.000    0.000    8.167 
#    0.000    0.000    0.000    0.000    0.000    0.000 
#
# Total GULP energy -133712.574023 kJ/mol
# GULP energy per Si atom -5571.357251 kJ/mol
# Density = 1.902337 g / cm^3
# Si number density = 19.066770 Si / 1000 Ang^3
#
#
#
# Elastic Constant Matrix: (Units=GPa)
#
#
# Indices 1 2 3 4 5 6 
#
# 1 63.6578 30.1458 29.5604 0.0000 -3.0417 0.0000
# 2 30.1458 67.5938 38.3991 0.0000 0.2466 0.0000
# 3 29.5604 38.3991 130.2185 0.0000 -4.8923 0.0000
# 4 0.0000 0.0000 0.0000 23.4835 0.0000 5.9388
# 5 -3.0417 0.2466 -4.8923 0.0000 29.2094 0.0000
# 6 0.0000 0.0000 0.0000 5.9388 0.0000 5.9379
#
#
#
# Elastic Compliance Matrix: (Units=1/GPa)
#
#
# Indices 1 2 3 4 5 6 
#
# 1 0.020594 -0.007898 -0.002277 0.000000 0.001830 0.000000
# 2 -0.007898 0.020831 -0.004415 0.000000 -0.001738 0.000000
# 3 -0.002277 -0.004415 0.009551 0.000000 0.001400 0.000000
# 4 0.000000 0.000000 0.000000 0.057000 0.000000 -0.057009
# 5 0.001830 -0.001738 0.001400 0.000000 0.034675 0.000000
# 6 0.000000 0.000000 0.000000 -0.057009 0.000000 0.225426
#
#
# Mechanical properties :
#
#
# Convention : Reuss Voigt Hill
#
# Bulk Modulus (GPa) = 45.88064 50.85341 48.36703
# Shear Modulus (GPa) = 12.36023 22.61713 17.48868
#
# Velocity S-wave (km/s) = 2.54886 3.44787 3.03187
# Velocity P-wave (km/s) = 5.72517 6.52530 6.13829
#
# Compressibility (1/GPa) = 0.02179568
#
# Stress axis : x y z
#
# Youngs Moduli (GPa) = 48.55804 48.00539 104.70184
#
# Poissons Ratio (x) = 0.37912 0.23844
# Poissons Ratio (y) = 0.38349 0.46228
# Poissons Ratio (z) = 0.11058 0.21195
#
# Static dielectric constant tensor:
#      x y z
#    x 1.718060 0.000000 0.015150 
#    y 0.000000 1.676460 0.000000 
#    z 0.015150 0.000000 1.795880 
# 
# From -- ./inp_files/149117.got.cif
#   From: 2010.05.17/outbox.cif.g08.bks.cpg/sg15_75_cif.got.tgz:149117.got - 2010.06.03 18:47:42.
