data_PCOD9307306
_publ_section_title
;
Structure prediction by ZEFSAII (Michael W. Deem and Ramdas Pophale) SiO2 
 PCOD9307306
Probable space group: C 2/C
;
_chemical_formula_sum "Si O2"
_cell_formula_units_Z 48
_cell_length_a 22.288556
_cell_length_b 7.905249
_cell_length_c 12.862589
_cell_angle_alpha 90.000000
_cell_angle_beta 53.019416
_cell_angle_gamma 90.000000
_cell_volume 1810.445093
_symmetry_space_group_name_H-M "C 2/C"
_symmetry_group_IT_number 15
_symmetry_cell_setting 'monoclinic'
loop_
_space_group_symop_operation_xyz
x,y,z
-x,y,1/2-z
-x,-y,-z
x,-y,1/2+z
1/2+x,1/2+y,z
1/2-x,1/2+y,1/2-z
1/2-x,1/2-y,-z
1/2+x,1/2-y,1/2+z
loop_
_atom_site_type_symbol
_atom_site_label
_atom_site_fract_x
_atom_site_fract_y
_atom_site_fract_z
Si Si1 0.338058 0.995333 0.739315
Si Si2 0.379431 0.603923 0.713323
Si Si3 0.500000 0.500000 0.000000
Si Si4 0.383149 0.103339 0.474792
Si Si5 0.513466 0.175857 0.848460
Si Si6 0.258682 0.549307 0.493019
Si Si7 0.500000 0.648363 0.750000
O O1 0.343738 0.100569 0.627628
O O2 0.406056 0.084488 0.732658
O O3 0.357137 0.795757 0.715095
O O4 0.254254 0.006387 0.872965
O O5 0.404049 0.508185 0.584980
O O6 0.326413 0.512192 0.850836
O O7 0.465524 0.578781 0.675538
O O8 0.505505 0.299553 0.952012
O O9 0.427893 0.249800 0.367660
O O10 0.449337 0.965560 0.420610
O O11 0.313895 0.045405 0.476860
O O12 0.500000 0.263518 0.750000
O O13 0.250000 0.750000 0.500000
#
# Coordination Sequence:
#
# PCOD9307306 Si02
#       7
#     8   8   4   8   8   8   4
#     4  12  24  48  77 107 145 195 266 312 376 461
#     4  12  26  47  74 109 146 192 256 315 372 464
#     4  12  28  42  70 112 148 190 256 314 368 464
#     4  12  23  45  78 107 148 200 249 317 387 449
#     4  12  22  46  77 107 152 201 252 316 386 453
#     4  12  28  49  70 108 159 201 246 313 399 461
#     4  12  24  44  80 114 138 198 256 318 382 438
#
# _framework density 26.512819
#
# number of rings (size 3 to 8) (size 9 to 14) (size 15 to 20)
#    0.000    0.000    7.500    3.000    1.167    1.333 
#    3.000    0.000    0.000    0.000    0.000    0.000 
#    0.000    0.000    0.000    0.000    0.000    0.000 
#
# Total GULP energy -133871.812446 kJ/mol
# GULP energy per Si atom -5577.992185 kJ/mol
# Density = 2.645247 g / cm^3
# Si number density = 26.512819 Si / 1000 Ang^3
#
#
#
# Elastic Constant Matrix: (Units=GPa)
#
#
# Indices 1 2 3 4 5 6 
#
# 1 66.1336 -1.7617 18.2136 0.0000 -13.1959 0.0000
# 2 -1.7617 75.5982 35.9856 0.0000 0.3869 0.0000
# 3 18.2136 35.9856 240.8178 0.0000 -22.0617 0.0000
# 4 0.0000 0.0000 0.0000 61.4869 0.0000 1.2024
# 5 -13.1959 0.3869 -22.0617 0.0000 41.2150 0.0000
# 6 0.0000 0.0000 0.0000 1.2024 0.0000 14.3744
#
#
#
# Elastic Compliance Matrix: (Units=1/GPa)
#
#
# Indices 1 2 3 4 5 6 
#
# 1 0.016340 0.000795 -0.000921 0.000000 0.004731 0.000000
# 2 0.000795 0.014350 -0.002307 0.000000 -0.001115 0.000000
# 3 -0.000921 -0.002307 0.004776 0.000000 0.002283 0.000000
# 4 0.000000 0.000000 0.000000 0.016290 0.000000 -0.001363
# 5 0.004731 -0.001115 0.002283 0.000000 0.027010 0.000000
# 6 0.000000 0.000000 0.000000 -0.001363 0.000000 0.069682
#
#
# Mechanical properties :
#
#
# Convention : Reuss Voigt Hill
#
# Bulk Modulus (GPa) = 32.67934 54.15828 43.41881
# Shear Modulus (GPa) = 30.57841 45.42275 38.00058
#
# Velocity S-wave (km/s) = 3.39978 4.14362 3.78999
# Velocity P-wave (km/s) = 5.26915 6.58516 5.96357
#
# Compressibility (1/GPa) = 0.03060037
#
# Stress axis : x y z
#
# Youngs Moduli (GPa) = 61.20029 69.68631 209.37855
#
# Poissons Ratio (x) = -0.05541 0.19288
# Poissons Ratio (y) = -0.04866 0.48295
# Poissons Ratio (z) = 0.05638 0.16074
#
# Static dielectric constant tensor:
#      x y z
#    x 3.123590 0.000000 1.240460 
#    y 0.000000 2.148090 0.000000 
#    z 1.240460 0.000000 3.883760 
# 
# From -- ./inp_files/176939.got.cif
#   From: 2010.05.17/outbox.cif.g08.bks.cpg/sg15_89_cif.got.tgz:176939.got - 2010.06.03 18:47:42.
