data_PCOD9307334
_publ_section_title
;
Structure prediction by ZEFSAII (Michael W. Deem and Ramdas Pophale) SiO2 
 PCOD9307334
Probable space group: C 2/C
;
_chemical_formula_sum "Si O2"
_cell_formula_units_Z 48
_cell_length_a 15.274028
_cell_length_b 11.174728
_cell_length_c 22.123733
_cell_angle_alpha 90.000000
_cell_angle_beta 142.163551
_cell_angle_gamma 90.000000
_cell_volume 2316.325103
_symmetry_space_group_name_H-M "C 2/C"
_symmetry_group_IT_number 15
_symmetry_cell_setting 'monoclinic'
loop_
_space_group_symop_operation_xyz
x,y,z
-x,y,1/2-z
-x,-y,-z
x,-y,1/2+z
1/2+x,1/2+y,z
1/2-x,1/2+y,1/2-z
1/2-x,1/2-y,-z
1/2+x,1/2-y,1/2+z
loop_
_atom_site_type_symbol
_atom_site_label
_atom_site_fract_x
_atom_site_fract_y
_atom_site_fract_z
Si Si1 0.151039 0.400969 0.354597
Si Si2 0.176225 0.319658 0.557872
Si Si3 0.739952 0.972810 0.700567
Si Si4 0.413729 0.952253 0.567427
Si Si5 0.145106 0.962248 0.612694
Si Si6 0.648728 0.797976 0.074870
O O1 0.246474 0.291774 0.430408
O O2 0.123922 0.513501 0.384501
O O3 0.238150 0.442883 0.344035
O O4 0.000000 0.354507 0.250000
O O5 0.259847 0.368870 0.662093
O O6 0.152307 0.433037 0.502514
O O7 0.016837 0.291714 0.494383
O O8 0.584062 0.952578 0.647028
O O9 0.858800 0.966692 0.817075
O O10 0.724391 0.098444 0.656044
O O11 0.352162 0.839581 0.495833
O O12 0.199700 0.833714 0.619069
O O13 0.000000 0.000000 0.500000
#
# Coordination Sequence:
#
# PCOD9307334 Si02
#       6
#     8   8   8   8   8   8
#     4  12  23  37  59  93 125 159 201 255 314 360
#     4   9  19  38  63  88 116 157 201 250 302 361
#     4   9  20  38  63  88 117 158 204 243 304 365
#     4   9  19  39  62  88 119 155 194 247 316 364
#     4  12  24  37  59  91 121 161 208 249 302 371
#     4   9  20  39  64  85 118 161 198 251 302 364
#
# _framework density 20.722477999999999
#
# number of rings (size 3 to 8) (size 9 to 14) (size 15 to 20)
#    0.000    2.000    3.333    2.500    2.333    0.667 
#    3.000    0.000    0.000    0.000    0.000    0.000 
#    0.000    0.000    0.000    0.000    0.000    0.000 
#
# Total GULP energy -133763.348919 kJ/mol
# GULP energy per Si atom -5573.472872 kJ/mol
# Density = 2.067531 g / cm^3
# Si number density = 20.722478 Si / 1000 Ang^3
#
#
#
# Elastic Constant Matrix: (Units=GPa)
#
#
# Indices 1 2 3 4 5 6 
#
# 1 40.4468 0.4916 7.0072 0.0000 -7.2277 0.0000
# 2 0.4916 85.7710 11.3159 0.0000 2.7003 0.0000
# 3 7.0072 11.3159 85.0383 0.0000 -15.2041 0.0000
# 4 0.0000 0.0000 0.0000 16.8935 0.0000 0.0422
# 5 -7.2277 2.7003 -15.2041 0.0000 26.6051 0.0000
# 6 0.0000 0.0000 0.0000 0.0422 0.0000 18.2644
#
#
#
# Elastic Compliance Matrix: (Units=1/GPa)
#
#
# Indices 1 2 3 4 5 6 
#
# 1 0.026063 -0.000232 -0.000943 0.000000 0.006565 0.000000
# 2 -0.000232 0.012002 -0.002013 0.000000 -0.002431 0.000000
# 3 -0.000943 -0.002013 0.013472 0.000000 0.007647 0.000000
# 4 0.000000 0.000000 0.000000 0.059195 0.000000 -0.000137
# 5 0.006565 -0.002431 0.007647 0.000000 0.043987 0.000000
# 6 0.000000 0.000000 0.000000 -0.000137 0.000000 0.054752
#
#
# Mechanical properties :
#
#
# Convention : Reuss Voigt Hill
#
# Bulk Modulus (GPa) = 22.14208 27.65395 24.89801
# Shear Modulus (GPa) = 21.65434 25.18201 23.41817
#
# Velocity S-wave (km/s) = 3.23610 3.48976 3.36532
# Velocity P-wave (km/s) = 4.96703 5.44167 5.20976
#
# Compressibility (1/GPa) = 0.04516288
#
# Stress axis : x y z
#
# Youngs Moduli (GPa) = 38.36831 83.31690 74.22700
#
# Poissons Ratio (x) = 0.01930 0.07000
# Poissons Ratio (y) = 0.00889 0.14940
# Poissons Ratio (z) = 0.03618 0.16770
#
# Static dielectric constant tensor:
#      x y z
#    x 1.769390 0.000000 -0.064920 
#    y 0.000000 1.776670 0.000000 
#    z -0.064920 0.000000 1.909270 
# 
# From -- ./inp_files/103815.got.cif
#   From: 2010.05.17/outbox.cif.g08.bks.cpg/sg15_52_cif.got.tgz:103815.got - 2010.06.03 18:47:42.
