data_PCOD9307145
_publ_section_title
;
Structure prediction by ZEFSAII (Michael W. Deem and Ramdas Pophale) SiO2 
 PCOD9307145
Probable space group: C 2/C
;
_chemical_formula_sum "Si O2"
_cell_formula_units_Z 48
_cell_length_a 18.357433
_cell_length_b 17.870231
_cell_length_c 20.291322
_cell_angle_alpha 90.000000
_cell_angle_beta 159.206407
_cell_angle_gamma 90.000000
_cell_volume 2363.109144
_symmetry_space_group_name_H-M "C 2/C"
_symmetry_group_IT_number 15
_symmetry_cell_setting 'monoclinic'
loop_
_space_group_symop_operation_xyz
x,y,z
-x,y,1/2-z
-x,-y,-z
x,-y,1/2+z
1/2+x,1/2+y,z
1/2-x,1/2+y,1/2-z
1/2-x,1/2-y,-z
1/2+x,1/2-y,1/2+z
loop_
_atom_site_type_symbol
_atom_site_label
_atom_site_fract_x
_atom_site_fract_y
_atom_site_fract_z
Si Si1 0.389890 0.344857 0.009901
Si Si2 0.235395 0.098995 0.959627
Si Si3 0.970598 0.453794 0.294632
Si Si4 0.504702 0.502873 0.425479
Si Si5 0.906154 0.424699 0.954783
Si Si6 0.981869 0.679262 0.400427
O O1 0.217630 0.350171 0.807545
O O2 0.271800 0.351834 0.979719
O O3 0.532548 0.417593 0.127420
O O4 0.509076 0.268366 0.098529
O O5 0.000000 0.075109 0.750000
O O6 0.322367 0.149157 0.974265
O O7 0.383177 0.027175 0.087309
O O8 0.024488 0.418170 0.410905
O O9 0.000000 0.411265 0.250000
O O10 0.733543 0.477103 0.097497
O O11 0.500000 0.500000 0.500000
O O12 0.336660 0.558878 0.254883
O O13 0.968789 0.355242 0.961985
O O14 0.000000 0.500000 0.000000
#
# Coordination Sequence:
#
# PCOD9307145 Si02
#       6
#     8   8   8   8   8   8
#     4  12  24  39  61  90 136 172 219 267 337 395
#     4  12  22  39  59  92 138 182 216 261 322 410
#     4  12  24  40  66  98 132 172 227 279 331 396
#     4  12  22  42  66  92 134 175 217 281 330 393
#     4  12  24  41  65  92 129 177 233 277 322 390
#     4  12  25  40  58  95 131 183 226 262 328 400
#
# _framework density 20.312222999999999
#
# number of rings (size 3 to 8) (size 9 to 14) (size 15 to 20)
#    0.000    0.000    8.333    3.000    2.333    0.000 
#    0.000    0.000    0.000    0.000    0.000    4.667 
#    0.000    0.000    0.000    0.000    0.000    0.000 
#
# Total GULP energy -134269.011687 kJ/mol
# GULP energy per Si atom -5594.542154 kJ/mol
# Density = 2.026599 g / cm^3
# Si number density = 20.312223 Si / 1000 Ang^3
#
#
#
# Elastic Constant Matrix: (Units=GPa)
#
#
# Indices 1 2 3 4 5 6 
#
# 1 180.2768 57.5575 31.1006 0.0018 -20.4210 0.0009
# 2 57.5575 75.0876 12.2067 -0.0091 3.1749 -0.0003
# 3 31.1006 12.2067 92.6983 -0.0051 6.4626 -0.0016
# 4 0.0018 -0.0091 -0.0051 22.4272 -0.0029 2.6781
# 5 -20.4210 3.1749 6.4626 -0.0029 40.3395 0.0007
# 6 0.0009 -0.0003 -0.0016 2.6781 0.0007 31.6250
#
#
#
# Elastic Compliance Matrix: (Units=1/GPa)
#
#
# Indices 1 2 3 4 5 6 
#
# 1 0.008610 -0.006431 -0.002408 -0.000003 0.005251 0.000000
# 2 -0.006431 0.018437 0.000058 0.000007 -0.004716 0.000000
# 3 -0.002408 0.000058 0.011805 0.000002 -0.003115 0.000001
# 4 -0.000003 0.000007 0.000002 0.045044 0.000001 -0.003815
# 5 0.005251 -0.004716 -0.003115 0.000001 0.028318 -0.000001
# 6 0.000000 0.000000 0.000001 -0.003815 -0.000001 0.031944
#
#
# Mechanical properties :
#
#
# Convention : Reuss Voigt Hill
#
# Bulk Modulus (GPa) = 46.96624 61.08801 54.02713
# Shear Modulus (GPa) = 29.61802 35.35820 32.48811
#
# Velocity S-wave (km/s) = 3.82270 4.17674 4.00363
# Velocity P-wave (km/s) = 6.53119 7.30753 6.93024
#
# Compressibility (1/GPa) = 0.02129189
#
# Stress axis : x y z
#
# Youngs Moduli (GPa) = 116.13865 54.23851 84.70943
#
# Poissons Ratio (x) = 0.34879 0.20399
# Poissons Ratio (y) = 0.74686 -0.00495
# Poissons Ratio (z) = 0.27967 -0.00317
#
# Static dielectric constant tensor:
#      x y z
#    x 1.778150 -0.000010 -0.036130 
#    y -0.000010 1.712800 -0.000010 
#    z -0.036130 -0.000010 1.791930 
# 
# From -- ./inp_files/216298.got.cif
#   From: 2010.05.17/outbox.cif.g08.bks.cpg/sg15_109_cif.got.tgz:216298.got - 2010.06.03 18:47:42.
