data_PCOD9307417
_publ_section_title
;
Structure prediction by ZEFSAII (Michael W. Deem and Ramdas Pophale) SiO2 
 PCOD9307417
Probable space group: C 2/C
;
_chemical_formula_sum "Si O2"
_cell_formula_units_Z 44
_cell_length_a 16.059186
_cell_length_b 12.958105
_cell_length_c 26.741091
_cell_angle_alpha 90.000000
_cell_angle_beta 157.981290
_cell_angle_gamma 90.000000
_cell_volume 2086.269515
_symmetry_space_group_name_H-M "C 2/C"
_symmetry_group_IT_number 15
_symmetry_cell_setting 'monoclinic'
loop_
_space_group_symop_operation_xyz
x,y,z
-x,y,1/2-z
-x,-y,-z
x,-y,1/2+z
1/2+x,1/2+y,z
1/2-x,1/2+y,1/2-z
1/2-x,1/2-y,-z
1/2+x,1/2-y,1/2+z
loop_
_atom_site_type_symbol
_atom_site_label
_atom_site_fract_x
_atom_site_fract_y
_atom_site_fract_z
Si Si1 0.991135 0.220119 0.613900
Si Si2 0.388148 0.492715 0.582351
Si Si3 0.120141 0.138206 0.132786
Si Si4 0.306035 0.739394 0.877004
Si Si5 0.000000 0.084151 0.250000
Si Si6 0.437098 0.964188 0.272594
O O1 0.750000 0.250000 0.500000
O O2 0.184671 0.279757 0.750704
O O3 0.025365 0.251791 0.575219
O O4 0.006026 0.097632 0.630159
O O5 0.512126 0.397124 0.624783
O O6 0.402081 0.480995 0.649527
O O7 0.139438 0.492464 0.421794
O O8 0.229231 0.036498 0.169485
O O9 0.933095 0.184379 0.993123
O O10 0.124155 0.656169 0.756945
O O11 0.188955 0.841535 0.831960
O O12 0.500000 0.983747 0.250000
#
# Coordination Sequence:
#
# PCOD9307417 Si02
#       6
#     8   8   8   8   4   8
#     4  12  27  47  68 104 145 189 235 288 362 435
#     4  12  26  47  71 104 145 186 239 292 362 425
#     4  12  25  44  73 102 142 184 238 300 352 423
#     4  12  25  43  74 107 138 186 242 292 359 419
#     4  12  28  46  72 108 148 192 232 294 360 432
#     4  12  23  43  76 106 135 180 240 304 347 409
#
# _framework density 21.090275999999999
#
# number of rings (size 3 to 8) (size 9 to 14) (size 15 to 20)
#    0.000    0.000    8.182    1.636    2.545    2.909 
#    0.000    2.727    0.000    0.000    0.000    0.000 
#    0.000    0.000    0.000    0.000    0.000    0.000 
#
# Total GULP energy -123166.879768 kJ/mol
# GULP energy per Si atom -5598.494535 kJ/mol
# Density = 2.104227 g / cm^3
# Si number density = 21.090276 Si / 1000 Ang^3
#
#
#
# Elastic Constant Matrix: (Units=GPa)
#
#
# Indices 1 2 3 4 5 6 
#
# 1 143.4006 9.7234 30.6760 -0.0005 -11.8455 -0.0003
# 2 9.7234 57.6294 26.3419 0.0060 -0.5584 -0.0016
# 3 30.6760 26.3419 80.7452 0.0191 -10.6957 -0.0036
# 4 -0.0005 0.0060 0.0191 20.4736 -0.0013 4.3701
# 5 -11.8455 -0.5584 -10.6957 -0.0013 27.4838 0.0000
# 6 -0.0003 -0.0016 -0.0036 4.3701 0.0000 35.6688
#
#
#
# Elastic Compliance Matrix: (Units=1/GPa)
#
#
# Indices 1 2 3 4 5 6 
#
# 1 0.007727 -0.000094 -0.002598 0.000003 0.002317 -0.000001
# 2 -0.000094 0.020532 -0.006972 0.000000 -0.002337 0.000000
# 3 -0.002598 -0.006972 0.016321 -0.000014 0.005090 0.000003
# 4 0.000003 0.000000 -0.000014 0.050155 -0.000002 -0.006145
# 5 0.002317 -0.002337 0.005090 -0.000002 0.039317 0.000001
# 6 -0.000001 0.000000 0.000003 -0.006145 0.000001 0.028789
#
#
# Mechanical properties :
#
#
# Convention : Reuss Voigt Hill
#
# Bulk Modulus (GPa) = 39.60116 46.13976 42.87046
# Shear Modulus (GPa) = 26.23485 31.06083 28.64784
#
# Velocity S-wave (km/s) = 3.53077 3.84181 3.68957
# Velocity P-wave (km/s) = 5.95311 6.45013 6.20659
#
# Compressibility (1/GPa) = 0.02525179
#
# Stress axis : x y z
#
# Youngs Moduli (GPa) = 129.41604 48.70355 61.27263
#
# Poissons Ratio (x) = 0.00457 0.15919
# Poissons Ratio (y) = 0.01213 0.42721
# Poissons Ratio (z) = 0.33623 0.33958
#
# Static dielectric constant tensor:
#      x y z
#    x 1.771350 0.000000 0.011620 
#    y 0.000000 1.761200 0.000000 
#    z 0.011620 0.000000 1.739960 
# 
# From -- ./inp_files/316265.got.cif
#   From: 2010.05.17/outbox.cif.g08.bks.cpg/sg15_159_cif.got.tgz:316265.got - 2010.06.03 18:47:42.
