data_PCOD9307277
_publ_section_title
;
Structure prediction by ZEFSAII (Michael W. Deem and Ramdas Pophale) SiO2 
 PCOD9307277
Probable space group: C 2/C
;
_chemical_formula_sum "Si O2"
_cell_formula_units_Z 52
_cell_length_a 26.022367
_cell_length_b 22.123155
_cell_length_c 13.272233
_cell_angle_alpha 90.000000
_cell_angle_beta 19.340586
_cell_angle_gamma 90.000000
_cell_volume 2530.496315
_symmetry_space_group_name_H-M "C 2/C"
_symmetry_group_IT_number 15
_symmetry_cell_setting 'monoclinic'
loop_
_space_group_symop_operation_xyz
x,y,z
-x,y,1/2-z
-x,-y,-z
x,-y,1/2+z
1/2+x,1/2+y,z
1/2-x,1/2+y,1/2-z
1/2-x,1/2-y,-z
1/2+x,1/2-y,1/2+z
loop_
_atom_site_type_symbol
_atom_site_label
_atom_site_fract_x
_atom_site_fract_y
_atom_site_fract_z
Si Si1 0.847527 0.097496 0.715101
Si Si2 0.500000 0.303880 0.250000
Si Si3 0.535069 0.167574 0.803323
Si Si4 0.363684 0.622019 0.186840
Si Si5 0.378978 0.949109 0.690021
Si Si6 0.787183 0.763434 0.314644
Si Si7 0.830196 0.986323 0.607898
O O1 0.795727 0.165095 0.785388
O O2 0.832698 0.052860 0.649026
O O3 0.022388 0.103196 0.434402
O O4 0.742232 0.069164 0.998721
O O5 0.537919 0.344213 0.082033
O O6 0.348501 0.265275 0.502373
O O7 0.281318 0.164177 0.017724
O O8 0.459774 0.113000 0.005679
O O9 0.447832 0.229377 0.992719
O O10 0.500000 0.156872 0.750000
O O11 0.297810 0.561404 0.256918
O O12 0.500000 0.000000 0.500000
O O13 0.288948 0.975590 0.760778
O O14 0.750000 0.750000 0.500000
O O15 0.000000 0.972992 0.250000
#
# Coordination Sequence:
#
# PCOD9307277 Si02
#       7
#     8   4   8   8   8   8   8
#     4  12  27  47  72 101 149 191 235 297 367 430
#     4  12  22  44  78  96 134 192 230 290 352 432
#     4  12  24  43  74 105 135 183 247 290 347 439
#     4  12  22  44  76 101 131 186 239 288 360 427
#     4  12  26  44  73 108 145 188 238 303 363 430
#     4  12  25  48  68 103 142 186 237 290 359 429
#     4  12  25  44  71 105 142 185 238 294 362 430
#
# _framework density 20.549329
#
# number of rings (size 3 to 8) (size 9 to 14) (size 15 to 20)
#    0.000    0.000    8.462    1.385    2.154    2.462 
#    0.000    0.000    0.000    0.000    0.000    0.000 
#    0.000    0.000    0.000    0.000    0.000    0.000 
#
# Total GULP energy -145578.450004 kJ/mol
# GULP energy per Si atom -5599.171154 kJ/mol
# Density = 2.050256 g / cm^3
# Si number density = 20.549329 Si / 1000 Ang^3
#
#
#
# Elastic Constant Matrix: (Units=GPa)
#
#
# Indices 1 2 3 4 5 6 
#
# 1 24.3724 39.5031 8.4371 -0.0193 -0.8782 0.0126
# 2 39.5031 151.5245 39.5364 0.0157 -14.9290 -0.0166
# 3 8.4371 39.5364 98.8079 -0.0239 -4.6604 0.0202
# 4 -0.0193 0.0157 -0.0239 -32.1020 0.0136 73.7931
# 5 -0.8782 -14.9290 -4.6604 0.0136 27.4042 -0.0127
# 6 0.0126 -0.0166 0.0202 73.7931 -0.0127 -30.2020
#
#
#
# Elastic Compliance Matrix: (Units=1/GPa)
#
#
# Indices 1 2 3 4 5 6 
#
# 1 0.073058 -0.020263 0.001471 -0.000010 -0.008447 0.000021
# 2 -0.020263 0.013346 -0.003324 0.000005 0.006056 -0.000008
# 3 0.001471 -0.003324 0.011333 -0.000003 0.000163 0.000004
# 4 -0.000010 0.000005 -0.000003 0.006748 0.000006 0.016487
# 5 -0.008447 0.006056 0.000163 0.000006 0.039547 -0.000008
# 6 0.000021 -0.000008 0.000004 0.016487 -0.000008 0.007172
#
#
# Mechanical properties :
#
#
# Convention : Reuss Voigt Hill
#
# Bulk Modulus (GPa) = 18.68969 49.96198 34.32584
# Shear Modulus (GPa) = 23.44423 5.50191 14.47307
#
# Velocity S-wave (km/s) = 3.38135 1.63806 2.65676
# Velocity P-wave (km/s) = 4.93553 5.28617 5.11386
#
# Compressibility (1/GPa) = 0.05350543
#
# Stress axis : x y z
#
# Youngs Moduli (GPa) = 13.68766 74.92740 88.23813
#
# Poissons Ratio (x) = 1.51823 -0.12980
# Poissons Ratio (y) = 0.27735 0.29334
# Poissons Ratio (z) = -0.02013 0.24909
#
# Static dielectric constant tensor:
#      x y z
#    x 1.745730 0.000000 0.009010 
#    y 0.000000 1.724270 0.000010 
#    z 0.009010 0.000010 1.755360 
# 
# From -- ./inp_files/178998.got.cif
#   From: 2010.05.17/outbox.cif.g08.bks.cpg/sg15_90_cif.got.tgz:178998.got - 2010.06.03 18:47:42.
