data_PCOD9307710
_publ_section_title
;
Structure prediction by ZEFSAII (Michael W. Deem and Ramdas Pophale) SiO2 
 PCOD9307710
Probable space group: C 2/C
;
_chemical_formula_sum "Si O2"
_cell_formula_units_Z 44
_cell_length_a 26.771293
_cell_length_b 14.021944
_cell_length_c 5.104281
_cell_angle_alpha 90.000000
_cell_angle_beta 64.011510
_cell_angle_gamma 90.000000
_cell_volume 1722.324100
_symmetry_space_group_name_H-M "C 2/C"
_symmetry_group_IT_number 15
_symmetry_cell_setting 'monoclinic'
loop_
_space_group_symop_operation_xyz
x,y,z
-x,y,1/2-z
-x,-y,-z
x,-y,1/2+z
1/2+x,1/2+y,z
1/2-x,1/2+y,1/2-z
1/2-x,1/2-y,-z
1/2+x,1/2-y,1/2+z
loop_
_atom_site_type_symbol
_atom_site_label
_atom_site_fract_x
_atom_site_fract_y
_atom_site_fract_z
Si Si1 0.788364 0.391440 0.495485
Si Si2 0.907791 0.054952 0.236400
Si Si3 0.500000 0.691848 0.250000
Si Si4 0.914972 0.445772 0.187059
Si Si5 0.000000 0.300884 0.750000
Si Si6 0.713432 0.583552 0.761215
Si Si7 0.250000 0.750000 0.000000
O O1 0.849619 0.427622 0.300084
O O2 0.748264 0.486471 0.619450
O O3 0.759954 0.346364 0.297301
O O4 0.792067 0.316754 0.718641
O O5 0.949337 0.133519 0.242265
O O6 0.842553 0.071139 0.448727
O O7 0.918917 0.966732 0.408699
O O8 0.475954 0.745777 0.556575
O O9 0.927949 0.467546 0.458464
O O10 0.951318 0.361420 0.993414
O O11 0.702445 0.659764 0.558430
#
# Coordination Sequence:
#
# PCOD9307710 Si02
#       7
#     8   8   4   8   4   8   4
#     4  12  24  47  72 113 159 200 256 317 385 476
#     4  12  25  47  79 103 148 202 251 310 391 456
#     4  12  28  50  72 112 150 192 262 330 378 460
#     4  12  25  47  80 106 152 207 255 315 391 458
#     4  12  28  50  74 112 154 192 266 326 380 460
#     4  12  24  46  71 110 154 198 253 314 379 473
#     4  12  26  42  74 106 154 210 252 310 396 454
#
# _framework density 25.546876999999999
#
# number of rings (size 3 to 8) (size 9 to 14) (size 15 to 20)
#    0.000    0.000    5.455    3.818    2.545    1.455 
#    0.000    0.000    0.000    0.000    0.000    0.000 
#    0.000    0.000    0.000    0.000    0.000    0.000 
#
# Total GULP energy -122569.606295 kJ/mol
# GULP energy per Si atom -5571.345741 kJ/mol
# Density = 2.548873 g / cm^3
# Si number density = 25.546877 Si / 1000 Ang^3
#
#
#
# Elastic Constant Matrix: (Units=GPa)
#
#
# Indices 1 2 3 4 5 6 
#
# 1 76.3752 25.4872 11.7398 0.0000 -3.9043 0.0000
# 2 25.4872 122.4248 35.0239 0.0000 -20.6992 0.0000
# 3 11.7398 35.0239 98.8207 0.0000 -0.6995 0.0000
# 4 0.0000 0.0000 0.0000 43.9167 0.0000 -7.6130
# 5 -3.9043 -20.6992 -0.6995 0.0000 39.3682 0.0000
# 6 0.0000 0.0000 0.0000 -7.6130 0.0000 25.9752
#
#
#
# Elastic Compliance Matrix: (Units=1/GPa)
#
#
# Indices 1 2 3 4 5 6 
#
# 1 0.014115 -0.002747 -0.000704 0.000000 -0.000057 0.000000
# 2 -0.002747 0.010596 -0.003392 0.000000 0.005239 0.000000
# 3 -0.000704 -0.003392 0.011393 0.000000 -0.001651 0.000000
# 4 0.000000 0.000000 0.000000 0.023989 0.000000 0.007031
# 5 -0.000057 0.005239 -0.001651 0.000000 0.028121 0.000000
# 6 0.000000 0.000000 0.000000 0.007031 0.000000 0.040559
#
#
# Mechanical properties :
#
#
# Convention : Reuss Voigt Hill
#
# Bulk Modulus (GPa) = 44.60400 49.12473 46.86437
# Shear Modulus (GPa) = 33.34833 36.87666 35.11249
#
# Velocity S-wave (km/s) = 3.61692 3.80345 3.71136
# Velocity P-wave (km/s) = 5.91104 6.20961 6.06217
#
# Compressibility (1/GPa) = 0.02241951
#
# Stress axis : x y z
#
# Youngs Moduli (GPa) = 70.84572 94.37234 87.76940
#
# Poissons Ratio (x) = 0.25923 0.06177
# Poissons Ratio (y) = 0.19460 0.29773
# Poissons Ratio (z) = 0.04986 0.32012
#
# Static dielectric constant tensor:
#      x y z
#    x 1.760630 0.000000 -0.026420 
#    y 0.000000 1.584930 0.000000 
#    z -0.026420 0.000000 2.506700 
# 
# From -- ./inp_files/15149.got.cif
#   From: 2010.05.17/outbox.cif.g08.bks.cpg/sg15_8_cif.got.tgz:15149.got - 2010.06.03 18:47:42.
