data_PCOD9307512
_publ_section_title
;
Structure prediction by ZEFSAII (Michael W. Deem and Ramdas Pophale) SiO2 
 PCOD9307512
Probable space group: C 2/C
;
_chemical_formula_sum "Si O2"
_cell_formula_units_Z 44
_cell_length_a 5.221692
_cell_length_b 22.394677
_cell_length_c 17.554662
_cell_angle_alpha 90.000000
_cell_angle_beta 80.404269
_cell_angle_gamma 90.000000
_cell_volume 2024.086963
_symmetry_space_group_name_H-M "C 2/C"
_symmetry_group_IT_number 15
_symmetry_cell_setting 'monoclinic'
loop_
_space_group_symop_operation_xyz
x,y,z
-x,y,1/2-z
-x,-y,-z
x,-y,1/2+z
1/2+x,1/2+y,z
1/2-x,1/2+y,1/2-z
1/2-x,1/2-y,-z
1/2+x,1/2-y,1/2+z
loop_
_atom_site_type_symbol
_atom_site_label
_atom_site_fract_x
_atom_site_fract_y
_atom_site_fract_z
Si Si1 0.668491 0.321924 0.553940
Si Si2 0.096064 0.259307 0.322863
Si Si3 0.237981 0.662853 0.954056
Si Si4 0.275515 0.521213 0.952828
Si Si5 0.821330 0.923074 0.833161
Si Si6 0.500000 0.158719 0.250000
O O1 0.639666 0.270030 0.617834
O O2 0.456948 0.311354 0.499058
O O3 0.584502 0.382304 0.601545
O O4 0.953959 0.329164 0.506010
O O5 0.238151 0.303293 0.373548
O O6 0.272150 0.203269 0.287490
O O7 0.000000 0.289191 0.250000
O O8 0.284902 0.592259 0.943516
O O9 0.293157 0.487785 0.870770
O O10 0.500000 0.500000 0.000000
O O11 0.000000 0.500000 0.000000
O O12 0.573488 0.885641 0.815348
O O13 0.000000 0.923943 0.750000
#
# Coordination Sequence:
#
# PCOD9307512 Si02
#       6
#     8   8   8   8   8   4
#     4  12  23  47  75 107 142 189 241 298 361 431
#     4  12  27  44  72 107 150 195 236 305 368 441
#     4  12  27  47  74 108 146 188 243 298 368 434
#     4  12  26  49  75 104 146 190 239 301 360 431
#     4  12  25  44  77 105 140 192 249 300 356 427
#     4  12  24  46  72 102 152 180 250 294 360 426
#
# _framework density 21.738198000000001
#
# number of rings (size 3 to 8) (size 9 to 14) (size 15 to 20)
#    0.000    0.000    7.273    2.182    5.091    0.000 
#    3.273    0.000    0.000    0.000    0.000    0.000 
#    0.000    0.000    0.000    0.000    0.000    0.000 
#
# Total GULP energy -123165.229526 kJ/mol
# GULP energy per Si atom -5598.419524 kJ/mol
# Density = 2.168872 g / cm^3
# Si number density = 21.738198 Si / 1000 Ang^3
#
#
#
# Elastic Constant Matrix: (Units=GPa)
#
#
# Indices 1 2 3 4 5 6 
#
# 1 126.9950 26.0182 64.4155 0.0000 7.1921 0.0000
# 2 26.0182 122.2090 62.7068 0.0000 10.2209 0.0000
# 3 64.4155 62.7068 155.7650 0.0000 27.4324 0.0000
# 4 0.0000 0.0000 0.0000 55.2278 0.0000 10.8579
# 5 7.1921 10.2209 27.4324 0.0000 37.4932 0.0000
# 6 0.0000 0.0000 0.0000 10.8579 0.0000 23.0473
#
#
#
# Elastic Compliance Matrix: (Units=1/GPa)
#
#
# Indices 1 2 3 4 5 6 
#
# 1 0.010017 0.000002 -0.004368 0.000000 0.001274 0.000000
# 2 0.000002 0.010315 -0.004199 0.000000 0.000260 0.000000
# 3 -0.004368 -0.004199 0.010983 0.000000 -0.006053 0.000000
# 4 0.000000 0.000000 0.000000 0.019955 0.000000 -0.009401
# 5 0.001274 0.000260 -0.006053 0.000000 0.030785 0.000000
# 6 0.000000 0.000000 0.000000 -0.009401 0.000000 0.047818
#
#
# Mechanical properties :
#
#
# Convention : Reuss Voigt Hill
#
# Bulk Modulus (GPa) = 70.49592 79.02777 74.76185
# Shear Modulus (GPa) = 32.95296 39.94223 36.44760
#
# Velocity S-wave (km/s) = 3.89768 4.29117 4.09915
# Velocity P-wave (km/s) = 7.26332 7.80931 7.54126
#
# Compressibility (1/GPa) = 0.01418522
#
# Stress axis : x y z
#
# Youngs Moduli (GPa) = 99.82854 96.94420 91.05292
#
# Poissons Ratio (x) = -0.00018 0.39768
# Poissons Ratio (y) = -0.00019 0.38235
# Poissons Ratio (z) = 0.43601 0.40709
#
# Static dielectric constant tensor:
#      x y z
#    x 1.838780 0.000000 0.011660 
#    y 0.000000 1.783710 0.000000 
#    z 0.011660 0.000000 1.809820 
# 
# From -- ./inp_files/129390.got.cif
#   From: 2010.05.17/outbox.cif.g08.bks.cpg/sg15_65_cif.got.tgz:129390.got - 2010.06.03 18:47:42.
