data_PCOD9307193
_publ_section_title
;
Structure prediction by ZEFSAII (Michael W. Deem and Ramdas Pophale) SiO2 
 PCOD9307193
Probable space group: C 2/C
;
_chemical_formula_sum "Si O2"
_cell_formula_units_Z 40
_cell_length_a 10.561347
_cell_length_b 20.944506
_cell_length_c 16.815025
_cell_angle_alpha 90.000000
_cell_angle_beta 32.088925
_cell_angle_gamma 90.000000
_cell_volume 1975.938795
_symmetry_space_group_name_H-M "C 2/C"
_symmetry_group_IT_number 15
_symmetry_cell_setting 'monoclinic'
loop_
_space_group_symop_operation_xyz
x,y,z
-x,y,1/2-z
-x,-y,-z
x,-y,1/2+z
1/2+x,1/2+y,z
1/2-x,1/2+y,1/2-z
1/2-x,1/2-y,-z
1/2+x,1/2-y,1/2+z
loop_
_atom_site_type_symbol
_atom_site_label
_atom_site_fract_x
_atom_site_fract_y
_atom_site_fract_z
Si Si1 0.005852 0.375652 0.016608
Si Si2 0.500000 0.008772 0.750000
Si Si3 0.500000 0.453333 0.750000
Si Si4 0.704141 0.616624 0.837136
Si Si5 0.214479 0.940539 0.032156
Si Si6 0.239497 0.249454 0.910641
O O1 0.898540 0.380945 0.162469
O O2 0.824103 0.406683 0.051097
O O3 0.258362 0.412171 0.873325
O O4 0.050129 0.300576 0.979979
O O5 0.279489 0.055409 0.848305
O O6 0.573394 0.966979 0.635437
O O7 0.450685 0.500861 0.850170
O O8 0.450230 0.605938 0.931616
O O9 0.709594 0.680000 0.887688
O O10 0.500000 0.273851 0.750000
O O11 0.250000 0.250000 0.000000
#
# Coordination Sequence:
#
# PCOD9307193 Si02
#       6
#     8   4   4   8   8   8
#     4  12  24  44  71 101 133 180 228 278 331 403
#     4  12  24  43  68 105 140 176 222 272 336 412
#     4  12  22  41  74  97 138 180 222 266 330 416
#     4  12  24  46  70  98 140 177 224 283 333 396
#     4  12  26  43  69 105 140 174 220 278 349 398
#     4  12  25  44  70  97 128 180 233 276 328 397
#
# _framework density 20.243542000000001
#
# number of rings (size 3 to 8) (size 9 to 14) (size 15 to 20)
#    0.000    0.000    8.000    2.400    0.000    2.400 
#    0.000    0.000    0.000    0.000    0.000    0.000 
#    0.000    0.000    0.000    0.000    0.000    0.000 
#
# Total GULP energy -111848.420591 kJ/mol
# GULP energy per Si atom -5592.421030 kJ/mol
# Density = 2.019747 g / cm^3
# Si number density = 20.243542 Si / 1000 Ang^3
#
#
#
# Elastic Constant Matrix: (Units=GPa)
#
#
# Indices 1 2 3 4 5 6 
#
# 1 120.4315 61.3818 33.7947 0.0012 1.8590 0.0119
# 2 61.3818 110.8261 47.2614 -0.0105 6.9841 0.0096
# 3 33.7947 47.2614 83.5093 0.0434 18.9760 -0.0335
# 4 0.0012 -0.0105 0.0434 24.3539 -0.0255 17.7223
# 5 1.8590 6.9841 18.9760 -0.0255 42.2011 0.0077
# 6 0.0119 0.0096 -0.0335 17.7223 0.0077 17.2670
#
#
#
# Elastic Compliance Matrix: (Units=1/GPa)
#
#
# Indices 1 2 3 4 5 6 
#
# 1 0.011750 -0.005850 -0.001722 0.000030 0.001225 -0.000039
# 2 -0.005850 0.014860 -0.006173 0.000120 0.000574 -0.000139
# 3 -0.001722 -0.006173 0.017727 -0.000285 -0.006874 0.000334
# 4 0.000030 0.000120 -0.000285 0.162227 0.000235 -0.166505
# 5 0.001225 0.000574 -0.006874 0.000235 0.026638 -0.000268
# 6 -0.000039 -0.000139 0.000334 -0.166505 -0.000268 0.228809
#
#
# Mechanical properties :
#
#
# Convention : Reuss Voigt Hill
#
# Bulk Modulus (GPa) = 59.36184 66.62695 62.99439
# Shear Modulus (GPa) = 10.09861 28.25299 19.17580
#
# Velocity S-wave (km/s) = 2.23593 3.73990 3.08109
# Velocity P-wave (km/s) = 6.00444 7.18563 6.62143
#
# Compressibility (1/GPa) = 0.01684584
#
# Stress axis : x y z
#
# Youngs Moduli (GPa) = 85.10843 67.29662 56.40981
#
# Poissons Ratio (x) = 0.39371 0.09716
# Poissons Ratio (y) = 0.49792 0.34820
# Poissons Ratio (z) = 0.14659 0.41540
#
# Static dielectric constant tensor:
#      x y z
#    x 1.686880 0.000010 -0.004000 
#    y 0.000010 1.734100 0.000000 
#    z -0.004000 0.000000 1.711830 
# 
# From -- ./inp_files/29377.got.cif
#   From: 2010.05.17/outbox.cif.g08.bks.cpg/sg15_15_cif.got.tgz:29377.got - 2010.06.03 18:47:42.
