data_PCOD9307546
_publ_section_title
;
Structure prediction by ZEFSAII (Michael W. Deem and Ramdas Pophale) SiO2 
 PCOD9307546
Probable space group: C 2/C
;
_chemical_formula_sum "Si O2"
_cell_formula_units_Z 40
_cell_length_a 15.367073
_cell_length_b 11.351200
_cell_length_c 14.014394
_cell_angle_alpha 90.000000
_cell_angle_beta 138.981887
_cell_angle_gamma 90.000000
_cell_volume 1604.383025
_symmetry_space_group_name_H-M "C 2/C"
_symmetry_group_IT_number 15
_symmetry_cell_setting 'monoclinic'
loop_
_space_group_symop_operation_xyz
x,y,z
-x,y,1/2-z
-x,-y,-z
x,-y,1/2+z
1/2+x,1/2+y,z
1/2-x,1/2+y,1/2-z
1/2-x,1/2-y,-z
1/2+x,1/2-y,1/2+z
loop_
_atom_site_type_symbol
_atom_site_label
_atom_site_fract_x
_atom_site_fract_y
_atom_site_fract_z
Si Si1 0.925346 0.561201 0.101149
Si Si2 0.990838 0.834820 0.638533
Si Si3 0.236723 0.006753 0.788937
Si Si4 0.303145 0.452383 0.954845
Si Si5 0.454217 0.716810 0.895934
O O1 0.790577 0.601498 0.043424
O O2 0.000000 0.497037 0.250000
O O3 0.013753 0.668906 0.138250
O O4 0.865072 0.496252 0.960406
O O5 0.963396 0.764756 0.517939
O O6 0.000000 0.776125 0.750000
O O7 0.877774 0.914993 0.773019
O O8 0.868871 0.926736 0.545528
O O9 0.175876 0.140204 0.738357
O O10 0.265109 0.981263 0.702143
O O11 0.425577 0.370166 0.030345
#
# Coordination Sequence:
#
# PCOD9307546 Si02
#       5
#     8   8   8   8   8
#     4  12  24  32  56  85 122 154 180 235 298 340
#     4   9  15  35  65  81 104 150 203 238 270 330
#     4   9  20  37  55  82 117 148 200 234 271 346
#     4   9  19  36  56  80 114 158 191 232 280 339
#     4   9  21  32  54  90 113 145 195 247 279 320
#
# _framework density 24.931701
#
# number of rings (size 3 to 8) (size 9 to 14) (size 15 to 20)
#    0.000    2.400    2.000    3.000    5.600    0.800 
#    0.000    0.000    0.000    8.400    0.000    0.000 
#    0.000    0.000    0.000    0.000    0.000    0.000 
#
# Total GULP energy -111815.188636 kJ/mol
# GULP energy per Si atom -5590.759432 kJ/mol
# Density = 2.487496 g / cm^3
# Si number density = 24.931701 Si / 1000 Ang^3
#
#
#
# Elastic Constant Matrix: (Units=GPa)
#
#
# Indices 1 2 3 4 5 6 
#
# 1 110.1250 50.0460 21.1066 0.0000 -28.8563 0.0000
# 2 50.0460 92.7397 46.3372 0.0000 -4.5711 0.0000
# 3 21.1066 46.3372 174.7476 0.0000 -23.3489 0.0000
# 4 0.0000 0.0000 0.0000 8.7461 0.0000 -3.7683
# 5 -28.8563 -4.5711 -23.3489 0.0000 40.6789 0.0000
# 6 0.0000 0.0000 0.0000 -3.7683 0.0000 10.7050
#
#
#
# Elastic Compliance Matrix: (Units=1/GPa)
#
#
# Indices 1 2 3 4 5 6 
#
# 1 0.015701 -0.008902 0.001970 0.000000 0.011268 0.000000
# 2 -0.008902 0.017487 -0.004487 0.000000 -0.006925 0.000000
# 3 0.001970 -0.004487 0.007358 0.000000 0.005116 0.000000
# 4 0.000000 0.000000 0.000000 0.134778 0.000000 0.047444
# 5 0.011268 -0.006925 0.005116 0.000000 0.034734 0.000000
# 6 0.000000 0.000000 0.000000 0.047444 0.000000 0.110116
#
#
# Mechanical properties :
#
#
# Convention : Reuss Voigt Hill
#
# Bulk Modulus (GPa) = 56.47175 68.06576 62.26875
# Shear Modulus (GPa) = 14.33012 29.36749 21.84881
#
# Velocity S-wave (km/s) = 2.40005 3.43580 2.96353
# Velocity P-wave (km/s) = 5.51181 6.56505 6.06135
#
# Compressibility (1/GPa) = 0.01770797
#
# Stress axis : x y z
#
# Youngs Moduli (GPa) = 63.69046 57.18494 135.90461
#
# Poissons Ratio (x) = 0.50903 -0.26767
# Poissons Ratio (y) = 0.56694 0.60982
# Poissons Ratio (z) = -0.12544 0.25660
#
# Static dielectric constant tensor:
#      x y z
#    x 1.938480 0.000000 0.019060 
#    y 0.000000 1.967700 0.000000 
#    z 0.019060 0.000000 2.013520 
# 
# From -- ./inp_files/96651.got.cif
#   From: 2010.05.17/outbox.cif.g08.bks.cpg/sg15_49_cif.got.tgz:96651.got - 2010.06.03 18:47:42.
