data_PCOD9307960
_publ_section_title
;
Structure prediction by ZEFSAII (Michael W. Deem and Ramdas Pophale) SiO2 
 PCOD9307960
Probable space group: C 2/C
;
_chemical_formula_sum "Si O2"
_cell_formula_units_Z 40
_cell_length_a 14.648565
_cell_length_b 15.948300
_cell_length_c 14.075018
_cell_angle_alpha 90.000000
_cell_angle_beta 30.390966
_cell_angle_gamma 90.000000
_cell_volume 1663.493839
_symmetry_space_group_name_H-M "C 2/C"
_symmetry_group_IT_number 15
_symmetry_cell_setting 'monoclinic'
loop_
_space_group_symop_operation_xyz
x,y,z
-x,y,1/2-z
-x,-y,-z
x,-y,1/2+z
1/2+x,1/2+y,z
1/2-x,1/2+y,1/2-z
1/2-x,1/2-y,-z
1/2+x,1/2-y,1/2+z
loop_
_atom_site_type_symbol
_atom_site_label
_atom_site_fract_x
_atom_site_fract_y
_atom_site_fract_z
Si Si1 0.785629 0.985873 0.124769
Si Si2 0.245040 0.870741 0.684326
Si Si3 0.665432 0.182263 0.811164
Si Si4 0.500000 0.043391 0.250000
Si Si5 0.000000 0.949656 0.750000
Si Si6 0.297709 0.666487 0.903214
O O1 0.788815 0.888293 0.149963
O O2 0.800792 0.056546 0.194280
O O3 0.588088 0.994944 0.256903
O O4 0.921038 0.995508 0.914480
O O5 0.460683 0.853421 0.497257
O O6 0.163721 0.777783 0.776183
O O7 0.165437 0.899723 0.653103
O O8 0.758715 0.184634 0.829619
O O9 0.343954 0.098652 0.435246
O O10 0.500000 0.646606 0.750000
O O11 0.250000 0.750000 0.000000
#
# Coordination Sequence:
#
# PCOD9307960 Si02
#       6
#     8   8   8   4   4   8
#     4  12  28  52  78 118 165 208 276 340 403 487
#     4  12  27  52  81 116 162 211 275 332 416 484
#     4  12  27  52  79 115 166 209 265 350 398 489
#     4  12  26  47  77 118 158 210 266 325 407 482
#     4  12  30  49  83 116 156 226 274 335 407 486
#     4  12  25  46  77 118 159 210 266 327 405 480
#
# _framework density 24.045777000000001
#
# number of rings (size 3 to 8) (size 9 to 14) (size 15 to 20)
#    0.000    0.000    3.000    6.000    4.200    5.600 
#    0.000    0.000    0.000    0.000    0.000    0.000 
#    0.000    0.000    0.000    0.000    0.000    0.000 
#
# Total GULP energy -111854.083838 kJ/mol
# GULP energy per Si atom -5592.704192 kJ/mol
# Density = 2.399105 g / cm^3
# Si number density = 24.045777 Si / 1000 Ang^3
#
#
#
# Elastic Constant Matrix: (Units=GPa)
#
#
# Indices 1 2 3 4 5 6 
#
# 1 182.8298 51.1697 33.3688 -0.0037 -13.7356 -0.0001
# 2 51.1697 153.8169 41.8797 -0.0058 20.7664 0.0010
# 3 33.3688 41.8797 113.9322 -0.0088 -11.4176 0.0015
# 4 -0.0037 -0.0058 -0.0088 53.2543 0.0022 6.6900
# 5 -13.7356 20.7664 -11.4176 0.0022 47.6392 0.0018
# 6 -0.0001 0.0010 0.0015 6.6900 0.0018 49.3529
#
#
#
# Elastic Compliance Matrix: (Units=1/GPa)
#
#
# Indices 1 2 3 4 5 6 
#
# 1 0.006456 -0.002297 -0.000778 0.000000 0.002676 0.000000
# 2 -0.002297 0.008816 -0.003094 0.000000 -0.005247 0.000000
# 3 -0.000778 -0.003094 0.010507 0.000001 0.003642 -0.000001
# 4 0.000000 0.000000 0.000001 0.019103 -0.000001 -0.002589
# 5 0.002676 -0.005247 0.003642 -0.000001 0.024923 -0.000001
# 6 0.000000 0.000000 -0.000001 -0.002589 -0.000001 0.020613
#
#
# Mechanical properties :
#
#
# Convention : Reuss Voigt Hill
#
# Bulk Modulus (GPa) = 74.39848 78.15727 76.27787
# Shear Modulus (GPa) = 46.62613 51.65997 49.14305
#
# Velocity S-wave (km/s) = 4.40825 4.64011 4.52567
# Velocity P-wave (km/s) = 7.54438 7.82826 7.68763
#
# Compressibility (1/GPa) = 0.01344114
#
# Stress axis : x y z
#
# Youngs Moduli (GPa) = 154.90661 113.43003 95.17193
#
# Poissons Ratio (x) = 0.26054 0.07406
# Poissons Ratio (y) = 0.35581 0.29443
# Poissons Ratio (z) = 0.12055 0.35092
#
# Static dielectric constant tensor:
#      x y z
#    x 1.673220 -0.000010 -0.136910 
#    y -0.000010 1.949100 -0.000010 
#    z -0.136910 -0.000010 1.919990 
# 
# From -- ./inp_files/155390.got.cif
#   From: 2010.05.17/outbox.cif.g08.bks.cpg/sg15_78_cif.got.tgz:155390.got - 2010.06.03 18:47:42.
