data_PCOD9307179
_publ_section_title
;
Structure prediction by ZEFSAII (Michael W. Deem and Ramdas Pophale) SiO2 
 PCOD9307179
Probable space group: C 2/C
;
_chemical_formula_sum "Si O2"
_cell_formula_units_Z 40
_cell_length_a 16.432554
_cell_length_b 19.316384
_cell_length_c 10.596767
_cell_angle_alpha 90.000000
_cell_angle_beta 36.506185
_cell_angle_gamma 90.000000
_cell_volume 2001.037514
_symmetry_space_group_name_H-M "C 2/C"
_symmetry_group_IT_number 15
_symmetry_cell_setting 'monoclinic'
loop_
_space_group_symop_operation_xyz
x,y,z
-x,y,1/2-z
-x,-y,-z
x,-y,1/2+z
1/2+x,1/2+y,z
1/2-x,1/2+y,1/2-z
1/2-x,1/2-y,-z
1/2+x,1/2-y,1/2+z
loop_
_atom_site_type_symbol
_atom_site_label
_atom_site_fract_x
_atom_site_fract_y
_atom_site_fract_z
Si Si1 0.781974 0.603216 0.960754
Si Si2 0.858142 0.714655 0.059901
Si Si3 0.000000 0.494611 0.750000
Si Si4 0.551375 0.118452 0.991405
Si Si5 0.643032 0.245852 0.021220
Si Si6 0.500000 0.658954 0.250000
O O1 0.864850 0.542628 0.928826
O O2 0.835737 0.597612 0.751309
O O3 0.837068 0.673864 0.955897
O O4 0.619163 0.611961 0.161902
O O5 0.712241 0.722758 0.310470
O O6 0.947205 0.667594 0.043852
O O7 0.926949 0.788247 0.940625
O O8 0.988159 0.446767 0.641365
O O9 0.617023 0.166550 0.016363
O O10 0.500000 0.275752 0.250000
O O11 0.750000 0.250000 0.000000
#
# Coordination Sequence:
#
# PCOD9307179 Si02
#       6
#     8   8   4   8   8   4
#     4  12  25  40  69 102 128 181 219 278 327 396
#     4  12  22  41  71 105 130 166 222 282 347 387
#     4  12  25  44  68  92 133 186 238 252 314 412
#     4  12  22  43  69  94 135 177 227 274 315 404
#     4  12  24  39  64 100 135 173 211 274 348 394
#     4  12  23  40  68 104 137 156 214 294 342 380
#
# _framework density 19.989629999999998
#
# number of rings (size 3 to 8) (size 9 to 14) (size 15 to 20)
#    0.000    0.000    9.000    2.400    0.000    0.000 
#    0.000    1.000    8.800    0.000    0.000    0.000 
#    0.000    0.000    0.000    0.000    0.000    0.000 
#
# Total GULP energy -111711.692656 kJ/mol
# GULP energy per Si atom -5585.584633 kJ/mol
# Density = 1.994413 g / cm^3
# Si number density = 19.989630 Si / 1000 Ang^3
#
#
#
# Elastic Constant Matrix: (Units=GPa)
#
#
# Indices 1 2 3 4 5 6 
#
# 1 86.8412 31.1734 28.4536 0.0000 -18.3108 0.0000
# 2 31.1734 72.6421 28.7263 0.0001 -8.4922 0.0000
# 3 28.4536 28.7263 131.4756 0.0001 -2.1645 0.0000
# 4 0.0000 0.0001 0.0001 23.9649 0.0000 5.6040
# 5 -18.3108 -8.4922 -2.1645 0.0000 47.2362 0.0000
# 6 0.0000 0.0000 0.0000 5.6040 0.0000 27.5227
#
#
#
# Elastic Compliance Matrix: (Units=1/GPa)
#
#
# Indices 1 2 3 4 5 6 
#
# 1 0.015028 -0.005069 -0.002065 0.000000 0.004820 0.000000
# 2 -0.005069 0.017094 -0.002622 0.000000 0.000988 0.000000
# 3 -0.002065 -0.002622 0.008611 0.000000 -0.000877 0.000000
# 4 0.000000 0.000000 0.000000 0.043814 0.000000 -0.008921
# 5 0.004820 0.000988 -0.000877 0.000000 0.023176 0.000000
# 6 0.000000 0.000000 0.000000 -0.008921 0.000000 0.038150
#
#
# Mechanical properties :
#
#
# Convention : Reuss Voigt Hill
#
# Bulk Modulus (GPa) = 47.12294 51.96282 49.54288
# Shear Modulus (GPa) = 28.99263 33.25179 31.12221
#
# Velocity S-wave (km/s) = 3.81252 4.08297 3.95006
# Velocity P-wave (km/s) = 6.55784 6.94830 6.75589
#
# Compressibility (1/GPa) = 0.02122109
#
# Stress axis : x y z
#
# Youngs Moduli (GPa) = 66.54353 58.50173 116.12629
#
# Poissons Ratio (x) = 0.29653 0.23985
# Poissons Ratio (y) = 0.33729 0.30443
# Poissons Ratio (z) = 0.13744 0.15337
#
# Static dielectric constant tensor:
#      x y z
#    x 1.711490 0.000000 0.013510 
#    y 0.000000 1.707260 0.000000 
#    z 0.013510 0.000000 1.763420 
# 
# From -- ./inp_files/106858.got.cif
#   From: 2010.05.17/outbox.cif.g08.bks.cpg/sg15_54_cif.got.tgz:106858.got - 2010.06.03 18:47:42.
