data_PCOD9307553
_publ_section_title
;
Structure prediction by ZEFSAII (Michael W. Deem and Ramdas Pophale) SiO2 
 PCOD9307553
Probable space group: C 2/C
;
_chemical_formula_sum "Si O2"
_cell_formula_units_Z 48
_cell_length_a 17.592808
_cell_length_b 9.145967
_cell_length_c 15.193799
_cell_angle_alpha 90.000000
_cell_angle_beta 91.693903
_cell_angle_gamma 90.000000
_cell_volume 2443.663188
_symmetry_space_group_name_H-M "C 2/C"
_symmetry_group_IT_number 15
_symmetry_cell_setting 'monoclinic'
loop_
_space_group_symop_operation_xyz
x,y,z
-x,y,1/2-z
-x,-y,-z
x,-y,1/2+z
1/2+x,1/2+y,z
1/2-x,1/2+y,1/2-z
1/2-x,1/2-y,-z
1/2+x,1/2-y,1/2+z
loop_
_atom_site_type_symbol
_atom_site_label
_atom_site_fract_x
_atom_site_fract_y
_atom_site_fract_z
Si Si1 0.414458 0.906298 0.641800
Si Si2 0.920142 0.376355 0.853181
Si Si3 0.601194 0.218020 0.667165
Si Si4 0.674719 0.333451 0.026812
Si Si5 0.564819 0.246217 0.873365
Si Si6 0.242172 0.145659 0.082473
O O1 0.418399 0.877678 0.746942
O O2 0.494064 0.837790 0.611737
O O3 0.328870 0.866999 0.616128
O O4 0.424185 0.073262 0.608834
O O5 0.900984 0.548708 0.866178
O O6 0.864303 0.263269 0.897832
O O7 0.588340 0.245412 0.770965
O O8 0.524361 0.285573 0.622414
O O9 0.682572 0.281422 0.646628
O O10 0.703435 0.491394 0.057796
O O11 0.750000 0.250000 0.000000
O O12 0.617195 0.335362 0.941757
O O13 0.250000 0.250000 0.000000
#
# Coordination Sequence:
#
# PCOD9307553 Si02
#       6
#     8   8   8   8   8   8
#     4   9  20  42  64  91 123 160 206 244 313 376
#     4   9  21  41  69  88 117 168 205 250 302 373
#     4   9  21  42  66  91 122 165 198 250 318 361
#     4  12  24  39  63  95 121 159 214 253 300 364
#     4   9  20  42  67  88 124 164 204 244 306 386
#     4  12  26  40  59  92 127 160 206 263 313 352
#
# _framework density 19.642641999999999
#
# number of rings (size 3 to 8) (size 9 to 14) (size 15 to 20)
#    0.000    2.000    1.667    3.000    4.667    2.000 
#    3.000    1.667    0.000    0.000    0.000    0.000 
#    0.000    0.000    0.000    0.000    0.000    0.000 
#
# Total GULP energy -133683.180233 kJ/mol
# GULP energy per Si atom -5570.132510 kJ/mol
# Density = 1.959793 g / cm^3
# Si number density = 19.642642 Si / 1000 Ang^3
#
#
#
# Elastic Constant Matrix: (Units=GPa)
#
#
# Indices 1 2 3 4 5 6 
#
# 1 157.5376 56.6410 27.9144 0.0000 12.5870 0.0000
# 2 56.6410 72.4087 28.2408 0.0000 -3.1129 0.0000
# 3 27.9144 28.2408 32.0513 0.0000 12.4776 0.0000
# 4 0.0000 0.0000 0.0000 19.8193 0.0000 -15.2117
# 5 12.5870 -3.1129 12.4776 0.0000 42.4572 0.0000
# 6 0.0000 0.0000 0.0000 -15.2117 0.0000 39.2098
#
#
#
# Elastic Compliance Matrix: (Units=1/GPa)
#
#
# Indices 1 2 3 4 5 6 
#
# 1 0.009273 -0.007178 -0.000538 0.000000 -0.003117 0.000000
# 2 -0.007178 0.029234 -0.023905 0.000000 0.011297 0.000000
# 3 -0.000538 -0.023905 0.060245 0.000000 -0.019298 0.000000
# 4 0.000000 0.000000 0.000000 0.071851 0.000000 0.027875
# 5 -0.003117 0.011297 -0.019298 0.000000 0.030977 0.000000
# 6 0.000000 0.000000 0.000000 0.027875 0.000000 0.036318
#
#
# Mechanical properties :
#
#
# Convention : Reuss Voigt Hill
#
# Bulk Modulus (GPa) = 28.16138 54.17667 41.16903
# Shear Modulus (GPa) = 15.97565 30.24401 23.10983
#
# Velocity S-wave (km/s) = 2.85496 3.92817 3.43376
# Velocity P-wave (km/s) = 5.02352 6.94371 6.06015
#
# Compressibility (1/GPa) = 0.03550962
#
# Stress axis : x y z
#
# Youngs Moduli (GPa) = 107.84290 34.20631 16.59900
#
# Poissons Ratio (x) = 0.24552 0.00893
# Poissons Ratio (y) = 0.77406 0.39680
# Poissons Ratio (z) = 0.05802 0.81771
#
# Static dielectric constant tensor:
#      x y z
#    x 1.664910 0.000000 -0.014550 
#    y 0.000000 1.688800 0.000000 
#    z -0.014550 0.000000 1.660110 
# 
# From -- ./inp_files/159706.got.cif
#   From: 2010.05.17/outbox.cif.g08.bks.cpg/sg15_80_cif.got.tgz:159706.got - 2010.06.03 18:47:42.
