data_PCOD9307938
_publ_section_title
;
Structure prediction by ZEFSAII (Michael W. Deem and Ramdas Pophale) SiO2 
 PCOD9307938
Probable space group: C 2/C
;
_chemical_formula_sum "Si O2"
_cell_formula_units_Z 36
_cell_length_a 20.561163
_cell_length_b 7.875322
_cell_length_c 13.082209
_cell_angle_alpha 90.000000
_cell_angle_beta 43.589067
_cell_angle_gamma 90.000000
_cell_volume 1460.560665
_symmetry_space_group_name_H-M "C 2/C"
_symmetry_group_IT_number 15
_symmetry_cell_setting 'monoclinic'
loop_
_space_group_symop_operation_xyz
x,y,z
-x,y,1/2-z
-x,-y,-z
x,-y,1/2+z
1/2+x,1/2+y,z
1/2-x,1/2+y,1/2-z
1/2-x,1/2-y,-z
1/2+x,1/2-y,1/2+z
loop_
_atom_site_type_symbol
_atom_site_label
_atom_site_fract_x
_atom_site_fract_y
_atom_site_fract_z
Si Si1 0.184530 0.086617 0.547963
Si Si2 0.043493 0.317996 0.475305
Si Si3 0.221679 0.141849 0.170826
Si Si4 0.633245 0.622012 0.907099
Si Si5 0.500000 0.740240 0.750000
O O1 0.250000 0.250000 0.500000
O O2 0.081777 0.130837 0.707420
O O3 0.226409 0.915899 0.548243
O O4 0.153229 0.024084 0.469693
O O5 0.140261 0.270896 0.304752
O O6 0.000000 0.500000 0.500000
O O7 0.969870 0.177671 0.513180
O O8 0.046952 0.325893 0.596518
O O9 0.318518 0.209489 0.104698
O O10 0.194527 0.957946 0.247480
#
# Coordination Sequence:
#
# PCOD9307938 Si02
#       5
#     8   8   8   8   4
#     4  12  27  46  75 107 149 196 240 305 369 438
#     4  12  28  47  77 106 144 197 247 308 368 439
#     4  12  25  46  72 108 147 190 242 298 371 441
#     4  12  25  46  72 108 147 190 242 298 371 441
#     4  12  26  48  72 102 150 180 248 296 372 422
#
# _framework density 24.648067000000001
#
# number of rings (size 3 to 8) (size 9 to 14) (size 15 to 20)
#    0.000    0.000    4.444    5.333    6.222    1.778 
#    0.000    0.000    0.000    0.000    0.000    0.000 
#    0.000    0.000    0.000    0.000    0.000    0.000 
#
# Total GULP energy -100341.976435 kJ/mol
# GULP energy per Si atom -5574.554246 kJ/mol
# Density = 2.459197 g / cm^3
# Si number density = 24.648067 Si / 1000 Ang^3
#
#
#
# Elastic Constant Matrix: (Units=GPa)
#
#
# Indices 1 2 3 4 5 6 
#
# 1 98.4211 33.2107 25.7100 -0.0001 5.0853 -0.0001
# 2 33.2107 135.9881 18.1851 0.0000 2.2773 0.0004
# 3 25.7100 18.1851 57.9986 0.0000 -4.7416 0.0002
# 4 -0.0001 0.0000 0.0000 -4.3749 0.0000 -4.0322
# 5 5.0853 2.2773 -4.7416 0.0000 46.3936 -0.0001
# 6 -0.0001 0.0004 0.0002 -4.0322 -0.0001 65.4628
#
#
#
# Elastic Compliance Matrix: (Units=1/GPa)
#
#
# Indices 1 2 3 4 5 6 
#
# 1 0.012306 -0.002325 -0.004868 0.000000 -0.001732 0.000000
# 2 -0.002325 0.008133 -0.001544 0.000000 -0.000302 0.000000
# 3 -0.004868 -0.001544 0.020101 0.000000 0.002664 0.000000
# 4 0.000000 0.000000 0.000000 -0.216298 0.000000 -0.013323
# 5 -0.001732 -0.000302 0.002664 0.000000 0.022032 0.000000
# 6 0.000000 0.000000 0.000000 -0.013323 0.000000 0.014455
#
#
# Mechanical properties :
#
#
# Convention : Reuss Voigt Hill
#
# Bulk Modulus (GPa) = 43.35278 49.62438 46.48858
# Shear Modulus (GPa) = -43.81814 35.84978 -3.98418
#
# Velocity S-wave (km/s) = -4.22091 3.81788 -1.27277
# Velocity P-wave (km/s) = 2.47546 6.29380 4.09170
#
# Compressibility (1/GPa) = 0.02306657
#
# Stress axis : x y z
#
# Youngs Moduli (GPa) = 81.26009 122.95554 49.74773
#
# Poissons Ratio (x) = 0.28593 0.24215
# Poissons Ratio (y) = 0.18897 0.07681
# Poissons Ratio (z) = 0.39555 0.18983
#
# Static dielectric constant tensor:
#      x y z
#    x 1.891470 0.000000 0.038260 
#    y 0.000000 1.982920 0.000000 
#    z 0.038260 0.000000 1.965180 
# 
# From -- ./inp_files/166629.got.cif
#   From: 2010.05.17/outbox.cif.g08.bks.cpg/sg15_84_cif.got.tgz:166629.got - 2010.06.03 18:47:42.
