data_PCOD9307217
_publ_section_title
;
Structure prediction by ZEFSAII (Michael W. Deem and Ramdas Pophale) SiO2 
 PCOD9307217
Probable space group: C 2/C
;
_chemical_formula_sum "Si O2"
_cell_formula_units_Z 48
_cell_length_a 28.971429
_cell_length_b 14.707616
_cell_length_c 14.554336
_cell_angle_alpha 90.000000
_cell_angle_beta 159.982439
_cell_angle_gamma 90.000000
_cell_volume 2122.862295
_symmetry_space_group_name_H-M "C 2/C"
_symmetry_group_IT_number 15
_symmetry_cell_setting 'monoclinic'
loop_
_space_group_symop_operation_xyz
x,y,z
-x,y,1/2-z
-x,-y,-z
x,-y,1/2+z
1/2+x,1/2+y,z
1/2-x,1/2+y,1/2-z
1/2-x,1/2-y,-z
1/2+x,1/2-y,1/2+z
loop_
_atom_site_type_symbol
_atom_site_label
_atom_site_fract_x
_atom_site_fract_y
_atom_site_fract_z
Si Si1 0.284729 0.900406 0.351886
Si Si2 0.395146 0.281505 0.802212
Si Si3 0.145046 0.336841 0.815791
Si Si4 0.998521 0.951742 0.897861
Si Si5 0.354768 0.293812 0.929212
Si Si6 0.740946 0.954495 0.831238
O O1 0.353258 0.872816 0.576756
O O2 0.283126 0.804212 0.295932
O O3 0.340574 0.974100 0.383923
O O4 0.142292 0.942725 0.118161
O O5 0.250000 0.250000 0.500000
O O6 0.454555 0.349302 0.838797
O O7 0.379785 0.328059 0.873183
O O8 0.500327 0.201329 0.017055
O O9 0.182366 0.418663 0.817580
O O10 0.250000 0.250000 0.000000
O O11 0.884452 0.000116 0.624661
O O12 0.000000 0.000000 0.000000
O O13 0.266649 0.364460 0.820472
O O14 0.500000 0.285719 0.250000
#
# Coordination Sequence:
#
# PCOD9307217 Si02
#       6
#     8   8   8   8   8   8
#     4  12  24  42  72 110 143 194 255 304 367 443
#     4  12  26  45  73 108 145 190 244 307 369 434
#     4  12  22  49  77 103 147 205 245 302 380 446
#     4  12  22  42  73 106 140 187 251 305 363 438
#     4  12  23  44  71 103 146 197 245 299 373 450
#     4  12  25  42  74 112 143 187 255 315 365 448
#
# _framework density 22.610980999999999
#
# number of rings (size 3 to 8) (size 9 to 14) (size 15 to 20)
#    0.000    0.000    6.667    4.500    0.000    0.000 
#    0.000    7.500    0.000    0.000    0.000    0.000 
#    0.000    0.000    0.000    0.000    0.000    0.000 
#
# Total GULP energy -134368.189932 kJ/mol
# GULP energy per Si atom -5598.674581 kJ/mol
# Density = 2.255952 g / cm^3
# Si number density = 22.610981 Si / 1000 Ang^3
#
#
#
# Elastic Constant Matrix: (Units=GPa)
#
#
# Indices 1 2 3 4 5 6 
#
# 1 81.4260 37.1101 11.8221 0.0000 -16.4922 0.0000
# 2 37.1101 118.9938 22.3428 0.0000 -14.0054 0.0000
# 3 11.8221 22.3428 114.1167 0.0000 -10.3031 0.0000
# 4 0.0000 0.0000 0.0000 27.0780 0.0000 5.7919
# 5 -16.4922 -14.0054 -10.3031 0.0000 25.0694 0.0000
# 6 0.0000 0.0000 0.0000 5.7919 0.0000 48.9498
#
#
#
# Elastic Compliance Matrix: (Units=1/GPa)
#
#
# Indices 1 2 3 4 5 6 
#
# 1 0.015731 -0.003928 -0.000129 0.000000 0.008101 0.000000
# 2 -0.003928 0.010183 -0.001357 0.000000 0.002547 0.000000
# 3 -0.000129 -0.001357 0.009311 0.000000 0.002984 0.000000
# 4 0.000000 0.000000 0.000000 0.037889 0.000000 -0.004483
# 5 0.008101 0.002547 0.002984 0.000000 0.047868 0.000000
# 6 0.000000 0.000000 0.000000 -0.004483 0.000000 0.020960
#
#
# Mechanical properties :
#
#
# Convention : Reuss Voigt Hill
#
# Bulk Modulus (GPa) = 40.98806 50.78739 45.88772
# Shear Modulus (GPa) = 31.07447 36.43686 33.75566
#
# Velocity S-wave (km/s) = 3.71119 4.01866 3.86798
# Velocity P-wave (km/s) = 6.04407 6.63649 6.34720
#
# Compressibility (1/GPa) = 0.02439735
#
# Stress axis : x y z
#
# Youngs Moduli (GPa) = 63.56889 98.19845 107.39523
#
# Poissons Ratio (x) = 0.38574 0.01387
# Poissons Ratio (y) = 0.24971 0.14572
# Poissons Ratio (z) = 0.00821 0.13324
#
# Static dielectric constant tensor:
#      x y z
#    x 1.856550 0.000000 -0.004130 
#    y 0.000000 1.843300 0.000000 
#    z -0.004130 0.000000 1.814620 
# 
# From -- ./inp_files/182530.got.cif
#   From: 2010.05.17/outbox.cif.g08.bks.cpg/sg15_92_cif.got.tgz:182530.got - 2010.06.03 18:47:42.
