data_PCOD9307433
_publ_section_title
;
Structure prediction by ZEFSAII (Michael W. Deem and Ramdas Pophale) SiO2 
 PCOD9307433
Probable space group: C 2/C
;
_chemical_formula_sum "Si O2"
_cell_formula_units_Z 60
_cell_length_a 11.466315
_cell_length_b 27.014013
_cell_length_c 9.367285
_cell_angle_alpha 90.000000
_cell_angle_beta 92.556408
_cell_angle_gamma 90.000000
_cell_volume 2898.639987
_symmetry_space_group_name_H-M "C 2/C"
_symmetry_group_IT_number 15
_symmetry_cell_setting 'monoclinic'
loop_
_space_group_symop_operation_xyz
x,y,z
-x,y,1/2-z
-x,-y,-z
x,-y,1/2+z
1/2+x,1/2+y,z
1/2-x,1/2+y,1/2-z
1/2-x,1/2-y,-z
1/2+x,1/2-y,1/2+z
loop_
_atom_site_type_symbol
_atom_site_label
_atom_site_fract_x
_atom_site_fract_y
_atom_site_fract_z
Si Si1 0.064107 0.189036 0.902999
Si Si2 0.595438 0.632499 0.376680
Si Si3 0.559567 0.198738 0.478282
Si Si4 0.000000 0.374512 0.750000
Si Si5 0.362488 0.964664 0.218090
Si Si6 0.196351 0.442862 0.609238
Si Si7 0.714970 0.805569 0.520489
Si Si8 0.793643 0.354889 0.288687
O O1 0.094413 0.243788 0.964805
O O2 0.179724 0.158213 0.874330
O O3 0.000000 0.199007 0.750000
O O4 0.978406 0.156506 0.997041
O O5 0.500000 0.625329 0.250000
O O6 0.678887 0.584837 0.398804
O O7 0.696795 0.673260 0.357060
O O8 0.585116 0.159539 0.353429
O O9 0.420505 0.196501 0.457097
O O10 0.604633 0.176176 0.628575
O O11 0.910087 0.408000 0.838451
O O12 0.500000 0.971587 0.250000
O O13 0.324545 0.912515 0.285320
O O14 0.297035 0.010753 0.284793
O O15 0.339161 0.961053 0.049117
O O16 0.750000 0.750000 0.500000
O O17 0.726862 0.836806 0.374675
#
# Coordination Sequence:
#
# PCOD9307433 Si02
#       8
#     8   8   8   4   8   8   8   8
#     4  12  24  47  66 103 152 200 238 284 351 437
#     4  12  28  48  71 101 146 196 246 296 364 430
#     4  12  25  39  70 108 146 191 234 299 359 430
#     4  12  24  42  70 106 150 176 242 292 364 424
#     4  12  25  48  78 112 142 183 239 310 385 420
#     4  12  27  48  74 109 141 186 239 309 370 437
#     4  12  23  44  70  99 148 190 245 292 362 428
#     4  12  26  43  72 107 146 190 241 296 366 436
#
# _framework density 20.699363999999999
#
# number of rings (size 3 to 8) (size 9 to 14) (size 15 to 20)
#    0.000    0.000    6.667    2.800    5.600    0.000 
#    0.000    3.333    0.000    0.000    0.000    0.000 
#    0.000    0.000    0.000    0.000    0.000    0.000 
#
# Total GULP energy -167635.396630 kJ/mol
# GULP energy per Si atom -5587.846554 kJ/mol
# Density = 2.065225 g / cm^3
# Si number density = 20.699364 Si / 1000 Ang^3
#
#
#
# Elastic Constant Matrix: (Units=GPa)
#
#
# Indices 1 2 3 4 5 6 
#
# 1 69.8481 16.4580 28.6272 0.0000 4.3549 0.0000
# 2 16.4580 137.0177 47.8564 0.0000 -12.2760 0.0000
# 3 28.6272 47.8564 103.2978 0.0000 6.0298 0.0000
# 4 0.0000 0.0000 0.0000 149.5631 0.0000 -5.0885
# 5 4.3549 -12.2760 6.0298 0.0000 41.9505 0.0000
# 6 0.0000 0.0000 0.0000 -5.0885 0.0000 23.0871
#
#
#
# Elastic Compliance Matrix: (Units=1/GPa)
#
#
# Indices 1 2 3 4 5 6 
#
# 1 0.016238 -0.000619 -0.004139 0.000000 -0.001272 0.000000
# 2 -0.000619 0.009165 -0.004271 0.000000 0.003360 0.000000
# 3 -0.004139 -0.004271 0.012963 0.000000 -0.002683 0.000000
# 4 0.000000 0.000000 0.000000 0.006737 0.000000 0.001485
# 5 -0.001272 0.003360 -0.002683 0.000000 0.025339 0.000000
# 6 0.000000 0.000000 0.000000 0.001485 0.000000 0.043641
#
#
# Mechanical properties :
#
#
# Convention : Reuss Voigt Hill
#
# Bulk Modulus (GPa) = 49.23889 55.11630 52.17760
# Shear Modulus (GPa) = 35.99425 57.40162 46.69793
#
# Velocity S-wave (km/s) = 4.17454 5.27175 4.75490
# Velocity P-wave (km/s) = 6.86112 7.98373 7.44362
#
# Compressibility (1/GPa) = 0.02030915
#
# Stress axis : x y z
#
# Youngs Moduli (GPa) = 61.58267 109.10612 77.14167
#
# Poissons Ratio (x) = 0.06750 0.31931
# Poissons Ratio (y) = 0.03810 0.32946
# Poissons Ratio (z) = 0.25491 0.46598
#
# Static dielectric constant tensor:
#      x y z
#    x 1.745480 0.000000 -0.023310 
#    y 0.000000 1.736240 0.000000 
#    z -0.023310 0.000000 1.767740 
# 
# From -- ./inp_files/34277.got.cif
#   From: 2010.05.17/outbox.cif.g08.bks.cpg/sg15_18_cif.got.tgz:34277.got - 2010.06.03 18:47:42.
