data_PCOD9307527
_publ_section_title
;
Structure prediction by ZEFSAII (Michael W. Deem and Ramdas Pophale) SiO2 
 PCOD9307527
Probable space group: C 2/C
;
_chemical_formula_sum "Si O2"
_cell_formula_units_Z 40
_cell_length_a 19.305093
_cell_length_b 17.862560
_cell_length_c 12.392630
_cell_angle_alpha 90.000000
_cell_angle_beta 25.722214
_cell_angle_gamma 90.000000
_cell_volume 1854.715167
_symmetry_space_group_name_H-M "C 2/C"
_symmetry_group_IT_number 15
_symmetry_cell_setting 'monoclinic'
loop_
_space_group_symop_operation_xyz
x,y,z
-x,y,1/2-z
-x,-y,-z
x,-y,1/2+z
1/2+x,1/2+y,z
1/2-x,1/2+y,1/2-z
1/2-x,1/2-y,-z
1/2+x,1/2-y,1/2+z
loop_
_atom_site_type_symbol
_atom_site_label
_atom_site_fract_x
_atom_site_fract_y
_atom_site_fract_z
Si Si1 0.161492 0.327104 0.591953
Si Si2 0.044274 0.477759 0.063178
Si Si3 0.502524 0.173475 0.962621
Si Si4 0.634748 0.302185 0.476029
Si Si5 0.859541 0.056074 0.667071
O O1 0.250000 0.250000 0.500000
O O2 0.084636 0.358796 0.809212
O O3 0.278258 0.387892 0.371021
O O4 0.000000 0.310795 0.750000
O O5 0.000000 0.504971 0.250000
O O6 0.996340 0.390849 0.127955
O O7 0.227024 0.500602 0.808088
O O8 0.000000 0.500000 0.000000
O O9 0.394321 0.242434 0.076920
O O10 0.683239 0.197784 0.737819
O O11 0.594759 0.384536 0.488696
O O12 0.500000 0.281184 0.750000
O O13 0.000000 0.000000 0.500000
#
# Coordination Sequence:
#
# PCOD9307527 Si02
#       5
#     8   8   8   8   8
#     4  12  23  48  78 110 149 201 269 331 389 478
#     4  12  26  49  76 107 151 204 255 319 400 466
#     4  12  25  47  76 105 146 205 260 325 397 480
#     4  12  27  46  71 109 151 197 264 323 402 484
#     4  12  28  45  74 113 157 201 260 332 398 476
#
# _framework density 21.566655000000001
#
# number of rings (size 3 to 8) (size 9 to 14) (size 15 to 20)
#    0.000    0.000    6.000    3.000    5.600    3.200 
#    0.000    0.000    0.000    0.000    0.000    0.000 
#    0.000    0.000    0.000    0.000    0.000    0.000 
#
# Total GULP energy -111401.616085 kJ/mol
# GULP energy per Si atom -5570.080804 kJ/mol
# Density = 2.151757 g / cm^3
# Si number density = 21.566655 Si / 1000 Ang^3
#
#
#
# Elastic Constant Matrix: (Units=GPa)
#
#
# Indices 1 2 3 4 5 6 
#
# 1 156.2308 73.9059 73.9912 0.0012 -19.7654 -0.0004
# 2 73.9059 115.9068 45.0215 0.0008 -45.7462 -0.0002
# 3 73.9912 45.0215 100.7609 0.0023 1.6035 -0.0007
# 4 0.0012 0.0008 0.0023 26.5585 -0.0010 -2.2968
# 5 -19.7654 -45.7462 1.6035 -0.0010 45.6309 0.0004
# 6 -0.0004 -0.0002 -0.0007 -2.2968 0.0004 48.4027
#
#
#
# Elastic Compliance Matrix: (Units=1/GPa)
#
#
# Indices 1 2 3 4 5 6 
#
# 1 0.011845 -0.004769 -0.006576 0.000000 0.000581 0.000000
# 2 -0.004769 0.022558 -0.006908 0.000001 0.020792 0.000000
# 3 -0.006576 -0.006908 0.018006 -0.000001 -0.010407 0.000000
# 4 0.000000 0.000001 -0.000001 0.037808 0.000002 0.001794
# 5 0.000581 0.020792 -0.010407 0.000002 0.043377 0.000000
# 6 0.000000 0.000000 0.000000 0.001794 0.000000 0.020745
#
#
# Mechanical properties :
#
#
# Convention : Reuss Voigt Hill
#
# Bulk Modulus (GPa) = 62.88584 84.30397 73.59491
# Shear Modulus (GPa) = 25.49117 36.11707 30.80412
#
# Velocity S-wave (km/s) = 3.44171 4.09672 3.78341
# Velocity P-wave (km/s) = 6.70939 7.84552 7.29960
#
# Compressibility (1/GPa) = 0.01590183
#
# Stress axis : x y z
#
# Youngs Moduli (GPa) = 84.42508 44.33003 55.53738
#
# Poissons Ratio (x) = 0.21141 0.36523
# Poissons Ratio (y) = 0.40263 0.38366
# Poissons Ratio (z) = 0.55521 0.30624
#
# Static dielectric constant tensor:
#      x y z
#    x 1.827310 0.000000 0.078390 
#    y 0.000000 1.808760 0.000000 
#    z 0.078390 0.000000 1.718350 
# 
# From -- ./inp_files/106834.got.cif
#   From: 2010.05.17/outbox.cif.g08.bks.cpg/sg15_54_cif.got.tgz:106834.got - 2010.06.03 18:47:42.
