data_PCOD9307759
_publ_section_title
;
Structure prediction by ZEFSAII (Michael W. Deem and Ramdas Pophale) SiO2 
 PCOD9307759
Probable space group: C 2/C
;
_chemical_formula_sum "Si O2"
_cell_formula_units_Z 56
_cell_length_a 9.038517
_cell_length_b 17.327989
_cell_length_c 16.677212
_cell_angle_alpha 90.000000
_cell_angle_beta 71.872700
_cell_angle_gamma 90.000000
_cell_volume 2482.335119
_symmetry_space_group_name_H-M "C 2/C"
_symmetry_group_IT_number 15
_symmetry_cell_setting 'monoclinic'
loop_
_space_group_symop_operation_xyz
x,y,z
-x,y,1/2-z
-x,-y,-z
x,-y,1/2+z
1/2+x,1/2+y,z
1/2-x,1/2+y,1/2-z
1/2-x,1/2-y,-z
1/2+x,1/2-y,1/2+z
loop_
_atom_site_type_symbol
_atom_site_label
_atom_site_fract_x
_atom_site_fract_y
_atom_site_fract_z
Si Si1 0.473477 0.338349 0.626723
Si Si2 0.158330 0.571355 0.183213
Si Si3 0.440398 0.083575 0.484783
Si Si4 0.736400 0.157992 0.507100
Si Si5 0.231986 0.605499 0.692752
Si Si6 0.760335 0.287868 0.086369
Si Si7 0.500000 0.667915 0.750000
Si Si8 0.000000 0.269343 0.250000
O O1 0.323709 0.388706 0.675779
O O2 0.600331 0.378745 0.550239
O O3 0.396184 0.264333 0.598766
O O4 0.571418 0.293653 0.678084
O O5 0.128400 0.579729 0.092945
O O6 0.175204 0.481997 0.206262
O O7 0.000000 0.602697 0.250000
O O8 0.594696 0.134359 0.473549
O O9 0.311789 0.123698 0.563291
O O10 0.500000 0.000000 0.500000
O O11 0.750000 0.250000 0.500000
O O12 0.716825 0.130627 0.602148
O O13 0.397871 0.616375 0.706398
O O14 0.128889 0.669784 0.756198
O O15 0.611954 0.284368 0.170299
O O16 0.750000 0.250000 0.000000
#
# Coordination Sequence:
#
# PCOD9307759 Si02
#       8
#     8   8   8   8   8   8   4   4
#     4  12  27  45  73 111 150 189 255 317 375 457
#     4  12  30  48  73 110 156 203 257 321 391 465
#     4  12  27  48  78 107 151 204 255 312 397 467
#     4  12  25  46  79 111 145 198 254 315 382 466
#     4  12  26  50  74 107 150 204 255 310 395 466
#     4  12  25  48  75 114 152 198 256 322 390 462
#     4  12  30  43  83 110 156 200 266 326 386 465
#     4  12  24  47  75 102 148 196 246 304 386 459
#
# _framework density 22.559404000000001
#
# number of rings (size 3 to 8) (size 9 to 14) (size 15 to 20)
#    0.000    0.000    7.857    0.857    5.000    2.286 
#    0.000    0.000    0.000    0.000    0.000    0.000 
#    0.000    0.000    0.000    0.000    0.000    0.000 
#
# Total GULP energy -156269.773151 kJ/mol
# GULP energy per Si atom -5581.063327 kJ/mol
# Density = 2.250806 g / cm^3
# Si number density = 22.559404 Si / 1000 Ang^3
#
#
#
# Elastic Constant Matrix: (Units=GPa)
#
#
# Indices 1 2 3 4 5 6 
#
# 1 100.9203 22.9815 12.8366 0.0000 -14.0707 0.0000
# 2 22.9815 104.9334 11.5668 0.0000 -4.7239 0.0000
# 3 12.8366 11.5668 82.7310 0.0000 -24.8809 0.0000
# 4 0.0000 0.0000 0.0000 22.7034 0.0000 -0.4122
# 5 -14.0707 -4.7239 -24.8809 0.0000 43.6448 0.0000
# 6 0.0000 0.0000 0.0000 -0.4122 0.0000 43.3916
#
#
#
# Elastic Compliance Matrix: (Units=1/GPa)
#
#
# Indices 1 2 3 4 5 6 
#
# 1 0.010888 -0.002197 -0.000480 0.000000 0.002999 0.000000
# 2 -0.002197 0.010126 -0.001157 0.000000 -0.000272 0.000000
# 3 -0.000480 -0.001157 0.014772 0.000000 0.008141 0.000000
# 4 0.000000 0.000000 0.000000 0.044054 0.000000 0.000419
# 5 0.002999 -0.000272 0.008141 0.000000 0.028491 0.000000
# 6 0.000000 0.000000 0.000000 0.000419 0.000000 0.023050
#
#
# Mechanical properties :
#
#
# Convention : Reuss Voigt Hill
#
# Bulk Modulus (GPa) = 35.56319 42.59493 39.07906
# Shear Modulus (GPa) = 33.68786 38.02794 35.85790
#
# Velocity S-wave (km/s) = 3.86851 4.11016 3.99116
# Velocity P-wave (km/s) = 5.97932 6.43791 6.21285
#
# Compressibility (1/GPa) = 0.02811896
#
# Stress axis : x y z
#
# Youngs Moduli (GPa) = 91.84230 98.75359 67.69553
#
# Poissons Ratio (x) = 0.21693 0.03253
# Poissons Ratio (y) = 0.20175 0.07830
# Poissons Ratio (z) = 0.04413 0.11422
#
# Static dielectric constant tensor:
#      x y z
#    x 1.920120 0.000000 0.113270 
#    y 0.000000 1.839810 0.000000 
#    z 0.113270 0.000000 2.079420 
# 
# From -- ./inp_files/190959.got.cif
#   From: 2010.05.17/outbox.cif.g08.bks.cpg/sg15_96_cif.got.tgz:190959.got - 2010.06.03 18:47:42.
