data_PCOD9307888
_publ_section_title
;
Structure prediction by ZEFSAII (Michael W. Deem and Ramdas Pophale) SiO2 
 PCOD9307888
Probable space group: C 2/C
;
_chemical_formula_sum "Si O2"
_cell_formula_units_Z 48
_cell_length_a 19.630966
_cell_length_b 12.431748
_cell_length_c 25.848469
_cell_angle_alpha 90.000000
_cell_angle_beta 20.246504
_cell_angle_gamma 90.000000
_cell_volume 2183.030786
_symmetry_space_group_name_H-M "C 2/C"
_symmetry_group_IT_number 15
_symmetry_cell_setting 'monoclinic'
loop_
_space_group_symop_operation_xyz
x,y,z
-x,y,1/2-z
-x,-y,-z
x,-y,1/2+z
1/2+x,1/2+y,z
1/2-x,1/2+y,1/2-z
1/2-x,1/2-y,-z
1/2+x,1/2-y,1/2+z
loop_
_atom_site_type_symbol
_atom_site_label
_atom_site_fract_x
_atom_site_fract_y
_atom_site_fract_z
Si Si1 0.661476 0.638533 0.545557
Si Si2 0.131342 0.470094 0.264138
Si Si3 0.000000 0.006035 0.750000
Si Si4 0.377128 0.724607 0.612273
Si Si5 0.000000 0.508715 0.250000
Si Si6 0.369170 0.070481 0.050442
Si Si7 0.706135 0.775759 0.717393
O O1 0.750000 0.750000 0.500000
O O2 0.644751 0.571206 0.609648
O O3 0.445079 0.677084 0.682531
O O4 0.807476 0.580470 0.401515
O O5 0.325997 0.397635 0.133698
O O6 0.046523 0.442206 0.268234
O O7 0.141412 0.600205 0.257097
O O8 0.997584 0.436019 0.407262
O O9 0.850521 0.958027 0.813339
O O10 0.342570 0.810995 0.592344
O O11 0.255147 0.762936 0.749029
O O12 0.612490 0.736816 0.451021
O O13 0.500000 0.000000 0.000000
#
# Coordination Sequence:
#
# PCOD9307888 Si02
#       7
#     8   8   4   8   4   8   8
#     4  12  25  42  72 111 152 188 241 316 382 450
#     4  12  26  48  72 110 149 196 257 310 387 460
#     4  12  27  45  78 112 148 202 255 311 380 460
#     4  12  27  46  75 105 150 200 253 314 375 465
#     4  12  25  47  74 112 160 194 247 323 384 460
#     4  12  25  51  76 109 151 201 257 314 382 461
#     4  12  25  44  75 110 148 194 251 316 391 451
#
# _framework density 21.987779
#
# number of rings (size 3 to 8) (size 9 to 14) (size 15 to 20)
#    0.000    0.000    6.667    3.000    2.333    2.000 
#    0.000    1.667    0.000    0.000    0.000    0.000 
#    0.000    0.000    0.000    0.000    0.000    0.000 
#
# Total GULP energy -133803.646278 kJ/mol
# GULP energy per Si atom -5575.151928 kJ/mol
# Density = 2.193773 g / cm^3
# Si number density = 21.987779 Si / 1000 Ang^3
#
#
#
# Elastic Constant Matrix: (Units=GPa)
#
#
# Indices 1 2 3 4 5 6 
#
# 1 111.1468 17.9149 21.7804 -0.0201 13.4803 0.0261
# 2 17.9149 60.7928 10.1744 -0.0153 -2.3263 0.0256
# 3 21.7804 10.1744 89.5708 -0.0719 1.0289 0.0507
# 4 -0.0201 -0.0153 -0.0719 3.2104 0.0147 18.0415
# 5 13.4803 -2.3263 1.0289 0.0147 43.9379 -0.0144
# 6 0.0261 0.0256 0.0507 18.0415 -0.0144 16.6103
#
#
#
# Elastic Compliance Matrix: (Units=1/GPa)
#
#
# Indices 1 2 3 4 5 6 
#
# 1 0.010260 -0.002789 -0.002141 -0.000012 -0.003245 0.000005
# 2 -0.002789 0.017565 -0.001338 -0.000024 0.001817 0.000009
# 3 -0.002141 -0.001338 0.011833 -0.000081 0.000309 0.000058
# 4 -0.000012 -0.000024 -0.000081 -0.061029 0.000047 0.066287
# 5 -0.003245 0.001817 0.000309 0.000047 0.023844 -0.000029
# 6 0.000005 0.000009 0.000058 0.066287 -0.000029 -0.011795
#
#
# Mechanical properties :
#
#
# Convention : Reuss Voigt Hill
#
# Bulk Modulus (GPa) = 36.87044 40.13885 38.50464
# Shear Modulus (GPa) = 408.03729 26.86112 217.44921
#
# Velocity S-wave (km/s) = 13.63735 3.49899 9.95541
# Velocity P-wave (km/s) = 16.27191 5.88376 12.23506
#
# Compressibility (1/GPa) = 0.02712200
#
# Stress axis : x y z
#
# Youngs Moduli (GPa) = 97.46783 56.93232 84.50790
#
# Poissons Ratio (x) = 0.15880 0.18091
# Poissons Ratio (y) = 0.27187 0.11306
# Poissons Ratio (z) = 0.20865 0.07616
#
# Static dielectric constant tensor:
#      x y z
#    x 2.147080 -0.000070 -0.352810 
#    y -0.000070 1.817340 0.000080 
#    z -0.352810 0.000080 2.109240 
# 
# From -- ./inp_files/111478.got.cif
#   From: 2010.05.17/outbox.cif.g08.bks.cpg/sg15_56_cif.got.tgz:111478.got - 2010.06.03 18:47:42.
