data_PCOD9307661
_publ_section_title
;
Structure prediction by ZEFSAII (Michael W. Deem and Ramdas Pophale) SiO2 
 PCOD9307661
Probable space group: C 2/C
;
_chemical_formula_sum "Si O2"
_cell_formula_units_Z 32
_cell_length_a 13.872166
_cell_length_b 19.752959
_cell_length_c 14.669605
_cell_angle_alpha 90.000000
_cell_angle_beta 161.638245
_cell_angle_gamma 90.000000
_cell_volume 1266.271720
_symmetry_space_group_name_H-M "C 2/C"
_symmetry_group_IT_number 15
_symmetry_cell_setting 'monoclinic'
loop_
_space_group_symop_operation_xyz
x,y,z
-x,y,1/2-z
-x,-y,-z
x,-y,1/2+z
1/2+x,1/2+y,z
1/2-x,1/2+y,1/2-z
1/2-x,1/2-y,-z
1/2+x,1/2-y,1/2+z
loop_
_atom_site_type_symbol
_atom_site_label
_atom_site_fract_x
_atom_site_fract_y
_atom_site_fract_z
Si Si1 0.094461 0.498505 0.193252
Si Si2 0.156640 0.358409 0.474083
Si Si3 0.597429 0.204215 0.581324
Si Si4 0.599308 0.412409 0.248949
O O1 0.375030 0.547381 0.476678
O O2 0.000000 0.500000 0.000000
O O3 0.075631 0.421515 0.211252
O O4 0.797858 0.529425 0.975092
O O5 0.500000 0.375795 0.750000
O O6 0.127587 0.314356 0.538028
O O7 0.000000 0.320101 0.250000
O O8 0.445529 0.272314 0.407853
O O9 0.651716 0.135580 0.575410
O O10 0.500000 0.371476 0.250000
#
# Coordination Sequence:
#
# PCOD9307661 Si02
#       4
#     8   8   8   8
#     4  12  24  44  76 109 145 187 231 303 382 439
#     4  12  26  44  72 105 143 186 236 300 365 435
#     4  12  28  47  71 102 144 198 253 297 348 424
#     4  12  26  46  75 108 147 188 239 303 370 436
#
# _framework density 25.271038999999998
#
# number of rings (size 3 to 8) (size 9 to 14) (size 15 to 20)
#    0.000    0.000    2.500    8.250    3.500    4.000 
#    0.000    0.000    0.000    0.000    0.000    0.000 
#    0.000    0.000    0.000    0.000    0.000    0.000 
#
# Total GULP energy -89113.942021 kJ/mol
# GULP energy per Si atom -5569.621376 kJ/mol
# Density = 2.521352 g / cm^3
# Si number density = 25.271039 Si / 1000 Ang^3
#
#
#
# Elastic Constant Matrix: (Units=GPa)
#
#
# Indices 1 2 3 4 5 6 
#
# 1 115.3631 5.8149 19.8291 0.0051 2.6561 0.0098
# 2 5.8149 65.9985 7.5113 -0.0052 -0.5405 -0.0071
# 3 19.8291 7.5113 102.0536 -0.0002 2.4177 -0.0028
# 4 0.0051 -0.0052 -0.0002 42.7568 -0.0064 6.7286
# 5 2.6561 -0.5405 2.4177 -0.0064 36.6784 -0.0077
# 6 0.0098 -0.0071 -0.0028 6.7286 -0.0077 16.9138
#
#
#
# Elastic Compliance Matrix: (Units=1/GPa)
#
#
# Indices 1 2 3 4 5 6 
#
# 1 0.009002 -0.000605 -0.001692 0.000000 -0.000549 -0.000006
# 2 -0.000605 0.015324 -0.001018 0.000001 0.000337 0.000006
# 3 -0.001692 -0.001018 0.010216 0.000000 -0.000566 0.000002
# 4 0.000000 0.000001 0.000000 0.024950 0.000002 -0.009926
# 5 -0.000549 0.000337 -0.000566 0.000002 0.027346 0.000012
# 6 -0.000006 0.000006 0.000002 -0.009926 0.000012 0.063072
#
#
# Mechanical properties :
#
#
# Convention : Reuss Voigt Hill
#
# Bulk Modulus (GPa) = 35.82704 38.85841 37.34272
# Shear Modulus (GPa) = 30.14886 35.95379 33.05133
#
# Velocity S-wave (km/s) = 3.45776 3.77600 3.62038
# Velocity P-wave (km/s) = 5.49084 5.86693 5.68200
#
# Compressibility (1/GPa) = 0.02791188
#
# Stress axis : x y z
#
# Youngs Moduli (GPa) = 111.08411 65.25785 97.88756
#
# Poissons Ratio (x) = 0.03949 0.16558
# Poissons Ratio (y) = 0.06722 0.09968
# Poissons Ratio (z) = 0.18791 0.06645
#
# Static dielectric constant tensor:
#      x y z
#    x 2.292730 0.000000 -0.002800 
#    y 0.000000 1.905880 0.000000 
#    z -0.002800 0.000000 2.004510 
# 
# From -- ./inp_files/156090.got.cif
#   From: 2010.05.17/outbox.cif.g08.bks.cpg/sg15_79_cif.got.tgz:156090.got - 2010.06.03 18:47:42.
