data_PCOD9307816
_publ_section_title
;
Structure prediction by ZEFSAII (Michael W. Deem and Ramdas Pophale) SiO2 
 PCOD9307816
Probable space group: C 2/C
;
_chemical_formula_sum "Si O2"
_cell_formula_units_Z 32
_cell_length_a 14.850465
_cell_length_b 11.234764
_cell_length_c 8.933558
_cell_angle_alpha 90.000000
_cell_angle_beta 126.426628
_cell_angle_gamma 90.000000
_cell_volume 1199.273312
_symmetry_space_group_name_H-M "C 2/C"
_symmetry_group_IT_number 15
_symmetry_cell_setting 'monoclinic'
loop_
_space_group_symop_operation_xyz
x,y,z
-x,y,1/2-z
-x,-y,-z
x,-y,1/2+z
1/2+x,1/2+y,z
1/2-x,1/2+y,1/2-z
1/2-x,1/2-y,-z
1/2+x,1/2-y,1/2+z
loop_
_atom_site_type_symbol
_atom_site_label
_atom_site_fract_x
_atom_site_fract_y
_atom_site_fract_z
Si Si1 0.748102 0.046858 0.512578
Si Si2 0.750000 0.250000 0.000000
Si Si3 0.144288 0.359343 0.600559
Si Si4 0.000000 0.114673 0.750000
Si Si5 0.910351 0.699598 0.922149
O O1 0.706371 0.092449 0.308697
O O2 0.675813 0.125558 0.558044
O O3 0.880985 0.051578 0.661583
O O4 0.706273 0.912578 0.510442
O O5 0.666427 0.274261 0.071659
O O6 0.856866 0.242971 0.225930
O O7 0.014381 0.382024 0.476271
O O8 0.967007 0.202349 0.582813
#
# Coordination Sequence:
#
# PCOD9307816 Si02
#       5
#     8   4   8   4   8
#     4  12  26  47  75 113 151 199 256 311 381 445
#     4  12  26  46  72 112 150 194 252 302 382 446
#     4  12  26  47  73 112 149 198 257 313 372 451
#     4  12  24  48  80 102 156 204 244 312 380 442
#     4  12  24  48  79 109 149 202 253 312 373 455
#
# _framework density 26.682824
#
# number of rings (size 3 to 8) (size 9 to 14) (size 15 to 20)
#    0.000    0.000    5.000    5.250    0.000    3.000 
#    4.500    0.000    0.000    0.000    0.000    0.000 
#    0.000    0.000    0.000    0.000    0.000    0.000 
#
# Total GULP energy -89257.008000 kJ/mol
# GULP energy per Si atom -5578.563000 kJ/mol
# Density = 2.662209 g / cm^3
# Si number density = 26.682824 Si / 1000 Ang^3
#
#
#
# Elastic Constant Matrix: (Units=GPa)
#
#
# Indices 1 2 3 4 5 6 
#
# 1 223.2847 51.7066 83.9393 0.0000 13.1619 0.0000
# 2 51.7066 64.8249 66.4706 0.0000 -19.3924 0.0000
# 3 83.9393 66.4706 269.5370 0.0000 5.9560 0.0000
# 4 0.0000 0.0000 0.0000 24.6015 0.0000 -2.4268
# 5 13.1619 -19.3924 5.9560 0.0000 48.6551 0.0000
# 6 0.0000 0.0000 0.0000 -2.4268 0.0000 49.3398
#
#
#
# Elastic Compliance Matrix: (Units=1/GPa)
#
#
# Indices 1 2 3 4 5 6 
#
# 1 0.006176 -0.005613 -0.000454 0.000000 -0.003853 0.000000
# 2 -0.005613 0.030441 -0.006077 0.000000 0.014395 0.000000
# 3 -0.000454 -0.006077 0.005416 0.000000 -0.002962 0.000000
# 4 0.000000 0.000000 0.000000 0.040846 0.000000 0.002009
# 5 -0.003853 0.014395 -0.002962 0.000000 0.027695 0.000000
# 6 0.000000 0.000000 0.000000 0.002009 0.000000 0.020366
#
#
# Mechanical properties :
#
#
# Convention : Reuss Voigt Hill
#
# Bulk Modulus (GPa) = 56.35619 106.87552 81.61586
# Shear Modulus (GPa) = 31.02800 48.22129 39.62464
#
# Velocity S-wave (km/s) = 3.41375 4.25573 3.85778
# Velocity P-wave (km/s) = 6.05846 8.01806 7.10613
#
# Compressibility (1/GPa) = 0.01774428
#
# Stress axis : x y z
#
# Youngs Moduli (GPa) = 161.91083 32.84995 184.65216
#
# Poissons Ratio (x) = 0.18440 0.08382
# Poissons Ratio (y) = 0.90887 1.12216
# Poissons Ratio (z) = 0.07350 0.19963
#
# Static dielectric constant tensor:
#      x y z
#    x 2.424200 0.000000 0.086930 
#    y 0.000000 2.831440 0.000000 
#    z 0.086930 0.000000 1.999430 
# 
# From -- ./inp_files/28914.got.cif
#   From: 2010.05.17/outbox.cif.g08.bks.cpg/sg15_15_cif.got.tgz:28914.got - 2010.06.03 18:47:42.
