data_PCOD9307396
_publ_section_title
;
Structure prediction by ZEFSAII (Michael W. Deem and Ramdas Pophale) SiO2 
 PCOD9307396
Probable space group: C 2/C
;
_chemical_formula_sum "Si O2"
_cell_formula_units_Z 56
_cell_length_a 11.622789
_cell_length_b 21.781340
_cell_length_c 17.843419
_cell_angle_alpha 90.000000
_cell_angle_beta 147.556605
_cell_angle_gamma 90.000000
_cell_volume 2423.345429
_symmetry_space_group_name_H-M "C 2/C"
_symmetry_group_IT_number 15
_symmetry_cell_setting 'monoclinic'
loop_
_space_group_symop_operation_xyz
x,y,z
-x,y,1/2-z
-x,-y,-z
x,-y,1/2+z
1/2+x,1/2+y,z
1/2-x,1/2+y,1/2-z
1/2-x,1/2-y,-z
1/2+x,1/2-y,1/2+z
loop_
_atom_site_type_symbol
_atom_site_label
_atom_site_fract_x
_atom_site_fract_y
_atom_site_fract_z
Si Si1 0.204684 0.274659 0.165990
Si Si2 0.414346 0.908414 0.594088
Si Si3 0.446577 0.950465 0.303105
Si Si4 0.500000 0.188785 0.250000
Si Si5 0.955459 0.896533 0.349763
Si Si6 0.500000 0.507379 0.750000
Si Si7 0.273264 0.722298 0.156490
Si Si8 0.857089 0.410171 0.932861
O O1 0.307044 0.238444 0.152558
O O2 0.321471 0.341649 0.237759
O O3 0.254544 0.247289 0.275290
O O4 0.947811 0.269887 0.012137
O O5 0.559297 0.857207 0.714090
O O6 0.458951 0.907059 0.529270
O O7 0.192327 0.879635 0.506150
O O8 0.483751 0.977676 0.655015
O O9 0.500000 0.926971 0.250000
O O10 0.198605 0.933109 0.179185
O O11 0.561056 0.917505 0.436920
O O12 0.042625 0.948362 0.341484
O O13 0.704099 0.468202 0.838308
O O14 0.500000 0.747603 0.250000
O O15 0.284712 0.648865 0.161151
#
# Coordination Sequence:
#
# PCOD9307396 Si02
#       8
#     8   8   8   4   8   4   8   8
#     4  12  28  49  76 114 155 199 264 311 384 456
#     4  12  25  47  75 109 155 198 255 316 390 454
#     4  12  26  47  72 111 154 196 253 316 381 458
#     4  12  27  48  76 112 151 200 252 324 380 454
#     4  12  26  43  75 114 150 203 246 317 379 456
#     4  12  23  42  80 110 143 196 246 304 372 460
#     4  12  27  51  79 109 150 210 257 317 377 461
#     4  12  24  48  75 109 148 197 254 308 385 458
#
# _framework density 23.108550000000001
#
# number of rings (size 3 to 8) (size 9 to 14) (size 15 to 20)
#    0.000    0.000    7.143    3.000    2.000    2.286 
#    7.714    0.000    0.000    0.000    0.000    0.000 
#    0.000    0.000    0.000    0.000    0.000    0.000 
#
# Total GULP energy -156067.503874 kJ/mol
# GULP energy per Si atom -5573.839424 kJ/mol
# Density = 2.305595 g / cm^3
# Si number density = 23.108550 Si / 1000 Ang^3
#
#
#
# Elastic Constant Matrix: (Units=GPa)
#
#
# Indices 1 2 3 4 5 6 
#
# 1 127.5331 32.0910 42.2761 0.0035 14.5821 -0.0008
# 2 32.0910 105.7361 29.7032 0.0010 2.3974 0.0010
# 3 42.2761 29.7032 107.8079 -0.0019 14.4065 0.0121
# 4 0.0035 0.0010 -0.0019 27.0378 0.0014 2.1230
# 5 14.5821 2.3974 14.4065 0.0014 41.8814 0.0023
# 6 -0.0008 0.0010 0.0121 2.1230 0.0023 17.9108
#
#
#
# Elastic Compliance Matrix: (Units=1/GPa)
#
#
# Indices 1 2 3 4 5 6 
#
# 1 0.009567 -0.002041 -0.002893 -0.000001 -0.002219 0.000003
# 2 -0.002041 0.010693 -0.002263 0.000000 0.000877 0.000001
# 3 -0.002893 -0.002263 0.011406 0.000002 -0.002787 -0.000008
# 4 -0.000001 0.000000 0.000002 0.037333 -0.000001 -0.004425
# 5 -0.002219 0.000877 -0.002787 -0.000001 0.025558 -0.000001
# 6 0.000003 0.000001 -0.000008 -0.004425 -0.000001 0.056357
#
#
# Mechanical properties :
#
#
# Convention : Reuss Voigt Hill
#
# Bulk Modulus (GPa) = 57.89430 61.02417 59.45924
# Shear Modulus (GPa) = 29.22875 33.16646 31.19760
#
# Velocity S-wave (km/s) = 3.56033 3.79257 3.67828
# Velocity P-wave (km/s) = 6.48142 6.75597 6.62012
#
# Compressibility (1/GPa) = 0.01727286
#
# Stress axis : x y z
#
# Youngs Moduli (GPa) = 104.52238 93.52187 87.67238
#
# Poissons Ratio (x) = 0.19085 0.25363
# Poissons Ratio (y) = 0.21330 0.19840
# Poissons Ratio (z) = 0.30238 0.21164
#
# Static dielectric constant tensor:
#      x y z
#    x 1.848490 0.000000 0.091420 
#    y 0.000000 1.889610 -0.000010 
#    z 0.091420 -0.000010 2.192140 
# 
# From -- ./inp_files/240826.got.cif
#   From: 2010.05.17/outbox.cif.g08.bks.cpg/sg15_121_cif.got.tgz:240826.got - 2010.06.03 18:47:42.
