data_PCOD9307392
_publ_section_title
;
Structure prediction by ZEFSAII (Michael W. Deem and Ramdas Pophale) SiO2 
 PCOD9307392
Probable space group: C 2/C
;
_chemical_formula_sum "Si O2"
_cell_formula_units_Z 44
_cell_length_a 11.569775
_cell_length_b 20.215505
_cell_length_c 8.150181
_cell_angle_alpha 90.000000
_cell_angle_beta 104.688214
_cell_angle_gamma 90.000000
_cell_volume 1843.940479
_symmetry_space_group_name_H-M "C 2/C"
_symmetry_group_IT_number 15
_symmetry_cell_setting 'monoclinic'
loop_
_space_group_symop_operation_xyz
x,y,z
-x,y,1/2-z
-x,-y,-z
x,-y,1/2+z
1/2+x,1/2+y,z
1/2-x,1/2+y,1/2-z
1/2-x,1/2-y,-z
1/2+x,1/2-y,1/2+z
loop_
_atom_site_type_symbol
_atom_site_label
_atom_site_fract_x
_atom_site_fract_y
_atom_site_fract_z
Si Si1 0.517075 0.174298 0.075326
Si Si2 0.427261 0.940959 0.385014
Si Si3 0.227806 0.895615 0.791979
Si Si4 0.000000 0.110166 0.750000
Si Si5 0.132709 0.211710 0.034789
Si Si6 0.184931 0.973033 0.114351
O O1 0.500000 0.200998 0.250000
O O2 0.639934 0.133195 0.116026
O O3 0.419758 0.117525 0.010674
O O4 0.473343 0.236604 0.957115
O O5 0.500000 0.918744 0.250000
O O6 0.300029 0.956186 0.266446
O O7 0.500000 0.000000 0.500000
O O8 0.164050 0.829220 0.709199
O O9 0.198211 0.947669 0.633509
O O10 0.192806 0.938206 0.939933
O O11 0.915073 0.159349 0.616321
O O12 0.927923 0.060780 0.842234
O O13 0.250000 0.250000 0.000000
#
# Coordination Sequence:
#
# PCOD9307392 Si02
#       6
#     8   8   8   4   8   8
#     4  12  24  44  78 111 149 205 254 320 390 460
#     4  12  23  42  74 115 153 191 253 329 393 461
#     4  12  27  48  77 116 155 205 263 330 397 465
#     4  12  28  52  80 110 160 212 262 332 408 474
#     4  12  25  50  76 110 158 214 264 311 392 483
#     4  12  27  49  78 118 157 200 266 332 401 472
#
# _framework density 23.861940000000001
#
# number of rings (size 3 to 8) (size 9 to 14) (size 15 to 20)
#    0.000    0.000    6.364    2.727    2.545    3.636 
#    3.273    2.727    0.000    0.000    0.000    0.000 
#    0.000    0.000    0.000    0.000    0.000    0.000 
#
# Total GULP energy -122844.865019 kJ/mol
# GULP energy per Si atom -5583.857501 kJ/mol
# Density = 2.380763 g / cm^3
# Si number density = 23.861940 Si / 1000 Ang^3
#
#
#
# Elastic Constant Matrix: (Units=GPa)
#
#
# Indices 1 2 3 4 5 6 
#
# 1 109.4515 60.5464 37.0590 0.0000 -6.4051 0.0000
# 2 60.5464 184.0300 67.6642 0.0000 10.6572 0.0000
# 3 37.0590 67.6642 122.6708 0.0000 11.6673 0.0000
# 4 0.0000 0.0000 0.0000 55.7851 0.0000 28.1320
# 5 -6.4051 10.6572 11.6673 0.0000 31.9672 0.0000
# 6 0.0000 0.0000 0.0000 28.1320 0.0000 42.2891
#
#
#
# Elastic Compliance Matrix: (Units=1/GPa)
#
#
# Indices 1 2 3 4 5 6 
#
# 1 0.012005 -0.003406 -0.002160 0.000000 0.004329 0.000000
# 2 -0.003406 0.007810 -0.003073 0.000000 -0.002165 0.000000
# 3 -0.002160 -0.003073 0.010819 0.000000 -0.003357 0.000000
# 4 0.000000 0.000000 0.000000 0.026975 0.000000 -0.017945
# 5 0.004329 -0.002165 -0.003357 0.000000 0.034096 0.000000
# 6 0.000000 0.000000 0.000000 -0.017945 0.000000 0.035584
#
#
# Mechanical properties :
#
#
# Convention : Reuss Voigt Hill
#
# Bulk Modulus (GPa) = 74.87334 82.96569 78.91951
# Shear Modulus (GPa) = 33.55263 42.73381 38.14322
#
# Velocity S-wave (km/s) = 3.75389 4.23647 4.00246
# Velocity P-wave (km/s) = 7.08765 7.66647 7.38273
#
# Compressibility (1/GPa) = 0.01335589
#
# Stress axis : x y z
#
# Youngs Moduli (GPa) = 83.29551 128.04398 92.43378
#
# Poissons Ratio (x) = 0.43618 0.19962
# Poissons Ratio (y) = 0.28374 0.28403
# Poissons Ratio (z) = 0.17989 0.39346
#
# Static dielectric constant tensor:
#      x y z
#    x 1.946620 0.000000 0.102560 
#    y 0.000000 1.944770 0.000000 
#    z 0.102560 0.000000 1.556140 
# 
# From -- ./inp_files/30875.got.cif
#   From: 2010.05.17/outbox.cif.g08.bks.cpg/sg15_16_cif.got.tgz:30875.got - 2010.06.03 18:47:42.
