data_PCOD9307511
_publ_section_title
;
Structure prediction by ZEFSAII (Michael W. Deem and Ramdas Pophale) SiO2 
 PCOD9307511
Probable space group: C 2/C
;
_chemical_formula_sum "Si O2"
_cell_formula_units_Z 44
_cell_length_a 16.736003
_cell_length_b 5.151739
_cell_length_c 25.003704
_cell_angle_alpha 90.000000
_cell_angle_beta 61.381618
_cell_angle_gamma 90.000000
_cell_volume 1892.430964
_symmetry_space_group_name_H-M "C 2/C"
_symmetry_group_IT_number 15
_symmetry_cell_setting 'monoclinic'
loop_
_space_group_symop_operation_xyz
x,y,z
-x,y,1/2-z
-x,-y,-z
x,-y,1/2+z
1/2+x,1/2+y,z
1/2-x,1/2+y,1/2-z
1/2-x,1/2-y,-z
1/2+x,1/2-y,1/2+z
loop_
_atom_site_type_symbol
_atom_site_label
_atom_site_fract_x
_atom_site_fract_y
_atom_site_fract_z
Si Si1 0.579929 0.580514 0.935398
Si Si2 0.059403 0.191283 0.606943
Si Si3 0.497098 0.816798 0.314799
Si Si4 0.793608 0.379284 0.214519
Si Si5 0.250000 0.250000 0.500000
Si Si6 0.806588 0.566006 0.594060
O O1 0.535038 0.693506 0.896407
O O2 0.634043 0.316866 0.909476
O O3 0.640230 0.808416 0.941044
O O4 0.500000 0.500000 0.000000
O O5 0.137780 0.236862 0.537309
O O6 0.055129 0.422668 0.650803
O O7 0.055243 0.917706 0.638823
O O8 0.500000 0.783411 0.250000
O O9 0.600160 0.839201 0.304638
O O10 0.754410 0.600467 0.266020
O O11 0.767141 0.498094 0.164769
O O12 0.253083 0.346423 0.436487
#
# Coordination Sequence:
#
# PCOD9307511 Si02
#       6
#     8   8   8   8   4   8
#     4  12  23  47  74  99 140 194 241 291 372 456
#     4  12  26  50  72 108 151 195 248 305 376 452
#     4  12  28  49  76 107 149 198 248 310 376 439
#     4  12  26  47  75 107 142 192 252 305 367 444
#     4  12  32  44  76 116 152 196 248 314 382 436
#     4  12  27  47  72 106 149 192 248 307 375 444
#
# _framework density 23.250516999999999
#
# number of rings (size 3 to 8) (size 9 to 14) (size 15 to 20)
#    0.000    0.000    5.455    3.273    7.636    2.909 
#    0.000    0.000    0.000    0.000    0.000    0.000 
#    0.000    0.000    0.000    0.000    0.000    0.000 
#
# Total GULP energy -122569.496329 kJ/mol
# GULP energy per Si atom -5571.340742 kJ/mol
# Density = 2.319760 g / cm^3
# Si number density = 23.250517 Si / 1000 Ang^3
#
#
#
# Elastic Constant Matrix: (Units=GPa)
#
#
# Indices 1 2 3 4 5 6 
#
# 1 217.5662 68.9545 39.5673 0.0987 48.3323 0.2792
# 2 68.9545 150.2837 24.9241 0.0337 -7.8219 0.0785
# 3 39.5673 24.9241 93.9785 -0.0036 13.4616 0.0054
# 4 0.0987 0.0337 -0.0036 44.6336 0.0267 -8.8614
# 5 48.3323 -7.8219 13.4616 0.0267 60.0200 0.0682
# 6 0.2792 0.0785 0.0054 -8.8614 0.0682 -3.0284
#
#
#
# Elastic Compliance Matrix: (Units=1/GPa)
#
#
# Indices 1 2 3 4 5 6 
#
# 1 0.007246 -0.003424 -0.001284 0.000049 -0.005994 0.000298
# 2 -0.003424 0.008688 -0.001467 -0.000001 0.004218 0.000004
# 3 -0.001284 -0.001467 0.011830 -0.000018 -0.001810 -0.000122
# 4 0.000049 -0.000001 -0.000018 0.014172 0.000005 -0.041465
# 5 -0.005994 0.004218 -0.001810 0.000005 0.022443 0.000044
# 6 0.000298 0.000004 -0.000122 -0.041465 0.000044 -0.208847
#
#
# Mechanical properties :
#
#
# Convention : Reuss Voigt Hill
#
# Bulk Modulus (GPa) = 64.87665 80.96890 72.92277
# Shear Modulus (GPa) = -39.37621 42.21720 1.42050
#
# Velocity S-wave (km/s) = -4.11976 4.26579 0.78248
# Velocity P-wave (km/s) = 2.30955 7.69173 5.67877
#
# Compressibility (1/GPa) = 0.01541387
#
# Stress axis : x y z
#
# Youngs Moduli (GPa) = 138.00625 115.10331 84.53284
#
# Poissons Ratio (x) = 0.39409 0.10856
# Poissons Ratio (y) = 0.47251 0.12400
# Poissons Ratio (z) = 0.17723 0.16884
#
# Static dielectric constant tensor:
#      x y z
#    x 2.407240 -0.000890 -0.313930 
#    y -0.000890 1.822820 0.000540 
#    z -0.313930 0.000540 2.104980 
# 
# From -- ./inp_files/275809.got.cif
#   From: 2010.05.17/outbox.cif.g08.bks.cpg/sg15_138_cif.got.tgz:275809.got - 2010.06.03 18:47:42.
