data_PCOD9307005
_publ_section_title
;
Structure prediction by ZEFSAII (Michael W. Deem and Ramdas Pophale) SiO2 
 PCOD9307005
Probable space group: C 2/C
;
_chemical_formula_sum "Si O2"
_cell_formula_units_Z 48
_cell_length_a 8.662951
_cell_length_b 17.227902
_cell_length_c 14.899938
_cell_angle_alpha 90.000000
_cell_angle_beta 97.470613
_cell_angle_gamma 90.000000
_cell_volume 2204.857597
_symmetry_space_group_name_H-M "C 2/C"
_symmetry_group_IT_number 15
_symmetry_cell_setting 'monoclinic'
loop_
_space_group_symop_operation_xyz
x,y,z
-x,y,1/2-z
-x,-y,-z
x,-y,1/2+z
1/2+x,1/2+y,z
1/2-x,1/2+y,1/2-z
1/2-x,1/2-y,-z
1/2+x,1/2-y,1/2+z
loop_
_atom_site_type_symbol
_atom_site_label
_atom_site_fract_x
_atom_site_fract_y
_atom_site_fract_z
Si Si1 0.884318 0.078070 0.126366
Si Si2 0.363764 0.606263 0.620439
Si Si3 0.085555 0.580845 0.466900
Si Si4 0.232011 0.070576 0.194409
Si Si5 0.687480 0.165926 0.975736
Si Si6 0.790995 0.116722 0.808419
O O1 0.773462 0.099994 0.202718
O O2 0.809231 0.104769 0.028341
O O3 0.064125 0.102742 0.147536
O O4 0.891665 0.985695 0.134795
O O5 0.246792 0.602898 0.528854
O O6 0.282433 0.639513 0.703933
O O7 0.538807 0.639374 0.638134
O O8 0.128325 0.583207 0.364933
O O9 0.000000 0.500000 0.500000
O O10 0.969217 0.648264 0.484636
O O11 0.224224 0.976525 0.192997
O O12 0.750000 0.250000 0.000000
O O13 0.669512 0.150886 0.868975
#
# Coordination Sequence:
#
# PCOD9307005 Si02
#       6
#     8   8   8   8   8   8
#     4   9  18  37  60  87 117 157 198 259 317 368
#     4   9  18  35  64  89 111 148 216 264 302 353
#     4  12  21  35  59  97 120 156 213 268 304 355
#     4   9  18  35  64  89 111 148 216 264 302 353
#     4  12  25  39  53  85 134 169 191 250 327 380
#     4   9  18  37  60  87 117 157 198 259 317 368
#
# _framework density 21.770112999999998
#
# number of rings (size 3 to 8) (size 9 to 14) (size 15 to 20)
#    0.000    2.000    3.333    3.000    0.000    4.000 
#    0.000   10.000    0.000    0.000    0.000    0.000 
#    0.000    0.000    0.000    0.000    0.000    0.000 
#
# Total GULP energy -133651.286948 kJ/mol
# GULP energy per Si atom -5568.803623 kJ/mol
# Density = 2.172056 g / cm^3
# Si number density = 21.770113 Si / 1000 Ang^3
#
#
#
# Elastic Constant Matrix: (Units=GPa)
#
#
# Indices 1 2 3 4 5 6 
#
# 1 49.6019 6.7373 14.2735 0.0000 -28.9191 0.0000
# 2 6.7373 27.4717 4.1543 0.0000 -16.2861 0.0000
# 3 14.2735 4.1543 95.4142 0.0000 -39.2852 0.0000
# 4 0.0000 0.0000 0.0000 4.7580 0.0000 -2.7067
# 5 -28.9191 -16.2861 -39.2852 0.0000 46.9931 0.0000
# 6 0.0000 0.0000 0.0000 -2.7067 0.0000 15.6525
#
#
#
# Elastic Compliance Matrix: (Units=1/GPa)
#
#
# Indices 1 2 3 4 5 6 
#
# 1 0.034344 0.008052 0.006652 0.000000 0.029487 0.000000
# 2 0.008052 0.050914 0.008972 0.000000 0.030100 0.000000
# 3 0.006652 0.008972 0.018391 0.000000 0.022577 0.000000
# 4 0.000000 0.000000 0.000000 0.233103 0.000000 0.040310
# 5 0.029487 0.030100 0.022577 0.000000 0.068731 0.000000
# 6 0.000000 0.000000 0.000000 0.040310 0.000000 0.070858
#
#
# Mechanical properties :
#
#
# Convention : Reuss Voigt Hill
#
# Bulk Modulus (GPa) = 6.62246 24.75757 15.69002
# Shear Modulus (GPa) = 10.43140 23.30225 16.86683
#
# Velocity S-wave (km/s) = 2.19135 3.27521 2.78649
# Velocity P-wave (km/s) = 3.07430 5.06948 4.19231
#
# Compressibility (1/GPa) = 0.15100123
#
# Stress axis : x y z
#
# Youngs Moduli (GPa) = 29.11716 19.64095 54.37558
#
# Poissons Ratio (x) = -0.15815 -0.36173
# Poissons Ratio (y) = -0.23445 -0.48786
# Poissons Ratio (z) = -0.19370 -0.17622
#
# Static dielectric constant tensor:
#      x y z
#    x 1.884400 0.000000 0.041430 
#    y 0.000000 1.764790 0.000000 
#    z 0.041430 0.000000 1.918840 
# 
# From -- ./inp_files/134810.got.cif
#   From: 2010.05.17/outbox.cif.g08.bks.cpg/sg15_68_cif.got.tgz:134810.got - 2010.06.03 18:47:42.
