data_PCOD9307233
_publ_section_title
;
Structure prediction by ZEFSAII (Michael W. Deem and Ramdas Pophale) SiO2 
 PCOD9307233
Probable space group: C 2/C
;
_chemical_formula_sum "Si O2"
_cell_formula_units_Z 40
_cell_length_a 19.038231
_cell_length_b 8.133236
_cell_length_c 27.281938
_cell_angle_alpha 90.000000
_cell_angle_beta 157.032909
_cell_angle_gamma 90.000000
_cell_volume 1648.371391
_symmetry_space_group_name_H-M "C 2/C"
_symmetry_group_IT_number 15
_symmetry_cell_setting 'monoclinic'
loop_
_space_group_symop_operation_xyz
x,y,z
-x,y,1/2-z
-x,-y,-z
x,-y,1/2+z
1/2+x,1/2+y,z
1/2-x,1/2+y,1/2-z
1/2-x,1/2-y,-z
1/2+x,1/2-y,1/2+z
loop_
_atom_site_type_symbol
_atom_site_label
_atom_site_fract_x
_atom_site_fract_y
_atom_site_fract_z
Si Si1 0.433363 0.534163 0.331003
Si Si2 0.146470 0.207811 0.632631
Si Si3 0.230701 0.643100 0.611595
Si Si4 0.881437 0.506511 0.717997
Si Si5 0.779710 0.558122 0.004085
O O1 0.317827 0.696850 0.264784
O O2 0.420754 0.421651 0.370523
O O3 0.332129 0.443693 0.220964
O O4 0.637971 0.548173 0.444197
O O5 0.980695 0.327713 0.515533
O O6 0.216946 0.117245 0.629542
O O7 0.314711 0.825628 0.660315
O O8 0.253735 0.548669 0.575182
O O9 0.000000 0.576653 0.750000
O O10 0.017556 0.485156 0.851054
O O11 0.750000 0.750000 0.000000
#
# Coordination Sequence:
#
# PCOD9307233 Si02
#       5
#     8   8   8   8   8
#     4  12  25  43  68  97 133 175 215 274 323 386
#     4  12  27  43  66 100 134 169 223 271 328 382
#     4  12  22  44  71  94 132 177 217 263 329 391
#     4  12  24  42  68  97 132 174 220 269 322 391
#     4  12  22  43  70  98 129 174 221 259 324 395
#
# _framework density 24.266375
#
# number of rings (size 3 to 8) (size 9 to 14) (size 15 to 20)
#    0.000    0.000    6.000    4.200    0.000    4.000 
#    0.000    0.000    0.000    0.000    0.000    0.000 
#    0.000    0.000    0.000    0.000    0.000    0.000 
#
# Total GULP energy -112215.114204 kJ/mol
# GULP energy per Si atom -5610.755710 kJ/mol
# Density = 2.421114 g / cm^3
# Si number density = 24.266375 Si / 1000 Ang^3
#
#
#
# Elastic Constant Matrix: (Units=GPa)
#
#
# Indices 1 2 3 4 5 6 
#
# 1 135.3150 16.5449 21.7582 0.0076 10.4992 0.0003
# 2 16.5449 34.6888 13.6478 0.0188 10.8467 -0.0031
# 3 21.7582 13.6478 98.0708 0.0456 15.5206 -0.0077
# 4 0.0076 0.0188 0.0456 20.8441 -0.0071 -0.9205
# 5 10.4992 10.8467 15.5206 -0.0071 48.1667 -0.0004
# 6 0.0003 -0.0031 -0.0077 -0.9205 -0.0004 22.1054
#
#
#
# Elastic Compliance Matrix: (Units=1/GPa)
#
#
# Indices 1 2 3 4 5 6 
#
# 1 0.008023 -0.003137 -0.001242 0.000002 -0.000642 -0.000001
# 2 -0.003137 0.033341 -0.003018 -0.000024 -0.005852 0.000003
# 3 -0.001242 -0.003018 0.011319 -0.000022 -0.002697 0.000003
# 4 0.000002 -0.000024 -0.000022 0.048064 0.000019 0.002001
# 5 -0.000642 -0.005852 -0.002697 0.000019 0.023088 -0.000001
# 6 -0.000001 0.000003 0.000003 0.002001 -0.000001 0.045321
#
#
# Mechanical properties :
#
#
# Convention : Reuss Voigt Hill
#
# Bulk Modulus (GPa) = 26.39229 41.33070 33.86150
# Shear Modulus (GPa) = 25.43495 32.63149 29.03322
#
# Velocity S-wave (km/s) = 3.24104 3.67102 3.46271
# Velocity P-wave (km/s) = 4.99054 5.91926 5.47462
#
# Compressibility (1/GPa) = 0.03788985
#
# Stress axis : x y z
#
# Youngs Moduli (GPa) = 124.63745 29.99292 88.34691
#
# Poissons Ratio (x) = 0.09410 0.10971
# Poissons Ratio (y) = 0.39103 0.26660
# Poissons Ratio (z) = 0.15478 0.09051
#
# Static dielectric constant tensor:
#      x y z
#    x 1.914330 0.000000 0.018470 
#    y 0.000000 1.930110 0.000000 
#    z 0.018470 0.000000 1.924700 
# 
# From -- ./inp_files/218768.got.cif
#   From: 2010.05.17/outbox.cif.g08.bks.cpg/sg15_110_cif.got.tgz:218768.got - 2010.06.03 18:47:42.
