data_PCOD9307884
_publ_section_title
;
Structure prediction by ZEFSAII (Michael W. Deem and Ramdas Pophale) SiO2 
 PCOD9307884
Probable space group: C 2/C
;
_chemical_formula_sum "Si O2"
_cell_formula_units_Z 36
_cell_length_a 14.142201
_cell_length_b 28.787818
_cell_length_c 9.587851
_cell_angle_alpha 90.000000
_cell_angle_beta 150.762095
_cell_angle_gamma 90.000000
_cell_volume 1906.582615
_symmetry_space_group_name_H-M "C 2/C"
_symmetry_group_IT_number 15
_symmetry_cell_setting 'monoclinic'
loop_
_space_group_symop_operation_xyz
x,y,z
-x,y,1/2-z
-x,-y,-z
x,-y,1/2+z
1/2+x,1/2+y,z
1/2-x,1/2+y,1/2-z
1/2-x,1/2-y,-z
1/2+x,1/2-y,1/2+z
loop_
_atom_site_type_symbol
_atom_site_label
_atom_site_fract_x
_atom_site_fract_y
_atom_site_fract_z
Si Si1 0.827357 0.109638 0.915058
Si Si2 0.693372 0.810730 0.068323
Si Si3 0.024924 0.546048 0.941915
Si Si4 0.500000 0.279893 0.250000
Si Si5 0.465910 0.451895 0.041289
O O1 0.762802 0.161332 0.790670
O O2 0.641616 0.082041 0.732023
O O3 0.899256 0.084915 0.864844
O O4 0.000000 0.107571 0.250000
O O5 0.862546 0.809063 0.171762
O O6 0.500000 0.832631 0.750000
O O7 0.630453 0.756762 0.006792
O O8 0.000000 0.532584 0.750000
O O9 0.243206 0.563705 0.240762
O O10 0.000000 0.500000 0.000000
O O11 0.500000 0.458698 0.250000
O O12 0.500000 0.500000 0.000000
#
# Coordination Sequence:
#
# PCOD9307884 Si02
#       5
#     8   8   8   4   8
#     4  12  26  42  59  97 134 166 216 267 313 386
#     4   9  20  39  69  92 124 162 207 259 322 384
#     4  12  25  42  63  86 127 175 217 268 319 368
#     4   8  18  42  68  98 126 154 210 272 316 390
#     4  12  25  41  63  89 123 171 217 266 317 371
#
# _framework density 18.881952999999999
#
# number of rings (size 3 to 8) (size 9 to 14) (size 15 to 20)
#    0.667    0.444    4.444    2.000    4.667    0.000 
#    0.000    1.111    0.000    0.000    0.000    0.000 
#    0.000    0.000    0.000    0.000    0.000    0.000 
#
# Total GULP energy -100454.233920 kJ/mol
# GULP energy per Si atom -5580.790773 kJ/mol
# Density = 1.883898 g / cm^3
# Si number density = 18.881953 Si / 1000 Ang^3
#
#
#
# Elastic Constant Matrix: (Units=GPa)
#
#
# Indices 1 2 3 4 5 6 
#
# 1 143.9207 40.3481 68.4348 0.0000 1.9972 0.0000
# 2 40.3481 66.4448 26.4908 0.0000 -6.9967 0.0000
# 3 68.4348 26.4908 114.4886 0.0000 -1.1925 0.0000
# 4 0.0000 0.0000 0.0000 4.5564 0.0000 -9.9184
# 5 1.9972 -6.9967 -1.1925 0.0000 47.9506 0.0000
# 6 0.0000 0.0000 0.0000 -9.9184 0.0000 8.1373
#
#
#
# Elastic Compliance Matrix: (Units=1/GPa)
#
#
# Indices 1 2 3 4 5 6 
#
# 1 0.010820 -0.004536 -0.005431 0.000000 -0.001248 0.000000
# 2 -0.004536 0.018745 -0.001596 0.000000 0.002884 0.000000
# 3 -0.005431 -0.001596 0.012353 0.000000 0.000301 0.000000
# 4 0.000000 0.000000 0.000000 -0.132749 0.000000 -0.161806
# 5 -0.001248 0.002884 0.000301 0.000000 0.021335 0.000000
# 6 0.000000 0.000000 0.000000 -0.161806 0.000000 -0.074332
#
#
# Mechanical properties :
#
#
# Convention : Reuss Voigt Hill
#
# Bulk Modulus (GPa) = 53.21432 66.15573 59.68502
# Shear Modulus (GPa) = -43.69138 24.76757 -9.46191
#
# Velocity S-wave (km/s) = -4.81554 3.62568 -2.24097
# Velocity P-wave (km/s) = 1.63568 7.25534 4.99822
#
# Compressibility (1/GPa) = 0.01879193
#
# Stress axis : x y z
#
# Youngs Moduli (GPa) = 92.42412 53.34859 80.95200
#
# Poissons Ratio (x) = 0.24201 0.43963
# Poissons Ratio (y) = 0.41927 0.12917
# Poissons Ratio (z) = 0.50193 0.08512
#
# Static dielectric constant tensor:
#      x y z
#    x 1.654790 0.000000 0.026400 
#    y 0.000000 1.672570 0.000000 
#    z 0.026400 0.000000 1.693400 
# 
# From -- ./inp_files/44019.got.cif
#   From: 2010.05.17/outbox.cif.g08.bks.cpg/sg15_23_cif.got.tgz:44019.got - 2010.06.03 18:47:42.
