data_PCOD9307475
_publ_section_title
;
Structure prediction by ZEFSAII (Michael W. Deem and Ramdas Pophale) SiO2 
 PCOD9307475
Probable space group: C 2/C
;
_chemical_formula_sum "Si O2"
_cell_formula_units_Z 40
_cell_length_a 12.314867
_cell_length_b 7.959258
_cell_length_c 18.001476
_cell_angle_alpha 90.000000
_cell_angle_beta 102.008688
_cell_angle_gamma 90.000000
_cell_volume 1725.841132
_symmetry_space_group_name_H-M "C 2/C"
_symmetry_group_IT_number 15
_symmetry_cell_setting 'monoclinic'
loop_
_space_group_symop_operation_xyz
x,y,z
-x,y,1/2-z
-x,-y,-z
x,-y,1/2+z
1/2+x,1/2+y,z
1/2-x,1/2+y,1/2-z
1/2-x,1/2-y,-z
1/2+x,1/2-y,1/2+z
loop_
_atom_site_type_symbol
_atom_site_label
_atom_site_fract_x
_atom_site_fract_y
_atom_site_fract_z
Si Si1 0.340000 0.360105 0.818800
Si Si2 0.918696 0.161649 0.077422
Si Si3 0.753241 0.229813 0.845014
Si Si4 0.318679 0.294610 0.083658
Si Si5 0.033640 0.348748 0.558954
O O1 0.465510 0.329715 0.862757
O O2 0.319080 0.306768 0.731529
O O3 0.307900 0.554434 0.828377
O O4 0.257248 0.250797 0.857884
O O5 0.828521 0.293246 0.096337
O O6 0.859853 0.984830 0.083311
O O7 0.945210 0.194779 0.995241
O O8 0.852350 0.357789 0.880181
O O9 0.431846 0.187874 0.098249
O O10 0.250000 0.250000 0.000000
O O11 0.000000 0.500000 0.500000
#
# Coordination Sequence:
#
# PCOD9307475 Si02
#       5
#     8   8   8   8   8
#     4  12  27  48  72 105 148 190 240 300 363 433
#     4  12  25  49  73 102 146 189 238 299 364 427
#     4  12  27  47  72 106 145 190 240 297 364 428
#     4  12  23  45  77 103 142 187 237 297 360 428
#     4  12  25  45  75 107 143 187 245 298 358 434
#
# _framework density 23.177104
#
# number of rings (size 3 to 8) (size 9 to 14) (size 15 to 20)
#    0.000    0.000    4.000    6.600    2.800    0.800 
#    3.600    0.000    0.000    0.000    0.000    0.000 
#    0.000    0.000    0.000    0.000    0.000    0.000 
#
# Total GULP energy -112146.474125 kJ/mol
# GULP energy per Si atom -5607.323706 kJ/mol
# Density = 2.312435 g / cm^3
# Si number density = 23.177104 Si / 1000 Ang^3
#
#
#
# Elastic Constant Matrix: (Units=GPa)
#
#
# Indices 1 2 3 4 5 6 
#
# 1 158.1993 11.9269 25.7139 0.0000 10.7174 0.0000
# 2 11.9269 73.9956 -10.9703 0.0000 -7.4438 0.0000
# 3 25.7139 -10.9703 86.2448 0.0000 16.6914 0.0000
# 4 0.0000 0.0000 0.0000 27.6014 0.0000 -4.5923
# 5 10.7174 -7.4438 16.6914 0.0000 43.8899 0.0000
# 6 0.0000 0.0000 0.0000 -4.5923 0.0000 42.6253
#
#
#
# Elastic Compliance Matrix: (Units=1/GPa)
#
#
# Indices 1 2 3 4 5 6 
#
# 1 0.006841 -0.001517 -0.002007 0.000000 -0.001164 0.000000
# 2 -0.001517 0.014244 0.001862 0.000000 0.002078 0.000000
# 3 -0.002007 0.001862 0.013249 0.000000 -0.004233 0.000000
# 4 0.000000 0.000000 0.000000 0.036891 0.000000 0.003975
# 5 -0.001164 0.002078 -0.004233 0.000000 0.025031 0.000000
# 6 0.000000 0.000000 0.000000 0.003975 0.000000 0.023888
#
#
# Mechanical properties :
#
#
# Convention : Reuss Voigt Hill
#
# Bulk Modulus (GPa) = 32.24862 41.30897 36.77880
# Shear Modulus (GPa) = 37.36753 42.27461 39.82107
#
# Velocity S-wave (km/s) = 4.01965 4.27544 4.14952
# Velocity P-wave (km/s) = 5.95715 6.49880 6.23386
#
# Compressibility (1/GPa) = 0.03100908
#
# Stress axis : x y z
#
# Youngs Moduli (GPa) = 146.18445 70.20500 75.47509
#
# Poissons Ratio (x) = 0.10652 0.15149
# Poissons Ratio (y) = 0.22181 -0.14054
# Poissons Ratio (z) = 0.29342 -0.13072
#
# Static dielectric constant tensor:
#      x y z
#    x 1.849500 0.000000 -0.036360 
#    y 0.000000 1.931520 0.000000 
#    z -0.036360 0.000000 1.850720 
# 
# From -- ./inp_files/195157.got.cif
#   From: 2010.05.17/outbox.cif.g08.bks.cpg/sg15_98_cif.got.tgz:195157.got - 2010.06.03 18:47:42.
