data_PCOD9307505
_publ_section_title
;
Structure prediction by ZEFSAII (Michael W. Deem and Ramdas Pophale) SiO2 
 PCOD9307505
Probable space group: C 2/C
;
_chemical_formula_sum "Si O2"
_cell_formula_units_Z 32
_cell_length_a 7.270576
_cell_length_b 17.524082
_cell_length_c 11.854213
_cell_angle_alpha 90.000000
_cell_angle_beta 64.393355
_cell_angle_gamma 90.000000
_cell_volume 1362.004620
_symmetry_space_group_name_H-M "C 2/C"
_symmetry_group_IT_number 15
_symmetry_cell_setting 'monoclinic'
loop_
_space_group_symop_operation_xyz
x,y,z
-x,y,1/2-z
-x,-y,-z
x,-y,1/2+z
1/2+x,1/2+y,z
1/2-x,1/2+y,1/2-z
1/2-x,1/2-y,-z
1/2+x,1/2-y,1/2+z
loop_
_atom_site_type_symbol
_atom_site_label
_atom_site_fract_x
_atom_site_fract_y
_atom_site_fract_z
Si Si1 0.770102 0.605892 0.347802
Si Si2 0.537463 0.911362 0.477267
Si Si3 0.350433 0.667266 0.469059
Si Si4 0.817150 0.069256 0.706458
O O1 0.580921 0.659086 0.364061
O O2 0.000000 0.624876 0.250000
O O3 0.721240 0.517880 0.326355
O O4 0.796219 0.612398 0.475918
O O5 0.316611 0.877107 0.559840
O O6 0.625022 0.899836 0.329502
O O7 0.500000 0.000000 0.500000
O O8 0.250000 0.750000 0.500000
O O9 0.350125 0.623063 0.589714
O O10 0.000000 0.066946 0.750000
#
# Coordination Sequence:
#
# PCOD9307505 Si02
#       4
#     8   8   8   8
#     4  12  25  45  79 113 145 197 258 314 370 451
#     4  12  23  47  76 108 149 194 257 309 371 442
#     4  12  28  49  72 108 156 202 249 311 380 452
#     4  12  23  46  81 111 149 202 253 316 374 445
#
# _framework density 23.494779999999999
#
# number of rings (size 3 to 8) (size 9 to 14) (size 15 to 20)
#    0.000    0.000    7.500    3.000    0.000    1.000 
#    9.000    0.000    0.000    0.000    0.000    0.000 
#    0.000    0.000    0.000    0.000    0.000    0.000 
#
# Total GULP energy -89482.625492 kJ/mol
# GULP energy per Si atom -5592.664093 kJ/mol
# Density = 2.344130 g / cm^3
# Si number density = 23.494780 Si / 1000 Ang^3
#
#
#
# Elastic Constant Matrix: (Units=GPa)
#
#
# Indices 1 2 3 4 5 6 
#
# 1 232.5931 78.5591 44.4504 0.0000 5.9410 0.0000
# 2 78.5591 110.8106 1.4529 0.0000 -3.1799 0.0000
# 3 44.4504 1.4529 102.4141 0.0000 4.2909 0.0000
# 4 0.0000 0.0000 0.0000 12.4397 0.0000 3.2820
# 5 5.9410 -3.1799 4.2909 0.0000 54.5153 0.0000
# 6 0.0000 0.0000 0.0000 3.2820 0.0000 31.0712
#
#
#
# Elastic Compliance Matrix: (Units=1/GPa)
#
#
# Indices 1 2 3 4 5 6 
#
# 1 0.006340 -0.004481 -0.002657 0.000000 -0.000743 0.000000
# 2 -0.004481 0.012209 0.001727 0.000000 0.001065 0.000000
# 3 -0.002657 0.001727 0.010913 0.000000 -0.000469 0.000000
# 4 0.000000 0.000000 0.000000 0.082692 0.000000 -0.008735
# 5 -0.000743 0.001065 -0.000469 0.000000 0.018523 0.000000
# 6 0.000000 0.000000 0.000000 -0.008735 0.000000 0.033107
#
#
# Mechanical properties :
#
#
# Convention : Reuss Voigt Hill
#
# Bulk Modulus (GPa) = 53.64885 77.19363 65.42124
# Shear Modulus (GPa) = 27.65212 41.02895 34.34054
#
# Velocity S-wave (km/s) = 3.43439 4.18341 3.82727
# Velocity P-wave (km/s) = 6.21375 7.50077 6.88739
#
# Compressibility (1/GPa) = 0.01863973
#
# Stress axis : x y z
#
# Youngs Moduli (GPa) = 157.74102 81.90658 91.63766
#
# Poissons Ratio (x) = 0.36701 0.24346
# Poissons Ratio (y) = 0.70682 -0.15826
# Poissons Ratio (z) = 0.41909 -0.14145
#
# Static dielectric constant tensor:
#      x y z
#    x 1.915070 0.000000 -0.015950 
#    y 0.000000 1.826310 0.000000 
#    z -0.015950 0.000000 1.950400 
# 
# From -- ./inp_files/22343.got.cif
#   From: 2010.05.17/outbox.cif.g08.bks.cpg/sg15_12_cif.got.tgz:22343.got - 2010.06.03 18:47:42.
