data_PCOD9307573
_publ_section_title
;
Structure prediction by ZEFSAII (Michael W. Deem and Ramdas Pophale) SiO2 
 PCOD9307573
Probable space group: C 2/C
;
_chemical_formula_sum "Si O2"
_cell_formula_units_Z 32
_cell_length_a 9.247116
_cell_length_b 21.424851
_cell_length_c 13.911996
_cell_angle_alpha 90.000000
_cell_angle_beta 149.152079
_cell_angle_gamma 90.000000
_cell_volume 1413.281364
_symmetry_space_group_name_H-M "C 2/C"
_symmetry_group_IT_number 15
_symmetry_cell_setting 'monoclinic'
loop_
_space_group_symop_operation_xyz
x,y,z
-x,y,1/2-z
-x,-y,-z
x,-y,1/2+z
1/2+x,1/2+y,z
1/2-x,1/2+y,1/2-z
1/2-x,1/2-y,-z
1/2+x,1/2-y,1/2+z
loop_
_atom_site_type_symbol
_atom_site_label
_atom_site_fract_x
_atom_site_fract_y
_atom_site_fract_z
Si Si1 0.943380 0.223261 0.322290
Si Si2 0.802079 0.440843 0.869854
Si Si3 0.704514 0.650616 0.775199
Si Si4 0.688256 0.611685 0.110985
O O1 0.758135 0.283967 0.248030
O O2 0.889792 0.171217 0.369252
O O3 0.000000 0.193236 0.250000
O O4 0.250000 0.250000 0.500000
O O5 0.500000 0.444428 0.750000
O O6 0.721805 0.440466 0.711091
O O7 0.000000 0.500000 0.000000
O O8 0.009895 0.382896 0.022215
O O9 0.500000 0.662027 0.750000
O O10 0.535609 0.607188 0.602826
O O11 0.000000 0.622487 0.250000
#
# Coordination Sequence:
#
# PCOD9307573 Si02
#       4
#     8   8   8   8
#     4  12  24  41  70 109 151 193 243 298 368 442
#     4  12  29  52  77 108 146 191 251 308 366 443
#     4  12  26  47  74 110 153 195 247 303 369 442
#     4  12  26  46  76 108 150 198 242 303 374 434
#
# _framework density 22.642341999999999
#
# number of rings (size 3 to 8) (size 9 to 14) (size 15 to 20)
#    0.000    0.000    5.000    5.250    0.000    3.000 
#    0.000    0.000    0.000    0.000    0.000    0.000 
#    0.000    0.000    0.000    0.000    0.000    0.000 
#
# Total GULP energy -89156.345284 kJ/mol
# GULP energy per Si atom -5572.271580 kJ/mol
# Density = 2.259081 g / cm^3
# Si number density = 22.642342 Si / 1000 Ang^3
#
#
#
# Elastic Constant Matrix: (Units=GPa)
#
#
# Indices 1 2 3 4 5 6 
#
# 1 211.1761 36.8334 73.7296 0.0004 19.1147 -0.0001
# 2 36.8334 78.4386 12.9258 0.0002 10.9485 -0.0002
# 3 73.7296 12.9258 135.6075 0.0041 4.5629 0.0000
# 4 0.0004 0.0002 0.0041 29.0597 0.0011 10.0680
# 5 19.1147 10.9485 4.5629 0.0011 56.6862 -0.0003
# 6 -0.0001 -0.0002 0.0000 10.0680 -0.0003 2.4781
#
#
#
# Elastic Compliance Matrix: (Units=1/GPa)
#
#
# Indices 1 2 3 4 5 6 
#
# 1 0.006381 -0.002265 -0.003204 -0.000001 -0.001456 0.000004
# 2 -0.002265 0.014093 -0.000046 0.000000 -0.001954 -0.000001
# 3 -0.003204 -0.000046 0.009109 0.000003 0.000356 -0.000012
# 4 -0.000001 0.000000 0.000003 -0.084422 0.000003 0.342995
# 5 -0.001456 -0.001954 0.000356 0.000003 0.018481 -0.000012
# 6 0.000004 -0.000001 -0.000012 0.342995 -0.000012 -0.990000
#
#
# Mechanical properties :
#
#
# Convention : Reuss Voigt Hill
#
# Bulk Modulus (GPa) = 53.90358 74.68888 64.29623
# Shear Modulus (GPa) = -4.95470 37.76036 16.40283
#
# Velocity S-wave (km/s) = -1.48088 4.08816 2.69445
# Velocity P-wave (km/s) = 4.57539 7.43923 6.17561
#
# Compressibility (1/GPa) = 0.01855164
#
# Stress axis : x y z
#
# Youngs Moduli (GPa) = 156.71309 70.95792 109.78288
#
# Poissons Ratio (x) = 0.16073 0.35180
# Poissons Ratio (y) = 0.35497 0.00505
# Poissons Ratio (z) = 0.50218 0.00326
#
# Static dielectric constant tensor:
#      x y z
#    x 1.769330 0.000000 -0.014490 
#    y 0.000000 1.954570 0.000000 
#    z -0.014490 0.000000 1.834650 
# 
# From -- ./inp_files/23007.got.cif
#   From: 2010.05.17/outbox.cif.g08.bks.cpg/sg15_12_cif.got.tgz:23007.got - 2010.06.03 18:47:42.
