data_PCOD9307601
_publ_section_title
;
Structure prediction by ZEFSAII (Michael W. Deem and Ramdas Pophale) SiO2 
 PCOD9307601
Probable space group: C 2/C
;
_chemical_formula_sum "Si O2"
_cell_formula_units_Z 40
_cell_length_a 21.716195
_cell_length_b 9.630880
_cell_length_c 8.268727
_cell_angle_alpha 90.000000
_cell_angle_beta 92.494093
_cell_angle_gamma 90.000000
_cell_volume 1727.733529
_symmetry_space_group_name_H-M "C 2/C"
_symmetry_group_IT_number 15
_symmetry_cell_setting 'monoclinic'
loop_
_space_group_symop_operation_xyz
x,y,z
-x,y,1/2-z
-x,-y,-z
x,-y,1/2+z
1/2+x,1/2+y,z
1/2-x,1/2+y,1/2-z
1/2-x,1/2-y,-z
1/2+x,1/2-y,1/2+z
loop_
_atom_site_type_symbol
_atom_site_label
_atom_site_fract_x
_atom_site_fract_y
_atom_site_fract_z
Si Si1 0.129840 0.794740 0.002891
Si Si2 0.685100 0.057583 0.179947
Si Si3 0.635079 0.797732 0.992839
Si Si4 0.324712 0.444832 0.805758
Si Si5 0.499977 0.839957 0.055769
O O1 0.176789 0.666100 0.031610
O O2 0.145847 0.911522 0.135921
O O3 0.138143 0.867213 0.830916
O O4 0.061702 0.733755 0.012242
O O5 0.652027 0.133061 0.325389
O O6 0.755530 0.035582 0.235650
O O7 0.652660 0.915261 0.126705
O O8 0.673012 0.660236 0.041304
O O9 0.562433 0.770884 0.997583
O O10 0.500000 0.835576 0.250000
O O11 0.500000 0.000000 0.000000
#
# Coordination Sequence:
#
# PCOD9307601 Si02
#       5
#     8   8   8   8   8
#     4  12  26  46  72 103 148 192 232 297 357 419
#     4  12  24  44  74 106 141 192 236 293 350 428
#     4  12  24  43  71 103 142 185 244 290 350 416
#     4  12  25  46  69 108 148 183 237 291 364 423
#     4  12  25  48  73 103 139 185 248 290 344 426
#
# _framework density 23.151717000000001
#
# number of rings (size 3 to 8) (size 9 to 14) (size 15 to 20)
#    0.000    0.000    4.000    7.200    0.000    0.800 
#    0.000    0.000    0.000    0.000    0.000    0.000 
#    0.000    0.000    0.000    0.000    0.000    0.000 
#
# Total GULP energy -112237.307842 kJ/mol
# GULP energy per Si atom -5611.865392 kJ/mol
# Density = 2.309902 g / cm^3
# Si number density = 23.151717 Si / 1000 Ang^3
#
#
#
# Elastic Constant Matrix: (Units=GPa)
#
#
# Indices 1 2 3 4 5 6 
#
# 1 127.9969 49.3306 25.3858 0.0000 17.2908 0.0000
# 2 49.3306 130.9928 38.5344 0.0000 25.7945 0.0000
# 3 25.3858 38.5344 75.7649 0.0000 8.3392 0.0000
# 4 0.0000 0.0000 0.0000 -94.9946 0.0000 -126.0494
# 5 17.2908 25.7945 8.3392 0.0000 40.7744 0.0000
# 6 0.0000 0.0000 0.0000 -126.0494 0.0000 -97.3540
#
#
#
# Elastic Compliance Matrix: (Units=1/GPa)
#
#
# Indices 1 2 3 4 5 6 
#
# 1 0.009431 -0.002703 -0.001569 0.000000 -0.001969 0.000000
# 2 -0.002703 0.010801 -0.004053 0.000000 -0.004858 0.000000
# 3 -0.001569 -0.004053 0.015786 0.000000 0.000001 0.000000
# 4 0.000000 0.000000 0.000000 0.014661 0.000000 -0.018982
# 5 -0.001969 -0.004858 0.000001 0.000000 0.028433 0.000000
# 6 0.000000 0.000000 0.000000 -0.018982 0.000000 0.014306
#
#
# Mechanical properties :
#
#
# Convention : Reuss Voigt Hill
#
# Bulk Modulus (GPa) = 51.62940 62.36179 56.99559
# Shear Modulus (GPa) = 42.91015 -15.54793 13.68111
#
# Velocity S-wave (km/s) = 4.30982 -2.59427 2.43355
# Velocity P-wave (km/s) = 6.86403 4.24511 5.70683
#
# Compressibility (1/GPa) = 0.01936881
#
# Stress axis : x y z
#
# Youngs Moduli (GPa) = 106.02891 92.58748 63.34843
#
# Poissons Ratio (x) = 0.25022 0.09938
# Poissons Ratio (y) = 0.28655 0.25676
# Poissons Ratio (z) = 0.16634 0.37526
#
# Static dielectric constant tensor:
#      x y z
#    x 1.821670 0.000000 -0.018190 
#    y 0.000000 1.835010 0.000000 
#    z -0.018190 0.000000 1.930450 
# 
# From -- ./inp_files/60090.got.cif
#   From: 2010.05.17/outbox.cif.g08.bks.cpg/sg15_31_cif.got.tgz:60090.got - 2010.06.03 18:47:42.
