data_PCOD9307054
_publ_section_title
;
Structure prediction by ZEFSAII (Michael W. Deem and Ramdas Pophale) SiO2 
 PCOD9307054
Probable space group: C 2/C
;
_chemical_formula_sum "Si O2"
_cell_formula_units_Z 32
_cell_length_a 18.332844
_cell_length_b 4.871544
_cell_length_c 18.357917
_cell_angle_alpha 90.000000
_cell_angle_beta 56.760890
_cell_angle_gamma 90.000000
_cell_volume 1371.288675
_symmetry_space_group_name_H-M "C 2/C"
_symmetry_group_IT_number 15
_symmetry_cell_setting 'monoclinic'
loop_
_space_group_symop_operation_xyz
x,y,z
-x,y,1/2-z
-x,-y,-z
x,-y,1/2+z
1/2+x,1/2+y,z
1/2-x,1/2+y,1/2-z
1/2-x,1/2-y,-z
1/2+x,1/2-y,1/2+z
loop_
_atom_site_type_symbol
_atom_site_label
_atom_site_fract_x
_atom_site_fract_y
_atom_site_fract_z
Si Si1 0.329846 0.344981 0.007851
Si Si2 0.577363 0.143701 0.101935
Si Si3 0.262041 0.226869 0.790648
Si Si4 0.922083 0.095155 0.749551
O O1 0.300475 0.297539 0.106006
O O2 0.250000 0.250000 0.000000
O O3 0.359780 0.654397 0.977596
O O4 0.408956 0.154088 0.937746
O O5 0.606645 0.192891 0.170512
O O6 0.477487 0.246042 0.158059
O O7 0.221698 0.427462 0.751399
O O8 0.349112 0.387639 0.765578
O O9 0.000000 0.933876 0.750000
#
# Coordination Sequence:
#
# PCOD9307054 Si02
#       4
#     8   8   8   8
#     4  12  21  41  67  97 127 168 230 258 313 389
#     4   9  22  37  70  93 118 168 227 264 294 382
#     4  12  27  42  63  99 138 167 206 282 340 370
#     4   8  21  44  67  94 131 170 225 254 327 389
#
# _framework density 23.335712999999998
#
# number of rings (size 3 to 8) (size 9 to 14) (size 15 to 20)
#    1.500    0.000    2.500    2.250    3.500    6.000 
#    0.000    7.500    0.000    0.000    0.000    0.000 
#    0.000    0.000    0.000    0.000    0.000    0.000 
#
# Total GULP energy -89460.002375 kJ/mol
# GULP energy per Si atom -5591.250148 kJ/mol
# Density = 2.328260 g / cm^3
# Si number density = 23.335713 Si / 1000 Ang^3
#
#
#
# Elastic Constant Matrix: (Units=GPa)
#
#
# Indices 1 2 3 4 5 6 
#
# 1 44.4796 -0.3882 19.3284 -0.0172 -7.7767 0.0872
# 2 -0.3882 86.5830 25.4045 0.0739 6.2659 0.0087
# 3 19.3284 25.4045 163.8649 -0.0458 8.1632 0.0179
# 4 -0.0172 0.0739 -0.0458 40.9269 0.0125 1.7251
# 5 -7.7767 6.2659 8.1632 0.0125 29.0361 -0.0350
# 6 0.0872 0.0087 0.0179 1.7251 -0.0350 27.4766
#
#
#
# Elastic Compliance Matrix: (Units=1/GPa)
#
#
# Indices 1 2 3 4 5 6 
#
# 1 0.025323 0.000575 -0.003456 0.000006 0.007630 -0.000069
# 2 0.000575 0.012242 -0.001868 -0.000023 -0.001963 -0.000006
# 3 -0.003456 -0.001868 0.006923 0.000010 -0.002469 0.000003
# 4 0.000006 -0.000023 0.000010 0.024499 -0.000009 -0.001538
# 5 0.007630 -0.001963 -0.002469 -0.000009 0.037601 0.000026
# 6 -0.000069 -0.000006 0.000003 -0.001538 0.000026 0.036491
#
#
# Mechanical properties :
#
#
# Convention : Reuss Voigt Hill
#
# Bulk Modulus (GPa) = 28.57900 42.62412 35.60156
# Shear Modulus (GPa) = 30.44308 36.19344 33.31826
#
# Velocity S-wave (km/s) = 3.61580 3.94253 3.78270
# Velocity P-wave (km/s) = 5.45028 6.24740 5.86240
#
# Compressibility (1/GPa) = 0.03499073
#
# Stress axis : x y z
#
# Youngs Moduli (GPa) = 39.48943 81.68357 144.44862
#
# Poissons Ratio (x) = -0.04701 0.49925
# Poissons Ratio (y) = -0.02273 0.26984
# Poissons Ratio (z) = 0.13649 0.15259
#
# Static dielectric constant tensor:
#      x y z
#    x 1.978770 0.000000 0.005820 
#    y 0.000000 1.857540 -0.000170 
#    z 0.005820 -0.000170 1.845950 
# 
# From -- ./inp_files/212556.got.cif
#   From: 2010.05.17/outbox.cif.g08.bks.cpg/sg15_107_cif.got.tgz:212556.got - 2010.06.03 18:47:42.
