data_PCOD9307482
_publ_section_title
;
Structure prediction by ZEFSAII (Michael W. Deem and Ramdas Pophale) SiO2 
 PCOD9307482
Probable space group: C 2/C
;
_chemical_formula_sum "Si O2"
_cell_formula_units_Z 48
_cell_length_a 5.879217
_cell_length_b 13.990484
_cell_length_c 30.322742
_cell_angle_alpha 90.000000
_cell_angle_beta 61.618593
_cell_angle_gamma 90.000000
_cell_volume 2194.350889
_symmetry_space_group_name_H-M "C 2/C"
_symmetry_group_IT_number 15
_symmetry_cell_setting 'monoclinic'
loop_
_space_group_symop_operation_xyz
x,y,z
-x,y,1/2-z
-x,-y,-z
x,-y,1/2+z
1/2+x,1/2+y,z
1/2-x,1/2+y,1/2-z
1/2-x,1/2-y,-z
1/2+x,1/2-y,1/2+z
loop_
_atom_site_type_symbol
_atom_site_label
_atom_site_fract_x
_atom_site_fract_y
_atom_site_fract_z
Si Si1 0.314581 0.895289 0.223586
Si Si2 0.634478 0.479423 0.941225
Si Si3 0.932148 0.131238 0.889850
Si Si4 0.124836 0.234309 0.153506
Si Si5 0.687247 0.024380 0.354359
Si Si6 0.046508 0.234304 0.057704
O O1 0.500000 0.900617 0.250000
O O2 0.384795 0.792700 0.194947
O O3 0.000000 0.904287 0.250000
O O4 0.408729 0.982555 0.183256
O O5 0.550136 0.565740 0.917342
O O6 0.539135 0.375716 0.934953
O O7 0.944296 0.470363 0.910265
O O8 0.500000 0.500000 0.000000
O O9 0.685214 0.191105 0.928687
O O10 0.126600 0.208678 0.852457
O O11 0.863131 0.057601 0.858267
O O12 0.161904 0.123951 0.161817
O O13 0.137996 0.248970 0.099433
O O14 0.250000 0.250000 0.000000
#
# Coordination Sequence:
#
# PCOD9307482 Si02
#       6
#     8   8   8   8   8   8
#     4  12  29  54  84 114 154 204 264 336 404 466
#     4  12  26  42  72 112 156 206 255 309 386 468
#     4  12  23  46  72 104 164 196 253 316 377 460
#     4  12  26  48  76 111 147 203 252 321 392 469
#     4  12  26  48  76 111 147 203 252 321 392 469
#     4  12  26  42  72 112 156 206 255 309 386 468
#
# _framework density 21.874351000000001
#
# number of rings (size 3 to 8) (size 9 to 14) (size 15 to 20)
#    0.000    0.000    6.667    3.000    2.333    3.333 
#    0.000    5.000    0.000    0.000    0.000    0.000 
#    0.000    0.000    0.000    0.000    0.000    0.000 
#
# Total GULP energy -134164.715555 kJ/mol
# GULP energy per Si atom -5590.196481 kJ/mol
# Density = 2.182456 g / cm^3
# Si number density = 21.874351 Si / 1000 Ang^3
#
#
#
# Elastic Constant Matrix: (Units=GPa)
#
#
# Indices 1 2 3 4 5 6 
#
# 1 61.6788 6.4975 19.8501 0.0026 -7.3625 -0.0010
# 2 6.4975 111.0087 -4.6385 0.0020 -11.5885 -0.0009
# 3 19.8501 -4.6385 80.7349 0.0012 -2.6243 -0.0009
# 4 0.0026 0.0020 0.0012 14.4164 -0.0005 -5.3335
# 5 -7.3625 -11.5885 -2.6243 -0.0005 40.1435 0.0005
# 6 -0.0010 -0.0009 -0.0009 -5.3335 0.0005 56.3093
#
#
#
# Elastic Compliance Matrix: (Units=1/GPa)
#
#
# Indices 1 2 3 4 5 6 
#
# 1 0.018060 -0.000954 -0.004406 -0.000003 0.002749 0.000000
# 2 -0.000954 0.009370 0.000857 -0.000001 0.002586 0.000000
# 3 -0.004406 0.000857 0.013529 0.000000 0.000324 0.000000
# 4 -0.000003 -0.000001 0.000000 0.071885 0.000000 0.006809
# 5 0.002749 0.002586 0.000324 0.000000 0.026182 0.000000
# 6 0.000000 0.000000 0.000000 0.006809 0.000000 0.018404
#
#
# Mechanical properties :
#
#
# Convention : Reuss Voigt Hill
#
# Bulk Modulus (GPa) = 31.29616 32.98230 32.13923
# Shear Modulus (GPa) = 28.23482 37.62140 32.92811
#
# Velocity S-wave (km/s) = 3.59663 4.15165 3.88407
# Velocity P-wave (km/s) = 5.62014 6.17190 5.90247
#
# Compressibility (1/GPa) = 0.03195280
#
# Stress axis : x y z
#
# Youngs Moduli (GPa) = 55.37239 106.72462 73.91421
#
# Poissons Ratio (x) = 0.10184 0.32565
# Poissons Ratio (y) = 0.05284 -0.06334
# Poissons Ratio (z) = 0.24396 -0.09146
#
# Static dielectric constant tensor:
#      x y z
#    x 1.892020 0.000000 -0.060800 
#    y 0.000000 1.785380 0.000000 
#    z -0.060800 0.000000 2.199790 
# 
# From -- ./inp_files/305297.got.cif
#   From: 2010.05.17/outbox.cif.g08.bks.cpg/sg15_153_cif.got.tgz:305297.got - 2010.06.03 18:47:42.
