data_PCOD9307049
_publ_section_title
;
Structure prediction by ZEFSAII (Michael W. Deem and Ramdas Pophale) SiO2 
 PCOD9307049
Probable space group: C 2/C
;
_chemical_formula_sum "Si O2"
_cell_formula_units_Z 44
_cell_length_a 18.364516
_cell_length_b 5.096832
_cell_length_c 18.323194
_cell_angle_alpha 90.000000
_cell_angle_beta 86.671614
_cell_angle_gamma 90.000000
_cell_volume 1712.173568
_symmetry_space_group_name_H-M "C 2/C"
_symmetry_group_IT_number 15
_symmetry_cell_setting 'monoclinic'
loop_
_space_group_symop_operation_xyz
x,y,z
-x,y,1/2-z
-x,-y,-z
x,-y,1/2+z
1/2+x,1/2+y,z
1/2-x,1/2+y,1/2-z
1/2-x,1/2-y,-z
1/2+x,1/2-y,1/2+z
loop_
_atom_site_type_symbol
_atom_site_label
_atom_site_fract_x
_atom_site_fract_y
_atom_site_fract_z
Si Si1 0.500000 0.192818 0.250000
Si Si2 0.608928 0.496335 0.163524
Si Si3 0.495632 0.228909 0.093006
Si Si4 0.148137 0.352832 0.536120
Si Si5 0.234608 0.674568 0.701500
Si Si6 0.332629 0.657250 0.552949
O O1 0.573474 0.366980 0.237079
O O2 0.493424 0.068848 0.170384
O O3 0.537494 0.500526 0.115837
O O4 0.658981 0.291273 0.113979
O O5 0.652737 0.752706 0.180282
O O6 0.559982 0.116339 0.039510
O O7 0.416777 0.291126 0.069677
O O8 0.172655 0.136687 0.476618
O O9 0.180999 0.628671 0.510270
O O10 0.285265 0.689738 0.627782
O O11 0.243736 0.407141 0.744448
#
# Coordination Sequence:
#
# PCOD9307049 Si02
#       6
#     4   8   8   8   8   8
#     4   6  14  34  62  82 126 164 210 258 320 362
#     4   8  20  41  63  96 128 170 214 274 316 395
#     4   8  18  37  64  92 130 164 220 264 319 384
#     4   9  23  37  66  93 129 164 219 260 324 385
#     4  12  27  44  66  94 133 172 223 268 332 391
#     4  12  21  41  65  94 127 173 208 270 325 385
#
# _framework density 25.698326000000002
#
# number of rings (size 3 to 8) (size 9 to 14) (size 15 to 20)
#    2.182    0.000    0.000    3.273    0.000    2.909 
#    0.000    0.000    0.000    1.091    0.000    0.000 
#    0.000    0.000    0.000    0.000    0.000    0.000 
#
# Total GULP energy -122874.712530 kJ/mol
# GULP energy per Si atom -5585.214206 kJ/mol
# Density = 2.563984 g / cm^3
# Si number density = 25.698326 Si / 1000 Ang^3
#
#
#
# Elastic Constant Matrix: (Units=GPa)
#
#
# Indices 1 2 3 4 5 6 
#
# 1 106.7874 25.0500 40.7093 0.0000 -2.6300 0.0000
# 2 25.0500 99.6557 49.3049 0.0000 4.8848 0.0000
# 3 40.7093 49.3049 129.5751 0.0000 -18.7908 0.0000
# 4 0.0000 0.0000 0.0000 -15.2493 0.0000 -8.6561
# 5 -2.6300 4.8848 -18.7908 0.0000 37.7436 0.0000
# 6 0.0000 0.0000 0.0000 -8.6561 0.0000 12.9738
#
#
#
# Elastic Compliance Matrix: (Units=1/GPa)
#
#
# Indices 1 2 3 4 5 6 
#
# 1 0.010780 -0.001185 -0.003023 0.000000 -0.000601 0.000000
# 2 -0.001185 0.013158 -0.005274 0.000000 -0.004411 0.000000
# 3 -0.003023 -0.005274 0.011579 0.000000 0.006236 0.000000
# 4 0.000000 0.000000 0.000000 -0.047563 0.000000 -0.031734
# 5 -0.000601 -0.004411 0.006236 0.000000 0.030129 0.000000
# 6 0.000000 0.000000 0.000000 -0.031734 0.000000 0.055905
#
#
# Mechanical properties :
#
#
# Convention : Reuss Voigt Hill
#
# Bulk Modulus (GPa) = 60.41367 62.90517 61.65942
# Shear Modulus (GPa) = 50.77741 21.82388 36.30065
#
# Velocity S-wave (km/s) = 4.44994 2.91732 3.76249
# Velocity P-wave (km/s) = 7.06841 5.98992 6.55140
#
# Compressibility (1/GPa) = 0.01655254
#
# Stress axis : x y z
#
# Youngs Moduli (GPa) = 92.76464 75.99919 86.36546
#
# Poissons Ratio (x) = 0.09002 0.26110
# Poissons Ratio (y) = 0.10988 0.45552
# Poissons Ratio (z) = 0.28044 0.40085
#
# Static dielectric constant tensor:
#      x y z
#    x 2.082200 0.000000 0.039580 
#    y 0.000000 2.010490 0.000000 
#    z 0.039580 0.000000 2.006600 
# 
# From -- ./inp_files/254568.got.cif
#   From: 2010.05.17/outbox.cif.g08.bks.cpg/sg15_128_cif.got.tgz:254568.got - 2010.06.03 18:47:42.
