data_PCOD9307923
_publ_section_title
;
Structure prediction by ZEFSAII (Michael W. Deem and Ramdas Pophale) SiO2 
 PCOD9307923
Probable space group: C 2/C
;
_chemical_formula_sum "Si O2"
_cell_formula_units_Z 40
_cell_length_a 9.505468
_cell_length_b 18.397802
_cell_length_c 11.429536
_cell_angle_alpha 90.000000
_cell_angle_beta 101.030118
_cell_angle_gamma 90.000000
_cell_volume 1961.869808
_symmetry_space_group_name_H-M "C 2/C"
_symmetry_group_IT_number 15
_symmetry_cell_setting 'monoclinic'
loop_
_space_group_symop_operation_xyz
x,y,z
-x,y,1/2-z
-x,-y,-z
x,-y,1/2+z
1/2+x,1/2+y,z
1/2-x,1/2+y,1/2-z
1/2-x,1/2-y,-z
1/2+x,1/2-y,1/2+z
loop_
_atom_site_type_symbol
_atom_site_label
_atom_site_fract_x
_atom_site_fract_y
_atom_site_fract_z
Si Si1 0.342478 0.893652 0.760821
Si Si2 0.601141 0.066686 0.977484
Si Si3 0.000000 0.329003 0.250000
Si Si4 0.235621 0.760609 0.358033
Si Si5 0.133576 0.993701 0.108276
Si Si6 0.000000 0.125745 0.750000
O O1 0.500000 0.925222 0.750000
O O2 0.322974 0.815448 0.700170
O O3 0.205868 0.942233 0.698281
O O4 0.357131 0.887189 0.902140
O O5 0.550924 0.117990 0.863514
O O6 0.740468 0.026567 0.957147
O O7 0.500000 0.000000 0.000000
O O8 0.126684 0.283156 0.202695
O O9 0.250000 0.750000 0.500000
O O10 0.116335 0.822956 0.328530
O O11 0.091642 0.927147 0.183522
O O12 0.000000 0.000000 0.000000
#
# Coordination Sequence:
#
# PCOD9307923 Si02
#       6
#     8   8   4   8   8   4
#     4  12  25  46  76 109 149 207 257 316 396 469
#     4  12  25  45  76 107 149 195 262 321 386 470
#     4  12  28  49  75 112 150 212 258 322 406 469
#     4  12  28  49  76 109 158 203 262 323 394 474
#     4  12  26  45  74 112 151 196 257 325 386 456
#     4  12  26  47  71 112 150 198 250 320 386 459
#
# _framework density 20.388712000000002
#
# number of rings (size 3 to 8) (size 9 to 14) (size 15 to 20)
#    0.000    0.000    5.000    4.800    2.800    4.800 
#    0.000    0.000    0.000    0.000    0.000    0.000 
#    0.000    0.000    0.000    0.000    0.000    0.000 
#
# Total GULP energy -111587.085433 kJ/mol
# GULP energy per Si atom -5579.354272 kJ/mol
# Density = 2.034231 g / cm^3
# Si number density = 20.388712 Si / 1000 Ang^3
#
#
#
# Elastic Constant Matrix: (Units=GPa)
#
#
# Indices 1 2 3 4 5 6 
#
# 1 158.4523 56.7830 56.8525 0.0000 -3.1885 0.0000
# 2 56.7830 128.6397 82.2757 0.0000 16.6925 0.0000
# 3 56.8525 82.2757 205.9391 0.0000 9.2742 0.0000
# 4 0.0000 0.0000 0.0000 42.9689 0.0000 0.4770
# 5 -3.1885 16.6925 9.2742 0.0000 42.8171 0.0000
# 6 0.0000 0.0000 0.0000 0.4770 0.0000 44.9337
#
#
#
# Elastic Compliance Matrix: (Units=1/GPa)
#
#
# Indices 1 2 3 4 5 6 
#
# 1 0.007813 -0.003050 -0.001028 0.000000 0.001994 0.000000
# 2 -0.003050 0.012085 -0.003801 0.000000 -0.004115 0.000000
# 3 -0.001028 -0.003801 0.006660 0.000000 -0.000037 0.000000
# 4 0.000000 0.000000 0.000000 0.023275 0.000000 -0.000247
# 5 0.001994 -0.004115 -0.000037 0.000000 0.025116 0.000000
# 6 0.000000 0.000000 0.000000 -0.000247 0.000000 0.022258
#
#
# Mechanical properties :
#
#
# Convention : Reuss Voigt Hill
#
# Bulk Modulus (GPa) = 92.59277 98.31706 95.45491
# Shear Modulus (GPa) = 42.89480 45.95195 44.42338
#
# Velocity S-wave (km/s) = 4.59175 4.75256 4.67285
# Velocity P-wave (km/s) = 8.58048 8.85674 8.71970
#
# Compressibility (1/GPa) = 0.01079998
#
# Stress axis : x y z
#
# Youngs Moduli (GPa) = 127.99157 82.74874 150.15433
#
# Poissons Ratio (x) = 0.25237 0.15439
# Poissons Ratio (y) = 0.39035 0.57070
# Poissons Ratio (z) = 0.13161 0.31451
#
# Static dielectric constant tensor:
#      x y z
#    x 1.619610 0.000000 -0.441290 
#    y 0.000000 1.699280 0.000000 
#    z -0.441290 0.000000 0.316230 
# 
# From -- ./inp_files/76871.got.cif
#   From: 2010.05.17/outbox.cif.g08.bks.cpg/sg15_39_cif.got.tgz:76871.got - 2010.06.03 18:47:42.
