data_PCOD9307726
_publ_section_title
;
Structure prediction by ZEFSAII (Michael W. Deem and Ramdas Pophale) SiO2 
 PCOD9307726
Probable space group: C 2/C
;
_chemical_formula_sum "Si O2"
_cell_formula_units_Z 32
_cell_length_a 13.942087
_cell_length_b 11.319665
_cell_length_c 19.076150
_cell_angle_alpha 90.000000
_cell_angle_beta 26.235960
_cell_angle_gamma 90.000000
_cell_volume 1330.889681
_symmetry_space_group_name_H-M "C 2/C"
_symmetry_group_IT_number 15
_symmetry_cell_setting 'monoclinic'
loop_
_space_group_symop_operation_xyz
x,y,z
-x,y,1/2-z
-x,-y,-z
x,-y,1/2+z
1/2+x,1/2+y,z
1/2-x,1/2+y,1/2-z
1/2-x,1/2-y,-z
1/2+x,1/2-y,1/2+z
loop_
_atom_site_type_symbol
_atom_site_label
_atom_site_fract_x
_atom_site_fract_y
_atom_site_fract_z
Si Si1 0.775237 0.235433 0.900668
Si Si2 0.056885 0.672579 0.593850
Si Si3 0.746616 0.027293 0.177705
Si Si4 0.175642 0.640702 0.359433
O O1 0.799219 0.354398 0.837384
O O2 0.000000 0.164493 0.750000
O O3 0.750000 0.250000 0.000000
O O4 0.562337 0.176124 0.010339
O O5 0.250000 0.750000 0.500000
O O6 0.157166 0.629114 0.454446
O O7 0.946002 0.566246 0.709587
O O8 0.851137 0.760400 0.722193
O O9 0.737970 0.034129 0.268394
O O10 0.000000 0.000000 0.000000
#
# Coordination Sequence:
#
# PCOD9307726 Si02
#       4
#     8   8   8   8
#     4  12  24  46  76 104 149 197 262 318 384 461
#     4  12  26  49  78 114 158 207 264 327 397 475
#     4  12  26  48  81 110 157 213 258 324 405 459
#     4  12  24  50  73 109 161 197 260 333 381 479
#
# _framework density 24.044066000000001
#
# number of rings (size 3 to 8) (size 9 to 14) (size 15 to 20)
#    0.000    0.000    7.500    1.500    0.000    4.000 
#    0.000    0.000    0.000    0.000    0.000    0.000 
#    0.000    0.000    0.000    0.000    0.000    0.000 
#
# Total GULP energy -89385.065845 kJ/mol
# GULP energy per Si atom -5586.566615 kJ/mol
# Density = 2.398934 g / cm^3
# Si number density = 24.044066 Si / 1000 Ang^3
#
#
#
# Elastic Constant Matrix: (Units=GPa)
#
#
# Indices 1 2 3 4 5 6 
#
# 1 157.0317 24.9034 73.9251 -0.0037 17.4075 0.0013
# 2 24.9034 59.5136 43.7430 -0.0062 7.3340 -0.0001
# 3 73.9251 43.7430 210.0687 -0.0136 -7.3805 0.0044
# 4 -0.0037 -0.0062 -0.0136 53.3863 0.0048 4.5698
# 5 17.4075 7.3340 -7.3805 0.0048 46.2272 -0.0014
# 6 0.0013 -0.0001 0.0044 4.5698 -0.0014 28.4754
#
#
#
# Elastic Compliance Matrix: (Units=1/GPa)
#
#
# Indices 1 2 3 4 5 6 
#
# 1 0.008220 -0.000954 -0.002813 0.000000 -0.003393 0.000000
# 2 -0.000954 0.020647 -0.004089 0.000002 -0.003570 0.000000
# 3 -0.002813 -0.004089 0.006699 0.000001 0.002778 -0.000001
# 4 0.000000 0.000002 0.000001 0.018992 -0.000002 -0.003048
# 5 -0.003393 -0.003570 0.002778 -0.000002 0.023920 0.000001
# 6 0.000000 0.000000 -0.000001 -0.003048 0.000001 0.035607
#
#
# Mechanical properties :
#
#
# Convention : Reuss Voigt Hill
#
# Bulk Modulus (GPa) = 50.36664 79.08412 64.72538
# Shear Modulus (GPa) = 36.65238 44.55395 40.60317
#
# Velocity S-wave (km/s) = 3.90857 4.30933 4.11384
# Velocity P-wave (km/s) = 6.43136 7.59758 7.03866
#
# Compressibility (1/GPa) = 0.01985441
#
# Stress axis : x y z
#
# Youngs Moduli (GPa) = 121.65544 48.43211 149.26516
#
# Poissons Ratio (x) = 0.04619 0.41993
# Poissons Ratio (y) = 0.11602 0.61039
# Poissons Ratio (z) = 0.34225 0.19805
#
# Static dielectric constant tensor:
#      x y z
#    x 1.962220 -0.000030 0.022800 
#    y -0.000030 2.232460 -0.000010 
#    z 0.022800 -0.000010 1.987790 
# 
# From -- ./inp_files/244660.got.cif
#   From: 2010.05.17/outbox.cif.g08.bks.cpg/sg15_123_cif.got.tgz:244660.got - 2010.06.03 18:47:42.
