data_PCOD9307945
_publ_section_title
;
Structure prediction by ZEFSAII (Michael W. Deem and Ramdas Pophale) SiO2 
 PCOD9307945
Probable space group: C 2/C
;
_chemical_formula_sum "Si O2"
_cell_formula_units_Z 36
_cell_length_a 5.055964
_cell_length_b 23.560938
_cell_length_c 13.875293
_cell_angle_alpha 90.000000
_cell_angle_beta 91.160272
_cell_angle_gamma 90.000000
_cell_volume 1652.531160
_symmetry_space_group_name_H-M "C 2/C"
_symmetry_group_IT_number 15
_symmetry_cell_setting 'monoclinic'
loop_
_space_group_symop_operation_xyz
x,y,z
-x,y,1/2-z
-x,-y,-z
x,-y,1/2+z
1/2+x,1/2+y,z
1/2-x,1/2+y,1/2-z
1/2-x,1/2-y,-z
1/2+x,1/2-y,1/2+z
loop_
_atom_site_type_symbol
_atom_site_label
_atom_site_fract_x
_atom_site_fract_y
_atom_site_fract_z
Si Si1 0.231663 0.976218 0.686294
Si Si2 0.997648 0.731264 0.062370
Si Si3 0.315169 0.110427 0.015025
Si Si4 0.000000 0.192473 0.750000
Si Si5 0.803625 0.898340 0.381614
O O1 0.500000 0.980370 0.750000
O O2 0.278039 0.939592 0.591031
O O3 0.000000 0.949737 0.750000
O O4 0.135644 0.038862 0.655410
O O5 0.950457 0.663900 0.070310
O O6 0.966658 0.764662 0.161380
O O7 0.750000 0.750000 0.000000
O O8 0.250000 0.750000 0.000000
O O9 0.525931 0.097047 0.933522
O O10 0.035450 0.120506 0.958176
O O11 0.794228 0.147406 0.795221
#
# Coordination Sequence:
#
# PCOD9307945 Si02
#       5
#     8   8   8   4   8
#     4  12  26  44  72 109 144 188 242 301 366 432
#     4  12  26  47  70 106 143 185 244 301 362 434
#     4  12  25  48  69 103 144 191 235 302 364 429
#     4  12  26  46  78 102 144 194 242 302 364 434
#     4  12  25  46  74 100 143 188 248 292 359 435
#
# _framework density 21.784761
#
# number of rings (size 3 to 8) (size 9 to 14) (size 15 to 20)
#    0.000    0.000    5.556    4.000    1.556    2.667 
#    0.000    0.000    0.000    0.000    0.000    0.000 
#    0.000    0.000    0.000    0.000    0.000    0.000 
#
# Total GULP energy -100597.927659 kJ/mol
# GULP energy per Si atom -5588.773759 kJ/mol
# Density = 2.173518 g / cm^3
# Si number density = 21.784761 Si / 1000 Ang^3
#
#
#
# Elastic Constant Matrix: (Units=GPa)
#
#
# Indices 1 2 3 4 5 6 
#
# 1 133.8761 15.8853 56.4794 0.0000 -2.9421 0.0000
# 2 15.8853 130.8862 66.5195 0.0000 -6.3651 0.0000
# 3 56.4794 66.5195 166.5974 0.0000 -16.2678 0.0000
# 4 0.0000 0.0000 0.0000 19.9121 0.0000 -3.9268
# 5 -2.9421 -6.3651 -16.2678 0.0000 37.2466 0.0000
# 6 0.0000 0.0000 0.0000 -3.9268 0.0000 27.6273
#
#
#
# Elastic Compliance Matrix: (Units=1/GPa)
#
#
# Indices 1 2 3 4 5 6 
#
# 1 0.008763 0.000561 -0.003257 0.000000 -0.000634 0.000000
# 2 0.000561 0.009621 -0.004039 0.000000 -0.000076 0.000000
# 3 -0.003257 -0.004039 0.009011 0.000000 0.002988 0.000000
# 4 0.000000 0.000000 0.000000 0.051669 0.000000 0.007344
# 5 -0.000634 -0.000076 0.002988 0.000000 0.028090 0.000000
# 6 0.000000 0.000000 0.000000 0.007344 0.000000 0.037240
#
#
# Mechanical properties :
#
#
# Convention : Reuss Voigt Hill
#
# Bulk Modulus (GPa) = 71.81157 78.79202 75.30180
# Shear Modulus (GPa) = 30.76806 36.45557 33.61182
#
# Velocity S-wave (km/s) = 3.76222 4.09521 3.93224
# Velocity P-wave (km/s) = 7.20473 7.65558 7.43358
#
# Compressibility (1/GPa) = 0.01392533
#
# Stress axis : x y z
#
# Youngs Moduli (GPa) = 114.11586 103.93662 110.97464
#
# Poissons Ratio (x) = -0.05828 0.36140
# Poissons Ratio (y) = -0.06399 0.44823
# Poissons Ratio (z) = 0.37163 0.41981
#
# Static dielectric constant tensor:
#      x y z
#    x 1.789200 0.000000 -0.003730 
#    y 0.000000 2.000210 0.000000 
#    z -0.003730 0.000000 1.770110 
# 
# From -- ./inp_files/72622.got.cif
#   From: 2010.05.17/outbox.cif.g08.bks.cpg/sg15_37_cif.got.tgz:72622.got - 2010.06.03 18:47:42.
