data_PCOD9307624
_publ_section_title
;
Structure prediction by ZEFSAII (Michael W. Deem and Ramdas Pophale) SiO2 
 PCOD9307624
Probable space group: C 2/C
;
_chemical_formula_sum "Si O2"
_cell_formula_units_Z 40
_cell_length_a 22.778411
_cell_length_b 16.807445
_cell_length_c 12.613318
_cell_angle_alpha 90.000000
_cell_angle_beta 20.683423
_cell_angle_gamma 90.000000
_cell_volume 1705.612253
_symmetry_space_group_name_H-M "C 2/C"
_symmetry_group_IT_number 15
_symmetry_cell_setting 'monoclinic'
loop_
_space_group_symop_operation_xyz
x,y,z
-x,y,1/2-z
-x,-y,-z
x,-y,1/2+z
1/2+x,1/2+y,z
1/2-x,1/2+y,1/2-z
1/2-x,1/2-y,-z
1/2+x,1/2-y,1/2+z
loop_
_atom_site_type_symbol
_atom_site_label
_atom_site_fract_x
_atom_site_fract_y
_atom_site_fract_z
Si Si1 0.190225 0.026881 0.201045
Si Si2 0.000000 0.256104 0.750000
Si Si3 0.627446 0.876677 0.693571
Si Si4 0.222094 0.665762 0.609034
Si Si5 0.500000 0.745571 0.250000
Si Si6 0.240806 0.641166 0.231232
O O1 0.233012 0.061512 0.245492
O O2 0.223583 0.099597 0.065659
O O3 0.000000 0.000000 0.500000
O O4 0.319223 0.957358 0.953648
O O5 0.874185 0.308633 0.893051
O O6 0.108287 0.199125 0.492740
O O7 0.744846 0.870343 0.598300
O O8 0.445001 0.865633 0.053032
O O9 0.250000 0.750000 0.500000
O O10 0.352466 0.683934 0.480371
O O11 0.426300 0.809195 0.459313
#
# Coordination Sequence:
#
# PCOD9307624 Si02
#       6
#     8   4   8   8   4   8
#     4  12  29  48  74 113 161 201 255 320 404 460
#     4  12  26  47  79 112 146 202 264 316 390 465
#     4  12  27  46  78 114 154 199 261 324 398 459
#     4  12  24  48  75 110 145 207 257 317 379 476
#     4  12  24  43  81 106 146 192 272 306 384 451
#     4  12  25  49  75 111 151 202 257 323 378 474
#
# _framework density 23.451986999999999
#
# number of rings (size 3 to 8) (size 9 to 14) (size 15 to 20)
#    0.000    0.000    6.000    2.400    2.800    5.600 
#    0.000    0.000    0.000    0.000    0.000    0.000 
#    0.000    0.000    0.000    0.000    0.000    0.000 
#
# Total GULP energy -111707.689784 kJ/mol
# GULP energy per Si atom -5585.384489 kJ/mol
# Density = 2.339861 g / cm^3
# Si number density = 23.451987 Si / 1000 Ang^3
#
#
#
# Elastic Constant Matrix: (Units=GPa)
#
#
# Indices 1 2 3 4 5 6 
#
# 1 109.5262 54.1780 21.9436 -0.0005 0.5952 0.0000
# 2 54.1780 175.6573 74.0963 -0.0017 1.1325 0.0008
# 3 21.9436 74.0963 133.7367 -0.0014 -7.4801 0.0008
# 4 -0.0005 -0.0017 -0.0014 47.6916 0.0003 9.2334
# 5 0.5952 1.1325 -7.4801 0.0003 32.1876 -0.0002
# 6 0.0000 0.0008 0.0008 9.2334 -0.0002 35.8394
#
#
#
# Elastic Compliance Matrix: (Units=1/GPa)
#
#
# Indices 1 2 3 4 5 6 
#
# 1 0.010775 -0.003361 0.000091 0.000000 -0.000060 0.000000
# 2 -0.003361 0.008526 -0.004241 0.000000 -0.001223 0.000000
# 3 0.000091 -0.004241 0.009950 0.000000 0.002460 0.000000
# 4 0.000000 0.000000 0.000000 0.022069 0.000000 -0.005686
# 5 -0.000060 -0.001223 0.002460 0.000000 0.031684 0.000000
# 6 0.000000 0.000000 0.000000 -0.005686 0.000000 0.029367
#
#
# Mechanical properties :
#
#
# Convention : Reuss Voigt Hill
#
# Bulk Modulus (GPa) = 70.28072 79.92844 75.10458
# Shear Modulus (GPa) = 37.83975 41.05721 39.44848
#
# Velocity S-wave (km/s) = 4.02120 4.18867 4.10579
# Velocity P-wave (km/s) = 7.18283 7.58610 7.38722
#
# Compressibility (1/GPa) = 0.01422865
#
# Stress axis : x y z
#
# Youngs Moduli (GPa) = 92.80701 117.28199 100.50555
#
# Poissons Ratio (x) = 0.39423 -0.00915
# Poissons Ratio (y) = 0.31196 0.42624
# Poissons Ratio (z) = -0.00845 0.49739
#
# Static dielectric constant tensor:
#      x y z
#    x 3.718980 0.000010 -2.196340 
#    y 0.000010 1.851690 -0.000010 
#    z -2.196340 -0.000010 4.764000 
# 
# From -- ./inp_files/178302.got.cif
#   From: 2010.05.17/outbox.cif.g08.bks.cpg/sg15_90_cif.got.tgz:178302.got - 2010.06.03 18:47:42.
