data_PCOD9307584
_publ_section_title
;
Structure prediction by ZEFSAII (Michael W. Deem and Ramdas Pophale) SiO2 
 PCOD9307584
Probable space group: C 2/C
;
_chemical_formula_sum "Si O2"
_cell_formula_units_Z 48
_cell_length_a 23.220355
_cell_length_b 8.937615
_cell_length_c 14.182709
_cell_angle_alpha 90.000000
_cell_angle_beta 47.015292
_cell_angle_gamma 90.000000
_cell_volume 2153.204180
_symmetry_space_group_name_H-M "C 2/C"
_symmetry_group_IT_number 15
_symmetry_cell_setting 'monoclinic'
loop_
_space_group_symop_operation_xyz
x,y,z
-x,y,1/2-z
-x,-y,-z
x,-y,1/2+z
1/2+x,1/2+y,z
1/2-x,1/2+y,1/2-z
1/2-x,1/2-y,-z
1/2+x,1/2-y,1/2+z
loop_
_atom_site_type_symbol
_atom_site_label
_atom_site_fract_x
_atom_site_fract_y
_atom_site_fract_z
Si Si1 0.210091 0.136890 0.749408
Si Si2 0.711848 0.082486 0.548777
Si Si3 0.388579 0.855842 0.509902
Si Si4 0.621643 0.097020 0.838796
Si Si5 0.000000 0.835043 0.750000
Si Si6 0.069541 0.077406 0.362935
Si Si7 0.750000 0.750000 0.500000
O O1 0.160431 0.234664 0.878245
O O2 0.292350 0.107527 0.708796
O O3 0.223836 0.228208 0.638597
O O4 0.154100 0.996333 0.789067
O O5 0.750000 0.250000 0.500000
O O6 0.668302 0.057702 0.498410
O O7 0.644572 0.073692 0.704169
O O8 0.764773 0.935660 0.502442
O O9 0.447678 0.769465 0.375622
O O10 0.420045 0.969628 0.553094
O O11 0.576323 0.252858 0.890988
O O12 0.049567 0.926479 0.773133
O O13 0.000000 0.000000 0.500000
#
# Coordination Sequence:
#
# PCOD9307584 Si02
#       7
#     8   8   8   8   4   8   4
#     4  12  25  45  79 114 154 198 265 337 399 477
#     4  12  24  42  73 111 158 203 251 330 404 471
#     4  12  25  47  72 106 154 207 258 327 402 478
#     4  12  25  45  76 112 153 201 266 334 403 475
#     4  12  28  52  76 104 160 214 268 316 414 490
#     4  12  28  51  78 113 159 215 265 331 408 495
#     4  12  26  40  70 124 150 196 270 324 406 474
#
# _framework density 22.292358
#
# number of rings (size 3 to 8) (size 9 to 14) (size 15 to 20)
#    0.000    0.000    8.333    2.000    0.000    2.000 
#    3.000    0.000    0.000    0.000    0.000    0.000 
#    0.000    0.000    0.000    0.000    0.000    0.000 
#
# Total GULP energy -133646.043116 kJ/mol
# GULP energy per Si atom -5568.585130 kJ/mol
# Density = 2.224162 g / cm^3
# Si number density = 22.292358 Si / 1000 Ang^3
#
#
#
# Elastic Constant Matrix: (Units=GPa)
#
#
# Indices 1 2 3 4 5 6 
#
# 1 103.9927 34.7982 36.4001 0.0000 7.2001 0.0000
# 2 34.7982 116.5542 44.4184 0.0000 13.2411 0.0000
# 3 36.4001 44.4184 140.1490 0.0000 40.6637 0.0000
# 4 0.0000 0.0000 0.0000 49.4843 0.0000 9.2373
# 5 7.2001 13.2411 40.6637 0.0000 39.7989 0.0000
# 6 0.0000 0.0000 0.0000 9.2373 0.0000 25.2520
#
#
#
# Elastic Compliance Matrix: (Units=1/GPa)
#
#
# Indices 1 2 3 4 5 6 
#
# 1 0.011257 -0.002560 -0.002514 0.000000 0.001384 0.000000
# 2 -0.002560 0.010341 -0.002486 0.000000 -0.000438 0.000000
# 3 -0.002514 -0.002486 0.011661 0.000000 -0.010633 0.000000
# 4 0.000000 0.000000 0.000000 0.021690 0.000000 -0.007934
# 5 0.001384 -0.000438 -0.010633 0.000000 0.035885 0.000000
# 6 0.000000 0.000000 0.000000 -0.007934 0.000000 0.042503
#
#
# Mechanical properties :
#
#
# Convention : Reuss Voigt Hill
#
# Bulk Modulus (GPa) = 55.12647 65.76992 60.44819
# Shear Modulus (GPa) = 32.36208 39.24565 35.80387
#
# Velocity S-wave (km/s) = 3.81427 4.20038 4.01197
# Velocity P-wave (km/s) = 6.64686 7.28640 6.97397
#
# Compressibility (1/GPa) = 0.01814011
#
# Stress axis : x y z
#
# Youngs Moduli (GPa) = 88.83549 96.70272 85.75667
#
# Poissons Ratio (x) = 0.24756 0.21557
# Poissons Ratio (y) = 0.22742 0.21315
# Poissons Ratio (z) = 0.22331 0.24036
#
# Static dielectric constant tensor:
#      x y z
#    x 1.896620 0.000000 -0.038910 
#    y 0.000000 1.882050 0.000000 
#    z -0.038910 0.000000 1.857760 
# 
# From -- ./inp_files/176943.got.cif
#   From: 2010.05.17/outbox.cif.g08.bks.cpg/sg15_89_cif.got.tgz:176943.got - 2010.06.03 18:47:42.
