data_PCOD9307608
_publ_section_title
;
Structure prediction by ZEFSAII (Michael W. Deem and Ramdas Pophale) SiO2 
 PCOD9307608
Probable space group: C 2/C
;
_chemical_formula_sum "Si O2"
_cell_formula_units_Z 32
_cell_length_a 5.976671
_cell_length_b 18.812702
_cell_length_c 11.551302
_cell_angle_alpha 90.000000
_cell_angle_beta 86.919003
_cell_angle_gamma 90.000000
_cell_volume 1296.920215
_symmetry_space_group_name_H-M "C 2/C"
_symmetry_group_IT_number 15
_symmetry_cell_setting 'monoclinic'
loop_
_space_group_symop_operation_xyz
x,y,z
-x,y,1/2-z
-x,-y,-z
x,-y,1/2+z
1/2+x,1/2+y,z
1/2-x,1/2+y,1/2-z
1/2-x,1/2-y,-z
1/2+x,1/2-y,1/2+z
loop_
_atom_site_type_symbol
_atom_site_label
_atom_site_fract_x
_atom_site_fract_y
_atom_site_fract_z
Si Si1 0.637733 0.381220 0.900252
Si Si2 0.119550 0.477949 0.119312
Si Si3 0.070210 0.151172 0.876651
Si Si4 0.773914 0.791919 0.799595
O O1 0.684806 0.462663 0.876965
O O2 0.389208 0.354728 0.869769
O O3 0.798520 0.332658 0.816098
O O4 0.639319 0.362602 0.034017
O O5 0.226617 0.400836 0.099395
O O6 0.000000 0.480680 0.250000
O O7 0.000000 0.500000 0.000000
O O8 0.135543 0.233872 0.870749
O O9 0.000000 0.132090 0.750000
O O10 0.000000 0.750240 0.750000
#
# Coordination Sequence:
#
# PCOD9307608 Si02
#       4
#     8   8   8   8
#     4   9  23  45  71  95 144 185 234 282 366 418
#     4  12  28  46  74 106 148 189 244 296 359 426
#     4  12  24  43  72 108 143 183 241 301 353 426
#     4   8  22  42  68  99 138 180 231 281 358 418
#
# _framework density 24.673839999999998
#
# number of rings (size 3 to 8) (size 9 to 14) (size 15 to 20)
#    1.500    0.000    0.000    3.750   10.500    2.000 
#    4.500    0.000    0.000    0.000    0.000    0.000 
#    0.000    0.000    0.000    0.000    0.000    0.000 
#
# Total GULP energy -89195.766860 kJ/mol
# GULP energy per Si atom -5574.735429 kJ/mol
# Density = 2.461768 g / cm^3
# Si number density = 24.673840 Si / 1000 Ang^3
#
#
#
# Elastic Constant Matrix: (Units=GPa)
#
#
# Indices 1 2 3 4 5 6 
#
# 1 32.9573 22.4438 50.5139 0.0000 1.4064 0.0000
# 2 22.4438 96.1000 61.1807 0.0000 4.6607 0.0000
# 3 50.5139 61.1807 186.5515 0.0000 -23.4388 0.0000
# 4 0.0000 0.0000 0.0000 29.1484 0.0000 -15.0178
# 5 1.4064 4.6607 -23.4388 0.0000 48.2450 0.0000
# 6 0.0000 0.0000 0.0000 -15.0178 0.0000 -24.5962
#
#
#
# Elastic Compliance Matrix: (Units=1/GPa)
#
#
# Indices 1 2 3 4 5 6 
#
# 1 0.056315 -0.002917 -0.015403 0.000000 -0.008843 0.000000
# 2 -0.002917 0.013912 -0.004186 0.000000 -0.003293 0.000000
# 3 -0.015403 -0.004186 0.011727 0.000000 0.006551 0.000000
# 4 0.000000 0.000000 0.000000 0.026098 0.000000 -0.015934
# 5 -0.008843 -0.003293 0.006551 0.000000 0.024486 0.000000
# 6 0.000000 0.000000 0.000000 -0.015934 0.000000 -0.030928
#
#
# Mechanical properties :
#
#
# Convention : Reuss Voigt Hill
#
# Bulk Modulus (GPa) = 27.07026 64.87617 45.97322
# Shear Modulus (GPa) = 31.45905 22.65746 27.05825
#
# Velocity S-wave (km/s) = 3.57458 3.03360 3.31514
# Velocity P-wave (km/s) = 5.29452 6.21457 5.77290
#
# Compressibility (1/GPa) = 0.03694090
#
# Stress axis : x y z
#
# Youngs Moduli (GPa) = 17.75733 71.88053 85.27122
#
# Poissons Ratio (x) = 0.20968 1.31345
# Poissons Ratio (y) = 0.05180 0.35698
# Poissons Ratio (z) = 0.27352 0.30092
#
# Static dielectric constant tensor:
#      x y z
#    x 2.200310 0.000000 0.032620 
#    y 0.000000 1.861990 0.000000 
#    z 0.032620 0.000000 2.162110 
# 
# From -- ./inp_files/71895.got.cif
#   From: 2010.05.17/outbox.cif.g08.bks.cpg/sg15_36_cif.got.tgz:71895.got - 2010.06.03 18:47:42.
