data_PCOD9307366
_publ_section_title
;
Structure prediction by ZEFSAII (Michael W. Deem and Ramdas Pophale) SiO2 
 PCOD9307366
Probable space group: C 2/C
;
_chemical_formula_sum "Si O2"
_cell_formula_units_Z 48
_cell_length_a 22.375347
_cell_length_b 4.776457
_cell_length_c 17.604222
_cell_angle_alpha 90.000000
_cell_angle_beta 71.155652
_cell_angle_gamma 90.000000
_cell_volume 1780.602617
_symmetry_space_group_name_H-M "C 2/C"
_symmetry_group_IT_number 15
_symmetry_cell_setting 'monoclinic'
loop_
_space_group_symop_operation_xyz
x,y,z
-x,y,1/2-z
-x,-y,-z
x,-y,1/2+z
1/2+x,1/2+y,z
1/2-x,1/2+y,1/2-z
1/2-x,1/2-y,-z
1/2+x,1/2-y,1/2+z
loop_
_atom_site_type_symbol
_atom_site_label
_atom_site_fract_x
_atom_site_fract_y
_atom_site_fract_z
Si Si1 0.956963 0.519537 0.708333
Si Si2 0.877299 0.374999 0.103143
Si Si3 0.067790 0.886003 0.500834
Si Si4 0.215397 0.498928 0.057319
Si Si5 0.579750 0.747301 0.630054
Si Si6 0.758739 0.252724 0.695736
O O1 0.908808 0.660719 0.672653
O O2 0.924231 0.288982 0.776775
O O3 0.000000 0.697025 0.750000
O O4 0.011632 0.376191 0.636588
O O5 0.813830 0.550050 0.139875
O O6 0.878626 0.078337 0.061945
O O7 0.920852 0.577282 0.034026
O O8 0.078651 0.955807 0.585254
O O9 0.000000 0.000000 0.500000
O O10 0.142195 0.585010 0.081016
O O11 0.224406 0.410774 0.141733
O O12 0.250000 0.250000 0.000000
O O13 0.250000 0.750000 0.000000
O O14 0.720561 0.495971 0.757435
#
# Coordination Sequence:
#
# PCOD9307366 Si02
#       6
#     8   8   8   8   8   8
#     4   8  20  42  66  97 134 175 226 287 362 419
#     4  12  24  44  68 102 138 181 238 296 356 441
#     4  12  23  41  69 100 138 178 233 290 367 433
#     4  12  25  46  71 103 145 192 250 312 375 448
#     4   9  21  42  67  99 136 181 231 291 360 433
#     4  12  26  46  73 105 146 201 255 309 377 451
#
# _framework density 26.957166000000001
#
# number of rings (size 3 to 8) (size 9 to 14) (size 15 to 20)
#    1.000    0.000    1.667    5.500    0.000    0.000 
#    0.000    4.167    0.000    0.000    0.000    0.000 
#    0.000    0.000    0.000    0.000    0.000    0.000 
#
# Total GULP energy -134182.737023 kJ/mol
# GULP energy per Si atom -5590.947376 kJ/mol
# Density = 2.689581 g / cm^3
# Si number density = 26.957166 Si / 1000 Ang^3
#
#
#
# Elastic Constant Matrix: (Units=GPa)
#
#
# Indices 1 2 3 4 5 6 
#
# 1 106.2512 19.6754 45.1351 0.0001 -11.4027 0.0000
# 2 19.6754 151.3801 45.2283 0.0008 -11.0900 0.0002
# 3 45.1351 45.2283 155.5650 0.0001 0.8502 0.0000
# 4 0.0001 0.0008 0.0001 44.5901 0.0000 -8.4083
# 5 -11.4027 -11.0900 0.8502 0.0000 60.2381 0.0000
# 6 0.0000 0.0002 0.0000 -8.4083 0.0000 32.9262
#
#
#
# Elastic Compliance Matrix: (Units=1/GPa)
#
#
# Indices 1 2 3 4 5 6 
#
# 1 0.011018 -0.000353 -0.003105 0.000000 0.002064 0.000000
# 2 -0.000353 0.007359 -0.002044 0.000000 0.001317 0.000000
# 3 -0.003105 -0.002044 0.007929 0.000000 -0.001076 0.000000
# 4 0.000000 0.000000 0.000000 0.023561 0.000000 0.006017
# 5 0.002064 0.001317 -0.001076 0.000000 0.017249 0.000000
# 6 0.000000 0.000000 0.000000 0.006017 0.000000 0.031907
#
#
# Mechanical properties :
#
#
# Convention : Reuss Voigt Hill
#
# Bulk Modulus (GPa) = 65.35563 70.36377 67.85970
# Shear Modulus (GPa) = 43.42944 47.76137 45.59540
#
# Velocity S-wave (km/s) = 4.01815 4.21378 4.11713
# Velocity P-wave (km/s) = 6.76936 7.05927 6.91584
#
# Compressibility (1/GPa) = 0.01530090
#
# Stress axis : x y z
#
# Youngs Moduli (GPa) = 90.76311 135.88761 126.11331
#
# Poissons Ratio (x) = 0.04797 0.39162
# Poissons Ratio (y) = 0.03204 0.25781
# Poissons Ratio (z) = 0.28185 0.27780
#
# Static dielectric constant tensor:
#      x y z
#    x 2.104080 0.000000 -0.025800 
#    y 0.000000 2.058960 0.000000 
#    z -0.025800 0.000000 2.257540 
# 
# From -- ./inp_files/179660.got.cif
#   From: 2010.05.17/outbox.cif.g08.bks.cpg/sg15_90_cif.got.tgz:179660.got - 2010.06.03 18:47:42.
