data_PCOD9307815
_publ_section_title
;
Structure prediction by ZEFSAII (Michael W. Deem and Ramdas Pophale) SiO2 
 PCOD9307815
Probable space group: C 2/C
;
_chemical_formula_sum "Si O2"
_cell_formula_units_Z 40
_cell_length_a 18.854486
_cell_length_b 12.640870
_cell_length_c 10.305355
_cell_angle_alpha 90.000000
_cell_angle_beta 134.336688
_cell_angle_gamma 90.000000
_cell_volume 1756.748845
_symmetry_space_group_name_H-M "C 2/C"
_symmetry_group_IT_number 15
_symmetry_cell_setting 'monoclinic'
loop_
_space_group_symop_operation_xyz
x,y,z
-x,y,1/2-z
-x,-y,-z
x,-y,1/2+z
1/2+x,1/2+y,z
1/2-x,1/2+y,1/2-z
1/2-x,1/2-y,-z
1/2+x,1/2-y,1/2+z
loop_
_atom_site_type_symbol
_atom_site_label
_atom_site_fract_x
_atom_site_fract_y
_atom_site_fract_z
Si Si1 0.403148 0.432714 0.343991
Si Si2 0.293240 0.956153 0.837844
Si Si3 0.571339 0.771751 0.462260
Si Si4 0.558219 0.847867 0.961656
Si Si5 0.819100 0.173038 0.504026
O O1 0.500000 0.500000 0.500000
O O2 0.304755 0.502875 0.217314
O O3 0.391587 0.340043 0.435526
O O4 0.401571 0.376207 0.203015
O O5 0.251651 0.915024 0.647247
O O6 0.342827 0.853589 0.965440
O O7 0.373032 0.049711 0.931252
O O8 0.500000 0.755408 0.250000
O O9 0.514187 0.827393 0.510236
O O10 0.500000 0.859377 0.750000
O O11 0.628145 0.744850 0.036078
O O12 0.750000 0.250000 0.500000
#
# Coordination Sequence:
#
# PCOD9307815 Si02
#       5
#     8   8   8   8   8
#     4  12  28  49  76 107 149 204 255 313 387 459
#     4  12  26  44  75 111 146 198 255 314 378 455
#     4  12  28  48  71 116 155 191 254 321 383 456
#     4  12  24  48  79 108 152 206 252 313 387 462
#     4  12  24  51  76 110 151 200 262 313 383 463
#
# _framework density 22.769333
#
# number of rings (size 3 to 8) (size 9 to 14) (size 15 to 20)
#    0.000    0.000    6.000    2.400    5.600    0.000 
#    0.000    3.000    0.000    0.000    0.000    0.000 
#    0.000    0.000    0.000    0.000    0.000    0.000 
#
# Total GULP energy -112081.219809 kJ/mol
# GULP energy per Si atom -5604.060990 kJ/mol
# Density = 2.271751 g / cm^3
# Si number density = 22.769333 Si / 1000 Ang^3
#
#
#
# Elastic Constant Matrix: (Units=GPa)
#
#
# Indices 1 2 3 4 5 6 
#
# 1 68.2368 25.2309 8.8060 0.0000 16.0080 0.0000
# 2 25.2309 130.9593 48.9608 0.0000 16.1719 0.0000
# 3 8.8060 48.9608 132.0993 0.0000 -5.4184 0.0000
# 4 0.0000 0.0000 0.0000 48.9790 0.0000 5.0285
# 5 16.0080 16.1719 -5.4184 0.0000 41.2411 0.0000
# 6 0.0000 0.0000 0.0000 5.0285 0.0000 31.4786
#
#
#
# Elastic Compliance Matrix: (Units=1/GPa)
#
#
# Indices 1 2 3 4 5 6 
#
# 1 0.016934 -0.002378 -0.000481 0.000000 -0.005704 0.000000
# 2 -0.002378 0.009880 -0.003644 0.000000 -0.003430 0.000000
# 3 -0.000481 -0.003644 0.009068 0.000000 0.002807 0.000000
# 4 0.000000 0.000000 0.000000 0.020757 0.000000 -0.003316
# 5 -0.005704 -0.003430 0.002807 0.000000 0.028175 0.000000
# 6 0.000000 0.000000 0.000000 -0.003316 0.000000 0.032297
#
#
# Mechanical properties :
#
#
# Convention : Reuss Voigt Hill
#
# Bulk Modulus (GPa) = 43.71585 55.25456 49.48520
# Shear Modulus (GPa) = 36.29896 40.89292 38.59594
#
# Velocity S-wave (km/s) = 3.99708 4.24248 4.12161
# Velocity P-wave (km/s) = 6.36736 6.95111 6.66563
#
# Compressibility (1/GPa) = 0.02287500
#
# Stress axis : x y z
#
# Youngs Moduli (GPa) = 59.05119 101.21349 110.27892
#
# Poissons Ratio (x) = 0.24072 0.05308
# Poissons Ratio (y) = 0.14044 0.40186
# Poissons Ratio (z) = 0.02842 0.36883
#
# Static dielectric constant tensor:
#      x y z
#    x 1.912430 0.000000 0.001060 
#    y 0.000000 1.868800 0.000000 
#    z 0.001060 0.000000 1.843830 
# 
# From -- ./inp_files/111885.got.cif
#   From: 2010.05.17/outbox.cif.g08.bks.cpg/sg15_56_cif.got.tgz:111885.got - 2010.06.03 18:47:42.
