data_PCOD9307962
_publ_section_title
;
Structure prediction by ZEFSAII (Michael W. Deem and Ramdas Pophale) SiO2 
 PCOD9307962
Probable space group: C 2/C
;
_chemical_formula_sum "Si O2"
_cell_formula_units_Z 56
_cell_length_a 13.862248
_cell_length_b 8.002389
_cell_length_c 26.682129
_cell_angle_alpha 90.000000
_cell_angle_beta 48.073275
_cell_angle_gamma 90.000000
_cell_volume 2202.149078
_symmetry_space_group_name_H-M "C 2/C"
_symmetry_group_IT_number 15
_symmetry_cell_setting 'monoclinic'
loop_
_space_group_symop_operation_xyz
x,y,z
-x,y,1/2-z
-x,-y,-z
x,-y,1/2+z
1/2+x,1/2+y,z
1/2-x,1/2+y,1/2-z
1/2-x,1/2-y,-z
1/2+x,1/2-y,1/2+z
loop_
_atom_site_type_symbol
_atom_site_label
_atom_site_fract_x
_atom_site_fract_y
_atom_site_fract_z
Si Si1 0.710715 0.048052 0.553345
Si Si2 0.030980 0.716782 0.682816
Si Si3 0.584889 0.493307 0.598790
Si Si4 0.233731 0.762971 0.116172
Si Si5 0.853771 0.220991 0.661176
Si Si6 0.455359 0.030663 0.571819
Si Si7 0.342199 0.079995 0.264941
O O1 0.673860 0.174778 0.611160
O O2 0.830778 0.084679 0.475159
O O3 0.744248 0.873888 0.568855
O O4 0.581258 0.037539 0.563848
O O5 0.991271 0.861868 0.658775
O O6 0.041743 0.539754 0.794107
O O7 0.000000 0.774064 0.750000
O O8 0.678234 0.572416 0.608696
O O9 0.497900 0.645677 0.610461
O O10 0.141181 0.690215 0.191250
O O11 0.367425 0.804051 0.098168
O O12 0.861699 0.381526 0.622983
O O13 0.816031 0.295144 0.728519
O O14 0.761982 0.062695 0.684145
O O15 0.500000 0.000000 0.500000
#
# Coordination Sequence:
#
# PCOD9307962 Si02
#       7
#     8   8   8   8   8   8   8
#     4  12  25  54  75 117 159 201 260 330 389 477
#     4  12  27  48  76 114 152 204 257 320 387 467
#     4  12  27  47  82 109 154 204 258 317 398 464
#     4  12  26  47  79 113 152 208 253 322 396 470
#     4  12  27  49  75 113 153 205 258 328 389 466
#     4  12  25  46  79 109 154 202 257 321 397 470
#     4  12  27  49  74 111 157 201 260 320 387 464
#
# _framework density 25.429705999999999
#
# number of rings (size 3 to 8) (size 9 to 14) (size 15 to 20)
#    0.000    0.000    5.714    3.429    6.000    0.000 
#    2.571    1.429    0.000    0.000    0.000    0.000 
#    0.000    0.000    0.000    0.000    0.000    0.000 
#
# Total GULP energy -156794.102704 kJ/mol
# GULP energy per Si atom -5599.789382 kJ/mol
# Density = 2.537183 g / cm^3
# Si number density = 25.429706 Si / 1000 Ang^3
#
#
#
# Elastic Constant Matrix: (Units=GPa)
#
#
# Indices 1 2 3 4 5 6 
#
# 1 87.5745 25.6810 43.2590 -0.0001 1.8485 -0.0002
# 2 25.6810 98.0460 48.0714 -0.0003 9.3248 -0.0003
# 3 43.2590 48.0714 203.6397 0.0000 10.1667 -0.0001
# 4 -0.0001 -0.0003 0.0000 52.3554 0.0000 4.8105
# 5 1.8485 9.3248 10.1667 0.0000 34.4150 -0.0001
# 6 -0.0002 -0.0003 -0.0001 4.8105 -0.0001 43.4467
#
#
#
# Elastic Compliance Matrix: (Units=1/GPa)
#
#
# Indices 1 2 3 4 5 6 
#
# 1 0.013236 -0.002411 -0.002273 0.000000 0.000614 0.000000
# 2 -0.002411 0.012165 -0.002234 0.000000 -0.002506 0.000000
# 3 -0.002273 -0.002234 0.005973 0.000000 -0.001037 0.000000
# 4 0.000000 0.000000 0.000000 0.019297 0.000000 -0.002137
# 5 0.000614 -0.002506 -0.001037 0.000000 0.030010 0.000000
# 6 0.000000 0.000000 0.000000 -0.002137 0.000000 0.023253
#
#
# Mechanical properties :
#
#
# Convention : Reuss Voigt Hill
#
# Bulk Modulus (GPa) = 57.02364 69.25368 63.13866
# Shear Modulus (GPa) = 40.44837 44.19334 42.32085
#
# Velocity S-wave (km/s) = 3.99255 4.17329 4.08392
# Velocity P-wave (km/s) = 6.61262 7.10734 6.86444
#
# Compressibility (1/GPa) = 0.01753659
#
# Stress axis : x y z
#
# Youngs Moduli (GPa) = 75.55315 82.20582 167.42706
#
# Poissons Ratio (x) = 0.19817 0.38060
# Poissons Ratio (y) = 0.18213 0.37409
# Poissons Ratio (z) = 0.17175 0.18368
#
# Static dielectric constant tensor:
#      x y z
#    x 2.124710 0.000000 -0.032770 
#    y 0.000000 1.991340 0.000000 
#    z -0.032770 0.000000 1.972270 
# 
# From -- ./inp_files/273054.got.cif
#   From: 2010.05.17/outbox.cif.g08.bks.cpg/sg15_137_cif.got.tgz:273054.got - 2010.06.03 18:47:42.
