data_PCOD9307415
_publ_section_title
;
Structure prediction by ZEFSAII (Michael W. Deem and Ramdas Pophale) SiO2 
 PCOD9307415
Probable space group: C 2/C
;
_chemical_formula_sum "Si O2"
_cell_formula_units_Z 52
_cell_length_a 22.714127
_cell_length_b 14.369357
_cell_length_c 11.626136
_cell_angle_alpha 90.000000
_cell_angle_beta 37.554071
_cell_angle_gamma 90.000000
_cell_volume 2312.860921
_symmetry_space_group_name_H-M "C 2/C"
_symmetry_group_IT_number 15
_symmetry_cell_setting 'monoclinic'
loop_
_space_group_symop_operation_xyz
x,y,z
-x,y,1/2-z
-x,-y,-z
x,-y,1/2+z
1/2+x,1/2+y,z
1/2-x,1/2+y,1/2-z
1/2-x,1/2-y,-z
1/2+x,1/2-y,1/2+z
loop_
_atom_site_type_symbol
_atom_site_label
_atom_site_fract_x
_atom_site_fract_y
_atom_site_fract_z
Si Si1 0.857758 0.656884 0.351479
Si Si2 0.114445 0.349090 0.957049
Si Si3 0.500000 0.986598 0.750000
Si Si4 0.893952 0.143873 0.892183
Si Si5 0.305660 0.360467 0.770715
Si Si6 0.006226 0.163483 0.370612
Si Si7 0.671695 0.571619 0.720359
O O1 0.840959 0.644980 0.240813
O O2 0.934147 0.580406 0.274305
O O3 0.894665 0.760945 0.317397
O O4 0.762505 0.641760 0.578087
O O5 0.195574 0.324856 0.928316
O O6 0.034705 0.268605 0.070565
O O7 0.064838 0.445124 0.071536
O O8 0.845497 0.065216 0.889911
O O9 0.000000 0.109789 0.750000
O O10 0.851887 0.169738 0.079393
O O11 0.385926 0.338783 0.743168
O O12 0.298415 0.472444 0.778356
O O13 0.927146 0.106391 0.568269
O O14 0.000000 0.127856 0.250000
#
# Coordination Sequence:
#
# PCOD9307415 Si02
#       7
#     8   8   4   8   8   8   8
#     4  12  24  47  77 107 140 192 250 303 358 424
#     4  12  25  51  71 108 146 186 249 303 361 438
#     4  12  26  48  74 106 146 194 240 308 368 426
#     4  12  23  43  75 104 142 185 245 297 354 429
#     4  12  27  44  76 108 142 193 243 300 368 427
#     4  12  28  47  70 104 155 189 233 298 372 440
#     4  12  25  44  73 107 143 186 241 301 354 430
#
# _framework density 22.482977000000002
#
# number of rings (size 3 to 8) (size 9 to 14) (size 15 to 20)
#    0.000    0.000    7.692    2.308    2.154    0.615 
#    0.000    0.000    0.000    0.000    0.000    0.000 
#    0.000    0.000    0.000    0.000    0.000    0.000 
#
# Total GULP energy -145272.444591 kJ/mol
# GULP energy per Si atom -5587.401715 kJ/mol
# Density = 2.243181 g / cm^3
# Si number density = 22.482977 Si / 1000 Ang^3
#
#
#
# Elastic Constant Matrix: (Units=GPa)
#
#
# Indices 1 2 3 4 5 6 
#
# 1 147.1184 23.9892 33.8841 0.0000 -0.6984 0.0000
# 2 23.9892 72.3439 12.9263 0.0000 4.9728 0.0000
# 3 33.8841 12.9263 72.7670 0.0000 11.5354 0.0000
# 4 0.0000 0.0000 0.0000 25.8810 0.0000 2.9178
# 5 -0.6984 4.9728 11.5354 0.0000 34.4776 0.0000
# 6 0.0000 0.0000 0.0000 2.9178 0.0000 46.3484
#
#
#
# Elastic Compliance Matrix: (Units=1/GPa)
#
#
# Indices 1 2 3 4 5 6 
#
# 1 0.007981 -0.002117 -0.003605 0.000000 0.001673 0.000000
# 2 -0.002117 0.014891 -0.001386 0.000000 -0.001727 0.000000
# 3 -0.003605 -0.001386 0.016524 0.000000 -0.005402 0.000000
# 4 0.000000 0.000000 0.000000 0.038915 0.000000 -0.002450
# 5 0.001673 -0.001727 -0.005402 0.000000 0.031095 0.000000
# 6 0.000000 0.000000 0.000000 -0.002450 0.000000 0.021730
#
#
# Mechanical properties :
#
#
# Convention : Reuss Voigt Hill
#
# Bulk Modulus (GPa) = 39.71512 48.20316 43.95914
# Shear Modulus (GPa) = 32.52145 36.10337 34.31241
#
# Velocity S-wave (km/s) = 3.80740 4.01160 3.91084
# Velocity P-wave (km/s) = 6.08534 6.55314 6.32357
#
# Compressibility (1/GPa) = 0.02517933
#
# Stress axis : x y z
#
# Youngs Moduli (GPa) = 125.30024 67.15355 60.51873
#
# Poissons Ratio (x) = 0.14218 0.21820
# Poissons Ratio (y) = 0.26529 0.08385
# Poissons Ratio (z) = 0.45176 0.09305
#
# Static dielectric constant tensor:
#      x y z
#    x 1.838730 0.000000 -0.018730 
#    y 0.000000 1.788090 0.000000 
#    z -0.018730 0.000000 1.906890 
# 
# From -- ./inp_files/118722.got.cif
#   From: 2010.05.17/outbox.cif.g08.bks.cpg/sg15_60_cif.got.tgz:118722.got - 2010.06.03 18:47:42.
