data_PCOD9307964
_publ_section_title
;
Structure prediction by ZEFSAII (Michael W. Deem and Ramdas Pophale) SiO2 
 PCOD9307964
Probable space group: C 2/C
;
_chemical_formula_sum "Si O2"
_cell_formula_units_Z 36
_cell_length_a 20.902517
_cell_length_b 15.494583
_cell_length_c 12.876471
_cell_angle_alpha 90.000000
_cell_angle_beta 155.353192
_cell_angle_gamma 90.000000
_cell_volume 1739.145095
_symmetry_space_group_name_H-M "C 2/C"
_symmetry_group_IT_number 15
_symmetry_cell_setting 'monoclinic'
loop_
_space_group_symop_operation_xyz
x,y,z
-x,y,1/2-z
-x,-y,-z
x,-y,1/2+z
1/2+x,1/2+y,z
1/2-x,1/2+y,1/2-z
1/2-x,1/2-y,-z
1/2+x,1/2-y,1/2+z
loop_
_atom_site_type_symbol
_atom_site_label
_atom_site_fract_x
_atom_site_fract_y
_atom_site_fract_z
Si Si1 0.539248 0.595387 0.519248
Si Si2 0.432694 0.732640 0.760264
Si Si3 0.244059 0.646430 0.982507
Si Si4 0.625918 0.903899 0.083479
Si Si5 0.000000 0.548716 0.750000
O O1 0.500000 0.500000 0.500000
O O2 0.518887 0.665362 0.580048
O O3 0.418251 0.615953 0.251103
O O4 0.713263 0.603064 0.739185
O O5 0.500000 0.699254 0.750000
O O6 0.250000 0.750000 0.500000
O O7 0.515339 0.823961 0.897438
O O8 0.250000 0.750000 0.000000
O O9 0.169417 0.607413 0.768225
O O10 0.142929 0.607543 0.927168
O O11 0.546502 0.988125 0.916339
#
# Coordination Sequence:
#
# PCOD9307964 Si02
#       5
#     8   8   8   8   4
#     4  12  26  50  72 111 149 191 253 309 371 453
#     4  12  25  46  81 108 149 200 251 304 374 448
#     4  12  28  45  76 108 148 194 246 309 381 443
#     4  12  25  49  74 108 151 194 249 309 373 444
#     4  12  26  50  72 106 148 196 248 308 374 452
#
# _framework density 20.699825000000001
#
# number of rings (size 3 to 8) (size 9 to 14) (size 15 to 20)
#    0.000    0.000    7.778    1.333    3.111    3.556 
#    0.000    0.000    0.000    0.000    0.000    0.000 
#    0.000    0.000    0.000    0.000    0.000    0.000 
#
# Total GULP energy -100650.179589 kJ/mol
# GULP energy per Si atom -5591.676644 kJ/mol
# Density = 2.065271 g / cm^3
# Si number density = 20.699825 Si / 1000 Ang^3
#
#
#
# Elastic Constant Matrix: (Units=GPa)
#
#
# Indices 1 2 3 4 5 6 
#
# 1 104.3995 53.1768 39.9988 0.0000 5.5234 0.0000
# 2 53.1768 163.4457 60.0569 0.0000 6.0958 0.0000
# 3 39.9988 60.0569 146.6939 0.0000 12.4924 0.0000
# 4 0.0000 0.0000 0.0000 42.6777 0.0000 3.9289
# 5 5.5234 6.0958 12.4924 0.0000 52.4636 0.0000
# 6 0.0000 0.0000 0.0000 3.9289 0.0000 37.4374
#
#
#
# Elastic Compliance Matrix: (Units=1/GPa)
#
#
# Indices 1 2 3 4 5 6 
#
# 1 0.011951 -0.003164 -0.001926 0.000000 -0.000432 0.000000
# 2 -0.003164 0.008040 -0.002427 0.000000 -0.000023 0.000000
# 3 -0.001926 -0.002427 0.008466 0.000000 -0.001531 0.000000
# 4 0.000000 0.000000 0.000000 0.023660 0.000000 -0.002483
# 5 -0.000432 -0.000023 -0.001531 0.000000 0.019474 0.000000
# 6 0.000000 0.000000 0.000000 -0.002483 0.000000 0.026972
#
#
# Mechanical properties :
#
#
# Convention : Reuss Voigt Hill
#
# Bulk Modulus (GPa) = 74.50281 80.11156 77.30719
# Shear Modulus (GPa) = 42.34667 43.93619 43.14143
#
# Velocity S-wave (km/s) = 4.52790 4.61210 4.57020
# Velocity P-wave (km/s) = 7.96279 8.19436 8.07940
#
# Compressibility (1/GPa) = 0.01342231
#
# Stress axis : x y z
#
# Youngs Moduli (GPa) = 83.67273 124.37196 118.11674
#
# Poissons Ratio (x) = 0.39356 0.22755
# Poissons Ratio (y) = 0.26477 0.28667
# Poissons Ratio (z) = 0.16119 0.30185
#
# Static dielectric constant tensor:
#      x y z
#    x 1.773840 0.000000 -0.012700 
#    y 0.000000 1.836250 0.000000 
#    z -0.012700 0.000000 1.711540 
# 
# From -- ./inp_files/85414.got.cif
#   From: 2010.05.17/outbox.cif.g08.bks.cpg/sg15_43_cif.got.tgz:85414.got - 2010.06.03 18:47:42.
