data_PCOD9307811
_publ_section_title
;
Structure prediction by ZEFSAII (Michael W. Deem and Ramdas Pophale) SiO2 
 PCOD9307811
Probable space group: C 2/C
;
_chemical_formula_sum "Si O2"
_cell_formula_units_Z 44
_cell_length_a 15.361558
_cell_length_b 8.529026
_cell_length_c 16.314515
_cell_angle_alpha 90.000000
_cell_angle_beta 62.909824
_cell_angle_gamma 90.000000
_cell_volume 1903.008837
_symmetry_space_group_name_H-M "C 2/C"
_symmetry_group_IT_number 15
_symmetry_cell_setting 'monoclinic'
loop_
_space_group_symop_operation_xyz
x,y,z
-x,y,1/2-z
-x,-y,-z
x,-y,1/2+z
1/2+x,1/2+y,z
1/2-x,1/2+y,1/2-z
1/2-x,1/2-y,-z
1/2+x,1/2-y,1/2+z
loop_
_atom_site_type_symbol
_atom_site_label
_atom_site_fract_x
_atom_site_fract_y
_atom_site_fract_z
Si Si1 0.720303 0.922775 0.538675
Si Si2 0.119539 0.857174 0.600432
Si Si3 0.318295 0.820877 0.774735
Si Si4 0.859835 0.662262 0.738883
Si Si5 0.039392 0.402875 0.059551
Si Si6 0.500000 0.397871 0.250000
O O1 0.750000 0.750000 0.500000
O O2 0.738797 0.909897 0.626992
O O3 0.783835 0.041126 0.458348
O O4 0.606751 0.968904 0.577064
O O5 0.130185 0.738305 0.674550
O O6 0.108826 0.750523 0.522911
O O7 0.039705 0.988065 0.661089
O O8 0.238788 0.730480 0.756481
O O9 0.406624 0.707763 0.764462
O O10 0.363244 0.975981 0.717452
O O11 0.957778 0.693983 0.645656
O O12 0.000000 0.500000 0.000000
#
# Coordination Sequence:
#
# PCOD9307811 Si02
#       6
#     8   8   8   8   8   4
#     4  12  26  49  76 111 154 198 258 327 385 456
#     4  12  26  50  80 111 155 207 259 322 383 461
#     4  12  27  46  77 111 152 202 258 321 391 457
#     4  12  27  49  77 112 152 205 262 317 383 466
#     4  12  27  47  76 112 153 200 254 320 386 452
#     4  12  24  48  78 112 152 202 262 316 382 462
#
# _framework density 23.121281
#
# number of rings (size 3 to 8) (size 9 to 14) (size 15 to 20)
#    0.000    0.000    5.455    3.818    2.545    0.000 
#    0.000    5.455    0.000    0.000    0.000    0.000 
#    0.000    0.000    0.000    0.000    0.000    0.000 
#
# Total GULP energy -122579.800577 kJ/mol
# GULP energy per Si atom -5571.809117 kJ/mol
# Density = 2.306866 g / cm^3
# Si number density = 23.121281 Si / 1000 Ang^3
#
#
#
# Elastic Constant Matrix: (Units=GPa)
#
#
# Indices 1 2 3 4 5 6 
#
# 1 96.4657 78.2921 36.8715 0.0000 11.0488 0.0000
# 2 78.2921 172.3722 18.9789 0.0000 1.4956 0.0000
# 3 36.8715 18.9789 73.2886 0.0000 -5.9299 0.0000
# 4 0.0000 0.0000 0.0000 50.7851 0.0000 3.8539
# 5 11.0488 1.4956 -5.9299 0.0000 31.5630 0.0000
# 6 0.0000 0.0000 0.0000 3.8539 0.0000 35.1168
#
#
#
# Elastic Compliance Matrix: (Units=1/GPa)
#
#
# Indices 1 2 3 4 5 6 
#
# 1 0.022510 -0.009073 -0.009726 0.000000 -0.009277 0.000000
# 2 -0.009073 0.009639 0.002324 0.000000 0.003156 0.000000
# 3 -0.009726 0.002324 0.018484 0.000000 0.006767 0.000000
# 4 0.000000 0.000000 0.000000 0.019856 0.000000 -0.002179
# 5 -0.009277 0.003156 0.006767 0.000000 0.036052 0.000000
# 6 0.000000 0.000000 0.000000 -0.002179 0.000000 0.028716
#
#
# Mechanical properties :
#
#
# Convention : Reuss Voigt Hill
#
# Bulk Modulus (GPa) = 56.55250 67.82350 62.18800
# Shear Modulus (GPa) = 28.71911 37.35857 33.03884
#
# Velocity S-wave (km/s) = 3.52818 4.02402 3.78423
# Velocity P-wave (km/s) = 6.41167 7.14057 6.78592
#
# Compressibility (1/GPa) = 0.01768269
#
# Stress axis : x y z
#
# Youngs Moduli (GPa) = 44.42501 103.74496 54.10214
#
# Poissons Ratio (x) = 0.94125 0.52619
# Poissons Ratio (y) = 0.40305 -0.12572
# Poissons Ratio (z) = 0.43207 -0.24107
#
# Static dielectric constant tensor:
#      x y z
#    x 2.142780 0.000000 -0.080050 
#    y 0.000000 1.760650 0.000000 
#    z -0.080050 0.000000 1.744440 
# 
# From -- ./inp_files/202948.got.cif
#   From: 2010.05.17/outbox.cif.g08.bks.cpg/sg15_102_cif.got.tgz:202948.got - 2010.06.03 18:47:42.
