data_PCOD9307847
_publ_section_title
;
Structure prediction by ZEFSAII (Michael W. Deem and Ramdas Pophale) SiO2 
 PCOD9307847
Probable space group: C 2/C
;
_chemical_formula_sum "Si O2"
_cell_formula_units_Z 40
_cell_length_a 13.063530
_cell_length_b 13.653513
_cell_length_c 13.412985
_cell_angle_alpha 90.000000
_cell_angle_beta 40.607207
_cell_angle_gamma 90.000000
_cell_volume 1557.128523
_symmetry_space_group_name_H-M "C 2/C"
_symmetry_group_IT_number 15
_symmetry_cell_setting 'monoclinic'
loop_
_space_group_symop_operation_xyz
x,y,z
-x,y,1/2-z
-x,-y,-z
x,-y,1/2+z
1/2+x,1/2+y,z
1/2-x,1/2+y,1/2-z
1/2-x,1/2-y,-z
1/2+x,1/2-y,1/2+z
loop_
_atom_site_type_symbol
_atom_site_label
_atom_site_fract_x
_atom_site_fract_y
_atom_site_fract_z
Si Si1 0.415679 0.757806 0.620944
Si Si2 0.742134 0.821023 0.413427
Si Si3 0.182816 0.032961 0.128414
Si Si4 0.134810 0.472384 0.819162
Si Si5 0.826074 0.340291 0.351882
O O1 0.595324 0.778281 0.456711
O O2 0.388500 0.680531 0.729225
O O3 0.387257 0.861484 0.699069
O O4 0.299025 0.724952 0.618593
O O5 0.750000 0.750000 0.500000
O O6 0.732058 0.930732 0.462026
O O7 0.000000 0.026545 0.250000
O O8 0.213743 0.040776 0.222995
O O9 0.251119 0.119063 0.009551
O O10 0.145911 0.560539 0.734346
O O11 0.000000 0.500000 0.000000
O O12 0.000000 0.298668 0.250000
#
# Coordination Sequence:
#
# PCOD9307847 Si02
#       5
#     8   8   8   8   8
#     4  12  26  45  77 108 147 195 248 302 368 447
#     4  12  25  47  73 108 146 194 251 308 363 439
#     4  12  27  47  75 109 151 192 247 310 376 439
#     4  12  24  50  73 104 151 197 243 302 374 450
#     4  12  26  48  78 111 151 199 247 308 377 443
#
# _framework density 25.688310000000001
#
# number of rings (size 3 to 8) (size 9 to 14) (size 15 to 20)
#    0.000    0.000    6.000    3.000    2.800    2.400 
#    0.000    0.000    0.000    0.000    0.000    0.000 
#    0.000    0.000    0.000    0.000    0.000    0.000 
#
# Total GULP energy -111857.653720 kJ/mol
# GULP energy per Si atom -5592.882686 kJ/mol
# Density = 2.562984 g / cm^3
# Si number density = 25.688310 Si / 1000 Ang^3
#
#
#
# Elastic Constant Matrix: (Units=GPa)
#
#
# Indices 1 2 3 4 5 6 
#
# 1 119.0015 12.4166 36.9140 -0.0001 -27.5445 0.0000
# 2 12.4166 98.9378 30.0541 0.0000 5.3421 0.0000
# 3 36.9140 30.0541 76.7882 -0.0001 -9.1226 0.0000
# 4 -0.0001 0.0000 -0.0001 38.1218 0.0001 8.6947
# 5 -27.5445 5.3421 -9.1226 0.0001 52.4487 0.0000
# 6 0.0000 0.0000 0.0000 8.6947 0.0000 55.4607
#
#
#
# Elastic Compliance Matrix: (Units=1/GPa)
#
#
# Indices 1 2 3 4 5 6 
#
# 1 0.011017 -0.000256 -0.004601 0.000000 0.005012 0.000000
# 2 -0.000256 0.011684 -0.004705 0.000000 -0.002143 0.000000
# 3 -0.004601 -0.004705 0.017201 0.000000 0.001055 0.000000
# 4 0.000000 0.000000 0.000000 0.027204 0.000000 -0.004265
# 5 0.005012 -0.002143 0.001055 0.000000 0.022100 0.000000
# 6 0.000000 0.000000 0.000000 -0.004265 0.000000 0.018699
#
#
# Mechanical properties :
#
#
# Convention : Reuss Voigt Hill
#
# Bulk Modulus (GPa) = 48.12253 50.38856 49.25554
# Shear Modulus (GPa) = 37.32585 43.56244 40.44415
#
# Velocity S-wave (km/s) = 3.81600 4.12249 3.97220
# Velocity P-wave (km/s) = 6.17978 6.50521 6.34458
#
# Compressibility (1/GPa) = 0.02078029
#
# Stress axis : x y z
#
# Youngs Moduli (GPa) = 90.76803 85.58498 58.13543
#
# Poissons Ratio (x) = 0.02188 0.26746
# Poissons Ratio (y) = 0.02321 0.27351
# Poissons Ratio (z) = 0.41760 0.40266
#
# Static dielectric constant tensor:
#      x y z
#    x 2.115610 0.000000 -0.082710 
#    y 0.000000 2.059380 0.000000 
#    z -0.082710 0.000000 2.042080 
# 
# From -- ./inp_files/143293.got.cif
#   From: 2010.05.17/outbox.cif.g08.bks.cpg/sg15_72_cif.got.tgz:143293.got - 2010.06.03 18:47:42.
