data_PCOD9307999
_publ_section_title
;
Structure prediction by ZEFSAII (Michael W. Deem and Ramdas Pophale) SiO2 
 PCOD9307999
Probable space group: C 2/C
;
_chemical_formula_sum "Si O2"
_cell_formula_units_Z 24
_cell_length_a 10.341497
_cell_length_b 10.189173
_cell_length_c 12.479882
_cell_angle_alpha 90.000000
_cell_angle_beta 51.084937
_cell_angle_gamma 90.000000
_cell_volume 1023.189273
_symmetry_space_group_name_H-M "C 2/C"
_symmetry_group_IT_number 15
_symmetry_cell_setting 'monoclinic'
loop_
_space_group_symop_operation_xyz
x,y,z
-x,y,1/2-z
-x,-y,-z
x,-y,1/2+z
1/2+x,1/2+y,z
1/2-x,1/2+y,1/2-z
1/2-x,1/2-y,-z
1/2+x,1/2-y,1/2+z
loop_
_atom_site_type_symbol
_atom_site_label
_atom_site_fract_x
_atom_site_fract_y
_atom_site_fract_z
Si Si1 0.588472 0.401822 0.535621
Si Si2 0.691631 0.361953 0.114983
Si Si3 0.636897 0.184655 0.753452
O O1 0.500000 0.500000 0.500000
O O2 0.691766 0.497291 0.557914
O O3 0.704403 0.306122 0.406169
O O4 0.450251 0.319794 0.668596
O O5 0.500000 0.335025 0.250000
O O6 0.801616 0.370387 0.165174
O O7 0.750000 0.250000 0.000000
O O8 0.500000 0.111717 0.750000
#
# Coordination Sequence:
#
# PCOD9307999 Si02
#       3
#     8   8   8
#     4  12  26  50  79 114 160 201 269 328 379 481
#     4  12  25  47  80 114 157 203 264 327 388 459
#     4  12  27  49  78 113 159 210 259 322 403 454
#
# _framework density 23.45607
#
# number of rings (size 3 to 8) (size 9 to 14) (size 15 to 20)
#    0.000    0.000    6.667    2.000    0.000    2.667 
#    6.000    0.000    0.000    0.000    0.000    0.000 
#    0.000    0.000    0.000    0.000    0.000    0.000 
#
# Total GULP energy -67160.174722 kJ/mol
# GULP energy per Si atom -5596.681227 kJ/mol
# Density = 2.340268 g / cm^3
# Si number density = 23.456070 Si / 1000 Ang^3
#
#
#
# Elastic Constant Matrix: (Units=GPa)
#
#
# Indices 1 2 3 4 5 6 
#
# 1 196.6847 48.5834 59.3853 0.0000 56.1682 0.0000
# 2 48.5834 127.7008 100.6879 0.0000 2.4983 0.0000
# 3 59.3853 100.6879 192.9232 0.0000 2.7584 0.0000
# 4 0.0000 0.0000 0.0000 52.5924 0.0000 0.1682
# 5 56.1682 2.4983 2.7584 0.0000 60.7983 0.0000
# 6 0.0000 0.0000 0.0000 0.1682 0.0000 38.0403
#
#
#
# Elastic Compliance Matrix: (Units=1/GPa)
#
#
# Indices 1 2 3 4 5 6 
#
# 1 0.008041 -0.001779 -0.001442 0.000000 -0.007290 0.000000
# 2 -0.001779 0.013704 -0.006624 0.000000 0.001381 0.000000
# 3 -0.001442 -0.006624 0.009067 0.000000 0.001193 0.000000
# 4 0.000000 0.000000 0.000000 0.019014 0.000000 -0.000084
# 5 -0.007290 0.001381 0.001193 0.000000 0.023072 0.000000
# 6 0.000000 0.000000 0.000000 -0.000084 0.000000 0.026288
#
#
# Mechanical properties :
#
#
# Convention : Reuss Voigt Hill
#
# Bulk Modulus (GPa) = 89.92187 103.84686 96.88436
# Shear Modulus (GPa) = 40.78794 50.86301 45.82547
#
# Velocity S-wave (km/s) = 4.17455 4.66170 4.42483
# Velocity P-wave (km/s) = 7.85209 8.56413 8.21583
#
# Compressibility (1/GPa) = 0.01112077
#
# Stress axis : x y z
#
# Youngs Moduli (GPa) = 124.35934 72.97373 110.28490
#
# Poissons Ratio (x) = 0.12985 0.15906
# Poissons Ratio (y) = 0.22129 0.73053
# Poissons Ratio (z) = 0.17936 0.48338
#
# Static dielectric constant tensor:
#      x y z
#    x 2.001360 0.000000 0.055260 
#    y 0.000000 1.851710 0.000000 
#    z 0.055260 0.000000 1.899490 
# 
# From -- ./inp_files/131376.got.cif
#   From: 2010.05.17/outbox.cif.g08.bks.cpg/sg15_66_cif.got.tgz:131376.got - 2010.06.03 18:47:42.
