data_PCOD9307394
_publ_section_title
;
Structure prediction by ZEFSAII (Michael W. Deem and Ramdas Pophale) SiO2 
 PCOD9307394
Probable space group: C 2/C
;
_chemical_formula_sum "Si O2"
_cell_formula_units_Z 40
_cell_length_a 20.055198
_cell_length_b 19.177737
_cell_length_c 13.926292
_cell_angle_alpha 90.000000
_cell_angle_beta 17.604978
_cell_angle_gamma 90.000000
_cell_volume 1620.008461
_symmetry_space_group_name_H-M "C 2/C"
_symmetry_group_IT_number 15
_symmetry_cell_setting 'monoclinic'
loop_
_space_group_symop_operation_xyz
x,y,z
-x,y,1/2-z
-x,-y,-z
x,-y,1/2+z
1/2+x,1/2+y,z
1/2-x,1/2+y,1/2-z
1/2-x,1/2-y,-z
1/2+x,1/2-y,1/2+z
loop_
_atom_site_type_symbol
_atom_site_label
_atom_site_fract_x
_atom_site_fract_y
_atom_site_fract_z
Si Si1 0.000000 0.964156 0.750000
Si Si2 0.894418 0.946853 0.568705
Si Si3 0.927950 0.616509 0.715071
Si Si4 0.500000 0.755526 0.250000
Si Si5 0.331133 0.308952 0.310053
Si Si6 0.351021 0.807977 0.144117
O O1 0.198903 0.924638 0.531638
O O2 0.130752 0.009613 0.493298
O O3 0.063693 0.883425 0.309432
O O4 0.656454 0.919863 0.932399
O O5 0.000000 0.000000 0.500000
O O6 0.898379 0.688280 0.814220
O O7 0.974080 0.635234 0.538789
O O8 0.377748 0.702702 0.489289
O O9 0.250000 0.250000 0.500000
O O10 0.171956 0.320157 0.437246
O O11 0.538941 0.266060 0.986352
#
# Coordination Sequence:
#
# PCOD9307394 Si02
#       6
#     4   8   8   4   8   8
#     4  12  29  46  78 106 155 208 266 322 402 495
#     4  12  28  53  75 111 160 212 267 328 406 497
#     4  12  26  48  77 114 154 204 267 331 409 485
#     4  12  23  42  76 114 155 192 256 328 406 481
#     4  12  27  49  76 114 157 207 264 331 408 485
#     4  12  25  44  77 114 152 199 256 334 406 474
#
# _framework density 24.691230999999998
#
# number of rings (size 3 to 8) (size 9 to 14) (size 15 to 20)
#    0.000    0.000    4.000    4.800    8.400    0.000 
#    3.600    0.000    0.000    0.000    0.000    0.000 
#    0.000    0.000    0.000    0.000    0.000    0.000 
#
# Total GULP energy -111668.336508 kJ/mol
# GULP energy per Si atom -5583.416825 kJ/mol
# Density = 2.463503 g / cm^3
# Si number density = 24.691231 Si / 1000 Ang^3
#
#
#
# Elastic Constant Matrix: (Units=GPa)
#
#
# Indices 1 2 3 4 5 6 
#
# 1 131.3154 35.2302 41.1293 0.0006 -3.5314 -0.0018
# 2 35.2302 114.2027 51.8844 -0.0041 -14.4035 -0.0031
# 3 41.1293 51.8844 85.4166 -0.0180 -4.0738 0.0179
# 4 0.0006 -0.0041 -0.0180 46.1824 0.0154 -3.5707
# 5 -3.5314 -14.4035 -4.0738 0.0154 44.1089 -0.0125
# 6 -0.0018 -0.0031 0.0179 -3.5707 -0.0125 48.0869
#
#
#
# Elastic Compliance Matrix: (Units=1/GPa)
#
#
# Indices 1 2 3 4 5 6 
#
# 1 0.009071 -0.001121 -0.003686 -0.000002 0.000020 0.000002
# 2 -0.001121 0.012726 -0.007027 -0.000002 0.003417 0.000004
# 3 -0.003686 -0.007027 0.017705 0.000006 -0.000955 -0.000007
# 4 -0.000002 -0.000002 0.000006 0.021778 -0.000008 0.001617
# 5 0.000020 0.003417 -0.000955 -0.000008 0.023700 0.000006
# 6 0.000002 0.000004 -0.000007 0.001617 0.000006 0.020916
#
#
# Mechanical properties :
#
#
# Convention : Reuss Voigt Hill
#
# Bulk Modulus (GPa) = 63.15753 65.26918 64.21335
# Shear Modulus (GPa) = 37.08035 41.18837 39.13436
#
# Velocity S-wave (km/s) = 3.87946 4.08871 3.98546
# Velocity P-wave (km/s) = 6.76028 6.98439 6.87325
#
# Compressibility (1/GPa) = 0.01583342
#
# Stress axis : x y z
#
# Youngs Moduli (GPa) = 110.24096 78.58091 56.48116
#
# Poissons Ratio (x) = 0.08811 0.20818
# Poissons Ratio (y) = 0.12361 0.39690
# Poissons Ratio (z) = 0.40633 0.55220
#
# Static dielectric constant tensor:
#      x y z
#    x 2.126740 -0.000060 -0.144290 
#    y -0.000060 1.931040 0.000140 
#    z -0.144290 0.000140 2.423560 
# 
# From -- ./inp_files/169089.got.cif
#   From: 2010.05.17/outbox.cif.g08.bks.cpg/sg15_85_cif.got.tgz:169089.got - 2010.06.03 18:47:42.
