data_PCOD9307626
_publ_section_title
;
Structure prediction by ZEFSAII (Michael W. Deem and Ramdas Pophale) SiO2 
 PCOD9307626
Probable space group: C 2/C
;
_chemical_formula_sum "Si O2"
_cell_formula_units_Z 40
_cell_length_a 25.298867
_cell_length_b 7.389074
_cell_length_c 9.709451
_cell_angle_alpha 90.000000
_cell_angle_beta 86.142597
_cell_angle_gamma 90.000000
_cell_volume 1810.926326
_symmetry_space_group_name_H-M "C 2/C"
_symmetry_group_IT_number 15
_symmetry_cell_setting 'monoclinic'
loop_
_space_group_symop_operation_xyz
x,y,z
-x,y,1/2-z
-x,-y,-z
x,-y,1/2+z
1/2+x,1/2+y,z
1/2-x,1/2+y,1/2-z
1/2-x,1/2-y,-z
1/2+x,1/2-y,1/2+z
loop_
_atom_site_type_symbol
_atom_site_label
_atom_site_fract_x
_atom_site_fract_y
_atom_site_fract_z
Si Si1 0.294565 0.740039 0.605431
Si Si2 0.036814 0.075301 0.873798
Si Si3 0.904575 0.401156 0.489615
Si Si4 0.894504 0.281365 0.181064
Si Si5 0.721935 0.324231 0.866463
O O1 0.250000 0.750000 0.500000
O O2 0.344998 0.845185 0.542077
O O3 0.301678 0.525555 0.618522
O O4 0.269031 0.819537 0.747639
O O5 0.061868 0.256266 0.930488
O O6 0.000000 0.111515 0.750000
O O7 0.079860 0.918939 0.828902
O O8 0.000000 0.000000 0.000000
O O9 0.909816 0.372453 0.324786
O O10 0.915238 0.599785 0.548603
O O11 0.830458 0.280555 0.176336
O O12 0.750000 0.250000 0.000000
#
# Coordination Sequence:
#
# PCOD9307626 Si02
#       5
#     8   8   8   8   8
#     4  12  24  44  67 105 147 195 243 295 365 444
#     4  12  28  52  81 109 145 197 255 315 377 433
#     4  12  28  48  75 109 155 193 252 309 374 449
#     4  12  28  49  74 112 150 198 250 309 373 448
#     4  12  26  42  71 105 150 195 245 299 367 445
#
# _framework density 22.088145000000001
#
# number of rings (size 3 to 8) (size 9 to 14) (size 15 to 20)
#    0.000    0.000    6.000    3.600    5.600    1.600 
#    0.000    0.000    0.000    0.000    0.000    0.000 
#    0.000    0.000    0.000    0.000    0.000    0.000 
#
# Total GULP energy -111913.321530 kJ/mol
# GULP energy per Si atom -5595.666076 kJ/mol
# Density = 2.203787 g / cm^3
# Si number density = 22.088145 Si / 1000 Ang^3
#
#
#
# Elastic Constant Matrix: (Units=GPa)
#
#
# Indices 1 2 3 4 5 6 
#
# 1 95.2363 -5.4191 16.2006 0.0000 26.8842 0.0000
# 2 -5.4191 68.7007 -24.6617 0.0000 21.2750 0.0000
# 3 16.2006 -24.6617 110.2299 0.0000 24.9519 0.0000
# 4 0.0000 0.0000 0.0000 35.4737 0.0000 8.3913
# 5 26.8842 21.2750 24.9519 0.0000 41.4884 0.0000
# 6 0.0000 0.0000 0.0000 8.3913 0.0000 70.9735
#
#
#
# Elastic Compliance Matrix: (Units=1/GPa)
#
#
# Indices 1 2 3 4 5 6 
#
# 1 0.014438 0.006436 0.002527 0.000000 -0.014176 0.000000
# 2 0.006436 0.026094 0.010262 0.000000 -0.023723 0.000000
# 3 0.002527 0.010262 0.014537 0.000000 -0.015643 0.000000
# 4 0.000000 0.000000 0.000000 0.029001 0.000000 -0.003429
# 5 -0.014176 -0.023723 -0.015643 0.000000 0.054862 0.000000
# 6 0.000000 0.000000 0.000000 -0.003429 0.000000 0.014495
#
#
# Mechanical properties :
#
#
# Convention : Reuss Voigt Hill
#
# Bulk Modulus (GPa) = 10.69308 27.37850 19.03579
# Shear Modulus (GPa) = 34.21125 48.79027 41.50076
#
# Velocity S-wave (km/s) = 3.93981 4.70498 4.33930
# Velocity P-wave (km/s) = 5.05448 6.47594 5.80886
#
# Compressibility (1/GPa) = 0.09351840
#
# Stress axis : x y z
#
# Youngs Moduli (GPa) = 69.26048 38.32344 68.78802
#
# Poissons Ratio (x) = -0.24664 -0.17381
# Poissons Ratio (y) = -0.44575 -0.70590
# Poissons Ratio (z) = -0.17500 -0.39328
#
# Static dielectric constant tensor:
#      x y z
#    x 1.774790 0.000000 0.034650 
#    y 0.000000 1.874090 0.000000 
#    z 0.034650 0.000000 1.929850 
# 
# From -- ./inp_files/59950.got.cif
#   From: 2010.05.17/outbox.cif.g08.bks.cpg/sg15_30_cif.got.tgz:59950.got - 2010.06.03 18:47:42.
