data_PCOD9307521
_publ_section_title
;
Structure prediction by ZEFSAII (Michael W. Deem and Ramdas Pophale) SiO2 
 PCOD9307521
Probable space group: C 2/C
;
_chemical_formula_sum "Si O2"
_cell_formula_units_Z 48
_cell_length_a 26.700239
_cell_length_b 5.456095
_cell_length_c 13.544937
_cell_angle_alpha 90.000000
_cell_angle_beta 122.465903
_cell_angle_gamma 90.000000
_cell_volume 1664.821964
_symmetry_space_group_name_H-M "C 2/C"
_symmetry_group_IT_number 15
_symmetry_cell_setting 'monoclinic'
loop_
_space_group_symop_operation_xyz
x,y,z
-x,y,1/2-z
-x,-y,-z
x,-y,1/2+z
1/2+x,1/2+y,z
1/2-x,1/2+y,1/2-z
1/2-x,1/2-y,-z
1/2+x,1/2-y,1/2+z
loop_
_atom_site_type_symbol
_atom_site_label
_atom_site_fract_x
_atom_site_fract_y
_atom_site_fract_z
Si Si1 0.683644 0.622534 0.792989
Si Si2 0.438642 0.623724 0.797882
Si Si3 0.687615 0.675529 0.126702
Si Si4 0.313809 0.682546 0.029603
Si Si5 0.999739 0.233969 0.445570
Si Si6 0.089641 0.534345 0.409254
O O1 0.617507 0.719063 0.697720
O O2 0.689698 0.360731 0.744997
O O3 0.747654 0.740656 0.843572
O O4 0.672037 0.563106 0.895247
O O5 0.501926 0.610763 0.568116
O O6 0.441067 0.326974 0.814212
O O7 0.440500 0.772450 0.699148
O O8 0.682762 0.398221 0.079960
O O9 0.629610 0.821574 0.032922
O O10 0.357937 0.899092 0.094046
O O11 0.250000 0.750000 0.000000
O O12 0.049832 0.317798 0.415513
O O13 0.000000 0.500000 0.500000
#
# Coordination Sequence:
#
# PCOD9307521 Si02
#       6
#     8   8   8   8   8   8
#     4  12  24  43  72 109 171 204 262 333 397 491
#     4   9  22  47  81 113 162 208 273 341 412 491
#     4  12  27  42  73 124 161 221 271 320 420 498
#     4  12  24  43  72 117 165 203 262 330 399 494
#     4   8  23  46  83 117 163 208 275 345 414 488
#     4  12  23  47  86 116 156 220 276 344 417 492
#
# _framework density 28.831911000000002
#
# number of rings (size 3 to 8) (size 9 to 14) (size 15 to 20)
#    1.000    0.000    3.333    3.500    4.667    0.000 
#    0.000    1.667   18.333    1.000    0.000    0.000 
#    0.000    0.000    0.000    0.000    0.000    0.000 
#
# Total GULP energy -133659.653765 kJ/mol
# GULP energy per Si atom -5569.152240 kJ/mol
# Density = 2.876629 g / cm^3
# Si number density = 28.831911 Si / 1000 Ang^3
#
#
#
# Elastic Constant Matrix: (Units=GPa)
#
#
# Indices 1 2 3 4 5 6 
#
# 1 204.7587 74.4257 57.2001 0.0000 0.3557 0.0000
# 2 74.4257 135.2903 74.5082 0.0001 18.6090 0.0000
# 3 57.2001 74.5082 150.8499 0.0000 9.6575 0.0000
# 4 0.0000 0.0001 0.0000 72.5843 0.0000 -0.5069
# 5 0.3557 18.6090 9.6575 0.0000 36.9454 0.0000
# 6 0.0000 0.0000 0.0000 -0.5069 0.0000 57.6440
#
#
#
# Elastic Compliance Matrix: (Units=1/GPa)
#
#
# Indices 1 2 3 4 5 6 
#
# 1 0.006304 -0.003208 -0.000921 0.000000 0.001796 0.000000
# 2 -0.003208 0.012360 -0.004568 0.000000 -0.005000 0.000000
# 3 -0.000921 -0.004568 0.009242 0.000000 -0.000106 0.000000
# 4 0.000000 0.000000 0.000000 0.013778 0.000000 0.000121
# 5 0.001796 -0.005000 -0.000106 0.000000 0.029596 0.000000
# 6 0.000000 0.000000 0.000000 0.000121 0.000000 0.017349
#
#
# Mechanical properties :
#
#
# Convention : Reuss Voigt Hill
#
# Bulk Modulus (GPa) = 95.13632 100.35187 97.74410
# Shear Modulus (GPa) = 45.65132 52.41909 49.03520
#
# Velocity S-wave (km/s) = 3.98346 4.26854 4.12846
# Velocity P-wave (km/s) = 7.36382 7.69255 7.52998
#
# Compressibility (1/GPa) = 0.01051123
#
# Stress axis : x y z
#
# Youngs Moduli (GPa) = 158.63250 80.90709 108.20732
#
# Poissons Ratio (x) = 0.25952 0.09965
# Poissons Ratio (y) = 0.50884 0.49433
# Poissons Ratio (z) = 0.14609 0.36961
#
# Static dielectric constant tensor:
#      x y z
#    x 2.445290 0.000000 0.279740 
#    y 0.000000 2.971140 0.000000 
#    z 0.279740 0.000000 2.512170 
# 
# From -- ./inp_files/175708.got.cif
#   From: 2010.05.17/outbox.cif.g08.bks.cpg/sg15_88_cif.got.tgz:175708.got - 2010.06.03 18:47:42.
