data_PCOD9307281
_publ_section_title
;
Structure prediction by ZEFSAII (Michael W. Deem and Ramdas Pophale) SiO2 
 PCOD9307281
Probable space group: C 2/C
;
_chemical_formula_sum "Si O2"
_cell_formula_units_Z 28
_cell_length_a 12.922580
_cell_length_b 17.383412
_cell_length_c 10.642942
_cell_angle_alpha 90.000000
_cell_angle_beta 30.518940
_cell_angle_gamma 90.000000
_cell_volume 1214.111162
_symmetry_space_group_name_H-M "C 2/C"
_symmetry_group_IT_number 15
_symmetry_cell_setting 'monoclinic'
loop_
_space_group_symop_operation_xyz
x,y,z
-x,y,1/2-z
-x,-y,-z
x,-y,1/2+z
1/2+x,1/2+y,z
1/2-x,1/2+y,1/2-z
1/2-x,1/2-y,-z
1/2+x,1/2-y,1/2+z
loop_
_atom_site_type_symbol
_atom_site_label
_atom_site_fract_x
_atom_site_fract_y
_atom_site_fract_z
Si Si1 0.561549 0.046810 0.556999
Si Si2 0.077138 0.152881 0.312227
Si Si3 0.661285 0.182030 0.820503
Si Si4 0.500000 0.218758 0.250000
O O1 0.790886 0.076501 0.315885
O O2 0.434721 0.126267 0.682287
O O3 0.500000 0.000000 0.500000
O O4 0.500000 0.005860 0.750000
O O5 0.185860 0.231898 0.240930
O O6 0.000000 0.161466 0.250000
O O7 0.886229 0.149395 0.605945
O O8 0.526837 0.180296 0.086277
O O9 0.250000 0.250000 0.500000
#
# Coordination Sequence:
#
# PCOD9307281 Si02
#       4
#     8   8   8   4
#     4  12  28  49  71 107 154 200 253 319 397 470
#     4  12  22  44  78 112 141 192 261 321 381 461
#     4  12  24  43  77 110 147 196 256 322 383 458
#     4  12  24  42  68 116 160 196 248 318 398 464
#
# _framework density 23.062138999999998
#
# number of rings (size 3 to 8) (size 9 to 14) (size 15 to 20)
#    0.000    0.000    8.571    1.714    2.000    1.143 
#    0.000    0.000    0.000    0.000    0.000    0.000 
#    0.000    0.000    0.000    0.000    0.000    0.000 
#
# Total GULP energy -78040.544755 kJ/mol
# GULP energy per Si atom -5574.324625 kJ/mol
# Density = 2.300965 g / cm^3
# Si number density = 23.062139 Si / 1000 Ang^3
#
#
#
# Elastic Constant Matrix: (Units=GPa)
#
#
# Indices 1 2 3 4 5 6 
#
# 1 130.9045 48.3754 51.7384 -0.0025 25.9765 0.0015
# 2 48.3754 51.4271 37.0457 -0.0072 14.4033 0.0046
# 3 51.7384 37.0457 189.0426 -0.0069 10.6077 -0.0025
# 4 -0.0025 -0.0072 -0.0069 5.9955 0.0033 6.5414
# 5 25.9765 14.4033 10.6077 0.0033 49.6719 -0.0017
# 6 0.0015 0.0046 -0.0025 6.5414 -0.0017 32.1079
#
#
#
# Elastic Compliance Matrix: (Units=1/GPa)
#
#
# Indices 1 2 3 4 5 6 
#
# 1 0.012458 -0.009840 -0.001291 -0.000009 -0.003386 0.000002
# 2 -0.009840 0.032120 -0.003408 0.000049 -0.003440 -0.000015
# 3 -0.001291 -0.003408 0.006293 0.000002 0.000320 0.000001
# 4 -0.000009 0.000049 0.000002 0.214464 -0.000026 -0.043693
# 5 -0.003386 -0.003440 0.000320 -0.000026 0.022832 0.000007
# 6 0.000002 -0.000015 0.000001 -0.043693 0.000007 0.040047
#
#
# Mechanical properties :
#
#
# Convention : Reuss Voigt Hill
#
# Bulk Modulus (GPa) = 45.88924 71.74369 58.81646
# Shear Modulus (GPa) = 13.71529 33.16935 23.44232
#
# Velocity S-wave (km/s) = 2.44131 3.79655 3.19170
# Velocity P-wave (km/s) = 5.28091 7.09893 6.25631
#
# Compressibility (1/GPa) = 0.02179160
#
# Stress axis : x y z
#
# Youngs Moduli (GPa) = 80.27109 31.13346 158.90276
#
# Poissons Ratio (x) = 0.30636 0.20518
# Poissons Ratio (y) = 0.78988 0.54157
# Poissons Ratio (z) = 0.10365 0.10611
#
# Static dielectric constant tensor:
#      x y z
#    x 1.949190 0.000000 -0.085850 
#    y 0.000000 1.875470 0.000010 
#    z -0.085850 0.000010 2.058600 
# 
# From -- ./inp_files/98966.got.cif
#   From: 2010.05.17/outbox.cif.g08.bks.cpg/sg15_50_cif.got.tgz:98966.got - 2010.06.03 18:47:42.
