data_PCOD9307404
_publ_section_title
;
Structure prediction by ZEFSAII (Michael W. Deem and Ramdas Pophale) SiO2 
 PCOD9307404
Probable space group: C 2/C
;
_chemical_formula_sum "Si O2"
_cell_formula_units_Z 56
_cell_length_a 25.993977
_cell_length_b 8.378126
_cell_length_c 12.014526
_cell_angle_alpha 90.000000
_cell_angle_beta 64.086253
_cell_angle_gamma 90.000000
_cell_volume 2353.448561
_symmetry_space_group_name_H-M "C 2/C"
_symmetry_group_IT_number 15
_symmetry_cell_setting 'monoclinic'
loop_
_space_group_symop_operation_xyz
x,y,z
-x,y,1/2-z
-x,-y,-z
x,-y,1/2+z
1/2+x,1/2+y,z
1/2-x,1/2+y,1/2-z
1/2-x,1/2-y,-z
1/2+x,1/2-y,1/2+z
loop_
_atom_site_type_symbol
_atom_site_label
_atom_site_fract_x
_atom_site_fract_y
_atom_site_fract_z
Si Si1 0.277574 0.327555 0.721872
Si Si2 0.047958 0.192300 0.293138
Si Si3 0.833897 0.688045 0.886898
Si Si4 0.830234 0.171848 0.628817
Si Si5 0.148155 0.648153 0.032674
Si Si6 0.524790 0.847165 0.538461
Si Si7 0.920042 0.170365 0.721839
O O1 0.294202 0.250884 0.825553
O O2 0.209378 0.311391 0.782462
O O3 0.300249 0.506529 0.690850
O O4 0.309296 0.229292 0.595106
O O5 0.102390 0.304073 0.222207
O O6 0.031692 0.212954 0.436810
O O7 0.000000 0.238831 0.250000
O O8 0.064314 0.008618 0.259282
O O9 0.824144 0.510756 0.942025
O O10 0.832720 0.803691 0.994743
O O11 0.892135 0.173178 0.625695
O O12 0.128463 0.766189 0.149137
O O13 0.086891 0.614082 0.030669
O O14 0.475762 0.780872 0.665533
O O15 0.500000 0.000000 0.500000
#
# Coordination Sequence:
#
# PCOD9307404 Si02
#       7
#     8   8   8   8   8   8   8
#     4  12  28  51  75 109 144 189 252 296 369 431
#     4  12  23  43  71 105 146 189 239 301 361 434
#     4  12  26  49  74 110 149 186 245 300 365 433
#     4  12  27  49  77 105 145 195 240 307 359 431
#     4  12  26  46  74 105 151 189 241 300 361 434
#     4  12  24  43  69 106 147 189 241 297 361 437
#     4  12  26  45  71 107 148 192 245 294 363 430
#
# _framework density 23.794868999999998
#
# number of rings (size 3 to 8) (size 9 to 14) (size 15 to 20)
#    0.000    0.000    2.857    7.286    4.000    0.571 
#    0.000    0.000    0.000    0.000    0.000    0.000 
#    0.000    0.000    0.000    0.000    0.000    0.000 
#
# Total GULP energy -157012.953793 kJ/mol
# GULP energy per Si atom -5607.605493 kJ/mol
# Density = 2.374071 g / cm^3
# Si number density = 23.794869 Si / 1000 Ang^3
#
#
#
# Elastic Constant Matrix: (Units=GPa)
#
#
# Indices 1 2 3 4 5 6 
#
# 1 54.2656 -20.0978 13.3968 0.0000 0.4637 0.0000
# 2 -20.0978 79.8270 7.7143 0.0000 12.6697 0.0000
# 3 13.3968 7.7143 108.2317 0.0000 8.5230 0.0000
# 4 0.0000 0.0000 0.0000 29.9622 0.0000 -5.7334
# 5 0.4637 12.6697 8.5230 0.0000 36.9473 0.0000
# 6 0.0000 0.0000 0.0000 -5.7334 0.0000 22.2101
#
#
#
# Elastic Compliance Matrix: (Units=1/GPa)
#
#
# Indices 1 2 3 4 5 6 
#
# 1 0.021359 0.005919 -0.002938 0.000000 -0.001620 0.000000
# 2 0.005919 0.014926 -0.001413 0.000000 -0.004867 0.000000
# 3 -0.002938 -0.001413 0.009842 0.000000 -0.001749 0.000000
# 4 0.000000 0.000000 0.000000 0.035110 0.000000 0.009063
# 5 -0.001620 -0.004867 -0.001749 0.000000 0.029158 0.000000
# 6 0.000000 0.000000 0.000000 0.009063 0.000000 0.047364
#
#
# Mechanical properties :
#
#
# Convention : Reuss Voigt Hill
#
# Bulk Modulus (GPa) = 20.29997 27.15009 23.72503
# Shear Modulus (GPa) = 29.23212 33.91133 31.57173
#
# Velocity S-wave (km/s) = 3.50881 3.77922 3.64652
# Velocity P-wave (km/s) = 4.99654 5.52070 5.26515
#
# Compressibility (1/GPa) = 0.04926114
#
# Stress axis : x y z
#
# Youngs Moduli (GPa) = 46.81861 66.99654 101.61000
#
# Poissons Ratio (x) = -0.39652 0.29854
# Poissons Ratio (y) = -0.27710 0.14360
# Poissons Ratio (z) = 0.13756 0.09468
#
# Static dielectric constant tensor:
#      x y z
#    x 1.844690 0.000000 -0.031650 
#    y 0.000000 1.869140 0.000000 
#    z -0.031650 0.000000 1.856620 
# 
# From -- ./inp_files/121870.got.cif
#   From: 2010.05.17/outbox.cif.g08.bks.cpg/sg15_61_cif.got.tgz:121870.got - 2010.06.03 18:47:42.
