data_PCOD9307716
_publ_section_title
;
Structure prediction by ZEFSAII (Michael W. Deem and Ramdas Pophale) SiO2 
 PCOD9307716
Probable space group: C 2/C
;
_chemical_formula_sum "Si O2"
_cell_formula_units_Z 32
_cell_length_a 22.173900
_cell_length_b 15.507069
_cell_length_c 8.687421
_cell_angle_alpha 90.000000
_cell_angle_beta 29.197228
_cell_angle_gamma 90.000000
_cell_volume 1457.202752
_symmetry_space_group_name_H-M "C 2/C"
_symmetry_group_IT_number 15
_symmetry_cell_setting 'monoclinic'
loop_
_space_group_symop_operation_xyz
x,y,z
-x,y,1/2-z
-x,-y,-z
x,-y,1/2+z
1/2+x,1/2+y,z
1/2-x,1/2+y,1/2-z
1/2-x,1/2-y,-z
1/2+x,1/2-y,1/2+z
loop_
_atom_site_type_symbol
_atom_site_label
_atom_site_fract_x
_atom_site_fract_y
_atom_site_fract_z
Si Si1 0.500000 0.401800 0.750000
Si Si2 0.500000 0.777784 0.750000
Si Si3 0.098054 0.568818 0.848675
Si Si4 0.846501 0.817830 0.353542
Si Si5 0.237478 0.979487 0.789323
O O1 0.545832 0.341924 0.507373
O O2 0.614802 0.464083 0.537523
O O3 0.543282 0.838212 0.511569
O O4 0.602657 0.718305 0.598913
O O5 0.154511 0.539386 0.885431
O O6 0.211159 0.567267 0.476583
O O7 0.000000 0.500000 0.000000
O O8 0.750000 0.750000 0.500000
O O9 0.782632 0.908236 0.535025
#
# Coordination Sequence:
#
# PCOD9307716 Si02
#       5
#     4   4   8   8   8
#     4  12  27  50  73 106 144 192 242 292 361 436
#     4  12  27  44  71 108 140 186 234 294 367 412
#     4  12  24  46  73 103 138 189 247 288 349 431
#     4  12  28  47  69 109 147 183 234 303 363 419
#     4  12  25  47  76  99 142 192 242 292 351 436
#
# _framework density 21.959880999999999
#
# number of rings (size 3 to 8) (size 9 to 14) (size 15 to 20)
#    0.000    0.000    5.000    4.500    7.000    1.000 
#    0.000    0.000    0.000    0.000    0.000    0.000 
#    0.000    0.000    0.000    0.000    0.000    0.000 
#
# Total GULP energy -89492.518135 kJ/mol
# GULP energy per Si atom -5593.282383 kJ/mol
# Density = 2.190990 g / cm^3
# Si number density = 21.959881 Si / 1000 Ang^3
#
#
#
# Elastic Constant Matrix: (Units=GPa)
#
#
# Indices 1 2 3 4 5 6 
#
# 1 76.4853 4.1062 10.5562 0.0000 -24.8604 0.0000
# 2 4.1062 73.9402 26.2324 0.0000 -12.1585 0.0000
# 3 10.5562 26.2324 122.7091 0.0000 17.7089 0.0000
# 4 0.0000 0.0000 0.0000 9.2381 0.0000 8.6830
# 5 -24.8604 -12.1585 17.7089 0.0000 50.0274 0.0000
# 6 0.0000 0.0000 0.0000 8.6830 0.0000 55.9837
#
#
#
# Elastic Compliance Matrix: (Units=1/GPa)
#
#
# Indices 1 2 3 4 5 6 
#
# 1 0.016630 0.001852 -0.003250 0.000000 0.009864 0.000000
# 2 0.001852 0.016085 -0.004526 0.000000 0.006432 0.000000
# 3 -0.003250 -0.004526 0.010315 0.000000 -0.006367 0.000000
# 4 0.000000 0.000000 0.000000 0.126721 0.000000 -0.019654
# 5 0.009864 0.006432 -0.006367 0.000000 0.028708 0.000000
# 6 0.000000 0.000000 0.000000 -0.019654 0.000000 0.020911
#
#
# Mechanical properties :
#
#
# Convention : Reuss Voigt Hill
#
# Bulk Modulus (GPa) = 32.07067 39.43601 35.75334
# Shear Modulus (GPa) = 20.69427 38.53248 29.61338
#
# Velocity S-wave (km/s) = 3.07313 4.19343 3.67621
# Velocity P-wave (km/s) = 5.21805 6.43768 5.85968
#
# Compressibility (1/GPa) = 0.03118114
#
# Stress axis : x y z
#
# Youngs Moduli (GPa) = 60.13278 62.16996 96.94341
#
# Poissons Ratio (x) = -0.11511 0.31507
# Poissons Ratio (y) = -0.11134 0.43877
# Poissons Ratio (z) = 0.19543 0.28138
#
# Static dielectric constant tensor:
#      x y z
#    x 1.769570 0.000000 0.043330 
#    y 0.000000 1.733400 0.000000 
#    z 0.043330 0.000000 1.832810 
# 
# From -- ./inp_files/27675.got.cif
#   From: 2010.05.17/outbox.cif.g08.bks.cpg/sg15_14_cif.got.tgz:27675.got - 2010.06.03 18:47:42.
