data_PCOD9307540
_publ_section_title
;
Structure prediction by ZEFSAII (Michael W. Deem and Ramdas Pophale) SiO2 
 PCOD9307540
Probable space group: C 2/C
;
_chemical_formula_sum "Si O2"
_cell_formula_units_Z 44
_cell_length_a 4.946746
_cell_length_b 14.399631
_cell_length_c 26.033913
_cell_angle_alpha 90.000000
_cell_angle_beta 99.515849
_cell_angle_gamma 90.000000
_cell_volume 1828.912786
_symmetry_space_group_name_H-M "C 2/C"
_symmetry_group_IT_number 15
_symmetry_cell_setting 'monoclinic'
loop_
_space_group_symop_operation_xyz
x,y,z
-x,y,1/2-z
-x,-y,-z
x,-y,1/2+z
1/2+x,1/2+y,z
1/2-x,1/2+y,1/2-z
1/2-x,1/2-y,-z
1/2+x,1/2-y,1/2+z
loop_
_atom_site_type_symbol
_atom_site_label
_atom_site_fract_x
_atom_site_fract_y
_atom_site_fract_z
Si Si1 0.970037 0.790399 0.967855
Si Si2 0.178092 0.535470 0.146763
Si Si3 0.135693 0.240470 0.361650
Si Si4 0.000000 0.948264 0.250000
Si Si5 0.500000 0.186686 0.750000
Si Si6 0.000000 0.000000 0.500000
Si Si7 0.639629 0.435551 0.107107
O O1 0.943578 0.901356 0.968295
O O2 0.952885 0.761323 0.907439
O O3 0.750000 0.750000 0.000000
O O4 0.250000 0.750000 0.000000
O O5 0.202866 0.643494 0.135241
O O6 0.352669 0.510509 0.202712
O O7 0.336563 0.475059 0.108419
O O8 0.870922 0.498030 0.141635
O O9 0.982805 0.255160 0.302347
O O10 0.327016 0.330181 0.374658
O O11 0.763432 0.879606 0.262382
O O12 0.814724 0.944118 0.451881
#
# Coordination Sequence:
#
# PCOD9307540 Si02
#       7
#     8   8   8   4   4   4   8
#     4  12  30  47  78 112 154 204 261 320 391 468
#     4  12  27  48  76 111 153 204 251 321 385 468
#     4  12  27  52  77 117 155 209 260 324 395 476
#     4  12  23  50  75 114 152 200 259 316 391 464
#     4  12  27  46  83 112 156 204 255 328 395 472
#     4  12  28  50  76 112 154 206 260 328 390 454
#     4  12  28  46  78 110 153 201 263 317 389 461
#
# _framework density 24.058009999999999
#
# number of rings (size 3 to 8) (size 9 to 14) (size 15 to 20)
#    0.000    0.000    7.273    0.545    5.091    5.818 
#    0.000    1.818    0.000    0.000    0.000    0.000 
#    0.000    0.000    0.000    0.000    0.000    0.000 
#
# Total GULP energy -122733.935754 kJ/mol
# GULP energy per Si atom -5578.815262 kJ/mol
# Density = 2.400325 g / cm^3
# Si number density = 24.058010 Si / 1000 Ang^3
#
#
#
# Elastic Constant Matrix: (Units=GPa)
#
#
# Indices 1 2 3 4 5 6 
#
# 1 103.1575 22.9325 39.7991 0.0000 -8.9611 0.0000
# 2 22.9325 180.6891 45.9526 0.0000 -16.8810 0.0000
# 3 39.7991 45.9526 153.3842 0.0000 -6.4397 0.0000
# 4 0.0000 0.0000 0.0000 40.0764 0.0000 -9.3409
# 5 -8.9611 -16.8810 -6.4397 0.0000 31.5504 0.0000
# 6 0.0000 0.0000 0.0000 -9.3409 0.0000 10.1945
#
#
#
# Elastic Compliance Matrix: (Units=1/GPa)
#
#
# Indices 1 2 3 4 5 6 
#
# 1 0.011016 -0.000519 -0.002606 0.000000 0.002319 0.000000
# 2 -0.000519 0.006283 -0.001627 0.000000 0.002882 0.000000
# 3 -0.002606 -0.001627 0.007681 0.000000 -0.000043 0.000000
# 4 0.000000 0.000000 0.000000 0.031728 0.000000 0.029072
# 5 0.002319 0.002882 -0.000043 0.000000 0.033888 0.000000
# 6 0.000000 0.000000 0.000000 0.029072 0.000000 0.124730
#
#
# Mechanical properties :
#
#
# Convention : Reuss Voigt Hill
#
# Bulk Modulus (GPa) = 64.60696 72.73325 68.67011
# Shear Modulus (GPa) = 21.74025 38.26737 30.00381
#
# Velocity S-wave (km/s) = 3.00935 3.99260 3.53532
# Velocity P-wave (km/s) = 6.24403 7.18001 6.72831
#
# Compressibility (1/GPa) = 0.01547821
#
# Stress axis : x y z
#
# Youngs Moduli (GPa) = 90.77730 159.15401 130.18759
#
# Poissons Ratio (x) = 0.08257 0.33921
# Poissons Ratio (y) = 0.04709 0.21179
# Poissons Ratio (z) = 0.23652 0.25891
#
# Static dielectric constant tensor:
#      x y z
#    x 1.924170 0.000000 -0.067790 
#    y 0.000000 1.875850 0.000000 
#    z -0.067790 0.000000 2.004090 
# 
# From -- ./inp_files/285499.got.cif
#   From: 2010.05.17/outbox.cif.g08.bks.cpg/sg15_143_cif.got.tgz:285499.got - 2010.06.03 18:47:42.
