data_PCOD9307837
_publ_section_title
;
Structure prediction by ZEFSAII (Michael W. Deem and Ramdas Pophale) SiO2 
 PCOD9307837
Probable space group: C 2/C
;
_chemical_formula_sum "Si O2"
_cell_formula_units_Z 28
_cell_length_a 8.256917
_cell_length_b 26.818336
_cell_length_c 5.130900
_cell_angle_alpha 90.000000
_cell_angle_beta 92.825779
_cell_angle_gamma 90.000000
_cell_volume 1134.788428
_symmetry_space_group_name_H-M "C 2/C"
_symmetry_group_IT_number 15
_symmetry_cell_setting 'monoclinic'
loop_
_space_group_symop_operation_xyz
x,y,z
-x,y,1/2-z
-x,-y,-z
x,-y,1/2+z
1/2+x,1/2+y,z
1/2-x,1/2+y,1/2-z
1/2-x,1/2-y,-z
1/2+x,1/2-y,1/2+z
loop_
_atom_site_type_symbol
_atom_site_label
_atom_site_fract_x
_atom_site_fract_y
_atom_site_fract_z
Si Si1 0.500000 0.125016 0.250000
Si Si2 0.000000 0.150375 0.750000
Si Si3 0.323843 0.033125 0.406724
Si Si4 0.676029 0.201080 0.626878
Si Si5 0.500000 0.583638 0.250000
O O1 0.414085 0.086173 0.438838
O O2 0.624956 0.160004 0.408826
O O3 0.167320 0.180516 0.700366
O O4 0.955969 0.117865 0.493398
O O5 0.138693 0.048885 0.374467
O O6 0.353617 0.993932 0.634426
O O7 0.500000 0.211095 0.750000
O O8 0.750000 0.250000 0.500000
#
# Coordination Sequence:
#
# PCOD9307837 Si02
#       5
#     4   4   8   8   4
#     4  12  27  50  78 111 165 212 266 339 416 482
#     4  12  27  51  84 116 168 214 274 330 426 482
#     4  12  26  45  76 117 160 214 274 328 402 489
#     4  12  30  52  86 119 161 216 279 347 423 496
#     4  12  24  49  78 113 163 216 264 343 396 490
#
# _framework density 24.674204
#
# number of rings (size 3 to 8) (size 9 to 14) (size 15 to 20)
#    0.000    0.000    2.857    6.000    6.000    2.286 
#    0.000    0.000    0.000    0.000    0.000    0.000 
#    0.000    0.000    0.000    0.000    0.000    0.000 
#
# Total GULP energy -78360.375438 kJ/mol
# GULP energy per Si atom -5597.169674 kJ/mol
# Density = 2.461804 g / cm^3
# Si number density = 24.674204 Si / 1000 Ang^3
#
#
#
# Elastic Constant Matrix: (Units=GPa)
#
#
# Indices 1 2 3 4 5 6 
#
# 1 185.6807 67.7068 34.7864 0.0000 15.0174 0.0000
# 2 67.7068 160.3405 51.1530 0.0000 5.2558 0.0000
# 3 34.7864 51.1530 102.7024 0.0000 -3.2700 0.0000
# 4 0.0000 0.0000 0.0000 33.3299 0.0000 -3.8773
# 5 15.0174 5.2558 -3.2700 0.0000 52.7729 0.0000
# 6 0.0000 0.0000 0.0000 -3.8773 0.0000 49.5049
#
#
#
# Elastic Compliance Matrix: (Units=1/GPa)
#
#
# Indices 1 2 3 4 5 6 
#
# 1 0.006598 -0.002377 -0.001105 0.000000 -0.001709 0.000000
# 2 -0.002377 0.008321 -0.003351 0.000000 -0.000360 0.000000
# 3 -0.001105 -0.003351 0.011824 0.000000 0.001381 0.000000
# 4 0.000000 0.000000 0.000000 0.030279 0.000000 0.002371
# 5 -0.001709 -0.000360 0.001381 0.000000 0.019557 0.000000
# 6 0.000000 0.000000 0.000000 0.002371 0.000000 0.020386
#
#
# Mechanical properties :
#
#
# Convention : Reuss Voigt Hill
#
# Bulk Modulus (GPa) = 76.47229 84.00179 80.23704
# Shear Modulus (GPa) = 43.48183 46.79334 45.13758
#
# Velocity S-wave (km/s) = 4.20246 4.35955 4.28172
# Velocity P-wave (km/s) = 7.38970 7.71098 7.55204
#
# Compressibility (1/GPa) = 0.01307663
#
# Stress axis : x y z
#
# Youngs Moduli (GPa) = 151.56639 120.17099 84.57324
#
# Poissons Ratio (x) = 0.28570 0.09345
# Poissons Ratio (y) = 0.36035 0.28339
# Poissons Ratio (z) = 0.16748 0.40268
#
# Static dielectric constant tensor:
#      x y z
#    x 2.201590 0.000000 -0.050980 
#    y 0.000000 1.882640 0.000000 
#    z -0.050980 0.000000 1.878670 
# 
# From -- ./inp_files/1982.got.cif
#   From: 2010.05.17/outbox.cif.g08.bks.cpg/sg15_1_cif.got.tgz:1982.got - 2010.06.03 18:47:42.
