data_PCOD9307704
_publ_section_title
;
Structure prediction by ZEFSAII (Michael W. Deem and Ramdas Pophale) SiO2 
 PCOD9307704
Probable space group: C 2/C
;
_chemical_formula_sum "Si O2"
_cell_formula_units_Z 52
_cell_length_a 12.469911
_cell_length_b 15.027246
_cell_length_c 14.859116
_cell_angle_alpha 90.000000
_cell_angle_beta 108.790820
_cell_angle_gamma 90.000000
_cell_volume 2636.018808
_symmetry_space_group_name_H-M "C 2/C"
_symmetry_group_IT_number 15
_symmetry_cell_setting 'monoclinic'
loop_
_space_group_symop_operation_xyz
x,y,z
-x,y,1/2-z
-x,-y,-z
x,-y,1/2+z
1/2+x,1/2+y,z
1/2-x,1/2+y,1/2-z
1/2-x,1/2-y,-z
1/2+x,1/2-y,1/2+z
loop_
_atom_site_type_symbol
_atom_site_label
_atom_site_fract_x
_atom_site_fract_y
_atom_site_fract_z
Si Si1 0.502392 0.938117 0.414680
Si Si2 0.283755 0.166288 0.567606
Si Si3 0.132771 0.003433 0.011392
Si Si4 0.795201 0.675372 0.782297
Si Si5 0.500000 0.930541 0.750000
Si Si6 0.245980 0.120011 0.197322
Si Si7 0.865355 0.023981 0.700075
O O1 0.607350 0.873400 0.451427
O O2 0.392351 0.880884 0.359246
O O3 0.500000 0.000000 0.500000
O O4 0.525388 0.004535 0.339147
O O5 0.250000 0.250000 0.500000
O O6 0.315092 0.181016 0.680432
O O7 0.184964 0.093610 0.541172
O O8 0.197676 0.071093 0.095379
O O9 0.153557 0.025096 0.912263
O O10 0.000000 0.000000 0.000000
O O11 0.790997 0.777421 0.812010
O O12 0.683712 0.615381 0.770989
O O13 0.617085 0.880148 0.762529
O O14 0.197627 0.058620 0.266414
O O15 0.000000 0.015191 0.750000
#
# Coordination Sequence:
#
# PCOD9307704 Si02
#       7
#     8   8   8   8   4   8   8
#     4  12  24  47  74 100 143 193 243 306 368 434
#     4  12  25  44  71 107 142 188 250 301 358 441
#     4  12  24  46  70 103 145 185 239 299 372 432
#     4  12  26  46  70 107 145 189 248 299 370 438
#     4  12  24  50  70 100 150 190 242 310 360 438
#     4  12  27  46  73 106 145 196 240 304 371 439
#     4  12  24  47  72 100 146 192 235 303 364 430
#
# _framework density 19.726717000000001
#
# number of rings (size 3 to 8) (size 9 to 14) (size 15 to 20)
#    0.000    0.000    7.692    1.846    5.385    1.846 
#    0.000    0.000    0.000    0.000    0.000    0.000 
#    0.000    0.000    0.000    0.000    0.000    0.000 
#
# Total GULP energy -145371.790849 kJ/mol
# GULP energy per Si atom -5591.222725 kJ/mol
# Density = 1.968182 g / cm^3
# Si number density = 19.726717 Si / 1000 Ang^3
#
#
#
# Elastic Constant Matrix: (Units=GPa)
#
#
# Indices 1 2 3 4 5 6 
#
# 1 138.2618 58.3922 47.6946 0.0000 12.6021 0.0000
# 2 58.3922 153.9797 66.4898 0.0000 -5.1657 0.0000
# 3 47.6946 66.4898 128.5399 0.0000 -19.6421 0.0000
# 4 0.0000 0.0000 0.0000 39.8528 0.0000 3.7594
# 5 12.6021 -5.1657 -19.6421 0.0000 38.8634 0.0000
# 6 0.0000 0.0000 0.0000 3.7594 0.0000 23.4268
#
#
#
# Elastic Compliance Matrix: (Units=1/GPa)
#
#
# Indices 1 2 3 4 5 6 
#
# 1 0.009855 -0.002565 -0.003110 0.000000 -0.005108 0.000000
# 2 -0.002565 0.009079 -0.003720 0.000000 0.000158 0.000000
# 3 -0.003110 -0.003720 0.011852 0.000000 0.006504 0.000000
# 4 0.000000 0.000000 0.000000 0.025478 0.000000 -0.004089
# 5 -0.005108 0.000158 0.006504 0.000000 0.030696 0.000000
# 6 0.000000 0.000000 0.000000 -0.004089 0.000000 0.043342
#
#
# Mechanical properties :
#
#
# Convention : Reuss Voigt Hill
#
# Bulk Modulus (GPa) = 83.37497 85.10387 84.23942
# Shear Modulus (GPa) = 32.66029 36.97560 34.81794
#
# Velocity S-wave (km/s) = 4.07337 4.33412 4.20577
# Velocity P-wave (km/s) = 8.02993 8.26325 8.14742
#
# Compressibility (1/GPa) = 0.01199401
#
# Stress axis : x y z
#
# Youngs Moduli (GPa) = 101.47540 110.14503 84.37468
#
# Poissons Ratio (x) = 0.28257 0.26242
# Poissons Ratio (y) = 0.26033 0.31388
# Poissons Ratio (z) = 0.31560 0.40975
#
# Static dielectric constant tensor:
#      x y z
#    x 1.701040 0.000000 -0.014580 
#    y 0.000000 1.609220 0.000000 
#    z -0.014580 0.000000 1.639270 
# 
# From -- ./inp_files/144310.got.cif
#   From: 2010.05.17/outbox.cif.g08.bks.cpg/sg15_73_cif.got.tgz:144310.got - 2010.06.03 18:47:42.
