data_PCOD9307722
_publ_section_title
;
Structure prediction by ZEFSAII (Michael W. Deem and Ramdas Pophale) SiO2 
 PCOD9307722
Probable space group: C 2/C
;
_chemical_formula_sum "Si O2"
_cell_formula_units_Z 40
_cell_length_a 15.272363
_cell_length_b 17.857833
_cell_length_c 11.943988
_cell_angle_alpha 90.000000
_cell_angle_beta 27.912120
_cell_angle_gamma 90.000000
_cell_volume 1524.890065
_symmetry_space_group_name_H-M "C 2/C"
_symmetry_group_IT_number 15
_symmetry_cell_setting 'monoclinic'
loop_
_space_group_symop_operation_xyz
x,y,z
-x,y,1/2-z
-x,-y,-z
x,-y,1/2+z
1/2+x,1/2+y,z
1/2-x,1/2+y,1/2-z
1/2-x,1/2-y,-z
1/2+x,1/2-y,1/2+z
loop_
_atom_site_type_symbol
_atom_site_label
_atom_site_fract_x
_atom_site_fract_y
_atom_site_fract_z
Si Si1 0.217106 0.669690 0.979201
Si Si2 0.000000 0.462735 0.250000
Si Si3 0.294420 0.457301 0.553845
Si Si4 0.779341 0.692409 0.786003
Si Si5 0.694253 0.139052 0.375919
Si Si6 0.000000 0.903465 0.750000
O O1 0.320629 0.600548 0.920484
O O2 0.000000 0.655506 0.250000
O O3 0.250000 0.750000 0.000000
O O4 0.260873 0.676370 0.799151
O O5 0.089805 0.507540 0.251409
O O6 0.826154 0.413037 0.491772
O O7 0.283877 0.407295 0.675403
O O8 0.429910 0.527832 0.414688
O O9 0.790225 0.781982 0.787395
O O10 0.981790 0.658411 0.583479
O O11 0.630016 0.658069 0.038225
#
# Coordination Sequence:
#
# PCOD9307722 Si02
#       6
#     8   4   8   8   8   4
#     4  12  24  46  75 106 144 201 251 308 367 449
#     4  12  25  46  77 102 150 198 250 304 387 444
#     4  12  26  48  71 110 146 201 248 313 377 442
#     4  12  26  50  74 114 151 198 257 306 378 455
#     4  12  27  48  79 105 155 203 250 312 378 457
#     4  12  31  44  73 114 160 188 248 316 385 448
#
# _framework density 26.231397999999999
#
# number of rings (size 3 to 8) (size 9 to 14) (size 15 to 20)
#    0.000    0.000    7.000    1.200    7.000    4.000 
#    0.000    0.000    0.000    0.000    0.000    0.000 
#    0.000    0.000    0.000    0.000    0.000    0.000 
#
# Total GULP energy -111877.246105 kJ/mol
# GULP energy per Si atom -5593.862305 kJ/mol
# Density = 2.617169 g / cm^3
# Si number density = 26.231398 Si / 1000 Ang^3
#
#
#
# Elastic Constant Matrix: (Units=GPa)
#
#
# Indices 1 2 3 4 5 6 
#
# 1 105.4595 56.5623 51.3358 -0.0147 13.9999 0.0290
# 2 56.5623 141.8256 39.6200 -0.0112 8.0679 0.0326
# 3 51.3358 39.6200 145.1196 -0.0096 1.1945 0.0206
# 4 -0.0147 -0.0112 -0.0096 69.0781 0.0043 -2.6339
# 5 13.9999 8.0679 1.1945 0.0043 28.4013 -0.0169
# 6 0.0290 0.0326 0.0206 -2.6339 -0.0169 57.3449
#
#
#
# Elastic Compliance Matrix: (Units=1/GPa)
#
#
# Indices 1 2 3 4 5 6 
#
# 1 0.014472 -0.004361 -0.003881 0.000002 -0.005731 -0.000005
# 2 -0.004361 0.009072 -0.000931 0.000000 -0.000388 -0.000003
# 3 -0.003881 -0.000931 0.008503 0.000000 0.001820 0.000000
# 4 0.000002 0.000000 0.000000 0.014502 -0.000003 0.000666
# 5 -0.005731 -0.000388 0.001820 -0.000003 0.038069 0.000014
# 6 -0.000005 -0.000003 0.000000 0.000666 0.000014 0.017469
#
#
# Mechanical properties :
#
#
# Convention : Reuss Voigt Hill
#
# Bulk Modulus (GPa) = 72.99292 76.38232 74.68762
# Shear Modulus (GPa) = 39.99989 47.29063 43.64526
#
# Velocity S-wave (km/s) = 3.90922 4.25058 4.08346
# Velocity P-wave (km/s) = 6.94715 7.29875 7.12512
#
# Compressibility (1/GPa) = 0.01369996
#
# Stress axis : x y z
#
# Youngs Moduli (GPa) = 69.10047 110.22473 117.60390
#
# Poissons Ratio (x) = 0.48071 0.45648
# Poissons Ratio (y) = 0.30136 0.10948
# Poissons Ratio (z) = 0.26821 0.10261
#
# Static dielectric constant tensor:
#      x y z
#    x 1.015620 -0.000090 0.024840 
#    y -0.000090 2.036840 0.000030 
#    z 0.024840 0.000030 2.094320 
# 
# From -- ./inp_files/29152.got.cif
#   From: 2010.05.17/outbox.cif.g08.bks.cpg/sg15_15_cif.got.tgz:29152.got - 2010.06.03 18:47:42.
