data_PCOD9307305
_publ_section_title
;
Structure prediction by ZEFSAII (Michael W. Deem and Ramdas Pophale) SiO2 
 PCOD9307305
Probable space group: C 2/C
;
_chemical_formula_sum "Si O2"
_cell_formula_units_Z 44
_cell_length_a 10.474680
_cell_length_b 16.239113
_cell_length_c 16.252021
_cell_angle_alpha 90.000000
_cell_angle_beta 135.060733
_cell_angle_gamma 90.000000
_cell_volume 1952.695874
_symmetry_space_group_name_H-M "C 2/C"
_symmetry_group_IT_number 15
_symmetry_cell_setting 'monoclinic'
loop_
_space_group_symop_operation_xyz
x,y,z
-x,y,1/2-z
-x,-y,-z
x,-y,1/2+z
1/2+x,1/2+y,z
1/2-x,1/2+y,1/2-z
1/2-x,1/2-y,-z
1/2+x,1/2-y,1/2+z
loop_
_atom_site_type_symbol
_atom_site_label
_atom_site_fract_x
_atom_site_fract_y
_atom_site_fract_z
Si Si1 0.339350 0.414322 0.858887
Si Si2 0.619747 0.963649 0.480764
Si Si3 0.939124 0.787394 0.047200
Si Si4 0.954936 0.054314 0.636238
Si Si5 0.000000 0.520069 0.750000
Si Si6 0.290434 0.323030 0.665336
O O1 0.469335 0.489529 0.894248
O O2 0.299595 0.372220 0.754265
O O3 0.166546 0.460914 0.812277
O O4 0.396185 0.345070 0.949142
O O5 0.739600 0.887653 0.569526
O O6 0.500000 0.000000 0.500000
O O7 0.743793 0.044002 0.524741
O O8 0.529550 0.937254 0.352902
O O9 0.014768 0.852877 0.148331
O O10 0.109864 0.732424 0.095820
O O11 0.750000 0.750000 0.000000
O O12 0.000000 0.030001 0.750000
O O13 0.500000 0.289943 0.750000
#
# Coordination Sequence:
#
# PCOD9307305 Si02
#       6
#     8   8   8   8   4   8
#     4  12  24  49  74 110 153 203 259 320 385 470
#     4  12  22  46  76 114 153 202 261 326 388 465
#     4  12  29  47  76 113 157 205 263 323 398 472
#     4  12  24  48  77 106 148 202 261 321 380 473
#     4  12  24  40  82 112 146 204 274 316 378 466
#     4  12  26  51  74 114 168 199 251 339 403 455
#
# _framework density 22.532951000000001
#
# number of rings (size 3 to 8) (size 9 to 14) (size 15 to 20)
#    0.000    0.000    7.273    2.727    2.545    0.727 
#    1.636    0.000    2.000    0.000    0.000    0.000 
#    0.000    0.000    0.000    0.000    0.000    0.000 
#
# Total GULP energy -122674.604224 kJ/mol
# GULP energy per Si atom -5576.118374 kJ/mol
# Density = 2.248166 g / cm^3
# Si number density = 22.532951 Si / 1000 Ang^3
#
#
#
# Elastic Constant Matrix: (Units=GPa)
#
#
# Indices 1 2 3 4 5 6 
#
# 1 164.9810 55.4509 59.6854 0.0000 6.5008 0.0000
# 2 55.4509 97.3955 35.3068 0.0000 5.7515 0.0000
# 3 59.6854 35.3068 144.6019 0.0000 -26.8396 0.0000
# 4 0.0000 0.0000 0.0000 35.4419 0.0000 -6.1702
# 5 6.5008 5.7515 -26.8396 0.0000 44.4177 0.0000
# 6 0.0000 0.0000 0.0000 -6.1702 0.0000 51.5635
#
#
#
# Elastic Compliance Matrix: (Units=1/GPa)
#
#
# Indices 1 2 3 4 5 6 
#
# 1 0.008492 -0.003539 -0.003139 0.000000 -0.002681 0.000000
# 2 -0.003539 0.013248 -0.002249 0.000000 -0.002556 0.000000
# 3 -0.003139 -0.002249 0.010024 0.000000 0.006807 0.000000
# 4 0.000000 0.000000 0.000000 0.028816 0.000000 0.003448
# 5 -0.002681 -0.002556 0.006807 0.000000 0.027350 0.000000
# 6 0.000000 0.000000 0.000000 0.003448 0.000000 0.019806
#
#
# Mechanical properties :
#
#
# Convention : Reuss Voigt Hill
#
# Bulk Modulus (GPa) = 71.88184 78.65164 75.26674
# Shear Modulus (GPa) = 38.39520 43.38697 40.89109
#
# Velocity S-wave (km/s) = 4.13238 4.39280 4.26458
# Velocity P-wave (km/s) = 7.39857 7.79165 7.59765
#
# Compressibility (1/GPa) = 0.01391172
#
# Stress axis : x y z
#
# Youngs Moduli (GPa) = 117.76123 75.48222 99.76439
#
# Poissons Ratio (x) = 0.26710 0.31313
# Poissons Ratio (y) = 0.41670 0.22434
# Poissons Ratio (z) = 0.36962 0.16973
#
# Static dielectric constant tensor:
#      x y z
#    x 1.835370 0.000000 -0.007650 
#    y 0.000000 1.940030 0.000000 
#    z -0.007650 0.000000 1.903600 
# 
# From -- ./inp_files/134970.got.cif
#   From: 2010.05.17/outbox.cif.g08.bks.cpg/sg15_68_cif.got.tgz:134970.got - 2010.06.03 18:47:42.
