data_PCOD9307510
_publ_section_title
;
Structure prediction by ZEFSAII (Michael W. Deem and Ramdas Pophale) SiO2 
 PCOD9307510
Probable space group: C 2/C
;
_chemical_formula_sum "Si O2"
_cell_formula_units_Z 36
_cell_length_a 8.432890
_cell_length_b 16.773678
_cell_length_c 12.332522
_cell_angle_alpha 90.000000
_cell_angle_beta 110.509125
_cell_angle_gamma 90.000000
_cell_volume 1633.873373
_symmetry_space_group_name_H-M "C 2/C"
_symmetry_group_IT_number 15
_symmetry_cell_setting 'monoclinic'
loop_
_space_group_symop_operation_xyz
x,y,z
-x,y,1/2-z
-x,-y,-z
x,-y,1/2+z
1/2+x,1/2+y,z
1/2-x,1/2+y,1/2-z
1/2-x,1/2-y,-z
1/2+x,1/2-y,1/2+z
loop_
_atom_site_type_symbol
_atom_site_label
_atom_site_fract_x
_atom_site_fract_y
_atom_site_fract_z
Si Si1 0.130886 0.954496 0.606830
Si Si2 0.663353 0.836117 0.995551
Si Si3 0.312899 0.247235 0.391577
Si Si4 0.000000 0.156218 0.250000
Si Si5 0.806692 0.395892 0.249629
O O1 0.258772 0.900277 0.567911
O O2 0.010915 0.898225 0.648682
O O3 0.234918 0.016086 0.707458
O O4 0.000000 0.000000 0.500000
O O5 0.469920 0.812261 0.925621
O O6 0.750000 0.750000 0.000000
O O7 0.686974 0.870176 0.122971
O O8 0.250000 0.250000 0.500000
O O9 0.321997 0.336010 0.345016
O O10 0.163693 0.210052 0.285667
O O11 0.000000 0.389239 0.250000
#
# Coordination Sequence:
#
# PCOD9307510 Si02
#       5
#     8   8   8   4   8
#     4  12  28  47  72 108 150 195 245 316 377 451
#     4  12  27  47  79 112 146 202 262 309 376 471
#     4  12  23  47  74 104 144 194 248 306 375 448
#     4  12  26  46  70 102 142 194 238 306 374 440
#     4  12  26  46  74 107 151 193 244 314 384 442
#
# _framework density 22.033529000000001
#
# number of rings (size 3 to 8) (size 9 to 14) (size 15 to 20)
#    0.000    0.000    3.333    6.667    3.111    5.333 
#    0.000    0.000    0.000    0.000    0.000    0.000 
#    0.000    0.000    0.000    0.000    0.000    0.000 
#
# Total GULP energy -100761.412107 kJ/mol
# GULP energy per Si atom -5597.856228 kJ/mol
# Density = 2.198338 g / cm^3
# Si number density = 22.033529 Si / 1000 Ang^3
#
#
#
# Elastic Constant Matrix: (Units=GPa)
#
#
# Indices 1 2 3 4 5 6 
#
# 1 96.1657 38.9510 13.9573 0.0000 4.2109 0.0000
# 2 38.9510 132.0743 31.0889 0.0000 -2.0141 0.0000
# 3 13.9573 31.0889 55.2162 0.0000 -1.3163 0.0000
# 4 0.0000 0.0000 0.0000 51.0454 0.0000 -16.7903
# 5 4.2109 -2.0141 -1.3163 0.0000 41.8118 0.0000
# 6 0.0000 0.0000 0.0000 -16.7903 0.0000 28.8465
#
#
#
# Elastic Compliance Matrix: (Units=1/GPa)
#
#
# Indices 1 2 3 4 5 6 
#
# 1 0.011958 -0.003261 -0.001220 0.000000 -0.001400 0.000000
# 2 -0.003261 0.009620 -0.004577 0.000000 0.000648 0.000000
# 3 -0.001220 -0.004577 0.021010 0.000000 0.000564 0.000000
# 4 0.000000 0.000000 0.000000 0.024229 0.000000 0.014103
# 5 -0.001400 0.000648 0.000564 0.000000 0.024107 0.000000
# 6 0.000000 0.000000 0.000000 0.014103 0.000000 0.042875
#
#
# Mechanical properties :
#
#
# Convention : Reuss Voigt Hill
#
# Bulk Modulus (GPa) = 40.86287 50.16120 45.51203
# Shear Modulus (GPa) = 31.23607 37.63801 34.43704
#
# Velocity S-wave (km/s) = 3.76927 4.13754 3.95769
# Velocity P-wave (km/s) = 6.12611 6.75581 6.44865
#
# Compressibility (1/GPa) = 0.02447210
#
# Stress axis : x y z
#
# Youngs Moduli (GPa) = 83.62731 103.94588 47.59747
#
# Poissons Ratio (x) = 0.33894 0.05807
# Poissons Ratio (y) = 0.27268 0.21785
# Poissons Ratio (z) = 0.10203 0.47576
#
# Static dielectric constant tensor:
#      x y z
#    x 1.585300 0.000000 -0.236690 
#    y 0.000000 1.739550 0.000000 
#    z -0.236690 0.000000 1.462950 
# 
# From -- ./inp_files/76321.got.cif
#   From: 2010.05.17/outbox.cif.g08.bks.cpg/sg15_39_cif.got.tgz:76321.got - 2010.06.03 18:47:42.
