data_PCOD9307812
_publ_section_title
;
Structure prediction by ZEFSAII (Michael W. Deem and Ramdas Pophale) SiO2 
 PCOD9307812
Probable space group: C 2/C
;
_chemical_formula_sum "Si O2"
_cell_formula_units_Z 40
_cell_length_a 26.814323
_cell_length_b 10.118772
_cell_length_c 5.595334
_cell_angle_alpha 90.000000
_cell_angle_beta 75.664918
_cell_angle_gamma 90.000000
_cell_volume 1470.901606
_symmetry_space_group_name_H-M "C 2/C"
_symmetry_group_IT_number 15
_symmetry_cell_setting 'monoclinic'
loop_
_space_group_symop_operation_xyz
x,y,z
-x,y,1/2-z
-x,-y,-z
x,-y,1/2+z
1/2+x,1/2+y,z
1/2-x,1/2+y,1/2-z
1/2-x,1/2-y,-z
1/2+x,1/2-y,1/2+z
loop_
_atom_site_type_symbol
_atom_site_label
_atom_site_fract_x
_atom_site_fract_y
_atom_site_fract_z
Si Si1 0.500000 0.694080 0.250000
Si Si2 0.000000 0.349558 0.750000
Si Si3 0.612906 0.573551 0.099321
Si Si4 0.741518 0.963103 0.202920
Si Si5 0.383241 0.070697 0.396601
Si Si6 0.687123 0.707701 0.336097
O O1 0.498754 0.771020 0.501924
O O2 0.553905 0.618108 0.191593
O O3 0.054657 0.421043 0.678110
O O4 0.618222 0.474267 0.320747
O O5 0.655414 0.682161 0.128303
O O6 0.735762 0.806543 0.255012
O O7 0.717711 0.020863 0.471278
O O8 0.790194 0.064781 0.112424
O O9 0.354078 0.212833 0.453069
O O10 0.371408 0.999436 0.661383
#
# Coordination Sequence:
#
# PCOD9307812 Si02
#       6
#     4   4   8   8   8   8
#     4  12  24  48  78 116 166 222 276 336 412 504
#     4  12  24  48  78 116 166 222 276 336 412 504
#     4  12  27  47  77 117 164 217 274 338 411 499
#     4  12  28  52  82 114 160 212 278 352 422 484
#     4  12  27  47  77 117 164 217 274 338 411 499
#     4  12  28  52  82 120 164 218 282 348 418 496
#
# _framework density 27.194203999999999
#
# number of rings (size 3 to 8) (size 9 to 14) (size 15 to 20)
#    0.000    0.000    2.000    7.200    0.000    3.200 
#    0.000    0.000    0.000    0.000    0.000    0.000 
#    0.000    0.000    0.000    0.000    0.000    0.000 
#
# Total GULP energy -111815.695868 kJ/mol
# GULP energy per Si atom -5590.784793 kJ/mol
# Density = 2.713231 g / cm^3
# Si number density = 27.194204 Si / 1000 Ang^3
#
#
#
# Elastic Constant Matrix: (Units=GPa)
#
#
# Indices 1 2 3 4 5 6 
#
# 1 206.7810 75.3083 71.7551 0.0000 2.1954 0.0000
# 2 75.3083 138.1785 84.8575 0.0000 8.0734 0.0000
# 3 71.7551 84.8575 258.8807 0.0000 2.4957 0.0000
# 4 0.0000 0.0000 0.0000 85.4816 0.0000 -6.0730
# 5 2.1954 8.0734 2.4957 0.0000 58.1019 0.0000
# 6 0.0000 0.0000 0.0000 -6.0730 0.0000 65.2147
#
#
#
# Elastic Compliance Matrix: (Units=1/GPa)
#
#
# Indices 1 2 3 4 5 6 
#
# 1 0.006153 -0.002901 -0.000757 0.000000 0.000203 0.000000
# 2 -0.002901 0.010503 -0.002627 0.000000 -0.001237 0.000000
# 3 -0.000757 -0.002627 0.004932 0.000000 0.000182 0.000000
# 4 0.000000 0.000000 0.000000 0.011776 0.000000 0.001097
# 5 0.000203 -0.001237 0.000182 0.000000 0.017368 0.000000
# 6 0.000000 0.000000 0.000000 0.001097 0.000000 0.015436
#
#
# Mechanical properties :
#
#
# Convention : Reuss Voigt Hill
#
# Bulk Modulus (GPa) = 110.86774 118.63135 114.74954
# Shear Modulus (GPa) = 61.16748 66.55427 63.86087
#
# Velocity S-wave (km/s) = 4.74781 4.95246 4.85121
# Velocity P-wave (km/s) = 8.42098 8.74190 8.58294
#
# Compressibility (1/GPa) = 0.00901976
#
# Stress axis : x y z
#
# Youngs Moduli (GPa) = 162.52804 95.20741 202.76462
#
# Poissons Ratio (x) = 0.27615 0.15341
# Poissons Ratio (y) = 0.47142 0.53266
# Poissons Ratio (z) = 0.12297 0.25011
#
# Static dielectric constant tensor:
#      x y z
#    x 2.256230 0.000000 -0.047680 
#    y 0.000000 2.209380 0.000000 
#    z -0.047680 0.000000 1.983040 
# 
# From -- ./inp_files/16734.got.cif
#   From: 2010.05.17/outbox.cif.g08.bks.cpg/sg15_9_cif.got.tgz:16734.got - 2010.06.03 18:47:42.
