data_PCOD9307285
_publ_section_title
;
Structure prediction by ZEFSAII (Michael W. Deem and Ramdas Pophale) SiO2 
 PCOD9307285
Probable space group: C 2/C
;
_chemical_formula_sum "Si O2"
_cell_formula_units_Z 48
_cell_length_a 16.705668
_cell_length_b 15.674267
_cell_length_c 17.453804
_cell_angle_alpha 90.000000
_cell_angle_beta 149.577464
_cell_angle_gamma 90.000000
_cell_volume 2314.257612
_symmetry_space_group_name_H-M "C 2/C"
_symmetry_group_IT_number 15
_symmetry_cell_setting 'monoclinic'
loop_
_space_group_symop_operation_xyz
x,y,z
-x,y,1/2-z
-x,-y,-z
x,-y,1/2+z
1/2+x,1/2+y,z
1/2-x,1/2+y,1/2-z
1/2-x,1/2-y,-z
1/2+x,1/2-y,1/2+z
loop_
_atom_site_type_symbol
_atom_site_label
_atom_site_fract_x
_atom_site_fract_y
_atom_site_fract_z
Si Si1 0.316827 0.803226 0.740064
Si Si2 0.391338 0.566038 0.366247
Si Si3 0.341742 0.193179 0.011166
Si Si4 0.497692 0.150946 0.657687
Si Si5 0.350986 0.713133 0.930277
Si Si6 0.865257 0.505361 0.957400
O O1 0.242835 0.896019 0.688589
O O2 0.194722 0.742913 0.597352
O O3 0.356536 0.768292 0.857028
O O4 0.473512 0.801231 0.819662
O O5 0.500000 0.500000 0.500000
O O6 0.508069 0.644833 0.445251
O O7 0.296683 0.526732 0.216791
O O8 0.250000 0.250000 0.000000
O O9 0.325194 0.093917 0.969408
O O10 0.500000 0.156014 0.750000
O O11 0.382316 0.221313 0.524869
O O12 0.679987 0.168502 0.784983
O O13 0.432576 0.061449 0.573937
O O14 0.000000 0.500000 0.000000
#
# Coordination Sequence:
#
# PCOD9307285 Si02
#       6
#     8   8   8   8   8   8
#     4  12  22  45  74 101 140 201 253 306 381 468
#     4  12  24  41  75 108 137 188 265 319 362 444
#     4  12  27  45  70 105 153 196 245 319 396 454
#     4  12  25  43  70 106 145 191 240 324 397 454
#     4  12  22  45  71 104 142 191 257 314 384 465
#     4  12  24  48  73 107 143 197 262 313 368 475
#
# _framework density 20.740991999999999
#
# number of rings (size 3 to 8) (size 9 to 14) (size 15 to 20)
#    0.000    0.000    6.667    4.000    0.000    1.333 
#    0.000    0.000    0.000    0.000    0.000    0.000 
#    0.000    0.000    0.000    0.000    0.000    0.000 
#
# Total GULP energy -133919.285166 kJ/mol
# GULP energy per Si atom -5579.970215 kJ/mol
# Density = 2.069378 g / cm^3
# Si number density = 20.740992 Si / 1000 Ang^3
#
#
#
# Elastic Constant Matrix: (Units=GPa)
#
#
# Indices 1 2 3 4 5 6 
#
# 1 99.2946 56.9078 49.0311 -0.0004 -6.3821 0.0003
# 2 56.9078 142.6529 59.0577 -0.0008 -10.5739 0.0000
# 3 49.0311 59.0577 149.9988 -0.0012 -4.6812 -0.0002
# 4 -0.0004 -0.0008 -0.0012 55.2411 -0.0005 -1.2423
# 5 -6.3821 -10.5739 -4.6812 -0.0005 49.9056 0.0002
# 6 0.0003 0.0000 -0.0002 -1.2423 0.0002 31.3041
#
#
#
# Elastic Compliance Matrix: (Units=1/GPa)
#
#
# Indices 1 2 3 4 5 6 
#
# 1 0.014018 -0.004371 -0.002843 0.000000 0.000600 0.000000
# 2 -0.004371 0.009847 -0.002408 0.000000 0.001302 0.000000
# 3 -0.002843 -0.002408 0.008542 0.000000 -0.000072 0.000000
# 4 0.000000 0.000000 0.000000 0.018119 0.000000 0.000719
# 5 0.000600 0.001302 -0.000072 0.000000 0.020384 0.000000
# 6 0.000000 0.000000 0.000000 0.000719 0.000000 0.031973
#
#
# Mechanical properties :
#
#
# Convention : Reuss Voigt Hill
#
# Bulk Modulus (GPa) = 75.96155 80.21550 78.08852
# Shear Modulus (GPa) = 39.52174 42.42015 40.97095
#
# Velocity S-wave (km/s) = 4.36993 4.52733 4.44933
# Velocity P-wave (km/s) = 7.88448 8.12944 8.00790
#
# Compressibility (1/GPa) = 0.01316456
#
# Stress axis : x y z
#
# Youngs Moduli (GPa) = 71.33496 101.55483 117.07488
#
# Poissons Ratio (x) = 0.44389 0.33280
# Poissons Ratio (y) = 0.31180 0.28186
# Poissons Ratio (z) = 0.20278 0.24450
#
# Static dielectric constant tensor:
#      x y z
#    x 1.797430 0.000000 0.043110 
#    y 0.000000 1.801110 0.000000 
#    z 0.043110 0.000000 1.715160 
# 
# From -- ./inp_files/211453.got.cif
#   From: 2010.05.17/outbox.cif.g08.bks.cpg/sg15_106_cif.got.tgz:211453.got - 2010.06.03 18:47:42.
