data_PCOD9307721
_publ_section_title
;
Structure prediction by ZEFSAII (Michael W. Deem and Ramdas Pophale) SiO2 
 PCOD9307721
Probable space group: C 2/C
;
_chemical_formula_sum "Si O2"
_cell_formula_units_Z 44
_cell_length_a 16.958921
_cell_length_b 7.051915
_cell_length_c 19.841260
_cell_angle_alpha 90.000000
_cell_angle_beta 64.836472
_cell_angle_gamma 90.000000
_cell_volume 2147.682568
_symmetry_space_group_name_H-M "C 2/C"
_symmetry_group_IT_number 15
_symmetry_cell_setting 'monoclinic'
loop_
_space_group_symop_operation_xyz
x,y,z
-x,y,1/2-z
-x,-y,-z
x,-y,1/2+z
1/2+x,1/2+y,z
1/2-x,1/2+y,1/2-z
1/2-x,1/2-y,-z
1/2+x,1/2-y,1/2+z
loop_
_atom_site_type_symbol
_atom_site_label
_atom_site_fract_x
_atom_site_fract_y
_atom_site_fract_z
Si Si1 0.500000 0.997575 0.250000
Si Si2 0.170875 0.627046 0.498979
Si Si3 0.026009 0.938160 0.565431
Si Si4 0.748659 0.048350 0.843013
Si Si5 0.374811 0.720768 0.212309
Si Si6 0.624407 0.226200 0.106428
O O1 0.430141 0.862832 0.238790
O O2 0.549439 0.127433 0.178037
O O3 0.250000 0.750000 0.500000
O O4 0.083576 0.748115 0.539949
O O5 0.190858 0.578912 0.414297
O O6 0.162566 0.432270 0.542995
O O7 0.942080 0.895949 0.641624
O O8 0.083848 0.100669 0.579236
O O9 0.000000 0.000000 0.500000
O O10 0.688571 0.159262 0.812585
O O11 0.802278 0.193357 0.870352
O O12 0.817632 0.918065 0.778939
#
# Coordination Sequence:
#
# PCOD9307721 Si02
#       6
#     4   8   8   8   8   8
#     4  12  24  46  74  98 148 184 244 294 360 424
#     4  12  26  48  75 109 144 191 240 299 357 429
#     4  12  28  46  77 107 148 186 247 296 357 429
#     4  12  27  45  75 102 150 187 244 292 365 427
#     4  12  27  48  70 111 142 195 237 301 356 432
#     4  12  25  48  73 106 141 196 235 300 360 421
#
# _framework density 20.487199
#
# number of rings (size 3 to 8) (size 9 to 14) (size 15 to 20)
#    0.000    0.000    3.636    6.000    7.636    1.455 
#    0.000    0.000    0.000    0.000    0.000    0.000 
#    0.000    0.000    0.000    0.000    0.000    0.000 
#
# Total GULP energy -123330.676072 kJ/mol
# GULP energy per Si atom -5605.939821 kJ/mol
# Density = 2.044057 g / cm^3
# Si number density = 20.487199 Si / 1000 Ang^3
#
#
#
# Elastic Constant Matrix: (Units=GPa)
#
#
# Indices 1 2 3 4 5 6 
#
# 1 139.0038 74.0233 53.6881 0.0002 23.9437 0.0001
# 2 74.0233 138.8930 77.1736 0.0003 5.4931 0.0000
# 3 53.6881 77.1736 161.3423 0.0001 -14.2203 0.0001
# 4 0.0002 0.0003 0.0001 54.3017 0.0000 -12.1223
# 5 23.9437 5.4931 -14.2203 0.0000 43.5311 0.0000
# 6 0.0001 0.0000 0.0001 -12.1223 0.0000 44.1027
#
#
#
# Elastic Compliance Matrix: (Units=1/GPa)
#
#
# Indices 1 2 3 4 5 6 
#
# 1 0.011706 -0.004759 -0.002197 0.000000 -0.006556 0.000000
# 2 -0.004759 0.012097 -0.004228 0.000000 -0.000290 0.000000
# 3 -0.002197 -0.004228 0.009375 0.000000 0.004804 0.000000
# 4 0.000000 0.000000 0.000000 0.019619 0.000000 0.005393
# 5 -0.006556 -0.000290 0.004804 0.000000 0.028184 0.000000
# 6 0.000000 0.000000 0.000000 0.005393 0.000000 0.024157
#
#
# Mechanical properties :
#
#
# Convention : Reuss Voigt Hill
#
# Bulk Modulus (GPa) = 92.50706 94.33436 93.42071
# Shear Modulus (GPa) = 38.13615 44.01070 41.07343
#
# Velocity S-wave (km/s) = 4.31915 4.63990 4.48239
# Velocity P-wave (km/s) = 8.37407 8.65161 8.51397
#
# Compressibility (1/GPa) = 0.01080999
#
# Stress axis : x y z
#
# Youngs Moduli (GPa) = 85.42616 82.66627 106.66753
#
# Poissons Ratio (x) = 0.39339 0.23433
# Poissons Ratio (y) = 0.40653 0.45101
# Poissons Ratio (z) = 0.18767 0.34953
#
# Static dielectric constant tensor:
#      x y z
#    x 1.687330 0.000000 -0.015100 
#    y 0.000000 1.695530 0.000000 
#    z -0.015100 0.000000 1.702510 
# 
# From -- ./inp_files/246436.got.cif
#   From: 2010.05.17/outbox.cif.g08.bks.cpg/sg15_124_cif.got.tgz:246436.got - 2010.06.03 18:47:42.
