data_PCOD9307411
_publ_section_title
;
Structure prediction by ZEFSAII (Michael W. Deem and Ramdas Pophale) SiO2 
 PCOD9307411
Probable space group: C 2/C
;
_chemical_formula_sum "Si O2"
_cell_formula_units_Z 52
_cell_length_a 20.634644
_cell_length_b 10.418609
_cell_length_c 9.085387
_cell_angle_alpha 90.000000
_cell_angle_beta 90.531599
_cell_angle_gamma 90.000000
_cell_volume 1953.131383
_symmetry_space_group_name_H-M "C 2/C"
_symmetry_group_IT_number 15
_symmetry_cell_setting 'monoclinic'
loop_
_space_group_symop_operation_xyz
x,y,z
-x,y,1/2-z
-x,-y,-z
x,-y,1/2+z
1/2+x,1/2+y,z
1/2-x,1/2+y,1/2-z
1/2-x,1/2-y,-z
1/2+x,1/2-y,1/2+z
loop_
_atom_site_type_symbol
_atom_site_label
_atom_site_fract_x
_atom_site_fract_y
_atom_site_fract_z
Si Si1 0.314043 0.736365 0.906470
Si Si2 0.735385 0.148420 0.625884
Si Si3 0.415854 0.860152 0.291850
Si Si4 0.563575 0.878369 0.558024
Si Si5 0.000000 0.154270 0.750000
Si Si6 0.419192 0.418939 0.889925
Si Si7 0.341318 0.476188 0.616382
O O1 0.285654 0.682816 0.755883
O O2 0.250000 0.750000 0.000000
O O3 0.364235 0.847713 0.874536
O O4 0.355918 0.641112 0.009071
O O5 0.750000 0.250000 0.500000
O O6 0.661494 0.143628 0.672942
O O7 0.767624 0.014109 0.581253
O O8 0.447358 0.977211 0.383017
O O9 0.425563 0.875995 0.117734
O O10 0.441981 0.721893 0.345680
O O11 0.517259 0.768851 0.626739
O O12 0.036351 0.038536 0.652980
O O13 0.356004 0.438361 0.782432
O O14 0.393736 0.419677 0.058089
#
# Coordination Sequence:
#
# PCOD9307411 Si02
#       7
#     8   8   8   8   4   8   8
#     4  12  23  45  71 106 158 199 247 308 375 453
#     4  12  25  40  74 117 159 206 243 310 384 466
#     4  12  28  47  73 116 159 198 258 311 391 466
#     4  12  28  49  76 113 154 204 251 323 392 451
#     4  12  28  54  86 106 148 200 266 338 386 450
#     4  12  25  49  76 110 145 202 263 316 378 457
#     4  12  23  43  72 112 151 195 258 309 373 458
#
# _framework density 26.623915
#
# number of rings (size 3 to 8) (size 9 to 14) (size 15 to 20)
#    0.000    0.000    7.692    0.923    2.154    4.923 
#    0.000    0.000    0.000    0.000    0.000    0.000 
#    0.000    0.000    0.000    0.000    0.000    0.000 
#
# Total GULP energy -145207.332302 kJ/mol
# GULP energy per Si atom -5584.897396 kJ/mol
# Density = 2.656332 g / cm^3
# Si number density = 26.623915 Si / 1000 Ang^3
#
#
#
# Elastic Constant Matrix: (Units=GPa)
#
#
# Indices 1 2 3 4 5 6 
#
# 1 144.9798 35.7290 23.6547 0.0000 -32.9373 0.0000
# 2 35.7290 210.4592 68.3216 0.0000 -5.8612 0.0000
# 3 23.6547 68.3216 143.7647 0.0000 -26.9203 0.0000
# 4 0.0000 0.0000 0.0000 40.6812 0.0000 -8.6854
# 5 -32.9373 -5.8612 -26.9203 0.0000 40.2087 0.0000
# 6 0.0000 0.0000 0.0000 -8.6854 0.0000 45.6456
#
#
#
# Elastic Compliance Matrix: (Units=1/GPa)
#
#
# Indices 1 2 3 4 5 6 
#
# 1 0.008862 -0.001511 0.000661 0.000000 0.007481 0.000000
# 2 -0.001511 0.005919 -0.003012 0.000000 -0.002391 0.000000
# 3 0.000661 -0.003012 0.009487 0.000000 0.006454 0.000000
# 4 0.000000 0.000000 0.000000 0.025622 0.000000 0.004875
# 5 0.007481 -0.002391 0.006454 0.000000 0.034971 0.000000
# 6 0.000000 0.000000 0.000000 0.004875 0.000000 0.022836
#
#
# Mechanical properties :
#
#
# Convention : Reuss Voigt Hill
#
# Bulk Modulus (GPa) = 60.44586 83.84604 72.14595
# Shear Modulus (GPa) = 41.34435 50.07366 45.70900
#
# Velocity S-wave (km/s) = 3.94496 4.34150 4.14797
# Velocity P-wave (km/s) = 6.59570 7.52945 7.07799
#
# Compressibility (1/GPa) = 0.01654373
#
# Stress axis : x y z
#
# Youngs Moduli (GPa) = 112.84654 168.94109 105.40598
#
# Poissons Ratio (x) = 0.25519 -0.06964
# Poissons Ratio (y) = 0.17046 0.31751
# Poissons Ratio (z) = -0.07455 0.50889
#
# Static dielectric constant tensor:
#      x y z
#    x 2.179840 0.000000 -0.033350 
#    y 0.000000 2.283840 0.000000 
#    z -0.033350 0.000000 1.930710 
# 
# From -- ./inp_files/55354.got.cif
#   From: 2010.05.17/outbox.cif.g08.bks.cpg/sg15_28_cif.got.tgz:55354.got - 2010.06.03 18:47:42.
