data_PCOD9307929
_publ_section_title
;
Structure prediction by ZEFSAII (Michael W. Deem and Ramdas Pophale) SiO2 
 PCOD9307929
Probable space group: C 2/C
;
_chemical_formula_sum "Si O2"
_cell_formula_units_Z 36
_cell_length_a 11.620940
_cell_length_b 15.750844
_cell_length_c 7.432499
_cell_angle_alpha 90.000000
_cell_angle_beta 71.518453
_cell_angle_gamma 90.000000
_cell_volume 1290.278045
_symmetry_space_group_name_H-M "C 2/C"
_symmetry_group_IT_number 15
_symmetry_cell_setting 'monoclinic'
loop_
_space_group_symop_operation_xyz
x,y,z
-x,y,1/2-z
-x,-y,-z
x,-y,1/2+z
1/2+x,1/2+y,z
1/2-x,1/2+y,1/2-z
1/2-x,1/2-y,-z
1/2+x,1/2-y,1/2+z
loop_
_atom_site_type_symbol
_atom_site_label
_atom_site_fract_x
_atom_site_fract_y
_atom_site_fract_z
Si Si1 0.951252 0.876632 0.473754
Si Si2 0.785967 0.155167 0.541602
Si Si3 0.500000 0.069822 0.750000
Si Si4 0.705404 0.068989 0.229000
Si Si5 0.623127 0.818153 0.457015
O O1 0.843616 0.939926 0.585421
O O2 0.895415 0.781694 0.518553
O O3 0.000000 0.894472 0.250000
O O4 0.073021 0.867321 0.529870
O O5 0.750000 0.250000 0.500000
O O6 0.726293 0.093674 0.424293
O O7 0.765994 0.344564 0.229724
O O8 0.488738 0.135804 0.588269
O O9 0.390196 0.006218 0.752836
O O10 0.647336 0.144199 0.139813
#
# Coordination Sequence:
#
# PCOD9307929 Si02
#       5
#     8   8   4   8   8
#     4  12  25  51  85 124 162 210 276 346 401 482
#     4  12  25  45  79 118 158 210 268 337 404 472
#     4  12  32  52  84 118 168 220 268 334 424 492
#     4  12  28  49  77 120 164 213 267 339 408 484
#     4  12  27  49  77 120 162 209 273 335 400 486
#
# _framework density 27.900963999999998
#
# number of rings (size 3 to 8) (size 9 to 14) (size 15 to 20)
#    0.000    0.000    4.444    4.667   10.889    0.000 
#    0.000    1.111    4.889    0.000    0.000    0.000 
#    0.000    0.000    0.000    0.000    0.000    0.000 
#
# Total GULP energy -100997.832586 kJ/mol
# GULP energy per Si atom -5610.990699 kJ/mol
# Density = 2.783746 g / cm^3
# Si number density = 27.900964 Si / 1000 Ang^3
#
#
#
# Elastic Constant Matrix: (Units=GPa)
#
#
# Indices 1 2 3 4 5 6 
#
# 1 188.6801 39.8613 29.4589 0.0000 4.9999 0.0000
# 2 39.8613 129.7627 16.7707 0.0000 11.6071 0.0000
# 3 29.4589 16.7707 125.4092 0.0000 9.0449 0.0000
# 4 0.0000 0.0000 0.0000 43.3240 0.0000 5.4510
# 5 4.9999 11.6071 9.0449 0.0000 66.4812 0.0000
# 6 0.0000 0.0000 0.0000 5.4510 0.0000 46.8025
#
#
#
# Elastic Compliance Matrix: (Units=1/GPa)
#
#
# Indices 1 2 3 4 5 6 
#
# 1 0.005826 -0.001642 -0.001149 0.000000 0.000005 0.000000
# 2 -0.001642 0.008407 -0.000648 0.000000 -0.001256 0.000000
# 3 -0.001149 -0.000648 0.008399 0.000000 -0.000943 0.000000
# 4 0.000000 0.000000 0.000000 0.023425 0.000000 -0.002728
# 5 0.000005 -0.001256 -0.000943 0.000000 0.015389 0.000000
# 6 0.000000 0.000000 0.000000 -0.002728 0.000000 0.021684
#
#
# Mechanical properties :
#
#
# Convention : Reuss Voigt Hill
#
# Bulk Modulus (GPa) = 63.47808 68.44819 65.96313
# Shear Modulus (GPa) = 52.48853 55.17230 53.83041
#
# Velocity S-wave (km/s) = 4.34204 4.45166 4.39719
# Velocity P-wave (km/s) = 6.92375 7.14205 7.03375
#
# Compressibility (1/GPa) = 0.01575347
#
# Stress axis : x y z
#
# Youngs Moduli (GPa) = 171.64110 118.95193 119.06797
#
# Poissons Ratio (x) = 0.19527 0.13686
# Poissons Ratio (y) = 0.28176 0.07716
# Poissons Ratio (z) = 0.19728 0.07708
#
# Static dielectric constant tensor:
#      x y z
#    x 2.312810 0.000000 -0.132750 
#    y 0.000000 2.071740 0.000000 
#    z -0.132750 0.000000 2.210590 
# 
# From -- ./inp_files/28991.got.cif
#   From: 2010.05.17/outbox.cif.g08.bks.cpg/sg15_15_cif.got.tgz:28991.got - 2010.06.03 18:47:42.
