data_PCOD9307157
_publ_section_title
;
Structure prediction by ZEFSAII (Michael W. Deem and Ramdas Pophale) SiO2 
 PCOD9307157
Probable space group: C 2/C
;
_chemical_formula_sum "Si O2"
_cell_formula_units_Z 48
_cell_length_a 19.317367
_cell_length_b 13.760351
_cell_length_c 18.796515
_cell_angle_alpha 90.000000
_cell_angle_beta 25.867625
_cell_angle_gamma 90.000000
_cell_volume 2179.884307
_symmetry_space_group_name_H-M "C 2/C"
_symmetry_group_IT_number 15
_symmetry_cell_setting 'monoclinic'
loop_
_space_group_symop_operation_xyz
x,y,z
-x,y,1/2-z
-x,-y,-z
x,-y,1/2+z
1/2+x,1/2+y,z
1/2-x,1/2+y,1/2-z
1/2-x,1/2-y,-z
1/2+x,1/2-y,1/2+z
loop_
_atom_site_type_symbol
_atom_site_label
_atom_site_fract_x
_atom_site_fract_y
_atom_site_fract_z
Si Si1 0.770326 0.165809 0.267924
Si Si2 0.254519 0.617336 0.864220
Si Si3 0.540644 0.551097 0.289686
Si Si4 0.466098 0.221790 0.203262
Si Si5 0.251634 0.448457 0.638617
Si Si6 0.401368 0.881414 0.135984
O O1 0.885618 0.124579 0.221974
O O2 0.803159 0.110542 0.162549
O O3 0.585974 0.144774 0.456563
O O4 0.806738 0.280359 0.232040
O O5 0.324874 0.530897 0.844927
O O6 0.395672 0.693610 0.719347
O O7 0.170350 0.577867 0.871733
O O8 0.126133 0.680348 0.023651
O O9 0.500000 0.592647 0.250000
O O10 0.394205 0.496452 0.463144
O O11 0.500000 0.261792 0.250000
O O12 0.345268 0.131238 0.316650
O O13 0.139057 0.537405 0.768340
#
# Coordination Sequence:
#
# PCOD9307157 Si02
#       6
#     8   8   8   8   8   8
#     4  12  25  45  70  99 136 171 227 274 327 394
#     4  12  22  40  65  95 140 167 222 271 328 396
#     4  12  27  45  67  99 135 177 222 276 334 392
#     4  12  24  39  62  98 138 177 213 268 336 398
#     4  12  24  43  70  97 134 178 221 269 329 391
#     4  12  24  43  71 104 126 173 227 275 321 391
#
# _framework density 22.019518000000001
#
# number of rings (size 3 to 8) (size 9 to 14) (size 15 to 20)
#    0.000    0.000    5.000    6.000    2.333    0.000 
#    0.000    4.167    0.000    0.000    0.000    0.000 
#    0.000    0.000    0.000    0.000    0.000    0.000 
#
# Total GULP energy -134401.036129 kJ/mol
# GULP energy per Si atom -5600.043172 kJ/mol
# Density = 2.196940 g / cm^3
# Si number density = 22.019518 Si / 1000 Ang^3
#
#
#
# Elastic Constant Matrix: (Units=GPa)
#
#
# Indices 1 2 3 4 5 6 
#
# 1 96.7659 24.3477 41.9358 -0.0004 -6.5197 0.0000
# 2 24.3477 79.1692 -13.4263 -0.0001 -19.0971 0.0004
# 3 41.9358 -13.4263 13.6288 0.0003 -43.3018 0.0007
# 4 -0.0004 -0.0001 0.0003 35.1117 0.0003 -1.0053
# 5 -6.5197 -19.0971 -43.3018 0.0003 1.3226 0.0002
# 6 0.0000 0.0004 0.0007 -1.0053 0.0002 15.8029
#
#
#
# Elastic Compliance Matrix: (Units=1/GPa)
#
#
# Indices 1 2 3 4 5 6 
#
# 1 0.011784 -0.001032 -0.000970 0.000000 0.011427 0.000000
# 2 -0.001032 0.010736 -0.004758 0.000000 -0.005826 0.000000
# 3 -0.000970 -0.004758 0.001570 0.000000 -0.022064 0.000000
# 4 0.000000 0.000000 0.000000 0.028533 0.000000 0.001815
# 5 0.011427 -0.005826 -0.022064 0.000000 0.005929 0.000001
# 6 0.000000 0.000000 0.000000 0.001815 0.000001 0.063395
#
#
# Mechanical properties :
#
#
# Convention : Reuss Voigt Hill
#
# Bulk Modulus (GPa) = 94.59413 32.80870 63.70142
# Shear Modulus (GPa) = 35.97365 19.56122 27.76744
#
# Velocity S-wave (km/s) = 4.04631 2.98377 3.55496
# Velocity P-wave (km/s) = 8.05498 5.17713 6.77072
#
# Compressibility (1/GPa) = 0.01057148
#
# Stress axis : x y z
#
# Youngs Moduli (GPa) = 84.85924 93.14075 636.81242
#
# Poissons Ratio (x) = 0.09614 0.61772
# Poissons Ratio (y) = 0.08759 3.02967
# Poissons Ratio (z) = 0.08232 0.44312
#
# Static dielectric constant tensor:
#      x y z
#    x 1.789740 0.000000 -0.021990 
#    y 0.000000 1.818200 0.000000 
#    z -0.021990 0.000000 1.828470 
# 
# From -- ./inp_files/211312.got.cif
#   From: 2010.05.17/outbox.cif.g08.bks.cpg/sg15_106_cif.got.tgz:211312.got - 2010.06.03 18:47:42.
