data_PCOD9307948
_publ_section_title
;
Structure prediction by ZEFSAII (Michael W. Deem and Ramdas Pophale) SiO2 
 PCOD9307948
Probable space group: C 2/C
;
_chemical_formula_sum "Si O2"
_cell_formula_units_Z 32
_cell_length_a 11.457289
_cell_length_b 8.588830
_cell_length_c 14.906107
_cell_angle_alpha 90.000000
_cell_angle_beta 95.811055
_cell_angle_gamma 90.000000
_cell_volume 1459.293335
_symmetry_space_group_name_H-M "C 2/C"
_symmetry_group_IT_number 15
_symmetry_cell_setting 'monoclinic'
loop_
_space_group_symop_operation_xyz
x,y,z
-x,y,1/2-z
-x,-y,-z
x,-y,1/2+z
1/2+x,1/2+y,z
1/2-x,1/2+y,1/2-z
1/2-x,1/2-y,-z
1/2+x,1/2-y,1/2+z
loop_
_atom_site_type_symbol
_atom_site_label
_atom_site_fract_x
_atom_site_fract_y
_atom_site_fract_z
Si Si1 0.132341 0.438168 0.007273
Si Si2 0.022618 0.867263 0.428455
Si Si3 0.261135 0.635602 0.863667
Si Si4 0.200526 0.022876 0.319851
O O1 0.111502 0.261456 0.973517
O O2 0.204968 0.541627 0.941560
O O3 0.197785 0.456593 0.106738
O O4 0.000000 0.500000 0.000000
O O5 0.892799 0.806855 0.396615
O O6 0.082825 0.941959 0.346403
O O7 0.000000 0.000000 0.500000
O O8 0.191476 0.792170 0.834086
O O9 0.270591 0.522657 0.779133
#
# Coordination Sequence:
#
# PCOD9307948 Si02
#       4
#     8   8   8   8
#     4  12  25  48  75 100 144 189 232 291 353 417
#     4  12  25  46  75 101 140 186 237 290 355 419
#     4  12  27  48  70 106 145 182 239 296 349 425
#     4  12  26  47  73 105 143 186 236 290 357 419
#
# _framework density 21.928422999999999
#
# number of rings (size 3 to 8) (size 9 to 14) (size 15 to 20)
#    0.000    0.000    5.000    5.250    3.500    1.000 
#    4.500    0.000    0.000    0.000    0.000    0.000 
#    0.000    0.000    0.000    0.000    0.000    0.000 
#
# Total GULP energy -89618.744442 kJ/mol
# GULP energy per Si atom -5601.171528 kJ/mol
# Density = 2.187851 g / cm^3
# Si number density = 21.928423 Si / 1000 Ang^3
#
#
#
# Elastic Constant Matrix: (Units=GPa)
#
#
# Indices 1 2 3 4 5 6 
#
# 1 116.8377 5.0322 22.2210 0.0000 -8.6732 0.0000
# 2 5.0322 97.1599 -11.9273 0.0000 9.8954 0.0000
# 3 22.2210 -11.9273 88.5748 0.0000 9.2666 0.0000
# 4 0.0000 0.0000 0.0000 34.3288 0.0000 -3.7720
# 5 -8.6732 9.8954 9.2666 0.0000 24.2373 0.0000
# 6 0.0000 0.0000 0.0000 -3.7720 0.0000 31.2008
#
#
#
# Elastic Compliance Matrix: (Units=1/GPa)
#
#
# Indices 1 2 3 4 5 6 
#
# 1 0.009606 -0.001415 -0.003146 0.000000 0.005218 0.000000
# 2 -0.001415 0.011293 0.002511 0.000000 -0.006077 0.000000
# 3 -0.003146 0.002511 0.013169 0.000000 -0.007186 0.000000
# 4 0.000000 0.000000 0.000000 0.029522 0.000000 0.003569
# 5 0.005218 -0.006077 -0.007186 0.000000 0.048355 0.000000
# 6 0.000000 0.000000 0.000000 0.003569 0.000000 0.032482
#
#
# Mechanical properties :
#
#
# Convention : Reuss Voigt Hill
#
# Bulk Modulus (GPa) = 33.36918 37.02494 35.19706
# Shear Modulus (GPa) = 31.54265 37.10313 34.32289
#
# Velocity S-wave (km/s) = 3.79679 4.11787 3.96058
# Velocity P-wave (km/s) = 5.87121 6.28731 6.08282
#
# Compressibility (1/GPa) = 0.02996777
#
# Stress axis : x y z
#
# Youngs Moduli (GPa) = 104.10642 88.55153 75.93470
#
# Poissons Ratio (x) = 0.12532 0.23891
# Poissons Ratio (y) = 0.14733 -0.19071
# Poissons Ratio (z) = 0.32754 -0.22240
#
# Static dielectric constant tensor:
#      x y z
#    x 1.819510 0.000000 0.018370 
#    y 0.000000 1.844570 0.000000 
#    z 0.018370 0.000000 1.745680 
# 
# From -- ./inp_files/140521.got.cif
#   From: 2010.05.17/outbox.cif.g08.bks.cpg/sg15_71_cif.got.tgz:140521.got - 2010.06.03 18:47:42.
