data_PCOD9307399
_publ_section_title
;
Structure prediction by ZEFSAII (Michael W. Deem and Ramdas Pophale) SiO2 
 PCOD9307399
Probable space group: C 2/C
;
_chemical_formula_sum "Si O2"
_cell_formula_units_Z 40
_cell_length_a 11.717718
_cell_length_b 16.719889
_cell_length_c 8.144208
_cell_angle_alpha 90.000000
_cell_angle_beta 79.187695
_cell_angle_gamma 90.000000
_cell_volume 1567.277841
_symmetry_space_group_name_H-M "C 2/C"
_symmetry_group_IT_number 15
_symmetry_cell_setting 'monoclinic'
loop_
_space_group_symop_operation_xyz
x,y,z
-x,y,1/2-z
-x,-y,-z
x,-y,1/2+z
1/2+x,1/2+y,z
1/2-x,1/2+y,1/2-z
1/2-x,1/2-y,-z
1/2+x,1/2-y,1/2+z
loop_
_atom_site_type_symbol
_atom_site_label
_atom_site_fract_x
_atom_site_fract_y
_atom_site_fract_z
Si Si1 0.986146 0.374518 0.438197
Si Si2 0.470244 0.733223 0.936591
Si Si3 0.215975 0.538191 0.336186
Si Si4 0.941197 0.080046 0.444022
Si Si5 0.241438 0.374907 0.482250
O O1 0.911304 0.435872 0.564370
O O2 0.000000 0.404562 0.250000
O O3 0.945239 0.283253 0.454992
O O4 0.109807 0.344568 0.484394
O O5 0.500000 0.768106 0.750000
O O6 0.339635 0.691847 0.971106
O O7 0.536655 0.647944 0.932394
O O8 0.306560 0.574592 0.438904
O O9 0.245982 0.444116 0.341497
O O10 0.235650 0.576010 0.153851
O O11 0.000000 0.096684 0.250000
O O12 0.000000 0.000000 0.500000
#
# Coordination Sequence:
#
# PCOD9307399 Si02
#       5
#     8   8   8   8   8
#     4  12  29  49  72 106 147 196 243 298 372 441
#     4  12  27  46  74 104 150 186 242 299 367 433
#     4  12  25  46  77 105 147 189 243 299 359 433
#     4  12  23  43  70 108 142 187 242 299 360 432
#     4  12  26  48  75 110 146 191 244 302 363 439
#
# _framework density 25.521958999999999
#
# number of rings (size 3 to 8) (size 9 to 14) (size 15 to 20)
#    0.000    0.000    4.000    5.400    5.600    0.800 
#    0.000    0.000    0.000    0.000    0.000    0.000 
#    0.000    0.000    0.000    0.000    0.000    0.000 
#
# Total GULP energy -111620.064998 kJ/mol
# GULP energy per Si atom -5581.003250 kJ/mol
# Density = 2.546387 g / cm^3
# Si number density = 25.521959 Si / 1000 Ang^3
#
#
#
# Elastic Constant Matrix: (Units=GPa)
#
#
# Indices 1 2 3 4 5 6 
#
# 1 101.7419 8.7386 11.4361 0.0000 -12.7324 0.0000
# 2 8.7386 57.5203 7.0130 0.0000 -15.3188 0.0000
# 3 11.4361 7.0130 141.7796 0.0000 -7.5572 0.0000
# 4 0.0000 0.0000 0.0000 47.0200 0.0000 -25.8380
# 5 -12.7324 -15.3188 -7.5572 0.0000 25.1775 0.0000
# 6 0.0000 0.0000 0.0000 -25.8380 0.0000 -57.1177
#
#
#
# Elastic Compliance Matrix: (Units=1/GPa)
#
#
# Indices 1 2 3 4 5 6 
#
# 1 0.010541 -0.000188 -0.000572 0.000000 0.005044 0.000000
# 2 -0.000188 0.020768 -0.000349 0.000000 0.012436 0.000000
# 3 -0.000572 -0.000349 0.007205 0.000000 0.001661 0.000000
# 4 0.000000 0.000000 0.000000 0.017033 0.000000 -0.007705
# 5 0.005044 0.012436 0.001661 0.000000 0.050334 0.000000
# 6 0.000000 0.000000 0.000000 -0.007705 0.000000 -0.014022
#
#
# Mechanical properties :
#
#
# Convention : Reuss Voigt Hill
#
# Bulk Modulus (GPa) = 27.55201 39.49078 33.52140
# Shear Modulus (GPa) = 47.09144 21.27292 34.18218
#
# Velocity S-wave (km/s) = 4.30016 2.89020 3.66365
# Velocity P-wave (km/s) = 5.95601 5.16183 5.57308
#
# Compressibility (1/GPa) = 0.03629499
#
# Stress axis : x y z
#
# Youngs Moduli (GPa) = 94.87212 48.15024 138.78966
#
# Poissons Ratio (x) = 0.00906 0.07939
# Poissons Ratio (y) = 0.01786 0.04847
# Poissons Ratio (z) = 0.05427 0.01682
#
# Static dielectric constant tensor:
#      x y z
#    x 7.733380 0.000000 -1.402750 
#    y 0.000000 45.187450 0.000000 
#    z -1.402750 0.000000 2.484150 
# 
# From -- ./inp_files/29110.got.cif
#   From: 2010.05.17/outbox.cif.g08.bks.cpg/sg15_15_cif.got.tgz:29110.got - 2010.06.03 18:47:42.
