data_PCOD9307688
_publ_section_title
;
Structure prediction by ZEFSAII (Michael W. Deem and Ramdas Pophale) SiO2 
 PCOD9307688
Probable space group: C 2/C
;
_chemical_formula_sum "Si O2"
_cell_formula_units_Z 44
_cell_length_a 16.047359
_cell_length_b 17.067961
_cell_length_c 13.393996
_cell_angle_alpha 90.000000
_cell_angle_beta 146.555647
_cell_angle_gamma 90.000000
_cell_volume 2021.840695
_symmetry_space_group_name_H-M "C 2/C"
_symmetry_group_IT_number 15
_symmetry_cell_setting 'monoclinic'
loop_
_space_group_symop_operation_xyz
x,y,z
-x,y,1/2-z
-x,-y,-z
x,-y,1/2+z
1/2+x,1/2+y,z
1/2-x,1/2+y,1/2-z
1/2-x,1/2-y,-z
1/2+x,1/2-y,1/2+z
loop_
_atom_site_type_symbol
_atom_site_label
_atom_site_fract_x
_atom_site_fract_y
_atom_site_fract_z
Si Si1 0.500000 0.094916 0.250000
Si Si2 0.641018 0.287743 0.681907
Si Si3 0.592129 0.974017 0.189713
Si Si4 0.904359 0.918459 0.402908
Si Si5 0.938154 0.322061 0.086052
Si Si6 0.736412 0.800361 0.088791
O O1 0.589500 0.148211 0.417536
O O2 0.609338 0.041939 0.289623
O O3 0.523235 0.357999 0.568297
O O4 0.543201 0.211596 0.605072
O O5 0.719435 0.266843 0.655812
O O6 0.768535 0.301773 0.891324
O O7 0.751567 0.937115 0.312974
O O8 0.476197 0.912733 0.122724
O O9 0.500000 0.000000 0.000000
O O10 0.851504 0.867439 0.250313
O O11 0.000000 0.000000 0.500000
O O12 0.000000 0.286669 0.250000
O O13 0.750000 0.750000 0.000000
#
# Coordination Sequence:
#
# PCOD9307688 Si02
#       6
#     4   8   8   8   8   8
#     4  12  26  46  78 106 150 204 254 316 390 482
#     4  12  25  49  74 108 156 198 254 330 388 472
#     4  12  24  47  72 105 150 198 249 315 394 455
#     4  12  27  47  75 112 155 204 257 329 399 462
#     4  12  24  45  75 106 142 197 256 304 389 473
#     4  12  27  48  77 115 151 210 261 315 395 476
#
# _framework density 21.762347999999999
#
# number of rings (size 3 to 8) (size 9 to 14) (size 15 to 20)
#    0.000    0.000    6.364    2.727    5.091    0.000 
#    0.000    1.818    0.000    0.000    0.000    0.000 
#    0.000    0.000    0.000    0.000    0.000    0.000 
#
# Total GULP energy -122627.686748 kJ/mol
# GULP energy per Si atom -5573.985761 kJ/mol
# Density = 2.171282 g / cm^3
# Si number density = 21.762348 Si / 1000 Ang^3
#
#
#
# Elastic Constant Matrix: (Units=GPa)
#
#
# Indices 1 2 3 4 5 6 
#
# 1 78.8042 27.3380 37.8170 0.0000 -16.6978 0.0000
# 2 27.3380 91.4260 39.2643 0.0000 0.1727 0.0000
# 3 37.8170 39.2643 183.7438 0.0000 0.8630 0.0000
# 4 0.0000 0.0000 0.0000 51.9717 0.0000 -0.4913
# 5 -16.6978 0.1727 0.8630 0.0000 28.6642 0.0000
# 6 0.0000 0.0000 0.0000 -0.4913 0.0000 31.9287
#
#
#
# Elastic Compliance Matrix: (Units=1/GPa)
#
#
# Indices 1 2 3 4 5 6 
#
# 1 0.017661 -0.004094 -0.002809 0.000000 0.010397 0.000000
# 2 -0.004094 0.012992 -0.001922 0.000000 -0.002405 0.000000
# 3 -0.002809 -0.001922 0.006440 0.000000 -0.001819 0.000000
# 4 0.000000 0.000000 0.000000 0.019244 0.000000 0.000296
# 5 0.010397 -0.002405 -0.001819 0.000000 0.041013 0.000000
# 6 0.000000 0.000000 0.000000 0.000296 0.000000 0.031324
#
#
# Mechanical properties :
#
#
# Convention : Reuss Voigt Hill
#
# Bulk Modulus (GPa) = 51.43478 62.53473 56.98476
# Shear Modulus (GPa) = 32.72126 39.14990 35.93558
#
# Velocity S-wave (km/s) = 3.88180 4.24603 4.06799
# Velocity P-wave (km/s) = 6.61644 7.26884 6.95030
#
# Compressibility (1/GPa) = 0.01944210
#
# Stress axis : x y z
#
# Youngs Moduli (GPa) = 56.62176 76.96919 155.28486
#
# Poissons Ratio (x) = 0.31514 0.43616
# Poissons Ratio (y) = 0.23183 0.29851
# Poissons Ratio (z) = 0.15904 0.14796
#
# Static dielectric constant tensor:
#      x y z
#    x 2.212260 0.000000 0.068250 
#    y 0.000000 2.488250 0.000000 
#    z 0.068250 0.000000 1.898960 
# 
# From -- ./inp_files/163129.got.cif
#   From: 2010.05.17/outbox.cif.g08.bks.cpg/sg15_82_cif.got.tgz:163129.got - 2010.06.03 18:47:42.
