data_PCOD9307569
_publ_section_title
;
Structure prediction by ZEFSAII (Michael W. Deem and Ramdas Pophale) SiO2 
 PCOD9307569
Probable space group: C 2/C
;
_chemical_formula_sum "Si O2"
_cell_formula_units_Z 56
_cell_length_a 17.778560
_cell_length_b 16.446031
_cell_length_c 9.200689
_cell_angle_alpha 90.000000
_cell_angle_beta 107.927249
_cell_angle_gamma 90.000000
_cell_volume 2559.547247
_symmetry_space_group_name_H-M "C 2/C"
_symmetry_group_IT_number 15
_symmetry_cell_setting 'monoclinic'
loop_
_space_group_symop_operation_xyz
x,y,z
-x,y,1/2-z
-x,-y,-z
x,-y,1/2+z
1/2+x,1/2+y,z
1/2-x,1/2+y,1/2-z
1/2-x,1/2-y,-z
1/2+x,1/2-y,1/2+z
loop_
_atom_site_type_symbol
_atom_site_label
_atom_site_fract_x
_atom_site_fract_y
_atom_site_fract_z
Si Si1 0.558672 0.499065 0.669245
Si Si2 0.182571 0.408056 0.728180
Si Si3 0.329739 0.082572 0.930991
Si Si4 0.841160 0.155546 0.175863
Si Si5 0.178333 0.136460 0.677922
Si Si6 0.557073 0.772144 0.648763
Si Si7 0.445083 0.801632 0.344454
O O1 0.500000 0.539635 0.750000
O O2 0.500000 0.500000 0.500000
O O3 0.592547 0.413708 0.750246
O O4 0.635240 0.550589 0.674743
O O5 0.174687 0.492927 0.639519
O O6 0.263610 0.364916 0.724730
O O7 0.107873 0.351976 0.644984
O O8 0.181085 0.419509 0.901976
O O9 0.259408 0.132415 0.812241
O O10 0.407941 0.129382 0.924425
O O11 0.879264 0.242046 0.238700
O O12 0.816622 0.152665 0.991548
O O13 0.121200 0.202976 0.714077
O O14 0.500000 0.784258 0.750000
O O15 0.503170 0.748571 0.480017
O O16 0.500000 0.836695 0.250000
#
# Coordination Sequence:
#
# PCOD9307569 Si02
#       7
#     8   8   8   8   8   8   8
#     4  12  24  41  67 104 146 188 231 292 355 424
#     4  12  29  49  75 106 147 193 248 296 363 438
#     4  12  29  49  75 107 145 196 244 298 365 433
#     4  12  26  47  71 108 148 189 243 290 363 441
#     4  12  26  46  73 106 147 192 238 295 365 433
#     4  12  27  50  74 108 146 189 246 308 361 425
#     4  12  27  49  77 107 145 191 245 305 362 426
#
# _framework density 21.878869000000002
#
# number of rings (size 3 to 8) (size 9 to 14) (size 15 to 20)
#    0.000    0.000    5.714    3.429    8.000    3.429 
#    0.000    0.000    0.000    0.000    0.000    0.000 
#    0.000    0.000    0.000    0.000    0.000    0.000 
#
# Total GULP energy -156731.864608 kJ/mol
# GULP energy per Si atom -5597.566593 kJ/mol
# Density = 2.182907 g / cm^3
# Si number density = 21.878869 Si / 1000 Ang^3
#
#
#
# Elastic Constant Matrix: (Units=GPa)
#
#
# Indices 1 2 3 4 5 6 
#
# 1 119.6652 45.1713 22.8337 0.0000 -30.5855 0.0000
# 2 45.1713 53.9702 11.7302 0.0000 -4.8988 0.0000
# 3 22.8337 11.7302 93.5123 0.0000 -20.3933 0.0000
# 4 0.0000 0.0000 0.0000 21.8168 0.0000 -3.0896
# 5 -30.5855 -4.8988 -20.3933 0.0000 37.7017 0.0000
# 6 0.0000 0.0000 0.0000 -3.0896 0.0000 28.9653
#
#
#
# Elastic Compliance Matrix: (Units=1/GPa)
#
#
# Indices 1 2 3 4 5 6 
#
# 1 0.015867 -0.012281 0.000142 0.000000 0.011353 0.000000
# 2 -0.012281 0.028613 -0.002214 0.000000 -0.007442 0.000000
# 3 0.000142 -0.002214 0.012357 0.000000 0.006512 0.000000
# 4 0.000000 0.000000 0.000000 0.046539 0.000000 0.004964
# 5 0.011353 -0.007442 0.006512 0.000000 0.038289 0.000000
# 6 0.000000 0.000000 0.000000 0.004964 0.000000 0.035054
#
#
# Mechanical properties :
#
#
# Convention : Reuss Voigt Hill
#
# Bulk Modulus (GPa) = 35.54606 47.40201 41.47404
# Shear Modulus (GPa) = 23.27744 30.19094 26.73419
#
# Velocity S-wave (km/s) = 3.26532 3.71875 3.49939
# Velocity P-wave (km/s) = 5.52254 6.33652 5.94348
#
# Compressibility (1/GPa) = 0.02813251
#
# Stress axis : x y z
#
# Youngs Moduli (GPa) = 63.02391 34.94948 80.92704
#
# Poissons Ratio (x) = 0.42920 -0.01149
# Poissons Ratio (y) = 0.77397 0.17913
# Poissons Ratio (z) = -0.00895 0.07736
#
# Static dielectric constant tensor:
#      x y z
#    x 1.974000 0.000000 0.127070 
#    y 0.000000 2.037850 0.000000 
#    z 0.127070 0.000000 1.809430 
# 
# From -- ./inp_files/49171.got.cif
#   From: 2010.05.17/outbox.cif.g08.bks.cpg/sg15_25_cif.got.tgz:49171.got - 2010.06.03 18:47:42.
