data_PCOD9307979
_publ_section_title
;
Structure prediction by ZEFSAII (Michael W. Deem and Ramdas Pophale) SiO2 
 PCOD9307979
Probable space group: C 2/C
;
_chemical_formula_sum "Si O2"
_cell_formula_units_Z 44
_cell_length_a 22.320896
_cell_length_b 7.004283
_cell_length_c 12.593228
_cell_angle_alpha 90.000000
_cell_angle_beta 108.873983
_cell_angle_gamma 90.000000
_cell_volume 1862.988462
_symmetry_space_group_name_H-M "C 2/C"
_symmetry_group_IT_number 15
_symmetry_cell_setting 'monoclinic'
loop_
_space_group_symop_operation_xyz
x,y,z
-x,y,1/2-z
-x,-y,-z
x,-y,1/2+z
1/2+x,1/2+y,z
1/2-x,1/2+y,1/2-z
1/2-x,1/2-y,-z
1/2+x,1/2-y,1/2+z
loop_
_atom_site_type_symbol
_atom_site_label
_atom_site_fract_x
_atom_site_fract_y
_atom_site_fract_z
Si Si1 0.781535 0.700937 0.902710
Si Si2 0.405871 0.693868 0.753492
Si Si3 0.352100 0.510147 0.532258
Si Si4 0.500000 0.975502 0.250000
Si Si5 0.698986 0.777364 0.646344
Si Si6 0.493899 0.610322 0.107838
O O1 0.748011 0.759964 0.772712
O O2 0.792439 0.479146 0.901503
O O3 0.750000 0.750000 0.000000
O O4 0.849090 0.810378 0.950520
O O5 0.351408 0.599392 0.649296
O O6 0.369899 0.757042 0.838557
O O7 0.456872 0.527782 0.802038
O O8 0.440577 0.876010 0.719222
O O9 0.299536 0.378126 0.446859
O O10 0.418200 0.402599 0.576799
O O11 0.507251 0.828134 0.154332
O O12 0.500000 0.500000 0.000000
#
# Coordination Sequence:
#
# PCOD9307979 Si02
#       6
#     8   8   8   4   8   8
#     4  12  28  51  74 109 145 198 260 309 380 448
#     4  12  26  47  74 113 153 196 259 301 379 464
#     4  12  25  47  75 107 155 195 253 309 375 448
#     4  12  26  46  74 108 156 202 246 304 386 440
#     4  12  28  49  76 109 148 203 250 321 374 442
#     4  12  26  45  71 111 152 196 245 311 373 455
#
# _framework density 23.617967
#
# number of rings (size 3 to 8) (size 9 to 14) (size 15 to 20)
#    0.000    0.000    9.091    0.000    5.091    1.455 
#    6.545    0.000    0.000    0.000    0.000    0.000 
#    0.000    0.000    0.000    0.000    0.000    0.000 
#
# Total GULP energy -122506.336161 kJ/mol
# GULP energy per Si atom -5568.469826 kJ/mol
# Density = 2.356421 g / cm^3
# Si number density = 23.617967 Si / 1000 Ang^3
#
#
#
# Elastic Constant Matrix: (Units=GPa)
#
#
# Indices 1 2 3 4 5 6 
#
# 1 39.1277 12.0606 11.3542 0.0000 1.0066 0.0000
# 2 12.0606 164.6022 69.6501 0.0000 -1.2983 0.0000
# 3 11.3542 69.6501 172.7570 0.0000 23.8281 0.0000
# 4 0.0000 0.0000 0.0000 52.2979 0.0000 -4.3349
# 5 1.0066 -1.2983 23.8281 0.0000 29.4296 0.0000
# 6 0.0000 0.0000 0.0000 -4.3349 0.0000 27.4181
#
#
#
# Elastic Compliance Matrix: (Units=1/GPa)
#
#
# Indices 1 2 3 4 5 6 
#
# 1 0.026336 -0.001447 -0.001142 0.000000 -0.000040 0.000000
# 2 -0.001447 0.007657 -0.003428 0.000000 0.003163 0.000000
# 3 -0.001142 -0.003428 0.008174 0.000000 -0.006730 0.000000
# 4 0.000000 0.000000 0.000000 0.019375 0.000000 0.003063
# 5 -0.000040 0.003163 -0.006730 0.000000 0.039570 0.000000
# 6 0.000000 0.000000 0.000000 0.003063 0.000000 0.036957
#
#
# Mechanical properties :
#
#
# Convention : Reuss Voigt Hill
#
# Bulk Modulus (GPa) = 33.18669 62.51297 47.84983
# Shear Modulus (GPa) = 31.22153 40.72390 35.97271
#
# Velocity S-wave (km/s) = 3.63979 4.15695 3.90694
# Velocity P-wave (km/s) = 5.63437 7.04032 6.37621
#
# Compressibility (1/GPa) = 0.03013256
#
# Stress axis : x y z
#
# Youngs Moduli (GPa) = 37.97126 130.60293 122.33967
#
# Poissons Ratio (x) = 0.18894 0.13973
# Poissons Ratio (y) = 0.05493 0.41940
# Poissons Ratio (z) = 0.04337 0.44773
#
# Static dielectric constant tensor:
#      x y z
#    x 1.981680 0.000000 -0.006290 
#    y 0.000000 2.132590 0.000000 
#    z -0.006290 0.000000 1.885790 
# 
# From -- ./inp_files/175787.got.cif
#   From: 2010.05.17/outbox.cif.g08.bks.cpg/sg15_88_cif.got.tgz:175787.got - 2010.06.03 18:47:42.
