data_PCOD9307623
_publ_section_title
;
Structure prediction by ZEFSAII (Michael W. Deem and Ramdas Pophale) SiO2 
 PCOD9307623
Probable space group: C 2/C
;
_chemical_formula_sum "Si O2"
_cell_formula_units_Z 52
_cell_length_a 19.476347
_cell_length_b 13.415441
_cell_length_c 24.445201
_cell_angle_alpha 90.000000
_cell_angle_beta 159.882109
_cell_angle_gamma 90.000000
_cell_volume 2196.873580
_symmetry_space_group_name_H-M "C 2/C"
_symmetry_group_IT_number 15
_symmetry_cell_setting 'monoclinic'
loop_
_space_group_symop_operation_xyz
x,y,z
-x,y,1/2-z
-x,-y,-z
x,-y,1/2+z
1/2+x,1/2+y,z
1/2-x,1/2+y,1/2-z
1/2-x,1/2-y,-z
1/2+x,1/2-y,1/2+z
loop_
_atom_site_type_symbol
_atom_site_label
_atom_site_fract_x
_atom_site_fract_y
_atom_site_fract_z
Si Si1 0.838384 0.483139 0.831042
Si Si2 0.417786 0.512127 0.576095
Si Si3 0.000000 0.880946 0.250000
Si Si4 0.237472 0.723211 0.283088
Si Si5 0.574838 0.843550 0.172777
Si Si6 0.271531 0.197892 0.595931
Si Si7 0.682256 0.709705 0.036535
O O1 0.619117 0.513602 0.689510
O O2 0.813773 0.370433 0.792900
O O3 0.913983 0.540714 0.833287
O O4 0.000000 0.500000 0.000000
O O5 0.474938 0.546428 0.679560
O O6 0.325757 0.402278 0.501599
O O7 0.263352 0.598113 0.440958
O O8 0.817815 0.802910 0.121612
O O9 0.349998 0.797915 0.327990
O O10 0.354311 0.702324 0.425879
O O11 0.030710 0.768474 0.149682
O O12 0.715939 0.815937 0.328943
O O13 0.359874 0.792735 0.019638
O O14 0.500000 0.208191 0.750000
#
# Coordination Sequence:
#
# PCOD9307623 Si02
#       7
#     8   8   4   8   8   8   8
#     4  12  25  45  75 111 142 198 254 318 381 438
#     4  12  27  46  76 110 151 195 254 309 378 462
#     4  12  26  48  72 110 156 198 236 308 388 464
#     4  12  24  43  78 107 145 187 253 315 379 442
#     4  12  25  49  75 106 152 193 256 321 377 445
#     4  12  29  50  73 109 148 208 252 311 378 461
#     4  12  25  46  71 114 148 192 238 308 389 452
#
# _framework density 23.670002
#
# number of rings (size 3 to 8) (size 9 to 14) (size 15 to 20)
#    0.000    0.000    4.615    5.538    1.077    3.692 
#    1.385    0.000    0.000    0.000    0.000    0.000 
#    0.000    0.000    0.000    0.000    0.000    0.000 
#
# Total GULP energy -145564.282831 kJ/mol
# GULP energy per Si atom -5598.626263 kJ/mol
# Density = 2.361613 g / cm^3
# Si number density = 23.670002 Si / 1000 Ang^3
#
#
#
# Elastic Constant Matrix: (Units=GPa)
#
#
# Indices 1 2 3 4 5 6 
#
# 1 77.1830 15.2501 17.7089 0.0278 -4.5689 -0.0057
# 2 15.2501 65.4768 25.7959 0.0716 17.6464 0.0216
# 3 17.7089 25.7959 92.0950 0.0629 15.4337 0.0139
# 4 0.0278 0.0716 0.0629 33.5083 -0.0148 -11.0184
# 5 -4.5689 17.6464 15.4337 -0.0148 44.7931 -0.0076
# 6 -0.0057 0.0216 0.0139 -11.0184 -0.0076 30.6867
#
#
#
# Elastic Compliance Matrix: (Units=1/GPa)
#
#
# Indices 1 2 3 4 5 6 
#
# 1 0.014396 -0.003375 -0.002432 0.000004 0.003636 0.000009
# 2 -0.003375 0.019294 -0.003634 -0.000045 -0.006693 -0.000030
# 3 -0.002432 -0.003634 0.012890 -0.000020 -0.003258 -0.000012
# 4 0.000004 -0.000045 -0.000020 0.033839 0.000038 0.012150
# 5 0.003636 -0.006693 -0.003258 0.000038 0.026455 0.000027
# 6 0.000009 -0.000030 -0.000012 0.012150 0.000027 0.036950
#
#
# Mechanical properties :
#
#
# Convention : Reuss Voigt Hill
#
# Bulk Modulus (GPa) = 36.10259 39.14052 37.62156
# Shear Modulus (GPa) = 29.08019 33.53096 31.30558
#
# Velocity S-wave (km/s) = 3.50890 3.76786 3.64068
# Velocity P-wave (km/s) = 5.63046 5.95826 5.79667
#
# Compressibility (1/GPa) = 0.02769884
#
# Stress axis : x y z
#
# Youngs Moduli (GPa) = 69.46219 51.82943 77.58047
#
# Poissons Ratio (x) = 0.17491 0.18870
# Poissons Ratio (y) = 0.23441 0.28190
# Poissons Ratio (z) = 0.16896 0.18833
#
# Static dielectric constant tensor:
#      x y z
#    x 1.818300 -0.000070 0.140280 
#    y -0.000070 1.888250 0.000060 
#    z 0.140280 0.000060 1.709160 
# 
# From -- ./inp_files/301147.got.cif
#   From: 2010.05.17/outbox.cif.g08.bks.cpg/sg15_151_cif.got.tgz:301147.got - 2010.06.03 18:47:42.
