data_PCOD9307298
_publ_section_title
;
Structure prediction by ZEFSAII (Michael W. Deem and Ramdas Pophale) SiO2 
 PCOD9307298
Probable space group: C 2/C
;
_chemical_formula_sum "Si O2"
_cell_formula_units_Z 48
_cell_length_a 26.658926
_cell_length_b 11.892807
_cell_length_c 21.491723
_cell_angle_alpha 90.000000
_cell_angle_beta 162.685155
_cell_angle_gamma 90.000000
_cell_volume 2027.979830
_symmetry_space_group_name_H-M "C 2/C"
_symmetry_group_IT_number 15
_symmetry_cell_setting 'monoclinic'
loop_
_space_group_symop_operation_xyz
x,y,z
-x,y,1/2-z
-x,-y,-z
x,-y,1/2+z
1/2+x,1/2+y,z
1/2-x,1/2+y,1/2-z
1/2-x,1/2-y,-z
1/2+x,1/2-y,1/2+z
loop_
_atom_site_type_symbol
_atom_site_label
_atom_site_fract_x
_atom_site_fract_y
_atom_site_fract_z
Si Si1 0.066356 0.851705 0.393398
Si Si2 0.017657 0.238872 0.102090
Si Si3 0.766409 0.382839 0.413430
Si Si4 0.382692 0.865160 0.055452
Si Si5 0.164166 0.955040 0.162543
Si Si6 0.122047 0.604997 0.155565
O O1 0.112044 0.722229 0.432664
O O2 0.253941 0.892149 0.638346
O O3 0.000000 0.904171 0.250000
O O4 0.914198 0.865273 0.264307
O O5 0.203064 0.194914 0.334938
O O6 0.979158 0.335943 0.106003
O O7 0.889757 0.131982 0.954958
O O8 0.982112 0.287438 0.990544
O O9 0.840476 0.504422 0.518201
O O10 0.760710 0.390757 0.331181
O O11 0.500000 0.821694 0.250000
O O12 0.243630 0.072277 0.237249
O O13 0.000000 0.000000 0.000000
O O14 0.000000 0.500000 0.000000
#
# Coordination Sequence:
#
# PCOD9307298 Si02
#       6
#     8   8   8   8   8   8
#     4  12  28  48  73 109 149 192 243 308 379 437
#     4  12  24  44  72 103 140 193 243 294 356 432
#     4  12  26  47  77 104 147 192 244 309 365 439
#     4  12  27  48  71 106 149 194 240 297 367 432
#     4  12  22  46  73 104 142 191 246 299 359 424
#     4  12  26  41  72 110 142 189 247 299 354 438
#
# _framework density 23.668873999999999
#
# number of rings (size 3 to 8) (size 9 to 14) (size 15 to 20)
#    0.000    0.000    6.667    2.500    2.333    1.333 
#    0.000    5.833    0.000    0.000    0.000    0.000 
#    0.000    0.000    0.000    0.000    0.000    0.000 
#
# Total GULP energy -133883.779101 kJ/mol
# GULP energy per Si atom -5578.490796 kJ/mol
# Density = 2.361500 g / cm^3
# Si number density = 23.668874 Si / 1000 Ang^3
#
#
#
# Elastic Constant Matrix: (Units=GPa)
#
#
# Indices 1 2 3 4 5 6 
#
# 1 50.4953 4.8736 32.8826 -0.0005 -13.6983 0.0001
# 2 4.8736 90.7409 51.3248 -0.0002 0.1683 0.0008
# 3 32.8826 51.3248 170.4617 -0.0001 -41.3629 0.0003
# 4 -0.0005 -0.0002 -0.0001 31.9258 -0.0004 17.6350
# 5 -13.6983 0.1683 -41.3629 -0.0004 50.0769 0.0005
# 6 0.0001 0.0008 0.0003 17.6350 0.0005 23.4887
#
#
#
# Elastic Compliance Matrix: (Units=1/GPa)
#
#
# Indices 1 2 3 4 5 6 
#
# 1 0.023154 0.001047 -0.004059 0.000001 0.002977 -0.000001
# 2 0.001047 0.014071 -0.005479 0.000000 -0.004286 -0.000001
# 3 -0.004059 -0.005479 0.010048 0.000000 0.007208 0.000000
# 4 0.000001 0.000000 0.000000 0.053517 0.000001 -0.040180
# 5 0.002977 -0.004286 0.007208 0.000001 0.026751 -0.000001
# 6 -0.000001 -0.000001 0.000000 -0.040180 -0.000001 0.072740
#
#
# Mechanical properties :
#
#
# Convention : Reuss Voigt Hill
#
# Bulk Modulus (GPa) = 33.01343 54.42887 43.72115
# Shear Modulus (GPa) = 21.99151 35.93941 28.96546
#
# Velocity S-wave (km/s) = 3.05147 3.90092 3.50205
# Velocity P-wave (km/s) = 5.13747 6.58297 5.90462
#
# Compressibility (1/GPa) = 0.03029070
#
# Stress axis : x y z
#
# Youngs Moduli (GPa) = 43.18947 71.06835 99.52250
#
# Poissons Ratio (x) = -0.07440 0.40398
# Poissons Ratio (y) = -0.04521 0.54525
# Poissons Ratio (z) = 0.17532 0.38936
#
# Static dielectric constant tensor:
#      x y z
#    x 1.913850 0.000000 -0.054770 
#    y 0.000000 1.915790 0.000000 
#    z -0.054770 0.000000 1.929020 
# 
# From -- ./inp_files/257654.got.cif
#   From: 2010.05.17/outbox.cif.g08.bks.cpg/sg15_129_cif.got.tgz:257654.got - 2010.06.03 18:47:42.
