data_PCOD9307740
_publ_section_title
;
Structure prediction by ZEFSAII (Michael W. Deem and Ramdas Pophale) SiO2 
 PCOD9307740
Probable space group: C 2/C
;
_chemical_formula_sum "Si O2"
_cell_formula_units_Z 36
_cell_length_a 13.713901
_cell_length_b 17.001845
_cell_length_c 13.183659
_cell_angle_alpha 90.000000
_cell_angle_beta 29.297943
_cell_angle_gamma 90.000000
_cell_volume 1504.227870
_symmetry_space_group_name_H-M "C 2/C"
_symmetry_group_IT_number 15
_symmetry_cell_setting 'monoclinic'
loop_
_space_group_symop_operation_xyz
x,y,z
-x,y,1/2-z
-x,-y,-z
x,-y,1/2+z
1/2+x,1/2+y,z
1/2-x,1/2+y,1/2-z
1/2-x,1/2-y,-z
1/2+x,1/2-y,1/2+z
loop_
_atom_site_type_symbol
_atom_site_label
_atom_site_fract_x
_atom_site_fract_y
_atom_site_fract_z
Si Si1 0.500000 0.611488 0.750000
Si Si2 0.682520 0.700706 0.771748
Si Si3 0.613646 0.128055 0.364243
Si Si4 0.697626 0.001783 0.623608
Si Si5 0.505914 0.357116 0.858618
O O1 0.556327 0.660334 0.797990
O O2 0.691342 0.558485 0.551980
O O3 0.691124 0.792864 0.736473
O O4 0.887004 0.651231 0.593786
O O5 0.581737 0.698378 0.974339
O O6 0.635922 0.050178 0.276764
O O7 0.768299 0.120755 0.316651
O O8 0.500000 0.034405 0.750000
O O9 0.863461 0.067005 0.494469
O O10 0.500000 0.325176 0.750000
#
# Coordination Sequence:
#
# PCOD9307740 Si02
#       5
#     4   8   8   8   8
#     4  12  24  46  78 114 150 182 246 314 380 436
#     4  12  27  47  79 112 146 196 243 308 379 432
#     4  12  26  49  74 112 149 193 246 309 370 436
#     4  12  26  45  76 112 145 197 240 309 375 434
#     4  12  29  48  72 108 156 198 253 291 360 448
#
# _framework density 23.932544
#
# number of rings (size 3 to 8) (size 9 to 14) (size 15 to 20)
#    0.000    0.000    7.778    0.667    4.667    3.556 
#    0.000    0.000    0.000    0.000    0.000    0.000 
#    0.000    0.000    0.000    0.000    0.000    0.000 
#
# Total GULP energy -100775.231386 kJ/mol
# GULP energy per Si atom -5598.623966 kJ/mol
# Density = 2.387807 g / cm^3
# Si number density = 23.932544 Si / 1000 Ang^3
#
#
#
# Elastic Constant Matrix: (Units=GPa)
#
#
# Indices 1 2 3 4 5 6 
#
# 1 119.5039 25.8644 62.0227 0.0046 -19.4974 0.0047
# 2 25.8644 76.8424 3.8456 0.0004 -2.2207 0.0027
# 3 62.0227 3.8456 130.9492 -0.0302 -7.9393 -0.0107
# 4 0.0046 0.0004 -0.0302 -12.7005 0.0222 -26.3201
# 5 -19.4974 -2.2207 -7.9393 0.0222 49.4895 0.0090
# 6 0.0047 0.0027 -0.0107 -26.3201 0.0090 21.0763
#
#
#
# Elastic Compliance Matrix: (Units=1/GPa)
#
#
# Indices 1 2 3 4 5 6 
#
# 1 0.012832 -0.003918 -0.005723 0.000011 0.003962 0.000007
# 2 -0.003918 0.014243 0.001396 -0.000002 -0.000681 -0.000002
# 3 -0.005723 0.001396 0.010273 -0.000011 -0.000544 -0.000008
# 4 0.000011 -0.000002 -0.000011 -0.021945 0.000017 -0.027405
# 5 0.003962 -0.000681 -0.000544 0.000017 0.021649 0.000011
# 6 0.000007 -0.000002 -0.000008 -0.027405 0.000011 0.013224
#
#
# Mechanical properties :
#
#
# Convention : Reuss Voigt Hill
#
# Bulk Modulus (GPa) = 47.94077 56.75120 52.34598
# Shear Modulus (GPa) = 67.82475 27.27724 47.55100
#
# Velocity S-wave (km/s) = 5.32930 3.37969 4.46227
# Velocity P-wave (km/s) = 7.61208 6.24453 6.96197
#
# Compressibility (1/GPa) = 0.02085907
#
# Stress axis : x y z
#
# Youngs Moduli (GPa) = 77.92753 70.20993 97.34208
#
# Poissons Ratio (x) = 0.27511 0.55706
# Poissons Ratio (y) = 0.30535 -0.13593
# Poissons Ratio (z) = 0.44595 -0.09804
#
# Static dielectric constant tensor:
#      x y z
#    x 1.911240 0.000000 -0.009390 
#    y 0.000000 1.901030 0.000010 
#    z -0.009390 0.000010 1.969150 
# 
# From -- ./inp_files/155035.got.cif
#   From: 2010.05.17/outbox.cif.g08.bks.cpg/sg15_78_cif.got.tgz:155035.got - 2010.06.03 18:47:42.
