data_PCOD9307717
_publ_section_title
;
Structure prediction by ZEFSAII (Michael W. Deem and Ramdas Pophale) SiO2 
 PCOD9307717
Probable space group: C 2/C
;
_chemical_formula_sum "Si O2"
_cell_formula_units_Z 28
_cell_length_a 7.680994
_cell_length_b 18.579684
_cell_length_c 8.711494
_cell_angle_alpha 90.000000
_cell_angle_beta 98.130269
_cell_angle_gamma 90.000000
_cell_volume 1230.725640
_symmetry_space_group_name_H-M "C 2/C"
_symmetry_group_IT_number 15
_symmetry_cell_setting 'monoclinic'
loop_
_space_group_symop_operation_xyz
x,y,z
-x,y,1/2-z
-x,-y,-z
x,-y,1/2+z
1/2+x,1/2+y,z
1/2-x,1/2+y,1/2-z
1/2-x,1/2-y,-z
1/2+x,1/2-y,1/2+z
loop_
_atom_site_type_symbol
_atom_site_label
_atom_site_fract_x
_atom_site_fract_y
_atom_site_fract_z
Si Si1 0.197106 0.769025 0.815439
Si Si2 0.000000 0.822996 0.250000
Si Si3 0.179970 0.429501 0.679390
Si Si4 0.651837 0.546902 0.595161
O O1 0.332105 0.728420 0.718573
O O2 0.217781 0.854225 0.788477
O O3 0.000000 0.746344 0.750000
O O4 0.250000 0.750000 0.000000
O O5 0.940808 0.878243 0.374535
O O6 0.278573 0.499597 0.756147
O O7 0.183002 0.440076 0.496693
O O8 0.000000 0.422914 0.750000
O O9 0.500000 0.500000 0.500000
#
# Coordination Sequence:
#
# PCOD9307717 Si02
#       4
#     8   4   8   8
#     4  12  28  49  75 113 156 202 252 313 384 456
#     4  12  26  46  76 112 152 202 252 320 378 454
#     4  12  26  47  75 110 147 199 256 313 379 455
#     4  12  24  46  73 106 147 197 248 313 376 447
#
# _framework density 22.750803999999999
#
# number of rings (size 3 to 8) (size 9 to 14) (size 15 to 20)
#    0.000    0.000    7.143    2.571    0.000    4.571 
#    0.000    0.000    0.000    0.000    0.000    0.000 
#    0.000    0.000    0.000    0.000    0.000    0.000 
#
# Total GULP energy -78230.172751 kJ/mol
# GULP energy per Si atom -5587.869482 kJ/mol
# Density = 2.269902 g / cm^3
# Si number density = 22.750804 Si / 1000 Ang^3
#
#
#
# Elastic Constant Matrix: (Units=GPa)
#
#
# Indices 1 2 3 4 5 6 
#
# 1 166.2399 32.6201 55.0047 0.0000 -27.8844 0.0000
# 2 32.6201 128.1437 26.0787 0.0000 -13.5003 0.0000
# 3 55.0047 26.0787 97.4719 0.0000 -29.7730 0.0000
# 4 0.0000 0.0000 0.0000 4.0463 0.0000 -44.4681
# 5 -27.8844 -13.5003 -29.7730 0.0000 47.6457 0.0000
# 6 0.0000 0.0000 0.0000 -44.4681 0.0000 21.6530
#
#
#
# Elastic Compliance Matrix: (Units=1/GPa)
#
#
# Indices 1 2 3 4 5 6 
#
# 1 0.007704 -0.001044 -0.003437 0.000000 0.002065 0.000000
# 2 -0.001044 0.008449 -0.001393 0.000000 0.000913 0.000000
# 3 -0.003437 -0.001393 0.014629 0.000000 0.006735 0.000000
# 4 0.000000 0.000000 0.000000 -0.011458 0.000000 -0.023531
# 5 0.002065 0.000913 0.006735 0.000000 0.026664 0.000000
# 6 0.000000 0.000000 0.000000 -0.023531 0.000000 -0.002141
#
#
# Mechanical properties :
#
#
# Convention : Reuss Voigt Hill
#
# Bulk Modulus (GPa) = 52.53745 68.80693 60.67219
# Shear Modulus (GPa) = 80.72363 33.21247 56.96805
#
# Velocity S-wave (km/s) = 5.96311 3.82493 5.00943
# Velocity P-wave (km/s) = 8.39966 7.05806 7.75791
#
# Compressibility (1/GPa) = 0.01903404
#
# Stress axis : x y z
#
# Youngs Moduli (GPa) = 129.80322 118.35614 68.35756
#
# Poissons Ratio (x) = 0.12357 0.23497
# Poissons Ratio (y) = 0.13552 0.09519
# Poissons Ratio (z) = 0.44618 0.16482
#
# Static dielectric constant tensor:
#      x y z
#    x 1.829960 0.000000 -0.055720 
#    y 0.000000 1.860000 0.000000 
#    z -0.055720 0.000000 1.889320 
# 
# From -- ./inp_files/21509.got.cif
#   From: 2010.05.17/outbox.cif.g08.bks.cpg/sg15_11_cif.got.tgz:21509.got - 2010.06.03 18:47:42.
