data_PCOD9307355
_publ_section_title
;
Structure prediction by ZEFSAII (Michael W. Deem and Ramdas Pophale) SiO2 
 PCOD9307355
Probable space group: C 2/C
;
_chemical_formula_sum "Si O2"
_cell_formula_units_Z 40
_cell_length_a 14.587335
_cell_length_b 14.538193
_cell_length_c 9.836277
_cell_angle_alpha 90.000000
_cell_angle_beta 74.825347
_cell_angle_gamma 90.000000
_cell_volume 2013.279298
_symmetry_space_group_name_H-M "C 2/C"
_symmetry_group_IT_number 15
_symmetry_cell_setting 'monoclinic'
loop_
_space_group_symop_operation_xyz
x,y,z
-x,y,1/2-z
-x,-y,-z
x,-y,1/2+z
1/2+x,1/2+y,z
1/2-x,1/2+y,1/2-z
1/2-x,1/2-y,-z
1/2+x,1/2-y,1/2+z
loop_
_atom_site_type_symbol
_atom_site_label
_atom_site_fract_x
_atom_site_fract_y
_atom_site_fract_z
Si Si1 0.775030 0.696315 0.130872
Si Si2 0.027967 0.223361 0.893035
Si Si3 0.768303 0.017802 0.852255
Si Si4 0.103776 0.960301 0.462786
Si Si5 0.825572 0.711277 0.580181
O O1 0.880883 0.710739 0.150176
O O2 0.767703 0.586515 0.119519
O O3 0.701412 0.736706 0.269938
O O4 0.750000 0.750000 0.000000
O O5 0.074759 0.146805 0.973946
O O6 0.000000 0.190979 0.750000
O O7 0.932529 0.266022 0.992884
O O8 0.825956 0.029785 0.691093
O O9 0.695486 0.102141 0.895490
O O10 0.845918 0.018349 0.940145
O O11 0.000000 0.000000 0.500000
O O12 0.750000 0.750000 0.500000
#
# Coordination Sequence:
#
# PCOD9307355 Si02
#       5
#     8   8   8   8   8
#     4  12  25  46  68 102 144 178 230 294 345 416
#     4  12  24  44  71 100 140 185 231 285 352 417
#     4  12  24  43  69 102 138 184 225 291 349 409
#     4  12  23  40  69 103 135 175 240 284 343 406
#     4  12  24  44  72 102 140 182 230 289 350 414
#
# _framework density 19.868082999999999
#
# number of rings (size 3 to 8) (size 9 to 14) (size 15 to 20)
#    0.000    0.000    6.000    5.400    0.000    1.600 
#    0.000    0.000    0.000    0.000    0.000    0.000 
#    0.000    0.000    0.000    0.000    0.000    0.000 
#
# Total GULP energy -111546.517654 kJ/mol
# GULP energy per Si atom -5577.325883 kJ/mol
# Density = 1.982286 g / cm^3
# Si number density = 19.868083 Si / 1000 Ang^3
#
#
#
# Elastic Constant Matrix: (Units=GPa)
#
#
# Indices 1 2 3 4 5 6 
#
# 1 65.9225 -3.6084 39.3384 0.0000 -26.1059 0.0000
# 2 -3.6084 119.8794 31.1070 0.0000 -21.6554 0.0000
# 3 39.3384 31.1070 148.9010 0.0000 -23.7716 0.0000
# 4 0.0000 0.0000 0.0000 23.6897 0.0000 -11.0284
# 5 -26.1059 -21.6554 -23.7716 0.0000 38.5236 0.0000
# 6 0.0000 0.0000 0.0000 -11.0284 0.0000 37.7298
#
#
#
# Elastic Compliance Matrix: (Units=1/GPa)
#
#
# Indices 1 2 3 4 5 6 
#
# 1 0.025073 0.005082 -0.005011 0.000000 0.016756 0.000000
# 2 0.005082 0.010521 -0.002270 0.000000 0.007957 0.000000
# 3 -0.005011 -0.002270 0.008617 0.000000 0.000646 0.000000
# 4 0.000000 0.000000 0.000000 0.048861 0.000000 0.014282
# 5 0.016756 0.007957 0.000646 0.000000 0.042184 0.000000
# 6 0.000000 0.000000 0.000000 0.014282 0.000000 0.030679
#
#
# Mechanical properties :
#
#
# Convention : Reuss Voigt Hill
#
# Bulk Modulus (GPa) = 25.11765 52.04190 38.57978
# Shear Modulus (GPa) = 27.23242 37.84634 32.53938
#
# Velocity S-wave (km/s) = 3.70626 4.36923 4.05133
# Velocity P-wave (km/s) = 5.56640 7.19056 6.42997
#
# Compressibility (1/GPa) = 0.03981264
#
# Stress axis : x y z
#
# Youngs Moduli (GPa) = 39.88366 95.04658 116.04986
#
# Poissons Ratio (x) = -0.48300 0.58149
# Poissons Ratio (y) = -0.20268 0.26346
# Poissons Ratio (z) = 0.19985 0.21577
#
# Static dielectric constant tensor:
#      x y z
#    x 1.751690 0.000000 0.051600 
#    y 0.000000 1.851260 0.000000 
#    z 0.051600 0.000000 1.751120 
# 
# From -- ./inp_files/37803.got.cif
#   From: 2010.05.17/outbox.cif.g08.bks.cpg/sg15_19_cif.got.tgz:37803.got - 2010.06.03 18:47:42.
