data_PCOD9307418
_publ_section_title
;
Structure prediction by ZEFSAII (Michael W. Deem and Ramdas Pophale) SiO2 
 PCOD9307418
Probable space group: C 2/C
;
_chemical_formula_sum "Si O2"
_cell_formula_units_Z 52
_cell_length_a 7.473937
_cell_length_b 19.839277
_cell_length_c 16.077513
_cell_angle_alpha 90.000000
_cell_angle_beta 77.092554
_cell_angle_gamma 90.000000
_cell_volume 2323.696717
_symmetry_space_group_name_H-M "C 2/C"
_symmetry_group_IT_number 15
_symmetry_cell_setting 'monoclinic'
loop_
_space_group_symop_operation_xyz
x,y,z
-x,y,1/2-z
-x,-y,-z
x,-y,1/2+z
1/2+x,1/2+y,z
1/2-x,1/2+y,1/2-z
1/2-x,1/2-y,-z
1/2+x,1/2-y,1/2+z
loop_
_atom_site_type_symbol
_atom_site_label
_atom_site_fract_x
_atom_site_fract_y
_atom_site_fract_z
Si Si1 0.983706 0.225249 0.337317
Si Si2 0.791685 0.359893 0.370532
Si Si3 0.500000 0.032223 0.750000
Si Si4 0.831635 0.347435 0.551099
Si Si5 0.353983 0.006820 0.091227
Si Si6 0.426914 0.427051 0.470717
Si Si7 0.786416 0.306232 0.926099
O O1 0.864021 0.290999 0.323811
O O2 0.848148 0.197580 0.422651
O O3 0.000000 0.183988 0.250000
O O4 0.185204 0.224829 0.356422
O O5 0.845116 0.418872 0.302732
O O6 0.897005 0.356811 0.449178
O O7 0.587809 0.378843 0.420424
O O8 0.563081 0.994020 0.825685
O O9 0.768161 0.420289 0.587394
O O10 0.996018 0.319991 0.590993
O O11 0.206342 0.949083 0.090340
O O12 0.500000 0.000000 0.000000
O O13 0.500000 0.500000 0.500000
O O14 0.307616 0.379247 0.544290
O O15 0.750000 0.250000 0.000000
#
# Coordination Sequence:
#
# PCOD9307418 Si02
#       7
#     8   8   4   8   8   8   8
#     4  12  27  47  69 110 153 188 247 315 368 443
#     4  12  23  46  73 103 147 190 245 307 365 437
#     4  12  26  44  72 104 142 194 244 310 364 438
#     4  12  24  48  76 102 146 196 240 305 375 441
#     4  12  24  46  71 104 146 188 243 310 374 442
#     4  12  23  43  76 107 140 194 249 302 376 451
#     4  12  24  41  76 107 136 196 250 292 380 448
#
# _framework density 22.378136000000001
#
# number of rings (size 3 to 8) (size 9 to 14) (size 15 to 20)
#    0.000    0.000    8.462    1.385    0.000    2.462 
#    2.769    1.538    0.000    0.000    0.000    0.000 
#    0.000    0.000    0.000    0.000    0.000    0.000 
#
# Total GULP energy -144978.901779 kJ/mol
# GULP energy per Si atom -5576.111607 kJ/mol
# Density = 2.232720 g / cm^3
# Si number density = 22.378136 Si / 1000 Ang^3
#
#
#
# Elastic Constant Matrix: (Units=GPa)
#
#
# Indices 1 2 3 4 5 6 
#
# 1 106.2651 -0.7601 15.4987 0.0000 10.4372 0.0000
# 2 -0.7601 70.4761 -5.6088 0.0000 1.1313 0.0000
# 3 15.4987 -5.6088 107.1885 0.0000 17.5245 0.0000
# 4 0.0000 0.0000 0.0000 23.3482 0.0000 3.1478
# 5 10.4372 1.1313 17.5245 0.0000 36.1346 0.0000
# 6 0.0000 0.0000 0.0000 3.1478 0.0000 37.2873
#
#
#
# Elastic Compliance Matrix: (Units=1/GPa)
#
#
# Indices 1 2 3 4 5 6 
#
# 1 0.009790 0.000061 -0.001032 0.000000 -0.002329 0.000000
# 2 0.000061 0.014275 0.000884 0.000000 -0.000893 0.000000
# 3 -0.001032 0.000884 0.010297 0.000000 -0.004724 0.000000
# 4 0.000000 0.000000 0.000000 0.043323 0.000000 -0.003657
# 5 -0.002329 -0.000893 -0.004724 0.000000 0.030666 0.000000
# 6 0.000000 0.000000 0.000000 -0.003657 0.000000 0.027128
#
#
# Mechanical properties :
#
#
# Convention : Reuss Voigt Hill
#
# Bulk Modulus (GPa) = 29.24938 33.57659 31.41298
# Shear Modulus (GPa) = 34.00266 37.67402 35.83834
#
# Velocity S-wave (km/s) = 3.90225 4.10752 4.00620
# Velocity P-wave (km/s) = 5.77947 6.12637 5.95545
#
# Compressibility (1/GPa) = 0.03418876
#
# Stress axis : x y z
#
# Youngs Moduli (GPa) = 102.14395 70.05463 97.11528
#
# Poissons Ratio (x) = -0.00427 0.10018
# Poissons Ratio (y) = -0.00622 -0.08587
# Poissons Ratio (z) = 0.10537 -0.06194
#
# Static dielectric constant tensor:
#      x y z
#    x 1.866690 0.000000 0.029900 
#    y 0.000000 1.927420 0.000000 
#    z 0.029900 0.000000 1.761680 
# 
# From -- ./inp_files/135980.got.cif
#   From: 2010.05.17/outbox.cif.g08.bks.cpg/sg15_68_cif.got.tgz:135980.got - 2010.06.03 18:47:42.
