data_PCOD9307215
_publ_section_title
;
Structure prediction by ZEFSAII (Michael W. Deem and Ramdas Pophale) SiO2 
 PCOD9307215
Probable space group: C 2/C
;
_chemical_formula_sum "Si O2"
_cell_formula_units_Z 40
_cell_length_a 20.216115
_cell_length_b 12.822199
_cell_length_c 10.819942
_cell_angle_alpha 90.000000
_cell_angle_beta 35.787131
_cell_angle_gamma 90.000000
_cell_volume 1640.115023
_symmetry_space_group_name_H-M "C 2/C"
_symmetry_group_IT_number 15
_symmetry_cell_setting 'monoclinic'
loop_
_space_group_symop_operation_xyz
x,y,z
-x,y,1/2-z
-x,-y,-z
x,-y,1/2+z
1/2+x,1/2+y,z
1/2-x,1/2+y,1/2-z
1/2-x,1/2-y,-z
1/2+x,1/2-y,1/2+z
loop_
_atom_site_type_symbol
_atom_site_label
_atom_site_fract_x
_atom_site_fract_y
_atom_site_fract_z
Si Si1 0.500000 0.611301 0.750000
Si Si2 0.879473 0.759277 0.837104
Si Si3 0.092642 0.775370 0.338994
Si Si4 0.000000 0.428342 0.250000
Si Si5 0.335569 0.440927 0.072216
Si Si6 0.621886 0.039392 0.263863
O O1 0.427660 0.678886 0.765289
O O2 0.583976 0.540850 0.539101
O O3 0.969304 0.753452 0.590072
O O4 0.905112 0.667223 0.896634
O O5 0.750000 0.750000 0.000000
O O6 0.888802 0.871790 0.882269
O O7 0.158556 0.862423 0.320211
O O8 0.144673 0.660620 0.247778
O O9 0.907599 0.508875 0.331578
O O10 0.215254 0.476199 0.198939
O O11 0.500000 0.000000 0.500000
#
# Coordination Sequence:
#
# PCOD9307215 Si02
#       6
#     4   8   8   4   8   8
#     4  12  28  48  74 112 146 204 248 322 388 442
#     4  12  22  45  78 112 145 199 255 305 373 465
#     4  12  26  50  74 111 156 193 266 308 381 468
#     4  12  22  42  72 108 154 184 250 300 380 446
#     4  12  25  46  76 107 148 200 252 313 382 457
#     4  12  26  44  72 112 145 196 243 318 381 444
#
# _framework density 24.388532999999999
#
# number of rings (size 3 to 8) (size 9 to 14) (size 15 to 20)
#    0.000    0.000    8.000    1.200    0.000    7.200 
#    0.000    0.000    0.000    0.000    0.000    0.000 
#    0.000    0.000    0.000    0.000    0.000    0.000 
#
# Total GULP energy -111411.540993 kJ/mol
# GULP energy per Si atom -5570.577050 kJ/mol
# Density = 2.433302 g / cm^3
# Si number density = 24.388533 Si / 1000 Ang^3
#
#
#
# Elastic Constant Matrix: (Units=GPa)
#
#
# Indices 1 2 3 4 5 6 
#
# 1 176.7342 90.4040 47.2581 0.0000 -47.7977 0.0000
# 2 90.4040 184.8838 38.3940 0.0000 -10.4034 0.0000
# 3 47.2581 38.3940 50.3009 0.0000 -24.8541 0.0000
# 4 0.0000 0.0000 0.0000 14.6231 0.0000 -12.9511
# 5 -47.7977 -10.4034 -24.8541 0.0000 47.8637 0.0000
# 6 0.0000 0.0000 0.0000 -12.9511 0.0000 54.5874
#
#
#
# Elastic Compliance Matrix: (Units=1/GPa)
#
#
# Indices 1 2 3 4 5 6 
#
# 1 0.010879 -0.004268 -0.002763 0.000000 0.008502 0.000000
# 2 -0.004268 0.008188 -0.004663 0.000000 -0.004903 0.000000
# 3 -0.002763 -0.004663 0.032514 0.000000 0.013111 0.000000
# 4 0.000000 0.000000 0.000000 0.086577 0.000000 0.020541
# 5 0.008502 -0.004903 0.013111 0.000000 0.035125 0.000000
# 6 0.000000 0.000000 0.000000 0.020541 0.000000 0.023193
#
#
# Mechanical properties :
#
#
# Convention : Reuss Voigt Hill
#
# Bulk Modulus (GPa) = 35.46912 84.89234 60.18073
# Shear Modulus (GPa) = 21.80917 39.13902 30.47409
#
# Velocity S-wave (km/s) = 2.99363 4.01036 3.53870
# Velocity P-wave (km/s) = 5.15015 7.50519 6.43630
#
# Compressibility (1/GPa) = 0.02819354
#
# Stress axis : x y z
#
# Youngs Moduli (GPa) = 91.91703 122.12937 30.75641
#
# Poissons Ratio (x) = 0.52120 0.08498
# Poissons Ratio (y) = 0.39227 0.14342
# Poissons Ratio (z) = 0.25396 0.56952
#
# Static dielectric constant tensor:
#      x y z
#    x -5.140610 0.000000 -4.327910 
#    y 0.000000 1.949230 0.000000 
#    z -4.327910 0.000000 -0.604190 
# 
# From -- ./inp_files/111399.got.cif
#   From: 2010.05.17/outbox.cif.g08.bks.cpg/sg15_56_cif.got.tgz:111399.got - 2010.06.03 18:47:42.
