data_PCOD9307636
_publ_section_title
;
Structure prediction by ZEFSAII (Michael W. Deem and Ramdas Pophale) SiO2 
 PCOD9307636
Probable space group: C 2/C
;
_chemical_formula_sum "Si O2"
_cell_formula_units_Z 28
_cell_length_a 8.621133
_cell_length_b 4.525012
_cell_length_c 26.999612
_cell_angle_alpha 90.000000
_cell_angle_beta 130.986254
_cell_angle_gamma 90.000000
_cell_volume 795.082177
_symmetry_space_group_name_H-M "C 2/C"
_symmetry_group_IT_number 15
_symmetry_cell_setting 'monoclinic'
loop_
_space_group_symop_operation_xyz
x,y,z
-x,y,1/2-z
-x,-y,-z
x,-y,1/2+z
1/2+x,1/2+y,z
1/2-x,1/2+y,1/2-z
1/2-x,1/2-y,-z
1/2+x,1/2-y,1/2+z
loop_
_atom_site_type_symbol
_atom_site_label
_atom_site_fract_x
_atom_site_fract_y
_atom_site_fract_z
Si Si1 0.457968 0.682219 0.948121
Si Si2 0.750000 0.750000 0.500000
Si Si3 0.480786 0.568421 0.347152
Si Si4 0.194686 0.073970 0.305975
O O1 0.552876 0.459584 0.923943
O O2 0.227513 0.832321 0.876112
O O3 0.577656 0.984606 0.974423
O O4 0.338320 0.540897 0.969850
O O5 0.410459 0.221065 0.332810
O O6 0.445913 0.613916 0.276211
O O7 0.262362 0.731044 0.317901
#
# Coordination Sequence:
#
# PCOD9307636 Si02
#       4
#     8   4   8   8
#     4   8  16  34  60  91 129 170 210 267 315 398
#     4   6  14  28  56  78 134 152 214 244 320 356
#     4  12  24  44  71  98 134 177 224 268 345 393
#     4  12  26  45  69  99 133 173 226 284 332 395
#
# _framework density 35.216486000000003
#
# number of rings (size 3 to 8) (size 9 to 14) (size 15 to 20)
#    1.714    0.000    0.000    6.000    0.000    0.000 
#    0.000    2.857    0.000    0.000    0.000    0.000 
#    0.000    0.000    0.000    0.000    0.000    0.000 
#
# Total GULP energy -78228.992296 kJ/mol
# GULP energy per Si atom -5587.785164 kJ/mol
# Density = 3.513633 g / cm^3
# Si number density = 35.216486 Si / 1000 Ang^3
#
#
#
# Elastic Constant Matrix: (Units=GPa)
#
#
# Indices 1 2 3 4 5 6 
#
# 1 461.9207 98.2212 155.7014 -0.0004 -51.4317 0.0002
# 2 98.2212 180.3287 34.0295 -0.0012 19.3624 0.0008
# 3 155.7014 34.0295 369.9422 -0.0004 2.7153 0.0005
# 4 -0.0004 -0.0012 -0.0004 85.9090 0.0003 18.9958
# 5 -51.4317 19.3624 2.7153 0.0003 157.7890 -0.0003
# 6 0.0002 0.0008 0.0005 18.9958 -0.0003 77.7876
#
#
#
# Elastic Compliance Matrix: (Units=1/GPa)
#
#
# Indices 1 2 3 4 5 6 
#
# 1 0.003010 -0.001553 -0.001133 0.000000 0.001191 0.000000
# 2 -0.001553 0.006520 0.000064 0.000000 -0.001307 0.000000
# 3 -0.001133 0.000064 0.003177 0.000000 -0.000432 0.000000
# 4 0.000000 0.000000 0.000000 0.012305 0.000000 -0.003005
# 5 0.001191 -0.001307 -0.000432 0.000000 0.006894 0.000000
# 6 0.000000 0.000000 0.000000 -0.003005 0.000000 0.013589
#
#
# Mechanical properties :
#
#
# Convention : Reuss Voigt Hill
#
# Bulk Modulus (GPa) = 134.01192 176.45507 155.23349
# Shear Modulus (GPa) = 93.93903 112.57976 103.25939
#
# Velocity S-wave (km/s) = 5.17036 5.66015 5.42079
# Velocity P-wave (km/s) = 8.58952 9.64007 9.12992
#
# Compressibility (1/GPa) = 0.00746202
#
# Stress axis : x y z
#
# Youngs Moduli (GPa) = 332.27658 153.37625 314.75367
#
# Poissons Ratio (x) = 0.23826 0.35646
# Poissons Ratio (y) = 0.51616 -0.02004
# Poissons Ratio (z) = 0.37631 -0.00976
#
# Static dielectric constant tensor:
#      x y z
#    x 2.686540 0.000000 0.443860 
#    y 0.000000 2.447770 0.000000 
#    z 0.443860 0.000000 4.350290 
# 
# From -- ./inp_files/306289.got.cif
#   From: 2010.05.17/outbox.cif.g08.bks.cpg/sg15_154_cif.got.tgz:306289.got - 2010.06.03 18:47:42.
