data_PCOD9307613
_publ_section_title
;
Structure prediction by ZEFSAII (Michael W. Deem and Ramdas Pophale) SiO2 
 PCOD9307613
Probable space group: C 2/C
;
_chemical_formula_sum "Si O2"
_cell_formula_units_Z 56
_cell_length_a 8.875902
_cell_length_b 27.411070
_cell_length_c 10.214986
_cell_angle_alpha 90.000000
_cell_angle_beta 67.972496
_cell_angle_gamma 90.000000
_cell_volume 2303.869287
_symmetry_space_group_name_H-M "C 2/C"
_symmetry_group_IT_number 15
_symmetry_cell_setting 'monoclinic'
loop_
_space_group_symop_operation_xyz
x,y,z
-x,y,1/2-z
-x,-y,-z
x,-y,1/2+z
1/2+x,1/2+y,z
1/2-x,1/2+y,1/2-z
1/2-x,1/2-y,-z
1/2+x,1/2-y,1/2+z
loop_
_atom_site_type_symbol
_atom_site_label
_atom_site_fract_x
_atom_site_fract_y
_atom_site_fract_z
Si Si1 0.269914 0.621643 0.939876
Si Si2 0.361055 0.221927 0.067332
Si Si3 0.178826 0.956406 0.656903
Si Si4 0.440395 0.553508 0.566580
Si Si5 0.268700 0.223106 0.633931
Si Si6 0.178343 0.369624 0.745384
Si Si7 0.880896 0.541949 0.661626
O O1 0.416574 0.584756 0.919359
O O2 0.292280 0.667129 0.838122
O O3 0.117491 0.588456 0.937236
O O4 0.254721 0.648904 0.085279
O O5 0.327042 0.249965 0.217305
O O6 0.322424 0.167262 0.133052
O O7 0.250000 0.250000 0.000000
O O8 0.534184 0.220269 0.935630
O O9 0.230822 0.919297 0.751124
O O10 0.000000 0.977224 0.750000
O O11 0.331005 0.993382 0.594212
O O12 0.857169 0.926181 0.961976
O O13 0.500000 0.500000 0.500000
O O14 0.291937 0.549637 0.711863
O O15 0.250000 0.250000 0.500000
O O16 0.000000 0.380714 0.750000
O O17 0.000000 0.537370 0.750000
#
# Coordination Sequence:
#
# PCOD9307613 Si02
#       7
#     8   8   8   8   8   8   8
#     4  12  25  47  79 106 159 206 263 331 405 485
#     4  12  28  51  82 116 163 205 270 338 414 492
#     4  12  24  43  74 104 149 197 262 325 387 479
#     4  12  24  47  73 106 151 205 267 326 394 489
#     4  12  26  51  81 117 160 209 265 336 409 491
#     4  12  25  48  74 110 153 206 257 329 405 483
#     4  12  28  45  69 112 155 206 264 329 404 476
#
# _framework density 24.306936
#
# number of rings (size 3 to 8) (size 9 to 14) (size 15 to 20)
#    0.000    0.000    7.143    1.714    2.000    7.429 
#    0.000    0.000    0.000    0.000    0.000    0.000 
#    0.000    0.000    0.000    0.000    0.000    0.000 
#
# Total GULP energy -156119.021466 kJ/mol
# GULP energy per Si atom -5575.679338 kJ/mol
# Density = 2.425161 g / cm^3
# Si number density = 24.306936 Si / 1000 Ang^3
#
#
#
# Elastic Constant Matrix: (Units=GPa)
#
#
# Indices 1 2 3 4 5 6 
#
# 1 157.1344 67.9283 17.1797 0.0000 13.3269 0.0000
# 2 67.9283 123.7925 5.5872 0.0000 11.3178 0.0000
# 3 17.1797 5.5872 86.2618 0.0000 8.2039 0.0000
# 4 0.0000 0.0000 0.0000 40.3740 0.0000 12.2498
# 5 13.3269 11.3178 8.2039 0.0000 46.4665 0.0000
# 6 0.0000 0.0000 0.0000 12.2498 0.0000 25.8530
#
#
#
# Elastic Compliance Matrix: (Units=1/GPa)
#
#
# Indices 1 2 3 4 5 6 
#
# 1 0.008563 -0.004538 -0.001305 0.000000 -0.001120 0.000000
# 2 -0.004538 0.010677 0.000341 0.000000 -0.001359 0.000000
# 3 -0.001305 0.000341 0.012004 0.000000 -0.001828 0.000000
# 4 0.000000 0.000000 0.000000 0.028927 0.000000 -0.013706
# 5 -0.001120 -0.001359 -0.001828 0.000000 0.022496 0.000000
# 6 0.000000 0.000000 0.000000 -0.013706 0.000000 0.045175
#
#
# Mechanical properties :
#
#
# Convention : Reuss Voigt Hill
#
# Bulk Modulus (GPa) = 49.40198 60.95323 55.17760
# Shear Modulus (GPa) = 34.34263 40.97160 37.65711
#
# Velocity S-wave (km/s) = 3.76290 4.11005 3.94030
# Velocity P-wave (km/s) = 6.26479 6.90321 6.59173
#
# Compressibility (1/GPa) = 0.02024211
#
# Stress axis : x y z
#
# Youngs Moduli (GPa) = 116.77832 93.66118 83.30367
#
# Poissons Ratio (x) = 0.42499 0.10871
# Poissons Ratio (y) = 0.52989 -0.02844
# Poissons Ratio (z) = 0.15239 -0.03198
#
# Static dielectric constant tensor:
#      x y z
#    x 1.995930 0.000000 0.000920 
#    y 0.000000 2.171590 0.000000 
#    z 0.000920 0.000000 2.146670 
# 
# From -- ./inp_files/81283.got.cif
#   From: 2010.05.17/outbox.cif.g08.bks.cpg/sg15_41_cif.got.tgz:81283.got - 2010.06.03 18:47:42.
