data_PCOD9307560
_publ_section_title
;
Structure prediction by ZEFSAII (Michael W. Deem and Ramdas Pophale) SiO2 
 PCOD9307560
Probable space group: C 2/C
;
_chemical_formula_sum "Si O2"
_cell_formula_units_Z 48
_cell_length_a 16.232294
_cell_length_b 16.313917
_cell_length_c 13.884892
_cell_angle_alpha 90.000000
_cell_angle_beta 149.636729
_cell_angle_gamma 90.000000
_cell_volume 1858.597198
_symmetry_space_group_name_H-M "C 2/C"
_symmetry_group_IT_number 15
_symmetry_cell_setting 'monoclinic'
loop_
_space_group_symop_operation_xyz
x,y,z
-x,y,1/2-z
-x,-y,-z
x,-y,1/2+z
1/2+x,1/2+y,z
1/2-x,1/2+y,1/2-z
1/2-x,1/2-y,-z
1/2+x,1/2-y,1/2+z
loop_
_atom_site_type_symbol
_atom_site_label
_atom_site_fract_x
_atom_site_fract_y
_atom_site_fract_z
Si Si1 0.923814 0.183001 0.450686
Si Si2 0.605375 0.199694 0.013065
Si Si3 0.187191 0.899277 0.920618
Si Si4 0.132380 0.448418 0.204204
Si Si5 0.643817 0.188784 0.456972
Si Si6 0.634008 0.449695 0.228480
O O1 0.743479 0.179528 0.229757
O O2 0.933045 0.256201 0.536697
O O3 0.042257 0.210507 0.481830
O O4 0.967550 0.099577 0.548475
O O5 0.694736 0.172139 0.003920
O O6 0.453646 0.139936 0.876180
O O7 0.000000 0.869433 0.750000
O O8 0.151100 0.966709 0.801764
O O9 0.289861 0.948577 0.107538
O O10 0.292252 0.456398 0.302340
O O11 0.000000 0.500000 0.000000
O O12 0.500000 0.151233 0.250000
O O13 0.750000 0.250000 0.500000
O O14 0.753065 0.117190 0.606425
#
# Coordination Sequence:
#
# PCOD9307560 Si02
#       6
#     8   8   8   8   8   8
#     4  12  25  47  76 117 153 215 255 326 395 470
#     4  12  25  51  81 112 161 199 272 317 398 479
#     4  12  31  51  78 118 156 209 270 331 402 472
#     4  12  27  50  76 112 152 209 262 320 398 466
#     4  12  24  40  67 112 153 198 254 315 394 469
#     4  12  27  48  77 111 160 206 264 326 400 473
#
# _framework density 25.825928999999999
#
# number of rings (size 3 to 8) (size 9 to 14) (size 15 to 20)
#    0.000    0.000    6.667    1.500    7.000    1.333 
#    0.000   11.667    0.000    0.000    0.000    0.000 
#    0.000    0.000    0.000    0.000    0.000    0.000 
#
# Total GULP energy -134123.259997 kJ/mol
# GULP energy per Si atom -5588.469167 kJ/mol
# Density = 2.576715 g / cm^3
# Si number density = 25.825929 Si / 1000 Ang^3
#
#
#
# Elastic Constant Matrix: (Units=GPa)
#
#
# Indices 1 2 3 4 5 6 
#
# 1 116.5634 35.6267 21.3362 -0.0003 -19.8733 -0.0001
# 2 35.6267 100.9814 32.2338 -0.0001 -8.0666 0.0000
# 3 21.3362 32.2338 144.8099 -0.0005 -16.8792 -0.0002
# 4 -0.0003 -0.0001 -0.0005 174.1622 -0.0004 52.0249
# 5 -19.8733 -8.0666 -16.8792 -0.0004 34.4908 -0.0002
# 6 -0.0001 0.0000 -0.0002 52.0249 -0.0002 53.5540
#
#
#
# Elastic Compliance Matrix: (Units=1/GPa)
#
#
# Indices 1 2 3 4 5 6 
#
# 1 0.010486 -0.003214 -0.000226 0.000000 0.005180 0.000000
# 2 -0.003214 0.011710 -0.002153 0.000000 -0.000166 0.000000
# 3 -0.000226 -0.002153 0.007788 0.000000 0.003178 0.000000
# 4 0.000000 0.000000 0.000000 0.008089 0.000000 -0.007858
# 5 0.005180 -0.000166 0.003178 0.000000 0.033494 0.000000
# 6 0.000000 0.000000 0.000000 -0.007858 0.000000 0.026307
#
#
# Mechanical properties :
#
#
# Convention : Reuss Voigt Hill
#
# Bulk Modulus (GPa) = 53.19000 60.08315 56.63657
# Shear Modulus (GPa) = 43.35575 70.65195 57.00385
#
# Velocity S-wave (km/s) = 4.10172 5.23606 4.70322
# Velocity P-wave (km/s) = 6.56296 7.73759 7.17436
#
# Compressibility (1/GPa) = 0.01880053
#
# Stress axis : x y z
#
# Youngs Moduli (GPa) = 95.36845 85.39427 128.39509
#
# Poissons Ratio (x) = 0.27442 0.02900
# Poissons Ratio (y) = 0.30647 0.27638
# Poissons Ratio (z) = 0.02154 0.18382
#
# Static dielectric constant tensor:
#      x y z
#    x 2.090520 0.000000 -0.032220 
#    y 0.000000 2.019110 0.000000 
#    z -0.032220 0.000000 2.030260 
# 
# From -- ./inp_files/163308.got.cif
#   From: 2010.05.17/outbox.cif.g08.bks.cpg/sg15_82_cif.got.tgz:163308.got - 2010.06.03 18:47:42.
