data_PCOD9307081
_publ_section_title
;
Structure prediction by ZEFSAII (Michael W. Deem and Ramdas Pophale) SiO2 
 PCOD9307081
Probable space group: C 2/C
;
_chemical_formula_sum "Si O2"
_cell_formula_units_Z 40
_cell_length_a 11.790784
_cell_length_b 8.758738
_cell_length_c 16.356061
_cell_angle_alpha 90.000000
_cell_angle_beta 83.014157
_cell_angle_gamma 90.000000
_cell_volume 1676.589773
_symmetry_space_group_name_H-M "C 2/C"
_symmetry_group_IT_number 15
_symmetry_cell_setting 'monoclinic'
loop_
_space_group_symop_operation_xyz
x,y,z
-x,y,1/2-z
-x,-y,-z
x,-y,1/2+z
1/2+x,1/2+y,z
1/2-x,1/2+y,1/2-z
1/2-x,1/2-y,-z
1/2+x,1/2-y,1/2+z
loop_
_atom_site_type_symbol
_atom_site_label
_atom_site_fract_x
_atom_site_fract_y
_atom_site_fract_z
Si Si1 0.250000 0.750000 0.500000
Si Si2 0.660699 0.209789 0.823387
Si Si3 0.469386 0.567395 0.412850
Si Si4 0.895832 0.248241 0.856198
Si Si5 0.000000 0.501177 0.750000
Si Si6 0.869634 0.443291 0.006485
O O1 0.362410 0.678335 0.438633
O O2 0.206592 0.577321 0.522380
O O3 0.573038 0.338554 0.862561
O O4 0.790096 0.265059 0.803017
O O5 0.605960 0.114284 0.754949
O O6 0.669646 0.094232 0.899061
O O7 0.500000 0.500000 0.500000
O O8 0.442778 0.422016 0.357479
O O9 0.860703 0.295985 0.950465
O O10 0.983419 0.382200 0.824989
O O11 0.000000 0.500000 0.000000
#
# Coordination Sequence:
#
# PCOD9307081 Si02
#       6
#     4   8   8   8   4   8
#     4  12  22  36  68 108 134 170 218 292 356 394
#     4  12  26  47  72 101 144 186 237 291 359 419
#     4  12  24  40  74 108 132 173 235 297 353 410
#     4  12  26  47  73 103 141 186 240 294 354 424
#     4  12  30  48  64 100 150 192 226 286 354 444
#     4  12  21  44  74 106 138 179 239 302 345 412
#
# _framework density 23.857952000000001
#
# number of rings (size 3 to 8) (size 9 to 14) (size 15 to 20)
#    0.000    0.000    8.000    1.800    0.000    4.000 
#    3.600    0.000    0.000    0.000    0.000    0.000 
#    0.000    0.000    0.000    0.000    0.000    0.000 
#
# Total GULP energy -111363.329002 kJ/mol
# GULP energy per Si atom -5568.166450 kJ/mol
# Density = 2.380365 g / cm^3
# Si number density = 23.857952 Si / 1000 Ang^3
#
#
#
# Elastic Constant Matrix: (Units=GPa)
#
#
# Indices 1 2 3 4 5 6 
#
# 1 97.7441 48.5307 -2.7520 0.0000 -3.4961 0.0000
# 2 48.5307 156.2826 13.3356 0.0000 3.2001 0.0000
# 3 -2.7520 13.3356 40.4272 0.0000 1.7584 0.0000
# 4 0.0000 0.0000 0.0000 34.0514 0.0000 -2.6329
# 5 -3.4961 3.2001 1.7584 0.0000 23.3940 0.0000
# 6 0.0000 0.0000 0.0000 -2.6329 0.0000 34.5624
#
#
#
# Elastic Compliance Matrix: (Units=1/GPa)
#
#
# Indices 1 2 3 4 5 6 
#
# 1 0.012392 -0.004073 0.002089 0.000000 0.002252 0.000000
# 2 -0.004073 0.007935 -0.002830 0.000000 -0.001481 0.000000
# 3 0.002089 -0.002830 0.025866 0.000000 -0.001245 0.000000
# 4 0.000000 0.000000 0.000000 0.029541 0.000000 0.002250
# 5 0.002252 -0.001481 -0.001245 0.000000 0.043379 0.000000
# 6 0.000000 0.000000 0.000000 0.002250 0.000000 0.029105
#
#
# Mechanical properties :
#
#
# Convention : Reuss Voigt Hill
#
# Bulk Modulus (GPa) = 27.34822 45.85360 36.60091
# Shear Modulus (GPa) = 29.40586 34.09086 31.74836
#
# Velocity S-wave (km/s) = 3.51456 3.78419 3.65187
# Velocity P-wave (km/s) = 5.28747 6.19311 5.75812
#
# Compressibility (1/GPa) = 0.03656545
#
# Stress axis : x y z
#
# Youngs Moduli (GPa) = 80.69587 126.02137 38.66105
#
# Poissons Ratio (x) = 0.51323 -0.08076
# Poissons Ratio (y) = 0.32864 0.10942
# Poissons Ratio (z) = -0.16857 0.35668
#
# Static dielectric constant tensor:
#      x y z
#    x 2.114060 0.000000 0.040770 
#    y 0.000000 1.850230 0.000000 
#    z 0.040770 0.000000 2.010810 
# 
# From -- ./inp_files/195116.got.cif
#   From: 2010.05.17/outbox.cif.g08.bks.cpg/sg15_98_cif.got.tgz:195116.got - 2010.06.03 18:47:42.
