data_PCOD9307230
_publ_section_title
;
Structure prediction by ZEFSAII (Michael W. Deem and Ramdas Pophale) SiO2 
 PCOD9307230
Probable space group: C 2/C
;
_chemical_formula_sum "Si O2"
_cell_formula_units_Z 60
_cell_length_a 22.193650
_cell_length_b 19.498560
_cell_length_c 9.142334
_cell_angle_alpha 90.000000
_cell_angle_beta 136.920146
_cell_angle_gamma 90.000000
_cell_volume 2702.214787
_symmetry_space_group_name_H-M "C 2/C"
_symmetry_group_IT_number 15
_symmetry_cell_setting 'monoclinic'
loop_
_space_group_symop_operation_xyz
x,y,z
-x,y,1/2-z
-x,-y,-z
x,-y,1/2+z
1/2+x,1/2+y,z
1/2-x,1/2+y,1/2-z
1/2-x,1/2-y,-z
1/2+x,1/2-y,1/2+z
loop_
_atom_site_type_symbol
_atom_site_label
_atom_site_fract_x
_atom_site_fract_y
_atom_site_fract_z
Si Si1 0.789075 0.351365 0.811113
Si Si2 0.412070 0.787418 0.281506
Si Si3 0.000000 0.830912 0.750000
Si Si4 0.766574 0.038000 0.084550
Si Si5 0.310446 0.780359 0.401674
Si Si6 0.823144 0.092222 0.867043
Si Si7 0.563873 0.993126 0.248876
Si Si8 0.577593 0.864219 0.699125
O O1 0.722932 0.403647 0.772579
O O2 0.737814 0.289578 0.644272
O O3 0.852741 0.384633 0.803510
O O4 0.851429 0.317227 0.044808
O O5 0.459543 0.720285 0.300539
O O6 0.351324 0.771736 0.312742
O O7 0.485266 0.842415 0.464101
O O8 0.921615 0.877407 0.546734
O O9 0.804537 0.966798 0.214141
O O10 0.802306 0.060328 0.990645
O O11 0.659578 0.035200 0.886831
O O12 0.242399 0.843754 0.275200
O O13 0.386556 0.799078 0.650104
O O14 0.500000 0.956988 0.250000
O O15 0.579695 0.072997 0.316864
O O16 0.500000 0.000000 0.000000
#
# Coordination Sequence:
#
# PCOD9307230 Si02
#       8
#     8   8   4   8   8   8   8   8
#     4  12  23  43  71 100 134 189 240 288 349 427
#     4  12  22  43  69 105 132 182 240 294 356 420
#     4  12  26  48  80  98 136 194 254 308 350 420
#     4  12  26  45  70 104 145 192 235 290 359 440
#     4  12  24  44  71 100 142 183 232 303 361 421
#     4  12  26  49  72 103 143 190 246 296 366 426
#     4  12  24  40  63  99 139 180 217 272 347 427
#     4  12  24  39  64 102 144 175 220 290 360 421
#
# _framework density 22.204008000000002
#
# number of rings (size 3 to 8) (size 9 to 14) (size 15 to 20)
#    0.000    0.000    5.333    6.000    0.000    0.533 
#    0.000    0.000    0.000    0.000    0.000    0.000 
#    0.000    0.000    0.000    0.000    0.000    0.000 
#
# Total GULP energy -167987.343283 kJ/mol
# GULP energy per Si atom -5599.578109 kJ/mol
# Density = 2.215347 g / cm^3
# Si number density = 22.204008 Si / 1000 Ang^3
#
#
#
# Elastic Constant Matrix: (Units=GPa)
#
#
# Indices 1 2 3 4 5 6 
#
# 1 62.3321 -2.2536 -1.8095 0.0000 -1.1001 0.0000
# 2 -2.2536 97.8669 12.8042 0.0000 18.2576 0.0000
# 3 -1.8095 12.8042 68.1285 0.0000 16.0577 0.0000
# 4 0.0000 0.0000 0.0000 46.9939 0.0000 5.0878
# 5 -1.1001 18.2576 16.0577 0.0000 33.3377 0.0000
# 6 0.0000 0.0000 0.0000 5.0878 0.0000 31.5264
#
#
#
# Elastic Compliance Matrix: (Units=1/GPa)
#
#
# Indices 1 2 3 4 5 6 
#
# 1 0.016067 0.000287 0.000321 0.000000 0.000218 0.000000
# 2 0.000287 0.011420 -0.000752 0.000000 -0.005883 0.000000
# 3 0.000321 -0.000752 0.016615 0.000000 -0.007580 0.000000
# 4 0.000000 0.000000 0.000000 0.021658 0.000000 -0.003495
# 5 0.000218 -0.005883 -0.007580 0.000000 0.036876 0.000000
# 6 0.000000 0.000000 0.000000 -0.003495 0.000000 0.032283
#
#
# Mechanical properties :
#
#
# Convention : Reuss Voigt Hill
#
# Bulk Modulus (GPa) = 22.82348 27.31218 25.06783
# Shear Modulus (GPa) = 33.37534 37.01069 35.19302
#
# Velocity S-wave (km/s) = 3.88122 4.08713 3.98551
# Velocity P-wave (km/s) = 5.51239 5.88219 5.70029
#
# Compressibility (1/GPa) = 0.04381453
#
# Stress axis : x y z
#
# Youngs Moduli (GPa) = 62.24064 87.56241 60.18769
#
# Poissons Ratio (x) = -0.02515 -0.01934
# Poissons Ratio (y) = -0.01788 0.04527
# Poissons Ratio (z) = -0.02000 0.06587
#
# Static dielectric constant tensor:
#      x y z
#    x 1.839490 0.000000 -0.005110 
#    y 0.000000 1.932700 0.000000 
#    z -0.005110 0.000000 1.816410 
# 
# From -- ./inp_files/58117.got.cif
#   From: 2010.05.17/outbox.cif.g08.bks.cpg/sg15_30_cif.got.tgz:58117.got - 2010.06.03 18:47:42.
