data_PCOD9307650
_publ_section_title
;
Structure prediction by ZEFSAII (Michael W. Deem and Ramdas Pophale) SiO2 
 PCOD9307650
Probable space group: C 2/C
;
_chemical_formula_sum "Si O2"
_cell_formula_units_Z 36
_cell_length_a 8.127167
_cell_length_b 16.562085
_cell_length_c 15.573739
_cell_angle_alpha 90.000000
_cell_angle_beta 124.795523
_cell_angle_gamma 90.000000
_cell_volume 1721.443399
_symmetry_space_group_name_H-M "C 2/C"
_symmetry_group_IT_number 15
_symmetry_cell_setting 'monoclinic'
loop_
_space_group_symop_operation_xyz
x,y,z
-x,y,1/2-z
-x,-y,-z
x,-y,1/2+z
1/2+x,1/2+y,z
1/2-x,1/2+y,1/2-z
1/2-x,1/2-y,-z
1/2+x,1/2-y,1/2+z
loop_
_atom_site_type_symbol
_atom_site_label
_atom_site_fract_x
_atom_site_fract_y
_atom_site_fract_z
Si Si1 0.000000 0.425651 0.750000
Si Si2 0.798217 0.153767 0.743564
Si Si3 0.950395 0.592101 0.516002
Si Si4 0.727444 0.670681 0.293841
Si Si5 0.301855 0.454848 0.412939
O O1 0.824570 0.374800 0.741664
O O2 0.883771 0.483625 0.650413
O O3 0.638030 0.124333 0.625882
O O4 0.729699 0.235361 0.770300
O O5 0.824165 0.088900 0.828062
O O6 0.000000 0.167386 0.750000
O O7 0.880610 0.646294 0.415237
O O8 0.765949 0.599487 0.527932
O O9 0.000000 0.500000 0.500000
O O10 0.500000 0.645595 0.250000
O O11 0.500000 0.500000 0.500000
#
# Coordination Sequence:
#
# PCOD9307650 Si02
#       5
#     4   8   8   8   8
#     4  12  24  48  72 110 148 190 250 302 370 448
#     4  12  27  47  72 109 148 193 247 303 374 440
#     4  12  24  46  74 105 145 192 245 304 368 441
#     4  12  27  47  74 108 148 192 245 307 373 440
#     4  12  24  44  74 104 144 192 248 302 365 442
#
# _framework density 20.912683000000001
#
# number of rings (size 3 to 8) (size 9 to 14) (size 15 to 20)
#    0.000    0.000    5.556    4.000    0.000    8.000 
#    0.000    0.000    0.000    0.000    0.000    0.000 
#    0.000    0.000    0.000    0.000    0.000    0.000 
#
# Total GULP energy -100622.573846 kJ/mol
# GULP energy per Si atom -5590.142991 kJ/mol
# Density = 2.086509 g / cm^3
# Si number density = 20.912683 Si / 1000 Ang^3
#
#
#
# Elastic Constant Matrix: (Units=GPa)
#
#
# Indices 1 2 3 4 5 6 
#
# 1 118.8954 9.0730 2.7399 0.0000 -13.1845 0.0000
# 2 9.0730 86.3227 47.6697 0.0000 -4.1523 0.0000
# 3 2.7399 47.6697 115.2360 0.0000 -19.3884 0.0000
# 4 0.0000 0.0000 0.0000 35.4485 0.0000 -14.0930
# 5 -13.1845 -4.1523 -19.3884 0.0000 30.8346 0.0000
# 6 0.0000 0.0000 0.0000 -14.0930 0.0000 33.3248
#
#
#
# Elastic Compliance Matrix: (Units=1/GPa)
#
#
# Indices 1 2 3 4 5 6 
#
# 1 0.008966 -0.001320 0.001060 0.000000 0.004323 0.000000
# 2 -0.001320 0.015332 -0.006775 0.000000 -0.002760 0.000000
# 3 0.001060 -0.006775 0.012724 0.000000 0.007542 0.000000
# 4 0.000000 0.000000 0.000000 0.033912 0.000000 0.014341
# 5 0.004323 -0.002760 0.007542 0.000000 0.038650 0.000000
# 6 0.000000 0.000000 0.000000 0.014341 0.000000 0.036073
#
#
# Mechanical properties :
#
#
# Convention : Reuss Voigt Hill
#
# Bulk Modulus (GPa) = 43.56851 48.82439 46.19645
# Shear Modulus (GPa) = 29.87254 37.31966 33.59610
#
# Velocity S-wave (km/s) = 3.78357 4.22897 4.01246
# Velocity P-wave (km/s) = 6.32187 6.87336 6.60337
#
# Compressibility (1/GPa) = 0.02295236
#
# Stress axis : x y z
#
# Youngs Moduli (GPa) = 111.52740 65.22337 78.58987
#
# Poissons Ratio (x) = 0.08609 -0.08331
# Poissons Ratio (y) = 0.14721 0.53247
# Poissons Ratio (z) = -0.11823 0.44191
#
# Static dielectric constant tensor:
#      x y z
#    x 1.858340 0.000000 -0.020920 
#    y 0.000000 1.791720 0.000000 
#    z -0.020920 0.000000 1.823710 
# 
# From -- ./inp_files/76378.got.cif
#   From: 2010.05.17/outbox.cif.g08.bks.cpg/sg15_39_cif.got.tgz:76378.got - 2010.06.03 18:47:42.
