data_PCOD9307037
_publ_section_title
;
Structure prediction by ZEFSAII (Michael W. Deem and Ramdas Pophale) SiO2 
 PCOD9307037
Probable space group: C 2/C
;
_chemical_formula_sum "Si O2"
_cell_formula_units_Z 40
_cell_length_a 24.289754
_cell_length_b 4.967008
_cell_length_c 13.547489
_cell_angle_alpha 90.000000
_cell_angle_beta 80.037836
_cell_angle_gamma 90.000000
_cell_volume 1609.825170
_symmetry_space_group_name_H-M "C 2/C"
_symmetry_group_IT_number 15
_symmetry_cell_setting 'monoclinic'
loop_
_space_group_symop_operation_xyz
x,y,z
-x,y,1/2-z
-x,-y,-z
x,-y,1/2+z
1/2+x,1/2+y,z
1/2-x,1/2+y,1/2-z
1/2-x,1/2-y,-z
1/2+x,1/2-y,1/2+z
loop_
_atom_site_type_symbol
_atom_site_label
_atom_site_fract_x
_atom_site_fract_y
_atom_site_fract_z
Si Si1 0.733278 0.615538 0.240709
Si Si2 0.695958 0.325587 0.453917
Si Si3 0.941681 0.209779 0.818224
Si Si4 0.882084 0.315558 0.024313
Si Si5 0.611638 0.793137 0.248312
O O1 0.761396 0.356516 0.177314
O O2 0.674308 0.693513 0.210258
O O3 0.779996 0.855798 0.167718
O O4 0.750000 0.250000 0.500000
O O5 0.664300 0.596950 0.492692
O O6 0.647198 0.104315 0.473468
O O7 0.934055 0.280232 0.934758
O O8 0.895610 0.397592 0.778752
O O9 0.000000 0.282334 0.750000
O O10 0.928894 0.899268 0.800229
O O11 0.898557 0.260129 0.132137
#
# Coordination Sequence:
#
# PCOD9307037 Si02
#       5
#     8   8   8   8   8
#     4  12  21  39  64  99 136 171 216 260 327 412
#     4  12  23  40  65  99 141 180 219 273 331 410
#     4  12  28  48  71 100 133 179 239 297 344 392
#     4  12  25  45  68 100 137 180 231 277 341 410
#     4  12  25  46  72 100 140 180 228 284 341 410
#
# _framework density 24.847421000000001
#
# number of rings (size 3 to 8) (size 9 to 14) (size 15 to 20)
#    0.000    0.000    4.000    7.200    0.000    1.600 
#    0.000    0.000    0.000    0.000    0.000    0.000 
#    0.000    0.000    0.000    0.000    0.000    0.000 
#
# Total GULP energy -111931.939008 kJ/mol
# GULP energy per Si atom -5596.596950 kJ/mol
# Density = 2.479087 g / cm^3
# Si number density = 24.847421 Si / 1000 Ang^3
#
#
#
# Elastic Constant Matrix: (Units=GPa)
#
#
# Indices 1 2 3 4 5 6 
#
# 1 25.0850 14.8387 11.5987 0.0000 -27.7670 0.0000
# 2 14.8387 173.6605 0.5950 0.0000 -20.0385 0.0000
# 3 11.5987 0.5950 116.9633 0.0000 -32.1559 0.0000
# 4 0.0000 0.0000 0.0000 30.3810 0.0000 5.9834
# 5 -27.7670 -20.0385 -32.1559 0.0000 44.0438 0.0000
# 6 0.0000 0.0000 0.0000 5.9834 0.0000 31.0812
#
#
#
# Elastic Compliance Matrix: (Units=1/GPa)
#
#
# Indices 1 2 3 4 5 6 
#
# 1 0.147715 -0.000822 0.013582 0.000000 0.102667 0.000000
# 2 -0.000822 0.006161 0.000849 0.000000 0.002905 0.000000
# 3 0.013582 0.000849 0.012084 0.000000 0.017771 0.000000
# 4 0.000000 0.000000 0.000000 0.034212 0.000000 -0.006586
# 5 0.102667 0.002905 0.017771 0.000000 0.101726 0.000000
# 6 0.000000 0.000000 0.000000 -0.006586 0.000000 0.033442
#
#
# Mechanical properties :
#
#
# Convention : Reuss Voigt Hill
#
# Bulk Modulus (GPa) = 5.17660 41.08595 23.13127
# Shear Modulus (GPa) = 13.42228 40.34627 26.88427
#
# Velocity S-wave (km/s) = 2.32672 4.03396 3.29291
# Velocity P-wave (km/s) = 3.05058 6.18614 4.87721
#
# Compressibility (1/GPa) = 0.19317706
#
# Stress axis : x y z
#
# Youngs Moduli (GPa) = 6.76981 162.31618 82.75243
#
# Poissons Ratio (x) = 0.13335 -1.12391
# Poissons Ratio (y) = 0.00556 -0.07023
# Poissons Ratio (z) = -0.09195 -0.13775
#
# Static dielectric constant tensor:
#      x y z
#    x 1.989050 0.000000 -0.042870 
#    y 0.000000 2.055470 0.000000 
#    z -0.042870 0.000000 2.058880 
# 
# From -- ./inp_files/217299.got.cif
#   From: 2010.05.17/outbox.cif.g08.bks.cpg/sg15_109_cif.got.tgz:217299.got - 2010.06.03 18:47:42.
