data_PCOD9307335
_publ_section_title
;
Structure prediction by ZEFSAII (Michael W. Deem and Ramdas Pophale) SiO2 
 PCOD9307335
Probable space group: C 2/C
;
_chemical_formula_sum "Si O2"
_cell_formula_units_Z 48
_cell_length_a 19.510468
_cell_length_b 19.054359
_cell_length_c 16.004501
_cell_angle_alpha 90.000000
_cell_angle_beta 23.063780
_cell_angle_gamma 90.000000
_cell_volume 2330.876930
_symmetry_space_group_name_H-M "C 2/C"
_symmetry_group_IT_number 15
_symmetry_cell_setting 'monoclinic'
loop_
_space_group_symop_operation_xyz
x,y,z
-x,y,1/2-z
-x,-y,-z
x,-y,1/2+z
1/2+x,1/2+y,z
1/2-x,1/2+y,1/2-z
1/2-x,1/2-y,-z
1/2+x,1/2-y,1/2+z
loop_
_atom_site_type_symbol
_atom_site_label
_atom_site_fract_x
_atom_site_fract_y
_atom_site_fract_z
Si Si1 0.926281 0.156789 0.547595
Si Si2 0.454125 0.521867 0.399117
Si Si3 0.230070 0.420972 0.415257
Si Si4 0.792078 0.310644 0.717624
Si Si5 0.701234 0.677078 0.514497
Si Si6 0.087272 0.443472 0.845170
O O1 0.913767 0.095304 0.492052
O O2 0.817352 0.131974 0.750598
O O3 0.860959 0.236695 0.605874
O O4 0.128429 0.163923 0.347410
O O5 0.500000 0.532550 0.250000
O O6 0.629183 0.484380 0.238739
O O7 0.286355 0.469207 0.600645
O O8 0.214616 0.382129 0.521276
O O9 0.042509 0.439245 0.587763
O O10 0.926652 0.373914 0.580671
O O11 0.735874 0.309164 0.878398
O O12 0.500000 0.660583 0.750000
O O13 0.750000 0.750000 0.500000
O O14 0.000000 0.500000 0.000000
#
# Coordination Sequence:
#
# PCOD9307335 Si02
#       6
#     8   8   8   8   8   8
#     4  12  24  44  71  99 143 188 233 294 355 432
#     4  12  27  50  70 102 143 189 244 299 353 414
#     4  12  23  43  71 105 143 186 233 287 367 433
#     4  12  24  42  66 104 140 184 231 287 359 429
#     4  12  23  37  60 102 145 175 214 281 355 429
#     4  12  25  43  76 105 138 185 241 289 352 435
#
# _framework density 20.593108000000001
#
# number of rings (size 3 to 8) (size 9 to 14) (size 15 to 20)
#    0.000    0.000    6.667    4.000    2.333    2.000 
#    0.000    0.833    0.000    0.000    0.000    0.000 
#    0.000    0.000    0.000    0.000    0.000    0.000 
#
# Total GULP energy -133968.361500 kJ/mol
# GULP energy per Si atom -5582.015062 kJ/mol
# Density = 2.054624 g / cm^3
# Si number density = 20.593108 Si / 1000 Ang^3
#
#
#
# Elastic Constant Matrix: (Units=GPa)
#
#
# Indices 1 2 3 4 5 6 
#
# 1 78.4215 58.8813 40.6382 0.0020 -24.9429 0.0012
# 2 58.8813 149.9284 56.7036 0.0007 -9.1039 0.0002
# 3 40.6382 56.7036 94.8976 0.0085 -18.1729 -0.0013
# 4 0.0020 0.0007 0.0085 40.3385 -0.0064 -1.4880
# 5 -24.9429 -9.1039 -18.1729 -0.0064 38.7873 0.0060
# 6 0.0012 0.0002 -0.0013 -1.4880 0.0060 57.6101
#
#
#
# Elastic Compliance Matrix: (Units=1/GPa)
#
#
# Indices 1 2 3 4 5 6 
#
# 1 0.023901 -0.007307 -0.003575 0.000002 0.011980 -0.000002
# 2 -0.007307 0.010858 -0.004142 0.000000 -0.004091 0.000000
# 3 -0.003575 -0.004142 0.015289 -0.000002 0.003892 0.000000
# 4 0.000002 0.000000 -0.000002 0.024814 0.000004 0.000641
# 5 0.011980 -0.004091 0.003892 0.000004 0.034349 -0.000004
# 6 -0.000002 0.000000 0.000000 0.000641 -0.000004 0.017375
#
#
# Mechanical properties :
#
#
# Convention : Reuss Voigt Hill
#
# Bulk Modulus (GPa) = 50.00134 70.63266 60.31700
# Shear Modulus (GPa) = 30.61866 38.48213 34.55039
#
# Velocity S-wave (km/s) = 3.86014 4.32752 4.10050
# Velocity P-wave (km/s) = 6.64838 7.70348 7.19529
#
# Compressibility (1/GPa) = 0.01999946
#
# Stress axis : x y z
#
# Youngs Moduli (GPa) = 41.83957 92.10064 65.40722
#
# Poissons Ratio (x) = 0.67299 0.23382
# Poissons Ratio (y) = 0.30573 0.27092
# Poissons Ratio (z) = 0.14957 0.38148
#
# Static dielectric constant tensor:
#      x y z
#    x 1.725820 0.000000 -0.011070 
#    y 0.000000 1.693150 0.000000 
#    z -0.011070 0.000000 1.776110 
# 
# From -- ./inp_files/216241.got.cif
#   From: 2010.05.17/outbox.cif.g08.bks.cpg/sg15_109_cif.got.tgz:216241.got - 2010.06.03 18:47:42.
