data_PCOD9307254
_publ_section_title
;
Structure prediction by ZEFSAII (Michael W. Deem and Ramdas Pophale) SiO2 
 PCOD9307254
Probable space group: C 2/C
;
_chemical_formula_sum "Si O2"
_cell_formula_units_Z 44
_cell_length_a 13.517382
_cell_length_b 5.249188
_cell_length_c 29.116333
_cell_angle_alpha 90.000000
_cell_angle_beta 67.709599
_cell_angle_gamma 90.000000
_cell_volume 1911.575306
_symmetry_space_group_name_H-M "C 2/C"
_symmetry_group_IT_number 15
_symmetry_cell_setting 'monoclinic'
loop_
_space_group_symop_operation_xyz
x,y,z
-x,y,1/2-z
-x,-y,-z
x,-y,1/2+z
1/2+x,1/2+y,z
1/2-x,1/2+y,1/2-z
1/2-x,1/2-y,-z
1/2+x,1/2-y,1/2+z
loop_
_atom_site_type_symbol
_atom_site_label
_atom_site_fract_x
_atom_site_fract_y
_atom_site_fract_z
Si Si1 0.432263 0.286043 0.896547
Si Si2 0.702067 0.245557 0.088444
Si Si3 0.184171 0.746257 0.193346
Si Si4 0.500000 0.974684 0.250000
Si Si5 0.389562 0.411782 0.708063
Si Si6 0.448944 0.250266 0.531381
O O1 0.362355 0.528499 0.924597
O O2 0.501825 0.394297 0.840862
O O3 0.518116 0.231813 0.920966
O O4 0.358985 0.030509 0.902447
O O5 0.714742 0.357652 0.138738
O O6 0.821622 0.227597 0.048738
O O7 0.071869 0.614987 0.200578
O O8 0.290126 0.602701 0.191346
O O9 0.142976 0.885335 0.247117
O O10 0.590133 0.825793 0.261952
O O11 0.500000 0.500000 0.500000
O O12 0.500000 0.000000 0.500000
#
# Coordination Sequence:
#
# PCOD9307254 Si02
#       6
#     8   8   8   4   8   8
#     4  12  27  49  78 109 151 198 248 304 379 449
#     4  12  27  49  78 109 151 198 248 304 379 449
#     4  12  25  43  70 104 147 198 243 298 358 441
#     4  12  22  44  64 100 144 184 246 284 358 418
#     4  12  25  43  70 104 147 198 243 298 358 441
#     4  12  28  52  80 114 148 188 254 324 378 444
#
# _framework density 23.017664
#
# number of rings (size 3 to 8) (size 9 to 14) (size 15 to 20)
#    0.000    0.000    5.455    4.909    0.000    4.364 
#    3.273    0.000    0.000    0.000    0.000    0.000 
#    0.000    0.000    0.000    0.000    0.000    0.000 
#
# Total GULP energy -122581.986577 kJ/mol
# GULP energy per Si atom -5571.908481 kJ/mol
# Density = 2.296527 g / cm^3
# Si number density = 23.017664 Si / 1000 Ang^3
#
#
#
# Elastic Constant Matrix: (Units=GPa)
#
#
# Indices 1 2 3 4 5 6 
#
# 1 112.7067 44.1336 23.7889 0.0001 -42.3043 0.0008
# 2 44.1336 123.4146 39.2586 0.0022 -32.4310 0.0024
# 3 23.7889 39.2586 93.6775 -0.0006 -27.8653 -0.0003
# 4 0.0001 0.0022 -0.0006 29.9963 0.0004 -2.3947
# 5 -42.3043 -32.4310 -27.8653 0.0004 55.1746 0.0004
# 6 0.0008 0.0024 -0.0003 -2.3947 0.0004 37.7285
#
#
#
# Elastic Compliance Matrix: (Units=1/GPa)
#
#
# Indices 1 2 3 4 5 6 
#
# 1 0.013043 -0.002477 0.000315 0.000000 0.008703 0.000000
# 2 -0.002477 0.010698 -0.002999 -0.000001 0.002874 -0.000001
# 3 0.000315 -0.002999 0.013415 0.000000 0.005253 0.000000
# 4 0.000000 -0.000001 0.000000 0.033507 -0.000001 0.002127
# 5 0.008703 0.002874 0.005253 -0.000001 0.029140 -0.000001
# 6 0.000000 -0.000001 0.000000 0.002127 -0.000001 0.026640
#
#
# Mechanical properties :
#
#
# Convention : Reuss Voigt Hill
#
# Bulk Modulus (GPa) = 37.26891 60.46237 48.86564
# Shear Modulus (GPa) = 34.31464 39.42105 36.86784
#
# Velocity S-wave (km/s) = 3.86527 4.14290 4.00649
# Velocity P-wave (km/s) = 6.01224 7.01496 6.53287
#
# Compressibility (1/GPa) = 0.02683202
#
# Stress axis : x y z
#
# Youngs Moduli (GPa) = 76.66952 93.47555 74.54572
#
# Poissons Ratio (x) = 0.23157 -0.02348
# Poissons Ratio (y) = 0.18993 0.22359
# Poissons Ratio (z) = -0.02414 0.28037
#
# Static dielectric constant tensor:
#      x y z
#    x 1.828980 0.000000 0.034170 
#    y 0.000000 1.986650 0.000000 
#    z 0.034170 0.000000 1.889890 
# 
# From -- ./inp_files/312025.got.cif
#   From: 2010.05.17/outbox.cif.g08.bks.cpg/sg15_157_cif.got.tgz:312025.got - 2010.06.03 18:47:42.
