data_PCOD9307850
_publ_section_title
;
Structure prediction by ZEFSAII (Michael W. Deem and Ramdas Pophale) SiO2 
 PCOD9307850
Probable space group: C 2/C
;
_chemical_formula_sum "Si O2"
_cell_formula_units_Z 32
_cell_length_a 11.671522
_cell_length_b 15.931996
_cell_length_c 8.665048
_cell_angle_alpha 90.000000
_cell_angle_beta 79.251321
_cell_angle_gamma 90.000000
_cell_volume 1583.000996
_symmetry_space_group_name_H-M "C 2/C"
_symmetry_group_IT_number 15
_symmetry_cell_setting 'monoclinic'
loop_
_space_group_symop_operation_xyz
x,y,z
-x,y,1/2-z
-x,-y,-z
x,-y,1/2+z
1/2+x,1/2+y,z
1/2-x,1/2+y,1/2-z
1/2-x,1/2-y,-z
1/2+x,1/2-y,1/2+z
loop_
_atom_site_type_symbol
_atom_site_label
_atom_site_fract_x
_atom_site_fract_y
_atom_site_fract_z
Si Si1 0.969652 0.410344 0.077559
Si Si2 0.765658 0.340111 0.925812
Si Si3 0.987079 0.906628 0.435952
Si Si4 0.138306 0.264981 0.920597
O O1 0.000000 0.418995 0.250000
O O2 0.845104 0.390443 0.028982
O O3 0.000000 0.500000 0.000000
O O4 0.046863 0.330528 0.011758
O O5 0.822650 0.314726 0.746409
O O6 0.750000 0.250000 0.000000
O O7 0.637296 0.379387 0.960668
O O8 0.000000 0.918786 0.250000
O O9 0.075050 0.826443 0.432800
O O10 0.000000 0.000000 0.500000
O O11 0.250000 0.250000 0.000000
#
# Coordination Sequence:
#
# PCOD9307850 Si02
#       4
#     8   8   8   8
#     4  12  27  46  75 108 142 191 246 301 371 441
#     4  12  24  50  74  98 152 192 241 308 362 434
#     4  12  29  47  74 110 150 193 246 304 372 439
#     4  12  27  47  74 108 148 197 245 300 370 440
#
# _framework density 20.214769
#
# number of rings (size 3 to 8) (size 9 to 14) (size 15 to 20)
#    0.000    0.000    5.000    3.750    7.000    0.000 
#    0.000    0.000    0.000    0.000    0.000    0.000 
#    0.000    0.000    0.000    0.000    0.000    0.000 
#
# Total GULP energy -89075.945890 kJ/mol
# GULP energy per Si atom -5567.246618 kJ/mol
# Density = 2.016876 g / cm^3
# Si number density = 20.214769 Si / 1000 Ang^3
#
#
#
# Elastic Constant Matrix: (Units=GPa)
#
#
# Indices 1 2 3 4 5 6 
#
# 1 143.9442 82.7939 54.4498 0.0000 12.1601 0.0000
# 2 82.7939 214.7925 65.4289 0.0000 6.0920 0.0000
# 3 54.4498 65.4289 153.8190 0.0000 7.3700 0.0000
# 4 0.0000 0.0000 0.0000 41.5254 0.0000 -0.7643
# 5 12.1601 6.0920 7.3700 0.0000 26.7584 0.0000
# 6 0.0000 0.0000 0.0000 -0.7643 0.0000 42.4893
#
#
#
# Elastic Compliance Matrix: (Units=1/GPa)
#
#
# Indices 1 2 3 4 5 6 
#
# 1 0.009724 -0.003051 -0.001992 0.000000 -0.003176 0.000000
# 2 -0.003051 0.006316 -0.001625 0.000000 0.000396 0.000000
# 3 -0.001992 -0.001625 0.007941 0.000000 -0.000912 0.000000
# 4 0.000000 0.000000 0.000000 0.024090 0.000000 0.000433
# 5 -0.003176 0.000396 -0.000912 0.000000 0.038975 0.000000
# 6 0.000000 0.000000 0.000000 0.000433 0.000000 0.023543
#
#
# Mechanical properties :
#
#
# Convention : Reuss Voigt Hill
#
# Bulk Modulus (GPa) = 93.95335 101.98899 97.97117
# Shear Modulus (GPa) = 39.22348 42.81350 41.01849
#
# Velocity S-wave (km/s) = 4.40971 4.60709 4.50948
# Velocity P-wave (km/s) = 8.51503 8.88046 8.69967
#
# Compressibility (1/GPa) = 0.01064358
#
# Stress axis : x y z
#
# Youngs Moduli (GPa) = 102.83808 158.33628 125.92295
#
# Poissons Ratio (x) = 0.48314 0.25085
# Poissons Ratio (y) = 0.31379 0.20466
# Poissons Ratio (z) = 0.20486 0.25735
#
# Static dielectric constant tensor:
#      x y z
#    x 1.644410 0.000000 -0.100360 
#    y 0.000000 1.585660 0.000000 
#    z -0.100360 0.000000 1.449790 
# 
# From -- ./inp_files/27595.got.cif
#   From: 2010.05.17/outbox.cif.g08.bks.cpg/sg15_14_cif.got.tgz:27595.got - 2010.06.03 18:47:42.
