data_PCOD9307486
_publ_section_title
;
Structure prediction by ZEFSAII (Michael W. Deem and Ramdas Pophale) SiO2 
 PCOD9307486
Probable space group: C 2/C
;
_chemical_formula_sum "Si O2"
_cell_formula_units_Z 32
_cell_length_a 16.955950
_cell_length_b 12.959401
_cell_length_c 11.601655
_cell_angle_alpha 90.000000
_cell_angle_beta 150.938054
_cell_angle_gamma 90.000000
_cell_volume 1238.352342
_symmetry_space_group_name_H-M "C 2/C"
_symmetry_group_IT_number 15
_symmetry_cell_setting 'monoclinic'
loop_
_space_group_symop_operation_xyz
x,y,z
-x,y,1/2-z
-x,-y,-z
x,-y,1/2+z
1/2+x,1/2+y,z
1/2-x,1/2+y,1/2-z
1/2-x,1/2-y,-z
1/2+x,1/2-y,1/2+z
loop_
_atom_site_type_symbol
_atom_site_label
_atom_site_fract_x
_atom_site_fract_y
_atom_site_fract_z
Si Si1 0.000000 0.921808 0.750000
Si Si2 0.255015 0.726922 0.642881
Si Si3 0.346279 0.052327 0.736916
Si Si4 0.105702 0.204507 0.166510
Si Si5 0.500000 0.073527 0.250000
O O1 0.093639 0.856909 0.770583
O O2 0.845382 0.972255 0.485645
O O3 0.250000 0.750000 0.500000
O O4 0.229559 0.807896 0.716026
O O5 0.105988 0.647947 0.466108
O O6 0.430882 0.682204 0.888034
O O7 0.371880 0.175185 0.770826
O O8 0.372674 0.999485 0.647519
O O9 0.500000 0.000000 0.000000
#
# Coordination Sequence:
#
# PCOD9307486 Si02
#       5
#     4   8   8   8   4
#     4  12  27  48  73 116 142 206 254 300 379 458
#     4  12  23  46  73 107 143 199 253 303 368 449
#     4  12  25  49  71 108 153 189 241 318 376 440
#     4  12  24  46  76 103 148 196 256 304 367 452
#     4  12  25  46  69 104 148 192 244 310 375 428
#
# _framework density 25.840786000000001
#
# number of rings (size 3 to 8) (size 9 to 14) (size 15 to 20)
#    0.000    0.000    7.500    1.500    3.500    0.000 
#    9.000    2.500    0.000    0.000    0.000    0.000 
#    0.000    0.000    0.000    0.000    0.000    0.000 
#
# Total GULP energy -89202.769143 kJ/mol
# GULP energy per Si atom -5575.173071 kJ/mol
# Density = 2.578197 g / cm^3
# Si number density = 25.840786 Si / 1000 Ang^3
#
#
#
# Elastic Constant Matrix: (Units=GPa)
#
#
# Indices 1 2 3 4 5 6 
#
# 1 177.4399 29.5917 12.2402 0.0000 -8.5669 0.0000
# 2 29.5917 77.6015 22.7191 0.0000 -0.7395 0.0000
# 3 12.2402 22.7191 176.2398 0.0000 19.6459 0.0000
# 4 0.0000 0.0000 0.0000 12.7567 0.0000 -2.6606
# 5 -8.5669 -0.7395 19.6459 0.0000 55.9627 0.0000
# 6 0.0000 0.0000 0.0000 -2.6606 0.0000 7.9853
#
#
#
# Elastic Compliance Matrix: (Units=1/GPa)
#
#
# Indices 1 2 3 4 5 6 
#
# 1 0.006073 -0.002235 -0.000244 0.000000 0.000986 0.000000
# 2 -0.002235 0.014250 -0.001732 0.000000 0.000454 0.000000
# 3 -0.000244 -0.001732 0.006162 0.000000 -0.002223 0.000000
# 4 0.000000 0.000000 0.000000 0.084244 0.000000 0.028069
# 5 0.000986 0.000454 -0.002223 0.000000 0.018806 0.000000
# 6 0.000000 0.000000 0.000000 0.028069 0.000000 0.134582
#
#
# Mechanical properties :
#
#
# Convention : Reuss Voigt Hill
#
# Bulk Modulus (GPa) = 55.36116 62.26479 58.81298
# Shear Modulus (GPa) = 17.94944 39.78964 28.86954
#
# Velocity S-wave (km/s) = 2.63842 3.92829 3.34609
# Velocity P-wave (km/s) = 5.54546 6.68753 6.14309
#
# Compressibility (1/GPa) = 0.01806320
#
# Stress axis : x y z
#
# Youngs Moduli (GPa) = 164.66765 70.17467 162.28035
#
# Poissons Ratio (x) = 0.15684 0.03952
# Poissons Ratio (y) = 0.36804 0.28114
# Poissons Ratio (z) = 0.04010 0.12157
#
# Static dielectric constant tensor:
#      x y z
#    x 2.327580 0.000000 0.009240 
#    y 0.000000 2.083360 0.000000 
#    z 0.009240 0.000000 2.850860 
# 
# From -- ./inp_files/28060.got.cif
#   From: 2010.05.17/outbox.cif.g08.bks.cpg/sg15_15_cif.got.tgz:28060.got - 2010.06.03 18:47:42.
