data_PCOD9307359
_publ_section_title
;
Structure prediction by ZEFSAII (Michael W. Deem and Ramdas Pophale) SiO2 
 PCOD9307359
Probable space group: C 2/C
;
_chemical_formula_sum "Si O2"
_cell_formula_units_Z 36
_cell_length_a 9.831246
_cell_length_b 19.242824
_cell_length_c 9.285911
_cell_angle_alpha 90.000000
_cell_angle_beta 85.622551
_cell_angle_gamma 90.000000
_cell_volume 1751.592768
_symmetry_space_group_name_H-M "C 2/C"
_symmetry_group_IT_number 15
_symmetry_cell_setting 'monoclinic'
loop_
_space_group_symop_operation_xyz
x,y,z
-x,y,1/2-z
-x,-y,-z
x,-y,1/2+z
1/2+x,1/2+y,z
1/2-x,1/2+y,1/2-z
1/2-x,1/2-y,-z
1/2+x,1/2-y,1/2+z
loop_
_atom_site_type_symbol
_atom_site_label
_atom_site_fract_x
_atom_site_fract_y
_atom_site_fract_z
Si Si1 0.846661 0.062601 0.794854
Si Si2 0.000000 0.861190 0.750000
Si Si3 0.222132 0.829691 0.969726
Si Si4 0.991194 0.573161 0.415836
Si Si5 0.775850 0.072084 0.470761
O O1 0.782228 0.068616 0.642408
O O2 0.000000 0.039143 0.750000
O O3 0.776576 0.004579 0.899503
O O4 0.847777 0.132809 0.887132
O O5 0.877352 0.830680 0.661103
O O6 0.909336 0.896726 0.883849
O O7 0.361400 0.875670 0.941512
O O8 0.250000 0.750000 0.000000
O O9 0.000000 0.552877 0.250000
O O10 0.000000 0.500000 0.500000
O O11 0.134850 0.609946 0.442764
#
# Coordination Sequence:
#
# PCOD9307359 Si02
#       5
#     8   4   8   8   8
#     4  12  23  41  71 108 144 182 242 300 365 435
#     4  12  24  50  72 100 146 192 236 302 360 442
#     4  12  29  49  71 102 149 196 244 296 368 447
#     4  12  25  44  72 109 143 183 242 309 361 421
#     4  12  23  40  75 108 139 185 239 305 363 420
#
# _framework density 20.552721999999999
#
# number of rings (size 3 to 8) (size 9 to 14) (size 15 to 20)
#    0.000    0.000    7.778    3.333    0.000    2.667 
#    0.000    2.222    0.000    0.000    0.000    0.000 
#    0.000    0.000    0.000    0.000    0.000    0.000 
#
# Total GULP energy -100338.189653 kJ/mol
# GULP energy per Si atom -5574.343870 kJ/mol
# Density = 2.050594 g / cm^3
# Si number density = 20.552722 Si / 1000 Ang^3
#
#
#
# Elastic Constant Matrix: (Units=GPa)
#
#
# Indices 1 2 3 4 5 6 
#
# 1 155.8324 58.5142 36.2825 0.0000 17.1496 0.0000
# 2 58.5142 106.3606 59.4626 0.0000 4.2839 0.0000
# 3 36.2825 59.4626 175.2240 0.0000 33.0478 0.0000
# 4 0.0000 0.0000 0.0000 15.6396 0.0000 1.5859
# 5 17.1496 4.2839 33.0478 0.0000 46.0496 0.0000
# 6 0.0000 0.0000 0.0000 1.5859 0.0000 13.6558
#
#
#
# Elastic Compliance Matrix: (Units=1/GPa)
#
#
# Indices 1 2 3 4 5 6 
#
# 1 0.008436 -0.004765 0.000438 0.000000 -0.003013 0.000000
# 2 -0.004765 0.014459 -0.004628 0.000000 0.003750 0.000000
# 3 0.000438 -0.004628 0.008253 0.000000 -0.005656 0.000000
# 4 0.000000 0.000000 0.000000 0.064702 0.000000 -0.007514
# 5 -0.003013 0.003750 -0.005656 0.000000 0.026548 0.000000
# 6 0.000000 0.000000 0.000000 -0.007514 0.000000 0.074102
#
#
# Mechanical properties :
#
#
# Convention : Reuss Voigt Hill
#
# Bulk Modulus (GPa) = 75.52430 82.88174 79.20302
# Shear Modulus (GPa) = 22.84971 33.94618 28.39795
#
# Velocity S-wave (km/s) = 3.33793 4.06848 3.72117
# Velocity P-wave (km/s) = 7.18902 7.90468 7.55533
#
# Compressibility (1/GPa) = 0.01324077
#
# Stress axis : x y z
#
# Youngs Moduli (GPa) = 118.54282 69.15962 121.16433
#
# Poissons Ratio (x) = 0.32952 -0.05312
# Poissons Ratio (y) = 0.56482 0.56069
# Poissons Ratio (z) = -0.05197 0.32004
#
# Static dielectric constant tensor:
#      x y z
#    x 1.856630 0.000000 -0.013350 
#    y 0.000000 1.736860 0.000000 
#    z -0.013350 0.000000 1.756610 
# 
# From -- ./inp_files/22550.got.cif
#   From: 2010.05.17/outbox.cif.g08.bks.cpg/sg15_12_cif.got.tgz:22550.got - 2010.06.03 18:47:42.
