data_PCOD9307088
_publ_section_title
;
Structure prediction by ZEFSAII (Michael W. Deem and Ramdas Pophale) SiO2 
 PCOD9307088
Probable space group: C 2/C
;
_chemical_formula_sum "Si O2"
_cell_formula_units_Z 48
_cell_length_a 9.063453
_cell_length_b 11.764756
_cell_length_c 23.799486
_cell_angle_alpha 90.000000
_cell_angle_beta 81.363750
_cell_angle_gamma 90.000000
_cell_volume 2508.949063
_symmetry_space_group_name_H-M "C 2/C"
_symmetry_group_IT_number 15
_symmetry_cell_setting 'monoclinic'
loop_
_space_group_symop_operation_xyz
x,y,z
-x,y,1/2-z
-x,-y,-z
x,-y,1/2+z
1/2+x,1/2+y,z
1/2-x,1/2+y,1/2-z
1/2-x,1/2-y,-z
1/2+x,1/2-y,1/2+z
loop_
_atom_site_type_symbol
_atom_site_label
_atom_site_fract_x
_atom_site_fract_y
_atom_site_fract_z
Si Si1 0.092699 0.071443 0.949238
Si Si2 0.423468 0.984489 0.443809
Si Si3 0.860586 0.257277 0.940031
Si Si4 0.445258 0.425004 0.661011
Si Si5 0.859126 0.328923 0.141004
Si Si6 0.342685 0.538609 0.771129
O O1 0.263995 0.077166 0.957698
O O2 0.011667 0.191499 0.946258
O O3 0.080690 0.001077 0.892054
O O4 0.000000 0.000000 0.000000
O O5 0.528724 0.913489 0.396702
O O6 0.500000 0.000000 0.500000
O O7 0.389890 0.111817 0.424430
O O8 0.778296 0.195122 0.893514
O O9 0.750000 0.250000 0.000000
O O10 0.432156 0.293021 0.648415
O O11 0.326960 0.464175 0.715853
O O12 0.603324 0.456677 0.681097
O O13 0.791342 0.385111 0.200811
O O14 0.500000 0.605570 0.750000
#
# Coordination Sequence:
#
# PCOD9307088 Si02
#       6
#     8   8   8   8   8   8
#     4  12  22  42  69  93 133 176 213 271 338 387
#     4  12  27  39  63 106 130 174 222 263 337 396
#     4  12  22  43  66  92 138 175 214 270 324 397
#     4   9  21  43  66  94 127 170 216 264 334 372
#     4  12  21  45  68  92 136 166 222 275 313 403
#     4   8  21  44  65  93 126 172 216 266 326 383
#
# _framework density 19.131516999999999
#
# number of rings (size 3 to 8) (size 9 to 14) (size 15 to 20)
#    1.000    0.000    6.667    0.000    0.000    2.000 
#   12.000    0.000    0.000    0.000    0.000    0.000 
#    0.000    0.000    0.000    0.000    0.000    0.000 
#
# Total GULP energy -133897.161011 kJ/mol
# GULP energy per Si atom -5579.048375 kJ/mol
# Density = 1.908797 g / cm^3
# Si number density = 19.131517 Si / 1000 Ang^3
#
#
#
# Elastic Constant Matrix: (Units=GPa)
#
#
# Indices 1 2 3 4 5 6 
#
# 1 96.8251 41.6064 23.8429 0.0000 -10.2319 0.0000
# 2 41.6064 99.7677 26.3837 0.0000 -17.1479 0.0000
# 3 23.8429 26.3837 99.7754 0.0000 -2.7024 0.0000
# 4 0.0000 0.0000 0.0000 31.1586 0.0000 -7.7258
# 5 -10.2319 -17.1479 -2.7024 0.0000 27.5654 0.0000
# 6 0.0000 0.0000 0.0000 -7.7258 0.0000 33.9395
#
#
#
# Elastic Compliance Matrix: (Units=1/GPa)
#
#
# Indices 1 2 3 4 5 6 
#
# 1 0.012946 -0.004614 -0.001826 0.000000 0.001756 0.000000
# 2 -0.004614 0.013697 -0.002341 0.000000 0.006579 0.000000
# 3 -0.001826 -0.002341 0.011049 0.000000 -0.001051 0.000000
# 4 0.000000 0.000000 0.000000 0.034014 0.000000 0.007743
# 5 0.001756 0.006579 -0.001051 0.000000 0.040919 0.000000
# 6 0.000000 0.000000 0.000000 0.007743 0.000000 0.031227
#
#
# Mechanical properties :
#
#
# Convention : Reuss Voigt Hill
#
# Bulk Modulus (GPa) = 49.67681 53.33714 51.50698
# Shear Modulus (GPa) = 29.73989 32.16837 30.95413
#
# Velocity S-wave (km/s) = 3.94699 4.10498 4.02676
# Velocity P-wave (km/s) = 6.84061 7.09982 6.97142
#
# Compressibility (1/GPa) = 0.02013012
#
# Stress axis : x y z
#
# Youngs Moduli (GPa) = 77.24500 73.00645 90.50208
#
# Poissons Ratio (x) = 0.33686 0.16525
# Poissons Ratio (y) = 0.35642 0.21188
# Poissons Ratio (z) = 0.14104 0.17092
#
# Static dielectric constant tensor:
#      x y z
#    x 1.686730 0.000000 0.023090 
#    y 0.000000 1.651830 0.000000 
#    z 0.023090 0.000000 1.681260 
# 
# From -- ./inp_files/287343.got.cif
#   From: 2010.05.17/outbox.cif.g08.bks.cpg/sg15_144_cif.got.tgz:287343.got - 2010.06.03 18:47:42.
