data_PCOD9307155
_publ_section_title
;
Structure prediction by ZEFSAII (Michael W. Deem and Ramdas Pophale) SiO2 
 PCOD9307155
Probable space group: C 2/C
;
_chemical_formula_sum "Si O2"
_cell_formula_units_Z 64
_cell_length_a 16.838798
_cell_length_b 19.628506
_cell_length_c 8.415005
_cell_angle_alpha 90.000000
_cell_angle_beta 100.313519
_cell_angle_gamma 90.000000
_cell_volume 2736.392755
_symmetry_space_group_name_H-M "C 2/C"
_symmetry_group_IT_number 15
_symmetry_cell_setting 'monoclinic'
loop_
_space_group_symop_operation_xyz
x,y,z
-x,y,1/2-z
-x,-y,-z
x,-y,1/2+z
1/2+x,1/2+y,z
1/2-x,1/2+y,1/2-z
1/2-x,1/2-y,-z
1/2+x,1/2-y,1/2+z
loop_
_atom_site_type_symbol
_atom_site_label
_atom_site_fract_x
_atom_site_fract_y
_atom_site_fract_z
Si Si1 0.664781 0.591763 0.512874
Si Si2 0.313108 0.444910 0.106000
Si Si3 0.411183 0.811229 0.651137
Si Si4 0.172495 0.203009 0.029279
Si Si5 0.907449 0.219705 0.161118
Si Si6 0.168195 0.345033 0.564688
Si Si7 0.366926 0.930106 0.437389
Si Si8 0.076715 0.546092 0.870305
O O1 0.649119 0.518116 0.424681
O O2 0.672924 0.576529 0.704592
O O3 0.599413 0.649420 0.441853
O O4 0.747493 0.627171 0.473862
O O5 0.218557 0.455212 0.032597
O O6 0.328119 0.376965 0.008911
O O7 0.500000 0.825228 0.750000
O O8 0.400944 0.733489 0.601040
O O9 0.341662 0.829222 0.754002
O O10 0.388212 0.853197 0.484421
O O11 0.149499 0.213447 0.204146
O O12 0.250000 0.250000 0.000000
O O13 0.000000 0.232623 0.250000
O O14 0.868384 0.280954 0.044054
O O15 0.105740 0.406383 0.518471
O O16 0.361863 0.949080 0.252640
O O17 0.432039 0.971785 0.562290
O O18 0.000000 0.572648 0.750000
#
# Coordination Sequence:
#
# PCOD9307155 Si02
#       8
#     8   8   8   8   8   8   8   8
#     4  12  26  46  73 103 136 181 236 289 347 417
#     4  12  24  45  71 102 133 178 238 291 340 413
#     4  12  25  41  65 100 138 180 228 284 347 417
#     4  12  24  45  74 100 138 183 233 284 347 413
#     4  12  27  49  73 106 143 183 231 294 355 413
#     4  12  23  42  69 100 141 180 231 280 344 420
#     4  12  22  40  59  92 139 176 231 284 341 412
#     4  12  23  37  59  93 136 185 225 277 348 419
#
# _framework density 23.388456999999999
#
# number of rings (size 3 to 8) (size 9 to 14) (size 15 to 20)
#    0.000    0.000    3.750    7.500    1.750    0.000 
#    0.000    3.125    0.000    0.000    0.000    0.000 
#    0.000    0.000    0.000    0.000    0.000    0.000 
#
# Total GULP energy -178819.573958 kJ/mol
# GULP energy per Si atom -5588.111686 kJ/mol
# Density = 2.333522 g / cm^3
# Si number density = 23.388457 Si / 1000 Ang^3
#
#
#
# Elastic Constant Matrix: (Units=GPa)
#
#
# Indices 1 2 3 4 5 6 
#
# 1 32.1536 21.5560 20.7062 0.0000 -2.5572 0.0000
# 2 21.5560 153.7843 40.1888 0.0000 -2.4928 0.0000
# 3 20.7062 40.1888 109.7310 0.0000 -1.9500 0.0000
# 4 0.0000 0.0000 0.0000 53.2583 0.0000 13.9676
# 5 -2.5572 -2.4928 -1.9500 0.0000 29.3208 0.0000
# 6 0.0000 0.0000 0.0000 13.9676 0.0000 7.7762
#
#
#
# Elastic Compliance Matrix: (Units=1/GPa)
#
#
# Indices 1 2 3 4 5 6 
#
# 1 0.037447 -0.003730 -0.005655 0.000000 0.002573 0.000000
# 2 -0.003730 0.007568 -0.002065 0.000000 0.000181 0.000000
# 3 -0.005655 -0.002065 0.010937 0.000000 0.000059 0.000000
# 4 0.000000 0.000000 0.000000 0.035499 0.000000 -0.063764
# 5 0.002573 0.000181 0.000059 0.000000 0.034349 0.000000
# 6 0.000000 0.000000 0.000000 -0.063764 0.000000 0.243130
#
#
# Mechanical properties :
#
#
# Convention : Reuss Voigt Hill
#
# Bulk Modulus (GPa) = 30.25289 51.17454 40.71372
# Shear Modulus (GPa) = 12.41166 32.28556 22.34861
#
# Velocity S-wave (km/s) = 2.30614 3.71941 3.09453
# Velocity P-wave (km/s) = 4.47818 6.35398 5.49669
#
# Compressibility (1/GPa) = 0.03305469
#
# Stress axis : x y z
#
# Youngs Moduli (GPa) = 26.70433 132.13691 91.42884
#
# Poissons Ratio (x) = 0.49281 0.51699
# Poissons Ratio (y) = 0.09960 0.18878
# Poissons Ratio (z) = 0.15100 0.27283
#
# Static dielectric constant tensor:
#      x y z
#    x 2.039140 0.000000 -0.102200 
#    y 0.000000 1.892340 0.000000 
#    z -0.102200 0.000000 1.915450 
# 
# From -- ./inp_files/50259.got.cif
#   From: 2010.05.17/outbox.cif.g08.bks.cpg/sg15_26_cif.got.tgz:50259.got - 2010.06.03 18:47:42.
