data_PCOD9307457
_publ_section_title
;
Structure prediction by ZEFSAII (Michael W. Deem and Ramdas Pophale) SiO2 
 PCOD9307457
Probable space group: C 2/C
;
_chemical_formula_sum "Si O2"
_cell_formula_units_Z 36
_cell_length_a 12.322763
_cell_length_b 15.917848
_cell_length_c 8.278630
_cell_angle_alpha 90.000000
_cell_angle_beta 69.214296
_cell_angle_gamma 90.000000
_cell_volume 1518.178028
_symmetry_space_group_name_H-M "C 2/C"
_symmetry_group_IT_number 15
_symmetry_cell_setting 'monoclinic'
loop_
_space_group_symop_operation_xyz
x,y,z
-x,y,1/2-z
-x,-y,-z
x,-y,1/2+z
1/2+x,1/2+y,z
1/2-x,1/2+y,1/2-z
1/2-x,1/2-y,-z
1/2+x,1/2-y,1/2+z
loop_
_atom_site_type_symbol
_atom_site_label
_atom_site_fract_x
_atom_site_fract_y
_atom_site_fract_z
Si Si1 0.141662 0.753374 0.438121
Si Si2 0.507077 0.405228 0.054989
Si Si3 0.630678 0.032346 0.894810
Si Si4 0.767011 0.620942 0.342205
Si Si5 0.500000 0.146848 0.750000
O O1 0.250000 0.750000 0.500000
O O2 0.173883 0.705756 0.255246
O O3 0.039043 0.701734 0.578376
O O4 0.098241 0.847761 0.446315
O O5 0.500000 0.404811 0.250000
O O6 0.500000 0.500000 0.000000
O O7 0.629959 0.368063 0.933027
O O8 0.608412 0.090970 0.751107
O O9 0.706714 0.952518 0.802924
O O10 0.680772 0.085225 0.017603
O O11 0.500000 0.000000 0.000000
#
# Coordination Sequence:
#
# PCOD9307457 Si02
#       5
#     8   8   8   8   4
#     4  12  30  51  78 114 157 212 270 336 406 484
#     4  12  32  53  80 116 162 213 271 335 417 487
#     4  12  23  44  79 120 152 210 260 328 401 485
#     4  12  26  49  81 112 165 205 270 333 406 479
#     4  12  26  44  78 112 162 198 272 322 400 470
#
# _framework density 23.712634000000001
#
# number of rings (size 3 to 8) (size 9 to 14) (size 15 to 20)
#    0.000    0.000    4.444    2.667   17.111    0.889 
#    0.000    0.000    0.000    0.000    0.000    0.000 
#    0.000    0.000    0.000    0.000    0.000    0.000 
#
# Total GULP energy -100974.481397 kJ/mol
# GULP energy per Si atom -5609.693411 kJ/mol
# Density = 2.365866 g / cm^3
# Si number density = 23.712634 Si / 1000 Ang^3
#
#
#
# Elastic Constant Matrix: (Units=GPa)
#
#
# Indices 1 2 3 4 5 6 
#
# 1 132.6821 61.8325 41.3610 0.0000 3.6029 0.0000
# 2 61.8325 151.5461 38.8311 0.0000 2.0057 0.0000
# 3 41.3610 38.8311 101.7196 0.0000 -12.0326 0.0000
# 4 0.0000 0.0000 0.0000 -9.4871 0.0000 -4.0432
# 5 3.6029 2.0057 -12.0326 0.0000 46.3830 0.0000
# 6 0.0000 0.0000 0.0000 -4.0432 0.0000 36.9199
#
#
#
# Elastic Compliance Matrix: (Units=1/GPa)
#
#
# Indices 1 2 3 4 5 6 
#
# 1 0.010053 -0.003317 -0.002988 0.000000 -0.001413 0.000000
# 2 -0.003317 0.008461 -0.001954 0.000000 -0.000615 0.000000
# 3 -0.002988 -0.001954 0.012204 0.000000 0.003483 0.000000
# 4 0.000000 0.000000 0.000000 -0.100706 0.000000 -0.011029
# 5 -0.001413 -0.000615 0.003483 0.000000 0.022599 0.000000
# 6 0.000000 0.000000 0.000000 -0.011029 0.000000 0.025878
#
#
# Mechanical properties :
#
#
# Convention : Reuss Voigt Hill
#
# Bulk Modulus (GPa) = 70.42933 74.44413 72.43673
# Shear Modulus (GPa) = -19255.14067 31.02471 -9612.05798
#
# Velocity S-wave (km/s) = -90.20993 3.62105 -63.73664
# Velocity P-wave (km/s) = 104.02248 6.99608 73.38846
#
# Compressibility (1/GPa) = 0.01419863
#
# Stress axis : x y z
#
# Youngs Moduli (GPa) = 99.47679 118.19115 81.94110
#
# Poissons Ratio (x) = 0.39206 0.24487
# Poissons Ratio (y) = 0.32998 0.16010
# Poissons Ratio (z) = 0.29727 0.23093
#
# Static dielectric constant tensor:
#      x y z
#    x 1.863830 0.000000 -0.018420 
#    y 0.000000 1.940040 0.000000 
#    z -0.018420 0.000000 1.903180 
# 
# From -- ./inp_files/28990.got.cif
#   From: 2010.05.17/outbox.cif.g08.bks.cpg/sg15_15_cif.got.tgz:28990.got - 2010.06.03 18:47:42.
