data_PCOD9307679
_publ_section_title
;
Structure prediction by ZEFSAII (Michael W. Deem and Ramdas Pophale) SiO2 
 PCOD9307679
Probable space group: C 2/C
;
_chemical_formula_sum "Si O2"
_cell_formula_units_Z 56
_cell_length_a 27.545594
_cell_length_b 11.451720
_cell_length_c 8.308986
_cell_angle_alpha 90.000000
_cell_angle_beta 62.781024
_cell_angle_gamma 90.000000
_cell_volume 2330.784163
_symmetry_space_group_name_H-M "C 2/C"
_symmetry_group_IT_number 15
_symmetry_cell_setting 'monoclinic'
loop_
_space_group_symop_operation_xyz
x,y,z
-x,y,1/2-z
-x,-y,-z
x,-y,1/2+z
1/2+x,1/2+y,z
1/2-x,1/2+y,1/2-z
1/2-x,1/2-y,-z
1/2+x,1/2-y,1/2+z
loop_
_atom_site_type_symbol
_atom_site_label
_atom_site_fract_x
_atom_site_fract_y
_atom_site_fract_z
Si Si1 0.061834 0.540314 0.916974
Si Si2 0.306609 0.195120 0.478195
Si Si3 0.597533 0.675826 0.849156
Si Si4 0.311347 0.740560 0.345703
Si Si5 0.360443 0.041905 0.955705
Si Si6 0.480972 0.714922 0.956130
Si Si7 0.100842 0.930577 0.699837
O O1 0.078009 0.534593 0.705964
O O2 0.118670 0.483929 0.896106
O O3 0.057002 0.671108 0.996092
O O4 0.000000 0.500000 0.000000
O O5 0.250000 0.250000 0.500000
O O6 0.353279 0.245460 0.289076
O O7 0.313820 0.233185 0.652690
O O8 0.315280 0.055082 0.478778
O O9 0.540055 0.743704 0.942611
O O10 0.596562 0.568317 0.725139
O O11 0.600747 0.614230 0.017501
O O12 0.250000 0.750000 0.500000
O O13 0.341716 0.617552 0.320786
O O14 0.341699 0.833890 0.415895
O O15 0.500000 0.675584 0.750000
O O16 0.448107 0.625257 0.118719
#
# Coordination Sequence:
#
# PCOD9307679 Si02
#       7
#     8   8   8   8   8   8   8
#     4  12  25  42  75 111 155 201 244 312 381 457
#     4  12  28  50  77 110 147 205 255 322 384 458
#     4  12  27  46  77 105 153 194 262 312 385 458
#     4  12  28  49  78 109 156 198 261 319 388 465
#     4  12  26  48  74 113 157 193 256 318 383 459
#     4  12  24  45  71 108 153 196 249 309 376 452
#     4  12  26  48  73 112 145 203 251 318 386 455
#
# _framework density 24.026249
#
# number of rings (size 3 to 8) (size 9 to 14) (size 15 to 20)
#    0.000    0.000    2.857    7.286    8.000    1.143 
#    0.000    0.000    0.000    0.000    0.000    0.000 
#    0.000    0.000    0.000    0.000    0.000    0.000 
#
# Total GULP energy -156384.284014 kJ/mol
# GULP energy per Si atom -5585.153000 kJ/mol
# Density = 2.397156 g / cm^3
# Si number density = 24.026249 Si / 1000 Ang^3
#
#
#
# Elastic Constant Matrix: (Units=GPa)
#
#
# Indices 1 2 3 4 5 6 
#
# 1 123.8027 39.7072 10.7671 0.0000 -11.4903 0.0000
# 2 39.7072 108.0623 7.7116 0.0000 -0.7987 0.0000
# 3 10.7671 7.7116 100.2253 0.0000 -12.6005 0.0000
# 4 0.0000 0.0000 0.0000 32.6473 0.0000 -0.6691
# 5 -11.4903 -0.7987 -12.6005 0.0000 44.7077 0.0000
# 6 0.0000 0.0000 0.0000 -0.6691 0.0000 39.8199
#
#
#
# Elastic Compliance Matrix: (Units=1/GPa)
#
#
# Indices 1 2 3 4 5 6 
#
# 1 0.009419 -0.003411 -0.000469 0.000000 0.002228 0.000000
# 2 -0.003411 0.010540 -0.000551 0.000000 -0.000844 0.000000
# 3 -0.000469 -0.000551 0.010423 0.000000 0.002807 0.000000
# 4 0.000000 0.000000 0.000000 0.030641 0.000000 0.000515
# 5 0.002228 -0.000844 0.002807 0.000000 0.023716 0.000000
# 6 0.000000 0.000000 0.000000 0.000515 0.000000 0.025122
#
#
# Mechanical properties :
#
#
# Convention : Reuss Voigt Hill
#
# Bulk Modulus (GPa) = 46.46719 49.82910 48.14814
# Shear Modulus (GPa) = 39.71506 41.69527 40.70517
#
# Velocity S-wave (km/s) = 4.07010 4.17034 4.12053
# Velocity P-wave (km/s) = 6.43971 6.63125 6.53618
#
# Compressibility (1/GPa) = 0.02152056
#
# Stress axis : x y z
#
# Youngs Moduli (GPa) = 106.16907 94.87356 95.93947
#
# Poissons Ratio (x) = 0.32361 0.04503
# Poissons Ratio (y) = 0.36214 0.05282
# Poissons Ratio (z) = 0.04983 0.05224
#
# Static dielectric constant tensor:
#      x y z
#    x 1.838610 0.000000 -0.046820 
#    y 0.000000 1.886740 0.000000 
#    z -0.046820 0.000000 1.745600 
# 
# From -- ./inp_files/65441.got.cif
#   From: 2010.05.17/outbox.cif.g08.bks.cpg/sg15_33_cif.got.tgz:65441.got - 2010.06.03 18:47:42.
