data_PCOD9307969
_publ_section_title
;
Structure prediction by ZEFSAII (Michael W. Deem and Ramdas Pophale) SiO2 
 PCOD9307969
Probable space group: C 2/C
;
_chemical_formula_sum "Si O2"
_cell_formula_units_Z 32
_cell_length_a 19.066220
_cell_length_b 4.767378
_cell_length_c 13.932502
_cell_angle_alpha 90.000000
_cell_angle_beta 84.103146
_cell_angle_gamma 90.000000
_cell_volume 1259.705755
_symmetry_space_group_name_H-M "C 2/C"
_symmetry_group_IT_number 15
_symmetry_cell_setting 'monoclinic'
loop_
_space_group_symop_operation_xyz
x,y,z
-x,y,1/2-z
-x,-y,-z
x,-y,1/2+z
1/2+x,1/2+y,z
1/2-x,1/2+y,1/2-z
1/2-x,1/2-y,-z
1/2+x,1/2-y,1/2+z
loop_
_atom_site_type_symbol
_atom_site_label
_atom_site_fract_x
_atom_site_fract_y
_atom_site_fract_z
Si Si1 0.077745 0.990853 0.751600
Si Si2 0.076346 0.871006 0.464138
Si Si3 0.788640 0.600973 0.787706
Si Si4 0.633181 0.156451 0.065649
O O1 0.093988 0.193293 0.660253
O O2 0.000000 0.865397 0.750000
O O3 0.137794 0.755263 0.744603
O O4 0.078809 0.160281 0.850338
O O5 0.135540 0.096647 0.487852
O O6 0.090096 0.592582 0.522373
O O7 0.000000 0.000000 0.500000
O O8 0.768122 0.346833 0.720255
O O9 0.798149 0.473495 0.892848
#
# Coordination Sequence:
#
# PCOD9307969 Si02
#       4
#     8   8   8   8
#     4  12  27  47  83 112 150 201 253 315 387 438
#     4  12  26  45  73 117 156 190 252 316 379 452
#     4  12  25  51  77 105 155 210 249 311 379 452
#     4  12  25  47  72 111 153 194 251 308 377 445
#
# _framework density 25.402759
#
# number of rings (size 3 to 8) (size 9 to 14) (size 15 to 20)
#    0.000    0.000    7.500    0.750    3.500    1.000 
#    0.000    7.500    0.000    0.000    0.000    0.000 
#    0.000    0.000    0.000    0.000    0.000    0.000 
#
# Total GULP energy -89702.422287 kJ/mol
# GULP energy per Si atom -5606.401393 kJ/mol
# Density = 2.534494 g / cm^3
# Si number density = 25.402759 Si / 1000 Ang^3
#
#
#
# Elastic Constant Matrix: (Units=GPa)
#
#
# Indices 1 2 3 4 5 6 
#
# 1 153.5908 44.5596 34.5008 0.0000 20.9675 0.0000
# 2 44.5596 138.3425 28.6217 0.0000 20.8667 0.0000
# 3 34.5008 28.6217 138.0061 0.0000 30.4714 0.0000
# 4 0.0000 0.0000 0.0000 45.2907 0.0000 21.2550
# 5 20.9675 20.8667 30.4714 0.0000 33.0462 0.0000
# 6 0.0000 0.0000 0.0000 21.2550 0.0000 35.6167
#
#
#
# Elastic Compliance Matrix: (Units=1/GPa)
#
#
# Indices 1 2 3 4 5 6 
#
# 1 0.007637 -0.001844 -0.000896 0.000000 -0.002855 0.000000
# 2 -0.001844 0.008486 -0.000470 0.000000 -0.003755 0.000000
# 3 -0.000896 -0.000470 0.009262 0.000000 -0.007675 0.000000
# 4 0.000000 0.000000 0.000000 0.030669 0.000000 -0.018302
# 5 -0.002855 -0.003755 -0.007675 0.000000 0.041520 0.000000
# 6 0.000000 0.000000 0.000000 -0.018302 0.000000 0.038999
#
#
# Mechanical properties :
#
#
# Convention : Reuss Voigt Hill
#
# Bulk Modulus (GPa) = 52.72913 71.70041 62.21477
# Shear Modulus (GPa) = 33.48627 44.27454 38.88041
#
# Velocity S-wave (km/s) = 3.63466 4.17934 3.91648
# Velocity P-wave (km/s) = 6.19812 7.18163 6.70793
#
# Compressibility (1/GPa) = 0.01896485
#
# Stress axis : x y z
#
# Youngs Moduli (GPa) = 130.94516 117.84217 107.96492
#
# Poissons Ratio (x) = 0.21727 0.09679
# Poissons Ratio (y) = 0.24143 0.05073
# Poissons Ratio (z) = 0.11739 0.05537
#
# Static dielectric constant tensor:
#      x y z
#    x 2.048900 0.000000 0.020950 
#    y 0.000000 1.982000 0.000000 
#    z 0.020950 0.000000 1.976270 
# 
# From -- ./inp_files/164784.got.cif
#   From: 2010.05.17/outbox.cif.g08.bks.cpg/sg15_83_cif.got.tgz:164784.got - 2010.06.03 18:47:42.
