data_PCOD9307405
_publ_section_title
;
Structure prediction by ZEFSAII (Michael W. Deem and Ramdas Pophale) SiO2 
 PCOD9307405
Probable space group: C 2/C
;
_chemical_formula_sum "Si O2"
_cell_formula_units_Z 48
_cell_length_a 30.142178
_cell_length_b 7.245436
_cell_length_c 18.582689
_cell_angle_alpha 90.000000
_cell_angle_beta 153.271537
_cell_angle_gamma 90.000000
_cell_volume 1825.287137
_symmetry_space_group_name_H-M "C 2/C"
_symmetry_group_IT_number 15
_symmetry_cell_setting 'monoclinic'
loop_
_space_group_symop_operation_xyz
x,y,z
-x,y,1/2-z
-x,-y,-z
x,-y,1/2+z
1/2+x,1/2+y,z
1/2-x,1/2+y,1/2-z
1/2-x,1/2-y,-z
1/2+x,1/2-y,1/2+z
loop_
_atom_site_type_symbol
_atom_site_label
_atom_site_fract_x
_atom_site_fract_y
_atom_site_fract_z
Si Si1 0.291482 0.965397 0.881095
Si Si2 0.343049 0.126800 0.158375
Si Si3 0.500237 0.416107 0.581403
Si Si4 0.603058 0.769572 0.354166
Si Si5 0.336273 0.808385 0.801078
Si Si6 0.039602 0.776007 0.387354
O O1 0.206802 0.106529 0.783055
O O2 0.276609 0.886819 0.780614
O O3 0.386073 0.105615 0.011943
O O4 0.314317 0.787737 0.963949
O O5 0.328580 0.070106 0.219415
O O6 0.445249 0.237887 0.301407
O O7 0.367366 0.959528 0.141876
O O8 0.250000 0.250000 0.000000
O O9 0.500000 0.500000 0.500000
O O10 0.590151 0.371602 0.768195
O O11 0.446967 0.219964 0.489985
O O12 0.427537 0.536828 0.526751
O O13 0.500000 0.770749 0.250000
O O14 0.000000 0.813829 0.250000
#
# Coordination Sequence:
#
# PCOD9307405 Si02
#       6
#     8   8   8   8   8   8
#     4  12  25  48  74 104 145 202 248 306 377 447
#     4  12  23  43  72 105 141 188 249 307 366 441
#     4  12  27  43  70 109 144 190 248 307 366 447
#     4  12  23  48  73 102 148 202 245 295 381 450
#     4  12  26  45  72 107 147 188 253 311 374 436
#     4  12  23  44  71  99 142 192 241 293 369 449
#
# _framework density 26.297234
#
# number of rings (size 3 to 8) (size 9 to 14) (size 15 to 20)
#    0.000    0.000    8.333    1.500    2.333    1.333 
#    0.000    1.667    0.000    0.000    0.000    0.000 
#    0.000    0.000    0.000    0.000    0.000    0.000 
#
# Total GULP energy -134026.805682 kJ/mol
# GULP energy per Si atom -5584.450237 kJ/mol
# Density = 2.623738 g / cm^3
# Si number density = 26.297234 Si / 1000 Ang^3
#
#
#
# Elastic Constant Matrix: (Units=GPa)
#
#
# Indices 1 2 3 4 5 6 
#
# 1 122.8357 35.1672 60.7936 0.0000 -49.3895 0.0000
# 2 35.1672 83.0452 28.1226 0.0000 -10.8687 0.0000
# 3 60.7936 28.1226 88.6268 0.0000 -13.2152 0.0000
# 4 0.0000 0.0000 0.0000 45.2119 0.0000 -10.9486
# 5 -49.3895 -10.8687 -13.2152 0.0000 54.1191 0.0000
# 6 0.0000 0.0000 0.0000 -10.9486 0.0000 50.9642
#
#
#
# Elastic Compliance Matrix: (Units=1/GPa)
#
#
# Indices 1 2 3 4 5 6 
#
# 1 0.020667 -0.003022 -0.010892 0.000000 0.015594 0.000000
# 2 -0.003022 0.014091 -0.002478 0.000000 -0.000533 0.000000
# 3 -0.010892 -0.002478 0.018664 0.000000 -0.005880 0.000000
# 4 0.000000 0.000000 0.000000 0.023332 0.000000 0.005012
# 5 0.015594 -0.000533 -0.005880 0.000000 0.031166 0.000000
# 6 0.000000 0.000000 0.000000 0.005012 0.000000 0.020698
#
#
# Mechanical properties :
#
#
# Convention : Reuss Voigt Hill
#
# Bulk Modulus (GPa) = 48.45534 60.29718 54.37626
# Shear Modulus (GPa) = 29.71198 41.42066 35.56632
#
# Velocity S-wave (km/s) = 3.36497 3.97305 3.68159
# Velocity P-wave (km/s) = 5.79339 6.63519 6.22853
#
# Compressibility (1/GPa) = 0.02063756
#
# Stress axis : x y z
#
# Youngs Moduli (GPa) = 48.38585 70.96873 53.57846
#
# Poissons Ratio (x) = 0.21450 0.58360
# Poissons Ratio (y) = 0.14624 0.13274
# Poissons Ratio (z) = 0.52704 0.17583
#
# Static dielectric constant tensor:
#      x y z
#    x 1.994300 0.000000 -0.022240 
#    y 0.000000 2.175600 0.000000 
#    z -0.022240 0.000000 2.150320 
# 
# From -- ./inp_files/224675.got.cif
#   From: 2010.05.17/outbox.cif.g08.bks.cpg/sg15_113_cif.got.tgz:224675.got - 2010.06.03 18:47:42.
