data_PCOD9307056
_publ_section_title
;
Structure prediction by ZEFSAII (Michael W. Deem and Ramdas Pophale) SiO2 
 PCOD9307056
Probable space group: C 2/C
;
_chemical_formula_sum "Si O2"
_cell_formula_units_Z 32
_cell_length_a 18.058465
_cell_length_b 4.938469
_cell_length_c 14.162754
_cell_angle_alpha 90.000000
_cell_angle_beta 91.328617
_cell_angle_gamma 90.000000
_cell_volume 1262.711399
_symmetry_space_group_name_H-M "C 2/C"
_symmetry_group_IT_number 15
_symmetry_cell_setting 'monoclinic'
loop_
_space_group_symop_operation_xyz
x,y,z
-x,y,1/2-z
-x,-y,-z
x,-y,1/2+z
1/2+x,1/2+y,z
1/2-x,1/2+y,1/2-z
1/2-x,1/2-y,-z
1/2+x,1/2-y,1/2+z
loop_
_atom_site_type_symbol
_atom_site_label
_atom_site_fract_x
_atom_site_fract_y
_atom_site_fract_z
Si Si1 0.405940 0.685352 0.328901
Si Si2 0.257133 0.753689 0.613239
Si Si3 0.440470 0.804914 0.947212
Si Si4 0.647813 0.745545 0.366267
O O1 0.319113 0.632793 0.348428
O O2 0.454001 0.475781 0.392366
O O3 0.411476 0.675923 0.216345
O O4 0.413399 0.990974 0.365707
O O5 0.250000 0.750000 0.500000
O O6 0.282098 0.453140 0.641188
O O7 0.323662 0.950135 0.644937
O O8 0.383981 0.728221 0.029172
O O9 0.500000 0.000000 0.000000
#
# Coordination Sequence:
#
# PCOD9307056 Si02
#       4
#     8   8   8   8
#     4  12  25  43  70 101 135 179 225 281 346 409
#     4  12  21  41  71 101 140 176 214 282 359 416
#     4  12  26  46  67  96 135 183 233 279 329 400
#     4  12  24  43  68 102 137 177 224 282 348 414
#
# _framework density 25.342289999999998
#
# number of rings (size 3 to 8) (size 9 to 14) (size 15 to 20)
#    0.000    0.000    5.000    6.000    0.000    1.000 
#    0.000    2.500    0.000    0.000    0.000    0.000 
#    0.000    0.000    0.000    0.000    0.000    0.000 
#
# Total GULP energy -89587.321732 kJ/mol
# GULP energy per Si atom -5599.207608 kJ/mol
# Density = 2.528461 g / cm^3
# Si number density = 25.342290 Si / 1000 Ang^3
#
#
#
# Elastic Constant Matrix: (Units=GPa)
#
#
# Indices 1 2 3 4 5 6 
#
# 1 61.2854 20.4451 13.4186 0.0000 -10.7381 0.0000
# 2 20.4451 133.5005 41.0251 0.0000 -8.6547 0.0000
# 3 13.4186 41.0251 113.3711 0.0000 -10.1288 0.0000
# 4 0.0000 0.0000 0.0000 18.9072 0.0000 38.7974
# 5 -10.7381 -8.6547 -10.1288 0.0000 34.9459 0.0000
# 6 0.0000 0.0000 0.0000 38.7974 0.0000 25.2226
#
#
#
# Elastic Compliance Matrix: (Units=1/GPa)
#
#
# Indices 1 2 3 4 5 6 
#
# 1 0.018078 -0.002176 -0.000928 0.000000 0.004747 0.000000
# 2 -0.002176 0.008742 -0.002846 0.000000 0.000672 0.000000
# 3 -0.000928 -0.002846 0.010134 0.000000 0.001947 0.000000
# 4 0.000000 0.000000 0.000000 -0.024527 0.000000 0.037728
# 5 0.004747 0.000672 0.001947 0.000000 0.030805 0.000000
# 6 0.000000 0.000000 0.000000 0.037728 0.000000 -0.018386
#
#
# Mechanical properties :
#
#
# Convention : Reuss Voigt Hill
#
# Bulk Modulus (GPa) = 39.91294 50.88162 45.39728
# Shear Modulus (GPa) = 110.87232 31.36635 71.11933
#
# Velocity S-wave (km/s) = 6.62155 3.52192 5.30325
# Velocity P-wave (km/s) = 8.61647 6.05474 7.44659
#
# Compressibility (1/GPa) = 0.02505453
#
# Stress axis : x y z
#
# Youngs Moduli (GPa) = 55.31620 114.39196 98.67515
#
# Poissons Ratio (x) = 0.24886 0.09160
# Poissons Ratio (y) = 0.12034 0.28082
# Poissons Ratio (z) = 0.05135 0.32555
#
# Static dielectric constant tensor:
#      x y z
#    x 2.086050 0.000000 0.084700 
#    y 0.000000 1.932350 0.000000 
#    z 0.084700 0.000000 2.028320 
# 
# From -- ./inp_files/158004.got.cif
#   From: 2010.05.17/outbox.cif.g08.bks.cpg/sg15_80_cif.got.tgz:158004.got - 2010.06.03 18:47:42.
