data_PCOD9307714
_publ_section_title
;
Structure prediction by ZEFSAII (Michael W. Deem and Ramdas Pophale) SiO2 
 PCOD9307714
Probable space group: C 2/C
;
_chemical_formula_sum "Si O2"
_cell_formula_units_Z 52
_cell_length_a 17.403496
_cell_length_b 7.169866
_cell_length_c 29.040471
_cell_angle_alpha 90.000000
_cell_angle_beta 34.350975
_cell_angle_gamma 90.000000
_cell_volume 2044.706913
_symmetry_space_group_name_H-M "C 2/C"
_symmetry_group_IT_number 15
_symmetry_cell_setting 'monoclinic'
loop_
_space_group_symop_operation_xyz
x,y,z
-x,y,1/2-z
-x,-y,-z
x,-y,1/2+z
1/2+x,1/2+y,z
1/2-x,1/2+y,1/2-z
1/2-x,1/2-y,-z
1/2+x,1/2-y,1/2+z
loop_
_atom_site_type_symbol
_atom_site_label
_atom_site_fract_x
_atom_site_fract_y
_atom_site_fract_z
Si Si1 0.155663 0.479540 0.130520
Si Si2 0.116292 0.090922 0.411696
Si Si3 0.000000 0.233340 0.750000
Si Si4 0.792110 0.960496 0.469681
Si Si5 0.715280 0.417862 0.626233
Si Si6 0.856888 0.519064 0.642521
Si Si7 0.599482 0.644307 0.830208
O O1 0.258053 0.585337 0.114855
O O2 0.027380 0.620253 0.194692
O O3 0.135726 0.275265 0.160685
O O4 0.226946 0.442913 0.046352
O O5 0.075519 0.291274 0.410305
O O6 0.145004 0.961328 0.354004
O O7 0.000000 0.000000 0.500000
O O8 0.878551 0.086626 0.810730
O O9 0.750000 0.750000 0.500000
O O10 0.956705 0.953696 0.386655
O O11 0.735457 0.026685 0.448971
O O12 0.826492 0.405246 0.610781
O O13 0.917332 0.363266 0.647416
O O14 0.719561 0.599466 0.734934
#
# Coordination Sequence:
#
# PCOD9307714 Si02
#       7
#     8   8   4   8   8   8   8
#     4  12  26  48  77 110 152 202 256 314 387 464
#     4  12  25  48  76 112 150 196 255 322 381 461
#     4  12  24  46  72 108 154 196 246 318 376 456
#     4  12  26  50  73 112 156 201 251 320 386 467
#     4  12  26  47  77 109 151 199 257 310 394 458
#     4  12  26  50  78 112 152 204 259 321 383 463
#     4  12  27  47  78 108 154 201 258 316 388 458
#
# _framework density 25.431516999999999
#
# number of rings (size 3 to 8) (size 9 to 14) (size 15 to 20)
#    0.000    0.000    7.692    1.846    0.000    1.846 
#    2.769    0.000    0.000    0.000    0.000    0.000 
#    0.000    0.000    0.000    0.000    0.000    0.000 
#
# Total GULP energy -145438.431606 kJ/mol
# GULP energy per Si atom -5593.785831 kJ/mol
# Density = 2.537363 g / cm^3
# Si number density = 25.431517 Si / 1000 Ang^3
#
#
#
# Elastic Constant Matrix: (Units=GPa)
#
#
# Indices 1 2 3 4 5 6 
#
# 1 96.1684 23.6274 43.7176 -0.0055 38.9197 -0.0014
# 2 23.6274 168.9014 44.8874 -0.0124 13.3647 -0.0029
# 3 43.7176 44.8874 126.6433 -0.0035 9.0167 -0.0060
# 4 -0.0055 -0.0124 -0.0035 42.2976 -0.0030 8.8467
# 5 38.9197 13.3647 9.0167 -0.0030 31.0114 -0.0051
# 6 -0.0014 -0.0029 -0.0060 8.8467 -0.0051 26.3480
#
#
#
# Elastic Compliance Matrix: (Units=1/GPa)
#
#
# Indices 1 2 3 4 5 6 
#
# 1 0.025800 0.000665 -0.006961 0.000002 -0.030643 -0.000007
# 2 0.000665 0.006702 -0.002390 0.000002 -0.003029 -0.000001
# 3 -0.006961 -0.002390 0.010672 -0.000001 0.006663 0.000003
# 4 0.000002 0.000002 -0.000001 0.025428 -0.000002 -0.008538
# 5 -0.030643 -0.003029 0.006663 -0.000002 0.070072 0.000014
# 6 -0.000007 -0.000001 0.000003 -0.008538 0.000014 0.040820
#
#
# Mechanical properties :
#
#
# Convention : Reuss Voigt Hill
#
# Bulk Modulus (GPa) = 38.75253 68.46422 53.60838
# Shear Modulus (GPa) = 24.33504 38.56344 31.44924
#
# Velocity S-wave (km/s) = 3.09671 3.89828 3.52038
# Velocity P-wave (km/s) = 5.29691 6.87325 6.13591
#
# Compressibility (1/GPa) = 0.02580476
#
# Stress axis : x y z
#
# Youngs Moduli (GPa) = 38.75897 149.20375 93.70684
#
# Poissons Ratio (x) = -0.09927 0.65225
# Poissons Ratio (y) = -0.02579 0.22392
# Poissons Ratio (z) = 0.26978 0.35653
#
# Static dielectric constant tensor:
#      x y z
#    x 2.365790 0.000170 -0.127360 
#    y 0.000170 2.085840 -0.000070 
#    z -0.127360 -0.000070 2.108480 
# 
# From -- ./inp_files/298331.got.cif
#   From: 2010.05.17/outbox.cif.g08.bks.cpg/sg15_150_cif.got.tgz:298331.got - 2010.06.03 18:47:42.
