data_PCOD9307621
_publ_section_title
;
Structure prediction by ZEFSAII (Michael W. Deem and Ramdas Pophale) SiO2 
 PCOD9307621
Probable space group: C 2/C
;
_chemical_formula_sum "Si O2"
_cell_formula_units_Z 40
_cell_length_a 11.778269
_cell_length_b 7.470064
_cell_length_c 19.038062
_cell_angle_alpha 90.000000
_cell_angle_beta 62.297499
_cell_angle_gamma 90.000000
_cell_volume 1483.047175
_symmetry_space_group_name_H-M "C 2/C"
_symmetry_group_IT_number 15
_symmetry_cell_setting 'monoclinic'
loop_
_space_group_symop_operation_xyz
x,y,z
-x,y,1/2-z
-x,-y,-z
x,-y,1/2+z
1/2+x,1/2+y,z
1/2-x,1/2+y,1/2-z
1/2-x,1/2-y,-z
1/2+x,1/2-y,1/2+z
loop_
_atom_site_type_symbol
_atom_site_label
_atom_site_fract_x
_atom_site_fract_y
_atom_site_fract_z
Si Si1 0.367705 0.369079 0.436475
Si Si2 0.430988 0.762456 0.455600
Si Si3 0.775418 0.694461 0.649415
Si Si4 0.365897 0.836991 0.628124
Si Si5 0.638615 0.924938 0.176861
O O1 0.250000 0.250000 0.500000
O O2 0.115852 0.633330 0.600747
O O3 0.323437 0.414902 0.370935
O O4 0.499991 0.258932 0.392202
O O5 0.584625 0.741445 0.416990
O O6 0.384293 0.862790 0.538691
O O7 0.383513 0.557694 0.470319
O O8 0.831635 0.522834 0.675688
O O9 0.693935 0.876793 0.676763
O O10 0.248015 0.706641 0.674156
O O11 0.500000 0.898346 0.250000
#
# Coordination Sequence:
#
# PCOD9307621 Si02
#       5
#     8   8   8   8   8
#     4  12  24  43  77 118 153 186 244 319 387 442
#     4  12  25  48  79 113 151 192 248 320 377 447
#     4  12  26  46  77 112 149 195 244 311 381 445
#     4  12  25  46  81 115 149 194 251 317 384 444
#     4  12  29  52  72 108 156 204 256 308 374 458
#
# _framework density 26.971495999999998
#
# number of rings (size 3 to 8) (size 9 to 14) (size 15 to 20)
#    0.000    0.000    6.000    4.200    2.800    0.800 
#    7.200    0.000    0.000    0.000    0.000    0.000 
#    0.000    0.000    0.000    0.000    0.000    0.000 
#
# Total GULP energy -111874.113894 kJ/mol
# GULP energy per Si atom -5593.705695 kJ/mol
# Density = 2.691011 g / cm^3
# Si number density = 26.971496 Si / 1000 Ang^3
#
#
#
# Elastic Constant Matrix: (Units=GPa)
#
#
# Indices 1 2 3 4 5 6 
#
# 1 143.3687 71.8913 77.1779 0.0000 -47.6940 0.0000
# 2 71.8913 175.0541 69.0575 0.0000 -9.5701 0.0000
# 3 77.1779 69.0575 177.8482 0.0000 -41.8826 0.0000
# 4 0.0000 0.0000 0.0000 34.3887 0.0000 -36.6897
# 5 -47.6940 -9.5701 -41.8826 0.0000 57.0413 0.0000
# 6 0.0000 0.0000 0.0000 -36.6897 0.0000 36.9010
#
#
#
# Elastic Compliance Matrix: (Units=1/GPa)
#
#
# Indices 1 2 3 4 5 6 
#
# 1 0.012992 -0.004067 -0.002008 0.000000 0.008706 0.000000
# 2 -0.004067 0.008063 -0.002234 0.000000 -0.003689 0.000000
# 3 -0.002008 -0.002234 0.008316 0.000000 0.004052 0.000000
# 4 0.000000 0.000000 0.000000 -0.478224 0.000000 -0.475487
# 5 0.008706 -0.003689 0.004052 0.000000 0.027167 0.000000
# 6 0.000000 0.000000 0.000000 -0.475487 0.000000 -0.445666
#
#
# Mechanical properties :
#
#
# Convention : Reuss Voigt Hill
#
# Bulk Modulus (GPa) = 78.42730 103.61383 91.02056
# Shear Modulus (GPa) = -5.90680 44.20915 19.15118
#
# Velocity S-wave (km/s) = -1.48148 4.05298 2.66757
# Velocity P-wave (km/s) = 5.12002 7.77185 6.58089
#
# Compressibility (1/GPa) = 0.01275066
#
# Stress axis : x y z
#
# Youngs Moduli (GPa) = 76.97171 124.02906 120.24850
#
# Poissons Ratio (x) = 0.50446 0.24150
# Poissons Ratio (y) = 0.31306 0.26867
# Poissons Ratio (z) = 0.15459 0.27712
#
# Static dielectric constant tensor:
#      x y z
#    x 2.232840 0.000000 0.150660 
#    y 0.000000 2.100210 0.000000 
#    z 0.150660 0.000000 2.149040 
# 
# From -- ./inp_files/313037.got.cif
#   From: 2010.05.17/outbox.cif.g08.bks.cpg/sg15_157_cif.got.tgz:313037.got - 2010.06.03 18:47:42.
