data_PCOD9307268
_publ_section_title
;
Structure prediction by ZEFSAII (Michael W. Deem and Ramdas Pophale) SiO2 
 PCOD9307268
Probable space group: C 2/C
;
_chemical_formula_sum "Si O2"
_cell_formula_units_Z 44
_cell_length_a 20.895642
_cell_length_b 11.179605
_cell_length_c 10.676130
_cell_angle_alpha 90.000000
_cell_angle_beta 130.678849
_cell_angle_gamma 90.000000
_cell_volume 1891.385456
_symmetry_space_group_name_H-M "C 2/C"
_symmetry_group_IT_number 15
_symmetry_cell_setting 'monoclinic'
loop_
_space_group_symop_operation_xyz
x,y,z
-x,y,1/2-z
-x,-y,-z
x,-y,1/2+z
1/2+x,1/2+y,z
1/2-x,1/2+y,1/2-z
1/2-x,1/2-y,-z
1/2+x,1/2-y,1/2+z
loop_
_atom_site_type_symbol
_atom_site_label
_atom_site_fract_x
_atom_site_fract_y
_atom_site_fract_z
Si Si1 0.047188 0.536636 0.432367
Si Si2 0.500000 0.472905 0.250000
Si Si3 0.498302 0.716347 0.533238
Si Si4 0.257183 0.022545 0.314178
Si Si5 0.683483 0.739024 0.656136
Si Si6 0.135276 0.856580 0.849317
O O1 0.040012 0.679478 0.430126
O O2 0.143346 0.498592 0.545746
O O3 0.000000 0.488789 0.250000
O O4 0.000000 0.500000 0.500000
O O5 0.491489 0.397412 0.364826
O O6 0.419027 0.555838 0.132584
O O7 0.591251 0.749274 0.600914
O O8 0.431629 0.693843 0.336788
O O9 0.258008 0.146802 0.232699
O O10 0.203908 0.063562 0.366327
O O11 0.221987 0.892539 0.229793
O O12 0.671613 0.741368 0.490023
#
# Coordination Sequence:
#
# PCOD9307268 Si02
#       6
#     8   4   8   8   8   8
#     4  12  29  50  78 109 155 205 260 321 393 459
#     4  12  22  44  72 110 154 198 252 304 386 460
#     4  12  24  48  75 112 151 204 251 318 388 461
#     4  12  28  47  76 112 151 197 259 324 382 456
#     4  12  26  48  76 112 153 202 257 320 385 462
#     4  12  25  44  78 109 153 199 262 311 383 469
#
# _framework density 23.263369000000001
#
# number of rings (size 3 to 8) (size 9 to 14) (size 15 to 20)
#    0.000    0.000    6.364    3.273    5.091    0.000 
#    0.000    2.727    0.000    0.000    0.000    0.000 
#    0.000    0.000    0.000    0.000    0.000    0.000 
#
# Total GULP energy -123048.150428 kJ/mol
# GULP energy per Si atom -5593.097747 kJ/mol
# Density = 2.321042 g / cm^3
# Si number density = 23.263369 Si / 1000 Ang^3
#
#
#
# Elastic Constant Matrix: (Units=GPa)
#
#
# Indices 1 2 3 4 5 6 
#
# 1 147.4252 31.4666 22.3005 0.0000 28.4570 0.0000
# 2 31.4666 138.7187 22.8421 0.0000 18.6558 0.0000
# 3 22.3005 22.8421 67.7308 0.0000 5.5029 0.0000
# 4 0.0000 0.0000 0.0000 21.2916 0.0000 11.3946
# 5 28.4570 18.6558 5.5029 0.0000 35.5038 0.0000
# 6 0.0000 0.0000 0.0000 11.3946 0.0000 54.6119
#
#
#
# Elastic Compliance Matrix: (Units=1/GPa)
#
#
# Indices 1 2 3 4 5 6 
#
# 1 0.008416 -0.000765 -0.002023 0.000000 -0.006030 0.000000
# 2 -0.000765 0.008202 -0.002242 0.000000 -0.003349 0.000000
# 3 -0.002023 -0.002242 0.016163 0.000000 0.000295 0.000000
# 4 0.000000 0.000000 0.000000 0.052870 0.000000 -0.011031
# 5 -0.006030 -0.003349 0.000295 0.000000 0.034714 0.000000
# 6 0.000000 0.000000 0.000000 -0.011031 0.000000 0.020613
#
#
# Mechanical properties :
#
#
# Convention : Reuss Voigt Hill
#
# Bulk Modulus (GPa) = 44.01317 56.34371 50.17844
# Shear Modulus (GPa) = 31.52347 40.76583 36.14465
#
# Velocity S-wave (km/s) = 3.68512 4.19066 3.94600
# Velocity P-wave (km/s) = 6.08830 6.90565 6.50982
#
# Compressibility (1/GPa) = 0.02272047
#
# Stress axis : x y z
#
# Youngs Moduli (GPa) = 118.81493 121.92183 61.87095
#
# Poissons Ratio (x) = 0.09327 0.12518
# Poissons Ratio (y) = 0.09090 0.13872
# Poissons Ratio (z) = 0.24038 0.27336
#
# Static dielectric constant tensor:
#      x y z
#    x 1.827350 0.000000 -0.020810 
#    y 0.000000 2.016650 0.000000 
#    z -0.020810 0.000000 1.986210 
# 
# From -- ./inp_files/111278.got.cif
#   From: 2010.05.17/outbox.cif.g08.bks.cpg/sg15_56_cif.got.tgz:111278.got - 2010.06.03 18:47:42.
