data_PCOD9307603
_publ_section_title
;
Structure prediction by ZEFSAII (Michael W. Deem and Ramdas Pophale) SiO2 
 PCOD9307603
Probable space group: C 2/C
;
_chemical_formula_sum "Si O2"
_cell_formula_units_Z 32
_cell_length_a 8.916591
_cell_length_b 32.055278
_cell_length_c 4.961771
_cell_angle_alpha 90.000000
_cell_angle_beta 115.906901
_cell_angle_gamma 90.000000
_cell_volume 1275.671257
_symmetry_space_group_name_H-M "C 2/C"
_symmetry_group_IT_number 15
_symmetry_cell_setting 'monoclinic'
loop_
_space_group_symop_operation_xyz
x,y,z
-x,y,1/2-z
-x,-y,-z
x,-y,1/2+z
1/2+x,1/2+y,z
1/2-x,1/2+y,1/2-z
1/2-x,1/2-y,-z
1/2+x,1/2-y,1/2+z
loop_
_atom_site_type_symbol
_atom_site_label
_atom_site_fract_x
_atom_site_fract_y
_atom_site_fract_z
Si Si1 0.500000 0.339018 0.250000
Si Si2 0.245023 0.027850 0.322119
Si Si3 0.500000 0.400285 0.750000
Si Si4 0.000000 0.357120 0.250000
Si Si5 0.500000 0.083104 0.250000
Si Si6 0.808665 0.796334 0.485621
O O1 0.516083 0.371219 0.506320
O O2 0.345433 0.309137 0.202969
O O3 0.420377 0.048612 0.391020
O O4 0.151638 0.068122 0.360364
O O5 0.204378 0.991392 0.498936
O O6 0.161452 0.328514 0.454473
O O7 0.944035 0.384387 0.468712
O O8 0.750000 0.750000 0.500000
O O9 0.000000 0.798504 0.750000
#
# Coordination Sequence:
#
# PCOD9307603 Si02
#       6
#     4   8   4   4   4   8
#     4  12  26  48  76 110 156 206 260 320 384 470
#     4  12  24  43  71 108 152 200 257 320 385 460
#     4  12  24  46  72 110 152 202 258 320 386 456
#     4  12  28  50  80 116 156 212 262 320 390 462
#     4  12  26  48  74 112 154 208 260 322 390 458
#     4  12  28  53  81 118 159 205 261 324 390 469
#
# _framework density 25.084835000000002
#
# number of rings (size 3 to 8) (size 9 to 14) (size 15 to 20)
#    0.000    0.000    2.500    7.500    3.500    2.000 
#    0.000    0.000    0.000    0.000    0.000    0.000 
#    0.000    0.000    0.000    0.000    0.000    0.000 
#
# Total GULP energy -89125.083190 kJ/mol
# GULP energy per Si atom -5570.317699 kJ/mol
# Density = 2.502774 g / cm^3
# Si number density = 25.084835 Si / 1000 Ang^3
#
#
#
# Elastic Constant Matrix: (Units=GPa)
#
#
# Indices 1 2 3 4 5 6 
#
# 1 100.2754 52.4773 45.1961 0.0000 -4.8794 0.0000
# 2 52.4773 154.3096 41.3488 0.0000 -6.9142 0.0000
# 3 45.1961 41.3488 122.0993 0.0000 -15.8033 0.0000
# 4 0.0000 0.0000 0.0000 3.6585 0.0000 -10.1215
# 5 -4.8794 -6.9142 -15.8033 0.0000 37.0551 0.0000
# 6 0.0000 0.0000 0.0000 -10.1215 0.0000 50.8765
#
#
#
# Elastic Compliance Matrix: (Units=1/GPa)
#
#
# Indices 1 2 3 4 5 6 
#
# 1 0.013579 -0.003603 -0.003876 0.000000 -0.000537 0.000000
# 2 -0.003603 0.008087 -0.001345 0.000000 0.000461 0.000000
# 3 -0.003876 -0.001345 0.010565 0.000000 0.003744 0.000000
# 4 0.000000 0.000000 0.000000 0.607956 0.000000 0.120949
# 5 -0.000537 0.000461 0.003744 0.000000 0.028599 0.000000
# 6 0.000000 0.000000 0.000000 0.120949 0.000000 0.043717
#
#
# Mechanical properties :
#
#
# Convention : Reuss Voigt Hill
#
# Bulk Modulus (GPa) = 68.57600 72.74765 70.66182
# Shear Modulus (GPa) = 6.80261 34.16216 20.48238
#
# Velocity S-wave (km/s) = 1.64855 3.69435 2.86059
# Velocity P-wave (km/s) = 5.56962 6.87468 6.25627
#
# Compressibility (1/GPa) = 0.01458236
#
# Stress axis : x y z
#
# Youngs Moduli (GPa) = 73.64301 123.65463 94.65377
#
# Poissons Ratio (x) = 0.44559 0.36684
# Poissons Ratio (y) = 0.26537 0.12733
# Poissons Ratio (z) = 0.28541 0.16634
#
# Static dielectric constant tensor:
#      x y z
#    x 1.919130 0.000000 0.051420 
#    y 0.000000 2.067840 0.000000 
#    z 0.051420 0.000000 2.227270 
# 
# From -- ./inp_files/2743.got.cif
#   From: 2010.05.17/outbox.cif.g08.bks.cpg/sg15_2_cif.got.tgz:2743.got - 2010.06.03 18:47:42.
