data_PCOD9307819
_publ_section_title
;
Structure prediction by ZEFSAII (Michael W. Deem and Ramdas Pophale) SiO2 
 PCOD9307819
Probable space group: C 2/C
;
_chemical_formula_sum "Si O2"
_cell_formula_units_Z 36
_cell_length_a 22.787860
_cell_length_b 14.730266
_cell_length_c 13.927475
_cell_angle_alpha 90.000000
_cell_angle_beta 160.818291
_cell_angle_gamma 90.000000
_cell_volume 1536.059418
_symmetry_space_group_name_H-M "C 2/C"
_symmetry_group_IT_number 15
_symmetry_cell_setting 'monoclinic'
loop_
_space_group_symop_operation_xyz
x,y,z
-x,y,1/2-z
-x,-y,-z
x,-y,1/2+z
1/2+x,1/2+y,z
1/2-x,1/2+y,1/2-z
1/2-x,1/2-y,-z
1/2+x,1/2-y,1/2+z
loop_
_atom_site_type_symbol
_atom_site_label
_atom_site_fract_x
_atom_site_fract_y
_atom_site_fract_z
Si Si1 0.710966 0.507130 0.082637
Si Si2 0.147087 0.341499 0.318637
Si Si3 0.616471 0.180625 0.242631
Si Si4 0.500000 0.134288 0.250000
Si Si5 0.286949 0.482841 0.691533
O O1 0.792901 0.412597 0.172286
O O2 0.786112 0.585464 0.130474
O O3 0.747225 0.533921 0.248421
O O4 0.500000 0.499337 0.750000
O O5 0.250000 0.250000 0.500000
O O6 0.191312 0.405130 0.479680
O O7 0.966550 0.301293 0.990635
O O8 0.750000 0.250000 0.500000
O O9 0.469770 0.181805 0.101622
O O10 0.673974 0.073810 0.500969
O O11 0.500000 0.500000 0.000000
#
# Coordination Sequence:
#
# PCOD9307819 Si02
#       5
#     8   8   8   4   8
#     4  12  25  51  79 110 160 212 264 328 419 489
#     4  12  28  49  74 118 158 204 274 338 401 483
#     4  12  29  49  78 115 159 214 271 335 411 495
#     4  12  24  48  80 104 162 210 274 328 410 496
#     4  12  25  48  81 114 158 218 267 345 413 486
#
# _framework density 23.436593999999999
#
# number of rings (size 3 to 8) (size 9 to 14) (size 15 to 20)
#    0.000    0.000    6.667    2.000    7.778    0.000 
#    6.000    0.000    0.000    0.000    0.000    0.000 
#    0.000    0.000    0.000    0.000    0.000    0.000 
#
# Total GULP energy -100287.603604 kJ/mol
# GULP energy per Si atom -5571.533534 kJ/mol
# Density = 2.338325 g / cm^3
# Si number density = 23.436594 Si / 1000 Ang^3
#
#
#
# Elastic Constant Matrix: (Units=GPa)
#
#
# Indices 1 2 3 4 5 6 
#
# 1 192.7849 42.8770 31.5804 0.0000 -40.4816 0.0000
# 2 42.8770 109.7500 34.9379 0.0000 -18.2458 0.0000
# 3 31.5804 34.9379 110.1161 0.0000 -23.5967 0.0000
# 4 0.0000 0.0000 0.0000 40.7594 0.0000 1.2072
# 5 -40.4816 -18.2458 -23.5967 0.0000 48.4874 0.0000
# 6 0.0000 0.0000 0.0000 1.2072 0.0000 6.8239
#
#
#
# Elastic Compliance Matrix: (Units=1/GPa)
#
#
# Indices 1 2 3 4 5 6 
#
# 1 0.006609 -0.001687 -0.000350 0.000000 0.004713 0.000000
# 2 -0.001687 0.010847 -0.002663 0.000000 0.001378 0.000000
# 3 -0.000350 -0.002663 0.010884 0.000000 0.004002 0.000000
# 4 0.000000 0.000000 0.000000 0.024663 0.000000 -0.004363
# 5 0.004713 0.001378 0.004002 0.000000 0.027025 0.000000
# 6 0.000000 0.000000 0.000000 -0.004363 0.000000 0.147316
#
#
# Mechanical properties :
#
#
# Convention : Reuss Voigt Hill
#
# Bulk Modulus (GPa) = 52.79604 70.16018 61.47811
# Shear Modulus (GPa) = 20.57118 39.43119 30.00119
#
# Velocity S-wave (km/s) = 2.96588 4.10623 3.58173
# Velocity P-wave (km/s) = 5.85702 7.24449 6.58739
#
# Compressibility (1/GPa) = 0.01894081
#
# Stress axis : x y z
#
# Youngs Moduli (GPa) = 151.30117 92.18821 91.87548
#
# Poissons Ratio (x) = 0.15553 0.03219
# Poissons Ratio (y) = 0.25526 0.24463
# Poissons Ratio (z) = 0.05300 0.24546
#
# Static dielectric constant tensor:
#      x y z
#    x 2.223730 0.000000 0.037690 
#    y 0.000000 1.957690 0.000000 
#    z 0.037690 0.000000 2.011920 
# 
# From -- ./inp_files/173753.got.cif
#   From: 2010.05.17/outbox.cif.g08.bks.cpg/sg15_87_cif.got.tgz:173753.got - 2010.06.03 18:47:42.
