data_PCOD9307836
_publ_section_title
;
Structure prediction by ZEFSAII (Michael W. Deem and Ramdas Pophale) SiO2 
 PCOD9307836
Probable space group: C 2/C
;
_chemical_formula_sum "Si O2"
_cell_formula_units_Z 32
_cell_length_a 8.190301
_cell_length_b 13.391912
_cell_length_c 12.983737
_cell_angle_alpha 90.000000
_cell_angle_beta 84.966373
_cell_angle_gamma 90.000000
_cell_volume 1418.613244
_symmetry_space_group_name_H-M "C 2/C"
_symmetry_group_IT_number 15
_symmetry_cell_setting 'monoclinic'
loop_
_space_group_symop_operation_xyz
x,y,z
-x,y,1/2-z
-x,-y,-z
x,-y,1/2+z
1/2+x,1/2+y,z
1/2-x,1/2+y,1/2-z
1/2-x,1/2-y,-z
1/2+x,1/2-y,1/2+z
loop_
_atom_site_type_symbol
_atom_site_label
_atom_site_fract_x
_atom_site_fract_y
_atom_site_fract_z
Si Si1 0.379242 0.248734 0.899780
Si Si2 0.586319 0.561522 0.403685
Si Si3 0.319064 0.382237 0.249372
Si Si4 0.128123 0.410251 0.467319
O O1 0.457209 0.356319 0.873065
O O2 0.300068 0.192563 0.806272
O O3 0.522423 0.183780 0.941293
O O4 0.250000 0.250000 0.000000
O O5 0.500000 0.500000 0.500000
O O6 0.646865 0.480209 0.319873
O O7 0.750413 0.607993 0.444415
O O8 0.500000 0.333854 0.250000
O O9 0.241874 0.421543 0.359780
O O10 0.000000 0.500000 0.500000
#
# Coordination Sequence:
#
# PCOD9307836 Si02
#       4
#     8   8   8   8
#     4  12  25  47  76 112 153 201 257 320 391 463
#     4  12  24  49  78 109 156 202 250 328 390 454
#     4  12  26  47  77 114 158 202 264 316 391 465
#     4  12  25  48  78 112 158 202 257 322 384 466
#
# _framework density 22.55724
#
# number of rings (size 3 to 8) (size 9 to 14) (size 15 to 20)
#    0.000    0.000    7.500    1.500    0.000    2.000 
#    0.000    0.000    5.500    0.000    0.000    0.000 
#    0.000    0.000    0.000    0.000    0.000    0.000 
#
# Total GULP energy -89572.029200 kJ/mol
# GULP energy per Si atom -5598.251825 kJ/mol
# Density = 2.250590 g / cm^3
# Si number density = 22.557240 Si / 1000 Ang^3
#
#
#
# Elastic Constant Matrix: (Units=GPa)
#
#
# Indices 1 2 3 4 5 6 
#
# 1 143.9421 52.2399 43.4486 0.0000 12.6229 0.0000
# 2 52.2399 131.2523 31.9720 0.0000 9.9320 0.0000
# 3 43.4486 31.9720 101.7606 0.0000 -11.0751 0.0000
# 4 0.0000 0.0000 0.0000 27.3219 0.0000 -1.3463
# 5 12.6229 9.9320 -11.0751 0.0000 61.0397 0.0000
# 6 0.0000 0.0000 0.0000 -1.3463 0.0000 59.2632
#
#
#
# Elastic Compliance Matrix: (Units=1/GPa)
#
#
# Indices 1 2 3 4 5 6 
#
# 1 0.009077 -0.002665 -0.003260 0.000000 -0.002035 0.000000
# 2 -0.002665 0.009242 -0.001908 0.000000 -0.001299 0.000000
# 3 -0.003260 -0.001908 0.012166 0.000000 0.003192 0.000000
# 4 0.000000 0.000000 0.000000 0.036642 0.000000 0.000832
# 5 -0.002035 -0.001299 0.003192 0.000000 0.017594 0.000000
# 6 0.000000 0.000000 0.000000 0.000832 0.000000 0.016893
#
#
# Mechanical properties :
#
#
# Convention : Reuss Voigt Hill
#
# Bulk Modulus (GPa) = 67.47251 70.25290 68.86271
# Shear Modulus (GPa) = 40.91078 46.14459 43.52768
#
# Velocity S-wave (km/s) = 4.26331 4.52781 4.39755
# Velocity P-wave (km/s) = 7.36281 7.65158 7.50858
#
# Compressibility (1/GPa) = 0.01482085
#
# Stress axis : x y z
#
# Youngs Moduli (GPa) = 110.17247 108.19702 82.19961
#
# Poissons Ratio (x) = 0.28830 0.26795
# Poissons Ratio (y) = 0.29356 0.15680
# Poissons Ratio (z) = 0.35913 0.20639
#
# Static dielectric constant tensor:
#      x y z
#    x 0.668510 0.000000 0.513090 
#    y 0.000000 1.840990 0.000000 
#    z 0.513090 0.000000 1.629860 
# 
# From -- ./inp_files/131783.got.cif
#   From: 2010.05.17/outbox.cif.g08.bks.cpg/sg15_66_cif.got.tgz:131783.got - 2010.06.03 18:47:42.
