data_PCOD9307963
_publ_section_title
;
Structure prediction by ZEFSAII (Michael W. Deem and Ramdas Pophale) SiO2 
 PCOD9307963
Probable space group: C 2/C
;
_chemical_formula_sum "Si O2"
_cell_formula_units_Z 24
_cell_length_a 7.055737
_cell_length_b 7.336424
_cell_length_c 17.053685
_cell_angle_alpha 90.000000
_cell_angle_beta 74.431730
_cell_angle_gamma 90.000000
_cell_volume 850.377418
_symmetry_space_group_name_H-M "C 2/C"
_symmetry_group_IT_number 15
_symmetry_cell_setting 'monoclinic'
loop_
_space_group_symop_operation_xyz
x,y,z
-x,y,1/2-z
-x,-y,-z
x,-y,1/2+z
1/2+x,1/2+y,z
1/2-x,1/2+y,1/2-z
1/2-x,1/2-y,-z
1/2+x,1/2-y,1/2+z
loop_
_atom_site_type_symbol
_atom_site_label
_atom_site_fract_x
_atom_site_fract_y
_atom_site_fract_z
Si Si1 0.614892 0.563510 0.878012
Si Si2 0.684833 0.939044 0.928959
Si Si3 0.315100 0.799508 0.211067
O O1 0.392413 0.527912 0.928976
O O2 0.706014 0.365963 0.848355
O O3 0.640993 0.655319 0.789954
O O4 0.704555 0.720139 0.922388
O O5 0.648740 0.023934 0.846349
O O6 0.500000 0.000000 0.000000
O O7 0.500000 0.764767 0.250000
#
# Coordination Sequence:
#
# PCOD9307963 Si02
#       3
#     8   8   8
#     4  12  25  49  74 113 153 211 266 329 392 482
#     4  12  29  49  76 117 164 208 265 337 408 472
#     4  12  25  46  80 110 153 211 277 321 397 477
#
# _framework density 28.222760999999998
#
# number of rings (size 3 to 8) (size 9 to 14) (size 15 to 20)
#    0.000    0.000    6.667    2.000    4.667    4.000 
#    0.000    0.000    0.000    0.000    0.000    0.000 
#    0.000    0.000    0.000    0.000    0.000    0.000 
#
# Total GULP energy -67308.183626 kJ/mol
# GULP energy per Si atom -5609.015302 kJ/mol
# Density = 2.815853 g / cm^3
# Si number density = 28.222761 Si / 1000 Ang^3
#
#
#
# Elastic Constant Matrix: (Units=GPa)
#
#
# Indices 1 2 3 4 5 6 
#
# 1 101.9085 40.6420 17.4594 0.0000 2.4359 0.0000
# 2 40.6420 217.4101 39.3977 0.0000 -4.1927 0.0000
# 3 17.4594 39.3977 157.7535 0.0000 -23.5612 0.0000
# 4 0.0000 0.0000 0.0000 61.6013 0.0000 -3.7099
# 5 2.4359 -4.1927 -23.5612 0.0000 52.2947 0.0000
# 6 0.0000 0.0000 0.0000 -3.7099 0.0000 49.3453
#
#
#
# Elastic Compliance Matrix: (Units=1/GPa)
#
#
# Indices 1 2 3 4 5 6 
#
# 1 0.010733 -0.001867 -0.000878 0.000000 -0.001045 0.000000
# 2 -0.001867 0.005144 -0.001076 0.000000 0.000015 0.000000
# 3 -0.000878 -0.001076 0.007181 0.000000 0.003190 0.000000
# 4 0.000000 0.000000 0.000000 0.016307 0.000000 0.001226
# 5 -0.001045 0.000015 0.003190 0.000000 0.020610 0.000000
# 6 0.000000 0.000000 0.000000 0.001226 0.000000 0.020358
#
#
# Mechanical properties :
#
#
# Convention : Reuss Voigt Hill
#
# Bulk Modulus (GPa) = 64.86607 74.67449 69.77028
# Shear Modulus (GPa) = 53.69834 57.95313 55.82573
#
# Velocity S-wave (km/s) = 4.36668 4.53638 4.45234
# Velocity P-wave (km/s) = 6.96113 7.34539 7.15584
#
# Compressibility (1/GPa) = 0.01541638
#
# Stress axis : x y z
#
# Youngs Moduli (GPa) = 93.17212 194.40364 139.25145
#
# Poissons Ratio (x) = 0.36305 0.12220
# Poissons Ratio (y) = 0.17400 0.14980
# Poissons Ratio (z) = 0.08176 0.20913
#
# Static dielectric constant tensor:
#      x y z
#    x 2.284590 0.000000 0.028240 
#    y 0.000000 2.126710 0.000000 
#    z 0.028240 0.000000 2.192930 
# 
# From -- ./inp_files/131180.got.cif
#   From: 2010.05.17/outbox.cif.g08.bks.cpg/sg15_66_cif.got.tgz:131180.got - 2010.06.03 18:47:42.
