data_PCOD9307568
_publ_section_title
;
Structure prediction by ZEFSAII (Michael W. Deem and Ramdas Pophale) SiO2 
 PCOD9307568
Probable space group: C 2/C
;
_chemical_formula_sum "Si O2"
_cell_formula_units_Z 56
_cell_length_a 26.802785
_cell_length_b 16.835466
_cell_length_c 8.506399
_cell_angle_alpha 90.000000
_cell_angle_beta 141.797498
_cell_angle_gamma 90.000000
_cell_volume 2373.833696
_symmetry_space_group_name_H-M "C 2/C"
_symmetry_group_IT_number 15
_symmetry_cell_setting 'monoclinic'
loop_
_space_group_symop_operation_xyz
x,y,z
-x,y,1/2-z
-x,-y,-z
x,-y,1/2+z
1/2+x,1/2+y,z
1/2-x,1/2+y,1/2-z
1/2-x,1/2-y,-z
1/2+x,1/2-y,1/2+z
loop_
_atom_site_type_symbol
_atom_site_label
_atom_site_fract_x
_atom_site_fract_y
_atom_site_fract_z
Si Si1 0.437036 0.660359 0.472627
Si Si2 0.218808 0.083940 0.389990
Si Si3 0.643275 0.807525 0.401582
Si Si4 0.994289 0.588623 0.424034
Si Si5 0.286913 0.415082 0.249337
Si Si6 0.560258 0.348637 0.032663
Si Si7 0.351117 0.807531 0.708454
O O1 0.371809 0.603612 0.391432
O O2 0.384142 0.724832 0.245902
O O3 0.497212 0.616377 0.500972
O O4 0.500000 0.699308 0.750000
O O5 0.277838 0.153518 0.479716
O O6 0.213556 0.080557 0.564849
O O7 0.247454 0.998398 0.399491
O O8 0.652713 0.806175 0.612161
O O9 0.569500 0.864669 0.179971
O O10 0.914615 0.630337 0.293812
O O11 0.000000 0.590865 0.250000
O O12 0.000000 0.500000 0.500000
O O13 0.375305 0.404420 0.392331
O O14 0.233732 0.338992 0.066790
O O15 0.612698 0.278728 0.242755
O O16 0.500000 0.312897 0.750000
#
# Coordination Sequence:
#
# PCOD9307568 Si02
#       7
#     8   8   8   8   8   8   8
#     4  12  28  46  77 107 144 186 240 297 354 426
#     4  12  28  49  70 106 147 189 242 292 357 422
#     4  12  24  46  71 104 142 182 237 294 354 426
#     4  12  24  41  67 100 141 187 233 290 354 424
#     4  12  28  47  73 104 145 193 236 296 355 426
#     4  12  24  49  74 106 142 185 240 295 359 420
#     4  12  24  45  74 103 141 184 236 293 357 422
#
# _framework density 23.590533000000001
#
# number of rings (size 3 to 8) (size 9 to 14) (size 15 to 20)
#    0.000    0.000    4.286    5.143    6.000    1.143 
#    0.000    0.000    0.000    0.000    0.000    0.000 
#    0.000    0.000    0.000    0.000    0.000    0.000 
#
# Total GULP energy -156849.856636 kJ/mol
# GULP energy per Si atom -5601.780594 kJ/mol
# Density = 2.353684 g / cm^3
# Si number density = 23.590533 Si / 1000 Ang^3
#
#
#
# Elastic Constant Matrix: (Units=GPa)
#
#
# Indices 1 2 3 4 5 6 
#
# 1 144.6093 20.7915 35.9165 0.0000 18.0355 0.0000
# 2 20.7915 66.9902 23.5499 0.0000 -10.6590 0.0000
# 3 35.9165 23.5499 101.7410 0.0000 2.9999 0.0000
# 4 0.0000 0.0000 0.0000 31.6797 0.0000 1.1971
# 5 18.0355 -10.6590 2.9999 0.0000 44.8049 0.0000
# 6 0.0000 0.0000 0.0000 1.1971 0.0000 38.9515
#
#
#
# Elastic Compliance Matrix: (Units=1/GPa)
#
#
# Indices 1 2 3 4 5 6 
#
# 1 0.008286 -0.002372 -0.002266 0.000000 -0.003748 0.000000
# 2 -0.002372 0.017727 -0.003425 0.000000 0.005401 0.000000
# 3 -0.002266 -0.003425 0.011441 0.000000 -0.000669 0.000000
# 4 0.000000 0.000000 0.000000 0.031603 0.000000 -0.000971
# 5 -0.003748 0.005401 -0.000669 0.000000 0.025157 0.000000
# 6 0.000000 0.000000 0.000000 -0.000971 0.000000 0.025703
#
#
# Mechanical properties :
#
#
# Convention : Reuss Voigt Hill
#
# Bulk Modulus (GPa) = 46.88365 52.65069 49.76717
# Shear Modulus (GPa) = 34.92766 38.62608 36.77687
#
# Velocity S-wave (km/s) = 3.85200 4.05081 3.95266
# Velocity P-wave (km/s) = 6.30087 6.65175 6.47869
#
# Compressibility (1/GPa) = 0.02132940
#
# Stress axis : x y z
#
# Youngs Moduli (GPa) = 120.68009 56.41052 87.40255
#
# Poissons Ratio (x) = 0.13379 0.19803
# Poissons Ratio (y) = 0.28621 0.29938
# Poissons Ratio (z) = 0.27343 0.19322
#
# Static dielectric constant tensor:
#      x y z
#    x 1.871650 0.000000 0.007540 
#    y 0.000000 1.927830 0.000000 
#    z 0.007540 0.000000 1.879360 
# 
# From -- ./inp_files/67202.got.cif
#   From: 2010.05.17/outbox.cif.g08.bks.cpg/sg15_34_cif.got.tgz:67202.got - 2010.06.03 18:47:42.
