data_PCOD9307533
_publ_section_title
;
Structure prediction by ZEFSAII (Michael W. Deem and Ramdas Pophale) SiO2 
 PCOD9307533
Probable space group: C 2/C
;
_chemical_formula_sum "Si O2"
_cell_formula_units_Z 48
_cell_length_a 14.422966
_cell_length_b 9.539598
_cell_length_c 26.865103
_cell_angle_alpha 90.000000
_cell_angle_beta 39.581938
_cell_angle_gamma 90.000000
_cell_volume 2355.244628
_symmetry_space_group_name_H-M "C 2/C"
_symmetry_group_IT_number 15
_symmetry_cell_setting 'monoclinic'
loop_
_space_group_symop_operation_xyz
x,y,z
-x,y,1/2-z
-x,-y,-z
x,-y,1/2+z
1/2+x,1/2+y,z
1/2-x,1/2+y,1/2-z
1/2-x,1/2-y,-z
1/2+x,1/2-y,1/2+z
loop_
_atom_site_type_symbol
_atom_site_label
_atom_site_fract_x
_atom_site_fract_y
_atom_site_fract_z
Si Si1 0.166053 0.709802 0.585359
Si Si2 0.450620 0.656050 0.531373
Si Si3 0.436673 0.501492 0.331586
Si Si4 0.107520 0.475282 0.317403
Si Si5 0.873935 0.802295 0.176573
Si Si6 0.128282 0.407218 0.424055
O O1 0.250000 0.750000 0.500000
O O2 0.291928 0.682942 0.573535
O O3 0.073695 0.845474 0.639762
O O4 0.056570 0.579418 0.623853
O O5 0.500000 0.500000 0.500000
O O6 0.441538 0.694090 0.593355
O O7 0.570572 0.751568 0.454921
O O8 0.500000 0.512874 0.250000
O O9 0.530236 0.397281 0.326374
O O10 0.274519 0.441121 0.392777
O O11 0.130203 0.642068 0.302165
O O12 0.217580 0.379635 0.239970
O O13 0.145323 0.443087 0.359281
O O14 0.000000 0.500000 0.500000
#
# Coordination Sequence:
#
# PCOD9307533 Si02
#       6
#     8   8   8   8   8   8
#     4  12  25  46  74 104 141 186 233 293 354 424
#     4  12  28  45  73 107 143 183 238 294 351 419
#     4  12  26  46  74 103 140 191 236 287 361 423
#     4  12  26  46  71 104 143 185 239 289 357 419
#     4  12  28  47  73 104 144 189 234 297 352 426
#     4  12  23  49  73  99 143 189 233 286 358 425
#
# _framework density 20.380047999999999
#
# number of rings (size 3 to 8) (size 9 to 14) (size 15 to 20)
#    0.000    0.000    6.667    2.000    7.000    0.667 
#    0.000    0.000    0.000    0.000    0.000    0.000 
#    0.000    0.000    0.000    0.000    0.000    0.000 
#
# Total GULP energy -134342.440560 kJ/mol
# GULP energy per Si atom -5597.601690 kJ/mol
# Density = 2.033366 g / cm^3
# Si number density = 20.380048 Si / 1000 Ang^3
#
#
#
# Elastic Constant Matrix: (Units=GPa)
#
#
# Indices 1 2 3 4 5 6 
#
# 1 77.0339 21.9736 30.7432 0.0000 3.1280 0.0000
# 2 21.9736 180.8612 33.4707 0.0000 -8.0320 0.0000
# 3 30.7432 33.4707 69.3472 0.0000 -10.6518 0.0000
# 4 0.0000 0.0000 0.0000 31.2302 0.0000 -2.4622
# 5 3.1280 -8.0320 -10.6518 0.0000 36.5635 0.0000
# 6 0.0000 0.0000 0.0000 -2.4622 0.0000 32.6555
#
#
#
# Elastic Compliance Matrix: (Units=1/GPa)
#
#
# Indices 1 2 3 4 5 6 
#
# 1 0.016321 -0.000773 -0.007436 0.000000 -0.003732 0.000000
# 2 -0.000773 0.006117 -0.002505 0.000000 0.000680 0.000000
# 3 -0.007436 -0.002505 0.019826 0.000000 0.005862 0.000000
# 4 0.000000 0.000000 0.000000 0.032212 0.000000 0.002429
# 5 -0.003732 0.000680 0.005862 0.000000 0.029526 0.000000
# 6 0.000000 0.000000 0.000000 0.002429 0.000000 0.030806
#
#
# Mechanical properties :
#
#
# Convention : Reuss Voigt Hill
#
# Bulk Modulus (GPa) = 47.99293 55.51304 51.75298
# Shear Modulus (GPa) = 30.64103 36.16018 33.40061
#
# Velocity S-wave (km/s) = 3.88168 4.21681 4.05271
# Velocity P-wave (km/s) = 6.60984 7.14189 6.88101
#
# Compressibility (1/GPa) = 0.02083640
#
# Stress axis : x y z
#
# Youngs Moduli (GPa) = 61.27190 163.48399 50.43837
#
# Poissons Ratio (x) = 0.12630 0.37505
# Poissons Ratio (y) = 0.04733 0.12637
# Poissons Ratio (z) = 0.45560 0.40959
#
# Static dielectric constant tensor:
#      x y z
#    x 1.630510 0.000000 0.017240 
#    y 0.000000 1.889730 0.000000 
#    z 0.017240 0.000000 1.725270 
# 
# From -- ./inp_files/295407.got.cif
#   From: 2010.05.17/outbox.cif.g08.bks.cpg/sg15_148_cif.got.tgz:295407.got - 2010.06.03 18:47:42.
