data_PCOD9307067
_publ_section_title
;
Structure prediction by ZEFSAII (Michael W. Deem and Ramdas Pophale) SiO2 
 PCOD9307067
Probable space group: C 2/C
;
_chemical_formula_sum "Si O2"
_cell_formula_units_Z 40
_cell_length_a 11.185603
_cell_length_b 19.933298
_cell_length_c 13.905299
_cell_angle_alpha 90.000000
_cell_angle_beta 32.763331
_cell_angle_gamma 90.000000
_cell_volume 1677.848404
_symmetry_space_group_name_H-M "C 2/C"
_symmetry_group_IT_number 15
_symmetry_cell_setting 'monoclinic'
loop_
_space_group_symop_operation_xyz
x,y,z
-x,y,1/2-z
-x,-y,-z
x,-y,1/2+z
1/2+x,1/2+y,z
1/2-x,1/2+y,1/2-z
1/2-x,1/2-y,-z
1/2+x,1/2-y,1/2+z
loop_
_atom_site_type_symbol
_atom_site_label
_atom_site_fract_x
_atom_site_fract_y
_atom_site_fract_z
Si Si1 0.019002 0.902072 0.342739
Si Si2 0.519608 0.097120 0.502867
Si Si3 0.510637 0.222739 0.639681
Si Si4 0.762892 0.537055 0.962815
Si Si5 0.391492 0.361718 0.630795
O O1 0.955744 0.855047 0.475464
O O2 0.000000 0.869725 0.250000
O O3 0.270817 0.929196 0.175908
O O4 0.856291 0.965394 0.459625
O O5 0.487430 0.170442 0.571432
O O6 0.679780 0.059108 0.467867
O O7 0.654075 0.104174 0.312937
O O8 0.500000 0.185045 0.750000
O O9 0.750000 0.250000 0.500000
O O10 0.387789 0.291032 0.690997
O O11 0.586734 0.590358 0.039178
O O12 0.000000 0.534580 0.750000
#
# Coordination Sequence:
#
# PCOD9307067 Si02
#       5
#     8   8   8   8   8
#     4  12  30  48  68 102 150 198 249 283 356 440
#     4  12  26  46  77 110 146 184 239 312 362 422
#     4  12  21  42  77 115 144 170 236 309 370 418
#     4  12  25  45  74 109 145 182 241 308 369 424
#     4  12  25  45  73 110 144 190 234 299 374 421
#
# _framework density 23.840057000000002
#
# number of rings (size 3 to 8) (size 9 to 14) (size 15 to 20)
#    0.000    0.000    6.000    4.200    2.800    1.600 
#    0.000    1.000    0.000    0.000    0.000    0.000 
#    0.000    0.000    0.000    0.000    0.000    0.000 
#
# Total GULP energy -111754.362116 kJ/mol
# GULP energy per Si atom -5587.718106 kJ/mol
# Density = 2.378580 g / cm^3
# Si number density = 23.840057 Si / 1000 Ang^3
#
#
#
# Elastic Constant Matrix: (Units=GPa)
#
#
# Indices 1 2 3 4 5 6 
#
# 1 69.0029 6.6560 46.7608 -0.0089 13.9589 -0.0148
# 2 6.6560 76.1563 31.1467 -0.0040 -6.6541 0.0008
# 3 46.7608 31.1467 182.6569 -0.0057 2.9416 0.0012
# 4 -0.0089 -0.0040 -0.0057 26.4292 0.0092 -4.5727
# 5 13.9589 -6.6541 2.9416 0.0092 54.4635 0.0054
# 6 -0.0148 0.0008 0.0012 -4.5727 0.0054 -14.3428
#
#
#
# Elastic Compliance Matrix: (Units=1/GPa)
#
#
# Indices 1 2 3 4 5 6 
#
# 1 0.018579 -0.000111 -0.004664 0.000003 -0.004523 -0.000022
# 2 -0.000111 0.014306 -0.002442 0.000001 0.001908 0.000001
# 3 -0.004664 -0.002442 0.007077 0.000000 0.000515 0.000005
# 4 0.000003 0.000001 0.000000 0.035859 -0.000006 -0.011432
# 5 -0.004523 0.001908 0.000515 -0.000006 0.019726 0.000014
# 6 -0.000022 0.000001 0.000005 -0.011432 0.000014 -0.066076
#
#
# Mechanical properties :
#
#
# Convention : Reuss Voigt Hill
#
# Bulk Modulus (GPa) = 39.17444 55.21590 47.19517
# Shear Modulus (GPa) = 95.39509 29.52682 62.46095
#
# Velocity S-wave (km/s) = 6.33257 3.52310 5.12415
# Velocity P-wave (km/s) = 8.36281 6.30563 7.40599
#
# Compressibility (1/GPa) = 0.02552685
#
# Stress axis : x y z
#
# Youngs Moduli (GPa) = 53.82468 69.90098 141.30450
#
# Poissons Ratio (x) = 0.00778 0.65910
# Poissons Ratio (y) = 0.00599 0.34502
# Poissons Ratio (z) = 0.25106 0.17068
#
# Static dielectric constant tensor:
#      x y z
#    x 1.900280 0.000000 -0.007330 
#    y 0.000000 1.929940 0.000010 
#    z -0.007330 0.000010 1.885250 
# 
# From -- ./inp_files/48786.got.cif
#   From: 2010.05.17/outbox.cif.g08.bks.cpg/sg15_25_cif.got.tgz:48786.got - 2010.06.03 18:47:42.
