data_PCOD9307371
_publ_section_title
;
Structure prediction by ZEFSAII (Michael W. Deem and Ramdas Pophale) SiO2 
 PCOD9307371
Probable space group: C 2/C
;
_chemical_formula_sum "Si O2"
_cell_formula_units_Z 44
_cell_length_a 9.129102
_cell_length_b 29.160034
_cell_length_c 8.581327
_cell_angle_alpha 90.000000
_cell_angle_beta 62.527288
_cell_angle_gamma 90.000000
_cell_volume 2026.782157
_symmetry_space_group_name_H-M "C 2/C"
_symmetry_group_IT_number 15
_symmetry_cell_setting 'monoclinic'
loop_
_space_group_symop_operation_xyz
x,y,z
-x,y,1/2-z
-x,-y,-z
x,-y,1/2+z
1/2+x,1/2+y,z
1/2-x,1/2+y,1/2-z
1/2-x,1/2-y,-z
1/2+x,1/2-y,1/2+z
loop_
_atom_site_type_symbol
_atom_site_label
_atom_site_fract_x
_atom_site_fract_y
_atom_site_fract_z
Si Si1 0.322793 0.977459 0.067568
Si Si2 0.877149 0.957876 0.028960
Si Si3 0.320377 0.740982 0.795254
Si Si4 0.657252 0.162502 0.376887
Si Si5 0.000000 0.700324 0.750000
Si Si6 0.500000 0.084975 0.250000
Si Si7 0.000000 0.880775 0.750000
O O1 0.239554 0.954175 0.259971
O O2 0.355100 0.944417 0.903532
O O3 0.500000 0.000000 0.000000
O O4 0.219508 0.021725 0.070370
O O5 0.958862 0.912169 0.921605
O O6 0.000000 0.000000 0.000000
O O7 0.500000 0.716145 0.750000
O O8 0.370637 0.789198 0.693374
O O9 0.161722 0.723892 0.763170
O O10 0.250000 0.750000 0.000000
O O11 0.588071 0.169248 0.581061
O O12 0.571505 0.118853 0.343278
O O13 0.848313 0.151379 0.285538
#
# Coordination Sequence:
#
# PCOD9307371 Si02
#       7
#     8   8   8   8   4   4   4
#     4  12  23  41  70  96 133 193 246 299 354 440
#     4  12  23  44  65  97 134 188 248 294 360 439
#     4  12  25  50  81 110 150 200 247 300 377 472
#     4  12  27  47  69 110 145 183 241 313 384 436
#     4  12  27  50  79 112 148 200 256 302 371 482
#     4  12  24  44  67 102 148 182 244 316 365 436
#     4  12  27  42  68 102 148 184 236 322 378 428
#
# _framework density 21.709288999999998
#
# number of rings (size 3 to 8) (size 9 to 14) (size 15 to 20)
#    0.000    0.000    6.364    3.273    5.091    0.000 
#    0.000    0.000    0.000    0.000    0.000    0.000 
#    0.000    0.000    0.000    0.000    0.000    0.000 
#
# Total GULP energy -122629.604190 kJ/mol
# GULP energy per Si atom -5574.072918 kJ/mol
# Density = 2.165988 g / cm^3
# Si number density = 21.709289 Si / 1000 Ang^3
#
#
#
# Elastic Constant Matrix: (Units=GPa)
#
#
# Indices 1 2 3 4 5 6 
#
# 1 148.4192 23.1017 16.2107 0.0000 -9.9217 0.0000
# 2 23.1017 51.2354 25.3366 0.0000 6.4536 0.0000
# 3 16.2107 25.3366 182.6213 0.0000 8.8660 0.0000
# 4 0.0000 0.0000 0.0000 -17.9725 0.0000 -21.9326
# 5 -9.9217 6.4536 8.8660 0.0000 34.8108 0.0000
# 6 0.0000 0.0000 0.0000 -21.9326 0.0000 30.2545
#
#
#
# Elastic Compliance Matrix: (Units=1/GPa)
#
#
# Indices 1 2 3 4 5 6 
#
# 1 0.007526 -0.003605 -0.000308 0.000000 0.002892 0.000000
# 2 -0.003605 0.023037 -0.002652 0.000000 -0.004623 0.000000
# 3 -0.000308 -0.002652 0.005925 0.000000 -0.001105 0.000000
# 4 0.000000 0.000000 0.000000 -0.029523 0.000000 -0.021402
# 5 0.002892 -0.004623 -0.001105 0.000000 0.030690 0.000000
# 6 0.000000 0.000000 0.000000 -0.021402 0.000000 0.017538
#
#
# Mechanical properties :
#
#
# Convention : Reuss Voigt Hill
#
# Bulk Modulus (GPa) = 42.81315 56.84153 49.82734
# Shear Modulus (GPa) = 65.69625 30.59370 48.14497
#
# Velocity S-wave (km/s) = 5.50704 3.75806 4.71437
# Velocity P-wave (km/s) = 7.75891 6.71346 7.25504
#
# Compressibility (1/GPa) = 0.02335731
#
# Stress axis : x y z
#
# Youngs Moduli (GPa) = 132.87609 43.40863 168.78441
#
# Poissons Ratio (x) = 0.15649 0.05203
# Poissons Ratio (y) = 0.47904 0.44756
# Poissons Ratio (z) = 0.04096 0.11510
#
# Static dielectric constant tensor:
#      x y z
#    x 1.176770 0.000000 0.140620 
#    y 0.000000 1.766950 0.000000 
#    z 0.140620 0.000000 1.823800 
# 
# From -- ./inp_files/26033.got.cif
#   From: 2010.05.17/outbox.cif.g08.bks.cpg/sg15_14_cif.got.tgz:26033.got - 2010.06.03 18:47:42.
