data_PCOD9307121
_publ_section_title
;
Structure prediction by ZEFSAII (Michael W. Deem and Ramdas Pophale) SiO2 
 PCOD9307121
Probable space group: C 2/C
;
_chemical_formula_sum "Si O2"
_cell_formula_units_Z 48
_cell_length_a 20.336491
_cell_length_b 23.821229
_cell_length_c 5.858249
_cell_angle_alpha 90.000000
_cell_angle_beta 50.760323
_cell_angle_gamma 90.000000
_cell_volume 2198.027632
_symmetry_space_group_name_H-M "C 2/C"
_symmetry_group_IT_number 15
_symmetry_cell_setting 'monoclinic'
loop_
_space_group_symop_operation_xyz
x,y,z
-x,y,1/2-z
-x,-y,-z
x,-y,1/2+z
1/2+x,1/2+y,z
1/2-x,1/2+y,1/2-z
1/2-x,1/2-y,-z
1/2+x,1/2-y,1/2+z
loop_
_atom_site_type_symbol
_atom_site_label
_atom_site_fract_x
_atom_site_fract_y
_atom_site_fract_z
Si Si1 0.186953 0.526858 0.918844
Si Si2 0.193227 0.721491 0.818255
Si Si3 0.414162 0.674562 0.811923
Si Si4 0.903572 0.649291 0.779677
Si Si5 0.000000 0.569259 0.250000
Si Si6 0.500000 0.743016 0.250000
Si Si7 0.256257 0.132983 0.459050
O O1 0.205508 0.509077 0.612987
O O2 0.238019 0.583086 0.873162
O O3 0.084670 0.536116 0.133800
O O4 0.250000 0.750000 0.500000
O O5 0.152223 0.664664 0.814735
O O6 0.120685 0.767364 0.008444
O O7 0.238526 0.695231 0.940333
O O8 0.500000 0.655252 0.750000
O O9 0.441586 0.699110 0.509581
O O10 0.333743 0.633366 0.975268
O O11 0.974345 0.607605 0.526489
O O12 0.940546 0.710233 0.762406
O O13 0.839087 0.627735 0.114142
#
# Coordination Sequence:
#
# PCOD9307121 Si02
#       7
#     8   8   8   8   4   4   8
#     4  12  28  50  75 105 140 186 243 309 365 431
#     4  12  22  40  65  96 140 185 229 271 338 427
#     4  12  25  40  62 101 135 183 237 287 340 420
#     4  12  22  39  64  99 147 188 230 276 347 422
#     4  12  24  46  73 106 140 188 235 298 354 430
#     4  12  22  36  59  98 146 182 227 282 328 416
#     4  12  26  44  68  96 139 189 235 291 362 426
#
# _framework density 21.837761
#
# number of rings (size 3 to 8) (size 9 to 14) (size 15 to 20)
#    0.000    0.000    6.667    5.000    0.000    1.333 
#    0.000    0.000    0.000    1.000    0.000    0.000 
#    0.000    0.000    0.000    0.000    0.000    0.000 
#
# Total GULP energy -133800.744202 kJ/mol
# GULP energy per Si atom -5575.031008 kJ/mol
# Density = 2.178806 g / cm^3
# Si number density = 21.837761 Si / 1000 Ang^3
#
#
#
# Elastic Constant Matrix: (Units=GPa)
#
#
# Indices 1 2 3 4 5 6 
#
# 1 122.0504 34.5013 4.1308 0.0000 -5.4148 0.0000
# 2 34.5013 61.0928 6.1241 0.0000 8.5612 0.0000
# 3 4.1308 6.1241 102.1513 0.0000 -3.9804 0.0000
# 4 0.0000 0.0000 0.0000 13.2750 0.0000 -1.7686
# 5 -5.4148 8.5612 -3.9804 0.0000 25.0481 0.0000
# 6 0.0000 0.0000 0.0000 -1.7686 0.0000 48.3914
#
#
#
# Elastic Compliance Matrix: (Units=1/GPa)
#
#
# Indices 1 2 3 4 5 6 
#
# 1 0.010189 -0.006386 0.000143 0.000000 0.004408 0.000000
# 2 -0.006386 0.021359 -0.001369 0.000000 -0.008899 0.000000
# 3 0.000143 -0.001369 0.009947 0.000000 0.002079 0.000000
# 4 0.000000 0.000000 0.000000 0.075698 0.000000 0.002767
# 5 0.004408 -0.008899 0.002079 0.000000 0.044248 0.000000
# 6 0.000000 0.000000 0.000000 0.002767 0.000000 0.020766
#
#
# Mechanical properties :
#
#
# Convention : Reuss Voigt Hill
#
# Bulk Modulus (GPa) = 38.06628 41.64522 39.85575
# Shear Modulus (GPa) = 24.24950 33.37878 28.81414
#
# Velocity S-wave (km/s) = 3.33594 3.91383 3.63638
# Velocity P-wave (km/s) = 5.68395 6.28775 5.99346
#
# Compressibility (1/GPa) = 0.02626997
#
# Stress axis : x y z
#
# Youngs Moduli (GPa) = 98.14153 46.81791 100.53554
#
# Poissons Ratio (x) = 0.29899 -0.01434
# Poissons Ratio (y) = 0.62676 0.13763
# Poissons Ratio (z) = -0.01399 0.06409
#
# Static dielectric constant tensor:
#      x y z
#    x 1.954360 0.000000 0.024530 
#    y 0.000000 1.776780 0.000000 
#    z 0.024530 0.000000 1.260080 
# 
# From -- ./inp_files/11381.got.cif
#   From: 2010.05.17/outbox.cif.g08.bks.cpg/sg15_6_cif.got.tgz:11381.got - 2010.06.03 18:47:42.
