data_PCOD9307792
_publ_section_title
;
Structure prediction by ZEFSAII (Michael W. Deem and Ramdas Pophale) SiO2 
 PCOD9307792
Probable space group: C 2/C
;
_chemical_formula_sum "Si O2"
_cell_formula_units_Z 36
_cell_length_a 19.796869
_cell_length_b 21.057135
_cell_length_c 11.081630
_cell_angle_alpha 90.000000
_cell_angle_beta 21.095374
_cell_angle_gamma 90.000000
_cell_volume 1662.674376
_symmetry_space_group_name_H-M "C 2/C"
_symmetry_group_IT_number 15
_symmetry_cell_setting 'monoclinic'
loop_
_space_group_symop_operation_xyz
x,y,z
-x,y,1/2-z
-x,-y,-z
x,-y,1/2+z
1/2+x,1/2+y,z
1/2-x,1/2+y,1/2-z
1/2-x,1/2-y,-z
1/2+x,1/2-y,1/2+z
loop_
_atom_site_type_symbol
_atom_site_label
_atom_site_fract_x
_atom_site_fract_y
_atom_site_fract_z
Si Si1 0.313798 0.490846 0.890624
Si Si2 0.000000 0.569503 0.750000
Si Si3 0.321001 0.791730 0.261428
Si Si4 0.500000 0.289011 0.250000
Si Si5 0.677233 0.877535 0.737870
Si Si6 0.500000 0.615010 0.250000
O O1 0.500000 0.500000 0.500000
O O2 0.386179 0.433994 0.854727
O O3 0.130609 0.470522 0.120934
O O4 0.243203 0.554944 0.073681
O O5 0.145141 0.610780 0.432717
O O6 0.250000 0.750000 0.500000
O O7 0.163995 0.833860 0.454793
O O8 0.399342 0.748169 0.024738
O O9 0.486394 0.842021 0.017909
O O10 0.347916 0.331028 0.434640
#
# Coordination Sequence:
#
# PCOD9307792 Si02
#       6
#     8   4   8   4   8   4
#     4  12  28  45  79 113 150 200 247 323 386 451
#     4  12  24  48  74 112 154 192 248 310 396 454
#     4  12  28  49  78 111 154 205 256 319 379 457
#     4  12  27  47  76 110 148 204 258 308 388 456
#     4  12  26  48  75 110 150 196 255 314 385 459
#     4  12  27  51  74 112 156 194 260 312 384 462
#
# _framework density 21.651865000000001
#
# number of rings (size 3 to 8) (size 9 to 14) (size 15 to 20)
#    0.000    0.000    2.222    7.333    9.333    0.000 
#    0.000    0.000    0.000    0.000    0.000    0.000 
#    0.000    0.000    0.000    0.000    0.000    0.000 
#
# Total GULP energy -100353.217774 kJ/mol
# GULP energy per Si atom -5575.178765 kJ/mol
# Density = 2.160258 g / cm^3
# Si number density = 21.651865 Si / 1000 Ang^3
#
#
#
# Elastic Constant Matrix: (Units=GPa)
#
#
# Indices 1 2 3 4 5 6 
#
# 1 83.9008 56.8938 46.8935 0.0104 -9.8427 0.0001
# 2 56.8938 147.1710 90.2411 0.0060 2.0865 -0.0001
# 3 46.8935 90.2411 146.2164 0.0144 -18.9588 -0.0057
# 4 0.0104 0.0060 0.0144 -0.7892 0.0032 -20.0805
# 5 -9.8427 2.0865 -18.9588 0.0032 18.4736 0.0047
# 6 0.0001 -0.0001 -0.0057 -20.0805 0.0047 16.8086
#
#
#
# Elastic Compliance Matrix: (Units=1/GPa)
#
#
# Indices 1 2 3 4 5 6 
#
# 1 0.017935 -0.007027 -0.000084 0.000010 0.010263 0.000008
# 2 -0.007027 0.015315 -0.009122 -0.000007 -0.014835 -0.000008
# 3 -0.000084 -0.009122 0.014561 0.000008 0.015929 0.000010
# 4 0.000010 -0.000007 0.000008 -0.040358 0.000034 -0.048214
# 5 0.010263 -0.014835 0.015929 0.000034 0.077622 0.000024
# 6 0.000008 -0.000008 0.000010 -0.048214 0.000024 0.001895
#
#
# Mechanical properties :
#
#
# Convention : Reuss Voigt Hill
#
# Bulk Modulus (GPa) = 65.16868 85.03833 75.10351
# Shear Modulus (GPa) = 40.14348 19.11593 29.62970
#
# Velocity S-wave (km/s) = 4.31053 2.97455 3.70328
# Velocity P-wave (km/s) = 7.41202 7.15247 7.28340
#
# Compressibility (1/GPa) = 0.01534479
#
# Stress axis : x y z
#
# Youngs Moduli (GPa) = 55.75629 65.29502 68.67439
#
# Poissons Ratio (x) = 0.45885 0.00579
# Poissons Ratio (y) = 0.39182 0.62644
# Poissons Ratio (z) = 0.00470 0.59562
#
# Static dielectric constant tensor:
#      x y z
#    x 1.854320 0.000050 0.008930 
#    y 0.000050 1.920750 0.000050 
#    z 0.008930 0.000050 1.813630 
# 
# From -- ./inp_files/76631.got.cif
#   From: 2010.05.17/outbox.cif.g08.bks.cpg/sg15_39_cif.got.tgz:76631.got - 2010.06.03 18:47:42.
