data_PCOD9307854
_publ_section_title
;
Structure prediction by ZEFSAII (Michael W. Deem and Ramdas Pophale) SiO2 
 PCOD9307854
Probable space group: C 2/C
;
_chemical_formula_sum "Si O2"
_cell_formula_units_Z 60
_cell_length_a 19.170937
_cell_length_b 6.786321
_cell_length_c 25.210650
_cell_angle_alpha 90.000000
_cell_angle_beta 121.437927
_cell_angle_gamma 90.000000
_cell_volume 2798.437060
_symmetry_space_group_name_H-M "C 2/C"
_symmetry_group_IT_number 15
_symmetry_cell_setting 'monoclinic'
loop_
_space_group_symop_operation_xyz
x,y,z
-x,y,1/2-z
-x,-y,-z
x,-y,1/2+z
1/2+x,1/2+y,z
1/2-x,1/2+y,1/2-z
1/2-x,1/2-y,-z
1/2+x,1/2-y,1/2+z
loop_
_atom_site_type_symbol
_atom_site_label
_atom_site_fract_x
_atom_site_fract_y
_atom_site_fract_z
Si Si1 0.241026 0.816297 0.557342
Si Si2 0.576145 0.591240 0.697235
Si Si3 0.000000 0.672086 0.250000
Si Si4 0.084078 0.083933 0.510151
Si Si5 0.883103 0.377491 0.882623
Si Si6 0.621167 0.097991 0.844675
Si Si7 0.294836 0.506707 0.164484
Si Si8 0.504545 0.213877 0.617758
O O1 0.250000 0.750000 0.500000
O O2 0.265037 0.636360 0.605503
O O3 0.152378 0.913618 0.533591
O O4 0.305188 0.985789 0.597924
O O5 0.499928 0.684148 0.699149
O O6 0.593530 0.725207 0.653880
O O7 0.647739 0.591647 0.768841
O O8 0.560768 0.373406 0.669441
O O9 0.920423 0.532206 0.218065
O O10 0.108956 0.264186 0.558322
O O11 0.060969 0.169773 0.443924
O O12 0.000000 0.000000 0.500000
O O13 0.788524 0.430680 0.839951
O O14 0.942112 0.565151 0.896880
O O15 0.654690 0.306853 0.838065
O O16 0.547659 0.110945 0.857441
#
# Coordination Sequence:
#
# PCOD9307854 Si02
#       8
#     8   8   4   8   8   8   8   8
#     4  12  29  48  74 109 149 195 249 311 368 444
#     4  12  27  47  75 109 145 194 250 305 375 446
#     4  12  24  50  76 106 148 192 248 312 368 454
#     4  12  26  50  76 104 153 193 251 307 375 443
#     4  12  28  47  73 111 148 197 245 310 383 447
#     4  12  26  48  73 107 145 192 247 303 372 443
#     4  12  28  47  74 106 152 192 248 313 377 445
#     4  12  27  46  77 107 144 197 249 304 373 451
#
# _framework density 21.440539000000001
#
# number of rings (size 3 to 8) (size 9 to 14) (size 15 to 20)
#    0.000    0.000    5.333    3.600    7.467    1.067 
#    0.000    0.000    0.000    0.000    0.000    0.000 
#    0.000    0.000    0.000    0.000    0.000    0.000 
#
# Total GULP energy -167893.022703 kJ/mol
# GULP energy per Si atom -5596.434090 kJ/mol
# Density = 2.139174 g / cm^3
# Si number density = 21.440539 Si / 1000 Ang^3
#
#
#
# Elastic Constant Matrix: (Units=GPa)
#
#
# Indices 1 2 3 4 5 6 
#
# 1 83.6315 33.1759 21.5900 0.0000 10.7876 0.0000
# 2 33.1759 89.1303 26.1073 0.0000 12.4978 0.0001
# 3 21.5900 26.1073 88.4377 0.0000 10.5894 0.0000
# 4 0.0000 0.0000 0.0000 31.1617 0.0000 7.4971
# 5 10.7876 12.4978 10.5894 0.0000 36.5257 0.0000
# 6 0.0000 0.0001 0.0000 7.4971 0.0000 46.2539
#
#
#
# Elastic Compliance Matrix: (Units=1/GPa)
#
#
# Indices 1 2 3 4 5 6 
#
# 1 0.014541 -0.004536 -0.001950 0.000000 -0.002177 0.000000
# 2 -0.004536 0.014084 -0.002728 0.000000 -0.002688 0.000000
# 3 -0.001950 -0.002728 0.012854 0.000000 -0.002217 0.000000
# 4 0.000000 0.000000 0.000000 0.033393 0.000000 -0.005412
# 5 -0.002177 -0.002688 -0.002217 0.000000 0.029584 0.000000
# 6 0.000000 0.000000 0.000000 -0.005412 0.000000 0.022497
#
#
# Mechanical properties :
#
#
# Convention : Reuss Voigt Hill
#
# Bulk Modulus (GPa) = 43.38319 46.99399 45.18859
# Shear Modulus (GPa) = 32.66583 34.81001 33.73792
#
# Velocity S-wave (km/s) = 3.90751 4.03371 3.97111
# Velocity P-wave (km/s) = 6.37466 6.60760 6.49217
#
# Compressibility (1/GPa) = 0.02305040
#
# Stress axis : x y z
#
# Youngs Moduli (GPa) = 68.77195 71.00239 77.79439
#
# Poissons Ratio (x) = 0.32206 0.15171
# Poissons Ratio (y) = 0.31194 0.21226
# Poissons Ratio (z) = 0.13411 0.19373
#
# Static dielectric constant tensor:
#      x y z
#    x 1.721630 0.000000 0.169210 
#    y 0.000000 1.852310 0.000000 
#    z 0.169210 0.000000 1.361270 
# 
# From -- ./inp_files/300128.got.cif
#   From: 2010.05.17/outbox.cif.g08.bks.cpg/sg15_151_cif.got.tgz:300128.got - 2010.06.03 18:47:42.
