data_PCOD9307571
_publ_section_title
;
Structure prediction by ZEFSAII (Michael W. Deem and Ramdas Pophale) SiO2 
 PCOD9307571
Probable space group: C 2/C
;
_chemical_formula_sum "Si O2"
_cell_formula_units_Z 40
_cell_length_a 7.661498
_cell_length_b 26.849300
_cell_length_c 14.501281
_cell_angle_alpha 90.000000
_cell_angle_beta 141.337099
_cell_angle_gamma 90.000000
_cell_volume 1863.590092
_symmetry_space_group_name_H-M "C 2/C"
_symmetry_group_IT_number 15
_symmetry_cell_setting 'monoclinic'
loop_
_space_group_symop_operation_xyz
x,y,z
-x,y,1/2-z
-x,-y,-z
x,-y,1/2+z
1/2+x,1/2+y,z
1/2-x,1/2+y,1/2-z
1/2-x,1/2-y,-z
1/2+x,1/2-y,1/2+z
loop_
_atom_site_type_symbol
_atom_site_label
_atom_site_fract_x
_atom_site_fract_y
_atom_site_fract_z
Si Si1 0.805259 0.200427 0.581084
Si Si2 0.254106 0.356488 0.588623
Si Si3 0.804268 0.862607 0.391045
Si Si4 0.018432 0.967146 0.096396
Si Si5 0.107611 0.538445 0.118893
O O1 0.750000 0.250000 0.500000
O O2 0.528885 0.173923 0.508525
O O3 0.000000 0.210141 0.750000
O O4 0.964008 0.165196 0.573260
O O5 0.500000 0.332031 0.750000
O O6 0.340568 0.362120 0.516878
O O7 0.214110 0.411616 0.615012
O O8 0.500000 0.839007 0.250000
O O9 0.798588 0.918135 0.344848
O O10 0.697226 0.947601 0.966798
O O11 0.169492 0.005421 0.230587
O O12 0.000000 0.000000 0.000000
O O13 0.000000 0.500000 0.000000
#
# Coordination Sequence:
#
# PCOD9307571 Si02
#       5
#     8   8   8   8   8
#     4  12  30  55  82 113 148 194 255 320 385 455
#     4  12  27  48  76 114 157 198 252 317 378 449
#     4  12  25  48  79 109 153 203 251 308 384 451
#     4  12  24  41  68 107 155 201 255 300 363 443
#     4  12  24  41  67 107 153 199 250 306 356 442
#
# _framework density 21.463947999999998
#
# number of rings (size 3 to 8) (size 9 to 14) (size 15 to 20)
#    0.000    0.000    4.000    7.200    2.800    1.600 
#    0.000    0.000    0.000    0.000    0.000    0.000 
#    0.000    0.000    0.000    0.000    0.000    0.000 
#
# Total GULP energy -111579.045191 kJ/mol
# GULP energy per Si atom -5578.952260 kJ/mol
# Density = 2.141509 g / cm^3
# Si number density = 21.463948 Si / 1000 Ang^3
#
#
#
# Elastic Constant Matrix: (Units=GPa)
#
#
# Indices 1 2 3 4 5 6 
#
# 1 136.6151 46.7244 53.5050 0.0000 -7.9483 0.0000
# 2 46.7244 129.4423 50.1025 0.0000 -9.6699 0.0000
# 3 53.5050 50.1025 163.4850 0.0000 -20.4045 0.0000
# 4 0.0000 0.0000 0.0000 26.8440 0.0000 -3.2799
# 5 -7.9483 -9.6699 -20.4045 0.0000 46.1839 0.0000
# 6 0.0000 0.0000 0.0000 -3.2799 0.0000 19.7737
#
#
#
# Elastic Compliance Matrix: (Units=1/GPa)
#
#
# Indices 1 2 3 4 5 6 
#
# 1 0.009006 -0.002392 -0.002205 0.000000 0.000075 0.000000
# 2 -0.002392 0.009421 -0.002021 0.000000 0.000668 0.000000
# 3 -0.002205 -0.002021 0.007787 0.000000 0.002638 0.000000
# 4 0.000000 0.000000 0.000000 0.038023 0.000000 0.006307
# 5 0.000075 0.000668 0.002638 0.000000 0.022971 0.000000
# 6 0.000000 0.000000 0.000000 0.006307 0.000000 0.051618
#
#
# Mechanical properties :
#
#
# Convention : Reuss Voigt Hill
#
# Bulk Modulus (GPa) = 77.05281 81.13401 79.09341
# Shear Modulus (GPa) = 31.97191 37.17436 34.57314
#
# Velocity S-wave (km/s) = 3.86367 4.16618 4.01777
# Velocity P-wave (km/s) = 7.47533 7.81184 7.64544
#
# Compressibility (1/GPa) = 0.01297811
#
# Stress axis : x y z
#
# Youngs Moduli (GPa) = 111.03952 106.14629 128.41842
#
# Poissons Ratio (x) = 0.25387 0.28317
# Poissons Ratio (y) = 0.26557 0.25954
# Poissons Ratio (z) = 0.24485 0.21453
#
# Static dielectric constant tensor:
#      x y z
#    x 1.754200 0.000000 -0.039220 
#    y 0.000000 1.765880 0.000000 
#    z -0.039220 0.000000 1.714590 
# 
# From -- ./inp_files/139942.got.cif
#   From: 2010.05.17/outbox.cif.g08.bks.cpg/sg15_70_cif.got.tgz:139942.got - 2010.06.03 18:47:42.
