data_PCOD9307989
_publ_section_title
;
Structure prediction by ZEFSAII (Michael W. Deem and Ramdas Pophale) SiO2 
 PCOD9307989
Probable space group: C 2/C
;
_chemical_formula_sum "Si O2"
_cell_formula_units_Z 44
_cell_length_a 16.635511
_cell_length_b 10.454619
_cell_length_c 10.224152
_cell_angle_alpha 90.000000
_cell_angle_beta 88.817054
_cell_angle_gamma 90.000000
_cell_volume 1777.784370
_symmetry_space_group_name_H-M "C 2/C"
_symmetry_group_IT_number 15
_symmetry_cell_setting 'monoclinic'
loop_
_space_group_symop_operation_xyz
x,y,z
-x,y,1/2-z
-x,-y,-z
x,-y,1/2+z
1/2+x,1/2+y,z
1/2-x,1/2+y,1/2-z
1/2-x,1/2-y,-z
1/2+x,1/2-y,1/2+z
loop_
_atom_site_type_symbol
_atom_site_label
_atom_site_fract_x
_atom_site_fract_y
_atom_site_fract_z
Si Si1 0.500000 0.327168 0.250000
Si Si2 0.596958 0.757767 0.511754
Si Si3 0.126222 0.972138 0.417398
Si Si4 0.274485 0.111962 0.314927
Si Si5 0.089272 0.556724 0.767057
Si Si6 0.325629 0.741196 0.399987
O O1 0.468965 0.244809 0.372391
O O2 0.573182 0.414033 0.302404
O O3 0.598531 0.611862 0.462844
O O4 0.678692 0.806155 0.578829
O O5 0.583977 0.851222 0.391744
O O6 0.218485 0.998393 0.371780
O O7 0.122960 0.873091 0.537521
O O8 0.214491 0.198787 0.234642
O O9 0.343105 0.051390 0.220474
O O10 0.119420 0.638188 0.639113
O O11 0.000000 0.508218 0.750000
O O12 0.250000 0.750000 0.500000
#
# Coordination Sequence:
#
# PCOD9307989 Si02
#       6
#     4   8   8   8   8   8
#     4  12  28  48  80 116 154 198 252 318 386 452
#     4  12  28  48  78 110 155 198 257 314 379 453
#     4  12  25  48  80 112 152 197 257 315 377 449
#     4  12  27  49  78 107 150 202 253 311 377 450
#     4  12  29  49  76 111 155 199 252 315 382 452
#     4  12  25  47  77 110 152 199 256 307 381 459
#
# _framework density 24.749908999999999
#
# number of rings (size 3 to 8) (size 9 to 14) (size 15 to 20)
#    0.000    0.000    3.636    5.455    5.091    0.727 
#    0.000    0.000    0.000    0.000    0.000    0.000 
#    0.000    0.000    0.000    0.000    0.000    0.000 
#
# Total GULP energy -123330.425933 kJ/mol
# GULP energy per Si atom -5605.928451 kJ/mol
# Density = 2.469358 g / cm^3
# Si number density = 24.749909 Si / 1000 Ang^3
#
#
#
# Elastic Constant Matrix: (Units=GPa)
#
#
# Indices 1 2 3 4 5 6 
#
# 1 110.8121 26.4012 24.2238 0.0000 -24.2050 0.0000
# 2 26.4012 81.4165 19.7468 0.0000 -6.0863 0.0000
# 3 24.2238 19.7468 94.8231 0.0000 -22.4192 0.0000
# 4 0.0000 0.0000 0.0000 -19.3703 0.0000 66.5180
# 5 -24.2050 -6.0863 -22.4192 0.0000 53.0111 0.0000
# 6 0.0000 0.0000 0.0000 66.5180 0.0000 -40.3650
#
#
#
# Elastic Compliance Matrix: (Units=1/GPa)
#
#
# Indices 1 2 3 4 5 6 
#
# 1 0.010886 -0.002932 -0.001194 0.000000 0.004129 0.000000
# 2 -0.002932 0.013732 -0.002283 0.000000 -0.000727 0.000000
# 3 -0.001194 -0.002283 0.012373 0.000000 0.004425 0.000000
# 4 0.000000 0.000000 0.000000 0.011081 0.000000 0.018260
# 5 0.004129 -0.000727 0.004425 0.000000 0.022537 0.000000
# 6 0.000000 0.000000 0.000000 0.018260 0.000000 0.005317
#
#
# Mechanical properties :
#
#
# Convention : Reuss Voigt Hill
#
# Bulk Modulus (GPa) = 41.36758 47.53280 44.45019
# Shear Modulus (GPa) = 51.65211 13.10050 32.37630
#
# Velocity S-wave (km/s) = 4.57328 2.30318 3.62074
# Velocity P-wave (km/s) = 6.68110 5.13028 5.95638
#
# Compressibility (1/GPa) = 0.02417352
#
# Stress axis : x y z
#
# Youngs Moduli (GPa) = 91.86393 72.82009 80.82319
#
# Poissons Ratio (x) = 0.21348 0.09652
# Poissons Ratio (y) = 0.26931 0.18450
# Poissons Ratio (z) = 0.10970 0.16624
#
# Static dielectric constant tensor:
#      x y z
#    x 1.963550 0.000000 -0.046810 
#    y 0.000000 1.945870 0.000000 
#    z -0.046810 0.000000 1.961530 
# 
# From -- ./inp_files/95005.got.cif
#   From: 2010.05.17/outbox.cif.g08.bks.cpg/sg15_48_cif.got.tgz:95005.got - 2010.06.03 18:47:42.
