data_PCOD9307827
_publ_section_title
;
Structure prediction by ZEFSAII (Michael W. Deem and Ramdas Pophale) SiO2 
 PCOD9307827
Probable space group: C 2/C
;
_chemical_formula_sum "Si O2"
_cell_formula_units_Z 24
_cell_length_a 7.766168
_cell_length_b 17.212566
_cell_length_c 6.326117
_cell_angle_alpha 90.000000
_cell_angle_beta 92.895402
_cell_angle_gamma 90.000000
_cell_volume 844.568445
_symmetry_space_group_name_H-M "C 2/C"
_symmetry_group_IT_number 15
_symmetry_cell_setting 'monoclinic'
loop_
_space_group_symop_operation_xyz
x,y,z
-x,y,1/2-z
-x,-y,-z
x,-y,1/2+z
1/2+x,1/2+y,z
1/2-x,1/2+y,1/2-z
1/2-x,1/2-y,-z
1/2+x,1/2-y,1/2+z
loop_
_atom_site_type_symbol
_atom_site_label
_atom_site_fract_x
_atom_site_fract_y
_atom_site_fract_z
Si Si1 0.672257 0.455689 0.940972
Si Si2 0.657123 0.894344 0.925727
Si Si3 0.697323 0.303239 0.198869
O O1 0.685835 0.404208 0.730210
O O2 0.500000 0.500000 0.000000
O O3 0.820778 0.522149 0.955843
O O4 0.697357 0.390779 0.114934
O O5 0.500000 0.887359 0.750000
O O6 0.681587 0.821474 0.085987
O O7 0.500000 0.285341 0.250000
O O8 0.750000 0.250000 0.000000
#
# Coordination Sequence:
#
# PCOD9307827 Si02
#       3
#     8   8   8
#     4  12  24  48  93 132 173 239 306 373 464 557
#     4  12  26  48  89 139 178 227 311 389 457 550
#     4  12  29  54  89 128 187 248 306 380 472 554
#
# _framework density 28.416882000000001
#
# number of rings (size 3 to 8) (size 9 to 14) (size 15 to 20)
#    0.000    0.000    6.667    2.000    0.000    2.667 
#    0.000    5.000    0.000    0.000    0.000    0.000 
#    0.000    0.000    0.000    0.000    0.000    0.000 
#
# Total GULP energy -66969.652564 kJ/mol
# GULP energy per Si atom -5580.804380 kJ/mol
# Density = 2.835220 g / cm^3
# Si number density = 28.416882 Si / 1000 Ang^3
#
#
#
# Elastic Constant Matrix: (Units=GPa)
#
#
# Indices 1 2 3 4 5 6 
#
# 1 176.4005 69.1360 98.7736 0.0000 15.6242 0.0000
# 2 69.1360 215.2508 84.4367 0.0000 27.5491 0.0000
# 3 98.7736 84.4367 210.1437 0.0000 6.4890 0.0000
# 4 0.0000 0.0000 0.0000 94.5851 0.0000 -0.3413
# 5 15.6242 27.5491 6.4890 0.0000 57.9114 0.0000
# 6 0.0000 0.0000 0.0000 -0.3413 0.0000 25.3434
#
#
#
# Elastic Compliance Matrix: (Units=1/GPa)
#
#
# Indices 1 2 3 4 5 6 
#
# 1 0.008074 -0.001137 -0.003299 0.000000 -0.001268 0.000000
# 2 -0.001137 0.006024 -0.001813 0.000000 -0.002356 0.000000
# 3 -0.003299 -0.001813 0.007008 0.000000 0.000967 0.000000
# 4 0.000000 0.000000 0.000000 0.010573 0.000000 0.000142
# 5 -0.001268 -0.002356 0.000967 0.000000 0.018622 0.000000
# 6 0.000000 0.000000 0.000000 0.000142 0.000000 0.039460
#
#
# Mechanical properties :
#
#
# Convention : Reuss Voigt Hill
#
# Bulk Modulus (GPa) = 116.18001 122.94306 119.56154
# Shear Modulus (GPa) = 47.56095 58.86456 53.21275
#
# Velocity S-wave (km/s) = 4.09551 4.55627 4.33202
# Velocity P-wave (km/s) = 7.95847 8.42837 8.19679
#
# Compressibility (1/GPa) = 0.00860733
#
# Stress axis : x y z
#
# Youngs Moduli (GPa) = 123.85292 166.01198 142.69385
#
# Poissons Ratio (x) = 0.18874 0.47076
# Poissons Ratio (y) = 0.14081 0.25874
# Poissons Ratio (z) = 0.40860 0.30102
#
# Static dielectric constant tensor:
#      x y z
#    x 2.501710 0.000000 0.211910 
#    y 0.000000 2.099700 0.000000 
#    z 0.211910 0.000000 2.420690 
# 
# From -- ./inp_files/21015.got.cif
#   From: 2010.05.17/outbox.cif.g08.bks.cpg/sg15_11_cif.got.tgz:21015.got - 2010.06.03 18:47:42.
