data_PCOD9307043
_publ_section_title
;
Structure prediction by ZEFSAII (Michael W. Deem and Ramdas Pophale) SiO2 
 PCOD9307043
Probable space group: C 2/C
;
_chemical_formula_sum "Si O2"
_cell_formula_units_Z 48
_cell_length_a 19.569038
_cell_length_b 14.074607
_cell_length_c 19.499592
_cell_angle_alpha 90.000000
_cell_angle_beta 29.225198
_cell_angle_gamma 90.000000
_cell_volume 2622.211753
_symmetry_space_group_name_H-M "C 2/C"
_symmetry_group_IT_number 15
_symmetry_cell_setting 'monoclinic'
loop_
_space_group_symop_operation_xyz
x,y,z
-x,y,1/2-z
-x,-y,-z
x,-y,1/2+z
1/2+x,1/2+y,z
1/2-x,1/2+y,1/2-z
1/2-x,1/2-y,-z
1/2+x,1/2-y,1/2+z
loop_
_atom_site_type_symbol
_atom_site_label
_atom_site_fract_x
_atom_site_fract_y
_atom_site_fract_z
Si Si1 0.340647 0.735297 0.145485
Si Si2 0.057753 0.550326 0.123268
Si Si3 0.580966 0.059833 0.871536
Si Si4 0.117985 0.933928 0.199138
Si Si5 0.040043 0.247144 0.848217
Si Si6 0.370263 0.472490 0.660863
O O1 0.409123 0.829825 0.117062
O O2 0.177354 0.752830 0.275417
O O3 0.358595 0.641007 0.173758
O O4 0.411363 0.716737 0.009260
O O5 0.000000 0.539739 0.250000
O O6 0.998371 0.464886 0.128770
O O7 0.993979 0.648092 0.148801
O O8 0.225989 0.558979 0.968782
O O9 0.736193 0.016793 0.739904
O O10 0.500000 0.000000 0.000000
O O11 0.074188 0.826299 0.257844
O O12 0.000000 0.970370 0.250000
O O13 0.120168 0.985949 0.270994
O O14 0.500000 0.500000 0.500000
#
# Coordination Sequence:
#
# PCOD9307043 Si02
#       6
#     8   8   8   8   8   8
#     4  12  22  38  70 100 124 164 218 276 317 375
#     4  12  27  42  65  93 133 179 212 264 327 391
#     4  12  21  44  67  91 129 173 221 263 313 387
#     4  12  27  43  61  97 137 170 213 268 329 389
#     4  12  21  40  66  96 128 165 213 267 332 385
#     4  12  23  40  67  97 130 168 214 269 322 381
#
# _framework density 18.305157000000001
#
# number of rings (size 3 to 8) (size 9 to 14) (size 15 to 20)
#    0.000    0.000   10.000    0.500    4.667    1.333 
#    0.000    0.833    0.000    2.000    0.000    0.000 
#    0.000    0.000    0.000    0.000    0.000    0.000 
#
# Total GULP energy -134156.330082 kJ/mol
# GULP energy per Si atom -5589.847087 kJ/mol
# Density = 1.826349 g / cm^3
# Si number density = 18.305157 Si / 1000 Ang^3
#
#
#
# Elastic Constant Matrix: (Units=GPa)
#
#
# Indices 1 2 3 4 5 6 
#
# 1 81.8795 26.8337 23.5925 0.0002 0.6422 -0.0002
# 2 26.8337 96.9633 13.1666 -0.0004 -2.3229 0.0002
# 3 23.5925 13.1666 115.8996 -0.0009 -2.2788 0.0004
# 4 0.0002 -0.0004 -0.0009 17.0799 0.0005 -4.6562
# 5 0.6422 -2.3229 -2.2788 0.0005 32.2567 -0.0002
# 6 -0.0002 0.0002 0.0004 -4.6562 -0.0002 22.0843
#
#
#
# Elastic Compliance Matrix: (Units=1/GPa)
#
#
# Indices 1 2 3 4 5 6 
#
# 1 0.014108 -0.003585 -0.002479 0.000000 -0.000714 0.000000
# 2 -0.003585 0.011400 -0.000549 0.000000 0.000854 0.000000
# 3 -0.002479 -0.000549 0.009208 0.000000 0.000660 0.000000
# 4 0.000000 0.000000 0.000000 0.062119 -0.000001 0.013097
# 5 -0.000714 0.000854 0.000660 -0.000001 0.031124 0.000000
# 6 0.000000 0.000000 0.000000 0.013097 0.000000 0.048042
#
#
# Mechanical properties :
#
#
# Convention : Reuss Voigt Hill
#
# Bulk Modulus (GPa) = 46.52885 46.88089 46.70487
# Shear Modulus (GPa) = 25.45977 29.69416 27.57697
#
# Velocity S-wave (km/s) = 3.73346 4.03199 3.88559
# Velocity P-wave (km/s) = 6.63766 6.88057 6.76021
#
# Compressibility (1/GPa) = 0.02149204
#
# Stress axis : x y z
#
# Youngs Moduli (GPa) = 70.88373 87.71813 108.60127
#
# Poissons Ratio (x) = 0.31444 0.26917
# Poissons Ratio (y) = 0.25410 0.05958
# Poissons Ratio (z) = 0.17569 0.04812
#
# Static dielectric constant tensor:
#      x y z
#    x 1.620010 0.000000 0.009300 
#    y 0.000000 1.642760 0.000000 
#    z 0.009300 0.000000 1.622480 
# 
# From -- ./inp_files/47443.got.cif
#   From: 2010.05.17/outbox.cif.g08.bks.cpg/sg15_24_cif.got.tgz:47443.got - 2010.06.03 18:47:42.
