data_PCOD9307541
_publ_section_title
;
Structure prediction by ZEFSAII (Michael W. Deem and Ramdas Pophale) SiO2 
 PCOD9307541
Probable space group: C 2/C
;
_chemical_formula_sum "Si O2"
_cell_formula_units_Z 32
_cell_length_a 19.172724
_cell_length_b 15.587386
_cell_length_c 10.116782
_cell_angle_alpha 90.000000
_cell_angle_beta 157.158557
_cell_angle_gamma 90.000000
_cell_volume 1173.640840
_symmetry_space_group_name_H-M "C 2/C"
_symmetry_group_IT_number 15
_symmetry_cell_setting 'monoclinic'
loop_
_space_group_symop_operation_xyz
x,y,z
-x,y,1/2-z
-x,-y,-z
x,-y,1/2+z
1/2+x,1/2+y,z
1/2-x,1/2+y,1/2-z
1/2-x,1/2-y,-z
1/2+x,1/2-y,1/2+z
loop_
_atom_site_type_symbol
_atom_site_label
_atom_site_fract_x
_atom_site_fract_y
_atom_site_fract_z
Si Si1 0.186216 0.456234 0.783136
Si Si2 0.643769 0.328027 0.750794
Si Si3 0.500000 0.870940 0.250000
Si Si4 0.818140 0.091333 0.794481
Si Si5 0.500000 0.768608 0.750000
O O1 0.272519 0.518652 0.822819
O O2 0.000000 0.500000 0.500000
O O3 0.118120 0.367293 0.595937
O O4 0.301059 0.443027 0.113824
O O5 0.527888 0.291577 0.426245
O O6 0.750000 0.250000 0.000000
O O7 0.810310 0.385530 0.995842
O O8 0.515288 0.368392 0.635251
O O9 0.670357 0.166910 0.546735
#
# Coordination Sequence:
#
# PCOD9307541 Si02
#       5
#     8   8   4   8   4
#     4  12  23  50  75 116 158 200 257 335 400 483
#     4  12  28  49  76 115 157 214 271 329 399 478
#     4  12  25  48  72 106 163 198 268 336 388 472
#     4  12  26  48  83 115 160 208 264 330 416 474
#     4  12  23  50  78 112 159 210 272 338 394 486
#
# _framework density 27.26558
#
# number of rings (size 3 to 8) (size 9 to 14) (size 15 to 20)
#    0.000    0.000    5.000    5.250    0.000    1.000 
#    4.500    0.000    0.000    0.000    0.000    0.000 
#    0.000    0.000    0.000    0.000    0.000    0.000 
#
# Total GULP energy -89173.556876 kJ/mol
# GULP energy per Si atom -5573.347305 kJ/mol
# Density = 2.720352 g / cm^3
# Si number density = 27.265580 Si / 1000 Ang^3
#
#
#
# Elastic Constant Matrix: (Units=GPa)
#
#
# Indices 1 2 3 4 5 6 
#
# 1 225.7998 56.4159 61.4114 0.0000 26.1739 0.0000
# 2 56.4159 86.6052 39.4575 0.0000 -0.4000 0.0000
# 3 61.4114 39.4575 120.7058 0.0000 -14.8576 0.0000
# 4 0.0000 0.0000 0.0000 52.9177 0.0000 1.7196
# 5 26.1739 -0.4000 -14.8576 0.0000 82.4732 0.0000
# 6 0.0000 0.0000 0.0000 1.7196 0.0000 45.3280
#
#
#
# Elastic Compliance Matrix: (Units=1/GPa)
#
#
# Indices 1 2 3 4 5 6 
#
# 1 0.006088 -0.002857 -0.002457 0.000000 -0.002389 0.000000
# 2 -0.002857 0.014954 -0.003389 0.000000 0.000369 0.000000
# 3 -0.002457 -0.003389 0.010980 0.000000 0.002742 0.000000
# 4 0.000000 0.000000 0.000000 0.018921 0.000000 -0.000718
# 5 -0.002389 0.000369 0.002742 0.000000 0.013379 0.000000
# 6 0.000000 0.000000 0.000000 -0.000718 0.000000 0.022089
#
#
# Mechanical properties :
#
#
# Convention : Reuss Voigt Hill
#
# Bulk Modulus (GPa) = 68.42609 83.07559 75.75084
# Shear Modulus (GPa) = 46.00309 54.53218 50.26764
#
# Velocity S-wave (km/s) = 4.11204 4.47703 4.29841
# Velocity P-wave (km/s) = 6.90621 7.56705 7.24417
#
# Compressibility (1/GPa) = 0.01461431
#
# Stress axis : x y z
#
# Youngs Moduli (GPa) = 164.26434 66.87327 91.07344
#
# Poissons Ratio (x) = 0.19107 0.22379
# Poissons Ratio (y) = 0.46933 0.30866
# Poissons Ratio (z) = 0.40365 0.22665
#
# Static dielectric constant tensor:
#      x y z
#    x 2.005410 0.000000 0.012700 
#    y 0.000000 2.171750 0.000000 
#    z 0.012700 0.000000 2.020340 
# 
# From -- ./inp_files/50515.got.cif
#   From: 2010.05.17/outbox.cif.g08.bks.cpg/sg15_26_cif.got.tgz:50515.got - 2010.06.03 18:47:42.
