data_PCOD9307992
_publ_section_title
;
Structure prediction by ZEFSAII (Michael W. Deem and Ramdas Pophale) SiO2 
 PCOD9307992
Probable space group: C 2/C
;
_chemical_formula_sum "Si O2"
_cell_formula_units_Z 40
_cell_length_a 12.460675
_cell_length_b 7.279748
_cell_length_c 22.412393
_cell_angle_alpha 90.000000
_cell_angle_beta 52.738281
_cell_angle_gamma 90.000000
_cell_volume 1618.053000
_symmetry_space_group_name_H-M "C 2/C"
_symmetry_group_IT_number 15
_symmetry_cell_setting 'monoclinic'
loop_
_space_group_symop_operation_xyz
x,y,z
-x,y,1/2-z
-x,-y,-z
x,-y,1/2+z
1/2+x,1/2+y,z
1/2-x,1/2+y,1/2-z
1/2-x,1/2-y,-z
1/2+x,1/2-y,1/2+z
loop_
_atom_site_type_symbol
_atom_site_label
_atom_site_fract_x
_atom_site_fract_y
_atom_site_fract_z
Si Si1 0.882984 0.499608 0.668590
Si Si2 0.919297 0.878548 0.591406
Si Si3 0.879456 0.667272 0.489733
Si Si4 0.195409 0.324591 0.188156
Si Si5 0.819264 0.130516 0.425180
O O1 0.983396 0.586363 0.406808
O O2 0.886201 0.552803 0.737161
O O3 0.765979 0.349574 0.697150
O O4 0.863968 0.696757 0.643475
O O5 0.809861 0.036594 0.626525
O O6 0.054084 0.198608 0.484113
O O7 0.750000 0.750000 0.500000
O O8 0.803046 0.503850 0.551153
O O9 0.952609 0.055574 0.412849
O O10 0.133747 0.238059 0.149114
O O11 0.750000 0.250000 0.500000
#
# Coordination Sequence:
#
# PCOD9307992 Si02
#       5
#     8   8   8   8   8
#     4  12  25  50  76 113 156 202 258 321 386 465
#     4  12  26  50  77 111 157 203 259 322 379 465
#     4  12  26  50  81 115 157 206 263 322 388 465
#     4  12  27  50  79 112 159 205 257 322 397 456
#     4  12  25  47  78 113 149 204 258 313 385 461
#
# _framework density 24.721069
#
# number of rings (size 3 to 8) (size 9 to 14) (size 15 to 20)
#    0.000    0.000    6.000    4.200    0.000    3.200 
#    0.000    0.000    0.000    0.000    0.000    0.000 
#    0.000    0.000    0.000    0.000    0.000    0.000 
#
# Total GULP energy -111983.934646 kJ/mol
# GULP energy per Si atom -5599.196732 kJ/mol
# Density = 2.466480 g / cm^3
# Si number density = 24.721069 Si / 1000 Ang^3
#
#
#
# Elastic Constant Matrix: (Units=GPa)
#
#
# Indices 1 2 3 4 5 6 
#
# 1 122.8652 29.3840 61.4699 0.0000 15.3193 0.0000
# 2 29.3840 83.2376 41.8528 0.0000 3.1389 0.0000
# 3 61.4699 41.8528 170.7876 0.0000 31.0475 0.0000
# 4 0.0000 0.0000 0.0000 58.3663 0.0000 4.2654
# 5 15.3193 3.1389 31.0475 0.0000 44.2222 0.0000
# 6 0.0000 0.0000 0.0000 4.2654 0.0000 48.8770
#
#
#
# Elastic Compliance Matrix: (Units=1/GPa)
#
#
# Indices 1 2 3 4 5 6 
#
# 1 0.010280 -0.002100 -0.002941 0.000000 -0.001348 0.000000
# 2 -0.002100 0.014229 -0.003072 0.000000 0.001874 0.000000
# 3 -0.002941 -0.003072 0.008530 0.000000 -0.004752 0.000000
# 4 0.000000 0.000000 0.000000 0.017243 0.000000 -0.001505
# 5 -0.001348 0.001874 -0.004752 0.000000 0.026283 0.000000
# 6 0.000000 0.000000 0.000000 -0.001505 0.000000 0.020591
#
#
# Mechanical properties :
#
#
# Convention : Reuss Voigt Hill
#
# Bulk Modulus (GPa) = 59.46969 71.36708 65.41839
# Shear Modulus (GPa) = 42.02160 46.57199 44.29680
#
# Velocity S-wave (km/s) = 4.12737 4.34510 4.23763
# Velocity P-wave (km/s) = 6.84267 7.35560 7.10376
#
# Compressibility (1/GPa) = 0.01681529
#
# Stress axis : x y z
#
# Youngs Moduli (GPa) = 97.27267 70.27930 117.22937
#
# Poissons Ratio (x) = 0.14757 0.34472
# Poissons Ratio (y) = 0.20425 0.36011
# Poissons Ratio (z) = 0.28604 0.21589
#
# Static dielectric constant tensor:
#      x y z
#    x 2.009360 0.000000 -0.013960 
#    y 0.000000 2.059110 0.000000 
#    z -0.013960 0.000000 1.981080 
# 
# From -- ./inp_files/297405.got.cif
#   From: 2010.05.17/outbox.cif.g08.bks.cpg/sg15_149_cif.got.tgz:297405.got - 2010.06.03 18:47:42.
