data_PCOD9307799
_publ_section_title
;
Structure prediction by ZEFSAII (Michael W. Deem and Ramdas Pophale) SiO2 
 PCOD9307799
Probable space group: C 2/C
;
_chemical_formula_sum "Si O2"
_cell_formula_units_Z 44
_cell_length_a 21.526749
_cell_length_b 9.144056
_cell_length_c 26.326182
_cell_angle_alpha 90.000000
_cell_angle_beta 20.402305
_cell_angle_gamma 90.000000
_cell_volume 1806.528168
_symmetry_space_group_name_H-M "C 2/C"
_symmetry_group_IT_number 15
_symmetry_cell_setting 'monoclinic'
loop_
_space_group_symop_operation_xyz
x,y,z
-x,y,1/2-z
-x,-y,-z
x,-y,1/2+z
1/2+x,1/2+y,z
1/2-x,1/2+y,1/2-z
1/2-x,1/2-y,-z
1/2+x,1/2-y,1/2+z
loop_
_atom_site_type_symbol
_atom_site_label
_atom_site_fract_x
_atom_site_fract_y
_atom_site_fract_z
Si Si1 0.795050 0.702877 0.540807
Si Si2 0.300697 0.365245 0.884117
Si Si3 0.000000 0.439162 0.750000
Si Si4 0.431915 0.161264 0.708733
Si Si5 0.684154 0.706993 0.738274
Si Si6 0.323639 0.489466 0.669802
O O1 0.729803 0.537282 0.583160
O O2 0.666471 0.828244 0.617861
O O3 0.800200 0.709966 0.598492
O O4 0.990442 0.735265 0.370671
O O5 0.500000 0.333372 0.750000
O O6 0.312262 0.296839 0.819120
O O7 0.130517 0.290364 0.040637
O O8 0.043634 0.545340 0.763795
O O9 0.333719 0.074548 0.739246
O O10 0.656738 0.558201 0.789828
O O11 0.767416 0.821642 0.713563
O O12 0.500000 0.500000 0.500000
#
# Coordination Sequence:
#
# PCOD9307799 Si02
#       6
#     8   8   4   8   8   8
#     4  12  26  46  75 109 140 189 238 301 355 438
#     4  12  27  46  70 108 145 188 240 293 368 431
#     4  12  24  48  76 104 156 176 240 298 370 430
#     4  12  28  47  73 107 145 194 239 298 367 435
#     4  12  27  48  73 108 142 190 245 290 369 421
#     4  12  27  49  72 106 148 192 241 305 361 425
#
# _framework density 24.356110000000001
#
# number of rings (size 3 to 8) (size 9 to 14) (size 15 to 20)
#    0.000    0.000    7.273    0.545    7.636    2.182 
#    0.000    0.000    0.000    0.000    0.000    0.000 
#    0.000    0.000    0.000    0.000    0.000    0.000 
#
# Total GULP energy -123210.052446 kJ/mol
# GULP energy per Si atom -5600.456929 kJ/mol
# Density = 2.430067 g / cm^3
# Si number density = 24.356110 Si / 1000 Ang^3
#
#
#
# Elastic Constant Matrix: (Units=GPa)
#
#
# Indices 1 2 3 4 5 6 
#
# 1 70.6320 13.9038 -5.4149 0.0101 8.7047 -0.0006
# 2 13.9038 81.0231 6.7713 0.0161 4.9892 0.0013
# 3 -5.4149 6.7713 109.2670 0.0423 1.1086 0.0136
# 4 0.0101 0.0161 0.0423 34.3962 0.0027 6.6010
# 5 8.7047 4.9892 1.1086 0.0027 26.7238 -0.0031
# 6 -0.0006 0.0013 0.0136 6.6010 -0.0031 46.9244
#
#
#
# Elastic Compliance Matrix: (Units=1/GPa)
#
#
# Indices 1 2 3 4 5 6 
#
# 1 0.015269 -0.002419 0.000953 -0.000004 -0.004562 0.000000
# 2 -0.002419 0.012931 -0.000905 -0.000004 -0.001589 0.000000
# 3 0.000953 -0.000905 0.009261 -0.000011 -0.000526 -0.000001
# 4 -0.000004 -0.000004 -0.000011 0.029880 -0.000001 -0.004203
# 5 -0.004562 -0.001589 -0.000526 -0.000001 0.039224 0.000003
# 6 0.000000 0.000000 -0.000001 -0.004203 0.000003 0.021902
#
#
# Mechanical properties :
#
#
# Convention : Reuss Voigt Hill
#
# Bulk Modulus (GPa) = 30.56407 32.38250 31.47329
# Shear Modulus (GPa) = 34.69456 37.98634 36.34045
#
# Velocity S-wave (km/s) = 3.77831 3.95349 3.86689
# Velocity P-wave (km/s) = 5.62230 5.84503 5.73475
#
# Compressibility (1/GPa) = 0.03271815
#
# Stress axis : x y z
#
# Youngs Moduli (GPa) = 65.49097 77.33512 107.98503
#
# Poissons Ratio (x) = 0.18707 -0.10290
# Poissons Ratio (y) = 0.15842 0.09773
# Poissons Ratio (z) = -0.06241 0.06999
#
# Static dielectric constant tensor:
#      x y z
#    x 1.968190 0.000000 0.008010 
#    y 0.000000 1.917130 0.000010 
#    z 0.008010 0.000010 1.885220 
# 
# From -- ./inp_files/318544.got.cif
#   From: 2010.05.17/outbox.cif.g08.bks.cpg/sg15_160_cif.got.tgz:318544.got - 2010.06.03 18:47:42.
