data_PCOD9307966
_publ_section_title
;
Structure prediction by ZEFSAII (Michael W. Deem and Ramdas Pophale) SiO2 
 PCOD9307966
Probable space group: C 2/C
;
_chemical_formula_sum "Si O2"
_cell_formula_units_Z 40
_cell_length_a 22.998809
_cell_length_b 8.491770
_cell_length_c 9.106816
_cell_angle_alpha 90.000000
_cell_angle_beta 80.689447
_cell_angle_gamma 90.000000
_cell_volume 1755.135643
_symmetry_space_group_name_H-M "C 2/C"
_symmetry_group_IT_number 15
_symmetry_cell_setting 'monoclinic'
loop_
_space_group_symop_operation_xyz
x,y,z
-x,y,1/2-z
-x,-y,-z
x,-y,1/2+z
1/2+x,1/2+y,z
1/2-x,1/2+y,1/2-z
1/2-x,1/2-y,-z
1/2+x,1/2-y,1/2+z
loop_
_atom_site_type_symbol
_atom_site_label
_atom_site_fract_x
_atom_site_fract_y
_atom_site_fract_z
Si Si1 0.733756 0.177120 0.852347
Si Si2 0.387078 0.658540 0.119722
Si Si3 0.800117 0.682677 0.085862
Si Si4 0.513234 0.166577 0.070177
Si Si5 0.587300 0.340609 0.557313
O O1 0.678071 0.278164 0.819684
O O2 0.791030 0.207635 0.730945
O O3 0.714791 0.996508 0.869228
O O4 0.750000 0.250000 0.000000
O O5 0.387726 0.498586 0.026692
O O6 0.418787 0.640666 0.265080
O O7 0.421086 0.782732 0.001965
O O8 0.864362 0.704906 0.992751
O O9 0.750000 0.750000 0.000000
O O10 0.500000 0.163370 0.250000
O O11 0.471217 0.292550 0.005713
O O12 0.500000 0.000000 0.000000
#
# Coordination Sequence:
#
# PCOD9307966 Si02
#       5
#     8   8   8   8   8
#     4  12  27  43  74 102 146 189 240 299 360 436
#     4  12  26  47  72 106 141 190 240 299 364 429
#     4  12  25  47  68 106 142 189 241 294 364 432
#     4  12  27  48  75 105 142 187 240 298 362 428
#     4  12  26  46  74 102 147 185 243 299 360 435
#
# _framework density 22.790262999999999
#
# number of rings (size 3 to 8) (size 9 to 14) (size 15 to 20)
#    0.000    0.000    2.000    8.400    5.600    0.000 
#    0.000    0.000    0.000    0.000    0.000    0.000 
#    0.000    0.000    0.000    0.000    0.000    0.000 
#
# Total GULP energy -112020.083360 kJ/mol
# GULP energy per Si atom -5601.004168 kJ/mol
# Density = 2.273839 g / cm^3
# Si number density = 22.790263 Si / 1000 Ang^3
#
#
#
# Elastic Constant Matrix: (Units=GPa)
#
#
# Indices 1 2 3 4 5 6 
#
# 1 51.0396 -8.8654 8.1998 0.0000 -4.0696 0.0000
# 2 -8.8654 135.7278 18.0550 0.0000 -8.3583 0.0000
# 3 8.1998 18.0550 180.9063 0.0000 0.5117 0.0000
# 4 0.0000 0.0000 0.0000 28.2288 0.0000 -3.3005
# 5 -4.0696 -8.3583 0.5117 0.0000 42.2077 0.0000
# 6 0.0000 0.0000 0.0000 -3.3005 0.0000 37.3696
#
#
#
# Elastic Compliance Matrix: (Units=1/GPa)
#
#
# Indices 1 2 3 4 5 6 
#
# 1 0.020228 0.001606 -0.001084 0.000000 0.002281 0.000000
# 2 0.001606 0.007689 -0.000845 0.000000 0.001688 0.000000
# 3 -0.001084 -0.000845 0.005662 0.000000 -0.000340 0.000000
# 4 0.000000 0.000000 0.000000 0.035794 0.000000 0.003161
# 5 0.002281 0.001688 -0.000340 0.000000 0.024251 0.000000
# 6 0.000000 0.000000 0.000000 0.003161 0.000000 0.027039
#
#
# Mechanical properties :
#
#
# Convention : Reuss Voigt Hill
#
# Bulk Modulus (GPa) = 30.36442 44.71693 37.54068
# Shear Modulus (GPa) = 37.79702 44.91353 41.35528
#
# Velocity S-wave (km/s) = 4.07685 4.44411 4.26444
# Velocity P-wave (km/s) = 5.95930 6.78212 6.38398
#
# Compressibility (1/GPa) = 0.03293328
#
# Stress axis : x y z
#
# Youngs Moduli (GPa) = 49.43756 130.05755 176.61207
#
# Poissons Ratio (x) = -0.20885 0.19137
# Poissons Ratio (y) = -0.07939 0.14923
# Poissons Ratio (z) = 0.05357 0.10989
#
# Static dielectric constant tensor:
#      x y z
#    x 1.849720 0.000000 0.001270 
#    y 0.000000 3.107780 0.000000 
#    z 0.001270 0.000000 1.809340 
# 
# From -- ./inp_files/59904.got.cif
#   From: 2010.05.17/outbox.cif.g08.bks.cpg/sg15_30_cif.got.tgz:59904.got - 2010.06.03 18:47:42.
