data_PCOD9307294
_publ_section_title
;
Structure prediction by ZEFSAII (Michael W. Deem and Ramdas Pophale) SiO2 
 PCOD9307294
Probable space group: C 2/C
;
_chemical_formula_sum "Si O2"
_cell_formula_units_Z 32
_cell_length_a 8.084665
_cell_length_b 17.958432
_cell_length_c 10.277642
_cell_angle_alpha 90.000000
_cell_angle_beta 60.066072
_cell_angle_gamma 90.000000
_cell_volume 1293.133382
_symmetry_space_group_name_H-M "C 2/C"
_symmetry_group_IT_number 15
_symmetry_cell_setting 'monoclinic'
loop_
_space_group_symop_operation_xyz
x,y,z
-x,y,1/2-z
-x,-y,-z
x,-y,1/2+z
1/2+x,1/2+y,z
1/2-x,1/2+y,1/2-z
1/2-x,1/2-y,-z
1/2+x,1/2-y,1/2+z
loop_
_atom_site_type_symbol
_atom_site_label
_atom_site_fract_x
_atom_site_fract_y
_atom_site_fract_z
Si Si1 0.500000 0.609517 0.750000
Si Si2 0.833971 0.021573 0.466971
Si Si3 0.500000 0.037658 0.250000
Si Si4 0.290697 0.847635 0.639082
Si Si5 0.177438 0.276185 0.382948
O O1 0.647566 0.548865 0.634195
O O2 0.661391 0.667121 0.736850
O O3 0.840914 0.102675 0.403064
O O4 0.635881 0.014497 0.615594
O O5 0.000000 0.000000 0.500000
O O6 0.615690 0.091110 0.301147
O O7 0.186440 0.790087 0.775476
O O8 0.466846 0.809532 0.491328
O O9 0.250000 0.250000 0.500000
#
# Coordination Sequence:
#
# PCOD9307294 Si02
#       5
#     4   8   4   8   8
#     4  12  23  46  80 113 160 218 264 348 419 480
#     4  12  29  48  77 117 167 221 290 341 404 495
#     4  12  23  46  84 115 158 214 286 336 417 492
#     4  12  25  48  83 121 163 219 272 342 420 502
#     4  12  22  45  84 122 165 210 266 343 428 503
#
# _framework density 24.746092000000001
#
# number of rings (size 3 to 8) (size 9 to 14) (size 15 to 20)
#    0.000    0.000    7.500    2.250    3.500    0.000 
#    0.000    1.250   16.500    0.000    0.000    0.000 
#    0.000    0.000    0.000    0.000    0.000    0.000 
#
# Total GULP energy -89450.664992 kJ/mol
# GULP energy per Si atom -5590.666562 kJ/mol
# Density = 2.468977 g / cm^3
# Si number density = 24.746092 Si / 1000 Ang^3
#
#
#
# Elastic Constant Matrix: (Units=GPa)
#
#
# Indices 1 2 3 4 5 6 
#
# 1 83.2707 82.4251 41.5474 0.0000 -1.1973 0.0000
# 2 82.4251 196.5570 95.5939 0.0000 -2.1751 0.0000
# 3 41.5474 95.5939 161.1553 0.0000 -30.7584 0.0000
# 4 0.0000 0.0000 0.0000 58.5930 0.0000 -8.4043
# 5 -1.1973 -2.1751 -30.7584 0.0000 23.7065 0.0000
# 6 0.0000 0.0000 0.0000 -8.4043 0.0000 64.6360
#
#
#
# Elastic Compliance Matrix: (Units=1/GPa)
#
#
# Indices 1 2 3 4 5 6 
#
# 1 0.020539 -0.008472 -0.000293 0.000000 -0.000120 0.000000
# 2 -0.008472 0.011471 -0.005982 0.000000 -0.007137 0.000000
# 3 -0.000293 -0.005982 0.012921 0.000000 0.016201 0.000000
# 4 0.000000 0.000000 0.000000 0.017391 0.000000 0.002261
# 5 -0.000120 -0.007137 0.016201 0.000000 0.062542 0.000000
# 6 0.000000 0.000000 0.000000 0.002261 0.000000 0.015765
#
#
# Mechanical properties :
#
#
# Convention : Reuss Voigt Hill
#
# Bulk Modulus (GPa) = 64.77681 97.79067 81.28374
# Shear Modulus (GPa) = 28.52739 44.14821 36.33780
#
# Velocity S-wave (km/s) = 3.39898 4.22838 3.83616
# Velocity P-wave (km/s) = 6.45271 7.96507 7.24844
#
# Compressibility (1/GPa) = 0.01543762
#
# Stress axis : x y z
#
# Youngs Moduli (GPa) = 48.68701 87.17839 77.39095
#
# Poissons Ratio (x) = 0.73858 0.02265
# Poissons Ratio (y) = 0.41248 0.46297
# Poissons Ratio (z) = 0.01425 0.52152
#
# Static dielectric constant tensor:
#      x y z
#    x 2.029830 0.000000 0.071350 
#    y 0.000000 1.828660 0.000000 
#    z 0.071350 0.000000 1.985090 
# 
# From -- ./inp_files/76268.got.cif
#   From: 2010.05.17/outbox.cif.g08.bks.cpg/sg15_39_cif.got.tgz:76268.got - 2010.06.03 18:47:42.
