data_PCOD9307201
_publ_section_title
;
Structure prediction by ZEFSAII (Michael W. Deem and Ramdas Pophale) SiO2 
 PCOD9307201
Probable space group: C 2/C
;
_chemical_formula_sum "Si O2"
_cell_formula_units_Z 40
_cell_length_a 7.783565
_cell_length_b 25.360003
_cell_length_c 10.074011
_cell_angle_alpha 90.000000
_cell_angle_beta 87.622784
_cell_angle_gamma 90.000000
_cell_volume 1986.810125
_symmetry_space_group_name_H-M "C 2/C"
_symmetry_group_IT_number 15
_symmetry_cell_setting 'monoclinic'
loop_
_space_group_symop_operation_xyz
x,y,z
-x,y,1/2-z
-x,-y,-z
x,-y,1/2+z
1/2+x,1/2+y,z
1/2-x,1/2+y,1/2-z
1/2-x,1/2-y,-z
1/2+x,1/2-y,1/2+z
loop_
_atom_site_type_symbol
_atom_site_label
_atom_site_fract_x
_atom_site_fract_y
_atom_site_fract_z
Si Si1 0.794092 0.210239 0.271378
Si Si2 0.819476 0.627775 0.446788
Si Si3 0.296165 0.871561 0.513832
Si Si4 0.989049 0.950827 0.597655
Si Si5 0.796677 0.832072 0.262552
O O1 0.710841 0.173516 0.160611
O O2 0.742275 0.184163 0.412671
O O3 0.734736 0.269978 0.257169
O O4 0.000000 0.207608 0.250000
O O5 0.686662 0.581417 0.418657
O O6 0.774370 0.650716 0.593007
O O7 0.017198 0.610402 0.443405
O O8 0.145789 0.910919 0.562460
O O9 0.290664 0.862612 0.356675
O O10 0.000000 0.967809 0.750000
O O11 0.000000 0.000000 0.500000
O O12 0.000000 0.842816 0.250000
#
# Coordination Sequence:
#
# PCOD9307201 Si02
#       5
#     8   8   8   8   8
#     4  12  22  42  66 102 143 189 232 276 344 413
#     4  12  24  45  69 100 142 182 229 291 343 411
#     4  12  24  45  69 100 142 182 229 291 343 411
#     4  12  28  50  76 102 136 184 234 294 355 402
#     4  12  24  40  66 104 145 187 230 278 336 421
#
# _framework density 20.132776
#
# number of rings (size 3 to 8) (size 9 to 14) (size 15 to 20)
#    0.000    0.000    6.000    4.800    2.800    0.800 
#    0.000    0.000    0.000    0.000    0.000    0.000 
#    0.000    0.000    0.000    0.000    0.000    0.000 
#
# Total GULP energy -112034.396307 kJ/mol
# GULP energy per Si atom -5601.719815 kJ/mol
# Density = 2.008695 g / cm^3
# Si number density = 20.132776 Si / 1000 Ang^3
#
#
#
# Elastic Constant Matrix: (Units=GPa)
#
#
# Indices 1 2 3 4 5 6 
#
# 1 144.6855 17.4956 -0.0192 0.0000 31.4791 0.0000
# 2 17.4956 70.2738 32.0558 0.0000 9.5344 0.0000
# 3 -0.0192 32.0558 133.8474 0.0000 11.6360 0.0000
# 4 0.0000 0.0000 0.0000 36.4128 0.0000 -4.3375
# 5 31.4791 9.5344 11.6360 0.0000 30.8745 0.0000
# 6 0.0000 0.0000 0.0000 -4.3375 0.0000 5.7993
#
#
#
# Elastic Compliance Matrix: (Units=1/GPa)
#
#
# Indices 1 2 3 4 5 6 
#
# 1 0.009113 -0.001550 0.001177 0.000000 -0.009257 0.000000
# 2 -0.001550 0.016638 -0.003800 0.000000 -0.002125 0.000000
# 3 0.001177 -0.003800 0.008668 0.000000 -0.003293 0.000000
# 4 0.000000 0.000000 0.000000 0.030149 0.000000 0.022550
# 5 -0.009257 -0.002125 -0.003293 0.000000 0.043725 0.000000
# 6 0.000000 0.000000 0.000000 0.022550 0.000000 0.189299
#
#
# Mechanical properties :
#
#
# Convention : Reuss Voigt Hill
#
# Bulk Modulus (GPa) = 38.35392 49.76344 44.05868
# Shear Modulus (GPa) = 15.89178 34.56896 25.23037
#
# Velocity S-wave (km/s) = 2.81258 4.14822 3.54390
# Velocity P-wave (km/s) = 5.44420 6.90760 6.21910
#
# Compressibility (1/GPa) = 0.02607295
#
# Stress axis : x y z
#
# Youngs Moduli (GPa) = 109.73273 60.10434 115.36966
#
# Poissons Ratio (x) = 0.09316 -0.13582
# Poissons Ratio (y) = 0.17008 0.43842
# Poissons Ratio (z) = -0.12918 0.22840
#
# Static dielectric constant tensor:
#      x y z
#    x 1.875410 0.000000 -0.024540 
#    y 0.000000 1.663200 0.000000 
#    z -0.024540 0.000000 1.704140 
# 
# From -- ./inp_files/23735.got.cif
#   From: 2010.05.17/outbox.cif.g08.bks.cpg/sg15_12_cif.got.tgz:23735.got - 2010.06.03 18:47:42.
