data_PCOD9307213
_publ_section_title
;
Structure prediction by ZEFSAII (Michael W. Deem and Ramdas Pophale) SiO2 
 PCOD9307213
Probable space group: C 2/C
;
_chemical_formula_sum "Si O2"
_cell_formula_units_Z 48
_cell_length_a 12.299878
_cell_length_b 25.285962
_cell_length_c 10.007050
_cell_angle_alpha 90.000000
_cell_angle_beta 38.188101
_cell_angle_gamma 90.000000
_cell_volume 1924.186184
_symmetry_space_group_name_H-M "C 2/C"
_symmetry_group_IT_number 15
_symmetry_cell_setting 'monoclinic'
loop_
_space_group_symop_operation_xyz
x,y,z
-x,y,1/2-z
-x,-y,-z
x,-y,1/2+z
1/2+x,1/2+y,z
1/2-x,1/2+y,1/2-z
1/2-x,1/2-y,-z
1/2+x,1/2-y,1/2+z
loop_
_atom_site_type_symbol
_atom_site_label
_atom_site_fract_x
_atom_site_fract_y
_atom_site_fract_z
Si Si1 0.643980 0.304843 0.295345
Si Si2 0.200274 0.484148 0.285930
Si Si3 0.077571 0.618008 0.040038
Si Si4 0.750382 0.687698 0.275909
Si Si5 0.801461 0.328088 0.436712
Si Si6 0.194314 0.943003 0.586864
O O1 0.441571 0.322166 0.476026
O O2 0.664854 0.242266 0.256120
O O3 0.712429 0.317622 0.380526
O O4 0.784929 0.334892 0.066530
O O5 0.193667 0.424371 0.347457
O O6 0.303268 0.525808 0.276855
O O7 0.000000 0.500000 0.500000
O O8 0.255623 0.483238 0.079386
O O9 0.000000 0.593493 0.250000
O O10 0.903186 0.643280 0.140670
O O11 0.709126 0.694705 0.157396
O O12 0.809945 0.391183 0.456975
O O13 0.000000 0.307046 0.250000
O O14 0.000000 0.922399 0.750000
#
# Coordination Sequence:
#
# PCOD9307213 Si02
#       6
#     8   8   8   8   8   8
#     4  12  24  45  69 106 140 183 236 290 352 421
#     4  12  25  48  73 101 141 191 235 294 362 422
#     4  12  27  48  70 100 142 188 243 289 354 425
#     4  12  24  44  72 103 142 185 233 292 353 419
#     4  12  22  42  72 105 143 182 227 292 358 423
#     4  12  25  44  72 107 145 183 239 295 357 426
#
# _framework density 24.945609999999999
#
# number of rings (size 3 to 8) (size 9 to 14) (size 15 to 20)
#    0.000    0.000    5.000    6.000    0.000    1.333 
#    6.000    0.000    0.000    0.000    0.000    0.000 
#    0.000    0.000    0.000    0.000    0.000    0.000 
#
# Total GULP energy -134407.636855 kJ/mol
# GULP energy per Si atom -5600.318202 kJ/mol
# Density = 2.488883 g / cm^3
# Si number density = 24.945610 Si / 1000 Ang^3
#
#
#
# Elastic Constant Matrix: (Units=GPa)
#
#
# Indices 1 2 3 4 5 6 
#
# 1 74.4384 14.3815 11.5400 0.0000 -22.3823 0.0000
# 2 14.3815 87.4769 -20.5960 0.0000 -3.6901 0.0000
# 3 11.5400 -20.5960 96.0228 0.0000 -21.4054 0.0000
# 4 0.0000 0.0000 0.0000 29.5931 0.0000 4.1998
# 5 -22.3823 -3.6901 -21.4054 0.0000 53.2311 0.0000
# 6 0.0000 0.0000 0.0000 4.1998 0.0000 25.4311
#
#
#
# Elastic Compliance Matrix: (Units=1/GPa)
#
#
# Indices 1 2 3 4 5 6 
#
# 1 0.015941 -0.002630 -0.001128 0.000000 0.006067 0.000000
# 2 -0.002630 0.012682 0.003280 0.000000 0.001092 0.000000
# 3 -0.001128 0.003280 0.012301 0.000000 0.004700 0.000000
# 4 0.000000 0.000000 0.000000 0.034603 0.000000 -0.005714
# 5 0.006067 0.001092 0.004700 0.000000 0.023303 0.000000
# 6 0.000000 0.000000 0.000000 -0.005714 0.000000 0.040266
#
#
# Mechanical properties :
#
#
# Convention : Reuss Voigt Hill
#
# Bulk Modulus (GPa) = 25.01987 29.84324 27.43156
# Shear Modulus (GPa) = 32.60005 38.49190 35.54597
#
# Velocity S-wave (km/s) = 3.61895 3.93241 3.77893
# Velocity P-wave (km/s) = 5.24538 5.71032 5.48278
#
# Compressibility (1/GPa) = 0.03996823
#
# Stress axis : x y z
#
# Youngs Moduli (GPa) = 62.73069 78.85006 81.29522
#
# Poissons Ratio (x) = 0.20740 0.09166
# Poissons Ratio (y) = 0.16500 -0.26663
# Poissons Ratio (z) = 0.07073 -0.25861
#
# Static dielectric constant tensor:
#      x y z
#    x 2.006510 0.000000 0.064800 
#    y 0.000000 3.217940 0.000000 
#    z 0.064800 0.000000 1.951630 
# 
# From -- ./inp_files/101217.got.cif
#   From: 2010.05.17/outbox.cif.g08.bks.cpg/sg15_51_cif.got.tgz:101217.got - 2010.06.03 18:47:42.
