data_PCOD9307713
_publ_section_title
;
Structure prediction by ZEFSAII (Michael W. Deem and Ramdas Pophale) SiO2 
 PCOD9307713
Probable space group: C 2/C
;
_chemical_formula_sum "Si O2"
_cell_formula_units_Z 40
_cell_length_a 18.089726
_cell_length_b 16.243776
_cell_length_c 12.564985
_cell_angle_alpha 90.000000
_cell_angle_beta 29.580179
_cell_angle_gamma 90.000000
_cell_volume 1822.603568
_symmetry_space_group_name_H-M "C 2/C"
_symmetry_group_IT_number 15
_symmetry_cell_setting 'monoclinic'
loop_
_space_group_symop_operation_xyz
x,y,z
-x,y,1/2-z
-x,-y,-z
x,-y,1/2+z
1/2+x,1/2+y,z
1/2-x,1/2+y,1/2-z
1/2-x,1/2-y,-z
1/2+x,1/2-y,1/2+z
loop_
_atom_site_type_symbol
_atom_site_label
_atom_site_fract_x
_atom_site_fract_y
_atom_site_fract_z
Si Si1 0.449790 0.779274 0.610823
Si Si2 0.373364 0.818216 0.320260
Si Si3 0.000000 0.965474 0.250000
Si Si4 0.500000 0.103155 0.250000
Si Si5 0.740614 0.530910 0.093589
Si Si6 0.662650 0.357776 0.893636
O O1 0.559523 0.809373 0.380089
O O2 0.463436 0.837451 0.696357
O O3 0.506361 0.687398 0.563804
O O4 0.283743 0.788359 0.771478
O O5 0.500000 0.805715 0.250000
O O6 0.250000 0.750000 0.500000
O O7 0.309403 0.908493 0.419008
O O8 0.866891 0.912184 0.466201
O O9 0.076033 0.010704 0.254382
O O10 0.357289 0.044510 0.457177
O O11 0.722686 0.585077 0.223175
#
# Coordination Sequence:
#
# PCOD9307713 Si02
#       6
#     8   8   4   4   8   8
#     4  12  26  47  77 107 149 193 249 298 372 445
#     4  12  24  46  72 106 144 190 244 300 369 440
#     4  12  29  46  71 106 148 192 248 306 373 436
#     4  12  27  46  77 108 150 198 238 312 371 446
#     4  12  26  47  71 108 146 190 245 309 373 431
#     4  12  27  49  72 108 148 196 246 306 367 447
#
# _framework density 21.946626999999999
#
# number of rings (size 3 to 8) (size 9 to 14) (size 15 to 20)
#    0.000    0.000    7.000    1.200    7.000    4.800 
#    0.000    0.000    0.000    0.000    0.000    0.000 
#    0.000    0.000    0.000    0.000    0.000    0.000 
#
# Total GULP energy -111899.956455 kJ/mol
# GULP energy per Si atom -5594.997823 kJ/mol
# Density = 2.189668 g / cm^3
# Si number density = 21.946627 Si / 1000 Ang^3
#
#
#
# Elastic Constant Matrix: (Units=GPa)
#
#
# Indices 1 2 3 4 5 6 
#
# 1 86.2804 21.6852 41.8486 0.0002 4.8252 0.0000
# 2 21.6852 48.6293 14.5696 0.0000 6.2975 0.0001
# 3 41.8486 14.5696 44.0349 0.0001 -13.1025 0.0002
# 4 0.0002 0.0000 0.0001 48.2367 0.0000 -10.9952
# 5 4.8252 6.2975 -13.1025 0.0000 39.3711 0.0000
# 6 0.0000 0.0001 0.0002 -10.9952 0.0000 6.1414
#
#
#
# Elastic Compliance Matrix: (Units=1/GPa)
#
#
# Indices 1 2 3 4 5 6 
#
# 1 0.026371 -0.001727 -0.028158 0.000000 -0.012327 0.000002
# 2 -0.001727 0.024731 -0.008497 0.000000 -0.006572 0.000000
# 3 -0.028158 -0.008497 0.059615 -0.000001 0.024650 -0.000003
# 4 0.000000 0.000000 -0.000001 0.035025 0.000000 0.062706
# 5 -0.012327 -0.006572 0.024650 0.000000 0.036164 -0.000001
# 6 0.000002 0.000000 -0.000003 0.062706 -0.000001 0.275094
#
#
# Mechanical properties :
#
#
# Convention : Reuss Voigt Hill
#
# Bulk Modulus (GPa) = 29.45236 37.23906 33.34571
# Shear Modulus (GPa) = 9.17296 25.47259 17.32277
#
# Velocity S-wave (km/s) = 2.04664 3.41054 2.81252
# Velocity P-wave (km/s) = 4.36281 5.70210 5.07681
#
# Compressibility (1/GPa) = 0.03395314
#
# Stress axis : x y z
#
# Youngs Moduli (GPa) = 37.92041 40.43589 16.77434
#
# Poissons Ratio (x) = 0.06983 0.47233
# Poissons Ratio (y) = 0.06549 0.14252
# Poissons Ratio (z) = 1.06776 0.34357
#
# Static dielectric constant tensor:
#      x y z
#    x 2.105710 0.000000 -0.608110 
#    y 0.000000 1.711330 0.000000 
#    z -0.608110 0.000000 2.864990 
# 
# From -- ./inp_files/37923.got.cif
#   From: 2010.05.17/outbox.cif.g08.bks.cpg/sg15_19_cif.got.tgz:37923.got - 2010.06.03 18:47:42.
