data_PCOD9307587
_publ_section_title
;
Structure prediction by ZEFSAII (Michael W. Deem and Ramdas Pophale) SiO2 
 PCOD9307587
Probable space group: C 2/C
;
_chemical_formula_sum "Si O2"
_cell_formula_units_Z 36
_cell_length_a 10.692761
_cell_length_b 15.648469
_cell_length_c 18.176385
_cell_angle_alpha 90.000000
_cell_angle_beta 149.938919
_cell_angle_gamma 90.000000
_cell_volume 1523.491938
_symmetry_space_group_name_H-M "C 2/C"
_symmetry_group_IT_number 15
_symmetry_cell_setting 'monoclinic'
loop_
_space_group_symop_operation_xyz
x,y,z
-x,y,1/2-z
-x,-y,-z
x,-y,1/2+z
1/2+x,1/2+y,z
1/2-x,1/2+y,1/2-z
1/2-x,1/2-y,-z
1/2+x,1/2-y,1/2+z
loop_
_atom_site_type_symbol
_atom_site_label
_atom_site_fract_x
_atom_site_fract_y
_atom_site_fract_z
Si Si1 0.856951 0.324189 0.605090
Si Si2 0.338263 0.583284 0.075586
Si Si3 0.845416 0.109797 0.903608
Si Si4 0.500000 0.261109 0.750000
Si Si5 0.141012 0.480261 0.683451
O O1 0.750000 0.250000 0.500000
O O2 0.623603 0.379462 0.515353
O O3 0.000000 0.290410 0.750000
O O4 0.036859 0.387475 0.652018
O O5 0.356848 0.675763 0.122172
O O6 0.596906 0.533525 0.224103
O O7 0.340815 0.595712 0.988461
O O8 0.085954 0.533513 0.967214
O O9 0.695220 0.197264 0.811111
O O10 0.713155 0.033514 0.793216
#
# Coordination Sequence:
#
# PCOD9307587 Si02
#       5
#     8   8   8   4   8
#     4  12  26  45  72 108 147 190 244 303 367 432
#     4  12  25  45  72 101 142 182 242 295 363 425
#     4  12  24  42  76 100 135 189 250 284 351 446
#     4  12  28  44  68 106 144 184 230 312 362 418
#     4  12  24  46  76 101 136 193 241 294 354 447
#
# _framework density 23.629925
#
# number of rings (size 3 to 8) (size 9 to 14) (size 15 to 20)
#    0.000    0.000    6.667    4.000    0.000    0.889 
#    2.000    0.000    0.000    0.000    0.000    0.000 
#    0.000    0.000    0.000    0.000    0.000    0.000 
#
# Total GULP energy -100933.193729 kJ/mol
# GULP energy per Si atom -5607.399652 kJ/mol
# Density = 2.357614 g / cm^3
# Si number density = 23.629925 Si / 1000 Ang^3
#
#
#
# Elastic Constant Matrix: (Units=GPa)
#
#
# Indices 1 2 3 4 5 6 
#
# 1 79.9794 37.5083 39.0424 0.0011 10.2441 0.0010
# 2 37.5083 161.2278 76.1909 0.0007 -15.7505 0.0007
# 3 39.0424 76.1909 160.8098 0.0021 7.2394 0.0019
# 4 0.0011 0.0007 0.0021 67.9285 0.0014 -7.4152
# 5 10.2441 -15.7505 7.2394 0.0014 43.1074 0.0012
# 6 0.0010 0.0007 0.0019 -7.4152 0.0012 29.3160
#
#
#
# Elastic Compliance Matrix: (Units=1/GPa)
#
#
# Indices 1 2 3 4 5 6 
#
# 1 0.015540 -0.003043 -0.002131 0.000000 -0.004447 0.000000
# 2 -0.003043 0.009177 -0.003822 0.000000 0.004718 0.000000
# 3 -0.002131 -0.003822 0.008652 0.000000 -0.002343 0.000000
# 4 0.000000 0.000000 0.000000 0.015139 -0.000001 0.003829
# 5 -0.004447 0.004718 -0.002343 -0.000001 0.026372 -0.000001
# 6 0.000000 0.000000 0.000000 0.003829 -0.000001 0.035080
#
#
# Mechanical properties :
#
#
# Convention : Reuss Voigt Hill
#
# Bulk Modulus (GPa) = 65.02662 78.61112 71.81887
# Shear Modulus (GPa) = 37.57210 44.68874 41.13042
#
# Velocity S-wave (km/s) = 3.99183 4.35350 4.17658
# Velocity P-wave (km/s) = 6.98748 7.65575 7.32923
#
# Compressibility (1/GPa) = 0.01537832
#
# Stress axis : x y z
#
# Youngs Moduli (GPa) = 64.35011 108.96573 115.57773
#
# Poissons Ratio (x) = 0.33153 0.24632
# Poissons Ratio (y) = 0.19579 0.44172
# Poissons Ratio (z) = 0.13714 0.41645
#
# Static dielectric constant tensor:
#      x y z
#    x 1.919860 0.000000 -0.008800 
#    y 0.000000 1.843420 0.000000 
#    z -0.008800 0.000000 1.940450 
# 
# From -- ./inp_files/39459.got.cif
#   From: 2010.05.17/outbox.cif.g08.bks.cpg/sg15_20_cif.got.tgz:39459.got - 2010.06.03 18:47:42.
