data_PCOD9307470
_publ_section_title
;
Structure prediction by ZEFSAII (Michael W. Deem and Ramdas Pophale) SiO2 
 PCOD9307470
Probable space group: C 2/C
;
_chemical_formula_sum "Si O2"
_cell_formula_units_Z 52
_cell_length_a 25.074278
_cell_length_b 9.219836
_cell_length_c 13.410401
_cell_angle_alpha 90.000000
_cell_angle_beta 131.596126
_cell_angle_gamma 90.000000
_cell_volume 2318.482478
_symmetry_space_group_name_H-M "C 2/C"
_symmetry_group_IT_number 15
_symmetry_cell_setting 'monoclinic'
loop_
_space_group_symop_operation_xyz
x,y,z
-x,y,1/2-z
-x,-y,-z
x,-y,1/2+z
1/2+x,1/2+y,z
1/2-x,1/2+y,1/2-z
1/2-x,1/2-y,-z
1/2+x,1/2-y,1/2+z
loop_
_atom_site_type_symbol
_atom_site_label
_atom_site_fract_x
_atom_site_fract_y
_atom_site_fract_z
Si Si1 0.655710 0.556518 0.574734
Si Si2 0.500000 0.943474 0.250000
Si Si3 0.048681 0.299756 0.516417
Si Si4 0.620302 0.111596 0.293119
Si Si5 0.924379 0.070628 0.710030
Si Si6 0.092400 0.837337 0.642465
Si Si7 0.286579 0.140380 0.623728
O O1 0.606842 0.679268 0.562504
O O2 0.624090 0.516255 0.428101
O O3 0.643445 0.414876 0.626427
O O4 0.734653 0.614771 0.652999
O O5 0.520401 0.855042 0.374695
O O6 0.567212 0.040868 0.306190
O O7 0.086810 0.408339 0.640266
O O8 0.979729 0.234811 0.487877
O O9 0.616496 0.283274 0.308289
O O10 0.692897 0.020133 0.390206
O O11 0.000000 0.101152 0.750000
O O12 0.934245 0.961103 0.814247
O O13 0.139767 0.717931 0.756235
O O14 0.250000 0.250000 0.500000
#
# Coordination Sequence:
#
# PCOD9307470 Si02
#       7
#     8   4   8   8   8   8   8
#     4  12  26  43  74 102 146 192 236 303 368 446
#     4  12  24  42  72 108 142 186 232 312 370 412
#     4  12  24  47  74 109 142 193 250 309 365 441
#     4  12  27  44  73 109 144 183 251 308 361 442
#     4  12  23  45  75 111 140 188 249 303 368 432
#     4  12  25  46  74 106 143 192 249 301 365 447
#     4  12  28  51  68 102 149 199 240 301 381 445
#
# _framework density 22.428464000000002
#
# number of rings (size 3 to 8) (size 9 to 14) (size 15 to 20)
#    0.000    0.000    6.923    3.692    2.154    0.615 
#    2.769    0.000    0.000    0.000    0.000    0.000 
#    0.000    0.000    0.000    0.000    0.000    0.000 
#
# Total GULP energy -145486.950537 kJ/mol
# GULP energy per Si atom -5595.651944 kJ/mol
# Density = 2.237742 g / cm^3
# Si number density = 22.428464 Si / 1000 Ang^3
#
#
#
# Elastic Constant Matrix: (Units=GPa)
#
#
# Indices 1 2 3 4 5 6 
#
# 1 104.5590 35.1988 19.3271 0.0000 13.1963 0.0000
# 2 35.1988 95.7348 21.2603 0.0000 13.3959 0.0000
# 3 19.3271 21.2603 49.4183 0.0000 -1.8801 0.0000
# 4 0.0000 0.0000 0.0000 35.8067 0.0000 -1.0050
# 5 13.1963 13.3959 -1.8801 0.0000 38.5115 0.0000
# 6 0.0000 0.0000 0.0000 -1.0050 0.0000 50.6922
#
#
#
# Elastic Compliance Matrix: (Units=1/GPa)
#
#
# Indices 1 2 3 4 5 6 
#
# 1 0.011609 -0.003102 -0.003322 0.000000 -0.003061 0.000000
# 2 -0.003102 0.013123 -0.004574 0.000000 -0.003725 0.000000
# 3 -0.003322 -0.004574 0.023650 0.000000 0.003884 0.000000
# 4 0.000000 0.000000 0.000000 0.027943 0.000000 0.000554
# 5 -0.003061 -0.003725 0.003884 0.000000 0.028501 0.000000
# 6 0.000000 0.000000 0.000000 0.000554 0.000000 0.019738
#
#
# Mechanical properties :
#
#
# Convention : Reuss Voigt Hill
#
# Bulk Modulus (GPa) = 37.89965 44.58718 41.24341
# Shear Modulus (GPa) = 32.18425 36.59712 34.39069
#
# Velocity S-wave (km/s) = 3.79221 4.04385 3.92005
# Velocity P-wave (km/s) = 6.00909 6.45960 6.23842
#
# Compressibility (1/GPa) = 0.02638547
#
# Stress axis : x y z
#
# Youngs Moduli (GPa) = 86.14282 76.20123 42.28285
#
# Poissons Ratio (x) = 0.23639 0.14046
# Poissons Ratio (y) = 0.26723 0.19341
# Poissons Ratio (z) = 0.28616 0.34856
#
# Static dielectric constant tensor:
#      x y z
#    x 1.825290 0.000000 -0.015010 
#    y 0.000000 1.840520 0.000000 
#    z -0.015010 0.000000 1.826190 
# 
# From -- ./inp_files/176714.got.cif
#   From: 2010.05.17/outbox.cif.g08.bks.cpg/sg15_89_cif.got.tgz:176714.got - 2010.06.03 18:47:42.
