data_PCOD9307364
_publ_section_title
;
Structure prediction by ZEFSAII (Michael W. Deem and Ramdas Pophale) SiO2 
 PCOD9307364
Probable space group: C 2/C
;
_chemical_formula_sum "Si O2"
_cell_formula_units_Z 48
_cell_length_a 30.568525
_cell_length_b 13.535528
_cell_length_c 8.732872
_cell_angle_alpha 90.000000
_cell_angle_beta 39.008867
_cell_angle_gamma 90.000000
_cell_volume 2274.372360
_symmetry_space_group_name_H-M "C 2/C"
_symmetry_group_IT_number 15
_symmetry_cell_setting 'monoclinic'
loop_
_space_group_symop_operation_xyz
x,y,z
-x,y,1/2-z
-x,-y,-z
x,-y,1/2+z
1/2+x,1/2+y,z
1/2-x,1/2+y,1/2-z
1/2-x,1/2-y,-z
1/2+x,1/2-y,1/2+z
loop_
_atom_site_type_symbol
_atom_site_label
_atom_site_fract_x
_atom_site_fract_y
_atom_site_fract_z
Si Si1 0.734363 0.959458 0.150149
Si Si2 0.428294 0.638614 0.865265
Si Si3 0.307716 0.186792 0.243011
Si Si4 0.571832 0.713556 0.966209
Si Si5 0.335873 0.461291 0.136442
Si Si6 0.328027 0.782386 0.329050
O O1 0.673679 0.891056 0.246825
O O2 0.715343 0.074300 0.217673
O O3 0.773031 0.924521 0.199286
O O4 0.797232 0.967452 0.860080
O O5 0.500000 0.609748 0.750000
O O6 0.442352 0.696971 0.672078
O O7 0.388824 0.539015 0.918003
O O8 0.383812 0.710019 0.098815
O O9 0.250000 0.250000 0.500000
O O10 0.378297 0.193107 0.147144
O O11 0.328460 0.218288 0.012464
O O12 0.619811 0.625054 0.906171
O O13 0.500000 0.719127 0.250000
O O14 0.250000 0.750000 0.500000
#
# Coordination Sequence:
#
# PCOD9307364 Si02
#       6
#     8   8   8   8   8   8
#     4  12  24  41  69 104 131 168 222 273 330 383
#     4  12  27  44  65  97 135 179 220 270 334 395
#     4  12  24  42  67  97 132 174 221 271 324 391
#     4  12  27  43  66  96 137 178 219 272 331 396
#     4  12  23  41  68 100 136 169 216 276 333 391
#     4  12  24  41  68  96 134 173 220 273 323 392
#
# _framework density 21.104723
#
# number of rings (size 3 to 8) (size 9 to 14) (size 15 to 20)
#    0.000    0.000    6.667    3.500    4.667    1.333 
#    0.000    0.833    0.000    4.000    0.000    0.000 
#    0.000    0.000    0.000    0.000    0.000    0.000 
#
# Total GULP energy -133981.782591 kJ/mol
# GULP energy per Si atom -5582.574275 kJ/mol
# Density = 2.105669 g / cm^3
# Si number density = 21.104723 Si / 1000 Ang^3
#
#
#
# Elastic Constant Matrix: (Units=GPa)
#
#
# Indices 1 2 3 4 5 6 
#
# 1 88.0227 6.5741 15.6717 0.0000 11.9611 0.0000
# 2 6.5741 89.9061 15.1749 0.0000 -4.4493 0.0000
# 3 15.6717 15.1749 86.1732 0.0000 7.3560 0.0000
# 4 0.0000 0.0000 0.0000 16.3105 0.0000 1.6702
# 5 11.9611 -4.4493 7.3560 0.0000 39.2226 0.0000
# 6 0.0000 0.0000 0.0000 1.6702 0.0000 33.1575
#
#
#
# Elastic Compliance Matrix: (Units=1/GPa)
#
#
# Indices 1 2 3 4 5 6 
#
# 1 0.012208 -0.000763 -0.001789 0.000000 -0.003474 0.000000
# 2 -0.000763 0.011625 -0.002074 0.000000 0.001940 0.000000
# 3 -0.001789 -0.002074 0.012468 0.000000 -0.002028 0.000000
# 4 0.000000 0.000000 0.000000 0.061628 0.000000 -0.003104
# 5 -0.003474 0.001940 -0.002028 0.000000 0.027155 0.000000
# 6 0.000000 0.000000 0.000000 -0.003104 0.000000 0.030315
#
#
# Mechanical properties :
#
#
# Convention : Reuss Voigt Hill
#
# Bulk Modulus (GPa) = 36.96967 37.66037 37.31502
# Shear Modulus (GPa) = 28.79049 32.85021 30.82035
#
# Velocity S-wave (km/s) = 3.69748 3.94957 3.82560
# Velocity P-wave (km/s) = 5.98195 6.21949 6.10188
#
# Compressibility (1/GPa) = 0.02704920
#
# Stress axis : x y z
#
# Youngs Moduli (GPa) = 81.91154 86.02485 80.20336
#
# Poissons Ratio (x) = 0.06560 0.14352
# Poissons Ratio (y) = 0.06246 0.16634
# Poissons Ratio (z) = 0.14657 0.17841
#
# Static dielectric constant tensor:
#      x y z
#    x 1.766900 0.000000 0.033350 
#    y 0.000000 1.891320 0.000000 
#    z 0.033350 0.000000 1.787900 
# 
# From -- ./inp_files/66468.got.cif
#   From: 2010.05.17/outbox.cif.g08.bks.cpg/sg15_34_cif.got.tgz:66468.got - 2010.06.03 18:47:42.
