data_PCOD9307965
_publ_section_title
;
Structure prediction by ZEFSAII (Michael W. Deem and Ramdas Pophale) SiO2 
 PCOD9307965
Probable space group: C 2/C
;
_chemical_formula_sum "Si O2"
_cell_formula_units_Z 36
_cell_length_a 15.569072
_cell_length_b 16.749848
_cell_length_c 7.842851
_cell_angle_alpha 90.000000
_cell_angle_beta 43.774104
_cell_angle_gamma 90.000000
_cell_volume 1414.942272
_symmetry_space_group_name_H-M "C 2/C"
_symmetry_group_IT_number 15
_symmetry_cell_setting 'monoclinic'
loop_
_space_group_symop_operation_xyz
x,y,z
-x,y,1/2-z
-x,-y,-z
x,-y,1/2+z
1/2+x,1/2+y,z
1/2-x,1/2+y,1/2-z
1/2-x,1/2-y,-z
1/2+x,1/2-y,1/2+z
loop_
_atom_site_type_symbol
_atom_site_label
_atom_site_fract_x
_atom_site_fract_y
_atom_site_fract_z
Si Si1 0.750000 0.250000 0.500000
Si Si2 0.687813 0.314452 0.212987
Si Si3 0.617235 0.069503 0.194309
Si Si4 0.333764 0.895823 0.487183
Si Si5 0.463904 0.409332 0.603574
O O1 0.711265 0.282616 0.366815
O O2 0.634481 0.184338 0.655158
O O3 0.545860 0.342210 0.392035
O O4 0.750000 0.250000 0.000000
O O5 0.762443 0.395940 0.071743
O O6 0.500000 0.094456 0.250000
O O7 0.621089 0.096266 0.384331
O O8 0.629188 0.974072 0.168517
O O9 0.181590 0.889334 0.711558
O O10 0.500000 0.403812 0.750000
O O11 0.500000 0.500000 0.500000
#
# Coordination Sequence:
#
# PCOD9307965 Si02
#       5
#     4   8   8   8   8
#     4  12  26  50  76 116 162 202 266 338 408 502
#     4  12  27  51  79 120 164 212 272 341 421 490
#     4  12  27  51  80 113 160 219 273 342 411 502
#     4  12  25  49  77 116 160 207 278 330 415 495
#     4  12  25  46  83 117 160 209 274 342 411 498
#
# _framework density 25.442733
#
# number of rings (size 3 to 8) (size 9 to 14) (size 15 to 20)
#    0.000    0.000    6.667    3.333    0.000    1.778 
#    8.000    0.000    0.000    0.000    0.000    0.000 
#    0.000    0.000    0.000    0.000    0.000    0.000 
#
# Total GULP energy -100450.377674 kJ/mol
# GULP energy per Si atom -5580.576537 kJ/mol
# Density = 2.538482 g / cm^3
# Si number density = 25.442733 Si / 1000 Ang^3
#
#
#
# Elastic Constant Matrix: (Units=GPa)
#
#
# Indices 1 2 3 4 5 6 
#
# 1 181.7856 27.8342 54.1944 0.0000 -7.1381 0.0000
# 2 27.8342 70.4727 26.1524 0.0000 21.4612 0.0000
# 3 54.1944 26.1524 83.4945 0.0000 -30.4191 0.0000
# 4 0.0000 0.0000 0.0000 49.6497 0.0000 10.8751
# 5 -7.1381 21.4612 -30.4191 0.0000 51.3653 0.0000
# 6 0.0000 0.0000 0.0000 10.8751 0.0000 37.0509
#
#
#
# Elastic Compliance Matrix: (Units=1/GPa)
#
#
# Indices 1 2 3 4 5 6 
#
# 1 0.007011 -0.000212 -0.005224 0.000000 -0.002031 0.000000
# 2 -0.000212 0.026020 -0.015281 0.000000 -0.019951 0.000000
# 3 -0.005224 -0.015281 0.028328 0.000000 0.022435 0.000000
# 4 0.000000 0.000000 0.000000 0.021525 0.000000 -0.006318
# 5 -0.002031 -0.019951 0.022435 0.000000 0.040808 0.000000
# 6 0.000000 0.000000 0.000000 -0.006318 0.000000 0.028844
#
#
# Mechanical properties :
#
#
# Convention : Reuss Voigt Hill
#
# Bulk Modulus (GPa) = 50.19003 61.34610 55.76806
# Shear Modulus (GPa) = 24.92376 42.78464 33.85420
#
# Velocity S-wave (km/s) = 3.13326 4.10519 3.65170
# Velocity P-wave (km/s) = 5.73230 6.82890 6.30449
#
# Compressibility (1/GPa) = 0.01992428
#
# Stress axis : x y z
#
# Youngs Moduli (GPa) = 142.62906 38.43211 35.30111
#
# Poissons Ratio (x) = 0.00814 0.18443
# Poissons Ratio (y) = 0.03021 0.53944
# Poissons Ratio (z) = 0.74516 0.58728
#
# Static dielectric constant tensor:
#      x y z
#    x 1.949970 0.000000 -0.026330 
#    y 0.000000 1.975950 0.000000 
#    z -0.026330 0.000000 2.094980 
# 
# From -- ./inp_files/38897.got.cif
#   From: 2010.05.17/outbox.cif.g08.bks.cpg/sg15_20_cif.got.tgz:38897.got - 2010.06.03 18:47:42.
