data_PCOD9307484
_publ_section_title
;
Structure prediction by ZEFSAII (Michael W. Deem and Ramdas Pophale) SiO2 
 PCOD9307484
Probable space group: C 2/C
;
_chemical_formula_sum "Si O2"
_cell_formula_units_Z 36
_cell_length_a 26.621975
_cell_length_b 7.989059
_cell_length_c 14.268690
_cell_angle_alpha 90.000000
_cell_angle_beta 32.835267
_cell_angle_gamma 90.000000
_cell_volume 1645.507774
_symmetry_space_group_name_H-M "C 2/C"
_symmetry_group_IT_number 15
_symmetry_cell_setting 'monoclinic'
loop_
_space_group_symop_operation_xyz
x,y,z
-x,y,1/2-z
-x,-y,-z
x,-y,1/2+z
1/2+x,1/2+y,z
1/2-x,1/2+y,1/2-z
1/2-x,1/2-y,-z
1/2+x,1/2-y,1/2+z
loop_
_atom_site_type_symbol
_atom_site_label
_atom_site_fract_x
_atom_site_fract_y
_atom_site_fract_z
Si Si1 0.187538 0.446928 0.966529
Si Si2 0.180033 0.084542 0.888355
Si Si3 0.000000 0.347849 0.750000
Si Si4 0.226567 0.935450 0.998182
Si Si5 0.486416 0.454602 0.130376
O O1 0.191429 0.265331 0.915470
O O2 0.269403 0.554028 0.789302
O O3 0.206285 0.445851 0.047999
O O4 0.091071 0.539728 0.100825
O O5 0.230812 0.956433 0.880318
O O6 0.070894 0.049691 0.048525
O O7 0.004124 0.230362 0.836739
O O8 0.120930 0.991602 0.182591
O O9 0.250000 0.750000 0.000000
O O10 0.500000 0.500000 0.000000
#
# Coordination Sequence:
#
# PCOD9307484 Si02
#       5
#     8   8   4   8   8
#     4  12  27  46  72 103 142 187 240 287 357 418
#     4  12  26  47  72 105 141 190 234 293 349 423
#     4  12  26  48  70 104 146 184 232 302 350 420
#     4  12  23  46  73 102 144 188 232 293 351 417
#     4  12  24  43  76 103 142 188 234 288 358 414
#
# _framework density 21.877745000000001
#
# number of rings (size 3 to 8) (size 9 to 14) (size 15 to 20)
#    0.000    0.000    6.667    3.333    3.111    0.000 
#    0.000    2.222    0.000    0.000    0.000    0.000 
#    0.000    0.000    0.000    0.000    0.000    0.000 
#
# Total GULP energy -100562.144331 kJ/mol
# GULP energy per Si atom -5586.785796 kJ/mol
# Density = 2.182795 g / cm^3
# Si number density = 21.877745 Si / 1000 Ang^3
#
#
#
# Elastic Constant Matrix: (Units=GPa)
#
#
# Indices 1 2 3 4 5 6 
#
# 1 134.8279 36.1251 12.1551 0.0000 2.2330 0.0000
# 2 36.1251 110.6456 8.2593 -0.0004 -5.8999 0.0001
# 3 12.1551 8.2593 82.7984 -0.0002 -13.4547 0.0000
# 4 0.0000 -0.0004 -0.0002 36.8830 0.0000 -2.1603
# 5 2.2330 -5.8999 -13.4547 0.0000 48.7930 0.0000
# 6 0.0000 0.0001 0.0000 -2.1603 0.0000 28.6400
#
#
#
# Elastic Compliance Matrix: (Units=1/GPa)
#
#
# Indices 1 2 3 4 5 6 
#
# 1 0.008247 -0.002663 -0.001108 0.000000 -0.001005 0.000000
# 2 -0.002663 0.010003 -0.000409 0.000000 0.001219 0.000000
# 3 -0.001108 -0.000409 0.012857 0.000000 0.003547 0.000000
# 4 0.000000 0.000000 0.000000 0.027233 0.000000 0.002054
# 5 -0.001005 0.001219 0.003547 0.000000 0.021666 0.000000
# 6 0.000000 0.000000 0.000000 0.002054 0.000000 0.035071
#
#
# Mechanical properties :
#
#
# Convention : Reuss Voigt Hill
#
# Bulk Modulus (GPa) = 43.96334 49.03899 46.50117
# Shear Modulus (GPa) = 38.16184 40.97871 39.57027
#
# Velocity S-wave (km/s) = 4.18104 4.33260 4.25749
# Velocity P-wave (km/s) = 6.59141 6.89146 6.74311
#
# Compressibility (1/GPa) = 0.02274622
#
# Stress axis : x y z
#
# Youngs Moduli (GPa) = 121.25525 99.97034 77.77648
#
# Poissons Ratio (x) = 0.26627 0.08620
# Poissons Ratio (y) = 0.32296 0.03179
# Poissons Ratio (z) = 0.13439 0.04086
#
# Static dielectric constant tensor:
#      x y z
#    x 1.858100 0.000000 0.032280 
#    y 0.000000 1.817610 0.000000 
#    z 0.032280 0.000000 1.793340 
# 
# From -- ./inp_files/150145.got.cif
#   From: 2010.05.17/outbox.cif.g08.bks.cpg/sg15_76_cif.got.tgz:150145.got - 2010.06.03 18:47:42.
