data_PCOD9307315
_publ_section_title
;
Structure prediction by ZEFSAII (Michael W. Deem and Ramdas Pophale) SiO2 
 PCOD9307315
Probable space group: C 2/C
;
_chemical_formula_sum "Si O2"
_cell_formula_units_Z 32
_cell_length_a 12.134885
_cell_length_b 11.846378
_cell_length_c 10.149441
_cell_angle_alpha 90.000000
_cell_angle_beta 131.128981
_cell_angle_gamma 90.000000
_cell_volume 1098.984170
_symmetry_space_group_name_H-M "C 2/C"
_symmetry_group_IT_number 15
_symmetry_cell_setting 'monoclinic'
loop_
_space_group_symop_operation_xyz
x,y,z
-x,y,1/2-z
-x,-y,-z
x,-y,1/2+z
1/2+x,1/2+y,z
1/2-x,1/2+y,1/2-z
1/2-x,1/2-y,-z
1/2+x,1/2-y,1/2+z
loop_
_atom_site_type_symbol
_atom_site_label
_atom_site_fract_x
_atom_site_fract_y
_atom_site_fract_z
Si Si1 0.233188 0.010956 0.852042
Si Si2 0.305171 0.877760 0.162583
Si Si3 0.000000 0.770558 0.250000
Si Si4 0.464914 0.679604 0.417378
Si Si5 0.250000 0.250000 0.000000
O O1 0.335130 0.045689 0.813119
O O2 0.105134 0.938034 0.683965
O O3 0.158053 0.128876 0.846872
O O4 0.307468 0.940554 0.025927
O O5 0.399702 0.769117 0.266544
O O6 0.136940 0.836187 0.045662
O O7 0.083353 0.778207 0.472601
O O8 0.135396 0.681185 0.321577
#
# Coordination Sequence:
#
# PCOD9307315 Si02
#       5
#     8   8   4   8   4
#     4  12  27  49  79 117 154 213 255 326 388 481
#     4  12  28  51  84 113 160 204 271 319 400 463
#     4  12  22  48  74 114 146 204 252 322 380 462
#     4  12  26  50  81 117 156 208 265 327 388 476
#     4  12  26  46  76 108 156 200 260 306 392 464
#
# _framework density 29.117799000000002
#
# number of rings (size 3 to 8) (size 9 to 14) (size 15 to 20)
#    0.000    0.000    5.000    3.750    3.500    0.000 
#    4.500    2.500    0.000    0.000    0.000    0.000 
#    0.000    0.000    0.000    0.000    0.000    0.000 
#
# Total GULP energy -89347.686308 kJ/mol
# GULP energy per Si atom -5584.230394 kJ/mol
# Density = 2.905153 g / cm^3
# Si number density = 29.117799 Si / 1000 Ang^3
#
#
#
# Elastic Constant Matrix: (Units=GPa)
#
#
# Indices 1 2 3 4 5 6 
#
# 1 132.5150 62.2425 90.5357 0.0000 17.7779 0.0000
# 2 62.2425 167.0200 94.2067 0.0000 -6.7174 0.0000
# 3 90.5357 94.2067 225.8937 0.0000 11.1860 0.0000
# 4 0.0000 0.0000 0.0000 62.3425 0.0000 -11.5296
# 5 17.7779 -6.7174 11.1860 0.0000 81.2877 0.0000
# 6 0.0000 0.0000 0.0000 -11.5296 0.0000 20.1656
#
#
#
# Elastic Compliance Matrix: (Units=1/GPa)
#
#
# Indices 1 2 3 4 5 6 
#
# 1 0.011295 -0.002361 -0.003434 0.000000 -0.002193 0.000000
# 2 -0.002361 0.008422 -0.002644 0.000000 0.001576 0.000000
# 3 -0.003434 -0.002644 0.006927 0.000000 -0.000421 0.000000
# 4 0.000000 0.000000 0.000000 0.017937 0.000000 0.010255
# 5 -0.002193 0.001576 -0.000421 0.000000 0.012970 0.000000
# 6 0.000000 0.000000 0.000000 0.010255 0.000000 0.055453
#
#
# Mechanical properties :
#
#
# Convention : Reuss Voigt Hill
#
# Bulk Modulus (GPa) = 102.39244 113.26648 107.82946
# Shear Modulus (GPa) = 37.55533 51.32209 44.43871
#
# Velocity S-wave (km/s) = 3.59524 4.20285 3.91086
# Velocity P-wave (km/s) = 7.24400 7.90796 7.58325
#
# Compressibility (1/GPa) = 0.00976635
#
# Stress axis : x y z
#
# Youngs Moduli (GPa) = 88.53093 118.73851 144.36836
#
# Poissons Ratio (x) = 0.28031 0.49576
# Poissons Ratio (y) = 0.20899 0.38173
# Poissons Ratio (z) = 0.30402 0.31396
#
# Static dielectric constant tensor:
#      x y z
#    x 2.846720 0.000000 0.051610 
#    y 0.000000 2.370810 0.000000 
#    z 0.051610 0.000000 2.645100 
# 
# From -- ./inp_files/110784.got.cif
#   From: 2010.05.17/outbox.cif.g08.bks.cpg/sg15_56_cif.got.tgz:110784.got - 2010.06.03 18:47:42.
