data_PCOD9307507
_publ_section_title
;
Structure prediction by ZEFSAII (Michael W. Deem and Ramdas Pophale) SiO2 
 PCOD9307507
Probable space group: C 2/C
;
_chemical_formula_sum "Si O2"
_cell_formula_units_Z 36
_cell_length_a 11.186192
_cell_length_b 25.872259
_cell_length_c 7.909830
_cell_angle_alpha 90.000000
_cell_angle_beta 134.999960
_cell_angle_gamma 90.000000
_cell_volume 1618.710092
_symmetry_space_group_name_H-M "C 2/C"
_symmetry_group_IT_number 15
_symmetry_cell_setting 'monoclinic'
loop_
_space_group_symop_operation_xyz
x,y,z
-x,y,1/2-z
-x,-y,-z
x,-y,1/2+z
1/2+x,1/2+y,z
1/2-x,1/2+y,1/2-z
1/2-x,1/2-y,-z
1/2+x,1/2-y,1/2+z
loop_
_atom_site_type_symbol
_atom_site_label
_atom_site_fract_x
_atom_site_fract_y
_atom_site_fract_z
Si Si1 0.031185 0.441347 0.481492
Si Si2 0.500000 0.625000 0.750000
Si Si3 0.605968 0.402445 0.701391
Si Si4 0.345422 0.152445 0.989455
Si Si5 0.799693 0.308653 0.080879
O O1 0.229794 0.431854 0.698606
O O2 0.000000 0.433252 0.250000
O O3 0.000000 0.500000 0.500000
O O4 0.923854 0.401296 0.489797
O O5 0.515471 0.599030 0.582338
O O6 0.683133 0.650970 0.948604
O O7 0.500000 0.426079 0.750000
O O8 0.684058 0.348704 0.857913
O O9 0.281188 0.181854 0.760984
O O10 0.500000 0.176079 0.250000
O O11 0.000000 0.316748 0.250000
O O12 0.750000 0.250000 0.000000
#
# Coordination Sequence:
#
# PCOD9307507 Si02
#       5
#     8   4   8   8   8
#     4  12  24  45  73 102 145 197 241 301 383 437
#     4  12  24  40  76 104 132 188 240 288 372 436
#     4  12  23  47  73 104 148 187 241 313 367 444
#     4  12  23  47  73 104 148 187 241 313 367 444
#     4  12  24  45  73 102 145 197 241 301 383 437
#
# _framework density 22.239929
#
# number of rings (size 3 to 8) (size 9 to 14) (size 15 to 20)
#    0.000    0.000    8.889    1.333    0.000    0.000 
#    4.000    4.444    0.000    0.000    0.000    0.000 
#    0.000    0.000    0.000    0.000    0.000    0.000 
#
# Total GULP energy -100496.594824 kJ/mol
# GULP energy per Si atom -5583.144157 kJ/mol
# Density = 2.218931 g / cm^3
# Si number density = 22.239929 Si / 1000 Ang^3
#
#
#
# Elastic Constant Matrix: (Units=GPa)
#
#
# Indices 1 2 3 4 5 6 
#
# 1 122.5420 10.0212 19.0137 0.0000 10.4363 0.0000
# 2 10.0212 102.6539 10.0214 0.0000 0.0001 0.0000
# 3 19.0137 10.0214 122.5432 0.0000 -10.4361 0.0000
# 4 0.0000 0.0000 0.0000 14.4164 0.0000 0.0013
# 5 10.4363 0.0001 -10.4361 0.0000 66.8477 0.0000
# 6 0.0000 0.0000 0.0000 0.0013 0.0000 14.4152
#
#
#
# Elastic Compliance Matrix: (Units=1/GPa)
#
#
# Indices 1 2 3 4 5 6 
#
# 1 0.008568 -0.000699 -0.001405 0.000000 -0.001557 0.000000
# 2 -0.000699 0.009878 -0.000699 0.000000 0.000000 0.000000
# 3 -0.001405 -0.000699 0.008568 0.000000 0.001557 0.000000
# 4 0.000000 0.000000 0.000000 0.069366 0.000000 -0.000006
# 5 -0.001557 0.000000 0.001557 0.000000 0.015446 0.000000
# 6 0.000000 0.000000 0.000000 -0.000006 0.000000 0.069371
#
#
# Mechanical properties :
#
#
# Convention : Reuss Voigt Hill
#
# Bulk Modulus (GPa) = 46.71262 47.31683 47.01473
# Shear Modulus (GPa) = 25.78126 39.71471 32.74799
#
# Velocity S-wave (km/s) = 3.40845 4.23039 3.84146
# Velocity P-wave (km/s) = 6.04479 6.72186 6.39230
#
# Compressibility (1/GPa) = 0.02140749
#
# Stress axis : x y z
#
# Youngs Moduli (GPa) = 116.71015 101.23498 116.71135
#
# Poissons Ratio (x) = 0.07079 0.16396
# Poissons Ratio (y) = 0.08161 0.08162
# Poissons Ratio (z) = 0.16396 0.07079
#
# Static dielectric constant tensor:
#      x y z
#    x 1.978770 0.000000 -0.000020 
#    y 0.000000 1.826210 0.000000 
#    z -0.000020 0.000000 1.978730 
# 
# From -- ./inp_files/33949.got.cif
#   From: 2010.05.17/outbox.cif.g08.bks.cpg/sg15_17_cif.got.tgz:33949.got - 2010.06.03 18:47:42.
