data_PCOD9307012
_publ_section_title
;
Structure prediction by ZEFSAII (Michael W. Deem and Ramdas Pophale) SiO2 
 PCOD9307012
Probable space group: C 2/C
;
_chemical_formula_sum "Si O2"
_cell_formula_units_Z 32
_cell_length_a 8.011767
_cell_length_b 20.034919
_cell_length_c 12.670028
_cell_angle_alpha 90.000000
_cell_angle_beta 36.750927
_cell_angle_gamma 90.000000
_cell_volume 1216.857562
_symmetry_space_group_name_H-M "C 2/C"
_symmetry_group_IT_number 15
_symmetry_cell_setting 'monoclinic'
loop_
_space_group_symop_operation_xyz
x,y,z
-x,y,1/2-z
-x,-y,-z
x,-y,1/2+z
1/2+x,1/2+y,z
1/2-x,1/2+y,1/2-z
1/2-x,1/2-y,-z
1/2+x,1/2-y,1/2+z
loop_
_atom_site_type_symbol
_atom_site_label
_atom_site_fract_x
_atom_site_fract_y
_atom_site_fract_z
Si Si1 0.759853 0.404380 0.179683
Si Si2 0.720629 0.158630 0.301144
Si Si3 0.517500 0.714114 0.543480
Si Si4 0.749691 0.470531 0.804798
O O1 0.500000 0.435282 0.250000
O O2 0.641059 0.345920 0.316142
O O3 0.888081 0.465994 0.177203
O O4 0.947757 0.373612 0.993289
O O5 0.704046 0.228169 0.375137
O O6 0.876828 0.087810 0.204552
O O7 0.806355 0.189364 0.144903
O O8 0.750000 0.750000 0.500000
O O9 0.000000 0.440268 0.750000
O O10 0.500000 0.500000 0.000000
#
# Coordination Sequence:
#
# PCOD9307012 Si02
#       4
#     8   8   8   8
#     4  12  24  40  70 107 140 185 238 299 363 422
#     4  12  23  39  65 104 138 181 238 302 355 420
#     4  12  21  36  67 104 139 177 239 305 352 409
#     4  12  26  47  73 104 149 193 240 297 364 438
#
# _framework density 26.297243000000002
#
# number of rings (size 3 to 8) (size 9 to 14) (size 15 to 20)
#    0.000    0.000    7.500    4.500    0.000    0.000 
#    0.000    0.000    0.000    7.500    0.000    0.000 
#    0.000    0.000    0.000    0.000    0.000    0.000 
#
# Total GULP energy -89143.376331 kJ/mol
# GULP energy per Si atom -5571.461021 kJ/mol
# Density = 2.623739 g / cm^3
# Si number density = 26.297243 Si / 1000 Ang^3
#
#
#
# Elastic Constant Matrix: (Units=GPa)
#
#
# Indices 1 2 3 4 5 6 
#
# 1 61.2688 18.0583 24.2582 0.0001 -1.9013 -0.0001
# 2 18.0583 204.5132 53.6594 0.0000 15.5477 0.0000
# 3 24.2582 53.6594 222.2211 0.0000 29.5083 -0.0001
# 4 0.0001 0.0000 0.0000 68.4641 0.0000 -0.4747
# 5 -1.9013 15.5477 29.5083 0.0000 28.4048 0.0001
# 6 -0.0001 0.0000 -0.0001 -0.4747 0.0001 3.1980
#
#
#
# Elastic Compliance Matrix: (Units=1/GPa)
#
#
# Indices 1 2 3 4 5 6 
#
# 1 0.017694 -0.001310 -0.002167 0.000000 0.004152 0.000001
# 2 -0.001310 0.005397 -0.000877 0.000000 -0.002130 0.000000
# 3 -0.002167 -0.000877 0.005689 0.000000 -0.005574 0.000000
# 4 0.000000 0.000000 0.000000 0.014621 0.000000 0.002171
# 5 0.004152 -0.002130 -0.005574 0.000000 0.042440 -0.000001
# 6 0.000001 0.000000 0.000000 0.002171 -0.000001 0.313015
#
#
# Mechanical properties :
#
#
# Convention : Reuss Voigt Hill
#
# Bulk Modulus (GPa) = 49.81829 75.55054 62.68441
# Shear Modulus (GPa) = 12.06986 46.14854 29.10920
#
# Velocity S-wave (km/s) = 2.14470 4.19367 3.33066
# Velocity P-wave (km/s) = 5.01183 7.22780 6.21930
#
# Compressibility (1/GPa) = 0.02007295
#
# Stress axis : x y z
#
# Youngs Moduli (GPa) = 56.51575 185.27154 175.78920
#
# Poissons Ratio (x) = 0.24262 0.38088
# Poissons Ratio (y) = 0.07401 0.15425
# Poissons Ratio (z) = 0.12245 0.16257
#
# Static dielectric constant tensor:
#      x y z
#    x 2.387060 0.000000 0.002580 
#    y 0.000000 2.066880 0.000000 
#    z 0.002580 0.000000 1.997200 
# 
# From -- ./inp_files/145934.got.cif
#   From: 2010.05.17/outbox.cif.g08.bks.cpg/sg15_73_cif.got.tgz:145934.got - 2010.06.03 18:47:42.
