data_PCOD9307478
_publ_section_title
;
Structure prediction by ZEFSAII (Michael W. Deem and Ramdas Pophale) SiO2 
 PCOD9307478
Probable space group: C 2/C
;
_chemical_formula_sum "Si O2"
_cell_formula_units_Z 52
_cell_length_a 7.840303
_cell_length_b 16.666536
_cell_length_c 14.497481
_cell_angle_alpha 90.000000
_cell_angle_beta 77.238531
_cell_angle_gamma 90.000000
_cell_volume 1847.600745
_symmetry_space_group_name_H-M "C 2/C"
_symmetry_group_IT_number 15
_symmetry_cell_setting 'monoclinic'
loop_
_space_group_symop_operation_xyz
x,y,z
-x,y,1/2-z
-x,-y,-z
x,-y,1/2+z
1/2+x,1/2+y,z
1/2-x,1/2+y,1/2-z
1/2-x,1/2-y,-z
1/2+x,1/2-y,1/2+z
loop_
_atom_site_type_symbol
_atom_site_label
_atom_site_fract_x
_atom_site_fract_y
_atom_site_fract_z
Si Si1 0.906513 0.496922 0.345685
Si Si2 0.000000 0.877278 0.250000
Si Si3 0.284473 0.241921 0.686025
Si Si4 0.967043 0.057592 0.091209
Si Si5 0.037633 0.350212 0.042663
Si Si6 0.647716 0.646946 0.554494
Si Si7 0.288645 0.127174 0.154468
O O1 0.717971 0.532023 0.343938
O O2 0.000000 0.452247 0.250000
O O3 0.878161 0.430664 0.427112
O O4 0.048573 0.566864 0.348054
O O5 0.175283 0.826956 0.253102
O O6 0.054680 0.908808 0.143650
O O7 0.474088 0.210663 0.630927
O O8 0.167146 0.233170 0.604577
O O9 0.259973 0.318208 0.752309
O O10 0.121065 0.077215 0.141870
O O11 0.931797 0.140296 0.035889
O O12 0.000000 0.000000 0.000000
O O13 0.847768 0.380339 0.028606
O O14 0.151212 0.321539 0.943031
#
# Coordination Sequence:
#
# PCOD9307478 Si02
#       7
#     8   4   8   8   8   8   8
#     4  12  26  46  79 115 172 221 265 354 435 495
#     4   6  16  38  70  94 148 218 258 312 406 472
#     4   8  20  41  77 110 166 223 277 331 421 502
#     4  12  24  42  81 127 157 207 288 348 422 508
#     4   9  20  46  77 111 160 219 275 328 432 495
#     4   8  18  41  72 105 162 211 268 327 421 490
#     4  12  23  45  84 120 166 218 284 354 411 516
#
# _framework density 28.144608000000002
#
# number of rings (size 3 to 8) (size 9 to 14) (size 15 to 20)
#    1.846    0.000    3.077    1.385    1.077    3.077 
#    0.000    6.923    3.385    0.000    0.000    3.231 
#    0.000    0.000    0.000    0.000    0.000    0.000 
#
# Total GULP energy -145317.240161 kJ/mol
# GULP energy per Si atom -5589.124622 kJ/mol
# Density = 2.808055 g / cm^3
# Si number density = 28.144608 Si / 1000 Ang^3
#
#
#
# Elastic Constant Matrix: (Units=GPa)
#
#
# Indices 1 2 3 4 5 6 
#
# 1 171.6949 42.4411 56.7618 0.0000 -16.8637 0.0000
# 2 42.4411 118.9657 74.8506 0.0000 -1.3726 0.0000
# 3 56.7618 74.8506 173.7886 0.0000 -24.7357 0.0000
# 4 0.0000 0.0000 0.0000 50.1288 0.0000 6.8329
# 5 -16.8637 -1.3726 -24.7357 0.0000 45.3317 0.0000
# 6 0.0000 0.0000 0.0000 6.8329 0.0000 33.9198
#
#
#
# Elastic Compliance Matrix: (Units=1/GPa)
#
#
# Indices 1 2 3 4 5 6 
#
# 1 0.006821 -0.001607 -0.001281 0.000000 0.001790 0.000000
# 2 -0.001607 0.012189 -0.005158 0.000000 -0.003043 0.000000
# 3 -0.001281 -0.005158 0.009003 0.000000 0.004280 0.000000
# 4 0.000000 0.000000 0.000000 0.020512 0.000000 -0.004132
# 5 0.001790 -0.003043 0.004280 0.000000 0.024969 0.000000
# 6 0.000000 0.000000 0.000000 -0.004132 0.000000 0.030314
#
#
# Mechanical properties :
#
#
# Convention : Reuss Voigt Hill
#
# Bulk Modulus (GPa) = 83.88261 90.28404 87.08333
# Shear Modulus (GPa) = 40.36372 45.23576 42.79974
#
# Velocity S-wave (km/s) = 3.79113 4.01342 3.90386
# Velocity P-wave (km/s) = 7.00232 7.32291 7.16440
#
# Compressibility (1/GPa) = 0.01192142
#
# Stress axis : x y z
#
# Youngs Moduli (GPa) = 146.61212 82.03868 111.06901
#
# Poissons Ratio (x) = 0.13181 0.14228
# Poissons Ratio (y) = 0.23556 0.57293
# Poissons Ratio (z) = 0.18781 0.42318
#
# Static dielectric constant tensor:
#      x y z
#    x 2.163740 0.000000 0.060680 
#    y 0.000000 2.353150 0.000000 
#    z 0.060680 0.000000 2.279160 
# 
# From -- ./inp_files/147057.got.cif
#   From: 2010.05.17/outbox.cif.g08.bks.cpg/sg15_74_cif.got.tgz:147057.got - 2010.06.03 18:47:42.
