data_PCOD9307930
_publ_section_title
;
Structure prediction by ZEFSAII (Michael W. Deem and Ramdas Pophale) SiO2 
 PCOD9307930
Probable space group: C 2/C
;
_chemical_formula_sum "Si O2"
_cell_formula_units_Z 40
_cell_length_a 8.372742
_cell_length_b 16.277679
_cell_length_c 14.365548
_cell_angle_alpha 90.000000
_cell_angle_beta 68.421518
_cell_angle_gamma 90.000000
_cell_volume 1820.645898
_symmetry_space_group_name_H-M "C 2/C"
_symmetry_group_IT_number 15
_symmetry_cell_setting 'monoclinic'
loop_
_space_group_symop_operation_xyz
x,y,z
-x,y,1/2-z
-x,-y,-z
x,-y,1/2+z
1/2+x,1/2+y,z
1/2-x,1/2+y,1/2-z
1/2-x,1/2-y,-z
1/2+x,1/2-y,1/2+z
loop_
_atom_site_type_symbol
_atom_site_label
_atom_site_fract_x
_atom_site_fract_y
_atom_site_fract_z
Si Si1 0.674239 0.417228 0.975496
Si Si2 0.329118 0.482984 0.833503
Si Si3 0.967120 0.649939 0.145901
Si Si4 0.303184 0.051815 0.807810
Si Si5 0.653836 0.301462 0.441079
O O1 0.710871 0.477961 0.881794
O O2 0.852905 0.368183 0.944278
O O3 0.651920 0.476804 0.069531
O O4 0.513845 0.356081 0.995544
O O5 0.500000 0.445280 0.750000
O O6 0.173885 0.417834 0.856776
O O7 0.284149 0.558014 0.773566
O O8 0.901704 0.737865 0.126244
O O9 0.000000 0.649043 0.250000
O O10 0.500000 0.031512 0.750000
O O11 0.285300 0.132666 0.871732
O O12 0.750000 0.250000 0.500000
#
# Coordination Sequence:
#
# PCOD9307930 Si02
#       5
#     8   8   8   8   8
#     4  12  25  50  76 105 151 197 253 302 374 454
#     4  12  25  45  81 107 143 198 254 305 369 449
#     4  12  27  48  74 111 154 193 245 317 383 441
#     4  12  26  49  74 108 146 199 255 302 371 456
#     4  12  30  46  74 111 153 197 247 315 383 439
#
# _framework density 21.970224999999999
#
# number of rings (size 3 to 8) (size 9 to 14) (size 15 to 20)
#    0.000    0.000    6.000    3.000    8.400    2.400 
#    0.000    0.000    0.000    0.000    0.000    0.000 
#    0.000    0.000    0.000    0.000    0.000    0.000 
#
# Total GULP energy -111885.643342 kJ/mol
# GULP energy per Si atom -5594.282167 kJ/mol
# Density = 2.192022 g / cm^3
# Si number density = 21.970225 Si / 1000 Ang^3
#
#
#
# Elastic Constant Matrix: (Units=GPa)
#
#
# Indices 1 2 3 4 5 6 
#
# 1 151.8736 62.8018 78.5284 0.0000 -11.9682 0.0000
# 2 62.8018 140.6078 58.2868 0.0000 1.4961 0.0000
# 3 78.5284 58.2868 124.1119 0.0000 -15.2272 0.0000
# 4 0.0000 0.0000 0.0000 34.2980 0.0000 15.8272
# 5 -11.9682 1.4961 -15.2272 0.0000 25.4603 0.0000
# 6 0.0000 0.0000 0.0000 15.8272 0.0000 39.6597
#
#
#
# Elastic Compliance Matrix: (Units=1/GPa)
#
#
# Indices 1 2 3 4 5 6 
#
# 1 0.010478 -0.002549 -0.005191 0.000000 0.001971 0.000000
# 2 -0.002549 0.009706 -0.003413 0.000000 -0.003810 0.000000
# 3 -0.005191 -0.003413 0.013673 0.000000 0.005938 0.000000
# 4 0.000000 0.000000 0.000000 0.035738 0.000000 -0.014262
# 5 0.001971 -0.003810 0.005938 0.000000 0.043978 0.000000
# 6 0.000000 0.000000 0.000000 -0.014262 0.000000 0.030906
#
#
# Mechanical properties :
#
#
# Convention : Reuss Voigt Hill
#
# Bulk Modulus (GPa) = 86.56922 90.64748 88.60835
# Shear Modulus (GPa) = 29.30267 34.34869 31.82568
#
# Velocity S-wave (km/s) = 3.65601 3.95830 3.81015
# Velocity P-wave (km/s) = 7.57036 7.88921 7.73143
#
# Compressibility (1/GPa) = 0.01155145
#
# Stress axis : x y z
#
# Youngs Moduli (GPa) = 95.44129 103.03203 73.13896
#
# Poissons Ratio (x) = 0.26264 0.37963
# Poissons Ratio (y) = 0.24329 0.24960
# Poissons Ratio (z) = 0.49539 0.35161
#
# Static dielectric constant tensor:
#      x y z
#    x 1.864370 0.000000 0.018280 
#    y 0.000000 1.777320 0.000000 
#    z 0.018280 0.000000 1.813610 
# 
# From -- ./inp_files/133052.got.cif
#   From: 2010.05.17/outbox.cif.g08.bks.cpg/sg15_67_cif.got.tgz:133052.got - 2010.06.03 18:47:42.
