data_PCOD9307257
_publ_section_title
;
Structure prediction by ZEFSAII (Michael W. Deem and Ramdas Pophale) SiO2 
 PCOD9307257
Probable space group: C 2/C
;
_chemical_formula_sum "Si O2"
_cell_formula_units_Z 36
_cell_length_a 8.756939
_cell_length_b 15.232742
_cell_length_c 20.582702
_cell_angle_alpha 90.000000
_cell_angle_beta 36.443542
_cell_angle_gamma 90.000000
_cell_volume 1630.953070
_symmetry_space_group_name_H-M "C 2/C"
_symmetry_group_IT_number 15
_symmetry_cell_setting 'monoclinic'
loop_
_space_group_symop_operation_xyz
x,y,z
-x,y,1/2-z
-x,-y,-z
x,-y,1/2+z
1/2+x,1/2+y,z
1/2-x,1/2+y,1/2-z
1/2-x,1/2-y,-z
1/2+x,1/2-y,1/2+z
loop_
_atom_site_type_symbol
_atom_site_label
_atom_site_fract_x
_atom_site_fract_y
_atom_site_fract_z
Si Si1 0.525009 0.009164 0.412146
Si Si2 0.687416 0.756352 0.096588
Si Si3 0.000000 0.887227 0.750000
Si Si4 0.792158 0.151683 0.766941
Si Si5 0.112263 0.154041 0.534862
O O1 0.311604 0.074583 0.455484
O O2 0.790878 0.048329 0.291958
O O3 0.500000 0.000000 0.500000
O O4 0.568206 0.910296 0.372276
O O5 0.685572 0.666961 0.138410
O O6 0.382223 0.774389 0.205976
O O7 0.890734 0.823531 0.058526
O O8 0.750000 0.750000 0.000000
O O9 0.000000 0.178643 0.750000
O O10 0.967583 0.119925 0.648501
O O11 0.250000 0.250000 0.500000
#
# Coordination Sequence:
#
# PCOD9307257 Si02
#       5
#     8   8   4   8   8
#     4  12  23  42  71 104 139 188 234 289 360 428
#     4  12  25  43  70 102 140 183 242 300 356 422
#     4  12  22  44  68  98 134 184 236 284 348 434
#     4  12  23  41  68 102 140 183 233 292 360 418
#     4  12  23  45  70 101 142 188 241 292 353 437
#
# _framework density 22.072984999999999
#
# number of rings (size 3 to 8) (size 9 to 14) (size 15 to 20)
#    0.000    0.000    7.778    2.667    0.000    0.889 
#    0.000    2.222    0.000    0.000    0.000    0.000 
#    0.000    0.000    0.000    0.000    0.000    0.000 
#
# Total GULP energy -100213.997108 kJ/mol
# GULP energy per Si atom -5567.444284 kJ/mol
# Density = 2.202275 g / cm^3
# Si number density = 22.072985 Si / 1000 Ang^3
#
#
#
# Elastic Constant Matrix: (Units=GPa)
#
#
# Indices 1 2 3 4 5 6 
#
# 1 141.3021 18.5250 20.2295 -0.0045 -22.1443 -0.0043
# 2 18.5250 64.6532 7.8893 0.0024 -7.3762 -0.0051
# 3 20.2295 7.8893 95.8722 0.0051 -4.5313 0.0013
# 4 -0.0045 0.0024 0.0051 28.9693 0.0078 -20.5556
# 5 -22.1443 -7.3762 -4.5313 0.0078 50.3143 -0.0026
# 6 -0.0043 -0.0051 0.0013 -20.5556 -0.0026 22.4334
#
#
#
# Elastic Compliance Matrix: (Units=1/GPa)
#
#
# Indices 1 2 3 4 5 6 
#
# 1 0.008000 -0.001764 -0.001395 0.000005 0.003137 0.000007
# 2 -0.001764 0.016256 -0.000893 0.000002 0.001526 0.000005
# 3 -0.001395 -0.000893 0.010809 -0.000008 0.000229 -0.000009
# 4 0.000005 0.000002 -0.000008 0.098673 -0.000009 0.090414
# 5 0.003137 0.001526 0.000229 -0.000009 0.021500 -0.000005
# 6 0.000007 0.000005 -0.000009 0.090414 -0.000005 0.127422
#
#
# Mechanical properties :
#
#
# Convention : Reuss Voigt Hill
#
# Bulk Modulus (GPa) = 37.09128 43.90171 40.49650
# Shear Modulus (GPa) = 16.68055 37.35565 27.01810
#
# Velocity S-wave (km/s) = 2.75198 4.11831 3.50242
# Velocity P-wave (km/s) = 5.19021 6.52276 5.89426
#
# Compressibility (1/GPa) = 0.02696051
#
# Stress axis : x y z
#
# Youngs Moduli (GPa) = 125.00777 61.51677 92.51441
#
# Poissons Ratio (x) = 0.10852 0.12901
# Poissons Ratio (y) = 0.22052 0.08264
# Poissons Ratio (z) = 0.17433 0.05495
#
# Static dielectric constant tensor:
#      x y z
#    x 1.849350 -0.000010 -0.038830 
#    y -0.000010 1.943590 0.000030 
#    z -0.038830 0.000030 1.957160 
# 
# From -- ./inp_files/76440.got.cif
#   From: 2010.05.17/outbox.cif.g08.bks.cpg/sg15_39_cif.got.tgz:76440.got - 2010.06.03 18:47:42.
