data_PCOD9307912
_publ_section_title
;
Structure prediction by ZEFSAII (Michael W. Deem and Ramdas Pophale) SiO2 
 PCOD9307912
Probable space group: C 2/C
;
_chemical_formula_sum "Si O2"
_cell_formula_units_Z 32
_cell_length_a 8.841120
_cell_length_b 17.651243
_cell_length_c 10.477357
_cell_angle_alpha 90.000000
_cell_angle_beta 122.455675
_cell_angle_gamma 90.000000
_cell_volume 1379.676833
_symmetry_space_group_name_H-M "C 2/C"
_symmetry_group_IT_number 15
_symmetry_cell_setting 'monoclinic'
loop_
_space_group_symop_operation_xyz
x,y,z
-x,y,1/2-z
-x,-y,-z
x,-y,1/2+z
1/2+x,1/2+y,z
1/2-x,1/2+y,1/2-z
1/2-x,1/2-y,-z
1/2+x,1/2-y,1/2+z
loop_
_atom_site_type_symbol
_atom_site_label
_atom_site_fract_x
_atom_site_fract_y
_atom_site_fract_z
Si Si1 0.214465 0.805035 0.867914
Si Si2 0.651096 0.441428 0.535835
Si Si3 0.803337 0.524314 0.373871
Si Si4 0.049286 0.783927 0.410197
O O1 0.247028 0.893883 0.903518
O O2 0.385150 0.775383 0.858678
O O3 0.000000 0.794527 0.750000
O O4 0.250000 0.750000 0.000000
O O5 0.500000 0.500000 0.500000
O O6 0.700067 0.460991 0.411437
O O7 0.787297 0.461611 0.713761
O O8 0.574961 0.356358 0.513805
O O9 0.000000 0.500000 0.500000
O O10 0.250000 0.750000 0.500000
O O11 0.000000 0.815433 0.250000
#
# Coordination Sequence:
#
# PCOD9307912 Si02
#       4
#     8   8   8   8
#     4  12  26  46  71 104 146 190 239 298 365 439
#     4  12  25  45  69 101 141 184 237 299 361 431
#     4  12  26  46  71 103 141 188 242 301 364 435
#     4  12  25  45  73 106 145 194 246 302 367 441
#
# _framework density 23.193836999999998
#
# number of rings (size 3 to 8) (size 9 to 14) (size 15 to 20)
#    0.000    0.000    0.000   12.000    0.000    4.000 
#    0.000    0.000    0.000    0.000    0.000    0.000 
#    0.000    0.000    0.000    0.000    0.000    0.000 
#
# Total GULP energy -89105.770176 kJ/mol
# GULP energy per Si atom -5569.110636 kJ/mol
# Density = 2.314105 g / cm^3
# Si number density = 23.193837 Si / 1000 Ang^3
#
#
#
# Elastic Constant Matrix: (Units=GPa)
#
#
# Indices 1 2 3 4 5 6 
#
# 1 134.6511 50.6431 44.9465 0.0000 41.0043 0.0000
# 2 50.6431 142.8856 59.8078 0.0000 31.0288 0.0000
# 3 44.9465 59.8078 175.4951 0.0000 33.2444 0.0000
# 4 0.0000 0.0000 0.0000 47.2201 0.0000 2.0059
# 5 41.0043 31.0288 33.2444 0.0000 56.5663 0.0000
# 6 0.0000 0.0000 0.0000 2.0059 0.0000 45.1448
#
#
#
# Elastic Compliance Matrix: (Units=1/GPa)
#
#
# Indices 1 2 3 4 5 6 
#
# 1 0.010236 -0.002015 -0.000831 0.000000 -0.005826 0.000000
# 2 -0.002015 0.009109 -0.002159 0.000000 -0.002267 0.000000
# 3 -0.000831 -0.002159 0.007099 0.000000 -0.002385 0.000000
# 4 0.000000 0.000000 0.000000 0.021217 0.000000 -0.000943
# 5 -0.005826 -0.002267 -0.002385 0.000000 0.024547 0.000000
# 6 0.000000 0.000000 0.000000 -0.000943 0.000000 0.022193
#
#
# Mechanical properties :
#
#
# Convention : Reuss Voigt Hill
#
# Bulk Modulus (GPa) = 60.85019 84.86961 72.85990
# Shear Modulus (GPa) = 45.50074 49.62852 47.56463
#
# Velocity S-wave (km/s) = 4.43398 4.63074 4.53343
# Velocity P-wave (km/s) = 7.24610 8.07852 7.67361
#
# Compressibility (1/GPa) = 0.01643380
#
# Stress axis : x y z
#
# Youngs Moduli (GPa) = 97.69341 109.78603 140.87380
#
# Poissons Ratio (x) = 0.22120 0.11710
# Poissons Ratio (y) = 0.19683 0.30410
# Poissons Ratio (z) = 0.08121 0.23699
#
# Static dielectric constant tensor:
#      x y z
#    x 2.179960 0.000000 -0.211450 
#    y 0.000000 1.873720 0.000000 
#    z -0.211450 0.000000 2.107200 
# 
# From -- ./inp_files/76517.got.cif
#   From: 2010.05.17/outbox.cif.g08.bks.cpg/sg15_39_cif.got.tgz:76517.got - 2010.06.03 18:47:42.
