data_PCOD9307162
_publ_section_title
;
Structure prediction by ZEFSAII (Michael W. Deem and Ramdas Pophale) SiO2 
 PCOD9307162
Probable space group: C 2/C
;
_chemical_formula_sum "Si O2"
_cell_formula_units_Z 40
_cell_length_a 23.527785
_cell_length_b 7.136574
_cell_length_c 10.121304
_cell_angle_alpha 90.000000
_cell_angle_beta 96.775006
_cell_angle_gamma 90.000000
_cell_volume 1687.578553
_symmetry_space_group_name_H-M "C 2/C"
_symmetry_group_IT_number 15
_symmetry_cell_setting 'monoclinic'
loop_
_space_group_symop_operation_xyz
x,y,z
-x,y,1/2-z
-x,-y,-z
x,-y,1/2+z
1/2+x,1/2+y,z
1/2-x,1/2+y,1/2-z
1/2-x,1/2-y,-z
1/2+x,1/2-y,1/2+z
loop_
_atom_site_type_symbol
_atom_site_label
_atom_site_fract_x
_atom_site_fract_y
_atom_site_fract_z
Si Si1 0.311866 0.159259 0.512414
Si Si2 0.300290 0.158007 0.853214
Si Si3 0.062629 0.184200 0.791765
Si Si4 0.182954 0.625806 0.313786
Si Si5 0.112031 0.993525 0.558251
O O1 0.250000 0.250000 0.500000
O O2 0.315644 0.122900 0.687462
O O3 0.309114 0.081624 0.346094
O O4 0.359907 0.319749 0.498779
O O5 0.232577 0.209769 0.829959
O O6 0.337602 0.349142 0.886562
O O7 0.310387 0.081287 0.020610
O O8 0.115698 0.323299 0.794976
O O9 0.076030 0.038723 0.678702
O O10 0.000000 0.265734 0.750000
O O11 0.070907 0.095501 0.937457
#
# Coordination Sequence:
#
# PCOD9307162 Si02
#       5
#     8   8   8   8   8
#     4  12  22  40  69 108 144 185 230 296 375 432
#     4  12  23  42  70 107 146 184 232 306 371 430
#     4  12  27  49  75 104 146 200 250 296 357 435
#     4  12  23  43  69 108 150 188 240 298 368 435
#     4  12  25  50  76 108 146 189 247 304 366 432
#
# _framework density 23.7026
#
# number of rings (size 3 to 8) (size 9 to 14) (size 15 to 20)
#    0.000    0.000    6.000    6.000    0.000    0.000 
#    0.000    8.000    0.000    0.000    0.000    0.000 
#    0.000    0.000    0.000    0.000    0.000    0.000 
#
# Total GULP energy -111638.946436 kJ/mol
# GULP energy per Si atom -5581.947322 kJ/mol
# Density = 2.364865 g / cm^3
# Si number density = 23.702600 Si / 1000 Ang^3
#
#
#
# Elastic Constant Matrix: (Units=GPa)
#
#
# Indices 1 2 3 4 5 6 
#
# 1 171.6674 62.8497 42.6351 0.0000 33.6519 0.0000
# 2 62.8497 103.2636 74.3307 0.0000 15.0829 0.0000
# 3 42.6351 74.3307 225.9275 0.0000 4.7481 0.0000
# 4 0.0000 0.0000 0.0000 76.7764 0.0000 -3.5954
# 5 33.6519 15.0829 4.7481 0.0000 35.0809 0.0000
# 6 0.0000 0.0000 0.0000 -3.5954 0.0000 6.4208
#
#
#
# Elastic Compliance Matrix: (Units=1/GPa)
#
#
# Indices 1 2 3 4 5 6 
#
# 1 0.008682 -0.004267 -0.000098 0.000000 -0.006481 0.000000
# 2 -0.004267 0.015687 -0.004312 0.000000 -0.002068 0.000000
# 3 -0.000098 -0.004312 0.005839 0.000000 0.001158 0.000000
# 4 0.000000 0.000000 0.000000 0.013376 0.000000 0.007490
# 5 -0.006481 -0.002068 0.001158 0.000000 0.035455 0.000000
# 6 0.000000 0.000000 0.000000 0.007490 0.000000 0.159938
#
#
# Mechanical properties :
#
#
# Convention : Reuss Voigt Hill
#
# Bulk Modulus (GPa) = 77.80211 95.60994 86.70602
# Shear Modulus (GPa) = 19.18526 45.05848 32.12187
#
# Velocity S-wave (km/s) = 2.84811 4.36477 3.68530
# Velocity P-wave (km/s) = 6.61144 8.11335 7.40060
#
# Compressibility (1/GPa) = 0.01285312
#
# Stress axis : x y z
#
# Youngs Moduli (GPa) = 115.17773 63.74663 171.25543
#
# Poissons Ratio (x) = 0.27200 0.01686
# Poissons Ratio (y) = 0.49145 0.73853
# Poissons Ratio (z) = 0.01134 0.27490
#
# Static dielectric constant tensor:
#      x y z
#    x 1.755790 0.000000 -0.039060 
#    y 0.000000 1.943160 0.000000 
#    z -0.039060 0.000000 2.204320 
# 
# From -- ./inp_files/38593.got.cif
#   From: 2010.05.17/outbox.cif.g08.bks.cpg/sg15_20_cif.got.tgz:38593.got - 2010.06.03 18:47:42.
