data_PCOD9307287
_publ_section_title
;
Structure prediction by ZEFSAII (Michael W. Deem and Ramdas Pophale) SiO2 
 PCOD9307287
Probable space group: C 2/C
;
_chemical_formula_sum "Si O2"
_cell_formula_units_Z 44
_cell_length_a 21.811205
_cell_length_b 19.246265
_cell_length_c 13.071653
_cell_angle_alpha 90.000000
_cell_angle_beta 22.899033
_cell_angle_gamma 90.000000
_cell_volume 2135.144348
_symmetry_space_group_name_H-M "C 2/C"
_symmetry_group_IT_number 15
_symmetry_cell_setting 'monoclinic'
loop_
_space_group_symop_operation_xyz
x,y,z
-x,y,1/2-z
-x,-y,-z
x,-y,1/2+z
1/2+x,1/2+y,z
1/2-x,1/2+y,1/2-z
1/2-x,1/2-y,-z
1/2+x,1/2-y,1/2+z
loop_
_atom_site_type_symbol
_atom_site_label
_atom_site_fract_x
_atom_site_fract_y
_atom_site_fract_z
Si Si1 0.497615 0.370089 0.571480
Si Si2 0.345181 0.883227 0.313000
Si Si3 0.232680 0.024628 0.799202
Si Si4 0.500000 0.022078 0.750000
Si Si5 0.615253 0.370523 0.981754
Si Si6 0.921458 0.276356 0.484123
O O1 0.576115 0.436758 0.502552
O O2 0.480352 0.378770 0.476925
O O3 0.595521 0.302469 0.453429
O O4 0.323278 0.360155 0.884842
O O5 0.312368 0.931296 0.266466
O O6 0.431856 0.929501 0.265349
O O7 0.456138 0.816500 0.129497
O O8 0.356363 0.021000 0.516419
O O9 0.190444 0.945659 0.893508
O O10 0.757797 0.317589 0.740258
O O11 0.500000 0.348370 0.250000
O O12 0.000000 0.277680 0.250000
#
# Coordination Sequence:
#
# PCOD9307287 Si02
#       6
#     8   8   8   4   8   8
#     4  12  26  44  74 101 140 184 238 286 345 419
#     4  12  22  45  72 104 134 182 237 286 347 405
#     4  12  26  43  71 104 139 182 240 283 352 410
#     4  12  24  44  72 102 142 186 224 298 342 410
#     4  12  27  46  70 101 144 184 229 293 353 408
#     4  12  24  46  73 103 137 184 233 291 342 415
#
# _framework density 20.607506999999998
#
# number of rings (size 3 to 8) (size 9 to 14) (size 15 to 20)
#    0.000    0.000    6.364    4.364    5.091    0.727 
#    1.636    0.000    0.000    0.000    0.000    0.000 
#    0.000    0.000    0.000    0.000    0.000    0.000 
#
# Total GULP energy -123184.703451 kJ/mol
# GULP energy per Si atom -5599.304702 kJ/mol
# Density = 2.056060 g / cm^3
# Si number density = 20.607507 Si / 1000 Ang^3
#
#
#
# Elastic Constant Matrix: (Units=GPa)
#
#
# Indices 1 2 3 4 5 6 
#
# 1 33.2573 7.0228 6.0144 -0.0014 -0.3704 0.0032
# 2 7.0228 76.4600 5.7155 0.0046 -0.7770 -0.0066
# 3 6.0144 5.7155 82.3019 0.0090 3.5025 -0.0132
# 4 -0.0014 0.0046 0.0090 15.9223 0.0003 -13.7283
# 5 -0.3704 -0.7770 3.5025 0.0003 34.1173 0.0000
# 6 0.0032 -0.0066 -0.0132 -13.7283 0.0000 54.8587
#
#
#
# Elastic Compliance Matrix: (Units=1/GPa)
#
#
# Indices 1 2 3 4 5 6 
#
# 1 0.031022 -0.002687 -0.002101 0.000003 0.000491 -0.000002
# 2 -0.002687 0.013385 -0.000748 -0.000003 0.000352 0.000001
# 3 -0.002101 -0.000748 0.012412 -0.000006 -0.001314 0.000002
# 4 0.000003 -0.000003 -0.000006 0.080085 0.000000 0.020041
# 5 0.000491 0.000352 -0.001314 0.000000 0.029459 0.000000
# 6 -0.000002 0.000001 0.000002 0.020041 0.000000 0.023244
#
#
# Mechanical properties :
#
#
# Convention : Reuss Voigt Hill
#
# Bulk Modulus (GPa) = 21.86024 25.50271 23.68148
# Shear Modulus (GPa) = 23.15591 32.53075 27.84333
#
# Velocity S-wave (km/s) = 3.35575 3.97745 3.67975
# Velocity P-wave (km/s) = 5.06415 5.78756 5.43790
#
# Compressibility (1/GPa) = 0.04574515
#
# Stress axis : x y z
#
# Youngs Moduli (GPa) = 32.23567 74.71016 80.56833
#
# Poissons Ratio (x) = 0.20076 0.16929
# Poissons Ratio (y) = 0.08662 0.06028
# Poissons Ratio (z) = 0.06774 0.05590
#
# Static dielectric constant tensor:
#      x y z
#    x 1.729480 0.000000 -0.009110 
#    y 0.000000 1.747310 0.000000 
#    z -0.009110 0.000000 1.726190 
# 
# From -- ./inp_files/174174.got.cif
#   From: 2010.05.17/outbox.cif.g08.bks.cpg/sg15_88_cif.got.tgz:174174.got - 2010.06.03 18:47:42.
