data_PCOD9307968
_publ_section_title
;
Structure prediction by ZEFSAII (Michael W. Deem and Ramdas Pophale) SiO2 
 PCOD9307968
Probable space group: C 2/C
;
_chemical_formula_sum "Si O2"
_cell_formula_units_Z 44
_cell_length_a 4.817306
_cell_length_b 13.901648
_cell_length_c 26.695206
_cell_angle_alpha 90.000000
_cell_angle_beta 88.755623
_cell_angle_gamma 90.000000
_cell_volume 1787.316084
_symmetry_space_group_name_H-M "C 2/C"
_symmetry_group_IT_number 15
_symmetry_cell_setting 'monoclinic'
loop_
_space_group_symop_operation_xyz
x,y,z
-x,y,1/2-z
-x,-y,-z
x,-y,1/2+z
1/2+x,1/2+y,z
1/2-x,1/2+y,1/2-z
1/2-x,1/2-y,-z
1/2+x,1/2-y,1/2+z
loop_
_atom_site_type_symbol
_atom_site_label
_atom_site_fract_x
_atom_site_fract_y
_atom_site_fract_z
Si Si1 0.332439 0.909825 0.199076
Si Si2 0.646913 0.624422 0.179916
Si Si3 0.658062 0.154534 0.113486
Si Si4 0.500000 0.747934 0.750000
Si Si5 0.629075 0.528994 0.946770
Si Si6 0.112558 0.639403 0.908083
O O1 0.500000 0.911167 0.250000
O O2 0.114002 0.824511 0.207350
O O3 0.496500 0.883072 0.147837
O O4 0.197254 0.013700 0.192949
O O5 0.332655 0.639199 0.164176
O O6 0.837922 0.652319 0.131045
O O7 0.766440 0.688284 0.224316
O O8 0.768242 0.253303 0.089525
O O9 0.731531 0.064192 0.078712
O O10 0.374528 0.569695 0.915398
O O11 0.868675 0.610225 0.946815
O O12 0.500000 0.500000 0.000000
#
# Coordination Sequence:
#
# PCOD9307968 Si02
#       6
#     8   8   8   4   8   8
#     4  12  26  43  72 104 143 191 238 288 351 428
#     4  12  26  44  70 102 144 192 231 289 352 421
#     4  12  25  47  72 101 143 185 235 291 365 425
#     4  12  28  44  68 106 144 186 250 286 342 430
#     4  12  27  48  76 109 141 184 246 306 363 432
#     4  12  26  47  75 103 146 192 232 296 368 425
#
# _framework density 24.617920000000002
#
# number of rings (size 3 to 8) (size 9 to 14) (size 15 to 20)
#    0.000    0.000    6.364    2.727    5.091    1.455 
#    0.000    0.000    0.000    0.000    0.000    0.000 
#    0.000    0.000    0.000    0.000    0.000    0.000 
#
# Total GULP energy -123473.200498 kJ/mol
# GULP energy per Si atom -5612.418204 kJ/mol
# Density = 2.456189 g / cm^3
# Si number density = 24.617920 Si / 1000 Ang^3
#
#
#
# Elastic Constant Matrix: (Units=GPa)
#
#
# Indices 1 2 3 4 5 6 
#
# 1 71.7674 5.7713 0.6954 0.0000 -11.9360 0.0000
# 2 5.7713 140.1256 17.6438 0.0000 -0.9349 0.0000
# 3 0.6954 17.6438 59.8275 0.0000 -20.2106 0.0000
# 4 0.0000 0.0000 0.0000 19.6293 0.0000 -11.4086
# 5 -11.9360 -0.9349 -20.2106 0.0000 37.2569 0.0000
# 6 0.0000 0.0000 0.0000 -11.4086 0.0000 23.4557
#
#
#
# Elastic Compliance Matrix: (Units=1/GPa)
#
#
# Indices 1 2 3 4 5 6 
#
# 1 0.014961 -0.000837 0.002063 0.000000 0.005891 0.000000
# 2 -0.000837 0.007504 -0.002731 0.000000 -0.001561 0.000000
# 3 0.002063 -0.002731 0.021667 0.000000 0.012346 0.000000
# 4 0.000000 0.000000 0.000000 0.071022 0.000000 0.034544
# 5 0.005891 -0.001561 0.012346 0.000000 0.035386 0.000000
# 6 0.000000 0.000000 0.000000 0.034544 0.000000 0.059436
#
#
# Mechanical properties :
#
#
# Convention : Reuss Voigt Hill
#
# Bulk Modulus (GPa) = 24.31724 35.54904 29.93314
# Shear Modulus (GPa) = 22.05642 32.57572 27.31607
#
# Velocity S-wave (km/s) = 2.99649 3.64160 3.33468
# Velocity P-wave (km/s) = 4.67667 5.67039 5.19733
#
# Compressibility (1/GPa) = 0.04112310
#
# Stress axis : x y z
#
# Youngs Moduli (GPa) = 66.84055 133.25638 46.15396
#
# Poissons Ratio (x) = 0.11149 -0.09521
# Poissons Ratio (y) = 0.05592 0.12603
# Poissons Ratio (z) = -0.13789 0.36389
#
# Static dielectric constant tensor:
#      x y z
#    x 1.933000 0.000000 -0.030580 
#    y 0.000000 1.922090 0.000000 
#    z -0.030580 0.000000 1.997080 
# 
# From -- ./inp_files/260442.got.cif
#   From: 2010.05.17/outbox.cif.g08.bks.cpg/sg15_131_cif.got.tgz:260442.got - 2010.06.03 18:47:42.
