data_PCOD9307492
_publ_section_title
;
Structure prediction by ZEFSAII (Michael W. Deem and Ramdas Pophale) SiO2 
 PCOD9307492
Probable space group: C 2/C
;
_chemical_formula_sum "Si O2"
_cell_formula_units_Z 52
_cell_length_a 7.631093
_cell_length_b 22.777167
_cell_length_c 14.623187
_cell_angle_alpha 90.000000
_cell_angle_beta 57.484905
_cell_angle_gamma 90.000000
_cell_volume 2143.308885
_symmetry_space_group_name_H-M "C 2/C"
_symmetry_group_IT_number 15
_symmetry_cell_setting 'monoclinic'
loop_
_space_group_symop_operation_xyz
x,y,z
-x,y,1/2-z
-x,-y,-z
x,-y,1/2+z
1/2+x,1/2+y,z
1/2-x,1/2+y,1/2-z
1/2-x,1/2-y,-z
1/2+x,1/2-y,1/2+z
loop_
_atom_site_type_symbol
_atom_site_label
_atom_site_fract_x
_atom_site_fract_y
_atom_site_fract_z
Si Si1 0.253643 0.282437 0.829922
Si Si2 0.169572 0.908072 0.978762
Si Si3 0.106306 0.579244 0.806385
Si Si4 0.248326 0.126101 0.013417
Si Si5 0.500000 0.859602 0.750000
Si Si6 0.685380 0.494034 0.622620
Si Si7 0.533792 0.668891 0.840837
O O1 0.500000 0.273291 0.750000
O O2 0.238130 0.317493 0.928358
O O3 0.136564 0.220490 0.868746
O O4 0.148492 0.320222 0.775752
O O5 0.143676 0.969539 0.040166
O O6 0.173541 0.858182 0.057156
O O7 0.357795 0.899479 0.856487
O O8 0.963356 0.888256 0.981630
O O9 0.145621 0.532175 0.872608
O O10 0.313412 0.613529 0.719664
O O11 0.000000 0.549111 0.750000
O O12 0.938741 0.624883 0.890460
O O13 0.257221 0.070765 0.079675
O O14 0.500000 0.491655 0.750000
O O15 0.500000 0.694126 0.750000
#
# Coordination Sequence:
#
# PCOD9307492 Si02
#       7
#     8   8   8   8   4   8   8
#     4  12  27  50  74 113 155 202 253 315 387 461
#     4  12  25  50  76 109 151 203 255 320 384 459
#     4  12  23  46  74 113 148 201 259 317 383 455
#     4  12  27  46  73 114 155 199 254 319 390 461
#     4  12  28  48  72 108 160 196 252 316 388 456
#     4  12  24  48  77 107 155 200 254 322 386 459
#     4  12  25  49  80 109 150 200 263 314 381 459
#
# _framework density 24.261551999999998
#
# number of rings (size 3 to 8) (size 9 to 14) (size 15 to 20)
#    0.000    0.000    6.923    2.769    0.000    2.462 
#    2.769    0.000    0.000    0.000    0.000    0.000 
#    0.000    0.000    0.000    0.000    0.000    0.000 
#
# Total GULP energy -145618.512789 kJ/mol
# GULP energy per Si atom -5600.712030 kJ/mol
# Density = 2.420633 g / cm^3
# Si number density = 24.261552 Si / 1000 Ang^3
#
#
#
# Elastic Constant Matrix: (Units=GPa)
#
#
# Indices 1 2 3 4 5 6 
#
# 1 75.3693 5.0356 11.7738 0.0000 15.5634 0.0000
# 2 5.0356 81.5069 22.8358 0.0000 9.4805 0.0000
# 3 11.7738 22.8358 142.9895 0.0000 -20.0671 0.0000
# 4 0.0000 0.0000 0.0000 21.2286 0.0000 8.1501
# 5 15.5634 9.4805 -20.0671 0.0000 51.1360 0.0000
# 6 0.0000 0.0000 0.0000 8.1501 0.0000 33.6973
#
#
#
# Elastic Compliance Matrix: (Units=1/GPa)
#
#
# Indices 1 2 3 4 5 6 
#
# 1 0.014654 0.000268 -0.001992 0.000000 -0.005291 0.000000
# 2 0.000268 0.013422 -0.002674 0.000000 -0.003619 0.000000
# 3 -0.001992 -0.002674 0.008190 0.000000 0.004316 0.000000
# 4 0.000000 0.000000 0.000000 0.051928 0.000000 -0.012560
# 5 -0.005291 -0.003619 0.004316 0.000000 0.023531 0.000000
# 6 0.000000 0.000000 0.000000 -0.012560 0.000000 0.032714
#
#
# Mechanical properties :
#
#
# Convention : Reuss Voigt Hill
#
# Bulk Modulus (GPa) = 36.40109 42.12847 39.26478
# Shear Modulus (GPa) = 30.78981 38.56039 34.67510
#
# Velocity S-wave (km/s) = 3.56628 3.99101 3.78460
# Velocity P-wave (km/s) = 5.65632 6.21607 5.94279
#
# Compressibility (1/GPa) = 0.02747171
#
# Stress axis : x y z
#
# Youngs Moduli (GPa) = 68.24114 74.50249 122.09653
#
# Poissons Ratio (x) = -0.01999 0.24322
# Poissons Ratio (y) = -0.01831 0.32644
# Poissons Ratio (z) = 0.13594 0.19919
#
# Static dielectric constant tensor:
#      x y z
#    x 2.009150 0.000000 0.024150 
#    y 0.000000 1.872050 0.000000 
#    z 0.024150 0.000000 1.975910 
# 
# From -- ./inp_files/137206.got.cif
#   From: 2010.05.17/outbox.cif.g08.bks.cpg/sg15_69_cif.got.tgz:137206.got - 2010.06.03 18:47:42.
