data_PCOD9307395
_publ_section_title
;
Structure prediction by ZEFSAII (Michael W. Deem and Ramdas Pophale) SiO2 
 PCOD9307395
Probable space group: C 2/C
;
_chemical_formula_sum "Si O2"
_cell_formula_units_Z 40
_cell_length_a 7.767057
_cell_length_b 20.712994
_cell_length_c 9.759226
_cell_angle_alpha 90.000000
_cell_angle_beta 71.406791
_cell_angle_gamma 90.000000
_cell_volume 1488.107467
_symmetry_space_group_name_H-M "C 2/C"
_symmetry_group_IT_number 15
_symmetry_cell_setting 'monoclinic'
loop_
_space_group_symop_operation_xyz
x,y,z
-x,y,1/2-z
-x,-y,-z
x,-y,1/2+z
1/2+x,1/2+y,z
1/2-x,1/2+y,1/2-z
1/2-x,1/2-y,-z
1/2+x,1/2-y,1/2+z
loop_
_atom_site_type_symbol
_atom_site_label
_atom_site_fract_x
_atom_site_fract_y
_atom_site_fract_z
Si Si1 0.500000 0.067015 0.250000
Si Si2 0.750000 0.250000 0.000000
Si Si3 0.907490 0.859729 0.042563
Si Si4 0.500000 0.740825 0.750000
Si Si5 0.245532 0.968155 0.243579
Si Si6 0.000000 0.075268 0.250000
Si Si7 0.007157 0.365727 0.031255
O O1 0.547401 0.107334 0.370649
O O2 0.339355 0.016838 0.327589
O O3 0.626690 0.194035 0.951545
O O4 0.820024 0.277759 0.828617
O O5 0.001385 0.801971 0.107847
O O6 0.893851 0.920484 0.147042
O O7 0.697198 0.846450 0.055430
O O8 0.013807 0.880426 0.880311
O O9 0.393255 0.921615 0.136987
O O10 0.154570 0.022566 0.172492
#
# Coordination Sequence:
#
# PCOD9307395 Si02
#       7
#     4   4   8   4   8   4   8
#     4  12  23  42  77 119 164 207 262 322 414 498
#     4  12  30  52  80 110 152 220 278 340 384 480
#     4  12  26  50  77 119 162 209 265 332 409 490
#     4  12  30  54  86 110 154 215 285 338 398 478
#     4  12  23  44  78 120 164 210 259 330 406 495
#     4  12  27  42  77 127 170 208 253 328 418 490
#     4  12  26  49  77 114 162 215 270 330 407 477
#
# _framework density 26.879778999999999
#
# number of rings (size 3 to 8) (size 9 to 14) (size 15 to 20)
#    0.000    0.000    6.000    3.600    2.800    2.400 
#    0.000    2.000    0.000    0.000    0.000    0.000 
#    0.000    0.000    0.000    0.000    0.000    0.000 
#
# Total GULP energy -111491.440579 kJ/mol
# GULP energy per Si atom -5574.572029 kJ/mol
# Density = 2.681860 g / cm^3
# Si number density = 26.879779 Si / 1000 Ang^3
#
#
#
# Elastic Constant Matrix: (Units=GPa)
#
#
# Indices 1 2 3 4 5 6 
#
# 1 122.0883 74.7022 23.7196 0.0000 14.1528 0.0000
# 2 74.7022 103.5240 41.2113 0.0000 14.5590 0.0000
# 3 23.7196 41.2113 172.5457 0.0000 -13.3367 0.0000
# 4 0.0000 0.0000 0.0000 42.7487 0.0000 6.4319
# 5 14.1528 14.5590 -13.3367 0.0000 49.5931 0.0000
# 6 0.0000 0.0000 0.0000 6.4319 0.0000 44.8208
#
#
#
# Elastic Compliance Matrix: (Units=1/GPa)
#
#
# Indices 1 2 3 4 5 6 
#
# 1 0.014757 -0.010695 0.000452 0.000000 -0.000950 0.000000
# 2 -0.010695 0.019219 -0.003391 0.000000 -0.003502 0.000000
# 3 0.000452 -0.003391 0.006751 0.000000 0.002682 0.000000
# 4 0.000000 0.000000 0.000000 0.023909 0.000000 -0.003431
# 5 -0.000950 -0.003502 0.002682 0.000000 0.022184 0.000000
# 6 0.000000 0.000000 0.000000 -0.003431 0.000000 0.022803
#
#
# Mechanical properties :
#
#
# Convention : Reuss Voigt Hill
#
# Bulk Modulus (GPa) = 74.29469 75.26934 74.78202
# Shear Modulus (GPa) = 35.36638 44.66751 40.01695
#
# Velocity S-wave (km/s) = 3.63123 4.08088 3.86260
# Velocity P-wave (km/s) = 6.72909 7.08998 6.91189
#
# Compressibility (1/GPa) = 0.01345991
#
# Stress axis : x y z
#
# Youngs Moduli (GPa) = 67.76453 52.03075 148.13626
#
# Poissons Ratio (x) = 0.55647 -0.06701
# Poissons Ratio (y) = 0.72474 0.50231
# Poissons Ratio (z) = -0.03066 0.17643
#
# Static dielectric constant tensor:
#      x y z
#    x 1.855380 0.000000 0.321820 
#    y 0.000000 1.345370 0.000000 
#    z 0.321820 0.000000 1.866850 
# 
# From -- ./inp_files/23569.got.cif
#   From: 2010.05.17/outbox.cif.g08.bks.cpg/sg15_12_cif.got.tgz:23569.got - 2010.06.03 18:47:42.
