data_PCOD9307575
_publ_section_title
;
Structure prediction by ZEFSAII (Michael W. Deem and Ramdas Pophale) SiO2 
 PCOD9307575
Probable space group: C 2/C
;
_chemical_formula_sum "Si O2"
_cell_formula_units_Z 40
_cell_length_a 12.839542
_cell_length_b 24.878793
_cell_length_c 5.538233
_cell_angle_alpha 90.000000
_cell_angle_beta 97.091201
_cell_angle_gamma 90.000000
_cell_volume 1755.558611
_symmetry_space_group_name_H-M "C 2/C"
_symmetry_group_IT_number 15
_symmetry_cell_setting 'monoclinic'
loop_
_space_group_symop_operation_xyz
x,y,z
-x,y,1/2-z
-x,-y,-z
x,-y,1/2+z
1/2+x,1/2+y,z
1/2-x,1/2+y,1/2-z
1/2-x,1/2-y,-z
1/2+x,1/2-y,1/2+z
loop_
_atom_site_type_symbol
_atom_site_label
_atom_site_fract_x
_atom_site_fract_y
_atom_site_fract_z
Si Si1 0.344714 0.726675 0.866492
Si Si2 0.688450 0.372326 0.491421
Si Si3 0.000000 0.159330 0.250000
Si Si4 0.892257 0.655935 0.328871
Si Si5 0.000000 0.400332 0.250000
Si Si6 0.307087 0.032561 0.832159
O O1 0.311983 0.683105 0.659527
O O2 0.388376 0.781393 0.767261
O O3 0.250000 0.750000 0.000000
O O4 0.428481 0.697162 0.060652
O O5 0.579515 0.374143 0.605093
O O6 0.785652 0.369601 0.705309
O O7 0.716573 0.422282 0.330882
O O8 0.914107 0.640214 0.609758
O O9 0.000000 0.633662 0.250000
O O10 0.077793 0.439930 0.128631
O O11 0.298332 0.004063 0.569216
#
# Coordination Sequence:
#
# PCOD9307575 Si02
#       6
#     8   8   4   8   4   8
#     4  12  26  44  74 111 157 200 258 309 389 478
#     4  12  27  49  72 111 157 203 260 326 377 472
#     4  12  27  46  76 104 158 208 252 317 388 454
#     4  12  24  41  73 113 160 201 243 305 397 478
#     4  12  25  46  76 122 164 196 250 331 404 488
#     4  12  28  49  81 114 154 209 270 336 405 461
#
# _framework density 22.784768
#
# number of rings (size 3 to 8) (size 9 to 14) (size 15 to 20)
#    0.000    0.000    4.000    6.000    5.600    0.000 
#    0.000    1.000    0.000    0.000    0.000    0.000 
#    0.000    0.000    0.000    0.000    0.000    0.000 
#
# Total GULP energy -111847.046911 kJ/mol
# GULP energy per Si atom -5592.352346 kJ/mol
# Density = 2.273291 g / cm^3
# Si number density = 22.784768 Si / 1000 Ang^3
#
#
#
# Elastic Constant Matrix: (Units=GPa)
#
#
# Indices 1 2 3 4 5 6 
#
# 1 175.6470 36.9537 36.1029 0.0000 -23.3654 0.0000
# 2 36.9537 103.4442 37.1168 0.0000 -18.2983 0.0000
# 3 36.1029 37.1168 92.9681 0.0000 8.6769 0.0000
# 4 0.0000 0.0000 0.0000 46.1012 0.0000 -6.2270
# 5 -23.3654 -18.2983 8.6769 0.0000 42.6865 0.0000
# 6 0.0000 0.0000 0.0000 -6.2270 0.0000 41.4079
#
#
#
# Elastic Compliance Matrix: (Units=1/GPa)
#
#
# Indices 1 2 3 4 5 6 
#
# 1 0.006964 -0.000779 -0.002771 0.000000 0.004041 0.000000
# 2 -0.000779 0.013021 -0.005481 0.000000 0.006270 0.000000
# 3 -0.002771 -0.005481 0.014660 0.000000 -0.006846 0.000000
# 4 0.000000 0.000000 0.000000 0.022141 0.000000 0.003330
# 5 0.004041 0.006270 -0.006846 0.000000 0.029718 0.000000
# 6 0.000000 0.000000 0.000000 0.003330 0.000000 0.024651
#
#
# Mechanical properties :
#
#
# Convention : Reuss Voigt Hill
#
# Bulk Modulus (GPa) = 60.30153 65.82292 63.06222
# Shear Modulus (GPa) = 37.10745 43.49818 40.30282
#
# Velocity S-wave (km/s) = 4.03998 4.37405 4.21033
# Velocity P-wave (km/s) = 6.94875 7.37980 7.16752
#
# Compressibility (1/GPa) = 0.01658333
#
# Stress axis : x y z
#
# Youngs Moduli (GPa) = 143.59181 76.79898 68.21452
#
# Poissons Ratio (x) = 0.05981 0.18900
# Poissons Ratio (y) = 0.11183 0.37390
# Poissons Ratio (z) = 0.39785 0.42095
#
# Static dielectric constant tensor:
#      x y z
#    x 1.880500 0.000000 -0.075930 
#    y 0.000000 1.858970 0.000000 
#    z -0.075930 0.000000 2.135550 
# 
# From -- ./inp_files/5102.got.cif
#   From: 2010.05.17/outbox.cif.g08.bks.cpg/sg15_3_cif.got.tgz:5102.got - 2010.06.03 18:47:42.
