data_PCOD9307408
_publ_section_title
;
Structure prediction by ZEFSAII (Michael W. Deem and Ramdas Pophale) SiO2 
 PCOD9307408
Probable space group: C 2/C
;
_chemical_formula_sum "Si O2"
_cell_formula_units_Z 48
_cell_length_a 15.810182
_cell_length_b 16.531702
_cell_length_c 18.955473
_cell_angle_alpha 90.000000
_cell_angle_beta 24.140469
_cell_angle_gamma 90.000000
_cell_volume 2026.216932
_symmetry_space_group_name_H-M "C 2/C"
_symmetry_group_IT_number 15
_symmetry_cell_setting 'monoclinic'
loop_
_space_group_symop_operation_xyz
x,y,z
-x,y,1/2-z
-x,-y,-z
x,-y,1/2+z
1/2+x,1/2+y,z
1/2-x,1/2+y,1/2-z
1/2-x,1/2-y,-z
1/2+x,1/2-y,1/2+z
loop_
_atom_site_type_symbol
_atom_site_label
_atom_site_fract_x
_atom_site_fract_y
_atom_site_fract_z
Si Si1 0.302493 0.484843 0.447551
Si Si2 0.238393 0.676722 0.064456
Si Si3 0.410884 0.661927 0.081915
Si Si4 0.636877 0.831426 0.325210
Si Si5 0.832422 0.341726 0.437133
Si Si6 0.990173 0.429451 0.564627
O O1 0.500000 0.490900 0.250000
O O2 0.344234 0.408366 0.465742
O O3 0.285800 0.575019 0.491707
O O4 0.112544 0.455659 0.541977
O O5 0.319185 0.698527 0.079352
O O6 0.000000 0.656466 0.250000
O O7 0.250000 0.750000 0.000000
O O8 0.387805 0.734192 0.155673
O O9 0.244433 0.595068 0.234699
O O10 0.649766 0.644111 0.877705
O O11 0.440009 0.860479 0.430119
O O12 0.607861 0.861176 0.427971
O O13 0.750000 0.250000 0.500000
O O14 0.000000 0.337602 0.250000
O O15 0.000000 0.500000 0.500000
#
# Coordination Sequence:
#
# PCOD9307408 Si02
#       6
#     8   8   8   8   8   8
#     4  12  26  48  74 108 152 194 249 313 377 452
#     4  12  23  43  72 107 152 192 245 304 382 455
#     4  12  25  44  78 106 151 198 247 310 378 455
#     4  12  25  49  76 110 150 194 255 311 379 460
#     4  12  28  49  77 106 145 196 254 313 379 444
#     4  12  26  47  74 111 153 197 250 315 380 452
#
# _framework density 23.689468000000002
#
# number of rings (size 3 to 8) (size 9 to 14) (size 15 to 20)
#    0.000    0.000    5.000    5.500    0.000    3.333 
#    0.000    0.000    0.000    0.000    0.000    0.000 
#    0.000    0.000    0.000    0.000    0.000    0.000 
#
# Total GULP energy -133979.808295 kJ/mol
# GULP energy per Si atom -5582.492012 kJ/mol
# Density = 2.363555 g / cm^3
# Si number density = 23.689468 Si / 1000 Ang^3
#
#
#
# Elastic Constant Matrix: (Units=GPa)
#
#
# Indices 1 2 3 4 5 6 
#
# 1 57.9551 8.1308 -21.0589 -0.2500 6.4490 0.0983
# 2 8.1308 171.1922 58.3780 -0.1579 20.9905 0.0682
# 3 -21.0589 58.3780 140.1632 -0.2315 23.8445 0.0930
# 4 -0.2500 -0.1579 -0.2315 -105.4712 0.1342 79.6256
# 5 6.4490 20.9905 23.8445 0.1342 28.6625 -0.0528
# 6 0.0983 0.0682 0.0930 79.6256 -0.0528 8.1889
#
#
#
# Elastic Compliance Matrix: (Units=1/GPa)
#
#
# Indices 1 2 3 4 5 6 
#
# 1 0.020153 -0.001760 0.005024 -0.000038 -0.007425 0.000037
# 2 -0.001760 0.007201 -0.002835 -0.000003 -0.002519 0.000001
# 3 0.005024 -0.002835 0.010378 -0.000023 -0.007687 0.000022
# 4 -0.000038 -0.000003 -0.000023 -0.001137 0.000055 0.011053
# 5 -0.007425 -0.002519 -0.007687 0.000055 0.044799 -0.000053
# 6 0.000037 0.000001 0.000022 0.011053 -0.000053 0.014641
#
#
# Mechanical properties :
#
#
# Convention : Reuss Voigt Hill
#
# Bulk Modulus (GPa) = 25.91382 51.13448 38.52415
# Shear Modulus (GPa) = 46.27910 7.86673 27.07291
#
# Velocity S-wave (km/s) = 4.42472 1.82428 3.38424
# Velocity P-wave (km/s) = 6.08826 5.10583 5.61856
#
# Compressibility (1/GPa) = 0.03858944
#
# Stress axis : x y z
#
# Youngs Moduli (GPa) = 49.61999 138.87778 96.35867
#
# Poissons Ratio (x) = 0.24444 -0.48411
# Poissons Ratio (y) = 0.08734 0.27318
# Poissons Ratio (z) = -0.24929 0.39372
#
# Static dielectric constant tensor:
#      x y z
#    x 2.057970 0.001900 -0.053740 
#    y 0.001900 3.554430 0.002830 
#    z -0.053740 0.002830 1.869130 
# 
# From -- ./inp_files/249720.got.cif
#   From: 2010.05.17/outbox.cif.g08.bks.cpg/sg15_125_cif.got.tgz:249720.got - 2010.06.03 18:47:42.
