data_PCOD9307310
_publ_section_title
;
Structure prediction by ZEFSAII (Michael W. Deem and Ramdas Pophale) SiO2 
 PCOD9307310
Probable space group: C 2/C
;
_chemical_formula_sum "Si O2"
_cell_formula_units_Z 60
_cell_length_a 26.465835
_cell_length_b 15.031996
_cell_length_c 20.188607
_cell_angle_alpha 90.000000
_cell_angle_beta 19.623110
_cell_angle_gamma 90.000000
_cell_volume 2697.305001
_symmetry_space_group_name_H-M "C 2/C"
_symmetry_group_IT_number 15
_symmetry_cell_setting 'monoclinic'
loop_
_space_group_symop_operation_xyz
x,y,z
-x,y,1/2-z
-x,-y,-z
x,-y,1/2+z
1/2+x,1/2+y,z
1/2-x,1/2+y,1/2-z
1/2-x,1/2-y,-z
1/2+x,1/2-y,1/2+z
loop_
_atom_site_type_symbol
_atom_site_label
_atom_site_fract_x
_atom_site_fract_y
_atom_site_fract_z
Si Si1 0.750000 0.750000 0.500000
Si Si2 0.835006 0.420964 0.547257
Si Si3 0.828928 0.238184 0.472688
Si Si4 0.056624 0.338724 0.487333
Si Si5 0.642580 0.072764 0.752002
Si Si6 0.770381 0.389677 0.094143
Si Si7 0.716957 0.381982 0.929658
Si Si8 0.422195 0.363167 0.540172
O O1 0.789487 0.676731 0.509702
O O2 0.673419 0.669200 0.549468
O O3 0.829948 0.330794 0.511304
O O4 0.815082 0.508014 0.526505
O O5 0.696354 0.418814 0.770578
O O6 0.990781 0.425581 0.395740
O O7 0.750000 0.250000 0.500000
O O8 0.740180 0.159720 0.617496
O O9 0.000000 0.210814 0.250000
O O10 0.100284 0.414718 0.381470
O O11 0.124626 0.358659 0.474876
O O12 0.104719 0.239932 0.407545
O O13 0.877096 0.335680 0.714270
O O14 0.737680 0.984987 0.618843
O O15 0.597030 0.385786 0.332825
O O16 0.612428 0.371800 0.995048
#
# Coordination Sequence:
#
# PCOD9307310 Si02
#       8
#     4   8   8   8   8   8   8   8
#     4  12  28  48  72 110 156 204 234 294 382 464
#     4  12  26  49  79 105 144 201 252 309 381 435
#     4  12  28  47  73 110 147 188 247 310 374 450
#     4  12  22  47  77 108 144 195 251 312 372 435
#     4  12  26  49  81 104 144 201 253 309 372 448
#     4  12  28  44  74 112 154 194 249 307 372 456
#     4  12  26  46  74 106 150 196 250 296 370 464
#     4  12  24  46  72 114 148 188 255 324 365 427
#
# _framework density 22.244425
#
# number of rings (size 3 to 8) (size 9 to 14) (size 15 to 20)
#    0.000    0.000    8.000    1.600    1.867    4.267 
#    0.000    0.000    0.000    0.000    0.000    0.000 
#    0.000    0.000    0.000    0.000    0.000    0.000 
#
# Total GULP energy -167475.412386 kJ/mol
# GULP energy per Si atom -5582.513746 kJ/mol
# Density = 2.219380 g / cm^3
# Si number density = 22.244425 Si / 1000 Ang^3
#
#
#
# Elastic Constant Matrix: (Units=GPa)
#
#
# Indices 1 2 3 4 5 6 
#
# 1 -3.3564 63.8457 -70.6908 -0.0047 110.0980 0.0089
# 2 63.8457 186.4977 25.0132 0.0003 -16.6078 -0.0008
# 3 -70.6908 25.0132 2.8304 -0.0030 62.2784 0.0056
# 4 -0.0047 0.0003 -0.0030 19.7466 0.0031 -8.5904
# 5 110.0980 -16.6078 62.2784 0.0031 -76.4756 -0.0062
# 6 0.0089 -0.0008 0.0056 -8.5904 -0.0062 71.1651
#
#
#
# Elastic Compliance Matrix: (Units=1/GPa)
#
#
# Indices 1 2 3 4 5 6 
#
# 1 0.007064 -0.001350 -0.002212 0.000000 0.008661 0.000000
# 2 -0.001350 0.005587 -0.000721 0.000000 -0.003744 0.000000
# 3 -0.002212 -0.000721 0.019613 0.000000 0.012944 0.000000
# 4 0.000000 0.000000 0.000000 0.053448 0.000002 0.006452
# 5 0.008661 -0.003744 0.012944 0.000002 0.010746 -0.000001
# 6 0.000000 0.000000 0.000000 0.006452 -0.000001 0.014831
#
#
# Mechanical properties :
#
#
# Convention : Reuss Voigt Hill
#
# Bulk Modulus (GPa) = 42.19740 24.70089 33.44914
# Shear Modulus (GPa) = 39.13737 14.07413 26.60575
#
# Velocity S-wave (km/s) = 4.19910 2.51809 3.46217
# Velocity P-wave (km/s) = 6.52081 4.42524 5.57242
#
# Compressibility (1/GPa) = 0.02369815
#
# Stress axis : x y z
#
# Youngs Moduli (GPa) = 141.57119 178.97243 50.98542
#
# Poissons Ratio (x) = 0.24165 0.11280
# Poissons Ratio (y) = 0.19115 0.03674
# Poissons Ratio (z) = 0.31322 0.12895
#
# Static dielectric constant tensor:
#      x y z
#    x 1.779370 0.000000 0.055130 
#    y 0.000000 1.829140 0.000000 
#    z 0.055130 0.000000 1.843370 
# 
# From -- ./inp_files/257854.got.cif
#   From: 2010.05.17/outbox.cif.g08.bks.cpg/sg15_129_cif.got.tgz:257854.got - 2010.06.03 18:47:42.
