data_PCOD9307699
_publ_section_title
;
Structure prediction by ZEFSAII (Michael W. Deem and Ramdas Pophale) SiO2 
 PCOD9307699
Probable space group: C 2/C
;
_chemical_formula_sum "Si O2"
_cell_formula_units_Z 44
_cell_length_a 22.826505
_cell_length_b 5.362221
_cell_length_c 17.689381
_cell_angle_alpha 90.000000
_cell_angle_beta 120.244744
_cell_angle_gamma 90.000000
_cell_volume 1870.471296
_symmetry_space_group_name_H-M "C 2/C"
_symmetry_group_IT_number 15
_symmetry_cell_setting 'monoclinic'
loop_
_space_group_symop_operation_xyz
x,y,z
-x,y,1/2-z
-x,-y,-z
x,-y,1/2+z
1/2+x,1/2+y,z
1/2-x,1/2+y,1/2-z
1/2-x,1/2-y,-z
1/2+x,1/2-y,1/2+z
loop_
_atom_site_type_symbol
_atom_site_label
_atom_site_fract_x
_atom_site_fract_y
_atom_site_fract_z
Si Si1 0.344712 0.978748 0.878373
Si Si2 0.500000 0.000000 0.500000
Si Si3 0.370350 0.359331 0.103573
Si Si4 0.776702 0.112909 0.944284
Si Si5 0.703772 0.239252 0.299553
Si Si6 0.955588 0.638912 0.644253
O O1 0.327662 0.791040 0.934633
O O2 0.343651 0.807603 0.802430
O O3 0.277850 0.152295 0.825879
O O4 0.419034 0.084162 0.941590
O O5 0.489369 0.084105 0.584305
O O6 0.333299 0.397271 0.159941
O O7 0.420058 0.589904 0.120206
O O8 0.405531 0.093801 0.125225
O O9 0.314875 0.370415 0.001053
O O10 0.719677 0.023376 0.850130
O O11 0.750000 0.250000 0.000000
O O12 0.000000 0.640285 0.750000
#
# Coordination Sequence:
#
# PCOD9307699 Si02
#       6
#     8   4   8   8   8   8
#     4  12  26  48  74 116 156 207 266 333 406 493
#     4  12  28  50  74 114 164 208 262 326 418 484
#     4  12  26  49  80 112 153 206 272 336 401 474
#     4  12  24  45  77 112 154 203 268 336 405 475
#     4  12  26  46  80 112 153 206 273 338 401 484
#     4  12  28  52  77 113 161 214 266 329 412 496
#
# _framework density 23.523485000000001
#
# number of rings (size 3 to 8) (size 9 to 14) (size 15 to 20)
#    0.000    0.000    5.455    4.364    0.000    2.182 
#    6.545    0.000    0.000    0.000    0.000    0.000 
#    0.000    0.000    0.000    0.000    0.000    0.000 
#
# Total GULP energy -122585.452768 kJ/mol
# GULP energy per Si atom -5572.066035 kJ/mol
# Density = 2.346994 g / cm^3
# Si number density = 23.523485 Si / 1000 Ang^3
#
#
#
# Elastic Constant Matrix: (Units=GPa)
#
#
# Indices 1 2 3 4 5 6 
#
# 1 128.1807 20.3962 34.6008 0.0000 -26.4603 0.0000
# 2 20.3962 63.2075 -3.6928 -0.0002 -3.3931 -0.0006
# 3 34.6008 -3.6928 123.5456 0.0000 -25.8914 -0.0002
# 4 0.0000 -0.0002 0.0000 29.6913 0.0000 6.5136
# 5 -26.4603 -3.3931 -25.8914 0.0000 42.2838 -0.0001
# 6 0.0000 -0.0006 -0.0002 6.5136 -0.0001 25.2061
#
#
#
# Elastic Compliance Matrix: (Units=1/GPa)
#
#
# Indices 1 2 3 4 5 6 
#
# 1 0.009751 -0.002999 -0.001827 0.000000 0.004743 0.000000
# 2 -0.002999 0.016890 0.001417 0.000000 0.000347 0.000000
# 3 -0.001827 0.001417 0.009674 0.000000 0.004894 0.000000
# 4 0.000000 0.000000 0.000000 0.035704 0.000000 -0.009226
# 5 0.004743 0.000347 0.004894 0.000000 0.029642 0.000000
# 6 0.000000 0.000000 0.000000 -0.009226 0.000000 0.042057
#
#
# Mechanical properties :
#
#
# Convention : Reuss Voigt Hill
#
# Bulk Modulus (GPa) = 33.89959 46.39358 40.14658
# Shear Modulus (GPa) = 31.17864 37.01155 34.09509
#
# Velocity S-wave (km/s) = 3.64459 3.97090 3.81124
# Velocity P-wave (km/s) = 5.67036 6.38663 6.03912
#
# Compressibility (1/GPa) = 0.02949888
#
# Stress axis : x y z
#
# Youngs Moduli (GPa) = 102.55665 59.20690 103.37232
#
# Poissons Ratio (x) = 0.17753 0.18881
# Poissons Ratio (y) = 0.30752 -0.14651
# Poissons Ratio (z) = 0.18732 -0.08391
#
# Static dielectric constant tensor:
#      x y z
#    x 1.922080 0.000000 0.031270 
#    y 0.000000 1.909760 0.000000 
#    z 0.031270 0.000000 1.868520 
# 
# From -- ./inp_files/212944.got.cif
#   From: 2010.05.17/outbox.cif.g08.bks.cpg/sg15_107_cif.got.tgz:212944.got - 2010.06.03 18:47:42.
