data_PCOD9307243
_publ_section_title
;
Structure prediction by ZEFSAII (Michael W. Deem and Ramdas Pophale) SiO2 
 PCOD9307243
Probable space group: C 2/C
;
_chemical_formula_sum "Si O2"
_cell_formula_units_Z 44
_cell_length_a 12.411925
_cell_length_b 7.324704
_cell_length_c 26.173410
_cell_angle_alpha 90.000000
_cell_angle_beta 126.510489
_cell_angle_gamma 90.000000
_cell_volume 1912.535084
_symmetry_space_group_name_H-M "C 2/C"
_symmetry_group_IT_number 15
_symmetry_cell_setting 'monoclinic'
loop_
_space_group_symop_operation_xyz
x,y,z
-x,y,1/2-z
-x,-y,-z
x,-y,1/2+z
1/2+x,1/2+y,z
1/2-x,1/2+y,1/2-z
1/2-x,1/2-y,-z
1/2+x,1/2-y,1/2+z
loop_
_atom_site_type_symbol
_atom_site_label
_atom_site_fract_x
_atom_site_fract_y
_atom_site_fract_z
Si Si1 0.922078 0.327624 0.955259
Si Si2 0.621803 0.285652 0.428892
Si Si3 0.000000 0.051762 0.750000
Si Si4 0.811113 0.646136 0.165011
Si Si5 0.991714 0.830257 0.580728
Si Si6 0.383866 0.756954 0.148466
O O1 0.765147 0.324994 0.900688
O O2 0.993670 0.292845 0.922043
O O3 0.000000 0.500000 0.000000
O O4 0.947447 0.190685 0.009556
O O5 0.750000 0.250000 0.500000
O O6 0.652905 0.217462 0.381468
O O7 0.589177 0.497505 0.421877
O O8 0.878247 0.198860 0.720132
O O9 0.974011 0.905198 0.697668
O O10 0.651275 0.646274 0.126981
O O11 0.865571 0.437256 0.179146
O O12 0.943441 0.684251 0.609751
#
# Coordination Sequence:
#
# PCOD9307243 Si02
#       6
#     8   8   4   8   8   8
#     4  12  23  42  77 115 153 191 236 306 382 450
#     4  12  22  43  75 112 153 187 232 300 376 444
#     4  12  28  54  72 102 152 196 266 310 352 440
#     4  12  26  51  76 105 148 202 246 307 376 434
#     4  12  24  48  74 113 152 189 242 307 377 453
#     4  12  26  49  76 110 147 197 254 299 373 443
#
# _framework density 23.006115000000001
#
# number of rings (size 3 to 8) (size 9 to 14) (size 15 to 20)
#    0.000    0.000    5.455    6.000    0.000    0.000 
#    9.818    0.000    0.000    0.000    0.000    0.000 
#    0.000    0.000    0.000    0.000    0.000    0.000 
#
# Total GULP energy -122886.740441 kJ/mol
# GULP energy per Si atom -5585.760929 kJ/mol
# Density = 2.295375 g / cm^3
# Si number density = 23.006115 Si / 1000 Ang^3
#
#
#
# Elastic Constant Matrix: (Units=GPa)
#
#
# Indices 1 2 3 4 5 6 
#
# 1 161.0871 30.2998 35.4951 0.0000 16.6427 0.0000
# 2 30.2998 117.3288 36.5709 0.0000 3.3583 0.0000
# 3 35.4951 36.5709 105.3538 0.0000 15.6786 0.0000
# 4 0.0000 0.0000 0.0000 35.9170 0.0000 -3.7501
# 5 16.6427 3.3583 15.6786 0.0000 18.5270 0.0000
# 6 0.0000 0.0000 0.0000 -3.7501 0.0000 28.8862
#
#
#
# Elastic Compliance Matrix: (Units=1/GPa)
#
#
# Indices 1 2 3 4 5 6 
#
# 1 0.007271 -0.001354 -0.001194 0.000000 -0.005275 0.000000
# 2 -0.001354 0.009834 -0.003287 0.000000 0.002216 0.000000
# 3 -0.001194 -0.003287 0.012341 0.000000 -0.008775 0.000000
# 4 0.000000 0.000000 0.000000 0.028225 0.000000 0.003664
# 5 -0.005275 0.002216 -0.008775 0.000000 0.065738 0.000000
# 6 0.000000 0.000000 0.000000 0.003664 0.000000 0.035094
#
#
# Mechanical properties :
#
#
# Convention : Reuss Voigt Hill
#
# Bulk Modulus (GPa) = 56.26163 65.38903 60.82533
# Shear Modulus (GPa) = 28.39313 35.42631 31.90972
#
# Velocity S-wave (km/s) = 3.51687 3.92837 3.72830
# Velocity P-wave (km/s) = 6.40307 7.00430 6.71042
#
# Compressibility (1/GPa) = 0.01777410
#
# Stress axis : x y z
#
# Youngs Moduli (GPa) = 137.53739 101.68851 81.02972
#
# Poissons Ratio (x) = 0.13772 0.09679
# Poissons Ratio (y) = 0.18627 0.26635
# Poissons Ratio (z) = 0.16429 0.33426
#
# Static dielectric constant tensor:
#      x y z
#    x 1.970670 0.000000 -0.187640 
#    y 0.000000 2.077970 0.000000 
#    z -0.187640 0.000000 2.059890 
# 
# From -- ./inp_files/291726.got.cif
#   From: 2010.05.17/outbox.cif.g08.bks.cpg/sg15_146_cif.got.tgz:291726.got - 2010.06.03 18:47:42.
