data_PCOD9307727
_publ_section_title
;
Structure prediction by ZEFSAII (Michael W. Deem and Ramdas Pophale) SiO2 
 PCOD9307727
Probable space group: C 2/C
;
_chemical_formula_sum "Si O2"
_cell_formula_units_Z 28
_cell_length_a 12.408893
_cell_length_b 8.390708
_cell_length_c 13.848810
_cell_angle_alpha 90.000000
_cell_angle_beta 55.063672
_cell_angle_gamma 90.000000
_cell_volume 1182.078075
_symmetry_space_group_name_H-M "C 2/C"
_symmetry_group_IT_number 15
_symmetry_cell_setting 'monoclinic'
loop_
_space_group_symop_operation_xyz
x,y,z
-x,y,1/2-z
-x,-y,-z
x,-y,1/2+z
1/2+x,1/2+y,z
1/2-x,1/2+y,1/2-z
1/2-x,1/2-y,-z
1/2+x,1/2-y,1/2+z
loop_
_atom_site_type_symbol
_atom_site_label
_atom_site_fract_x
_atom_site_fract_y
_atom_site_fract_z
Si Si1 0.500000 0.251911 0.250000
Si Si2 0.253246 0.912354 0.937705
Si Si3 0.144292 0.901035 0.332876
Si Si4 0.153439 0.444660 0.920033
O O1 0.620340 0.130931 0.191802
O O2 0.515923 0.367987 0.333436
O O3 0.146495 0.964853 0.914274
O O4 0.250000 0.750000 0.000000
O O5 0.289160 0.039554 0.001295
O O6 0.167781 0.734941 0.375349
O O7 0.257969 0.944922 0.196476
O O8 0.000000 0.500000 0.000000
#
# Coordination Sequence:
#
# PCOD9307727 Si02
#       4
#     4   8   8   8
#     4  12  24  46  76 104 154 192 256 312 362 456
#     4  12  24  47  71 105 152 195 250 310 379 451
#     4  12  25  47  73 111 149 198 259 310 378 457
#     4  12  24  47  75 109 155 203 248 321 379 448
#
# _framework density 23.687097000000001
#
# number of rings (size 3 to 8) (size 9 to 14) (size 15 to 20)
#    0.000    0.000    8.571    0.857    0.000    1.143 
#    5.143    1.429    0.000    0.000    0.000    0.000 
#    0.000    0.000    0.000    0.000    0.000    0.000 
#
# Total GULP energy -78206.885300 kJ/mol
# GULP energy per Si atom -5586.206093 kJ/mol
# Density = 2.363318 g / cm^3
# Si number density = 23.687097 Si / 1000 Ang^3
#
#
#
# Elastic Constant Matrix: (Units=GPa)
#
#
# Indices 1 2 3 4 5 6 
#
# 1 150.0100 32.7993 35.9879 0.0000 45.5673 0.0000
# 2 32.7993 97.7140 25.6574 0.0000 17.7489 0.0000
# 3 35.9879 25.6574 93.1117 0.0000 21.0261 0.0000
# 4 0.0000 0.0000 0.0000 48.7038 0.0000 20.1545
# 5 45.5673 17.7489 21.0261 0.0000 60.9441 0.0000
# 6 0.0000 0.0000 0.0000 20.1545 0.0000 53.1412
#
#
#
# Elastic Compliance Matrix: (Units=1/GPa)
#
#
# Indices 1 2 3 4 5 6 
#
# 1 0.009206 -0.001559 -0.001818 0.000000 -0.005802 0.000000
# 2 -0.001559 0.011615 -0.002275 0.000000 -0.001432 0.000000
# 3 -0.001818 -0.002275 0.012594 0.000000 -0.002323 0.000000
# 4 0.000000 0.000000 0.000000 0.024355 0.000000 -0.009237
# 5 -0.005802 -0.001432 -0.002323 0.000000 0.021965 0.000000
# 6 0.000000 0.000000 0.000000 -0.009237 0.000000 0.022321
#
#
# Mechanical properties :
#
#
# Convention : Reuss Voigt Hill
#
# Bulk Modulus (GPa) = 45.22678 58.85832 52.04255
# Shear Modulus (GPa) = 41.41535 48.98388 45.19961
#
# Velocity S-wave (km/s) = 4.18597 4.55241 4.37303
# Velocity P-wave (km/s) = 6.51905 7.24809 6.89321
#
# Compressibility (1/GPa) = 0.02211079
#
# Stress axis : x y z
#
# Youngs Moduli (GPa) = 108.62975 86.09864 79.40336
#
# Poissons Ratio (x) = 0.13420 0.14438
# Poissons Ratio (y) = 0.16932 0.18061
# Poissons Ratio (z) = 0.19753 0.19584
#
# Static dielectric constant tensor:
#      x y z
#    x 1.889130 0.000000 -0.031040 
#    y 0.000000 1.900270 0.000000 
#    z -0.031040 0.000000 2.052990 
# 
# From -- ./inp_files/83665.got.cif
#   From: 2010.05.17/outbox.cif.g08.bks.cpg/sg15_42_cif.got.tgz:83665.got - 2010.06.03 18:47:42.
