data_PCOD9307766
_publ_section_title
;
Structure prediction by ZEFSAII (Michael W. Deem and Ramdas Pophale) SiO2 
 PCOD9307766
Probable space group: C 2/C
;
_chemical_formula_sum "Si O2"
_cell_formula_units_Z 48
_cell_length_a 20.527477
_cell_length_b 17.016230
_cell_length_c 16.858170
_cell_angle_alpha 90.000000
_cell_angle_beta 20.899514
_cell_angle_gamma 90.000000
_cell_volume 2100.627640
_symmetry_space_group_name_H-M "C 2/C"
_symmetry_group_IT_number 15
_symmetry_cell_setting 'monoclinic'
loop_
_space_group_symop_operation_xyz
x,y,z
-x,y,1/2-z
-x,-y,-z
x,-y,1/2+z
1/2+x,1/2+y,z
1/2-x,1/2+y,1/2-z
1/2-x,1/2-y,-z
1/2+x,1/2-y,1/2+z
loop_
_atom_site_type_symbol
_atom_site_label
_atom_site_fract_x
_atom_site_fract_y
_atom_site_fract_z
Si Si1 0.453435 0.090936 0.888251
Si Si2 0.780904 0.340826 0.988886
Si Si3 0.814397 0.173767 0.728783
Si Si4 0.744585 0.468273 0.899407
Si Si5 0.537700 0.444516 0.881929
Si Si6 0.568903 0.847460 0.919290
O O1 0.500000 0.125690 0.750000
O O2 0.595359 0.021840 0.746668
O O3 0.248308 0.058373 0.120319
O O4 0.464933 0.149473 0.948957
O O5 0.710904 0.399648 0.001204
O O6 0.000000 0.351738 0.750000
O O7 0.750000 0.250000 0.000000
O O8 0.681475 0.356645 0.185695
O O9 0.967338 0.138958 0.496578
O O10 0.828185 0.267492 0.718244
O O11 0.620607 0.150702 0.912189
O O12 0.818950 0.423066 0.736763
O O13 0.581435 0.523568 0.055756
O O14 0.500000 0.500000 0.000000
#
# Coordination Sequence:
#
# PCOD9307766 Si02
#       6
#     8   8   8   8   8   8
#     4  12  28  51  75 111 149 197 260 324 373 441
#     4  12  25  44  72 115 159 197 245 315 382 453
#     4  12  25  48  74 111 152 206 254 309 389 457
#     4  12  25  47  76 112 158 195 252 311 378 457
#     4  12  27  47  78 107 148 207 254 302 387 458
#     4  12  24  47  76 107 155 204 255 316 378 458
#
# _framework density 22.850313
#
# number of rings (size 3 to 8) (size 9 to 14) (size 15 to 20)
#    0.000    0.000    6.667    3.000    2.333    2.000 
#    0.000    3.333    0.000    0.000    0.000    0.000 
#    0.000    0.000    0.000    0.000    0.000    0.000 
#
# Total GULP energy -134601.520525 kJ/mol
# GULP energy per Si atom -5608.396689 kJ/mol
# Density = 2.279831 g / cm^3
# Si number density = 22.850313 Si / 1000 Ang^3
#
#
#
# Elastic Constant Matrix: (Units=GPa)
#
#
# Indices 1 2 3 4 5 6 
#
# 1 164.2584 22.9901 58.0743 -0.0020 19.3992 -0.0005
# 2 22.9901 40.6491 5.6132 0.0014 -0.6614 -0.0010
# 3 58.0743 5.6132 90.7011 0.0022 -13.2172 0.0051
# 4 -0.0020 0.0014 0.0022 35.2755 -0.0002 1.1455
# 5 19.3992 -0.6614 -13.2172 -0.0002 47.8255 -0.0004
# 6 -0.0005 -0.0010 0.0051 1.1455 -0.0004 46.8976
#
#
#
# Elastic Compliance Matrix: (Units=1/GPa)
#
#
# Indices 1 2 3 4 5 6 
#
# 1 0.009909 -0.004746 -0.006925 0.000001 -0.005999 0.000001
# 2 -0.004746 0.027086 0.001769 -0.000001 0.002788 0.000000
# 3 -0.006925 0.001769 0.016424 -0.000001 0.007372 -0.000002
# 4 0.000001 -0.000001 -0.000001 0.028371 -0.000001 -0.000693
# 5 -0.005999 0.002788 0.007372 -0.000001 0.025419 -0.000001
# 6 0.000001 0.000000 -0.000002 -0.000693 -0.000001 0.021340
#
#
# Mechanical properties :
#
#
# Convention : Reuss Voigt Hill
#
# Bulk Modulus (GPa) = 29.74868 52.10708 40.92788
# Shear Modulus (GPa) = 31.33663 39.92845 35.63254
#
# Velocity S-wave (km/s) = 3.70724 4.18472 3.95319
# Velocity P-wave (km/s) = 5.60108 6.79723 6.22794
#
# Compressibility (1/GPa) = 0.03361494
#
# Stress axis : x y z
#
# Youngs Moduli (GPa) = 100.91796 36.91949 60.88614
#
# Poissons Ratio (x) = 0.17521 0.42164
# Poissons Ratio (y) = 0.47892 -0.10768
# Poissons Ratio (z) = 0.69886 -0.06530
#
# Static dielectric constant tensor:
#      x y z
#    x 1.837960 0.000000 0.013570 
#    y 0.000000 1.830730 0.000000 
#    z 0.013570 0.000000 1.873460 
# 
# From -- ./inp_files/216242.got.cif
#   From: 2010.05.17/outbox.cif.g08.bks.cpg/sg15_109_cif.got.tgz:216242.got - 2010.06.03 18:47:42.
