data_PCOD9307839
_publ_section_title
;
Structure prediction by ZEFSAII (Michael W. Deem and Ramdas Pophale) SiO2 
 PCOD9307839
Probable space group: C 2/C
;
_chemical_formula_sum "Si O2"
_cell_formula_units_Z 48
_cell_length_a 5.173126
_cell_length_b 17.810479
_cell_length_c 20.526070
_cell_angle_alpha 90.000000
_cell_angle_beta 74.815249
_cell_angle_gamma 90.000000
_cell_volume 1825.158502
_symmetry_space_group_name_H-M "C 2/C"
_symmetry_group_IT_number 15
_symmetry_cell_setting 'monoclinic'
loop_
_space_group_symop_operation_xyz
x,y,z
-x,y,1/2-z
-x,-y,-z
x,-y,1/2+z
1/2+x,1/2+y,z
1/2-x,1/2+y,1/2-z
1/2-x,1/2-y,-z
1/2+x,1/2-y,1/2+z
loop_
_atom_site_type_symbol
_atom_site_label
_atom_site_fract_x
_atom_site_fract_y
_atom_site_fract_z
Si Si1 0.213791 0.838385 0.016137
Si Si2 0.000000 0.889417 0.250000
Si Si3 0.632230 0.999283 0.847503
Si Si4 0.959826 0.218076 0.175110
Si Si5 0.731991 0.863669 0.144492
Si Si6 0.000000 0.376251 0.750000
Si Si7 0.716800 0.389166 0.555912
O O1 0.446636 0.617884 0.031310
O O2 0.999719 0.846228 0.087575
O O3 0.250000 0.750000 0.000000
O O4 0.516162 0.868911 0.002212
O O5 0.147534 0.943147 0.190546
O O6 0.200532 0.847761 0.284053
O O7 0.630334 0.934416 0.792806
O O8 0.713279 0.965655 0.911396
O O9 0.367818 0.051451 0.861288
O O10 0.001062 0.302022 0.145956
O O11 0.325810 0.177106 0.308849
O O12 0.164610 0.170732 0.117198
O O13 0.000000 0.209757 0.250000
#
# Coordination Sequence:
#
# PCOD9307839 Si02
#       7
#     8   4   8   8   8   4   8
#     4  12  29  55  82 123 171 228 285 348 416 509
#     4  12  26  51  82 115 176 204 278 356 435 492
#     4  12  26  51  81 120 160 216 275 352 434 499
#     4  12  26  46  79 125 151 214 277 343 426 497
#     4  12  30  50  82 119 166 221 280 353 429 506
#     4  12  24  49  80 119 166 206 278 346 431 508
#     4  12  28  52  87 117 168 222 282 349 418 504
#
# _framework density 26.299085999999999
#
# number of rings (size 3 to 8) (size 9 to 14) (size 15 to 20)
#    0.000    0.000    5.000    3.500    4.667    5.333 
#    0.000    0.000    0.000    0.000    0.000    0.000 
#    0.000    0.000    0.000    0.000    0.000    0.000 
#
# Total GULP energy -134442.382222 kJ/mol
# GULP energy per Si atom -5601.765926 kJ/mol
# Density = 2.623923 g / cm^3
# Si number density = 26.299086 Si / 1000 Ang^3
#
#
#
# Elastic Constant Matrix: (Units=GPa)
#
#
# Indices 1 2 3 4 5 6 
#
# 1 111.4387 34.7290 30.0047 0.0000 -9.6952 0.0000
# 2 34.7290 121.1404 51.9040 0.0000 -13.2176 0.0000
# 3 30.0047 51.9040 142.7464 0.0000 -28.2125 0.0000
# 4 0.0000 0.0000 0.0000 102.0822 0.0000 -43.5572
# 5 -9.6952 -13.2176 -28.2125 0.0000 57.3970 0.0000
# 6 0.0000 0.0000 0.0000 -43.5572 0.0000 55.6652
#
#
#
# Elastic Compliance Matrix: (Units=1/GPa)
#
#
# Indices 1 2 3 4 5 6 
#
# 1 0.010060 -0.002326 -0.001151 0.000000 0.000598 0.000000
# 2 -0.002326 0.010332 -0.003185 0.000000 0.000421 0.000000
# 3 -0.001151 -0.003185 0.009107 0.000000 0.003548 0.000000
# 4 0.000000 0.000000 0.000000 0.014706 0.000000 0.011507
# 5 0.000598 0.000421 0.003548 0.000000 0.019365 0.000000
# 6 0.000000 0.000000 0.000000 0.011507 0.000000 0.026969
#
#
# Mechanical properties :
#
#
# Convention : Reuss Voigt Hill
#
# Bulk Modulus (GPa) = 61.81846 67.62233 64.72039
# Shear Modulus (GPa) = 45.76522 60.27472 53.01997
#
# Velocity S-wave (km/s) = 4.17608 4.79257 4.49490
# Velocity P-wave (km/s) = 6.84177 7.50956 7.18343
#
# Compressibility (1/GPa) = 0.01617640
#
# Stress axis : x y z
#
# Youngs Moduli (GPa) = 99.40133 96.78522 109.80998
#
# Poissons Ratio (x) = 0.22510 0.12636
# Poissons Ratio (y) = 0.23119 0.34972
# Poissons Ratio (z) = 0.11438 0.30824
#
# Static dielectric constant tensor:
#      x y z
#    x 0.080580 0.000000 -0.484740 
#    y 0.000000 1.995010 0.000000 
#    z -0.484740 0.000000 1.904030 
# 
# From -- ./inp_files/285771.got.cif
#   From: 2010.05.17/outbox.cif.g08.bks.cpg/sg15_143_cif.got.tgz:285771.got - 2010.06.03 18:47:42.
