data_PCOD9307777
_publ_section_title
;
Structure prediction by ZEFSAII (Michael W. Deem and Ramdas Pophale) SiO2 
 PCOD9307777
Probable space group: C 2/C
;
_chemical_formula_sum "Si O2"
_cell_formula_units_Z 60
_cell_length_a 16.927265
_cell_length_b 10.044532
_cell_length_c 21.441594
_cell_angle_alpha 90.000000
_cell_angle_beta 36.513367
_cell_angle_gamma 90.000000
_cell_volume 2169.192321
_symmetry_space_group_name_H-M "C 2/C"
_symmetry_group_IT_number 15
_symmetry_cell_setting 'monoclinic'
loop_
_space_group_symop_operation_xyz
x,y,z
-x,y,1/2-z
-x,-y,-z
x,-y,1/2+z
1/2+x,1/2+y,z
1/2-x,1/2+y,1/2-z
1/2-x,1/2-y,-z
1/2+x,1/2-y,1/2+z
loop_
_atom_site_type_symbol
_atom_site_label
_atom_site_fract_x
_atom_site_fract_y
_atom_site_fract_z
Si Si1 0.138879 0.402934 0.563293
Si Si2 0.339325 0.370633 0.965552
Si Si3 0.403533 0.954305 0.249424
Si Si4 0.610932 0.524298 0.257166
Si Si5 0.629730 0.417453 0.889837
Si Si6 0.205992 0.736819 0.377562
Si Si7 0.549654 0.853723 0.493240
Si Si8 0.500000 0.711165 0.750000
O O1 0.260439 0.491261 0.508939
O O2 0.411791 0.198202 0.352011
O O3 0.012639 0.500150 0.631715
O O4 0.147151 0.342162 0.490040
O O5 0.473110 0.393756 0.843280
O O6 0.250000 0.250000 0.000000
O O7 0.353557 0.320173 0.027317
O O8 0.500000 0.941422 0.250000
O O9 0.334199 0.817802 0.276026
O O10 0.273065 0.049269 0.331307
O O11 0.644677 0.530126 0.309235
O O12 0.730440 0.595559 0.144821
O O13 0.580261 0.384170 0.245842
O O14 0.500000 0.500000 0.000000
O O15 0.407191 0.213582 0.100716
O O16 0.891624 0.757568 0.591641
O O17 0.500000 0.000000 0.500000
#
# Coordination Sequence:
#
# PCOD9307777 Si02
#       8
#     8   8   8   8   8   8   8   4
#     4  12  27  49  75 121 174 224 289 375 446 529
#     4  12  24  47  81 119 169 228 293 369 449 536
#     4  12  25  48  83 118 160 223 292 354 448 533
#     4  12  28  48  83 123 167 233 308 361 449 557
#     4  12  26  53  84 119 174 230 291 370 453 540
#     4  12  25  50  81 121 163 227 301 369 441 533
#     4  12  28  52  83 125 172 231 294 372 453 540
#     4  12  28  48  76 122 172 232 296 376 458 532
#
# _framework density 27.660063999999998
#
# number of rings (size 3 to 8) (size 9 to 14) (size 15 to 20)
#    0.000    0.000    4.667    4.000    2.800    2.667 
#    0.000    0.000    0.000    0.000    0.000    0.000 
#    0.000    0.000    0.000    0.000    0.000    0.000 
#
# Total GULP energy -167842.131873 kJ/mol
# GULP energy per Si atom -5594.737729 kJ/mol
# Density = 2.759711 g / cm^3
# Si number density = 27.660064 Si / 1000 Ang^3
#
#
#
# Elastic Constant Matrix: (Units=GPa)
#
#
# Indices 1 2 3 4 5 6 
#
# 1 177.7287 60.9425 53.3443 0.0000 6.2556 0.0000
# 2 60.9425 161.6353 45.9257 0.0000 2.0380 0.0000
# 3 53.3443 45.9257 127.8767 0.0001 -22.2177 0.0000
# 4 0.0000 0.0000 0.0001 55.0683 0.0000 -8.2031
# 5 6.2556 2.0380 -22.2177 0.0000 56.1227 0.0000
# 6 0.0000 0.0000 0.0000 -8.2031 0.0000 49.4309
#
#
#
# Elastic Compliance Matrix: (Units=1/GPa)
#
#
# Indices 1 2 3 4 5 6 
#
# 1 0.007125 -0.001931 -0.002582 0.000000 -0.001746 0.000000
# 2 -0.001931 0.007505 -0.002040 0.000000 -0.000865 0.000000
# 3 -0.002582 -0.002040 0.010409 0.000000 0.004483 0.000000
# 4 0.000000 0.000000 0.000000 0.018620 0.000000 0.003090
# 5 -0.001746 -0.000865 0.004483 0.000000 0.019819 0.000000
# 6 0.000000 0.000000 0.000000 0.003090 0.000000 0.020743
#
#
# Mechanical properties :
#
#
# Convention : Reuss Voigt Hill
#
# Bulk Modulus (GPa) = 83.80429 87.51841 85.66135
# Shear Modulus (GPa) = 49.35597 52.59293 50.97445
#
# Velocity S-wave (km/s) = 4.22877 4.36524 4.29755
# Velocity P-wave (km/s) = 7.36254 7.55754 7.46068
#
# Compressibility (1/GPa) = 0.01193256
#
# Stress axis : x y z
#
# Youngs Moduli (GPa) = 140.34876 133.23822 96.07220
#
# Poissons Ratio (x) = 0.25724 0.24809
# Poissons Ratio (y) = 0.27097 0.19602
# Poissons Ratio (z) = 0.36242 0.27186
#
# Static dielectric constant tensor:
#      x y z
#    x 2.262850 0.000000 0.045410 
#    y 0.000000 2.250380 0.000000 
#    z 0.045410 0.000000 2.153720 
# 
# From -- ./inp_files/277553.got.cif
#   From: 2010.05.17/outbox.cif.g08.bks.cpg/sg15_139_cif.got.tgz:277553.got - 2010.06.03 18:47:42.
