data_PCOD9307210
_publ_section_title
;
Structure prediction by ZEFSAII (Michael W. Deem and Ramdas Pophale) SiO2 
 PCOD9307210
Probable space group: C 2/C
;
_chemical_formula_sum "Si O2"
_cell_formula_units_Z 52
_cell_length_a 12.658179
_cell_length_b 8.504594
_cell_length_c 22.891471
_cell_angle_alpha 90.000000
_cell_angle_beta 114.840669
_cell_angle_gamma 90.000000
_cell_volume 2236.327231
_symmetry_space_group_name_H-M "C 2/C"
_symmetry_group_IT_number 15
_symmetry_cell_setting 'monoclinic'
loop_
_space_group_symop_operation_xyz
x,y,z
-x,y,1/2-z
-x,-y,-z
x,-y,1/2+z
1/2+x,1/2+y,z
1/2-x,1/2+y,1/2-z
1/2-x,1/2-y,-z
1/2+x,1/2-y,1/2+z
loop_
_atom_site_type_symbol
_atom_site_label
_atom_site_fract_x
_atom_site_fract_y
_atom_site_fract_z
Si Si1 0.813891 0.172790 0.595294
Si Si2 0.858012 0.073896 0.304953
Si Si3 0.983385 0.558525 0.156256
Si Si4 0.000000 0.703486 0.750000
Si Si5 0.847919 0.213597 0.729340
Si Si6 0.956793 0.053073 0.053270
Si Si7 0.048490 0.384429 0.059776
O O1 0.868888 0.126414 0.672128
O O2 0.674758 0.176668 0.568504
O O3 0.650334 0.452614 0.446124
O O4 0.879617 0.340097 0.602867
O O5 0.808108 0.921019 0.263112
O O6 0.755332 0.170200 0.309640
O O7 0.918678 0.184164 0.270251
O O8 0.946393 0.021355 0.375007
O O9 0.942942 0.417376 0.189702
O O10 0.060703 0.679175 0.213228
O O11 0.058741 0.479873 0.122706
O O12 0.957523 0.242491 0.049917
O O13 0.000000 0.000000 0.000000
O O14 0.000000 0.500000 0.000000
#
# Coordination Sequence:
#
# PCOD9307210 Si02
#       7
#     8   8   8   4   8   8   8
#     4  12  25  50  79 105 155 202 240 324 392 439
#     4  12  25  43  73 111 154 196 253 317 384 468
#     4  12  25  45  76 115 153 196 250 316 390 471
#     4  12  22  42  70 110 152 192 252 310 394 472
#     4  12  24  45  73 114 153 196 246 318 398 460
#     4  12  27  49  75 108 148 204 266 307 377 462
#     4  12  29  53  75 113 155 201 271 315 371 467
#
# _framework density 23.252412
#
# number of rings (size 3 to 8) (size 9 to 14) (size 15 to 20)
#    0.000    0.000    6.154    3.692    0.000    3.077 
#    0.000    0.000    0.000    0.000    0.000    0.000 
#    0.000    0.000    0.000    0.000    0.000    0.000 
#
# Total GULP energy -145289.407891 kJ/mol
# GULP energy per Si atom -5588.054150 kJ/mol
# Density = 2.319949 g / cm^3
# Si number density = 23.252412 Si / 1000 Ang^3
#
#
#
# Elastic Constant Matrix: (Units=GPa)
#
#
# Indices 1 2 3 4 5 6 
#
# 1 102.8440 37.8319 27.8001 0.0000 -12.1707 0.0000
# 2 37.8319 96.6321 28.4995 0.0000 -9.5177 0.0000
# 3 27.8001 28.4995 93.0581 0.0000 -25.7147 0.0000
# 4 0.0000 0.0000 0.0000 49.0538 0.0000 -16.9863
# 5 -12.1707 -9.5177 -25.7147 0.0000 40.0222 0.0000
# 6 0.0000 0.0000 0.0000 -16.9863 0.0000 41.3999
#
#
#
# Elastic Compliance Matrix: (Units=1/GPa)
#
#
# Indices 1 2 3 4 5 6 
#
# 1 0.011864 -0.003930 -0.001948 0.000000 0.001422 0.000000
# 2 -0.003930 0.012689 -0.002685 0.000000 0.000097 0.000000
# 3 -0.001948 -0.002685 0.014359 0.000000 0.007995 0.000000
# 4 0.000000 0.000000 0.000000 0.023762 0.000000 0.009749
# 5 0.001422 0.000097 0.007995 0.000000 0.030579 0.000000
# 6 0.000000 0.000000 0.000000 0.009749 0.000000 0.028155
#
#
# Mechanical properties :
#
#
# Convention : Reuss Voigt Hill
#
# Bulk Modulus (GPa) = 45.90073 53.42191 49.66132
# Shear Modulus (GPa) = 34.29459 39.32202 36.80831
#
# Velocity S-wave (km/s) = 3.84459 4.11675 3.98300
# Velocity P-wave (km/s) = 6.28417 6.75437 6.52351
#
# Compressibility (1/GPa) = 0.02178615
#
# Stress axis : x y z
#
# Youngs Moduli (GPa) = 84.28856 78.81012 69.64056
#
# Poissons Ratio (x) = 0.30975 0.13564
# Poissons Ratio (y) = 0.33128 0.18698
# Poissons Ratio (z) = 0.16417 0.21160
#
# Static dielectric constant tensor:
#      x y z
#    x 2.253840 0.000000 -0.423490 
#    y 0.000000 1.889360 0.000000 
#    z -0.423490 0.000000 2.403240 
# 
# From -- ./inp_files/272909.got.cif
#   From: 2010.05.17/outbox.cif.g08.bks.cpg/sg15_137_cif.got.tgz:272909.got - 2010.06.03 18:47:42.
