data_PCOD9307950
_publ_section_title
;
Structure prediction by ZEFSAII (Michael W. Deem and Ramdas Pophale) SiO2 
 PCOD9307950
Probable space group: C 2/C
;
_chemical_formula_sum "Si O2"
_cell_formula_units_Z 36
_cell_length_a 11.686219
_cell_length_b 24.013201
_cell_length_c 5.440461
_cell_angle_alpha 90.000000
_cell_angle_beta 104.912671
_cell_angle_gamma 90.000000
_cell_volume 1475.300137
_symmetry_space_group_name_H-M "C 2/C"
_symmetry_group_IT_number 15
_symmetry_cell_setting 'monoclinic'
loop_
_space_group_symop_operation_xyz
x,y,z
-x,y,1/2-z
-x,-y,-z
x,-y,1/2+z
1/2+x,1/2+y,z
1/2-x,1/2+y,1/2-z
1/2-x,1/2-y,-z
1/2+x,1/2-y,1/2+z
loop_
_atom_site_type_symbol
_atom_site_label
_atom_site_fract_x
_atom_site_fract_y
_atom_site_fract_z
Si Si1 0.103271 0.863229 0.118138
Si Si2 0.000000 0.436715 0.250000
Si Si3 0.816632 0.304955 0.470485
Si Si4 0.500000 0.871413 0.750000
Si Si5 0.000000 0.760798 0.750000
Si Si6 0.273128 0.532053 0.995473
O O1 0.221851 0.849088 0.331151
O O2 0.150421 0.910829 0.960903
O O3 0.000000 0.880700 0.250000
O O4 0.061256 0.805101 0.970111
O O5 0.971898 0.404561 0.488198
O O6 0.872003 0.463044 0.104200
O O7 0.750000 0.250000 0.500000
O O8 0.888283 0.331907 0.733076
O O9 0.908395 0.281172 0.324182
O O10 0.303837 0.500960 0.759026
#
# Coordination Sequence:
#
# PCOD9307950 Si02
#       6
#     8   4   8   4   4   8
#     4  12  28  49  77 112 156 207 257 322 385 469
#     4  12  25  49  80 110 154 190 260 332 394 450
#     4  12  25  46  75 115 158 201 262 312 390 468
#     4  12  26  45  78 115 151 208 246 319 388 456
#     4  12  27  48  78 111 159 214 258 317 384 468
#     4  12  29  51  81 113 151 201 264 330 395 462
#
# _framework density 24.401816
#
# number of rings (size 3 to 8) (size 9 to 14) (size 15 to 20)
#    0.000    0.000    4.444    4.667    6.222    0.889 
#    0.000    0.000    0.000    0.000    0.000    0.000 
#    0.000    0.000    0.000    0.000    0.000    0.000 
#
# Total GULP energy -100704.192396 kJ/mol
# GULP energy per Si atom -5594.677355 kJ/mol
# Density = 2.434628 g / cm^3
# Si number density = 24.401816 Si / 1000 Ang^3
#
#
#
# Elastic Constant Matrix: (Units=GPa)
#
#
# Indices 1 2 3 4 5 6 
#
# 1 138.6678 26.4526 19.9034 0.0000 -10.3395 0.0000
# 2 26.4526 62.9076 12.1034 0.0000 -11.2708 0.0000
# 3 19.9034 12.1034 92.1205 0.0000 -1.7871 0.0000
# 4 0.0000 0.0000 0.0000 31.3532 0.0000 -9.9520
# 5 -10.3395 -11.2708 -1.7871 0.0000 33.9287 0.0000
# 6 0.0000 0.0000 0.0000 -9.9520 0.0000 29.2369
#
#
#
# Elastic Compliance Matrix: (Units=1/GPa)
#
#
# Indices 1 2 3 4 5 6 
#
# 1 0.008058 -0.002875 -0.001336 0.000000 0.001430 0.000000
# 2 -0.002875 0.018350 -0.001690 0.000000 0.005130 0.000000
# 3 -0.001336 -0.001690 0.011359 0.000000 -0.000370 0.000000
# 4 0.000000 0.000000 0.000000 0.035758 0.000000 0.012172
# 5 0.001430 0.005130 -0.000370 0.000000 0.031594 0.000000
# 6 0.000000 0.000000 0.000000 0.012172 0.000000 0.038346
#
#
# Mechanical properties :
#
#
# Convention : Reuss Voigt Hill
#
# Bulk Modulus (GPa) = 38.51363 45.62387 42.06875
# Shear Modulus (GPa) = 30.50218 34.58619 32.54418
#
# Velocity S-wave (km/s) = 3.53936 3.76887 3.65592
# Velocity P-wave (km/s) = 5.70265 6.13813 5.92439
#
# Compressibility (1/GPa) = 0.02596483
#
# Stress axis : x y z
#
# Youngs Moduli (GPa) = 124.09536 54.49662 88.03755
#
# Poissons Ratio (x) = 0.15670 0.11758
# Poissons Ratio (y) = 0.35681 0.14880
# Poissons Ratio (z) = 0.16573 0.09211
#
# Static dielectric constant tensor:
#      x y z
#    x 1.883450 0.000000 0.129920 
#    y 0.000000 2.087640 0.000000 
#    z 0.129920 0.000000 1.587720 
# 
# From -- ./inp_files/4316.got.cif
#   From: 2010.05.17/outbox.cif.g08.bks.cpg/sg15_3_cif.got.tgz:4316.got - 2010.06.03 18:47:42.
