data_PCOD9307414
_publ_section_title
;
Structure prediction by ZEFSAII (Michael W. Deem and Ramdas Pophale) SiO2 
 PCOD9307414
Probable space group: C 2/C
;
_chemical_formula_sum "Si O2"
_cell_formula_units_Z 28
_cell_length_a 9.873818
_cell_length_b 23.740003
_cell_length_c 8.876337
_cell_angle_alpha 90.000000
_cell_angle_beta 150.623543
_cell_angle_gamma 90.000000
_cell_volume 1020.655470
_symmetry_space_group_name_H-M "C 2/C"
_symmetry_group_IT_number 15
_symmetry_cell_setting 'monoclinic'
loop_
_space_group_symop_operation_xyz
x,y,z
-x,y,1/2-z
-x,-y,-z
x,-y,1/2+z
1/2+x,1/2+y,z
1/2-x,1/2+y,1/2-z
1/2-x,1/2-y,-z
1/2+x,1/2-y,1/2+z
loop_
_atom_site_type_symbol
_atom_site_label
_atom_site_fract_x
_atom_site_fract_y
_atom_site_fract_z
Si Si1 0.000000 0.969977 0.250000
Si Si2 0.355025 0.385170 0.347671
Si Si3 0.000000 0.449079 0.250000
Si Si4 0.722824 0.284558 0.768280
Si Si5 0.000000 0.680850 0.250000
O O1 0.964289 0.930908 0.068303
O O2 0.257676 0.009385 0.462759
O O3 0.141400 0.412350 0.256796
O O4 0.557807 0.342065 0.631048
O O5 0.178777 0.355170 0.043811
O O6 0.522050 0.233088 0.615665
O O7 0.784680 0.287683 0.649578
#
# Coordination Sequence:
#
# PCOD9307414 Si02
#       5
#     4   8   4   8   4
#     4  12  26  49  76 106 136 194 249 294 348 426
#     4  12  27  47  76 108 148 184 243 297 354 430
#     4  12  31  48  74 104 150 190 236 299 370 412
#     4  12  25  42  74 111 143 186 239 296 352 421
#     4  12  23  43  74 106 148 180 245 287 354 408
#
# _framework density 27.433350000000001
#
# number of rings (size 3 to 8) (size 9 to 14) (size 15 to 20)
#    0.000    0.000    5.714    3.429    4.000    0.000 
#    0.000    1.429    0.000    0.000    0.000    0.000 
#    0.000    0.000    0.000    0.000    0.000    0.000 
#
# Total GULP energy -78516.783764 kJ/mol
# GULP energy per Si atom -5608.341697 kJ/mol
# Density = 2.737091 g / cm^3
# Si number density = 27.433350 Si / 1000 Ang^3
#
#
#
# Elastic Constant Matrix: (Units=GPa)
#
#
# Indices 1 2 3 4 5 6 
#
# 1 233.8108 93.0026 33.0544 -0.0001 2.7656 0.0000
# 2 93.0026 98.1868 9.4536 0.0000 20.6608 0.0000
# 3 33.0544 9.4536 33.5887 -0.0002 33.0567 0.0001
# 4 -0.0001 0.0000 -0.0002-1457.3761 -0.0001 636.7213
# 5 2.7656 20.6608 33.0567 -0.0001 58.6895 0.0000
# 6 0.0000 0.0000 0.0001 636.7213 0.0000 -268.4545
#
#
#
# Elastic Compliance Matrix: (Units=1/GPa)
#
#
# Indices 1 2 3 4 5 6 
#
# 1 0.015538 -0.016572 -0.035111 0.000000 0.024878 0.000000
# 2 -0.016572 0.028713 0.039057 0.000000 -0.031326 0.000000
# 3 -0.035111 0.039057 0.146374 0.000000 -0.094540 0.000000
# 4 0.000000 0.000000 0.000000 0.018939 0.000000 0.044919
# 5 0.024878 -0.031326 -0.094540 0.000000 0.080144 0.000000
# 6 0.000000 0.000000 0.000000 0.044919 0.000000 0.102814
#
#
# Mechanical properties :
#
#
# Convention : Reuss Voigt Hill
#
# Bulk Modulus (GPa) = 6.04691 70.73416 38.39054
# Shear Modulus (GPa) = 10.57311 -318.08984 -153.75837
#
# Velocity S-wave (km/s) = 1.96532 -10.77969 -7.49464
# Velocity P-wave (km/s) = 2.71274 11.36203 7.80182
#
# Compressibility (1/GPa) = 0.16537373
#
# Stress axis : x y z
#
# Youngs Moduli (GPa) = 64.35713 34.82731 6.83181
#
# Poissons Ratio (x) = 0.57717 0.23987
# Poissons Ratio (y) = 1.06654 -0.26683
# Poissons Ratio (z) = 2.25962 -1.36025
#
# Static dielectric constant tensor:
#      x y z
#    x 2.261330 0.000000 0.172960 
#    y 0.000000 2.231080 0.000000 
#    z 0.172960 0.000000 2.313140 
# 
# From -- ./inp_files/1669.got.cif
#   From: 2010.05.17/outbox.cif.g08.bks.cpg/sg15_1_cif.got.tgz:1669.got - 2010.06.03 18:47:42.
