data_PCOD9307693
_publ_section_title
;
Structure prediction by ZEFSAII (Michael W. Deem and Ramdas Pophale) SiO2 
 PCOD9307693
Probable space group: C 2/C
;
_chemical_formula_sum "Si O2"
_cell_formula_units_Z 36
_cell_length_a 15.578743
_cell_length_b 18.113358
_cell_length_c 9.899279
_cell_angle_alpha 90.000000
_cell_angle_beta 38.117535
_cell_angle_gamma 90.000000
_cell_volume 1724.307909
_symmetry_space_group_name_H-M "C 2/C"
_symmetry_group_IT_number 15
_symmetry_cell_setting 'monoclinic'
loop_
_space_group_symop_operation_xyz
x,y,z
-x,y,1/2-z
-x,-y,-z
x,-y,1/2+z
1/2+x,1/2+y,z
1/2-x,1/2+y,1/2-z
1/2-x,1/2-y,-z
1/2+x,1/2-y,1/2+z
loop_
_atom_site_type_symbol
_atom_site_label
_atom_site_fract_x
_atom_site_fract_y
_atom_site_fract_z
Si Si1 0.653764 0.774406 0.408596
Si Si2 0.413304 0.806505 0.494391
Si Si3 0.344917 0.966676 0.682136
Si Si4 0.500000 0.650738 0.750000
Si Si5 0.272409 0.577957 0.882812
O O1 0.519224 0.787960 0.484110
O O2 0.618408 0.705169 0.547553
O O3 0.688781 0.847813 0.447740
O O4 0.787109 0.751273 0.155669
O O5 0.500000 0.804224 0.250000
O O6 0.355328 0.888256 0.594057
O O7 0.500000 0.000000 0.500000
O O8 0.251139 0.021585 0.709826
O O9 0.287624 0.954980 0.903689
O O10 0.430161 0.601772 0.720394
#
# Coordination Sequence:
#
# PCOD9307693 Si02
#       5
#     8   8   8   4   8
#     4  12  24  45  77 103 141 188 240 295 352 424
#     4  12  25  45  71 109 144 183 240 296 355 417
#     4  12  25  43  72 103 139 185 235 290 354 422
#     4  12  24  46  72 104 136 186 246 286 360 424
#     4  12  26  45  72 104 141 188 235 295 352 426
#
# _framework density 20.877941
#
# number of rings (size 3 to 8) (size 9 to 14) (size 15 to 20)
#    0.000    0.000    6.667    4.667    0.000    0.889 
#    0.000    0.000    0.000    0.000    0.000    0.000 
#    0.000    0.000    0.000    0.000    0.000    0.000 
#
# Total GULP energy -100804.668098 kJ/mol
# GULP energy per Si atom -5600.259339 kJ/mol
# Density = 2.083042 g / cm^3
# Si number density = 20.877941 Si / 1000 Ang^3
#
#
#
# Elastic Constant Matrix: (Units=GPa)
#
#
# Indices 1 2 3 4 5 6 
#
# 1 68.8061 54.5838 -22.6784 0.0001 -8.9337 0.0003
# 2 54.5838 120.7672 33.5352 0.0000 4.2684 0.0000
# 3 -22.6784 33.5352 78.6969 0.0000 14.0733 0.0001
# 4 0.0001 0.0000 0.0000 26.7908 0.0000 -7.1947
# 5 -8.9337 4.2684 14.0733 0.0000 30.3272 0.0001
# 6 0.0003 0.0000 0.0001 -7.1947 0.0001 -38.5973
#
#
#
# Elastic Compliance Matrix: (Units=1/GPa)
#
#
# Indices 1 2 3 4 5 6 
#
# 1 0.043527 -0.026166 0.022619 0.000000 0.006008 0.000000
# 2 -0.026166 0.025131 -0.017708 0.000000 -0.003028 0.000000
# 3 0.022619 -0.017708 0.027408 0.000000 -0.003564 0.000000
# 4 0.000000 0.000000 0.000000 0.035547 0.000000 -0.006626
# 5 0.006008 -0.003028 -0.003564 0.000000 0.036823 0.000000
# 6 0.000000 0.000000 0.000000 -0.006626 0.000000 -0.024673
#
#
# Mechanical properties :
#
#
# Convention : Reuss Voigt Hill
#
# Bulk Modulus (GPa) = 18.67228 44.35016 31.51122
# Shear Modulus (GPa) = 24.49473 17.22610 20.86042
#
# Velocity S-wave (km/s) = 3.42897 2.87555 3.16438
# Velocity P-wave (km/s) = 4.96387 5.68452 5.33637
#
# Compressibility (1/GPa) = 0.05355533
#
# Stress axis : x y z
#
# Youngs Moduli (GPa) = 22.97450 39.79122 36.48508
#
# Poissons Ratio (x) = 1.04119 -0.82526
# Poissons Ratio (y) = 0.60116 0.64608
# Poissons Ratio (z) = -0.51966 0.70463
#
# Static dielectric constant tensor:
#      x y z
#    x 1.737180 0.000000 -0.011470 
#    y 0.000000 1.732640 0.000000 
#    z -0.011470 0.000000 1.741050 
# 
# From -- ./inp_files/38894.got.cif
#   From: 2010.05.17/outbox.cif.g08.bks.cpg/sg15_20_cif.got.tgz:38894.got - 2010.06.03 18:47:42.
