data_PCOD9307899
_publ_section_title
;
Structure prediction by ZEFSAII (Michael W. Deem and Ramdas Pophale) SiO2 
 PCOD9307899
Probable space group: C 2/C
;
_chemical_formula_sum "Si O2"
_cell_formula_units_Z 40
_cell_length_a 7.489932
_cell_length_b 26.807134
_cell_length_c 14.751952
_cell_angle_alpha 90.000000
_cell_angle_beta 35.229076
_cell_angle_gamma 90.000000
_cell_volume 1708.591844
_symmetry_space_group_name_H-M "C 2/C"
_symmetry_group_IT_number 15
_symmetry_cell_setting 'monoclinic'
loop_
_space_group_symop_operation_xyz
x,y,z
-x,y,1/2-z
-x,-y,-z
x,-y,1/2+z
1/2+x,1/2+y,z
1/2-x,1/2+y,1/2-z
1/2-x,1/2-y,-z
1/2+x,1/2-y,1/2+z
loop_
_atom_site_type_symbol
_atom_site_label
_atom_site_fract_x
_atom_site_fract_y
_atom_site_fract_z
Si Si1 0.746370 0.867530 0.568274
Si Si2 0.656832 0.729802 0.857392
Si Si3 0.333568 0.100264 0.064813
Si Si4 0.167306 0.690686 0.890282
Si Si5 0.788529 0.047392 0.562383
O O1 0.500000 0.857680 0.750000
O O2 0.574763 0.891395 0.549671
O O3 0.944471 0.818153 0.463533
O O4 0.988361 0.906806 0.507160
O O5 0.736495 0.733864 0.719087
O O6 0.000000 0.721342 0.750000
O O7 0.498253 0.778765 0.961760
O O8 0.000000 0.102807 0.250000
O O9 0.674457 0.054847 0.504680
O O10 0.418276 0.148840 0.968808
O O11 0.500000 0.662691 0.750000
O O12 0.500000 0.047251 0.750000
O O13 0.000000 0.000000 0.500000
#
# Coordination Sequence:
#
# PCOD9307899 Si02
#       5
#     8   8   8   8   8
#     4  12  25  47  78 111 156 204 256 322 387 456
#     4  12  26  42  70 105 159 210 267 313 376 454
#     4  12  27  49  78 111 157 199 260 321 384 462
#     4  12  25  44  68 110 153 212 264 315 378 451
#     4  12  29  53  81 115 148 194 252 317 401 472
#
# _framework density 23.411089
#
# number of rings (size 3 to 8) (size 9 to 14) (size 15 to 20)
#    0.000    0.000    4.000    6.000    2.800    0.800 
#    0.000    0.000    0.000    0.000    0.000    0.000 
#    0.000    0.000    0.000    0.000    0.000    0.000 
#
# Total GULP energy -111572.274577 kJ/mol
# GULP energy per Si atom -5578.613729 kJ/mol
# Density = 2.335780 g / cm^3
# Si number density = 23.411089 Si / 1000 Ang^3
#
#
#
# Elastic Constant Matrix: (Units=GPa)
#
#
# Indices 1 2 3 4 5 6 
#
# 1 158.3530 30.2541 44.7113 0.0000 -5.6523 0.0000
# 2 30.2541 86.4536 27.3358 0.0000 -8.4231 0.0000
# 3 44.7113 27.3358 184.3341 0.0000 -14.9629 0.0000
# 4 0.0000 0.0000 0.0000 25.9621 0.0000 -4.9221
# 5 -5.6523 -8.4231 -14.9629 0.0000 36.0397 0.0000
# 6 0.0000 0.0000 0.0000 -4.9221 0.0000 45.6954
#
#
#
# Elastic Compliance Matrix: (Units=1/GPa)
#
#
# Indices 1 2 3 4 5 6 
#
# 1 0.007106 -0.002033 -0.001418 0.000000 0.000051 0.000000
# 2 -0.002033 0.012883 -0.001241 0.000000 0.002177 0.000000
# 3 -0.001418 -0.001241 0.006117 0.000000 0.002027 0.000000
# 4 0.000000 0.000000 0.000000 0.039321 0.000000 0.004235
# 5 0.000051 0.002177 0.002027 0.000000 0.029106 0.000000
# 6 0.000000 0.000000 0.000000 0.004235 0.000000 0.022340
#
#
# Mechanical properties :
#
#
# Convention : Reuss Voigt Hill
#
# Bulk Modulus (GPa) = 59.80041 70.41591 65.10816
# Shear Modulus (GPa) = 37.92763 43.32875 40.62819
#
# Velocity S-wave (km/s) = 4.02938 4.30674 4.17036
# Velocity P-wave (km/s) = 6.87364 7.40769 7.14566
#
# Compressibility (1/GPa) = 0.01672229
#
# Stress axis : x y z
#
# Youngs Moduli (GPa) = 140.73350 77.62280 163.46838
#
# Poissons Ratio (x) = 0.15783 0.23178
# Poissons Ratio (y) = 0.28616 0.20279
# Poissons Ratio (z) = 0.19954 0.09629
#
# Static dielectric constant tensor:
#      x y z
#    x 1.977850 0.000000 0.140250 
#    y 0.000000 1.862150 0.000000 
#    z 0.140250 0.000000 1.859620 
# 
# From -- ./inp_files/139697.got.cif
#   From: 2010.05.17/outbox.cif.g08.bks.cpg/sg15_70_cif.got.tgz:139697.got - 2010.06.03 18:47:42.
