data_PCOD9307844
_publ_section_title
;
Structure prediction by ZEFSAII (Michael W. Deem and Ramdas Pophale) SiO2 
 PCOD9307844
Probable space group: C 2/C
;
_chemical_formula_sum "Si O2"
_cell_formula_units_Z 44
_cell_length_a 12.988255
_cell_length_b 13.757085
_cell_length_c 11.946505
_cell_angle_alpha 90.000000
_cell_angle_beta 95.729856
_cell_angle_gamma 90.000000
_cell_volume 2123.942640
_symmetry_space_group_name_H-M "C 2/C"
_symmetry_group_IT_number 15
_symmetry_cell_setting 'monoclinic'
loop_
_space_group_symop_operation_xyz
x,y,z
-x,y,1/2-z
-x,-y,-z
x,-y,1/2+z
1/2+x,1/2+y,z
1/2-x,1/2+y,1/2-z
1/2-x,1/2-y,-z
1/2+x,1/2-y,1/2+z
loop_
_atom_site_type_symbol
_atom_site_label
_atom_site_fract_x
_atom_site_fract_y
_atom_site_fract_z
Si Si1 0.499857 0.613506 0.530283
Si Si2 0.670775 0.111534 0.212123
Si Si3 0.814812 0.222330 0.395973
Si Si4 0.500000 0.273074 0.250000
Si Si5 0.881697 0.394664 0.243623
Si Si6 0.259868 0.362642 0.483874
O O1 0.500000 0.500000 0.500000
O O2 0.425964 0.675293 0.439481
O O3 0.463609 0.654903 0.647178
O O4 0.622353 0.627763 0.538610
O O5 0.751730 0.142863 0.316920
O O6 0.586743 0.199470 0.208701
O O7 0.618428 0.007630 0.223947
O O8 0.730383 0.096564 0.101688
O O9 0.750000 0.250000 0.500000
O O10 0.827747 0.319882 0.323545
O O11 0.820212 0.392563 0.120299
O O12 0.000000 0.361096 0.250000
O O13 0.250000 0.250000 0.500000
#
# Coordination Sequence:
#
# PCOD9307844 Si02
#       6
#     8   8   8   4   8   8
#     4  12  28  46  76 107 147 195 241 300 373 441
#     4  12  27  46  78 104 151 190 243 308 374 426
#     4  12  27  48  72 109 151 191 249 306 360 445
#     4  12  24  50  70 110 148 190 238 314 368 420
#     4  12  28  47  77 111 140 197 254 303 364 447
#     4  12  25  48  70 105 148 188 233 303 368 428
#
# _framework density 20.716190000000001
#
# number of rings (size 3 to 8) (size 9 to 14) (size 15 to 20)
#    0.000    0.000    6.364    2.182    5.091    2.182 
#    0.000    0.000    0.000    0.000    0.000    0.000 
#    0.000    0.000    0.000    0.000    0.000    0.000 
#
# Total GULP energy -122814.390962 kJ/mol
# GULP energy per Si atom -5582.472316 kJ/mol
# Density = 2.066904 g / cm^3
# Si number density = 20.716190 Si / 1000 Ang^3
#
#
#
# Elastic Constant Matrix: (Units=GPa)
#
#
# Indices 1 2 3 4 5 6 
#
# 1 94.0923 -3.7454 25.8746 0.0000 4.7855 0.0000
# 2 -3.7454 102.9903 11.5465 0.0000 -8.3055 0.0000
# 3 25.8746 11.5465 109.9145 0.0000 -3.7849 0.0000
# 4 0.0000 0.0000 0.0000 2.7726 0.0000 9.5713
# 5 4.7855 -8.3055 -3.7849 0.0000 36.9213 0.0000
# 6 0.0000 0.0000 0.0000 9.5713 0.0000 33.4718
#
#
#
# Elastic Compliance Matrix: (Units=1/GPa)
#
#
# Indices 1 2 3 4 5 6 
#
# 1 0.011514 0.000603 -0.002831 0.000000 -0.001647 0.000000
# 2 0.000603 0.010024 -0.001124 0.000000 0.002061 0.000000
# 3 -0.002831 -0.001124 0.009921 0.000000 0.001131 0.000000
# 4 0.000000 0.000000 0.000000 28.047925 0.000000 -8.020342
# 5 -0.001647 0.002061 0.001131 0.000000 0.027878 0.000000
# 6 0.000000 0.000000 0.000000 -8.020342 0.000000 2.323304
#
#
# Mechanical properties :
#
#
# Convention : Reuss Voigt Hill
#
# Bulk Modulus (GPa) = 40.39334 41.59427 40.99380
# Shear Modulus (GPa) = 0.16423 32.85455 16.50939
#
# Velocity S-wave (km/s) = 0.28186 3.98670 2.82606
# Velocity P-wave (km/s) = 4.43246 6.42755 5.52088
#
# Compressibility (1/GPa) = 0.02475656
#
# Stress axis : x y z
#
# Youngs Moduli (GPa) = 86.85069 99.76207 100.79280
#
# Poissons Ratio (x) = -0.06018 0.28530
# Poissons Ratio (y) = -0.05239 0.11329
# Poissons Ratio (z) = 0.24584 0.11214
#
# Static dielectric constant tensor:
#      x y z
#    x 1.739550 0.000000 -0.004070 
#    y 0.000000 1.799230 0.000000 
#    z -0.004070 0.000000 1.750750 
# 
# From -- ./inp_files/86197.got.cif
#   From: 2010.05.17/outbox.cif.g08.bks.cpg/sg15_44_cif.got.tgz:86197.got - 2010.06.03 18:47:42.
