data_PCOD9307634
_publ_section_title
;
Structure prediction by ZEFSAII (Michael W. Deem and Ramdas Pophale) SiO2 
 PCOD9307634
Probable space group: C 2/C
;
_chemical_formula_sum "Si O2"
_cell_formula_units_Z 44
_cell_length_a 20.020998
_cell_length_b 14.282825
_cell_length_c 8.546781
_cell_angle_alpha 90.000000
_cell_angle_beta 125.797044
_cell_angle_gamma 90.000000
_cell_volume 1982.319259
_symmetry_space_group_name_H-M "C 2/C"
_symmetry_group_IT_number 15
_symmetry_cell_setting 'monoclinic'
loop_
_space_group_symop_operation_xyz
x,y,z
-x,y,1/2-z
-x,-y,-z
x,-y,1/2+z
1/2+x,1/2+y,z
1/2-x,1/2+y,1/2-z
1/2-x,1/2-y,-z
1/2+x,1/2-y,1/2+z
loop_
_atom_site_type_symbol
_atom_site_label
_atom_site_fract_x
_atom_site_fract_y
_atom_site_fract_z
Si Si1 0.429435 0.421442 0.902727
Si Si2 0.343942 0.779251 0.850963
Si Si3 0.239132 0.450267 0.616550
Si Si4 0.292435 0.135272 0.754866
Si Si5 0.500000 0.273804 0.750000
Si Si6 0.591440 0.737304 0.901061
O O1 0.337955 0.455778 0.736242
O O2 0.458663 0.342606 0.820627
O O3 0.500000 0.500000 0.000000
O O4 0.418204 0.369155 0.053807
O O5 0.290343 0.873328 0.796417
O O6 0.291130 0.695441 0.854111
O O7 0.360301 0.751449 0.694104
O O8 0.430008 0.784101 0.062580
O O9 0.208797 0.551909 0.622559
O O10 0.201511 0.411227 0.405276
O O11 0.363041 0.206857 0.899816
O O12 0.500000 0.775216 0.750000
#
# Coordination Sequence:
#
# PCOD9307634 Si02
#       6
#     8   8   8   8   4   8
#     4  12  27  44  73 112 152 190 247 309 379 445
#     4  12  25  48  75 105 154 198 250 310 373 449
#     4  12  27  46  77 108 146 203 251 304 375 454
#     4  12  26  48  71 106 149 195 253 306 376 449
#     4  12  24  44  70 110 144 194 238 314 380 436
#     4  12  27  47  72 105 148 198 249 312 375 438
#
# _framework density 22.196223
#
# number of rings (size 3 to 8) (size 9 to 14) (size 15 to 20)
#    0.000    0.000    5.455    4.364    3.818    0.000 
#    1.636    1.818    0.000    0.000    0.000    0.000 
#    0.000    0.000    0.000    0.000    0.000    0.000 
#
# Total GULP energy -123242.993197 kJ/mol
# GULP energy per Si atom -5601.954236 kJ/mol
# Density = 2.214570 g / cm^3
# Si number density = 22.196223 Si / 1000 Ang^3
#
#
#
# Elastic Constant Matrix: (Units=GPa)
#
#
# Indices 1 2 3 4 5 6 
#
# 1 93.3149 38.0921 32.3091 0.0000 9.1282 0.0000
# 2 38.0921 107.7414 25.0148 0.0000 13.2617 0.0000
# 3 32.3091 25.0148 117.6178 0.0000 15.6104 0.0000
# 4 0.0000 0.0000 0.0000 31.7119 0.0000 1.6592
# 5 9.1282 13.2617 15.6104 0.0000 23.8377 0.0000
# 6 0.0000 0.0000 0.0000 1.6592 0.0000 54.0669
#
#
#
# Elastic Compliance Matrix: (Units=1/GPa)
#
#
# Indices 1 2 3 4 5 6 
#
# 1 0.013375 -0.003964 -0.002677 0.000000 -0.001164 0.000000
# 2 -0.003964 0.011391 -0.000760 0.000000 -0.004322 0.000000
# 3 -0.002677 -0.000760 0.010083 0.000000 -0.005155 0.000000
# 4 0.000000 0.000000 0.000000 0.031585 0.000000 -0.000969
# 5 -0.001164 -0.004322 -0.005155 0.000000 0.048176 0.000000
# 6 0.000000 0.000000 0.000000 -0.000969 0.000000 0.018525
#
#
# Mechanical properties :
#
#
# Convention : Reuss Voigt Hill
#
# Bulk Modulus (GPa) = 49.88030 56.61180 53.24605
# Shear Modulus (GPa) = 32.33725 36.80718 34.57221
#
# Velocity S-wave (km/s) = 3.82105 4.07660 3.95089
# Velocity P-wave (km/s) = 6.47985 6.90787 6.69728
#
# Compressibility (1/GPa) = 0.02004800
#
# Stress axis : x y z
#
# Youngs Moduli (GPa) = 74.76543 87.78512 99.17432
#
# Poissons Ratio (x) = 0.34799 0.26545
# Poissons Ratio (y) = 0.29638 0.07539
# Poissons Ratio (z) = 0.20012 0.06674
#
# Static dielectric constant tensor:
#      x y z
#    x 1.845570 0.000000 -0.018910 
#    y 0.000000 1.786190 0.000000 
#    z -0.018910 0.000000 1.839580 
# 
# From -- ./inp_files/47087.got.cif
#   From: 2010.05.17/outbox.cif.g08.bks.cpg/sg15_24_cif.got.tgz:47087.got - 2010.06.03 18:47:42.
