data_PCOD9307861
_publ_section_title
;
Structure prediction by ZEFSAII (Michael W. Deem and Ramdas Pophale) SiO2 
 PCOD9307861
Probable space group: C 2/C
;
_chemical_formula_sum "Si O2"
_cell_formula_units_Z 36
_cell_length_a 23.663241
_cell_length_b 10.687735
_cell_length_c 12.350923
_cell_angle_alpha 90.000000
_cell_angle_beta 27.913825
_cell_angle_gamma 90.000000
_cell_volume 1462.304763
_symmetry_space_group_name_H-M "C 2/C"
_symmetry_group_IT_number 15
_symmetry_cell_setting 'monoclinic'
loop_
_space_group_symop_operation_xyz
x,y,z
-x,y,1/2-z
-x,-y,-z
x,-y,1/2+z
1/2+x,1/2+y,z
1/2-x,1/2+y,1/2-z
1/2-x,1/2-y,-z
1/2+x,1/2-y,1/2+z
loop_
_atom_site_type_symbol
_atom_site_label
_atom_site_fract_x
_atom_site_fract_y
_atom_site_fract_z
Si Si1 0.076285 0.119064 0.403199
Si Si2 0.180060 0.293808 0.355745
Si Si3 0.500000 0.003259 0.750000
Si Si4 0.350716 0.791642 0.741516
Si Si5 0.328562 0.073565 0.855099
O O1 0.111307 0.160023 0.466062
O O2 0.979917 0.229936 0.541114
O O3 0.203713 0.085234 0.131200
O O4 0.000000 0.000000 0.500000
O O5 0.301336 0.262228 0.212579
O O6 0.192588 0.332508 0.209373
O O7 0.104966 0.406041 0.535934
O O8 0.436794 0.082278 0.761009
O O9 0.352787 0.939987 0.756698
O O10 0.250000 0.750000 0.000000
#
# Coordination Sequence:
#
# PCOD9307861 Si02
#       5
#     8   8   4   8   8
#     4  12  26  48  76 115 154 206 270 327 405 483
#     4  12  27  48  76 112 158 210 266 331 409 480
#     4  12  24  50  80 106 156 220 260 332 412 488
#     4  12  25  49  76 114 157 208 266 324 399 484
#     4  12  28  49  78 119 160 210 267 337 405 477
#
# _framework density 24.618670000000002
#
# number of rings (size 3 to 8) (size 9 to 14) (size 15 to 20)
#    0.000    0.000    6.667    1.333    6.222    0.889 
#    0.000    0.000    0.000    0.000    0.000    0.000 
#    0.000    0.000    0.000    0.000    0.000    0.000 
#
# Total GULP energy -100530.246604 kJ/mol
# GULP energy per Si atom -5585.013700 kJ/mol
# Density = 2.456264 g / cm^3
# Si number density = 24.618670 Si / 1000 Ang^3
#
#
#
# Elastic Constant Matrix: (Units=GPa)
#
#
# Indices 1 2 3 4 5 6 
#
# 1 133.1861 -10.0834 40.8947 0.0000 -30.9217 0.0000
# 2 -10.0834 75.6866 24.1653 0.0000 -3.3178 0.0000
# 3 40.8947 24.1653 109.0592 0.0000 -23.1906 0.0000
# 4 0.0000 0.0000 0.0000 32.4048 0.0000 9.2786
# 5 -30.9217 -3.3178 -23.1906 0.0000 42.0918 0.0000
# 6 0.0000 0.0000 0.0000 9.2786 0.0000 48.7073
#
#
#
# Elastic Compliance Matrix: (Units=1/GPa)
#
#
# Indices 1 2 3 4 5 6 
#
# 1 0.010008 0.002573 -0.003077 0.000000 0.005860 0.000000
# 2 0.002573 0.014898 -0.004094 0.000000 0.000809 0.000000
# 3 -0.003077 -0.004094 0.012098 0.000000 0.004083 0.000000
# 4 0.000000 0.000000 0.000000 0.032640 0.000000 -0.006218
# 5 0.005860 0.000809 0.004083 0.000000 0.030376 0.000000
# 6 0.000000 0.000000 0.000000 -0.006218 0.000000 0.021715
#
#
# Mechanical properties :
#
#
# Convention : Reuss Voigt Hill
#
# Bulk Modulus (GPa) = 35.96045 47.54280 41.75162
# Shear Modulus (GPa) = 35.66325 42.17112 38.91719
#
# Velocity S-wave (km/s) = 3.81021 4.14330 3.98024
# Velocity P-wave (km/s) = 5.83058 6.49945 6.17408
#
# Compressibility (1/GPa) = 0.02780833
#
# Stress axis : x y z
#
# Youngs Moduli (GPa) = 99.91701 67.12478 82.65621
#
# Poissons Ratio (x) = -0.17269 0.25432
# Poissons Ratio (y) = -0.25705 0.33837
# Poissons Ratio (z) = 0.30743 0.27479
#
# Static dielectric constant tensor:
#      x y z
#    x 2.228620 0.000000 -0.063720 
#    y 0.000000 2.130810 0.000000 
#    z -0.063720 0.000000 2.021760 
# 
# From -- ./inp_files/117860.got.cif
#   From: 2010.05.17/outbox.cif.g08.bks.cpg/sg15_59_cif.got.tgz:117860.got - 2010.06.03 18:47:42.
