data_PCOD9307183
_publ_section_title
;
Structure prediction by ZEFSAII (Michael W. Deem and Ramdas Pophale) SiO2 
 PCOD9307183
Probable space group: C 2/C
;
_chemical_formula_sum "Si O2"
_cell_formula_units_Z 44
_cell_length_a 15.796996
_cell_length_b 21.718005
_cell_length_c 10.365421
_cell_angle_alpha 90.000000
_cell_angle_beta 139.305194
_cell_angle_gamma 90.000000
_cell_volume 2318.722329
_symmetry_space_group_name_H-M "C 2/C"
_symmetry_group_IT_number 15
_symmetry_cell_setting 'monoclinic'
loop_
_space_group_symop_operation_xyz
x,y,z
-x,y,1/2-z
-x,-y,-z
x,-y,1/2+z
1/2+x,1/2+y,z
1/2-x,1/2+y,1/2-z
1/2-x,1/2-y,-z
1/2+x,1/2-y,1/2+z
loop_
_atom_site_type_symbol
_atom_site_label
_atom_site_fract_x
_atom_site_fract_y
_atom_site_fract_z
Si Si1 0.233318 0.112534 0.471608
Si Si2 0.000000 0.681620 0.750000
Si Si3 0.702801 0.373611 0.235037
Si Si4 0.950439 0.207078 0.382057
Si Si5 0.591254 0.491145 0.229544
Si Si6 0.140823 0.267368 0.976948
O O1 0.372686 0.139472 0.593867
O O2 0.229452 0.103284 0.621098
O O3 0.128991 0.164528 0.308976
O O4 0.186871 0.049261 0.353609
O O5 0.015365 0.728487 0.647207
O O6 0.667286 0.428255 0.290595
O O7 0.821588 0.333735 0.423842
O O8 0.578850 0.328345 0.076345
O O9 0.863269 0.221358 0.406142
O O10 0.500000 0.488474 0.250000
O O11 0.500000 0.500000 0.000000
O O12 0.000000 0.266423 0.750000
O O13 0.250000 0.250000 0.000000
#
# Coordination Sequence:
#
# PCOD9307183 Si02
#       6
#     8   4   8   8   8   8
#     4  12  24  44  69 101 136 177 234 285 347 415
#     4  12  24  40  70 104 130 174 222 290 350 408
#     4  12  24  44  69  99 136 176 234 290 339 414
#     4  12  22  41  72 102 135 173 225 287 348 419
#     4  12  25  46  71  96 130 182 236 283 335 412
#     4  12  27  43  64 102 145 184 222 280 361 425
#
# _framework density 18.975967000000001
#
# number of rings (size 3 to 8) (size 9 to 14) (size 15 to 20)
#    0.000    0.000    9.091    1.636    2.545    0.000 
#    1.636    0.909    0.000    0.000    0.000    0.000 
#    0.000    0.000    0.000    0.000    0.000    0.000 
#
# Total GULP energy -123065.741059 kJ/mol
# GULP energy per Si atom -5593.897321 kJ/mol
# Density = 1.893278 g / cm^3
# Si number density = 18.975967 Si / 1000 Ang^3
#
#
#
# Elastic Constant Matrix: (Units=GPa)
#
#
# Indices 1 2 3 4 5 6 
#
# 1 122.0613 41.0287 46.6566 0.0000 -1.6852 0.0000
# 2 41.0287 109.9972 57.0660 0.0000 2.6073 0.0000
# 3 46.6566 57.0660 95.2143 0.0000 9.7653 0.0000
# 4 0.0000 0.0000 0.0000 36.5570 0.0000 -3.2820
# 5 -1.6852 2.6073 9.7653 0.0000 32.7044 0.0000
# 6 0.0000 0.0000 0.0000 -3.2820 0.0000 33.5621
#
#
#
# Elastic Compliance Matrix: (Units=1/GPa)
#
#
# Indices 1 2 3 4 5 6 
#
# 1 0.010434 -0.001715 -0.004285 0.000000 0.001954 0.000000
# 2 -0.001715 0.013533 -0.007377 0.000000 0.001035 0.000000
# 3 -0.004285 -0.007377 0.017523 0.000000 -0.004865 0.000000
# 4 0.000000 0.000000 0.000000 0.027597 0.000000 0.002699
# 5 0.001954 0.001035 -0.004865 0.000000 0.032048 0.000000
# 6 0.000000 0.000000 0.000000 0.002699 0.000000 0.030059
#
#
# Mechanical properties :
#
#
# Convention : Reuss Voigt Hill
#
# Bulk Modulus (GPa) = 67.86285 68.53060 68.19672
# Shear Modulus (GPa) = 30.70106 32.73282 31.71694
#
# Velocity S-wave (km/s) = 4.02667 4.15777 4.09274
# Velocity P-wave (km/s) = 7.58016 7.69690 7.63875
#
# Compressibility (1/GPa) = 0.01473560
#
# Stress axis : x y z
#
# Youngs Moduli (GPa) = 95.83972 73.89121 57.06834
#
# Poissons Ratio (x) = 0.12672 0.24456
# Poissons Ratio (y) = 0.16436 0.42099
# Poissons Ratio (z) = 0.41072 0.54510
#
# Static dielectric constant tensor:
#      x y z
#    x 1.680540 0.000000 -0.010250 
#    y 0.000000 1.656310 0.000000 
#    z -0.010250 0.000000 1.648310 
# 
# From -- ./inp_files/99888.got.cif
#   From: 2010.05.17/outbox.cif.g08.bks.cpg/sg15_50_cif.got.tgz:99888.got - 2010.06.03 18:47:42.
