data_PCOD9307687
_publ_section_title
;
Structure prediction by ZEFSAII (Michael W. Deem and Ramdas Pophale) SiO2 
 PCOD9307687
Probable space group: C 2/C
;
_chemical_formula_sum "Si O2"
_cell_formula_units_Z 32
_cell_length_a 6.936518
_cell_length_b 22.767001
_cell_length_c 11.656661
_cell_angle_alpha 90.000000
_cell_angle_beta 123.309891
_cell_angle_gamma 90.000000
_cell_volume 1538.432499
_symmetry_space_group_name_H-M "C 2/C"
_symmetry_group_IT_number 15
_symmetry_cell_setting 'monoclinic'
loop_
_space_group_symop_operation_xyz
x,y,z
-x,y,1/2-z
-x,-y,-z
x,-y,1/2+z
1/2+x,1/2+y,z
1/2-x,1/2+y,1/2-z
1/2-x,1/2-y,-z
1/2+x,1/2-y,1/2+z
loop_
_atom_site_type_symbol
_atom_site_label
_atom_site_fract_x
_atom_site_fract_y
_atom_site_fract_z
Si Si1 0.000000 0.560017 0.250000
Si Si2 0.414094 0.874950 0.092899
Si Si3 0.500000 0.000000 0.500000
Si Si4 0.918576 0.146864 0.351295
Si Si5 0.753629 0.729308 0.869988
O O1 0.990870 0.521387 0.361476
O O2 0.223834 0.601845 0.327651
O O3 0.500000 0.884581 0.250000
O O4 0.560288 0.821167 0.088884
O O5 0.451148 0.931937 0.026953
O O6 0.144575 0.857977 0.003781
O O7 0.819788 0.212636 0.319929
O O8 0.000000 0.131410 0.250000
O O9 0.500000 0.708631 0.750000
O O10 0.750000 0.750000 0.000000
#
# Coordination Sequence:
#
# PCOD9307687 Si02
#       5
#     4   8   4   8   8
#     4  12  26  52  76 112 150 200 254 314 376 448
#     4  12  26  47  71 113 148 197 248 309 370 447
#     4  12  26  50  74 108 154 196 260 296 380 452
#     4  12  24  48  79 109 148 194 252 311 383 448
#     4  12  24  45  74 111 149 191 247 312 380 446
#
# _framework density 20.800391999999999
#
# number of rings (size 3 to 8) (size 9 to 14) (size 15 to 20)
#    0.000    0.000    5.000    6.000    0.000    1.000 
#    9.000    0.000    0.000    0.000    0.000    0.000 
#    0.000    0.000    0.000    0.000    0.000    0.000 
#
# Total GULP energy -89081.635858 kJ/mol
# GULP energy per Si atom -5567.602241 kJ/mol
# Density = 2.075305 g / cm^3
# Si number density = 20.800392 Si / 1000 Ang^3
#
#
#
# Elastic Constant Matrix: (Units=GPa)
#
#
# Indices 1 2 3 4 5 6 
#
# 1 109.0371 50.4721 66.8932 0.0000 17.9021 0.0000
# 2 50.4721 141.4417 12.2801 0.0000 5.2862 0.0000
# 3 66.8932 12.2801 103.3614 0.0000 -4.2356 0.0000
# 4 0.0000 0.0000 0.0000 5.8907 0.0000 -11.3736
# 5 17.9021 5.2862 -4.2356 0.0000 53.2027 0.0000
# 6 0.0000 0.0000 0.0000 -11.3736 0.0000 -4.9905
#
#
#
# Elastic Compliance Matrix: (Units=1/GPa)
#
#
# Indices 1 2 3 4 5 6 
#
# 1 0.021705 -0.006273 -0.013620 0.000000 -0.007765 0.000000
# 2 -0.006273 0.008989 0.003051 0.000000 0.001460 0.000000
# 3 -0.013620 0.003051 0.018362 0.000000 0.005742 0.000000
# 4 0.000000 0.000000 0.000000 0.031435 0.000000 -0.071642
# 5 -0.007765 0.001460 0.005742 0.000000 0.021721 0.000000
# 6 0.000000 0.000000 0.000000 -0.071642 0.000000 -0.037105
#
#
# Mechanical properties :
#
#
# Convention : Reuss Voigt Hill
#
# Bulk Modulus (GPa) = 65.04632 68.12566 66.58599
# Shear Modulus (GPa) = 48.11637 25.76689 36.94163
#
# Velocity S-wave (km/s) = 4.81484 3.52343 4.21884
# Velocity P-wave (km/s) = 7.88985 7.02680 7.47080
#
# Compressibility (1/GPa) = 0.01537366
#
# Stress axis : x y z
#
# Youngs Moduli (GPa) = 46.07139 111.24854 54.45958
#
# Poissons Ratio (x) = 0.69782 0.74175
# Poissons Ratio (y) = 0.28899 -0.16618
# Poissons Ratio (z) = 0.62750 -0.33947
#
# Static dielectric constant tensor:
#      x y z
#    x 1.736240 0.000000 0.004800 
#    y 0.000000 1.711720 0.000000 
#    z 0.004800 0.000000 1.830630 
# 
# From -- ./inp_files/72329.got.cif
#   From: 2010.05.17/outbox.cif.g08.bks.cpg/sg15_37_cif.got.tgz:72329.got - 2010.06.03 18:47:42.
