data_PCOD9307070
_publ_section_title
;
Structure prediction by ZEFSAII (Michael W. Deem and Ramdas Pophale) SiO2 
 PCOD9307070
Probable space group: C 2/C
;
_chemical_formula_sum "Si O2"
_cell_formula_units_Z 60
_cell_length_a 11.279109
_cell_length_b 22.279378
_cell_length_c 16.057031
_cell_angle_alpha 90.000000
_cell_angle_beta 42.276036
_cell_angle_gamma 90.000000
_cell_volume 2714.354287
_symmetry_space_group_name_H-M "C 2/C"
_symmetry_group_IT_number 15
_symmetry_cell_setting 'monoclinic'
loop_
_space_group_symop_operation_xyz
x,y,z
-x,y,1/2-z
-x,-y,-z
x,-y,1/2+z
1/2+x,1/2+y,z
1/2-x,1/2+y,1/2-z
1/2-x,1/2-y,-z
1/2+x,1/2-y,1/2+z
loop_
_atom_site_type_symbol
_atom_site_label
_atom_site_fract_x
_atom_site_fract_y
_atom_site_fract_z
Si Si1 0.000000 0.929306 0.750000
Si Si2 0.177571 0.475848 0.025938
Si Si3 0.300534 0.503868 0.135611
Si Si4 0.343533 0.631459 0.172408
Si Si5 0.731632 0.887777 0.477761
Si Si6 0.023640 0.281437 0.832719
Si Si7 0.323890 0.909211 0.180855
Si Si8 0.943563 0.840735 0.091985
O O1 0.855573 0.964866 0.880386
O O2 0.898762 0.889295 0.734778
O O3 0.141651 0.547101 0.036616
O O4 0.198253 0.470702 0.114739
O O5 0.026559 0.430486 0.073995
O O6 0.255751 0.573270 0.173405
O O7 0.271057 0.469842 0.237325
O O8 0.500000 0.500000 0.000000
O O9 0.210590 0.686054 0.242074
O O10 0.508601 0.648060 0.028413
O O11 0.618363 0.832855 0.572556
O O12 0.740050 0.884456 0.374010
O O13 0.920603 0.882242 0.424509
O O14 0.014725 0.226202 0.900086
O O15 0.000000 0.260027 0.750000
O O16 0.253969 0.860051 0.282517
#
# Coordination Sequence:
#
# PCOD9307070 Si02
#       8
#     4   8   8   8   8   8   8   8
#     4  12  26  46  72 104 142 198 234 294 368 436
#     4  12  24  41  70 103 147 183 233 293 362 441
#     4  12  21  43  70 101 138 188 231 289 361 428
#     4  12  25  46  71 102 142 187 242 293 360 429
#     4  12  24  43  69 107 143 189 235 291 361 428
#     4  12  25  46  73 105 143 186 244 303 354 420
#     4  12  25  40  64 108 144 181 235 289 356 432
#     4  12  26  44  73 102 143 191 236 297 363 423
#
# _framework density 22.104704999999999
#
# number of rings (size 3 to 8) (size 9 to 14) (size 15 to 20)
#    0.000    0.000    5.333    4.800    3.733    0.000 
#    0.000    0.667    2.933    0.000    0.000    0.000 
#    0.000    0.000    0.000    0.000    0.000    0.000 
#
# Total GULP energy -167863.767023 kJ/mol
# GULP energy per Si atom -5595.458901 kJ/mol
# Density = 2.205439 g / cm^3
# Si number density = 22.104705 Si / 1000 Ang^3
#
#
#
# Elastic Constant Matrix: (Units=GPa)
#
#
# Indices 1 2 3 4 5 6 
#
# 1 75.0094 17.5473 21.6351 0.0003 18.6184 -0.0003
# 2 17.5473 84.9887 14.5978 -0.0001 -0.5806 0.0002
# 3 21.6351 14.5978 100.5262 0.0009 -3.3660 -0.0008
# 4 0.0003 -0.0001 0.0009 37.2859 -0.0006 -0.0497
# 5 18.6184 -0.5806 -3.3660 -0.0006 39.9751 0.0005
# 6 -0.0003 0.0002 -0.0008 -0.0497 0.0005 26.0913
#
#
#
# Elastic Compliance Matrix: (Units=1/GPa)
#
#
# Indices 1 2 3 4 5 6 
#
# 1 0.017109 -0.002983 -0.003527 0.000000 -0.008309 0.000000
# 2 -0.002983 0.012588 -0.001136 0.000000 0.001477 0.000000
# 3 -0.003527 -0.001136 0.010957 0.000000 0.002549 0.000000
# 4 0.000000 0.000000 0.000000 0.026820 0.000000 0.000051
# 5 -0.008309 0.001477 0.002549 0.000000 0.029122 -0.000001
# 6 0.000000 0.000000 0.000000 0.000051 -0.000001 0.038327
#
#
# Mechanical properties :
#
#
# Convention : Reuss Voigt Hill
#
# Bulk Modulus (GPa) = 39.43214 40.89828 40.16521
# Shear Modulus (GPa) = 31.51198 34.45342 32.98270
#
# Velocity S-wave (km/s) = 3.77978 3.95225 3.86698
# Velocity P-wave (km/s) = 6.07672 6.27450 6.17640
#
# Compressibility (1/GPa) = 0.02536002
#
# Stress axis : x y z
#
# Youngs Moduli (GPa) = 58.44745 79.44382 91.26461
#
# Poissons Ratio (x) = 0.23701 0.32191
# Poissons Ratio (y) = 0.17437 0.10371
# Poissons Ratio (z) = 0.20616 0.09028
#
# Static dielectric constant tensor:
#      x y z
#    x 1.868850 0.000000 -0.002290 
#    y 0.000000 1.796460 0.000000 
#    z -0.002290 0.000000 1.844000 
# 
# From -- ./inp_files/200490.got.cif
#   From: 2010.05.17/outbox.cif.g08.bks.cpg/sg15_101_cif.got.tgz:200490.got - 2010.06.03 18:47:42.
