data_PCOD9307852
_publ_section_title
;
Structure prediction by ZEFSAII (Michael W. Deem and Ramdas Pophale) SiO2 
 PCOD9307852
Probable space group: C 2/C
;
_chemical_formula_sum "Si O2"
_cell_formula_units_Z 40
_cell_length_a 16.308404
_cell_length_b 8.669855
_cell_length_c 14.746319
_cell_angle_alpha 90.000000
_cell_angle_beta 114.987374
_cell_angle_gamma 90.000000
_cell_volume 1889.849613
_symmetry_space_group_name_H-M "C 2/C"
_symmetry_group_IT_number 15
_symmetry_cell_setting 'monoclinic'
loop_
_space_group_symop_operation_xyz
x,y,z
-x,y,1/2-z
-x,-y,-z
x,-y,1/2+z
1/2+x,1/2+y,z
1/2-x,1/2+y,1/2-z
1/2-x,1/2-y,-z
1/2+x,1/2-y,1/2+z
loop_
_atom_site_type_symbol
_atom_site_label
_atom_site_fract_x
_atom_site_fract_y
_atom_site_fract_z
Si Si1 0.264926 0.560035 0.366917
Si Si2 0.852065 0.345898 0.303769
Si Si3 0.000000 0.500000 0.500000
Si Si4 0.500000 0.304101 0.750000
Si Si5 0.065713 0.979383 0.444353
Si Si6 0.574576 0.140249 0.363506
O O1 0.232125 0.435672 0.278484
O O2 0.318814 0.695699 0.341804
O O3 0.333090 0.490657 0.472847
O O4 0.174454 0.627640 0.369773
O O5 0.909076 0.450704 0.398983
O O6 0.917985 0.294061 0.252985
O O7 0.943422 0.487412 0.569209
O O8 0.464325 0.410007 0.650832
O O9 0.060428 0.803375 0.407927
O O10 0.000000 0.000000 0.500000
O O11 0.500000 0.132099 0.250000
#
# Coordination Sequence:
#
# PCOD9307852 Si02
#       6
#     8   8   4   4   8   8
#     4  12  28  46  77 116 147 199 257 311 374 456
#     4  12  28  46  78 112 151 197 256 305 381 448
#     4  12  24  50  76 104 152 196 246 304 378 454
#     4  12  26  50  76 106 154 202 246 314 378 452
#     4  12  26  47  75 111 150 193 252 313 377 439
#     4  12  25  47  78 109 152 201 245 310 385 447
#
# _framework density 21.165707000000001
#
# number of rings (size 3 to 8) (size 9 to 14) (size 15 to 20)
#    0.000    0.000    7.000    1.800    5.600    2.400 
#    0.000    0.000    0.000    0.000    0.000    0.000 
#    0.000    0.000    0.000    0.000    0.000    0.000 
#
# Total GULP energy -111466.706700 kJ/mol
# GULP energy per Si atom -5573.335335 kJ/mol
# Density = 2.111753 g / cm^3
# Si number density = 21.165707 Si / 1000 Ang^3
#
#
#
# Elastic Constant Matrix: (Units=GPa)
#
#
# Indices 1 2 3 4 5 6 
#
# 1 98.7110 6.8327 60.3378 0.0000 13.6017 0.0000
# 2 6.8327 23.8129 26.8493 0.0000 7.2080 0.0000
# 3 60.3378 26.8493 195.3089 0.0000 12.0991 0.0000
# 4 0.0000 0.0000 0.0000 20.6088 0.0000 -0.8466
# 5 13.6017 7.2080 12.0991 0.0000 39.0946 0.0000
# 6 0.0000 0.0000 0.0000 -0.8466 0.0000 22.0611
#
#
#
# Elastic Compliance Matrix: (Units=1/GPa)
#
#
# Indices 1 2 3 4 5 6 
#
# 1 0.012970 0.001939 -0.004049 0.000000 -0.003617 0.000000
# 2 0.001939 0.052049 -0.007257 0.000000 -0.008025 0.000000
# 3 -0.004049 -0.007257 0.007339 0.000000 0.000476 0.000000
# 4 0.000000 0.000000 0.000000 0.048600 0.000000 0.001865
# 5 -0.003617 -0.008025 0.000476 0.000000 0.028170 0.000000
# 6 0.000000 0.000000 0.000000 0.001865 0.000000 0.045400
#
#
# Mechanical properties :
#
#
# Convention : Reuss Voigt Hill
#
# Bulk Modulus (GPa) = 18.64854 56.20805 37.42830
# Shear Modulus (GPa) = 21.63212 31.27376 26.45294
#
# Velocity S-wave (km/s) = 3.20040 3.84808 3.53909
# Velocity P-wave (km/s) = 4.74200 6.80863 5.86703
#
# Compressibility (1/GPa) = 0.05362350
#
# Stress axis : x y z
#
# Youngs Moduli (GPa) = 77.10134 19.21252 136.25313
#
# Poissons Ratio (x) = -0.03725 0.55174
# Poissons Ratio (y) = -0.14950 0.98881
# Poissons Ratio (z) = 0.31221 0.13943
#
# Static dielectric constant tensor:
#      x y z
#    x 1.718620 0.000000 -0.004540 
#    y 0.000000 1.806510 0.000000 
#    z -0.004540 0.000000 1.745180 
# 
# From -- ./inp_files/150823.got.cif
#   From: 2010.05.17/outbox.cif.g08.bks.cpg/sg15_76_cif.got.tgz:150823.got - 2010.06.03 18:47:42.
