data_PCOD9307236
_publ_section_title
;
Structure prediction by ZEFSAII (Michael W. Deem and Ramdas Pophale) SiO2 
 PCOD9307236
Probable space group: C 2/C
;
_chemical_formula_sum "Si O2"
_cell_formula_units_Z 36
_cell_length_a 14.546511
_cell_length_b 10.024171
_cell_length_c 13.583606
_cell_angle_alpha 90.000000
_cell_angle_beta 120.917726
_cell_angle_gamma 90.000000
_cell_volume 1699.268790
_symmetry_space_group_name_H-M "C 2/C"
_symmetry_group_IT_number 15
_symmetry_cell_setting 'monoclinic'
loop_
_space_group_symop_operation_xyz
x,y,z
-x,y,1/2-z
-x,-y,-z
x,-y,1/2+z
1/2+x,1/2+y,z
1/2-x,1/2+y,1/2-z
1/2-x,1/2-y,-z
1/2+x,1/2-y,1/2+z
loop_
_atom_site_type_symbol
_atom_site_label
_atom_site_fract_x
_atom_site_fract_y
_atom_site_fract_z
Si Si1 0.051709 0.494296 0.873742
Si Si2 0.500000 0.550098 0.750000
Si Si3 0.369117 0.727263 0.522703
Si Si4 0.830308 0.103472 0.290173
Si Si5 0.666309 0.112502 0.771929
O O1 0.044733 0.597741 0.661883
O O2 0.000000 0.418479 0.750000
O O3 0.082678 0.376793 0.962529
O O4 0.066724 0.140968 0.862357
O O5 0.578371 0.459167 0.727456
O O6 0.250000 0.750000 0.500000
O O7 0.367680 0.649367 0.419171
O O8 0.151063 0.429172 0.378202
O O9 0.790368 0.240038 0.218256
O O10 0.738795 0.994502 0.256968
#
# Coordination Sequence:
#
# PCOD9307236 Si02
#       5
#     8   4   8   8   8
#     4   8  18  40  62  90 132 165 210 275 325 384
#     4  12  26  44  62 102 142 170 228 284 320 410
#     4  12  22  43  72 101 129 183 224 273 344 397
#     4  12  24  41  70  98 136 181 222 275 339 393
#     4   9  21  40  65  96 133 172 217 277 328 391
#
# _framework density 21.185583999999999
#
# number of rings (size 3 to 8) (size 9 to 14) (size 15 to 20)
#    1.333    0.000    3.333    3.333    3.111    0.889 
#    0.000    1.111    0.000    0.000    0.000    0.000 
#    0.000    0.000    0.000    0.000    0.000    0.000 
#
# Total GULP energy -100337.088705 kJ/mol
# GULP energy per Si atom -5574.282706 kJ/mol
# Density = 2.113736 g / cm^3
# Si number density = 21.185584 Si / 1000 Ang^3
#
#
#
# Elastic Constant Matrix: (Units=GPa)
#
#
# Indices 1 2 3 4 5 6 
#
# 1 123.8930 48.9561 13.2825 0.0000 -18.8554 0.0000
# 2 48.9561 131.0532 16.1868 0.0000 -6.9865 0.0000
# 3 13.2825 16.1868 51.2980 0.0000 -27.3760 0.0000
# 4 0.0000 0.0000 0.0000 15.4988 0.0000 9.1721
# 5 -18.8554 -6.9865 -27.3760 0.0000 28.3856 0.0000
# 6 0.0000 0.0000 0.0000 9.1721 0.0000 26.6082
#
#
#
# Elastic Compliance Matrix: (Units=1/GPa)
#
#
# Indices 1 2 3 4 5 6 
#
# 1 0.010701 -0.003930 0.003599 0.000000 0.009612 0.000000
# 2 -0.003930 0.009395 -0.004340 0.000000 -0.004483 0.000000
# 3 0.003599 -0.004340 0.042523 0.000000 0.042333 0.000000
# 4 0.000000 0.000000 0.000000 0.081057 0.000000 -0.027941
# 5 0.009612 -0.004483 0.042333 0.000000 0.081338 0.000000
# 6 0.000000 0.000000 0.000000 -0.027941 0.000000 0.047214
#
#
# Mechanical properties :
#
#
# Convention : Reuss Voigt Hill
#
# Bulk Modulus (GPa) = 18.76924 51.45501 35.11212
# Shear Modulus (GPa) = 16.70399 29.28642 22.99521
#
# Velocity S-wave (km/s) = 2.81100 3.72206 3.29814
# Velocity P-wave (km/s) = 4.40617 6.54310 5.57792
#
# Compressibility (1/GPa) = 0.05327865
#
# Stress axis : x y z
#
# Youngs Moduli (GPa) = 93.44655 106.43452 23.51653
#
# Poissons Ratio (x) = 0.41825 -0.08463
# Poissons Ratio (y) = 0.36721 0.10205
# Poissons Ratio (z) = -0.33628 0.46189
#
# Static dielectric constant tensor:
#      x y z
#    x 1.786670 0.000000 -0.007000 
#    y 0.000000 1.752440 0.000000 
#    z -0.007000 0.000000 1.788310 
# 
# From -- ./inp_files/158427.got.cif
#   From: 2010.05.17/outbox.cif.g08.bks.cpg/sg15_80_cif.got.tgz:158427.got - 2010.06.03 18:47:42.
