data_PCOD9307918
_publ_section_title
;
Structure prediction by ZEFSAII (Michael W. Deem and Ramdas Pophale) SiO2 
 PCOD9307918
Probable space group: C 2/C
;
_chemical_formula_sum "Si O2"
_cell_formula_units_Z 52
_cell_length_a 14.543887
_cell_length_b 12.421517
_cell_length_c 14.763604
_cell_angle_alpha 90.000000
_cell_angle_beta 117.435750
_cell_angle_gamma 90.000000
_cell_volume 2367.170904
_symmetry_space_group_name_H-M "C 2/C"
_symmetry_group_IT_number 15
_symmetry_cell_setting 'monoclinic'
loop_
_space_group_symop_operation_xyz
x,y,z
-x,y,1/2-z
-x,-y,-z
x,-y,1/2+z
1/2+x,1/2+y,z
1/2-x,1/2+y,1/2-z
1/2-x,1/2-y,-z
1/2+x,1/2-y,1/2+z
loop_
_atom_site_type_symbol
_atom_site_label
_atom_site_fract_x
_atom_site_fract_y
_atom_site_fract_z
Si Si1 0.107150 0.615701 0.077827
Si Si2 0.808394 0.762136 0.742013
Si Si3 0.933650 0.034355 0.555708
Si Si4 0.000000 0.109671 0.250000
Si Si5 0.196457 0.462899 0.964717
Si Si6 0.101912 0.535963 0.747032
Si Si7 0.394048 0.762649 0.477780
O O1 0.198497 0.691053 0.159752
O O2 0.082877 0.528991 0.146215
O O3 0.002605 0.678382 0.004974
O O4 0.147724 0.552600 0.008454
O O5 0.898501 0.819459 0.724335
O O6 0.819545 0.633763 0.734208
O O7 0.838686 0.780301 0.861464
O O8 0.813535 0.003348 0.499509
O O9 0.926928 0.163499 0.555921
O O10 0.983143 0.970059 0.659455
O O11 0.000000 0.000000 0.500000
O O12 0.143657 0.456559 0.843083
O O13 0.179307 0.349890 0.007618
O O14 0.000000 0.582179 0.750000
#
# Coordination Sequence:
#
# PCOD9307918 Si02
#       7
#     8   8   8   4   8   8   8
#     4  12  27  47  73 114 147 194 254 312 368 452
#     4  12  26  45  78 104 151 199 252 301 377 444
#     4  12  28  46  73 105 150 193 248 305 368 447
#     4  12  26  48  70 108 148 200 244 310 370 444
#     4  12  26  47  75 107 148 194 247 311 377 437
#     4  12  25  45  74 106 146 192 248 309 371 442
#     4  12  26  49  76 108 150 195 250 313 375 441
#
# _framework density 21.967151999999999
#
# number of rings (size 3 to 8) (size 9 to 14) (size 15 to 20)
#    0.000    0.000    6.923    2.769    2.154    3.077 
#    0.000    0.000    0.000    0.000    0.000    0.000 
#    0.000    0.000    0.000    0.000    0.000    0.000 
#
# Total GULP energy -145515.691867 kJ/mol
# GULP energy per Si atom -5596.757379 kJ/mol
# Density = 2.191715 g / cm^3
# Si number density = 21.967152 Si / 1000 Ang^3
#
#
#
# Elastic Constant Matrix: (Units=GPa)
#
#
# Indices 1 2 3 4 5 6 
#
# 1 108.3403 5.4243 29.3421 0.0000 11.0413 0.0000
# 2 5.4243 44.8219 2.6533 0.0000 1.2986 0.0000
# 3 29.3421 2.6533 84.3108 0.0000 -7.0115 0.0000
# 4 0.0000 0.0000 0.0000 38.7452 0.0000 3.4933
# 5 11.0413 1.2986 -7.0115 0.0000 28.6146 0.0000
# 6 0.0000 0.0000 0.0000 3.4933 0.0000 41.3863
#
#
#
# Elastic Compliance Matrix: (Units=1/GPa)
#
#
# Indices 1 2 3 4 5 6 
#
# 1 0.010950 -0.000924 -0.004215 0.000000 -0.005216 0.000000
# 2 -0.000924 0.022471 -0.000450 0.000000 -0.000773 0.000000
# 3 -0.004215 -0.000450 0.013759 0.000000 0.005019 0.000000
# 4 0.000000 0.000000 0.000000 0.026008 0.000000 -0.002195
# 5 -0.005216 -0.000773 0.005019 0.000000 0.038225 0.000000
# 6 0.000000 0.000000 0.000000 -0.002195 0.000000 0.024348
#
#
# Mechanical properties :
#
#
# Convention : Reuss Voigt Hill
#
# Bulk Modulus (GPa) = 27.77678 34.70136 31.23907
# Shear Modulus (GPa) = 31.45831 35.08610 33.27221
#
# Velocity S-wave (km/s) = 3.78836 4.00084 3.89605
# Velocity P-wave (km/s) = 5.63984 6.09701 5.87287
#
# Compressibility (1/GPa) = 0.03600129
#
# Stress axis : x y z
#
# Youngs Moduli (GPa) = 91.32648 44.50099 72.67726
#
# Poissons Ratio (x) = 0.04114 0.30637
# Poissons Ratio (y) = 0.08443 0.03269
# Poissons Ratio (z) = 0.38498 0.02001
#
# Static dielectric constant tensor:
#      x y z
#    x 1.816420 0.000000 0.015150 
#    y 0.000000 1.793800 0.000000 
#    z 0.015150 0.000000 1.772430 
# 
# From -- ./inp_files/152665.got.cif
#   From: 2010.05.17/outbox.cif.g08.bks.cpg/sg15_77_cif.got.tgz:152665.got - 2010.06.03 18:47:42.
