data_PCOD9307330
_publ_section_title
;
Structure prediction by ZEFSAII (Michael W. Deem and Ramdas Pophale) SiO2 
 PCOD9307330
Probable space group: C 2/C
;
_chemical_formula_sum "Si O2"
_cell_formula_units_Z 48
_cell_length_a 14.871200
_cell_length_b 10.393400
_cell_length_c 15.626517
_cell_angle_alpha 90.000000
_cell_angle_beta 95.671013
_cell_angle_gamma 90.000000
_cell_volume 2403.449795
_symmetry_space_group_name_H-M "C 2/C"
_symmetry_group_IT_number 15
_symmetry_cell_setting 'monoclinic'
loop_
_space_group_symop_operation_xyz
x,y,z
-x,y,1/2-z
-x,-y,-z
x,-y,1/2+z
1/2+x,1/2+y,z
1/2-x,1/2+y,1/2-z
1/2-x,1/2-y,-z
1/2+x,1/2-y,1/2+z
loop_
_atom_site_type_symbol
_atom_site_label
_atom_site_fract_x
_atom_site_fract_y
_atom_site_fract_z
Si Si1 0.442744 0.467660 0.376140
Si Si2 0.217273 0.375471 0.046642
Si Si3 0.133539 0.966871 0.322335
Si Si4 0.445553 0.773555 0.377403
Si Si5 0.725122 0.625159 0.552506
Si Si6 0.866340 0.726895 0.680064
O O1 0.548009 0.433855 0.375517
O O2 0.399454 0.446380 0.277717
O O3 0.437495 0.620496 0.394599
O O4 0.380699 0.392566 0.437269
O O5 0.279306 0.392098 0.137025
O O6 0.113503 0.355025 0.062726
O O7 0.250000 0.250000 0.000000
O O8 0.238303 0.499623 0.991713
O O9 0.150710 0.120196 0.331525
O O10 0.550563 0.806121 0.375574
O O11 0.401307 0.792442 0.279280
O O12 0.750000 0.750000 0.500000
O O13 0.779869 0.645698 0.645626
#
# Coordination Sequence:
#
# PCOD9307330 Si02
#       6
#     8   8   8   8   8   8
#     4   9  19  38  62  83 108 150 198 234 271 334
#     4  12  23  36  56  87 121 149 181 231 288 339
#     4   9  19  38  62  83 108 150 198 234 271 334
#     4   9  19  38  61  82 110 151 194 234 279 334
#     4  12  23  36  56  87 121 149 181 231 288 339
#     4   9  19  38  61  82 110 151 194 234 279 334
#
# _framework density 19.971292999999999
#
# number of rings (size 3 to 8) (size 9 to 14) (size 15 to 20)
#    0.000    2.000    3.333    3.000    0.000    2.667 
#    0.000    0.000    0.000    4.000    0.000    0.000 
#    0.000    0.000    0.000    0.000    0.000    0.000 
#
# Total GULP energy -134040.650233 kJ/mol
# GULP energy per Si atom -5585.027093 kJ/mol
# Density = 1.992584 g / cm^3
# Si number density = 19.971293 Si / 1000 Ang^3
#
#
#
# Elastic Constant Matrix: (Units=GPa)
#
#
# Indices 1 2 3 4 5 6 
#
# 1 76.0142 16.3082 3.8064 0.0000 -25.3276 0.0000
# 2 16.3082 69.0110 15.4402 0.0000 -18.6575 0.0000
# 3 3.8064 15.4402 37.1935 0.0000 -7.4869 0.0000
# 4 0.0000 0.0000 0.0000 30.1632 0.0000 1.3931
# 5 -25.3276 -18.6575 -7.4869 0.0000 45.7789 0.0000
# 6 0.0000 0.0000 0.0000 1.3931 0.0000 28.9216
#
#
#
# Elastic Compliance Matrix: (Units=1/GPa)
#
#
# Indices 1 2 3 4 5 6 
#
# 1 0.016301 -0.001741 0.000752 0.000000 0.008432 0.000000
# 2 -0.001741 0.017687 -0.006108 0.000000 0.005246 0.000000
# 3 0.000752 -0.006108 0.029912 0.000000 0.002819 0.000000
# 4 0.000000 0.000000 0.000000 0.033227 0.000000 -0.001600
# 5 0.008432 0.005246 0.002819 0.000000 0.029108 0.000000
# 6 0.000000 0.000000 0.000000 -0.001600 0.000000 0.034653
#
#
# Mechanical properties :
#
#
# Convention : Reuss Voigt Hill
#
# Bulk Modulus (GPa) = 20.11829 28.14758 24.13294
# Shear Modulus (GPa) = 26.08905 30.75035 28.41970
#
# Velocity S-wave (km/s) = 3.61824 3.92819 3.77640
# Velocity P-wave (km/s) = 5.24890 5.89058 5.57897
#
# Compressibility (1/GPa) = 0.04970601
#
# Stress axis : x y z
#
# Youngs Moduli (GPa) = 61.34676 56.53946 33.43084
#
# Poissons Ratio (x) = 0.09841 -0.02513
# Poissons Ratio (y) = 0.10678 0.20420
# Poissons Ratio (z) = -0.04612 0.34535
#
# Static dielectric constant tensor:
#      x y z
#    x 1.695890 0.000000 0.002790 
#    y 0.000000 1.644050 0.000000 
#    z 0.002790 0.000000 1.775480 
# 
# From -- ./inp_files/202982.got.cif
#   From: 2010.05.17/outbox.cif.g08.bks.cpg/sg15_102_cif.got.tgz:202982.got - 2010.06.03 18:47:42.
