data_PCOD9307843
_publ_section_title
;
Structure prediction by ZEFSAII (Michael W. Deem and Ramdas Pophale) SiO2 
 PCOD9307843
Probable space group: C 2/C
;
_chemical_formula_sum "Si O2"
_cell_formula_units_Z 24
_cell_length_a 15.806937
_cell_length_b 5.850431
_cell_length_c 18.195032
_cell_angle_alpha 90.000000
_cell_angle_beta 147.524677
_cell_angle_gamma 90.000000
_cell_volume 903.464692
_symmetry_space_group_name_H-M "C 2/C"
_symmetry_group_IT_number 15
_symmetry_cell_setting 'monoclinic'
loop_
_space_group_symop_operation_xyz
x,y,z
-x,y,1/2-z
-x,-y,-z
x,-y,1/2+z
1/2+x,1/2+y,z
1/2-x,1/2+y,1/2-z
1/2-x,1/2-y,-z
1/2+x,1/2-y,1/2+z
loop_
_atom_site_type_symbol
_atom_site_label
_atom_site_fract_x
_atom_site_fract_y
_atom_site_fract_z
Si Si1 0.700528 0.540274 0.018002
Si Si2 0.646607 0.164431 0.605260
Si Si3 0.889805 0.199437 0.255343
O O1 0.604626 0.641032 0.016839
O O2 0.835383 0.400142 0.160752
O O3 0.750000 0.750000 0.000000
O O4 0.574241 0.365057 0.890111
O O5 0.668497 0.233205 0.705352
O O6 0.500000 0.000000 0.500000
O O7 0.793690 0.035668 0.675398
#
# Coordination Sequence:
#
# PCOD9307843 Si02
#       3
#     8   8   8
#     4  12  30  53  82 126 169 218 277 350 420 486
#     4  12  24  49  86 123 160 215 277 341 412 504
#     4  12  25  52  87 120 169 217 281 339 416 505
#
# _framework density 26.564402999999999
#
# number of rings (size 3 to 8) (size 9 to 14) (size 15 to 20)
#    0.000    0.000    6.667    3.000    0.000    2.667 
#    6.000    1.667    0.000    0.000    0.000    0.000 
#    0.000    0.000    0.000    0.000    0.000    0.000 
#
# Total GULP energy -67209.749075 kJ/mol
# GULP energy per Si atom -5600.812423 kJ/mol
# Density = 2.650394 g / cm^3
# Si number density = 26.564403 Si / 1000 Ang^3
#
#
#
# Elastic Constant Matrix: (Units=GPa)
#
#
# Indices 1 2 3 4 5 6 
#
# 1 164.9027 70.9342 55.9306 0.0000 -36.0343 0.0000
# 2 70.9342 117.9101 71.0877 0.0002 -41.8236 0.0004
# 3 55.9306 71.0877 144.7811 0.0000 -16.9410 0.0001
# 4 0.0000 0.0002 0.0000 67.6396 -0.0001 -9.8900
# 5 -36.0343 -41.8236 -16.9410 -0.0001 42.8455 0.0000
# 6 0.0000 0.0004 0.0001 -9.8900 0.0000 92.0329
#
#
#
# Elastic Compliance Matrix: (Units=1/GPa)
#
#
# Indices 1 2 3 4 5 6 
#
# 1 0.008672 -0.003013 -0.001428 0.000000 0.003788 0.000000
# 2 -0.003013 0.019054 -0.006618 0.000000 0.013449 0.000000
# 3 -0.001428 -0.006618 0.010287 0.000000 -0.003593 0.000000
# 4 0.000000 0.000000 0.000000 0.015020 0.000000 0.001614
# 5 0.003788 0.013449 -0.003593 0.000000 0.038233 0.000000
# 6 0.000000 0.000000 0.000000 0.001614 0.000000 0.011039
#
#
# Mechanical properties :
#
#
# Convention : Reuss Voigt Hill
#
# Bulk Modulus (GPa) = 62.90553 91.49987 77.20270
# Shear Modulus (GPa) = 38.54416 55.81304 47.17860
#
# Velocity S-wave (km/s) = 3.81329 4.58869 4.21884
# Velocity P-wave (km/s) = 6.56659 7.91164 7.27029
#
# Compressibility (1/GPa) = 0.01589685
#
# Stress axis : x y z
#
# Youngs Moduli (GPa) = 115.31207 52.48286 97.20555
#
# Poissons Ratio (x) = 0.15812 0.13877
# Poissons Ratio (y) = 0.34740 0.64330
# Poissons Ratio (z) = 0.16462 0.34733
#
# Static dielectric constant tensor:
#      x y z
#    x 1.534580 0.000000 0.406330 
#    y 0.000000 2.476610 0.000000 
#    z 0.406330 0.000000 1.769970 
# 
# From -- ./inp_files/250676.got.cif
#   From: 2010.05.17/outbox.cif.g08.bks.cpg/sg15_126_cif.got.tgz:250676.got - 2010.06.03 18:47:42.
