data_PCOD9307944
_publ_section_title
;
Structure prediction by ZEFSAII (Michael W. Deem and Ramdas Pophale) SiO2 
 PCOD9307944
Probable space group: C 2/C
;
_chemical_formula_sum "Si O2"
_cell_formula_units_Z 40
_cell_length_a 11.307531
_cell_length_b 18.739765
_cell_length_c 8.774131
_cell_angle_alpha 90.000000
_cell_angle_beta 71.086875
_cell_angle_gamma 90.000000
_cell_volume 1758.864118
_symmetry_space_group_name_H-M "C 2/C"
_symmetry_group_IT_number 15
_symmetry_cell_setting 'monoclinic'
loop_
_space_group_symop_operation_xyz
x,y,z
-x,y,1/2-z
-x,-y,-z
x,-y,1/2+z
1/2+x,1/2+y,z
1/2-x,1/2+y,1/2-z
1/2-x,1/2-y,-z
1/2+x,1/2-y,1/2+z
loop_
_atom_site_type_symbol
_atom_site_label
_atom_site_fract_x
_atom_site_fract_y
_atom_site_fract_z
Si Si1 0.000000 0.464780 0.250000
Si Si2 0.375529 0.134507 0.574649
Si Si3 0.240132 0.252133 0.822140
Si Si4 0.140233 0.097191 0.232125
Si Si5 0.761571 0.980628 0.533802
Si Si6 0.500000 0.220178 0.250000
O O1 0.977938 0.415236 0.112412
O O2 0.873990 0.508492 0.330391
O O3 0.332109 0.194657 0.710117
O O4 0.261667 0.082509 0.577438
O O5 0.428395 0.172291 0.403513
O O6 0.280494 0.332571 0.763622
O O7 0.104030 0.238305 0.805229
O O8 0.250000 0.250000 0.000000
O O9 0.144520 0.045654 0.376399
O O10 0.000000 0.118752 0.250000
O O11 0.198082 0.052346 0.068088
#
# Coordination Sequence:
#
# PCOD9307944 Si02
#       6
#     4   8   8   8   8   4
#     4  12  25  46  78 110 147 188 252 310 363 438
#     4  12  25  46  73 112 145 187 247 303 373 434
#     4  12  29  48  75 110 148 199 246 308 373 441
#     4  12  28  48  72 104 151 193 244 299 375 447
#     4  12  25  47  74 108 143 193 245 307 366 437
#     4  12  25  46  76 108 149 188 248 314 367 438
#
# _framework density 22.741949999999999
#
# number of rings (size 3 to 8) (size 9 to 14) (size 15 to 20)
#    0.000    0.000    4.000    6.000    4.200    0.000 
#    1.800    0.000    0.000    0.000    0.000    0.000 
#    0.000    0.000    0.000    0.000    0.000    0.000 
#
# Total GULP energy -112059.503576 kJ/mol
# GULP energy per Si atom -5602.975179 kJ/mol
# Density = 2.269019 g / cm^3
# Si number density = 22.741950 Si / 1000 Ang^3
#
#
#
# Elastic Constant Matrix: (Units=GPa)
#
#
# Indices 1 2 3 4 5 6 
#
# 1 85.0559 2.7728 22.6332 0.0000 21.5337 0.0000
# 2 2.7728 73.1213 21.4936 0.0000 -12.0305 0.0000
# 3 22.6332 21.4936 109.2381 0.0000 11.5462 0.0000
# 4 0.0000 0.0000 0.0000 32.4181 0.0000 17.6394
# 5 21.5337 -12.0305 11.5462 0.0000 41.8526 0.0000
# 6 0.0000 0.0000 0.0000 17.6394 0.0000 13.8671
#
#
#
# Elastic Compliance Matrix: (Units=1/GPa)
#
#
# Indices 1 2 3 4 5 6 
#
# 1 0.014095 -0.001116 -0.001957 0.000000 -0.007033 0.000000
# 2 -0.001116 0.015748 -0.003509 0.000000 0.006069 0.000000
# 3 -0.001957 -0.003509 0.010558 0.000000 -0.002914 0.000000
# 4 0.000000 0.000000 0.000000 0.100199 0.000000 -0.127457
# 5 -0.007033 0.006069 -0.002914 0.000000 0.030060 0.000000
# 6 0.000000 0.000000 0.000000 -0.127457 0.000000 0.234244
#
#
# Mechanical properties :
#
#
# Convention : Reuss Voigt Hill
#
# Bulk Modulus (GPa) = 36.71555 40.13494 38.42524
# Shear Modulus (GPa) = 11.70554 32.32859 22.01707
#
# Velocity S-wave (km/s) = 2.27119 3.77442 3.11485
# Velocity P-wave (km/s) = 4.80179 6.05651 5.46528
#
# Compressibility (1/GPa) = 0.02723642
#
# Stress axis : x y z
#
# Youngs Moduli (GPa) = 70.94860 63.49943 94.71232
#
# Poissons Ratio (x) = 0.07088 0.18538
# Poissons Ratio (y) = 0.07920 0.33233
# Poissons Ratio (z) = 0.13887 0.22281
#
# Static dielectric constant tensor:
#      x y z
#    x 1.838580 0.000000 0.020480 
#    y 0.000000 1.820610 0.000000 
#    z 0.020480 0.000000 1.855170 
# 
# From -- ./inp_files/29260.got.cif
#   From: 2010.05.17/outbox.cif.g08.bks.cpg/sg15_15_cif.got.tgz:29260.got - 2010.06.03 18:47:42.
