data_PCOD9307506
_publ_section_title
;
Structure prediction by ZEFSAII (Michael W. Deem and Ramdas Pophale) SiO2 
 PCOD9307506
Probable space group: C 2/C
;
_chemical_formula_sum "Si O2"
_cell_formula_units_Z 44
_cell_length_a 18.895668
_cell_length_b 4.987081
_cell_length_c 22.608893
_cell_angle_alpha 90.000000
_cell_angle_beta 111.731796
_cell_angle_gamma 90.000000
_cell_volume 1979.108793
_symmetry_space_group_name_H-M "C 2/C"
_symmetry_group_IT_number 15
_symmetry_cell_setting 'monoclinic'
loop_
_space_group_symop_operation_xyz
x,y,z
-x,y,1/2-z
-x,-y,-z
x,-y,1/2+z
1/2+x,1/2+y,z
1/2-x,1/2+y,1/2-z
1/2-x,1/2-y,-z
1/2+x,1/2-y,1/2+z
loop_
_atom_site_type_symbol
_atom_site_label
_atom_site_fract_x
_atom_site_fract_y
_atom_site_fract_z
Si Si1 0.301705 0.004556 0.997761
Si Si2 0.071138 0.419648 0.370862
Si Si3 0.714205 0.207470 0.635518
Si Si4 0.087615 0.189258 0.186833
Si Si5 0.684614 0.786011 0.319307
Si Si6 0.000000 0.199590 0.750000
O O1 0.314470 0.054286 0.932057
O O2 0.250000 0.250000 0.000000
O O3 0.379816 0.012331 0.058651
O O4 0.250000 0.750000 0.000000
O O5 0.125592 0.208798 0.353183
O O6 0.989569 0.307128 0.363637
O O7 0.048808 0.626059 0.311710
O O8 0.646737 0.344045 0.652166
O O9 0.770090 0.458405 0.641816
O O10 0.762873 0.967660 0.681206
O O11 0.137217 0.371086 0.246932
O O12 0.055248 0.969278 0.223254
#
# Coordination Sequence:
#
# PCOD9307506 Si02
#       6
#     8   8   8   8   8   4
#     4  12  26  48  74 105 144 194 245 296 364 445
#     4  12  25  43  77 103 143 199 239 300 367 444
#     4  12  27  46  74 108 145 188 245 300 363 428
#     4  12  27  43  73 109 146 189 242 311 361 436
#     4  12  23  47  72 107 142 188 242 297 364 434
#     4  12  24  46  72 108 152 186 248 296 384 430
#
# _framework density 22.232227000000002
#
# number of rings (size 3 to 8) (size 9 to 14) (size 15 to 20)
#    0.000    0.000    7.273    2.182    5.091    0.727 
#    0.000    0.909    0.000    0.000    0.000    0.000 
#    0.000    0.000    0.000    0.000    0.000    0.000 
#
# Total GULP energy -122790.978975 kJ/mol
# GULP energy per Si atom -5581.408135 kJ/mol
# Density = 2.218163 g / cm^3
# Si number density = 22.232227 Si / 1000 Ang^3
#
#
#
# Elastic Constant Matrix: (Units=GPa)
#
#
# Indices 1 2 3 4 5 6 
#
# 1 126.7810 19.6457 28.4760 0.0000 7.6227 0.0000
# 2 19.6457 98.4076 6.5784 -0.0003 13.8505 -0.0001
# 3 28.4760 6.5784 124.4735 0.0001 35.4871 0.0000
# 4 0.0000 -0.0003 0.0001 18.6247 0.0001 7.3147
# 5 7.6227 13.8505 35.4871 0.0001 40.1993 -0.0001
# 6 0.0000 -0.0001 0.0000 7.3147 -0.0001 21.3709
#
#
#
# Elastic Compliance Matrix: (Units=1/GPa)
#
#
# Indices 1 2 3 4 5 6 
#
# 1 0.008572 -0.001685 -0.002104 0.000000 0.000812 0.000000
# 2 -0.001685 0.011050 0.001064 0.000000 -0.004427 0.000000
# 3 -0.002104 0.001064 0.011291 0.000000 -0.009935 0.000000
# 4 0.000000 0.000000 0.000000 0.062031 0.000000 -0.021231
# 5 0.000812 -0.004427 -0.009935 0.000000 0.035018 0.000000
# 6 0.000000 0.000000 0.000000 -0.021231 0.000000 0.054060
#
#
# Mechanical properties :
#
#
# Convention : Reuss Voigt Hill
#
# Bulk Modulus (GPa) = 39.27149 51.00692 45.13920
# Shear Modulus (GPa) = 25.51537 35.70311 30.60924
#
# Velocity S-wave (km/s) = 3.39141 4.01174 3.71455
# Velocity P-wave (km/s) = 5.74788 6.66718 6.22452
#
# Compressibility (1/GPa) = 0.02546376
#
# Stress axis : x y z
#
# Youngs Moduli (GPa) = 116.65371 90.49652 88.56276
#
# Poissons Ratio (x) = 0.15249 0.18630
# Poissons Ratio (y) = 0.19656 -0.09419
# Poissons Ratio (z) = 0.24539 -0.09624
#
# Static dielectric constant tensor:
#      x y z
#    x 1.887910 0.000000 -0.043610 
#    y 0.000000 1.859010 0.000000 
#    z -0.043610 0.000000 1.910370 
# 
# From -- ./inp_files/246413.got.cif
#   From: 2010.05.17/outbox.cif.g08.bks.cpg/sg15_124_cif.got.tgz:246413.got - 2010.06.03 18:47:42.
