data_PCOD9307919
_publ_section_title
;
Structure prediction by ZEFSAII (Michael W. Deem and Ramdas Pophale) SiO2 
 PCOD9307919
Probable space group: C 2/C
;
_chemical_formula_sum "Si O2"
_cell_formula_units_Z 48
_cell_length_a 10.744414
_cell_length_b 29.608703
_cell_length_c 8.337503
_cell_angle_alpha 90.000000
_cell_angle_beta 140.462072
_cell_angle_gamma 90.000000
_cell_volume 1688.484832
_symmetry_space_group_name_H-M "C 2/C"
_symmetry_group_IT_number 15
_symmetry_cell_setting 'monoclinic'
loop_
_space_group_symop_operation_xyz
x,y,z
-x,y,1/2-z
-x,-y,-z
x,-y,1/2+z
1/2+x,1/2+y,z
1/2-x,1/2+y,1/2-z
1/2-x,1/2-y,-z
1/2+x,1/2-y,1/2+z
loop_
_atom_site_type_symbol
_atom_site_label
_atom_site_fract_x
_atom_site_fract_y
_atom_site_fract_z
Si Si1 0.751694 0.114434 0.707791
Si Si2 0.211748 0.779419 0.623076
Si Si3 0.500613 0.051500 0.943115
Si Si4 0.007459 0.052178 0.066279
Si Si5 0.739128 0.116747 0.312396
Si Si6 0.638694 0.298196 0.040491
O O1 0.766945 0.112904 0.531308
O O2 0.734600 0.157481 0.808711
O O3 0.758266 0.061749 0.784175
O O4 0.014522 0.109386 0.002986
O O5 0.250000 0.750000 0.500000
O O6 0.307030 0.828170 0.745467
O O7 0.990150 0.794653 0.425401
O O8 0.242634 0.747495 0.810509
O O9 0.749421 0.061744 0.233212
O O10 0.499481 0.102162 0.037303
O O11 0.500000 0.055934 0.750000
O O12 0.500000 0.000000 0.000000
O O13 0.000000 0.054417 0.250000
O O14 0.000000 0.000000 0.000000
O O15 0.500000 0.303592 0.750000
#
# Coordination Sequence:
#
# PCOD9307919 Si02
#       6
#     8   8   8   8   8   8
#     4  12  25  46  75 106 149 197 251 314 384 455
#     4  12  27  48  78 110 155 203 260 317 391 466
#     4  12  28  49  75 111 155 202 258 317 388 467
#     4  12  25  45  74 110 150 197 252 316 390 464
#     4  12  26  46  76 108 151 201 254 315 383 463
#     4  12  28  49  76 111 152 198 258 323 390 462
#
# _framework density 28.427852000000001
#
# number of rings (size 3 to 8) (size 9 to 14) (size 15 to 20)
#    0.000    0.000    3.333    6.500    4.667    2.000 
#    0.000    0.000    0.000    0.000    0.000    0.000 
#    0.000    0.000    0.000    0.000    0.000    0.000 
#
# Total GULP energy -133868.301834 kJ/mol
# GULP energy per Si atom -5577.845910 kJ/mol
# Density = 2.836315 g / cm^3
# Si number density = 28.427852 Si / 1000 Ang^3
#
#
#
# Elastic Constant Matrix: (Units=GPa)
#
#
# Indices 1 2 3 4 5 6 
#
# 1 134.4838 107.7170 22.1095 0.0000 17.3995 0.0000
# 2 107.7170 279.4079 168.0123 0.0000 3.9528 0.0000
# 3 22.1095 168.0123 238.6154 0.0000 7.0380 0.0000
# 4 0.0000 0.0000 0.0000 25.8598 0.0000 40.1506
# 5 17.3995 3.9528 7.0380 0.0000 82.4775 0.0000
# 6 0.0000 0.0000 0.0000 40.1506 0.0000 43.9414
#
#
#
# Elastic Compliance Matrix: (Units=1/GPa)
#
#
# Indices 1 2 3 4 5 6 
#
# 1 0.013144 -0.007535 0.004169 0.000000 -0.002767 0.000000
# 2 -0.007535 0.010527 -0.006763 0.000000 0.001662 0.000000
# 3 0.004169 -0.006763 0.008605 0.000000 -0.001290 0.000000
# 4 0.000000 0.000000 0.000000 -0.092360 0.000000 0.084393
# 5 -0.002767 0.001662 -0.001290 0.000000 0.012739 0.000000
# 6 0.000000 0.000000 0.000000 0.084393 0.000000 -0.054355
#
#
# Mechanical properties :
#
#
# Convention : Reuss Voigt Hill
#
# Bulk Modulus (GPa) = 83.21068 138.68719 110.94893
# Shear Modulus (GPa) = -64.56892 54.10029 -5.23432
#
# Velocity S-wave (km/s) = -4.77101 4.36716 -1.35840
# Velocity P-wave (km/s) = 1.00783 8.62096 6.05414
#
# Compressibility (1/GPa) = 0.01201769
#
# Stress axis : x y z
#
# Youngs Moduli (GPa) = 76.08141 94.99179 116.21659
#
# Poissons Ratio (x) = 0.71577 -0.48455
# Poissons Ratio (y) = 0.57328 0.78600
# Poissons Ratio (z) = -0.31721 0.64245
#
# Static dielectric constant tensor:
#      x y z
#    x 2.410940 0.000000 0.314820 
#    y 0.000000 2.715590 0.000000 
#    z 0.314820 0.000000 2.108940 
# 
# From -- ./inp_files/44662.got.cif
#   From: 2010.05.17/outbox.cif.g08.bks.cpg/sg15_23_cif.got.tgz:44662.got - 2010.06.03 18:47:42.
