data_PCOD9307186
_publ_section_title
;
Structure prediction by ZEFSAII (Michael W. Deem and Ramdas Pophale) SiO2 
 PCOD9307186
Probable space group: C 2/C
;
_chemical_formula_sum "Si O2"
_cell_formula_units_Z 48
_cell_length_a 18.999959
_cell_length_b 16.714727
_cell_length_c 7.873252
_cell_angle_alpha 90.000000
_cell_angle_beta 60.499893
_cell_angle_gamma 90.000000
_cell_volume 2176.218113
_symmetry_space_group_name_H-M "C 2/C"
_symmetry_group_IT_number 15
_symmetry_cell_setting 'monoclinic'
loop_
_space_group_symop_operation_xyz
x,y,z
-x,y,1/2-z
-x,-y,-z
x,-y,1/2+z
1/2+x,1/2+y,z
1/2-x,1/2+y,1/2-z
1/2-x,1/2-y,-z
1/2+x,1/2-y,1/2+z
loop_
_atom_site_type_symbol
_atom_site_label
_atom_site_fract_x
_atom_site_fract_y
_atom_site_fract_z
Si Si1 0.146821 0.192970 0.430018
Si Si2 0.977561 0.589499 0.579334
Si Si3 0.440264 0.554561 0.179727
Si Si4 0.500000 0.794646 0.750000
Si Si5 0.209416 0.582964 0.654757
Si Si6 0.750000 0.750000 0.000000
Si Si7 0.789820 0.938767 0.407762
O O1 0.099426 0.126483 0.375220
O O2 0.078602 0.241476 0.614420
O O3 0.200766 0.140943 0.494471
O O4 0.197230 0.248468 0.242195
O O5 0.014948 0.650979 0.399131
O O6 0.881296 0.593894 0.677076
O O7 0.000000 0.605685 0.750000
O O8 0.000000 0.500000 0.500000
O O9 0.500000 0.589793 0.250000
O O10 0.370082 0.494412 0.327273
O O11 0.500000 0.500000 0.000000
O O12 0.233524 0.653742 0.499934
O O13 0.218519 0.496593 0.555444
O O14 0.272887 0.582329 0.733768
#
# Coordination Sequence:
#
# PCOD9307186 Si02
#       7
#     8   8   8   4   8   4   8
#     4  12  26  48  72 115 155 199 249 317 394 454
#     4  12  27  51  83 111 149 207 266 318 381 461
#     4  12  22  41  72 110 148 196 250 306 372 466
#     4  12  28  52  74 118 160 200 258 320 396 460
#     4  12  25  48  74 111 147 196 257 315 374 461
#     4  12  26  48  68 108 160 192 258 316 380 448
#     4  12  24  45  78 107 148 198 253 307 385 463
#
# _framework density 22.056612999999999
#
# number of rings (size 3 to 8) (size 9 to 14) (size 15 to 20)
#    0.000    0.000    7.500    2.000    0.000    2.667 
#    0.000    0.000    0.000    0.000    0.000    0.000 
#    0.000    0.000    0.000    0.000    0.000    0.000 
#
# Total GULP energy -133830.950842 kJ/mol
# GULP energy per Si atom -5576.289618 kJ/mol
# Density = 2.200641 g / cm^3
# Si number density = 22.056613 Si / 1000 Ang^3
#
#
#
# Elastic Constant Matrix: (Units=GPa)
#
#
# Indices 1 2 3 4 5 6 
#
# 1 55.3739 8.2370 18.5574 0.0000 2.1998 0.0000
# 2 8.2370 121.7414 53.6216 0.0000 -8.2806 0.0000
# 3 18.5574 53.6216 140.6723 0.0000 -13.2226 0.0000
# 4 0.0000 0.0000 0.0000 49.2611 0.0000 7.1744
# 5 2.1998 -8.2806 -13.2226 0.0000 32.5214 0.0000
# 6 0.0000 0.0000 0.0000 7.1744 0.0000 19.8866
#
#
#
# Elastic Compliance Matrix: (Units=1/GPa)
#
#
# Indices 1 2 3 4 5 6 
#
# 1 0.019082 -0.000297 -0.002633 0.000000 -0.002437 0.000000
# 2 -0.000297 0.009909 -0.003638 0.000000 0.001064 0.000000
# 3 -0.002633 -0.003638 0.009121 0.000000 0.002960 0.000000
# 4 0.000000 0.000000 0.000000 0.021426 0.000000 -0.007730
# 5 -0.002437 0.001064 0.002960 0.000000 0.032388 0.000000
# 6 0.000000 0.000000 0.000000 -0.007730 0.000000 0.053074
#
#
# Mechanical properties :
#
#
# Convention : Reuss Voigt Hill
#
# Bulk Modulus (GPa) = 40.03819 53.17996 46.60908
# Shear Modulus (GPa) = 30.03689 36.15858 33.09774
#
# Velocity S-wave (km/s) = 3.69427 4.05329 3.87794
# Velocity P-wave (km/s) = 6.03231 6.78738 6.42095
#
# Compressibility (1/GPa) = 0.02497615
#
# Stress axis : x y z
#
# Youngs Moduli (GPa) = 52.40404 100.91901 109.63665
#
# Poissons Ratio (x) = 0.02998 0.28869
# Poissons Ratio (y) = 0.01557 0.39885
# Poissons Ratio (z) = 0.13799 0.36713
#
# Static dielectric constant tensor:
#      x y z
#    x 1.835210 0.000000 0.025540 
#    y 0.000000 1.811410 0.000000 
#    z 0.025540 0.000000 1.842570 
# 
# From -- ./inp_files/48394.got.cif
#   From: 2010.05.17/outbox.cif.g08.bks.cpg/sg15_25_cif.got.tgz:48394.got - 2010.06.03 18:47:42.
