data_PCOD9307303
_publ_section_title
;
Structure prediction by ZEFSAII (Michael W. Deem and Ramdas Pophale) SiO2 
 PCOD9307303
Probable space group: C 2/C
;
_chemical_formula_sum "Si O2"
_cell_formula_units_Z 36
_cell_length_a 11.673747
_cell_length_b 13.752371
_cell_length_c 14.862392
_cell_angle_alpha 90.000000
_cell_angle_beta 139.376819
_cell_angle_gamma 90.000000
_cell_volume 1553.502034
_symmetry_space_group_name_H-M "C 2/C"
_symmetry_group_IT_number 15
_symmetry_cell_setting 'monoclinic'
loop_
_space_group_symop_operation_xyz
x,y,z
-x,y,1/2-z
-x,-y,-z
x,-y,1/2+z
1/2+x,1/2+y,z
1/2-x,1/2+y,1/2-z
1/2-x,1/2-y,-z
1/2+x,1/2-y,1/2+z
loop_
_atom_site_type_symbol
_atom_site_label
_atom_site_fract_x
_atom_site_fract_y
_atom_site_fract_z
Si Si1 0.681056 0.221733 0.556774
Si Si2 0.705722 0.137946 0.215841
Si Si3 0.694257 0.220707 0.864662
Si Si4 0.620131 0.551603 0.642629
Si Si5 0.500000 0.413380 0.250000
O O1 0.750000 0.250000 0.500000
O O2 0.491374 0.174393 0.426333
O O3 0.712022 0.308105 0.646973
O O4 0.824363 0.144148 0.673918
O O5 0.815289 0.178743 0.197093
O O6 0.722304 0.022802 0.238103
O O7 0.500000 0.176026 0.750000
O O8 0.809703 0.148567 0.868194
O O9 0.750000 0.250000 0.000000
O O10 0.500000 0.500000 0.500000
O O11 0.477622 0.542499 0.640403
#
# Coordination Sequence:
#
# PCOD9307303 Si02
#       5
#     8   8   8   8   4
#     4  12  22  46  76 108 145 194 245 317 377 434
#     4  12  26  47  75 109 151 196 254 308 375 456
#     4  12  27  50  76 108 153 198 247 312 380 448
#     4  12  28  48  74 113 149 200 257 307 381 447
#     4  12  26  46  76 106 150 192 254 316 370 452
#
# _framework density 23.173448
#
# number of rings (size 3 to 8) (size 9 to 14) (size 15 to 20)
#    0.000    0.000    4.444    5.333    4.667    4.444 
#    0.000    0.000    0.000    0.000    0.000    0.000 
#    0.000    0.000    0.000    0.000    0.000    0.000 
#
# Total GULP energy -100223.291405 kJ/mol
# GULP energy per Si atom -5567.960634 kJ/mol
# Density = 2.312070 g / cm^3
# Si number density = 23.173448 Si / 1000 Ang^3
#
#
#
# Elastic Constant Matrix: (Units=GPa)
#
#
# Indices 1 2 3 4 5 6 
#
# 1 135.1686 31.3242 28.2779 0.0001 -35.4003 0.0001
# 2 31.3242 101.5041 24.2543 0.0001 -8.9146 0.0001
# 3 28.2779 24.2543 66.2658 0.0003 -8.6826 0.0002
# 4 0.0001 0.0001 0.0003 9.1717 0.0002 -3.5177
# 5 -35.4003 -8.9146 -8.6826 0.0002 78.4786 0.0001
# 6 0.0001 0.0001 0.0002 -3.5177 0.0001 39.4563
#
#
#
# Elastic Compliance Matrix: (Units=1/GPa)
#
#
# Indices 1 2 3 4 5 6 
#
# 1 0.009403 -0.001899 -0.002831 0.000000 0.003713 0.000000
# 2 -0.001899 0.011229 -0.003293 0.000000 0.000055 0.000000
# 3 -0.002831 -0.003293 0.017542 -0.000001 0.000290 0.000000
# 4 0.000000 0.000000 -0.000001 0.112891 0.000000 0.010065
# 5 0.003713 0.000055 0.000290 0.000000 0.014455 0.000000
# 6 0.000000 0.000000 0.000000 0.010065 0.000000 0.026242
#
#
# Mechanical properties :
#
#
# Convention : Reuss Voigt Hill
#
# Bulk Modulus (GPa) = 45.18998 52.29460 48.74229
# Shear Modulus (GPa) = 23.23598 40.02680 31.63139
#
# Velocity S-wave (km/s) = 3.16998 4.16055 3.69858
# Velocity P-wave (km/s) = 5.73946 6.75987 6.27046
#
# Compressibility (1/GPa) = 0.02212880
#
# Stress axis : x y z
#
# Youngs Moduli (GPa) = 106.35083 89.05140 57.00644
#
# Poissons Ratio (x) = 0.16913 0.16138
# Poissons Ratio (y) = 0.20198 0.18770
# Poissons Ratio (z) = 0.30107 0.29321
#
# Static dielectric constant tensor:
#      x y z
#    x 1.640480 0.000000 0.260000 
#    y 0.000000 1.916100 0.000000 
#    z 0.260000 0.000000 1.598510 
# 
# From -- ./inp_files/144452.got.cif
#   From: 2010.05.17/outbox.cif.g08.bks.cpg/sg15_73_cif.got.tgz:144452.got - 2010.06.03 18:47:42.
