data_PCOD9307607
_publ_section_title
;
Structure prediction by ZEFSAII (Michael W. Deem and Ramdas Pophale) SiO2 
 PCOD9307607
Probable space group: C 2/C
;
_chemical_formula_sum "Si O2"
_cell_formula_units_Z 32
_cell_length_a 18.809809
_cell_length_b 13.584844
_cell_length_c 13.585662
_cell_angle_alpha 90.000000
_cell_angle_beta 158.183354
_cell_angle_gamma 90.000000
_cell_volume 1290.147779
_symmetry_space_group_name_H-M "C 2/C"
_symmetry_group_IT_number 15
_symmetry_cell_setting 'monoclinic'
loop_
_space_group_symop_operation_xyz
x,y,z
-x,y,1/2-z
-x,-y,-z
x,-y,1/2+z
1/2+x,1/2+y,z
1/2-x,1/2+y,1/2-z
1/2-x,1/2-y,-z
1/2+x,1/2-y,1/2+z
loop_
_atom_site_type_symbol
_atom_site_label
_atom_site_fract_x
_atom_site_fract_y
_atom_site_fract_z
Si Si1 0.217176 0.638397 0.490264
Si Si2 0.218840 0.506888 0.808926
Si Si3 0.397479 0.287943 0.524593
Si Si4 0.902414 0.131748 0.397458
O O1 0.250000 0.750000 0.500000
O O2 0.256836 0.563811 0.450919
O O3 0.000000 0.623773 0.250000
O O4 0.385429 0.631371 0.785399
O O5 0.321298 0.466263 0.842460
O O6 0.000000 0.500000 0.500000
O O7 0.274194 0.618766 0.901799
O O8 0.500000 0.238653 0.750000
O O9 0.260194 0.214573 0.286741
O O10 0.560215 0.338883 0.666946
#
# Coordination Sequence:
#
# PCOD9307607 Si02
#       4
#     8   8   8   8
#     4  12  24  43  72 105 142 185 232 292 360 426
#     4  12  26  45  72 107 144 187 238 294 362 437
#     4  12  26  46  71 102 141 190 242 299 361 427
#     4  12  25  46  71 102 143 188 238 297 356 426
#
# _framework density 24.803360999999999
#
# number of rings (size 3 to 8) (size 9 to 14) (size 15 to 20)
#    0.000    0.000    0.000   12.750    0.000    2.000 
#    0.000    1.250    0.000    0.000    0.000    0.000 
#    0.000    0.000    0.000    0.000    0.000    0.000 
#
# Total GULP energy -89523.182196 kJ/mol
# GULP energy per Si atom -5595.198887 kJ/mol
# Density = 2.474691 g / cm^3
# Si number density = 24.803361 Si / 1000 Ang^3
#
#
#
# Elastic Constant Matrix: (Units=GPa)
#
#
# Indices 1 2 3 4 5 6 
#
# 1 81.4569 -1.3507 41.6481 0.0000 -6.8898 0.0000
# 2 -1.3507 117.6243 29.4195 0.0000 -17.3699 0.0000
# 3 41.6481 29.4195 165.3873 0.0001 5.3782 0.0000
# 4 0.0000 0.0000 0.0001 42.8602 0.0000 0.6510
# 5 -6.8898 -17.3699 5.3782 0.0000 42.2973 0.0000
# 6 0.0000 0.0000 0.0000 0.6510 0.0000 48.2981
#
#
#
# Elastic Compliance Matrix: (Units=1/GPa)
#
#
# Indices 1 2 3 4 5 6 
#
# 1 0.014728 0.001741 -0.004137 0.000000 0.003640 0.000000
# 2 0.001741 0.009783 -0.002328 0.000000 0.004597 0.000000
# 3 -0.004137 -0.002328 0.007587 0.000000 -0.002595 0.000000
# 4 0.000000 0.000000 0.000000 0.023336 0.000000 -0.000315
# 5 0.003640 0.004597 -0.002595 0.000000 0.026453 0.000000
# 6 0.000000 0.000000 0.000000 -0.000315 0.000000 0.020709
#
#
# Mechanical properties :
#
#
# Convention : Reuss Voigt Hill
#
# Bulk Modulus (GPa) = 44.14950 55.98913 50.06932
# Shear Modulus (GPa) = 41.80801 46.34121 44.07461
#
# Velocity S-wave (km/s) = 4.11003 4.32712 4.21997
# Velocity P-wave (km/s) = 6.35308 6.89837 6.63133
#
# Compressibility (1/GPa) = 0.02265031
#
# Stress axis : x y z
#
# Youngs Moduli (GPa) = 67.89570 102.21983 131.80871
#
# Poissons Ratio (x) = -0.17801 0.54531
# Poissons Ratio (y) = -0.11824 0.30688
# Poissons Ratio (z) = 0.28089 0.23799
#
# Static dielectric constant tensor:
#      x y z
#    x 1.875200 0.000000 -0.071820 
#    y 0.000000 1.820470 0.000000 
#    z -0.071820 0.000000 1.963450 
# 
# From -- ./inp_files/27982.got.cif
#   From: 2010.05.17/outbox.cif.g08.bks.cpg/sg15_14_cif.got.tgz:27982.got - 2010.06.03 18:47:42.
