data_PCOD9307943
_publ_section_title
;
Structure prediction by ZEFSAII (Michael W. Deem and Ramdas Pophale) SiO2 
 PCOD9307943
Probable space group: C 2/C
;
_chemical_formula_sum "Si O2"
_cell_formula_units_Z 36
_cell_length_a 27.251746
_cell_length_b 8.013359
_cell_length_c 13.890348
_cell_angle_alpha 90.000000
_cell_angle_beta 148.237619
_cell_angle_gamma 90.000000
_cell_volume 1596.746641
_symmetry_space_group_name_H-M "C 2/C"
_symmetry_group_IT_number 15
_symmetry_cell_setting 'monoclinic'
loop_
_space_group_symop_operation_xyz
x,y,z
-x,y,1/2-z
-x,-y,-z
x,-y,1/2+z
1/2+x,1/2+y,z
1/2-x,1/2+y,1/2-z
1/2-x,1/2-y,-z
1/2+x,1/2-y,1/2+z
loop_
_atom_site_type_symbol
_atom_site_label
_atom_site_fract_x
_atom_site_fract_y
_atom_site_fract_z
Si Si1 0.000000 0.766607 0.750000
Si Si2 0.174100 0.875409 0.330332
Si Si3 0.005141 0.313035 0.045576
Si Si4 0.168630 0.988021 0.022035
Si Si5 0.814595 0.806801 0.766310
O O1 0.027967 0.676248 0.697801
O O2 0.914417 0.879670 0.574194
O O3 0.250000 0.750000 0.500000
O O4 0.092751 0.778759 0.139183
O O5 0.133240 0.957046 0.358801
O O6 0.219970 0.024390 0.344732
O O7 0.000000 0.500000 0.000000
O O8 0.085379 0.223340 0.116504
O O9 0.255052 0.861286 0.153670
O O10 0.186228 0.141790 0.122830
#
# Coordination Sequence:
#
# PCOD9307943 Si02
#       5
#     4   8   8   8   8
#     4  12  26  48  74 102 146 192 248 294 372 422
#     4  12  25  46  73 110 148 192 246 307 371 438
#     4  12  28  49  77 108 148 196 249 308 368 442
#     4  12  26  44  76 106 151 199 239 305 369 445
#     4  12  26  48  72 111 152 194 247 301 375 443
#
# _framework density 22.545842
#
# number of rings (size 3 to 8) (size 9 to 14) (size 15 to 20)
#    0.000    0.000    4.444    5.333    6.222    1.778 
#    0.000    0.000    0.000    0.000    0.000    0.000 
#    0.000    0.000    0.000    0.000    0.000    0.000 
#
# Total GULP energy -100671.385677 kJ/mol
# GULP energy per Si atom -5592.854760 kJ/mol
# Density = 2.249453 g / cm^3
# Si number density = 22.545842 Si / 1000 Ang^3
#
#
#
# Elastic Constant Matrix: (Units=GPa)
#
#
# Indices 1 2 3 4 5 6 
#
# 1 89.7312 31.9299 36.1173 0.0000 -22.8935 0.0000
# 2 31.9299 94.8258 29.6584 0.0000 -17.5176 0.0000
# 3 36.1173 29.6584 98.2684 0.0000 -3.6876 0.0000
# 4 0.0000 0.0000 0.0000 36.3291 0.0000 12.7195
# 5 -22.8935 -17.5176 -3.6876 0.0000 47.7496 0.0000
# 6 0.0000 0.0000 0.0000 12.7195 0.0000 -53.3588
#
#
#
# Elastic Compliance Matrix: (Units=1/GPa)
#
#
# Indices 1 2 3 4 5 6 
#
# 1 0.015527 -0.002634 -0.004682 0.000000 0.006116 0.000000
# 2 -0.002634 0.012912 -0.002807 0.000000 0.003257 0.000000
# 3 -0.004682 -0.002807 0.012658 0.000000 -0.002297 0.000000
# 4 0.000000 0.000000 0.000000 0.025406 0.000000 0.006056
# 5 0.006116 0.003257 -0.002297 0.000000 0.024893 0.000000
# 6 0.000000 0.000000 0.000000 0.006056 0.000000 -0.017297
#
#
# Mechanical properties :
#
#
# Convention : Reuss Voigt Hill
#
# Bulk Modulus (GPa) = 47.95857 53.13738 50.54798
# Shear Modulus (GPa) = 49.36122 18.48529 33.92325
#
# Velocity S-wave (km/s) = 4.68415 2.86649 3.88317
# Velocity P-wave (km/s) = 7.11145 5.88009 6.52488
#
# Compressibility (1/GPa) = 0.02085133
#
# Stress axis : x y z
#
# Youngs Moduli (GPa) = 64.40497 77.44643 79.00134
#
# Poissons Ratio (x) = 0.20398 0.36990
# Poissons Ratio (y) = 0.16963 0.22174
# Poissons Ratio (z) = 0.30156 0.21737
#
# Static dielectric constant tensor:
#      x y z
#    x 2.050710 0.000000 0.022700 
#    y 0.000000 1.897420 0.000000 
#    z 0.022700 0.000000 1.810240 
# 
# From -- ./inp_files/177055.got.cif
#   From: 2010.05.17/outbox.cif.g08.bks.cpg/sg15_89_cif.got.tgz:177055.got - 2010.06.03 18:47:42.
