data_PCOD9307273
_publ_section_title
;
Structure prediction by ZEFSAII (Michael W. Deem and Ramdas Pophale) SiO2 
 PCOD9307273
Probable space group: C 2/C
;
_chemical_formula_sum "Si O2"
_cell_formula_units_Z 44
_cell_length_a 16.843222
_cell_length_b 8.539958
_cell_length_c 14.067368
_cell_angle_alpha 90.000000
_cell_angle_beta 71.044936
_cell_angle_gamma 90.000000
_cell_volume 1913.731271
_symmetry_space_group_name_H-M "C 2/C"
_symmetry_group_IT_number 15
_symmetry_cell_setting 'monoclinic'
loop_
_space_group_symop_operation_xyz
x,y,z
-x,y,1/2-z
-x,-y,-z
x,-y,1/2+z
1/2+x,1/2+y,z
1/2-x,1/2+y,1/2-z
1/2-x,1/2-y,-z
1/2+x,1/2-y,1/2+z
loop_
_atom_site_type_symbol
_atom_site_label
_atom_site_fract_x
_atom_site_fract_y
_atom_site_fract_z
Si Si1 0.401084 0.976121 0.026359
Si Si2 0.000000 0.217829 0.750000
Si Si3 0.089243 0.654360 0.665268
Si Si4 0.159278 0.580290 0.260725
Si Si5 0.300524 0.323380 0.568393
Si Si6 0.065088 0.019111 0.062675
O O1 0.347788 0.074095 0.123256
O O2 0.376319 0.797916 0.054343
O O3 0.385336 0.031346 0.926213
O O4 0.500000 0.000000 0.000000
O O5 0.077245 0.322135 0.758399
O O6 0.036127 0.108530 0.652108
O O7 0.151762 0.599047 0.724442
O O8 0.076782 0.818364 0.615495
O O9 0.000000 0.628280 0.750000
O O10 0.240732 0.653851 0.181155
O O11 0.250000 0.250000 0.500000
O O12 0.344309 0.480720 0.516625
O O13 0.000000 0.000000 0.000000
#
# Coordination Sequence:
#
# PCOD9307273 Si02
#       6
#     8   4   8   8   8   8
#     4  12  24  46  78 107 144 202 253 293 375 461
#     4  12  22  44  74 104 148 196 242 312 372 432
#     4  12  23  43  72 108 140 190 249 306 364 440
#     4  12  25  45  76 107 149 196 247 308 381 446
#     4  12  26  50  71 108 151 191 242 313 378 437
#     4  12  27  44  72 106 147 192 254 305 371 440
#
# _framework density 22.991734000000001
#
# number of rings (size 3 to 8) (size 9 to 14) (size 15 to 20)
#    0.000    0.000    7.273    3.273    0.000    3.636 
#    3.273    0.000    0.000    0.000    0.000    0.000 
#    0.000    0.000    0.000    0.000    0.000    0.000 
#
# Total GULP energy -122980.987043 kJ/mol
# GULP energy per Si atom -5590.044866 kJ/mol
# Density = 2.293940 g / cm^3
# Si number density = 22.991734 Si / 1000 Ang^3
#
#
#
# Elastic Constant Matrix: (Units=GPa)
#
#
# Indices 1 2 3 4 5 6 
#
# 1 43.3241 9.1424 15.0792 0.0000 -15.6340 0.0000
# 2 9.1424 104.1655 36.4298 0.0000 -13.3495 0.0000
# 3 15.0792 36.4298 191.4072 0.0000 -21.5319 0.0000
# 4 0.0000 0.0000 0.0000 28.6176 0.0000 8.1041
# 5 -15.6340 -13.3495 -21.5319 0.0000 48.0145 0.0000
# 6 0.0000 0.0000 0.0000 8.1041 0.0000 28.9912
#
#
#
# Elastic Compliance Matrix: (Units=1/GPa)
#
#
# Indices 1 2 3 4 5 6 
#
# 1 0.026489 -0.000957 -0.001016 0.000000 0.007904 0.000000
# 2 -0.000957 0.010522 -0.001720 0.000000 0.001843 0.000000
# 3 -0.001016 -0.001720 0.005835 0.000000 0.001808 0.000000
# 4 0.000000 0.000000 0.000000 0.037948 0.000000 -0.010608
# 5 0.007904 0.001843 0.001808 0.000000 0.024724 0.000000
# 6 0.000000 0.000000 0.000000 -0.010608 0.000000 0.037458
#
#
# Mechanical properties :
#
#
# Convention : Reuss Voigt Hill
#
# Bulk Modulus (GPa) = 28.19954 51.13328 39.66641
# Shear Modulus (GPa) = 30.82973 39.67435 35.25204
#
# Velocity S-wave (km/s) = 3.66581 4.15853 3.91992
# Velocity P-wave (km/s) = 5.49629 6.73394 6.14635
#
# Compressibility (1/GPa) = 0.03546157
#
# Stress axis : x y z
#
# Youngs Moduli (GPa) = 37.75098 95.04148 171.37396
#
# Poissons Ratio (x) = 0.09094 0.17405
# Poissons Ratio (y) = 0.03612 0.29475
# Poissons Ratio (z) = 0.03834 0.16346
#
# Static dielectric constant tensor:
#      x y z
#    x 2.026580 0.000000 0.126280 
#    y 0.000000 1.927440 0.000000 
#    z 0.126280 0.000000 1.890090 
# 
# From -- ./inp_files/159224.got.cif
#   From: 2010.05.17/outbox.cif.g08.bks.cpg/sg15_80_cif.got.tgz:159224.got - 2010.06.03 18:47:42.
