data_PCOD9307641
_publ_section_title
;
Structure prediction by ZEFSAII (Michael W. Deem and Ramdas Pophale) SiO2 
 PCOD9307641
Probable space group: C 2/C
;
_chemical_formula_sum "Si O2"
_cell_formula_units_Z 48
_cell_length_a 22.809688
_cell_length_b 10.790158
_cell_length_c 8.914461
_cell_angle_alpha 90.000000
_cell_angle_beta 115.600170
_cell_angle_gamma 90.000000
_cell_volume 1978.643332
_symmetry_space_group_name_H-M "C 2/C"
_symmetry_group_IT_number 15
_symmetry_cell_setting 'monoclinic'
loop_
_space_group_symop_operation_xyz
x,y,z
-x,y,1/2-z
-x,-y,-z
x,-y,1/2+z
1/2+x,1/2+y,z
1/2-x,1/2+y,1/2-z
1/2-x,1/2-y,-z
1/2+x,1/2-y,1/2+z
loop_
_atom_site_type_symbol
_atom_site_label
_atom_site_fract_x
_atom_site_fract_y
_atom_site_fract_z
Si Si1 0.312384 0.928340 0.699166
Si Si2 0.500000 0.282871 0.750000
Si Si3 0.234466 0.881251 0.910140
Si Si4 0.376526 0.670037 0.708433
Si Si5 0.380368 0.558521 0.026596
Si Si6 0.060418 0.407140 0.078316
Si Si7 0.500000 0.230781 0.250000
O O1 0.338305 0.798671 0.663330
O O2 0.272337 0.009774 0.538766
O O3 0.373828 0.013826 0.821856
O O4 0.262991 0.891326 0.776684
O O5 0.550245 0.376555 0.883362
O O6 0.458065 0.191195 0.811951
O O7 0.250000 0.750000 0.000000
O O8 0.159815 0.892323 0.874603
O O9 0.375762 0.587188 0.557204
O O10 0.453687 0.695290 0.809970
O O11 0.353344 0.600754 0.835363
O O12 0.000000 0.500000 0.000000
O O13 0.052358 0.342959 0.907682
#
# Coordination Sequence:
#
# PCOD9307641 Si02
#       7
#     8   4   8   8   8   8   4
#     4  12  27  50  77 117 151 204 261 317 384 461
#     4  12  26  48  78 112 150 206 252 320 394 450
#     4  12  27  52  79 110 155 202 257 317 384 463
#     4  12  27  47  72 109 150 202 254 315 385 453
#     4  12  27  51  74 106 154 203 257 315 383 460
#     4  12  25  43  77 111 152 195 251 326 386 458
#     4  12  24  44  72 110 148 190 250 310 388 454
#
# _framework density 24.259046000000001
#
# number of rings (size 3 to 8) (size 9 to 14) (size 15 to 20)
#    0.000    0.000    5.000    4.000    4.667    2.000 
#    6.000    0.000    0.000    0.000    0.000    0.000 
#    0.000    0.000    0.000    0.000    0.000    0.000 
#
# Total GULP energy -134152.234057 kJ/mol
# GULP energy per Si atom -5589.676419 kJ/mol
# Density = 2.420383 g / cm^3
# Si number density = 24.259046 Si / 1000 Ang^3
#
#
#
# Elastic Constant Matrix: (Units=GPa)
#
#
# Indices 1 2 3 4 5 6 
#
# 1 113.6211 39.1427 19.2988 0.0000 -17.6846 0.0000
# 2 39.1427 158.5038 49.6147 0.0000 -17.5058 0.0000
# 3 19.2988 49.6147 71.2678 0.0000 -19.0437 0.0000
# 4 0.0000 0.0000 0.0000 45.6630 0.0000 -13.8406
# 5 -17.6846 -17.5058 -19.0437 0.0000 42.2402 0.0000
# 6 0.0000 0.0000 0.0000 -13.8406 0.0000 42.6018
#
#
#
# Elastic Compliance Matrix: (Units=1/GPa)
#
#
# Indices 1 2 3 4 5 6 
#
# 1 0.010061 -0.001978 -0.000501 0.000000 0.003166 0.000000
# 2 -0.001978 0.008487 -0.005292 0.000000 0.000304 0.000000
# 3 -0.000501 -0.005292 0.019567 0.000000 0.006418 0.000000
# 4 0.000000 0.000000 0.000000 0.024292 0.000000 0.007892
# 5 0.003166 0.000304 0.006418 0.000000 0.028019 0.000000
# 6 0.000000 0.000000 0.000000 0.007892 0.000000 0.026037
#
#
# Mechanical properties :
#
#
# Convention : Reuss Voigt Hill
#
# Bulk Modulus (GPa) = 44.30235 62.16723 53.23479
# Shear Modulus (GPa) = 35.83484 41.79011 38.81247
#
# Velocity S-wave (km/s) = 3.84757 4.15500 4.00424
# Velocity P-wave (km/s) = 6.16768 6.97859 6.58563
#
# Compressibility (1/GPa) = 0.02257216
#
# Stress axis : x y z
#
# Youngs Moduli (GPa) = 99.39837 117.82077 51.10757
#
# Poissons Ratio (x) = 0.23303 0.02562
# Poissons Ratio (y) = 0.19659 0.27046
# Poissons Ratio (z) = 0.04983 0.62351
#
# Static dielectric constant tensor:
#      x y z
#    x 2.080780 0.000000 -0.137070 
#    y 0.000000 1.904750 0.000000 
#    z -0.137070 0.000000 2.047410 
# 
# From -- ./inp_files/60911.got.cif
#   From: 2010.05.17/outbox.cif.g08.bks.cpg/sg15_31_cif.got.tgz:60911.got - 2010.06.03 18:47:42.
