data_PCOD9307098
_publ_section_title
;
Structure prediction by ZEFSAII (Michael W. Deem and Ramdas Pophale) SiO2 
 PCOD9307098
Probable space group: C 2/C
;
_chemical_formula_sum "Si O2"
_cell_formula_units_Z 52
_cell_length_a 8.944171
_cell_length_b 16.520175
_cell_length_c 19.503244
_cell_angle_alpha 90.000000
_cell_angle_beta 120.323369
_cell_angle_gamma 90.000000
_cell_volume 2487.527213
_symmetry_space_group_name_H-M "C 2/C"
_symmetry_group_IT_number 15
_symmetry_cell_setting 'monoclinic'
loop_
_space_group_symop_operation_xyz
x,y,z
-x,y,1/2-z
-x,-y,-z
x,-y,1/2+z
1/2+x,1/2+y,z
1/2-x,1/2+y,1/2-z
1/2-x,1/2-y,-z
1/2+x,1/2-y,1/2+z
loop_
_atom_site_type_symbol
_atom_site_label
_atom_site_fract_x
_atom_site_fract_y
_atom_site_fract_z
Si Si1 0.000000 0.726844 0.250000
Si Si2 0.973963 0.020657 0.073339
Si Si3 0.618086 0.129399 0.147637
Si Si4 0.161020 0.678677 0.656062
Si Si5 0.353243 0.298544 0.583189
Si Si6 0.627800 0.074275 0.516806
Si Si7 0.819849 0.974788 0.250327
O O1 0.914560 0.675139 0.289923
O O2 0.844248 0.779353 0.183808
O O3 0.919531 0.114327 0.070766
O O4 0.818395 0.961839 0.060582
O O5 0.131504 0.000845 0.161290
O O6 0.000000 0.000000 0.000000
O O7 0.731535 0.180141 0.119581
O O8 0.717662 0.046609 0.188582
O O9 0.434504 0.111859 0.068945
O O10 0.101888 0.636608 0.572138
O O11 0.206353 0.606581 0.719325
O O12 0.016128 0.743346 0.643188
O O13 0.250000 0.250000 0.500000
O O14 0.500000 0.000000 0.500000
O O15 0.000000 0.963316 0.250000
#
# Coordination Sequence:
#
# PCOD9307098 Si02
#       7
#     4   8   8   8   8   8   8
#     4  12  30  44  66 112 144 190 238 304 364 422
#     4  12  27  45  72 106 145 192 244 289 364 442
#     4  12  27  47  73 102 147 192 243 290 367 436
#     4  12  24  45  74 104 141 185 242 298 373 418
#     4  12  25  46  73 110 145 185 239 308 369 425
#     4  12  21  47  74 100 136 191 241 292 348 439
#     4  12  22  49  76  97 140 199 238 292 358 434
#
# _framework density 20.904294
#
# number of rings (size 3 to 8) (size 9 to 14) (size 15 to 20)
#    0.000    0.000    8.462    0.923    4.308    3.077 
#    0.000    3.077    0.000    0.000    0.000    0.000 
#    0.000    0.000    0.000    0.000    0.000    0.000 
#
# Total GULP energy -145494.076471 kJ/mol
# GULP energy per Si atom -5595.926018 kJ/mol
# Density = 2.085672 g / cm^3
# Si number density = 20.904294 Si / 1000 Ang^3
#
#
#
# Elastic Constant Matrix: (Units=GPa)
#
#
# Indices 1 2 3 4 5 6 
#
# 1 68.6730 56.6761 36.1271 0.0000 -3.5905 0.0000
# 2 56.6761 131.1839 50.5694 0.0000 -1.7091 0.0000
# 3 36.1271 50.5694 136.9634 0.0000 -2.5413 0.0000
# 4 0.0000 0.0000 0.0000 44.2069 0.0000 20.2244
# 5 -3.5905 -1.7091 -2.5413 0.0000 44.1336 0.0000
# 6 0.0000 0.0000 0.0000 20.2244 0.0000 23.4258
#
#
#
# Elastic Compliance Matrix: (Units=1/GPa)
#
#
# Indices 1 2 3 4 5 6 
#
# 1 0.023643 -0.009097 -0.002851 0.000000 0.001407 0.000000
# 2 -0.009097 0.012389 -0.002182 0.000000 -0.000386 0.000000
# 3 -0.002851 -0.002182 0.008863 0.000000 0.000194 0.000000
# 4 0.000000 0.000000 0.000000 0.037388 0.000000 -0.032279
# 5 0.001407 -0.000386 0.000194 0.000000 0.022769 0.000000
# 6 0.000000 0.000000 0.000000 -0.032279 0.000000 0.070555
#
#
# Mechanical properties :
#
#
# Convention : Reuss Voigt Hill
#
# Bulk Modulus (GPa) = 60.11799 69.28505 64.70152
# Shear Modulus (GPa) = 23.87614 35.24977 29.56296
#
# Velocity S-wave (km/s) = 3.38326 4.11085 3.76467
# Velocity P-wave (km/s) = 6.63951 7.46646 7.06509
#
# Compressibility (1/GPa) = 0.01663395
#
# Stress axis : x y z
#
# Youngs Moduli (GPa) = 42.29503 80.71485 112.83410
#
# Poissons Ratio (x) = 0.73428 0.32175
# Poissons Ratio (y) = 0.38477 0.24619
# Poissons Ratio (z) = 0.12060 0.17611
#
# Static dielectric constant tensor:
#      x y z
#    x 1.723940 0.000000 0.038360 
#    y 0.000000 1.757790 0.000000 
#    z 0.038360 0.000000 1.774010 
# 
# From -- ./inp_files/191149.got.cif
#   From: 2010.05.17/outbox.cif.g08.bks.cpg/sg15_96_cif.got.tgz:191149.got - 2010.06.03 18:47:42.
