data_PCOD9307501
_publ_section_title
;
Structure prediction by ZEFSAII (Michael W. Deem and Ramdas Pophale) SiO2 
 PCOD9307501
Probable space group: C 2/C
;
_chemical_formula_sum "Si O2"
_cell_formula_units_Z 36
_cell_length_a 12.680585
_cell_length_b 19.301445
_cell_length_c 9.010746
_cell_angle_alpha 90.000000
_cell_angle_beta 43.283278
_cell_angle_gamma 90.000000
_cell_volume 1512.043968
_symmetry_space_group_name_H-M "C 2/C"
_symmetry_group_IT_number 15
_symmetry_cell_setting 'monoclinic'
loop_
_space_group_symop_operation_xyz
x,y,z
-x,y,1/2-z
-x,-y,-z
x,-y,1/2+z
1/2+x,1/2+y,z
1/2-x,1/2+y,1/2-z
1/2-x,1/2-y,-z
1/2+x,1/2-y,1/2+z
loop_
_atom_site_type_symbol
_atom_site_label
_atom_site_fract_x
_atom_site_fract_y
_atom_site_fract_z
Si Si1 0.718058 0.949210 0.848096
Si Si2 0.529940 0.191249 0.557526
Si Si3 0.671190 0.083909 0.061569
Si Si4 0.000000 0.093394 0.250000
Si Si5 0.184529 0.824400 0.305471
O O1 0.624303 0.879425 0.983190
O O2 0.727338 0.945209 0.661589
O O3 0.876862 0.947331 0.776353
O O4 0.641744 0.020169 0.979377
O O5 0.362259 0.177429 0.668513
O O6 0.620561 0.246638 0.365690
O O7 0.500000 0.223273 0.750000
O O8 0.500000 0.117350 0.250000
O O9 0.802938 0.133102 0.859533
O O10 0.907557 0.136723 0.469788
#
# Coordination Sequence:
#
# PCOD9307501 Si02
#       5
#     8   8   8   4   8
#     4  12  27  47  81 108 153 193 256 305 382 435
#     4  12  23  46  78 113 144 207 245 313 363 458
#     4  12  27  50  76 115 148 202 246 318 370 452
#     4  12  26  48  74 118 146 200 244 318 364 458
#     4  12  26  46  78 110 155 193 259 296 383 438
#
# _framework density 23.808831000000001
#
# number of rings (size 3 to 8) (size 9 to 14) (size 15 to 20)
#    0.000    0.000    5.556    4.667    0.000    5.333 
#    0.000    0.000    0.000    0.000    0.000    0.000 
#    0.000    0.000    0.000    0.000    0.000    0.000 
#
# Total GULP energy -100789.599008 kJ/mol
# GULP energy per Si atom -5599.422167 kJ/mol
# Density = 2.375464 g / cm^3
# Si number density = 23.808831 Si / 1000 Ang^3
#
#
#
# Elastic Constant Matrix: (Units=GPa)
#
#
# Indices 1 2 3 4 5 6 
#
# 1 87.9969 -7.0404 29.6532 0.0000 -6.7388 0.0000
# 2 -7.0404 98.5687 66.3624 0.0000 -5.9886 0.0000
# 3 29.6532 66.3624 148.9134 0.0000 7.7476 0.0000
# 4 0.0000 0.0000 0.0000 -43.2060 0.0000 -30.9118
# 5 -6.7388 -5.9886 7.7476 0.0000 41.0407 0.0000
# 6 0.0000 0.0000 0.0000 -30.9118 0.0000 -29.2154
#
#
#
# Elastic Compliance Matrix: (Units=1/GPa)
#
#
# Indices 1 2 3 4 5 6 
#
# 1 0.013691 0.004546 -0.004952 0.000000 0.003846 0.000000
# 2 0.004546 0.016479 -0.008496 0.000000 0.004755 0.000000
# 3 -0.004952 -0.008496 0.011710 0.000000 -0.004263 0.000000
# 4 0.000000 0.000000 0.000000 -0.095244 0.000000 0.100774
# 5 0.003846 0.004755 -0.004263 0.000000 0.026496 0.000000
# 6 0.000000 0.000000 0.000000 0.100774 0.000000 -0.140854
#
#
# Mechanical properties :
#
#
# Convention : Reuss Voigt Hill
#
# Bulk Modulus (GPa) = 41.53860 57.04770 49.29315
# Shear Modulus (GPa) = -35.23820 10.15744 -12.54038
#
# Velocity S-wave (km/s) = -3.85131 2.06773 -2.29751
# Velocity P-wave (km/s) = 1.51401 5.45100 3.70278
#
# Compressibility (1/GPa) = 0.02407399
#
# Stress axis : x y z
#
# Youngs Moduli (GPa) = 73.04044 60.68316 85.39999
#
# Poissons Ratio (x) = -0.27585 0.42291
# Poissons Ratio (y) = -0.33202 0.72559
# Poissons Ratio (z) = 0.36171 0.51559
#
# Static dielectric constant tensor:
#      x y z
#    x 1.955150 0.000000 0.079990 
#    y 0.000000 1.929280 0.000000 
#    z 0.079990 0.000000 1.979400 
# 
# From -- ./inp_files/41175.got.cif
#   From: 2010.05.17/outbox.cif.g08.bks.cpg/sg15_21_cif.got.tgz:41175.got - 2010.06.03 18:47:42.
