data_PCOD9307381
_publ_section_title
;
Structure prediction by ZEFSAII (Michael W. Deem and Ramdas Pophale) SiO2 
 PCOD9307381
Probable space group: C 2/C
;
_chemical_formula_sum "Si O2"
_cell_formula_units_Z 48
_cell_length_a 17.457068
_cell_length_b 4.773899
_cell_length_c 25.881335
_cell_angle_alpha 90.000000
_cell_angle_beta 111.718160
_cell_angle_gamma 90.000000
_cell_volume 2003.798680
_symmetry_space_group_name_H-M "C 2/C"
_symmetry_group_IT_number 15
_symmetry_cell_setting 'monoclinic'
loop_
_space_group_symop_operation_xyz
x,y,z
-x,y,1/2-z
-x,-y,-z
x,-y,1/2+z
1/2+x,1/2+y,z
1/2-x,1/2+y,1/2-z
1/2-x,1/2-y,-z
1/2+x,1/2-y,1/2+z
loop_
_atom_site_type_symbol
_atom_site_label
_atom_site_fract_x
_atom_site_fract_y
_atom_site_fract_z
Si Si1 0.678009 0.420781 0.011545
Si Si2 0.924783 0.214815 0.603670
Si Si3 0.408982 0.968848 0.749090
Si Si4 0.165040 0.574614 0.580426
Si Si5 0.671998 0.497512 0.821276
Si Si6 0.966508 0.720892 0.869915
O O1 0.621048 0.582851 0.956754
O O2 0.795669 0.828674 0.943274
O O3 0.750000 0.250000 0.000000
O O4 0.638274 0.179805 0.036897
O O5 0.873330 0.141747 0.641465
O O6 0.009553 0.042507 0.630851
O O7 0.949504 0.537211 0.604233
O O8 0.500000 0.889536 0.750000
O O9 0.347459 0.707166 0.730641
O O10 0.421477 0.102896 0.808166
O O11 0.371001 0.207051 0.702835
O O12 0.234232 0.467332 0.637700
O O13 0.088141 0.684291 0.593320
#
# Coordination Sequence:
#
# PCOD9307381 Si02
#       6
#     8   8   8   8   8   8
#     4  12  26  45  74 100 135 181 235 278 340 412
#     4  12  24  43  72  99 132 185 229 277 338 413
#     4  12  23  42  71 102 131 180 230 277 331 413
#     4  12  28  46  67 105 140 175 225 293 342 401
#     4  12  24  42  72  99 131 180 235 272 336 408
#     4  12  27  44  68 103 143 173 225 289 346 397
#
# _framework density 23.954499999999999
#
# number of rings (size 3 to 8) (size 9 to 14) (size 15 to 20)
#    0.000    0.000    5.000    5.000    2.333    5.333 
#    0.000    0.000    0.000    0.000    0.000    0.000 
#    0.000    0.000    0.000    0.000    0.000    0.000 
#
# Total GULP energy -134533.971962 kJ/mol
# GULP energy per Si atom -5605.582165 kJ/mol
# Density = 2.389998 g / cm^3
# Si number density = 23.954500 Si / 1000 Ang^3
#
#
#
# Elastic Constant Matrix: (Units=GPa)
#
#
# Indices 1 2 3 4 5 6 
#
# 1 35.6774 -8.7351 3.4457 0.0000 -5.2745 -0.0002
# 2 -8.7351 96.6995 17.9919 0.0002 6.4247 -0.0003
# 3 3.4457 17.9919 89.8281 -0.0002 9.0565 0.0004
# 4 0.0000 0.0002 -0.0002 44.2567 0.0000 9.4317
# 5 -5.2745 6.4247 9.0565 0.0000 28.3289 0.0006
# 6 -0.0002 -0.0003 0.0004 9.4317 0.0006 20.8305
#
#
#
# Elastic Compliance Matrix: (Units=1/GPa)
#
#
# Indices 1 2 3 4 5 6 
#
# 1 0.029750 0.002733 -0.002257 0.000000 0.005641 0.000000
# 2 0.002733 0.011083 -0.002193 0.000000 -0.001304 0.000000
# 3 -0.002257 -0.002193 0.012038 0.000000 -0.003771 0.000000
# 4 0.000000 0.000000 0.000000 0.025009 0.000000 -0.011324
# 5 0.005641 -0.001304 -0.003771 0.000000 0.037851 -0.000001
# 6 0.000000 0.000000 0.000000 -0.011324 -0.000001 0.053134
#
#
# Mechanical properties :
#
#
# Convention : Reuss Voigt Hill
#
# Bulk Modulus (GPa) = 20.22835 27.51221 23.87028
# Shear Modulus (GPa) = 26.48601 32.65008 29.56804
#
# Velocity S-wave (km/s) = 3.32878 3.69589 3.51713
# Velocity P-wave (km/s) = 4.82050 5.45188 5.14588
#
# Compressibility (1/GPa) = 0.04943556
#
# Stress axis : x y z
#
# Youngs Moduli (GPa) = 33.61356 90.22971 83.06697
#
# Poissons Ratio (x) = -0.24656 0.18750
# Poissons Ratio (y) = -0.09185 0.18218
# Poissons Ratio (z) = 0.07587 0.19789
#
# Static dielectric constant tensor:
#      x y z
#    x 1.902040 0.000000 0.012440 
#    y 0.000000 1.865450 0.000000 
#    z 0.012440 0.000000 1.935110 
# 
# From -- ./inp_files/278521.got.cif
#   From: 2010.05.17/outbox.cif.g08.bks.cpg/sg15_140_cif.got.tgz:278521.got - 2010.06.03 18:47:42.
