data_PCOD9307908
_publ_section_title
;
Structure prediction by ZEFSAII (Michael W. Deem and Ramdas Pophale) SiO2 
 PCOD9307908
Probable space group: C 2/C
;
_chemical_formula_sum "Si O2"
_cell_formula_units_Z 44
_cell_length_a 6.973869
_cell_length_b 16.925385
_cell_length_c 20.286689
_cell_angle_alpha 90.000000
_cell_angle_beta 61.659155
_cell_angle_gamma 90.000000
_cell_volume 2107.535304
_symmetry_space_group_name_H-M "C 2/C"
_symmetry_group_IT_number 15
_symmetry_cell_setting 'monoclinic'
loop_
_space_group_symop_operation_xyz
x,y,z
-x,y,1/2-z
-x,-y,-z
x,-y,1/2+z
1/2+x,1/2+y,z
1/2-x,1/2+y,1/2-z
1/2-x,1/2-y,-z
1/2+x,1/2-y,1/2+z
loop_
_atom_site_type_symbol
_atom_site_label
_atom_site_fract_x
_atom_site_fract_y
_atom_site_fract_z
Si Si1 0.242329 0.827180 0.303451
Si Si2 0.329417 0.678821 0.532795
Si Si3 0.481548 0.971058 0.428659
Si Si4 0.476349 0.487856 0.325616
Si Si5 0.500000 0.794801 0.750000
Si Si6 0.203690 0.097905 0.392781
O O1 0.500000 0.834312 0.250000
O O2 0.177999 0.802394 0.388438
O O3 0.149454 0.761886 0.269567
O O4 0.132225 0.912086 0.307440
O O5 0.250000 0.750000 0.500000
O O6 0.159543 0.607384 0.552725
O O7 0.561767 0.647618 0.468257
O O8 0.729272 0.958200 0.367215
O O9 0.500000 0.000000 0.500000
O O10 0.360505 0.036813 0.404730
O O11 0.500000 0.527087 0.250000
O O12 0.537460 0.547761 0.374002
O O13 0.650599 0.848030 0.678348
#
# Coordination Sequence:
#
# PCOD9307908 Si02
#       6
#     8   8   8   8   4   8
#     4  12  27  49  72 105 148 185 241 296 360 428
#     4  12  27  46  76 107 147 189 238 300 361 423
#     4  12  25  46  73 104 142 188 239 292 358 425
#     4  12  25  44  77 102 140 195 241 290 358 425
#     4  12  30  46  74 106 146 190 240 296 362 422
#     4  12  27  49  70 111 144 189 243 299 352 433
#
# _framework density 20.877469000000001
#
# number of rings (size 3 to 8) (size 9 to 14) (size 15 to 20)
#    0.000    0.000    4.545    4.909    6.364    4.364 
#    0.000    0.000    0.000    0.000    0.000    0.000 
#    0.000    0.000    0.000    0.000    0.000    0.000 
#
# Total GULP energy -123244.129396 kJ/mol
# GULP energy per Si atom -5602.005882 kJ/mol
# Density = 2.082995 g / cm^3
# Si number density = 20.877469 Si / 1000 Ang^3
#
#
#
# Elastic Constant Matrix: (Units=GPa)
#
#
# Indices 1 2 3 4 5 6 
#
# 1 141.5347 59.8375 74.4715 0.0000 -13.1674 0.0000
# 2 59.8375 110.7902 50.3403 0.0000 -3.6397 0.0000
# 3 74.4715 50.3403 159.5711 0.0000 -4.5835 0.0000
# 4 0.0000 0.0000 0.0000 37.6749 0.0000 13.7729
# 5 -13.1674 -3.6397 -4.5835 0.0000 60.0825 0.0000
# 6 0.0000 0.0000 0.0000 13.7729 0.0000 13.7377
#
#
#
# Elastic Compliance Matrix: (Units=1/GPa)
#
#
# Indices 1 2 3 4 5 6 
#
# 1 0.010973 -0.004159 -0.003756 0.000000 0.001866 0.000000
# 2 -0.004159 0.012122 -0.001892 0.000000 -0.000322 0.000000
# 3 -0.003756 -0.001892 0.008608 0.000000 -0.000281 0.000000
# 4 0.000000 0.000000 0.000000 0.041899 0.000000 -0.042007
# 5 0.001866 -0.000322 -0.000281 0.000000 0.017012 0.000000
# 6 0.000000 0.000000 0.000000 -0.042007 0.000000 0.114907
#
#
# Mechanical properties :
#
#
# Convention : Reuss Voigt Hill
#
# Bulk Modulus (GPa) = 82.71499 86.79938 84.75719
# Shear Modulus (GPa) = 21.81834 37.44880 29.63357
#
# Velocity S-wave (km/s) = 3.23626 4.23985 3.77159
# Velocity P-wave (km/s) = 7.32596 8.10150 7.72347
#
# Compressibility (1/GPa) = 0.01208971
#
# Stress axis : x y z
#
# Youngs Moduli (GPa) = 91.12893 82.49774 116.16500
#
# Poissons Ratio (x) = 0.34310 0.43627
# Poissons Ratio (y) = 0.37900 0.21982
# Poissons Ratio (z) = 0.34225 0.15611
#
# Static dielectric constant tensor:
#      x y z
#    x 1.769210 0.000000 0.010050 
#    y 0.000000 1.701340 0.000000 
#    z 0.010050 0.000000 1.791680 
# 
# From -- ./inp_files/226937.got.cif
#   From: 2010.05.17/outbox.cif.g08.bks.cpg/sg15_114_cif.got.tgz:226937.got - 2010.06.03 18:47:42.
