data_PCOD9307076
_publ_section_title
;
Structure prediction by ZEFSAII (Michael W. Deem and Ramdas Pophale) SiO2 
 PCOD9307076
Probable space group: C 2/C
;
_chemical_formula_sum "Si O2"
_cell_formula_units_Z 40
_cell_length_a 12.393772
_cell_length_b 15.040907
_cell_length_c 11.262440
_cell_angle_alpha 90.000000
_cell_angle_beta 124.313426
_cell_angle_gamma 90.000000
_cell_volume 1734.092683
_symmetry_space_group_name_H-M "C 2/C"
_symmetry_group_IT_number 15
_symmetry_cell_setting 'monoclinic'
loop_
_space_group_symop_operation_xyz
x,y,z
-x,y,1/2-z
-x,-y,-z
x,-y,1/2+z
1/2+x,1/2+y,z
1/2-x,1/2+y,1/2-z
1/2-x,1/2-y,-z
1/2+x,1/2-y,1/2+z
loop_
_atom_site_type_symbol
_atom_site_label
_atom_site_fract_x
_atom_site_fract_y
_atom_site_fract_z
Si Si1 0.750000 0.250000 0.000000
Si Si2 0.334980 0.279686 0.279371
Si Si3 0.641306 0.586582 0.299162
Si Si4 0.564240 0.592987 0.000323
Si Si5 0.706703 0.076913 0.548444
Si Si6 0.000000 0.632898 0.250000
O O1 0.792036 0.243620 0.885299
O O2 0.681517 0.346432 0.927617
O O3 0.457770 0.346352 0.371178
O O4 0.225549 0.335606 0.140387
O O5 0.390754 0.197011 0.239793
O O6 0.500000 0.547612 0.250000
O O7 0.615372 0.632784 0.156557
O O8 0.751359 0.511015 0.353921
O O9 0.500000 0.500000 0.000000
O O10 0.684814 0.579945 0.987703
O O11 0.568378 0.076749 0.396578
#
# Coordination Sequence:
#
# PCOD9307076 Si02
#       6
#     4   8   8   8   8   4
#     4  12  28  44  70 118 152 182 250 314 370 450
#     4  12  24  45  74 108 151 196 241 318 370 442
#     4  12  24  45  73 105 145 193 242 305 369 442
#     4  12  21  43  77 108 137 188 259 305 361 444
#     4  12  25  47  74 106 147 197 252 303 375 449
#     4  12  28  46  72 112 148 198 250 310 372 448
#
# _framework density 23.066818000000001
#
# number of rings (size 3 to 8) (size 9 to 14) (size 15 to 20)
#    0.000    0.000    8.000    1.800    2.800    0.000 
#    1.800    4.000    0.000    0.000    0.000    0.000 
#    0.000    0.000    0.000    0.000    0.000    0.000 
#
# Total GULP energy -111461.745572 kJ/mol
# GULP energy per Si atom -5573.087279 kJ/mol
# Density = 2.301432 g / cm^3
# Si number density = 23.066818 Si / 1000 Ang^3
#
#
#
# Elastic Constant Matrix: (Units=GPa)
#
#
# Indices 1 2 3 4 5 6 
#
# 1 63.2493 9.8619 8.6078 0.0000 -21.6568 0.0000
# 2 9.8619 68.1604 24.8056 0.0000 20.0122 0.0000
# 3 8.6078 24.8056 108.3110 0.0000 10.7372 0.0000
# 4 0.0000 0.0000 0.0000 59.4176 0.0000 -2.6375
# 5 -21.6568 20.0122 10.7372 0.0000 50.5011 0.0000
# 6 0.0000 0.0000 0.0000 -2.6375 0.0000 19.4674
#
#
#
# Elastic Compliance Matrix: (Units=1/GPa)
#
#
# Indices 1 2 3 4 5 6 
#
# 1 0.020907 -0.005904 -0.001461 0.000000 0.011616 0.000000
# 2 -0.005904 0.019446 -0.003033 0.000000 -0.009593 0.000000
# 3 -0.001461 -0.003033 0.010201 0.000000 -0.001593 0.000000
# 4 0.000000 0.000000 0.000000 0.016932 0.000000 0.002294
# 5 0.011616 -0.009593 -0.001593 0.000000 0.028923 0.000000
# 6 0.000000 0.000000 0.000000 0.002294 0.000000 0.051679
#
#
# Mechanical properties :
#
#
# Convention : Reuss Voigt Hill
#
# Bulk Modulus (GPa) = 33.60422 36.25237 34.92830
# Shear Modulus (GPa) = 27.96363 38.97359 33.46861
#
# Velocity S-wave (km/s) = 3.48557 4.11493 3.81326
# Velocity P-wave (km/s) = 5.54966 6.19090 5.87903
#
# Compressibility (1/GPa) = 0.02975817
#
# Stress axis : x y z
#
# Youngs Moduli (GPa) = 47.83056 51.42478 98.02517
#
# Poissons Ratio (x) = 0.30360 0.14321
# Poissons Ratio (y) = 0.28238 0.29735
# Poissons Ratio (z) = 0.06988 0.15599
#
# Static dielectric constant tensor:
#      x y z
#    x 1.859090 0.000000 0.012700 
#    y 0.000000 1.922500 0.000000 
#    z 0.012700 0.000000 1.918120 
# 
# From -- ./inp_files/96684.got.cif
#   From: 2010.05.17/outbox.cif.g08.bks.cpg/sg15_49_cif.got.tgz:96684.got - 2010.06.03 18:47:42.
