data_PCOD9307388
_publ_section_title
;
Structure prediction by ZEFSAII (Michael W. Deem and Ramdas Pophale) SiO2 
 PCOD9307388
Probable space group: C 2/C
;
_chemical_formula_sum "Si O2"
_cell_formula_units_Z 44
_cell_length_a 15.315671
_cell_length_b 26.818337
_cell_length_c 5.422797
_cell_angle_alpha 90.000000
_cell_angle_beta 122.450297
_cell_angle_gamma 90.000000
_cell_volume 1879.577307
_symmetry_space_group_name_H-M "C 2/C"
_symmetry_group_IT_number 15
_symmetry_cell_setting 'monoclinic'
loop_
_space_group_symop_operation_xyz
x,y,z
-x,y,1/2-z
-x,-y,-z
x,-y,1/2+z
1/2+x,1/2+y,z
1/2-x,1/2+y,1/2-z
1/2-x,1/2-y,-z
1/2+x,1/2-y,1/2+z
loop_
_atom_site_type_symbol
_atom_site_label
_atom_site_fract_x
_atom_site_fract_y
_atom_site_fract_z
Si Si1 0.176327 0.784417 0.050364
Si Si2 0.000000 0.046588 0.250000
Si Si3 0.773922 0.024855 0.824113
Si Si4 0.500000 0.788587 0.250000
Si Si5 0.000000 0.346658 0.750000
Si Si6 0.226793 0.373152 0.033766
Si Si7 0.408662 0.367812 0.941400
O O1 0.088396 0.746493 0.000620
O O2 0.122081 0.826450 0.801903
O O3 0.250000 0.750000 0.000000
O O4 0.239648 0.816957 0.341741
O O5 0.960819 0.084195 0.400790
O O6 0.101472 0.018143 0.491919
O O7 0.753421 0.083948 0.772224
O O8 0.732988 0.998919 0.513759
O O9 0.464490 0.818940 0.440418
O O10 0.896157 0.374439 0.685042
O O11 0.305128 0.383745 0.928671
O O12 0.500000 0.345966 0.250000
#
# Coordination Sequence:
#
# PCOD9307388 Si02
#       7
#     8   4   8   4   4   8   8
#     4  12  25  43  71 103 152 198 246 302 364 443
#     4  12  23  44  70 115 148 187 228 310 385 456
#     4  12  27  46  75 110 147 189 245 306 378 455
#     4  12  27  46  70 115 146 199 250 300 367 442
#     4  12  30  50  74 104 152 200 260 310 350 436
#     4  12  27  48  74 105 151 200 249 306 375 431
#     4  12  23  42  73 106 151 197 235 302 377 446
#
# _framework density 23.409519
#
# number of rings (size 3 to 8) (size 9 to 14) (size 15 to 20)
#    0.000    0.000    5.455    4.364    3.818    1.455 
#    0.000    0.909    0.000    0.000    0.000    0.000 
#    0.000    0.000    0.000    0.000    0.000    0.000 
#
# Total GULP energy -123095.899576 kJ/mol
# GULP energy per Si atom -5595.268163 kJ/mol
# Density = 2.335624 g / cm^3
# Si number density = 23.409519 Si / 1000 Ang^3
#
#
#
# Elastic Constant Matrix: (Units=GPa)
#
#
# Indices 1 2 3 4 5 6 
#
# 1 110.9809 -1.8205 27.1107 0.0000 5.9904 0.0000
# 2 -1.8205 58.1948 11.6566 0.0000 -10.5412 0.0000
# 3 27.1107 11.6566 76.8396 0.0000 -8.2116 0.0000
# 4 0.0000 0.0000 0.0000 14.9049 0.0000 -10.1419
# 5 5.9904 -10.5412 -8.2116 0.0000 46.0239 0.0000
# 6 0.0000 0.0000 0.0000 -10.1419 0.0000 34.5803
#
#
#
# Elastic Compliance Matrix: (Units=1/GPa)
#
#
# Indices 1 2 3 4 5 6 
#
# 1 0.010065 0.000758 -0.003861 0.000000 -0.001825 0.000000
# 2 0.000758 0.018401 -0.002670 0.000000 0.003640 0.000000
# 3 -0.003861 -0.002670 0.015057 0.000000 0.002578 0.000000
# 4 0.000000 0.000000 0.000000 0.083819 0.000000 0.024583
# 5 -0.001825 0.003640 0.002578 0.000000 0.023259 0.000000
# 6 0.000000 0.000000 0.000000 0.024583 0.000000 0.036128
#
#
# Mechanical properties :
#
#
# Convention : Reuss Voigt Hill
#
# Bulk Modulus (GPa) = 31.27306 35.54541 33.40923
# Shear Modulus (GPa) = 23.93092 33.03973 28.48533
#
# Velocity S-wave (km/s) = 3.20077 3.76091 3.49209
# Velocity P-wave (km/s) = 5.20077 5.83750 5.52831
#
# Compressibility (1/GPa) = 0.03197640
#
# Stress axis : x y z
#
# Youngs Moduli (GPa) = 99.35720 54.34362 66.41496
#
# Poissons Ratio (x) = -0.04117 0.25643
# Poissons Ratio (y) = -0.07527 0.17732
# Poissons Ratio (z) = 0.38362 0.14509
#
# Static dielectric constant tensor:
#      x y z
#    x 1.895800 0.000000 -0.022590 
#    y 0.000000 1.867640 0.000000 
#    z -0.022590 0.000000 1.967350 
# 
# From -- ./inp_files/8219.got.cif
#   From: 2010.05.17/outbox.cif.g08.bks.cpg/sg15_5_cif.got.tgz:8219.got - 2010.06.03 18:47:42.
