data_PCOD9307767
_publ_section_title
;
Structure prediction by ZEFSAII (Michael W. Deem and Ramdas Pophale) SiO2 
 PCOD9307767
Probable space group: C 2/C
;
_chemical_formula_sum "Si O2"
_cell_formula_units_Z 56
_cell_length_a 30.784424
_cell_length_b 8.101217
_cell_length_c 11.312087
_cell_angle_alpha 90.000000
_cell_angle_beta 119.471806
_cell_angle_gamma 90.000000
_cell_volume 2456.075144
_symmetry_space_group_name_H-M "C 2/C"
_symmetry_group_IT_number 15
_symmetry_cell_setting 'monoclinic'
loop_
_space_group_symop_operation_xyz
x,y,z
-x,y,1/2-z
-x,-y,-z
x,-y,1/2+z
1/2+x,1/2+y,z
1/2-x,1/2+y,1/2-z
1/2-x,1/2-y,-z
1/2+x,1/2-y,1/2+z
loop_
_atom_site_type_symbol
_atom_site_label
_atom_site_fract_x
_atom_site_fract_y
_atom_site_fract_z
Si Si1 0.712801 0.716927 0.757976
Si Si2 0.138907 0.619879 0.337364
Si Si3 0.057320 0.484675 0.541914
Si Si4 0.555334 0.332978 0.874432
Si Si5 0.904113 0.180469 0.521105
Si Si6 0.157329 0.281296 0.443121
Si Si7 0.695824 0.351559 0.758532
O O1 0.684091 0.832585 0.811855
O O2 0.680531 0.710241 0.593729
O O3 0.714466 0.534521 0.812366
O O4 0.766357 0.777137 0.786567
O O5 0.095142 0.536519 0.201430
O O6 0.117838 0.777420 0.378560
O O7 0.153854 0.478756 0.450438
O O8 0.063021 0.314248 0.477964
O O9 0.070119 0.650500 0.487079
O O10 0.000000 0.500000 0.500000
O O11 0.500000 0.312958 0.750000
O O12 0.561518 0.518882 0.930122
O O13 0.602740 0.300509 0.852239
O O14 0.858216 0.144306 0.373429
O O15 0.190530 0.247579 0.372749
#
# Coordination Sequence:
#
# PCOD9307767 Si02
#       7
#     8   8   8   8   8   8   8
#     4  12  27  47  73 109 146 197 254 302 386 439
#     4  12  24  47  77 102 151 191 247 312 368 446
#     4  12  27  48  75 109 148 197 249 308 374 447
#     4  12  27  47  74 110 150 194 250 307 373 445
#     4  12  27  49  74 111 149 198 252 305 380 442
#     4  12  24  50  73 107 150 190 248 314 368 446
#     4  12  27  48  74 107 149 197 247 314 374 448
#
# _framework density 22.800606999999999
#
# number of rings (size 3 to 8) (size 9 to 14) (size 15 to 20)
#    0.000    0.000    5.714    3.000    4.000    1.143 
#    0.000    0.000    0.000    0.000    0.000    0.000 
#    0.000    0.000    0.000    0.000    0.000    0.000 
#
# Total GULP energy -156851.118039 kJ/mol
# GULP energy per Si atom -5601.825644 kJ/mol
# Density = 2.274871 g / cm^3
# Si number density = 22.800607 Si / 1000 Ang^3
#
#
#
# Elastic Constant Matrix: (Units=GPa)
#
#
# Indices 1 2 3 4 5 6 
#
# 1 81.3796 2.7660 -8.4251 0.0000 -4.6493 0.0000
# 2 2.7660 125.3412 0.7366 0.0000 -9.4286 0.0000
# 3 -8.4251 0.7366 37.7715 0.0000 2.4408 0.0000
# 4 0.0000 0.0000 0.0000 32.7904 0.0000 0.0667
# 5 -4.6493 -9.4286 2.4408 0.0000 31.2397 0.0000
# 6 0.0000 0.0000 0.0000 0.0667 0.0000 36.5935
#
#
#
# Elastic Compliance Matrix: (Units=1/GPa)
#
#
# Indices 1 2 3 4 5 6 
#
# 1 0.012669 -0.000174 0.002724 0.000000 0.001620 0.000000
# 2 -0.000174 0.008170 -0.000358 0.000000 0.002468 0.000000
# 3 0.002724 -0.000358 0.027208 0.000000 -0.001828 0.000000
# 4 0.000000 0.000000 0.000000 0.030497 0.000000 -0.000056
# 5 0.001620 0.002468 -0.001828 0.000000 0.033139 0.000000
# 6 0.000000 0.000000 0.000000 -0.000056 0.000000 0.027327
#
#
# Mechanical properties :
#
#
# Convention : Reuss Voigt Hill
#
# Bulk Modulus (GPa) = 19.07205 26.07190 22.57198
# Shear Modulus (GPa) = 32.87295 36.75240 34.81267
#
# Velocity S-wave (km/s) = 3.80117 4.01921 3.91171
# Velocity P-wave (km/s) = 5.25814 5.74441 5.50665
#
# Compressibility (1/GPa) = 0.05243274
#
# Stress axis : x y z
#
# Youngs Moduli (GPa) = 78.93517 122.40204 36.75415
#
# Poissons Ratio (x) = 0.02126 -0.10014
# Poissons Ratio (y) = 0.01371 0.01314
# Poissons Ratio (z) = -0.21506 0.04376
#
# Static dielectric constant tensor:
#      x y z
#    x 1.861670 0.000000 -0.009990 
#    y 0.000000 1.819570 0.000000 
#    z -0.009990 0.000000 1.830390 
# 
# From -- ./inp_files/125971.got.cif
#   From: 2010.05.17/outbox.cif.g08.bks.cpg/sg15_63_cif.got.tgz:125971.got - 2010.06.03 18:47:42.
