data_PCOD9307442
_publ_section_title
;
Structure prediction by ZEFSAII (Michael W. Deem and Ramdas Pophale) SiO2 
 PCOD9307442
Probable space group: C 2/C
;
_chemical_formula_sum "Si O2"
_cell_formula_units_Z 56
_cell_length_a 11.151140
_cell_length_b 17.620736
_cell_length_c 15.237476
_cell_angle_alpha 90.000000
_cell_angle_beta 65.773229
_cell_angle_gamma 90.000000
_cell_volume 2730.342493
_symmetry_space_group_name_H-M "C 2/C"
_symmetry_group_IT_number 15
_symmetry_cell_setting 'monoclinic'
loop_
_space_group_symop_operation_xyz
x,y,z
-x,y,1/2-z
-x,-y,-z
x,-y,1/2+z
1/2+x,1/2+y,z
1/2-x,1/2+y,1/2-z
1/2-x,1/2-y,-z
1/2+x,1/2-y,1/2+z
loop_
_atom_site_type_symbol
_atom_site_label
_atom_site_fract_x
_atom_site_fract_y
_atom_site_fract_z
Si Si1 0.488964 0.170056 0.096363
Si Si2 0.600826 0.317902 0.139852
Si Si3 0.388704 0.193173 0.622211
Si Si4 0.278209 0.348705 0.725790
Si Si5 0.417172 0.465405 0.445851
Si Si6 0.500000 0.096986 0.750000
Si Si7 0.155486 0.462296 0.617882
Si Si8 0.000000 0.943640 0.750000
O O1 0.586404 0.232019 0.110811
O O2 0.345858 0.182612 0.181355
O O3 0.538082 0.087083 0.111178
O O4 0.506327 0.181827 0.987463
O O5 0.500000 0.327621 0.250000
O O6 0.748097 0.335705 0.127163
O O7 0.563939 0.375597 0.073583
O O8 0.356930 0.280111 0.656678
O O9 0.434564 0.148157 0.694325
O O10 0.222463 0.408255 0.671160
O O11 0.377338 0.392384 0.759224
O O12 0.500000 0.500000 0.500000
O O13 0.265016 0.478682 0.512681
O O14 0.460937 0.504819 0.343634
O O15 0.604711 0.039557 0.675308
#
# Coordination Sequence:
#
# PCOD9307442 Si02
#       8
#     8   8   8   8   8   4   8   4
#     4  12  24  45  80 103 130 193 251 300 350 434
#     4  12  23  44  74 104 138 184 243 299 354 426
#     4  12  27  48  71 104 143 186 240 299 358 439
#     4  12  25  49  71 104 146 189 243 293 364 437
#     4  12  27  43  70 108 147 188 237 303 371 432
#     4  12  31  46  67 106 154 182 234 306 375 424
#     4  12  24  46  73 103 142 184 242 299 357 427
#     4  12  29  46  69 104 152 192 234 302 373 438
#
# _framework density 20.510247
#
# number of rings (size 3 to 8) (size 9 to 14) (size 15 to 20)
#    0.000    0.000    7.857    1.714    6.000    0.571 
#    0.000    1.429    0.000    0.000    0.000    0.000 
#    0.000    0.000    0.000    0.000    0.000    0.000 
#
# Total GULP energy -156723.197333 kJ/mol
# GULP energy per Si atom -5597.257048 kJ/mol
# Density = 2.046356 g / cm^3
# Si number density = 20.510247 Si / 1000 Ang^3
#
#
#
# Elastic Constant Matrix: (Units=GPa)
#
#
# Indices 1 2 3 4 5 6 
#
# 1 65.6353 42.3727 36.6209 0.0000 12.1443 0.0000
# 2 42.3727 82.0761 29.4023 0.0000 15.5726 0.0000
# 3 36.6209 29.4023 138.4290 0.0000 4.8015 0.0000
# 4 0.0000 0.0000 0.0000 31.3301 0.0000 -1.0729
# 5 12.1443 15.5726 4.8015 0.0000 26.1913 0.0000
# 6 0.0000 0.0000 0.0000 -1.0729 0.0000 32.6944
#
#
#
# Elastic Compliance Matrix: (Units=1/GPa)
#
#
# Indices 1 2 3 4 5 6 
#
# 1 0.025385 -0.010693 -0.004284 0.000000 -0.004628 0.000000
# 2 -0.010693 0.019276 -0.001047 0.000000 -0.006311 0.000000
# 3 -0.004284 -0.001047 0.008543 0.000000 0.001042 0.000000
# 4 0.000000 0.000000 0.000000 0.031954 0.000000 0.001049
# 5 -0.004628 -0.006311 0.001042 0.000000 0.043888 0.000000
# 6 0.000000 0.000000 0.000000 0.001049 0.000000 0.030621
#
#
# Mechanical properties :
#
#
# Convention : Reuss Voigt Hill
#
# Bulk Modulus (GPa) = 47.26261 55.88135 51.57198
# Shear Modulus (GPa) = 25.15510 29.89280 27.52395
#
# Velocity S-wave (km/s) = 3.50589 3.82181 3.66725
# Velocity P-wave (km/s) = 6.28346 6.83957 6.56740
#
# Compressibility (1/GPa) = 0.02115837
#
# Stress axis : x y z
#
# Youngs Moduli (GPa) = 39.39322 51.87669 117.04981
#
# Poissons Ratio (x) = 0.55470 0.50143
# Poissons Ratio (y) = 0.42122 0.12252
# Poissons Ratio (z) = 0.16876 0.05430
#
# Static dielectric constant tensor:
#      x y z
#    x 1.707510 0.000000 -0.006290 
#    y 0.000000 1.728690 0.000000 
#    z -0.006290 0.000000 1.742730 
# 
# From -- ./inp_files/146018.got.cif
#   From: 2010.05.17/outbox.cif.g08.bks.cpg/sg15_74_cif.got.tgz:146018.got - 2010.06.03 18:47:42.
