data_PCOD9307018
_publ_section_title
;
Structure prediction by ZEFSAII (Michael W. Deem and Ramdas Pophale) SiO2 
 PCOD9307018
Probable space group: C 2/C
;
_chemical_formula_sum "Si O2"
_cell_formula_units_Z 52
_cell_length_a 25.892855
_cell_length_b 12.495940
_cell_length_c 8.349153
_cell_angle_alpha 90.000000
_cell_angle_beta 61.485456
_cell_angle_gamma 90.000000
_cell_volume 2373.722360
_symmetry_space_group_name_H-M "C 2/C"
_symmetry_group_IT_number 15
_symmetry_cell_setting 'monoclinic'
loop_
_space_group_symop_operation_xyz
x,y,z
-x,y,1/2-z
-x,-y,-z
x,-y,1/2+z
1/2+x,1/2+y,z
1/2-x,1/2+y,1/2-z
1/2-x,1/2-y,-z
1/2+x,1/2-y,1/2+z
loop_
_atom_site_type_symbol
_atom_site_label
_atom_site_fract_x
_atom_site_fract_y
_atom_site_fract_z
Si Si1 0.195968 0.017647 0.572867
Si Si2 0.679136 0.071142 0.483752
Si Si3 0.853850 0.356646 0.141347
Si Si4 0.890106 0.952919 0.025913
Si Si5 0.451030 0.688961 0.965406
Si Si6 0.000000 0.180988 0.250000
Si Si7 0.744295 0.707750 0.329031
O O1 0.152608 0.932221 0.561837
O O2 0.207474 0.098938 0.409814
O O3 0.258596 0.973124 0.535217
O O4 0.153980 0.073635 0.763981
O O5 0.639436 0.115977 0.683161
O O6 0.696399 0.166210 0.338162
O O7 0.651127 0.969196 0.440887
O O8 0.791703 0.294140 0.216417
O O9 0.902818 0.279390 0.998172
O O10 0.918129 0.072568 0.009657
O O11 0.946448 0.883922 0.906411
O O12 0.500000 0.686079 0.750000
O O13 0.473606 0.720249 0.113326
O O14 0.750000 0.750000 0.500000
#
# Coordination Sequence:
#
# PCOD9307018 Si02
#       7
#     8   8   8   8   8   4   8
#     4  12  21  37  65 103 141 180 218 272 357 431
#     4  12  24  46  68 102 147 181 230 287 352 430
#     4  12  25  46  71 101 137 188 234 291 358 422
#     4  12  22  39  68 100 144 183 219 287 365 430
#     4  12  26  47  69 102 136 182 246 300 353 420
#     4  12  26  44  70 104 144 184 238 298 362 412
#     4  12  24  40  67 104 144 185 228 276 344 434
#
# _framework density 21.906521000000001
#
# number of rings (size 3 to 8) (size 9 to 14) (size 15 to 20)
#    0.000    0.000    8.462    1.846    0.000    1.231 
#    2.769    0.769    0.000    0.000    0.000    0.000 
#    0.000    0.000    0.000    0.000    0.000    0.000 
#
# Total GULP energy -145048.480297 kJ/mol
# GULP energy per Si atom -5578.787704 kJ/mol
# Density = 2.185666 g / cm^3
# Si number density = 21.906521 Si / 1000 Ang^3
#
#
#
# Elastic Constant Matrix: (Units=GPa)
#
#
# Indices 1 2 3 4 5 6 
#
# 1 52.8317 2.0562 4.7769 0.0000 3.1475 0.0000
# 2 2.0562 66.5557 21.8507 0.0000 0.8263 0.0000
# 3 4.7769 21.8507 124.4156 0.0000 -6.2928 0.0000
# 4 0.0000 0.0000 0.0000 -66.1281 0.0000 -34.4328
# 5 3.1475 0.8263 -6.2928 0.0000 33.9425 0.0000
# 6 0.0000 0.0000 0.0000 -34.4328 0.0000 0.2091
#
#
#
# Elastic Compliance Matrix: (Units=1/GPa)
#
#
# Indices 1 2 3 4 5 6 
#
# 1 0.019124 -0.000312 -0.000776 0.000000 -0.001910 0.000000
# 2 -0.000312 0.015978 -0.002839 0.000000 -0.000886 0.000000
# 3 -0.000776 -0.002839 0.008654 0.000000 0.001746 0.000000
# 4 0.000000 0.000000 0.000000 -0.000174 0.000000 -0.028707
# 5 -0.001910 -0.000886 0.001746 0.000000 0.029984 0.000000
# 6 0.000000 0.000000 0.000000 -0.028707 0.000000 0.055132
#
#
# Mechanical properties :
#
#
# Convention : Reuss Voigt Hill
#
# Bulk Modulus (GPa) = 27.85400 33.46340 30.65870
# Shear Modulus (GPa) = 33.66561 7.94598 20.80580
#
# Velocity S-wave (km/s) = 3.92444 1.90659 3.08515
# Velocity P-wave (km/s) = 5.76866 4.48949 5.16880
#
# Compressibility (1/GPa) = 0.03590149
#
# Stress axis : x y z
#
# Youngs Moduli (GPa) = 52.29000 62.58720 115.55014
#
# Poissons Ratio (x) = 0.01955 0.08967
# Poissons Ratio (y) = 0.01633 0.32804
# Poissons Ratio (z) = 0.04058 0.17768
#
# Static dielectric constant tensor:
#      x y z
#    x 1.926540 0.000000 0.077240 
#    y 0.000000 1.854190 0.000000 
#    z 0.077240 0.000000 1.871400 
# 
# From -- ./inp_files/65376.got.cif
#   From: 2010.05.17/outbox.cif.g08.bks.cpg/sg15_33_cif.got.tgz:65376.got - 2010.06.03 18:47:42.
