data_PCOD9307914
_publ_section_title
;
Structure prediction by ZEFSAII (Michael W. Deem and Ramdas Pophale) SiO2 
 PCOD9307914
Probable space group: C 2/C
;
_chemical_formula_sum "Si O2"
_cell_formula_units_Z 48
_cell_length_a 15.150783
_cell_length_b 13.701901
_cell_length_c 11.298013
_cell_angle_alpha 90.000000
_cell_angle_beta 116.029448
_cell_angle_gamma 90.000000
_cell_volume 2107.507950
_symmetry_space_group_name_H-M "C 2/C"
_symmetry_group_IT_number 15
_symmetry_cell_setting 'monoclinic'
loop_
_space_group_symop_operation_xyz
x,y,z
-x,y,1/2-z
-x,-y,-z
x,-y,1/2+z
1/2+x,1/2+y,z
1/2-x,1/2+y,1/2-z
1/2-x,1/2-y,-z
1/2+x,1/2-y,1/2+z
loop_
_atom_site_type_symbol
_atom_site_label
_atom_site_fract_x
_atom_site_fract_y
_atom_site_fract_z
Si Si1 0.000000 0.659142 0.750000
Si Si2 0.785346 0.045968 0.248276
Si Si3 0.400978 0.011194 0.511510
Si Si4 0.058680 0.902548 0.070219
Si Si5 0.694087 0.834801 0.897583
Si Si6 0.148637 0.197925 0.396730
Si Si7 0.000000 0.779046 0.250000
O O1 0.064274 0.591907 0.874148
O O2 0.087837 0.733780 0.770088
O O3 0.770354 0.115550 0.352203
O O4 0.836679 0.099350 0.168544
O O5 0.840419 0.946563 0.314753
O O6 0.676524 0.035462 0.134865
O O7 0.500000 0.000000 0.500000
O O8 0.352501 0.919917 0.549295
O O9 0.995831 0.846068 0.131361
O O10 0.087336 0.832434 0.977690
O O11 0.000000 0.000000 0.000000
O O12 0.597112 0.785006 0.785515
O O13 0.750000 0.750000 0.000000
O O14 0.250000 0.250000 0.500000
#
# Coordination Sequence:
#
# PCOD9307914 Si02
#       7
#     4   8   8   8   8   8   4
#     4  12  27  47  72 108 152 192 254 309 379 454
#     4  12  25  48  73 108 146 192 251 307 375 447
#     4  12  27  45  75 105 147 197 243 311 380 448
#     4  12  26  47  73 105 146 194 245 301 373 439
#     4  12  27  47  73 108 146 191 242 305 371 442
#     4  12  26  45  75 108 146 195 250 308 373 453
#     4  12  25  45  70 106 142 184 240 295 363 436
#
# _framework density 22.775715999999999
#
# number of rings (size 3 to 8) (size 9 to 14) (size 15 to 20)
#    0.000    0.000    1.667    8.500    7.000    0.000 
#    0.000    0.000    0.000    0.000    0.000    0.000 
#    0.000    0.000    0.000    0.000    0.000    0.000 
#
# Total GULP energy -134110.158326 kJ/mol
# GULP energy per Si atom -5587.923264 kJ/mol
# Density = 2.272388 g / cm^3
# Si number density = 22.775716 Si / 1000 Ang^3
#
#
#
# Elastic Constant Matrix: (Units=GPa)
#
#
# Indices 1 2 3 4 5 6 
#
# 1 82.6169 16.8953 19.1379 0.0000 -14.6747 0.0000
# 2 16.8953 62.6824 24.0947 0.0000 -3.1166 0.0000
# 3 19.1379 24.0947 83.5226 0.0000 17.3480 0.0000
# 4 0.0000 0.0000 0.0000 104.3302 0.0000 22.4042
# 5 -14.6747 -3.1166 17.3480 0.0000 59.1189 0.0000
# 6 0.0000 0.0000 0.0000 22.4042 0.0000 44.7088
#
#
#
# Elastic Compliance Matrix: (Units=1/GPa)
#
#
# Indices 1 2 3 4 5 6 
#
# 1 0.014165 -0.002245 -0.003518 0.000000 0.004430 0.000000
# 2 -0.002245 0.018690 -0.005288 0.000000 0.001980 0.000000
# 3 -0.003518 -0.005288 0.015488 0.000000 -0.005697 0.000000
# 4 0.000000 0.000000 0.000000 0.010741 0.000000 -0.005382
# 5 0.004430 0.001980 -0.005697 0.000000 0.019791 0.000000
# 6 0.000000 0.000000 0.000000 -0.005382 0.000000 0.025064
#
#
# Mechanical properties :
#
#
# Convention : Reuss Voigt Hill
#
# Bulk Modulus (GPa) = 38.11124 38.78640 38.44882
# Shear Modulus (GPa) = 37.09512 52.87786 44.98649
#
# Velocity S-wave (km/s) = 4.04011 4.82361 4.44914
# Velocity P-wave (km/s) = 6.20749 6.93467 6.58113
#
# Compressibility (1/GPa) = 0.02623898
#
# Stress axis : x y z
#
# Youngs Moduli (GPa) = 70.59610 53.50474 64.56703
#
# Poissons Ratio (x) = 0.12014 0.22715
# Poissons Ratio (y) = 0.15852 0.34146
# Poissons Ratio (z) = 0.24836 0.28295
#
# Static dielectric constant tensor:
#      x y z
#    x 1.806530 0.000000 0.012660 
#    y 0.000000 1.870910 0.000000 
#    z 0.012660 0.000000 1.867340 
# 
# From -- ./inp_files/97236.got.cif
#   From: 2010.05.17/outbox.cif.g08.bks.cpg/sg15_49_cif.got.tgz:97236.got - 2010.06.03 18:47:42.
