data_PCOD9307284
_publ_section_title
;
Structure prediction by ZEFSAII (Michael W. Deem and Ramdas Pophale) SiO2 
 PCOD9307284
Probable space group: C 2/C
;
_chemical_formula_sum "Si O2"
_cell_formula_units_Z 44
_cell_length_a 17.601582
_cell_length_b 12.497970
_cell_length_c 10.038692
_cell_angle_alpha 90.000000
_cell_angle_beta 55.888421
_cell_angle_gamma 90.000000
_cell_volume 1828.398502
_symmetry_space_group_name_H-M "C 2/C"
_symmetry_group_IT_number 15
_symmetry_cell_setting 'monoclinic'
loop_
_space_group_symop_operation_xyz
x,y,z
-x,y,1/2-z
-x,-y,-z
x,-y,1/2+z
1/2+x,1/2+y,z
1/2-x,1/2+y,1/2-z
1/2-x,1/2-y,-z
1/2+x,1/2-y,1/2+z
loop_
_atom_site_type_symbol
_atom_site_label
_atom_site_fract_x
_atom_site_fract_y
_atom_site_fract_z
Si Si1 0.299524 0.312787 0.832724
Si Si2 0.817464 0.556488 0.261147
Si Si3 0.637002 0.431420 0.505270
Si Si4 0.049572 0.357056 0.351061
Si Si5 0.500000 0.424848 0.250000
Si Si6 0.601811 0.258244 0.319426
O O1 0.226001 0.386870 0.828938
O O2 0.365198 0.224166 0.704847
O O3 0.250000 0.250000 0.000000
O O4 0.371139 0.389860 0.835977
O O5 0.732173 0.493536 0.404126
O O6 0.902414 0.473115 0.173229
O O7 0.842154 0.666011 0.311948
O O8 0.551405 0.510025 0.583345
O O9 0.641279 0.334114 0.397667
O O10 0.000000 0.352959 0.250000
O O11 0.973940 0.313920 0.528912
O O12 0.571997 0.345278 0.244095
#
# Coordination Sequence:
#
# PCOD9307284 Si02
#       6
#     8   8   8   8   4   8
#     4  12  22  45  71 101 141 187 239 292 352 433
#     4  12  26  41  74 108 138 188 243 296 360 426
#     4  12  24  47  72  98 141 192 242 286 365 434
#     4  12  24  46  77 105 149 194 238 298 363 431
#     4  12  28  44  70 104 144 186 236 306 360 428
#     4  12  26  46  68 106 144 185 241 298 362 431
#
# _framework density 24.064776999999999
#
# number of rings (size 3 to 8) (size 9 to 14) (size 15 to 20)
#    0.000    0.000    5.455    4.364    1.273    2.182 
#    0.000    0.000    0.000    0.000    0.000    0.000 
#    0.000    0.000    0.000    0.000    0.000    0.000 
#
# Total GULP energy -122691.265087 kJ/mol
# GULP energy per Si atom -5576.875686 kJ/mol
# Density = 2.401000 g / cm^3
# Si number density = 24.064777 Si / 1000 Ang^3
#
#
#
# Elastic Constant Matrix: (Units=GPa)
#
#
# Indices 1 2 3 4 5 6 
#
# 1 88.8340 38.2659 6.2361 0.0000 -1.7349 0.0000
# 2 38.2659 161.3270 29.3242 0.0000 -20.9382 0.0000
# 3 6.2361 29.3242 31.7288 0.0000 -17.2329 0.0000
# 4 0.0000 0.0000 0.0000 4.0468 0.0000 -8.9253
# 5 -1.7349 -20.9382 -17.2329 0.0000 36.7971 0.0000
# 6 0.0000 0.0000 0.0000 -8.9253 0.0000 70.2123
#
#
#
# Elastic Compliance Matrix: (Units=1/GPa)
#
#
# Indices 1 2 3 4 5 6 
#
# 1 0.012589 -0.003098 -0.000330 0.000000 -0.001324 0.000000
# 2 -0.003098 0.008264 -0.006107 0.000000 0.001696 0.000000
# 3 -0.000330 -0.006107 0.047383 0.000000 0.018700 0.000000
# 4 0.000000 0.000000 0.000000 0.343378 0.000000 0.043650
# 5 -0.001324 0.001696 0.018700 0.000000 0.036836 0.000000
# 6 0.000000 0.000000 0.000000 0.043650 0.000000 0.019791
#
#
# Mechanical properties :
#
#
# Convention : Reuss Voigt Hill
#
# Bulk Modulus (GPa) = 20.33992 47.72693 34.03343
# Shear Modulus (GPa) = 9.92654 36.08214 23.00434
#
# Velocity S-wave (km/s) = 2.03319 3.87638 3.09517
# Velocity P-wave (km/s) = 3.73930 6.31750 5.19101
#
# Compressibility (1/GPa) = 0.04916439
#
# Stress axis : x y z
#
# Youngs Moduli (GPa) = 79.43653 121.01264 21.10462
#
# Poissons Ratio (x) = 0.37487 0.00697
# Poissons Ratio (y) = 0.24607 0.12890
# Poissons Ratio (z) = 0.02623 0.73908
#
# Static dielectric constant tensor:
#      x y z
#    x 2.211270 0.000000 0.037500 
#    y 0.000000 2.017970 0.000000 
#    z 0.037500 0.000000 1.932020 
# 
# From -- ./inp_files/104072.got.cif
#   From: 2010.05.17/outbox.cif.g08.bks.cpg/sg15_53_cif.got.tgz:104072.got - 2010.06.03 18:47:42.
