data_PCOD9307112
_publ_section_title
;
Structure prediction by ZEFSAII (Michael W. Deem and Ramdas Pophale) SiO2 
 PCOD9307112
Probable space group: C 2/C
;
_chemical_formula_sum "Si O2"
_cell_formula_units_Z 56
_cell_length_a 27.825195
_cell_length_b 17.610794
_cell_length_c 9.161628
_cell_angle_alpha 90.000000
_cell_angle_beta 139.934552
_cell_angle_gamma 90.000000
_cell_volume 2889.667228
_symmetry_space_group_name_H-M "C 2/C"
_symmetry_group_IT_number 15
_symmetry_cell_setting 'monoclinic'
loop_
_space_group_symop_operation_xyz
x,y,z
-x,y,1/2-z
-x,-y,-z
x,-y,1/2+z
1/2+x,1/2+y,z
1/2-x,1/2+y,1/2-z
1/2-x,1/2-y,-z
1/2+x,1/2-y,1/2+z
loop_
_atom_site_type_symbol
_atom_site_label
_atom_site_fract_x
_atom_site_fract_y
_atom_site_fract_z
Si Si1 0.743301 0.331904 0.722356
Si Si2 0.127674 0.764930 0.046582
Si Si3 0.349417 0.447057 0.814986
Si Si4 0.545592 0.365134 0.636169
Si Si5 0.629689 0.800329 0.866736
Si Si6 0.741116 0.600974 0.907100
Si Si7 0.500000 0.264882 0.250000
Si Si8 0.000000 0.018962 0.250000
O O1 0.822493 0.292701 0.934227
O O2 0.699250 0.377576 0.740325
O O3 0.689493 0.264535 0.545422
O O4 0.753268 0.386328 0.607159
O O5 0.105025 0.721997 0.143578
O O6 0.181306 0.835133 0.218278
O O7 0.066187 0.802341 0.802685
O O8 0.383194 0.417204 0.741119
O O9 0.296337 0.519746 0.697736
O O10 0.424999 0.468997 0.080109
O O11 0.521452 0.320739 0.434548
O O12 0.491287 0.425412 0.589329
O O13 0.564581 0.788231 0.832279
O O14 0.679224 0.877161 0.980292
#
# Coordination Sequence:
#
# PCOD9307112 Si02
#       8
#     8   8   8   8   8   8   4   4
#     4   9  19  36  57  80 112 152 192 236 277 331
#     4   9  19  40  58  76 111 155 199 228 276 341
#     4  12  22  34  55  88 123 149 191 232 280 336
#     4  12  24  36  54  83 118 157 187 234 276 343
#     4   9  19  39  59  78 111 154 194 236 279 335
#     4   9  19  36  57  76 113 158 194 229 279 337
#     4  12  23  36  58  86 117 144 194 246 283 326
#     4  12  25  38  52  78 129 168 182 210 285 360
#
# _framework density 19.379393
#
# number of rings (size 3 to 8) (size 9 to 14) (size 15 to 20)
#    0.000    1.714    2.857    4.286    2.000    0.571 
#    0.000    0.000    0.000    0.000    0.000   10.000 
#    0.000    0.000    0.000    0.000    0.000    0.000 
#
# Total GULP energy -156136.916483 kJ/mol
# GULP energy per Si atom -5576.318446 kJ/mol
# Density = 1.933528 g / cm^3
# Si number density = 19.379393 Si / 1000 Ang^3
#
#
#
# Elastic Constant Matrix: (Units=GPa)
#
#
# Indices 1 2 3 4 5 6 
#
# 1 114.2601 30.2067 19.6036 0.0000 11.5006 0.0000
# 2 30.2067 70.5174 22.1171 0.0000 10.6641 0.0000
# 3 19.6036 22.1171 52.9034 0.0000 1.4162 0.0000
# 4 0.0000 0.0000 0.0000 14.9677 0.0000 8.5247
# 5 11.5006 10.6641 1.4162 0.0000 18.2465 0.0000
# 6 0.0000 0.0000 0.0000 8.5247 0.0000 4.6622
#
#
#
# Elastic Compliance Matrix: (Units=1/GPa)
#
#
# Indices 1 2 3 4 5 6 
#
# 1 0.010436 -0.002987 -0.002494 0.000000 -0.004639 0.000000
# 2 -0.002987 0.018808 -0.006526 0.000000 -0.008603 0.000000
# 3 -0.002494 -0.006526 0.022457 0.000000 0.003643 0.000000
# 4 0.000000 0.000000 0.000000 -1.614094 0.000000 2.951347
# 5 -0.004639 -0.008603 0.003643 0.000000 0.062474 0.000000
# 6 0.000000 0.000000 0.000000 2.951347 0.000000 -5.182001
#
#
# Mechanical properties :
#
#
# Convention : Reuss Voigt Hill
#
# Bulk Modulus (GPa) = 36.11701 42.39285 39.25493
# Shear Modulus (GPa) = -0.75203 18.62551 8.93674
#
# Velocity S-wave (km/s) = -0.62362 3.10352 2.14976
# Velocity P-wave (km/s) = 4.26131 5.89620 5.14412
#
# Compressibility (1/GPa) = 0.02768778
#
# Stress axis : x y z
#
# Youngs Moduli (GPa) = 95.81825 53.16855 44.52862
#
# Poissons Ratio (x) = 0.15880 0.11108
# Poissons Ratio (y) = 0.28617 0.29059
# Poissons Ratio (z) = 0.23902 0.34698
#
# Static dielectric constant tensor:
#      x y z
#    x 1.736710 0.000000 -0.007140 
#    y 0.000000 1.682470 0.000000 
#    z -0.007140 0.000000 1.713620 
# 
# From -- ./inp_files/62695.got.cif
#   From: 2010.05.17/outbox.cif.g08.bks.cpg/sg15_32_cif.got.tgz:62695.got - 2010.06.03 18:47:42.
