data_PCOD9307672
_publ_section_title
;
Structure prediction by ZEFSAII (Michael W. Deem and Ramdas Pophale) SiO2 
 PCOD9307672
Probable space group: C 2/C
;
_chemical_formula_sum "Si O2"
_cell_formula_units_Z 32
_cell_length_a 12.863463
_cell_length_b 8.487432
_cell_length_c 21.776263
_cell_angle_alpha 90.000000
_cell_angle_beta 31.278884
_cell_angle_gamma 90.000000
_cell_volume 1234.399495
_symmetry_space_group_name_H-M "C 2/C"
_symmetry_group_IT_number 15
_symmetry_cell_setting 'monoclinic'
loop_
_space_group_symop_operation_xyz
x,y,z
-x,y,1/2-z
-x,-y,-z
x,-y,1/2+z
1/2+x,1/2+y,z
1/2-x,1/2+y,1/2-z
1/2-x,1/2-y,-z
1/2+x,1/2-y,1/2+z
loop_
_atom_site_type_symbol
_atom_site_label
_atom_site_fract_x
_atom_site_fract_y
_atom_site_fract_z
Si Si1 0.750000 0.250000 0.000000
Si Si2 0.144382 0.034070 0.869909
Si Si3 0.000000 0.281485 0.250000
Si Si4 0.774923 0.497025 0.091008
Si Si5 0.612958 0.741666 0.772984
O O1 0.784945 0.410248 0.021918
O O2 0.600717 0.183708 0.134062
O O3 0.211621 0.866854 0.807483
O O4 0.353558 0.116053 0.781806
O O5 0.041111 0.159504 0.874701
O O6 0.000000 0.000000 0.000000
O O7 0.161658 0.161447 0.138890
O O8 0.672751 0.399489 0.198653
O O9 0.000000 0.500000 0.000000
#
# Coordination Sequence:
#
# PCOD9307672 Si02
#       5
#     4   8   4   8   8
#     4  12  24  44  86 100 162 212 264 342 440 476
#     4  12  29  50  81 118 166 220 281 356 428 518
#     4  12  26  50  80 116 166 212 282 342 430 504
#     4  12  26  52  79 119 160 216 283 353 420 522
#     4  12  26  49  75 116 160 208 281 347 423 512
#
# _framework density 25.923535000000001
#
# number of rings (size 3 to 8) (size 9 to 14) (size 15 to 20)
#    0.000    0.000    2.500    7.500    7.000    0.000 
#    0.000    5.000    0.000    0.000    0.000    0.000 
#    0.000    0.000    0.000    0.000    0.000    0.000 
#
# Total GULP energy -89188.449709 kJ/mol
# GULP energy per Si atom -5574.278107 kJ/mol
# Density = 2.586453 g / cm^3
# Si number density = 25.923535 Si / 1000 Ang^3
#
#
#
# Elastic Constant Matrix: (Units=GPa)
#
#
# Indices 1 2 3 4 5 6 
#
# 1 105.3683 36.5166 11.7191 -0.0002 -26.6422 0.0000
# 2 36.5166 114.8303 38.9617 -0.0004 6.7267 0.0001
# 3 11.7191 38.9617 181.4921 -0.0009 2.0250 0.0003
# 4 -0.0002 -0.0004 -0.0009 73.7541 0.0003 0.9691
# 5 -26.6422 6.7267 2.0250 0.0003 49.5150 -0.0001
# 6 0.0000 0.0001 0.0003 0.9691 -0.0001 50.6227
#
#
#
# Elastic Compliance Matrix: (Units=1/GPa)
#
#
# Indices 1 2 3 4 5 6 
#
# 1 0.013006 -0.004604 0.000064 0.000000 0.007621 0.000000
# 2 -0.004604 0.011093 -0.002041 0.000000 -0.003901 0.000000
# 3 0.000064 -0.002041 0.005943 0.000000 0.000068 0.000000
# 4 0.000000 0.000000 0.000000 0.013562 0.000000 -0.000260
# 5 0.007621 -0.003901 0.000068 0.000000 0.024824 0.000000
# 6 0.000000 0.000000 0.000000 -0.000260 0.000000 0.019759
#
#
# Mechanical properties :
#
#
# Convention : Reuss Voigt Hill
#
# Bulk Modulus (GPa) = 59.24058 64.00948 61.62503
# Shear Modulus (GPa) = 46.73948 55.74459 51.24204
#
# Velocity S-wave (km/s) = 4.25075 4.64221 4.45079
# Velocity P-wave (km/s) = 6.85518 7.31292 7.08775
#
# Compressibility (1/GPa) = 0.01688032
#
# Stress axis : x y z
#
# Youngs Moduli (GPa) = 76.88804 90.14305 168.26232
#
# Poissons Ratio (x) = 0.41501 -0.01069
# Poissons Ratio (y) = 0.35399 0.34337
# Poissons Ratio (z) = -0.00488 0.18395
#
# Static dielectric constant tensor:
#      x y z
#    x 4.543750 -0.000010 -1.733840 
#    y -0.000010 2.350320 0.000010 
#    z -1.733840 0.000010 3.255910 
# 
# From -- ./inp_files/272487.got.cif
#   From: 2010.05.17/outbox.cif.g08.bks.cpg/sg15_137_cif.got.tgz:272487.got - 2010.06.03 18:47:42.
