data_PCOD9307241
_publ_section_title
;
Structure prediction by ZEFSAII (Michael W. Deem and Ramdas Pophale) SiO2 
 PCOD9307241
Probable space group: C 2/C
;
_chemical_formula_sum "Si O2"
_cell_formula_units_Z 52
_cell_length_a 20.995984
_cell_length_b 12.482751
_cell_length_c 10.258931
_cell_angle_alpha 90.000000
_cell_angle_beta 49.924884
_cell_angle_gamma 90.000000
_cell_volume 2057.425991
_symmetry_space_group_name_H-M "C 2/C"
_symmetry_group_IT_number 15
_symmetry_cell_setting 'monoclinic'
loop_
_space_group_symop_operation_xyz
x,y,z
-x,y,1/2-z
-x,-y,-z
x,-y,1/2+z
1/2+x,1/2+y,z
1/2-x,1/2+y,1/2-z
1/2-x,1/2-y,-z
1/2+x,1/2-y,1/2+z
loop_
_atom_site_type_symbol
_atom_site_label
_atom_site_fract_x
_atom_site_fract_y
_atom_site_fract_z
Si Si1 0.500000 0.259658 0.250000
Si Si2 0.122934 0.932247 0.648200
Si Si3 0.941400 0.399676 0.602511
Si Si4 0.434978 0.408677 0.483906
Si Si5 0.301851 0.017249 0.459269
Si Si6 0.153451 0.708642 0.479288
Si Si7 0.205290 0.734792 0.916967
O O1 0.526292 0.168911 0.321296
O O2 0.521960 0.358321 0.330060
O O3 0.080199 0.924957 0.845362
O O4 0.205065 0.003834 0.559269
O O5 0.143543 0.810167 0.583924
O O6 0.083301 0.984677 0.571767
O O7 0.927033 0.321221 0.500168
O O8 0.000000 0.500000 0.500000
O O9 0.851972 0.445555 0.766481
O O10 0.379439 0.304712 0.497798
O O11 0.329968 0.900449 0.465639
O O12 0.315438 0.108611 0.551034
O O13 0.230180 0.734532 0.280445
O O14 0.250000 0.750000 0.000000
#
# Coordination Sequence:
#
# PCOD9307241 Si02
#       7
#     4   8   8   8   8   8   8
#     4  12  28  52  72 106 156 206 264 302 384 476
#     4  12  28  48  80 114 156 191 265 323 388 453
#     4  12  28  49  76 107 156 208 257 311 383 460
#     4  12  27  49  75 111 148 209 249 320 384 459
#     4  12  25  45  75 116 149 196 248 325 386 450
#     4  12  27  45  76 114 152 196 255 321 381 458
#     4  12  22  43  75 108 150 194 247 316 390 444
#
# _framework density 25.2743
#
# number of rings (size 3 to 8) (size 9 to 14) (size 15 to 20)
#    0.000    0.000    6.154    2.308    6.462    0.615 
#    0.000    0.000    0.000    0.000    0.000    0.000 
#    0.000    0.000    0.000    0.000    0.000    0.000 
#
# Total GULP energy -145357.651765 kJ/mol
# GULP energy per Si atom -5590.678914 kJ/mol
# Density = 2.521677 g / cm^3
# Si number density = 25.274300 Si / 1000 Ang^3
#
#
#
# Elastic Constant Matrix: (Units=GPa)
#
#
# Indices 1 2 3 4 5 6 
#
# 1 92.4921 31.7507 23.5265 0.0000 16.4100 0.0000
# 2 31.7507 196.0604 59.3264 0.0000 18.1743 0.0000
# 3 23.5265 59.3264 133.0796 0.0000 27.2224 0.0000
# 4 0.0000 0.0000 0.0000 51.0204 0.0000 10.3846
# 5 16.4100 18.1743 27.2224 0.0000 34.3068 0.0000
# 6 0.0000 0.0000 0.0000 10.3846 0.0000 54.4911
#
#
#
# Elastic Compliance Matrix: (Units=1/GPa)
#
#
# Indices 1 2 3 4 5 6 
#
# 1 0.012263 -0.001371 -0.000603 0.000000 -0.004661 0.000000
# 2 -0.001371 0.006094 -0.002325 0.000000 -0.000727 0.000000
# 3 -0.000603 -0.002325 0.009964 0.000000 -0.006386 0.000000
# 4 0.000000 0.000000 0.000000 0.020391 0.000000 -0.003886
# 5 -0.004661 -0.000727 -0.006386 0.000000 0.036830 0.000000
# 6 0.000000 0.000000 0.000000 -0.003886 0.000000 0.019092
#
#
# Mechanical properties :
#
#
# Convention : Reuss Voigt Hill
#
# Bulk Modulus (GPa) = 50.70870 72.31547 61.51209
# Shear Modulus (GPa) = 41.73380 48.43223 45.08301
#
# Velocity S-wave (km/s) = 4.06795 4.38226 4.22803
# Velocity P-wave (km/s) = 6.49393 7.36750 6.94446
#
# Compressibility (1/GPa) = 0.01972048
#
# Stress axis : x y z
#
# Youngs Moduli (GPa) = 81.54739 164.10733 100.36286
#
# Poissons Ratio (x) = 0.22505 0.06054
# Poissons Ratio (y) = 0.11183 0.23338
# Poissons Ratio (z) = 0.04919 0.38161
#
# Static dielectric constant tensor:
#      x y z
#    x 2.099750 0.000000 0.042450 
#    y 0.000000 2.022780 0.000000 
#    z 0.042450 0.000000 1.841150 
# 
# From -- ./inp_files/117936.got.cif
#   From: 2010.05.17/outbox.cif.g08.bks.cpg/sg15_59_cif.got.tgz:117936.got - 2010.06.03 18:47:42.
