data_PCOD9307151
_publ_section_title
;
Structure prediction by ZEFSAII (Michael W. Deem and Ramdas Pophale) SiO2 
 PCOD9307151
Probable space group: C 2/C
;
_chemical_formula_sum "Si O2"
_cell_formula_units_Z 52
_cell_length_a 11.026781
_cell_length_b 18.899230
_cell_length_c 12.117081
_cell_angle_alpha 90.000000
_cell_angle_beta 121.767524
_cell_angle_gamma 90.000000
_cell_volume 2146.878652
_symmetry_space_group_name_H-M "C 2/C"
_symmetry_group_IT_number 15
_symmetry_cell_setting 'monoclinic'
loop_
_space_group_symop_operation_xyz
x,y,z
-x,y,1/2-z
-x,-y,-z
x,-y,1/2+z
1/2+x,1/2+y,z
1/2-x,1/2+y,1/2-z
1/2-x,1/2-y,-z
1/2+x,1/2-y,1/2+z
loop_
_atom_site_type_symbol
_atom_site_label
_atom_site_fract_x
_atom_site_fract_y
_atom_site_fract_z
Si Si1 0.000000 0.742165 0.250000
Si Si2 0.611362 0.157904 0.107985
Si Si3 0.380991 0.355734 0.603311
Si Si4 0.868117 0.518814 0.260869
Si Si5 0.328470 0.114999 0.871772
Si Si6 0.549103 0.350388 0.111417
Si Si7 0.653646 0.521891 0.963194
O O1 0.893374 0.694910 0.273288
O O2 0.052499 0.796463 0.370626
O O3 0.733704 0.176505 0.079416
O O4 0.641612 0.075565 0.147732
O O5 0.452923 0.162083 0.982164
O O6 0.500000 0.338819 0.750000
O O7 0.428751 0.331724 0.504768
O O8 0.371293 0.441749 0.586818
O O9 0.897248 0.441068 0.320246
O O10 0.000000 0.541521 0.250000
O O11 0.729464 0.519655 0.118239
O O12 0.201996 0.152520 0.744792
O O13 0.257044 0.065302 0.930855
O O14 0.485843 0.428920 0.095561
#
# Coordination Sequence:
#
# PCOD9307151 Si02
#       7
#     4   8   8   8   8   8   8
#     4  12  28  54  74 100 148 202 262 282 346 448
#     4  12  26  45  71 106 145 197 244 297 360 432
#     4  12  26  46  73 108 146 182 239 314 379 427
#     4  12  22  39  69 110 146 184 236 305 375 429
#     4  12  23  42  71 112 144 186 238 305 374 428
#     4  12  27  46  74 108 148 197 243 296 364 439
#     4  12  22  42  70 109 150 182 238 301 372 436
#
# _framework density 24.221209000000002
#
# number of rings (size 3 to 8) (size 9 to 14) (size 15 to 20)
#    0.000    0.000    6.923    3.692    0.000    1.231 
#    5.538    0.000    0.000    0.000    0.000    0.000 
#    0.000    0.000    0.000    0.000    0.000    0.000 
#
# Total GULP energy -145537.501688 kJ/mol
# GULP energy per Si atom -5597.596219 kJ/mol
# Density = 2.416608 g / cm^3
# Si number density = 24.221209 Si / 1000 Ang^3
#
#
#
# Elastic Constant Matrix: (Units=GPa)
#
#
# Indices 1 2 3 4 5 6 
#
# 1 140.3517 33.0111 67.5775 0.0000 -34.7084 0.0000
# 2 33.0111 87.7180 24.9886 0.0000 -4.8279 0.0000
# 3 67.5775 24.9886 157.3181 0.0000 -5.2234 0.0000
# 4 0.0000 0.0000 0.0000 25.0212 0.0000 -14.6476
# 5 -34.7084 -4.8279 -5.2234 0.0000 39.4369 0.0000
# 6 0.0000 0.0000 0.0000 -14.6476 0.0000 25.6567
#
#
#
# Elastic Compliance Matrix: (Units=1/GPa)
#
#
# Indices 1 2 3 4 5 6 
#
# 1 0.012475 -0.002840 -0.004575 0.000000 0.010025 0.000000
# 2 -0.002840 0.012645 -0.000824 0.000000 -0.001060 0.000000
# 3 -0.004575 -0.000824 0.008352 0.000000 -0.003021 0.000000
# 4 0.000000 0.000000 0.000000 0.060028 0.000000 0.034270
# 5 0.010025 -0.001060 -0.003021 0.000000 0.033650 0.000000
# 6 0.000000 0.000000 0.000000 0.034270 0.000000 0.058541
#
#
# Mechanical properties :
#
#
# Convention : Reuss Voigt Hill
#
# Bulk Modulus (GPa) = 58.83911 70.72690 64.78300
# Shear Modulus (GPa) = 24.05763 35.34367 29.70065
#
# Velocity S-wave (km/s) = 3.15500 3.82410 3.50555
# Velocity P-wave (km/s) = 6.13328 6.98298 6.57188
#
# Compressibility (1/GPa) = 0.01699550
#
# Stress axis : x y z
#
# Youngs Moduli (GPa) = 80.16171 79.08137 119.72817
#
# Poissons Ratio (x) = 0.22456 0.54772
# Poissons Ratio (y) = 0.22763 0.09865
# Poissons Ratio (z) = 0.36672 0.06516
#
# Static dielectric constant tensor:
#      x y z
#    x 1.943870 0.000000 -0.009860 
#    y 0.000000 1.962290 0.000000 
#    z -0.009860 0.000000 1.911870 
# 
# From -- ./inp_files/89736.got.cif
#   From: 2010.05.17/outbox.cif.g08.bks.cpg/sg15_45_cif.got.tgz:89736.got - 2010.06.03 18:47:42.
