data_PCOD9307662
_publ_section_title
;
Structure prediction by ZEFSAII (Michael W. Deem and Ramdas Pophale) SiO2 
 PCOD9307662
Probable space group: C 2/C
;
_chemical_formula_sum "Si O2"
_cell_formula_units_Z 36
_cell_length_a 8.074897
_cell_length_b 16.885603
_cell_length_c 12.813116
_cell_angle_alpha 90.000000
_cell_angle_beta 96.062025
_cell_angle_gamma 90.000000
_cell_volume 1737.292727
_symmetry_space_group_name_H-M "C 2/C"
_symmetry_group_IT_number 15
_symmetry_cell_setting 'monoclinic'
loop_
_space_group_symop_operation_xyz
x,y,z
-x,y,1/2-z
-x,-y,-z
x,-y,1/2+z
1/2+x,1/2+y,z
1/2-x,1/2+y,1/2-z
1/2-x,1/2-y,-z
1/2+x,1/2-y,1/2+z
loop_
_atom_site_type_symbol
_atom_site_label
_atom_site_fract_x
_atom_site_fract_y
_atom_site_fract_z
Si Si1 0.000000 0.169233 0.250000
Si Si2 0.626631 0.440530 0.570950
Si Si3 0.687561 0.433014 0.224546
Si Si4 0.812350 0.293868 0.106736
Si Si5 0.587740 0.077445 0.559084
O O1 0.956295 0.116714 0.348940
O O2 0.862271 0.228871 0.195906
O O3 0.500000 0.500000 0.500000
O O4 0.735986 0.499572 0.647127
O O5 0.755777 0.397614 0.503613
O O6 0.500000 0.448105 0.250000
O O7 0.688296 0.352160 0.159193
O O8 0.818521 0.438800 0.325956
O O9 0.960507 0.351826 0.076721
O O10 0.750000 0.250000 0.000000
O O11 0.500000 0.000000 0.500000
#
# Coordination Sequence:
#
# PCOD9307662 Si02
#       5
#     4   8   8   8   8
#     4  12  26  46  72 106 146 180 234 302 356 416
#     4  12  24  44  77 107 141 192 245 286 360 439
#     4  12  24  47  74 105 143 192 241 293 356 443
#     4  12  28  48  70 107 151 183 236 308 367 417
#     4  12  26  45  75 105 144 191 243 295 357 438
#
# _framework density 20.721896999999998
#
# number of rings (size 3 to 8) (size 9 to 14) (size 15 to 20)
#    0.000    0.000    7.778    1.333    3.111    2.667 
#    0.000    0.000    0.000    0.000    0.000    0.000 
#    0.000    0.000    0.000    0.000    0.000    0.000 
#
# Total GULP energy -100451.411408 kJ/mol
# GULP energy per Si atom -5580.633967 kJ/mol
# Density = 2.067473 g / cm^3
# Si number density = 20.721897 Si / 1000 Ang^3
#
#
#
# Elastic Constant Matrix: (Units=GPa)
#
#
# Indices 1 2 3 4 5 6 
#
# 1 85.3817 16.1396 29.3995 0.0000 -10.6658 0.0000
# 2 16.1396 79.9806 19.8037 0.0000 -2.7106 0.0000
# 3 29.3995 19.8037 112.8448 0.0000 6.7985 0.0000
# 4 0.0000 0.0000 0.0000 50.1203 0.0000 -2.6809
# 5 -10.6658 -2.7106 6.7985 0.0000 51.3410 0.0000
# 6 0.0000 0.0000 0.0000 -2.6809 0.0000 31.5546
#
#
#
# Elastic Compliance Matrix: (Units=1/GPa)
#
#
# Indices 1 2 3 4 5 6 
#
# 1 0.013630 -0.001793 -0.003429 0.000000 0.003191 0.000000
# 2 -0.001793 0.013358 -0.001912 0.000000 0.000586 0.000000
# 3 -0.003429 -0.001912 0.010221 0.000000 -0.002167 0.000000
# 4 0.000000 0.000000 0.000000 0.020043 0.000000 0.001703
# 5 0.003191 0.000586 -0.002167 0.000000 0.020458 0.000000
# 6 0.000000 0.000000 0.000000 0.001703 0.000000 0.031836
#
#
# Mechanical properties :
#
#
# Convention : Reuss Voigt Hill
#
# Bulk Modulus (GPa) = 43.59021 45.43251 44.51136
# Shear Modulus (GPa) = 38.03360 40.79416 39.41388
#
# Velocity S-wave (km/s) = 4.28884 4.44176 4.36597
# Velocity P-wave (km/s) = 6.75330 6.94825 6.85146
#
# Compressibility (1/GPa) = 0.02294093
#
# Stress axis : x y z
#
# Youngs Moduli (GPa) = 73.36592 74.85980 97.83652
#
# Poissons Ratio (x) = 0.13426 0.33544
# Poissons Ratio (y) = 0.13158 0.18710
# Poissons Ratio (z) = 0.25154 0.14316
#
# Static dielectric constant tensor:
#      x y z
#    x 1.688270 0.000000 -0.069980 
#    y 0.000000 1.779700 0.000000 
#    z -0.069980 0.000000 1.918340 
# 
# From -- ./inp_files/76439.got.cif
#   From: 2010.05.17/outbox.cif.g08.bks.cpg/sg15_39_cif.got.tgz:76439.got - 2010.06.03 18:47:42.
