data_PCOD9307770
_publ_section_title
;
Structure prediction by ZEFSAII (Michael W. Deem and Ramdas Pophale) SiO2 
 PCOD9307770
Probable space group: C 2/C
;
_chemical_formula_sum "Si O2"
_cell_formula_units_Z 40
_cell_length_a 8.975069
_cell_length_b 16.758687
_cell_length_c 14.079693
_cell_angle_alpha 90.000000
_cell_angle_beta 123.291259
_cell_angle_gamma 90.000000
_cell_volume 1770.193239
_symmetry_space_group_name_H-M "C 2/C"
_symmetry_group_IT_number 15
_symmetry_cell_setting 'monoclinic'
loop_
_space_group_symop_operation_xyz
x,y,z
-x,y,1/2-z
-x,-y,-z
x,-y,1/2+z
1/2+x,1/2+y,z
1/2-x,1/2+y,1/2-z
1/2-x,1/2-y,-z
1/2+x,1/2-y,1/2+z
loop_
_atom_site_type_symbol
_atom_site_label
_atom_site_fract_x
_atom_site_fract_y
_atom_site_fract_z
Si Si1 0.000000 0.566750 0.250000
Si Si2 0.927800 0.586669 0.012007
Si Si3 0.473814 0.345820 0.139649
Si Si4 0.390733 0.493477 0.864652
Si Si5 0.157919 0.276613 0.563468
Si Si6 0.000000 0.863995 0.750000
O O1 0.993379 0.604984 0.143015
O O2 0.814554 0.520510 0.185153
O O3 0.030405 0.651630 0.987258
O O4 0.720782 0.612881 0.939209
O O5 0.000000 0.500000 0.000000
O O6 0.500000 0.302835 0.250000
O O7 0.599648 0.423073 0.186137
O O8 0.539105 0.288821 0.077549
O O9 0.474919 0.422961 0.831073
O O10 0.500000 0.500000 0.000000
O O11 0.250000 0.250000 0.500000
O O12 0.323084 0.310784 0.682403
#
# Coordination Sequence:
#
# PCOD9307770 Si02
#       6
#     4   8   8   8   8   4
#     4  12  26  43  85 106 150 194 264 322 388 453
#     4  12  27  52  79 113 151 205 268 317 390 481
#     4  12  27  48  78 112 159 201 256 324 400 470
#     4  12  24  47  78 110 146 203 263 321 388 471
#     4  12  30  47  76 114 160 201 258 326 400 468
#     4  12  26  51  71 110 156 200 258 324 386 479
#
# _framework density 22.596404
#
# number of rings (size 3 to 8) (size 9 to 14) (size 15 to 20)
#    0.000    0.000    5.000    4.200    7.000    0.800 
#    0.000    0.000    0.000    0.000    0.000    0.000 
#    0.000    0.000    0.000    0.000    0.000    0.000 
#
# Total GULP energy -111730.370607 kJ/mol
# GULP energy per Si atom -5586.518530 kJ/mol
# Density = 2.254497 g / cm^3
# Si number density = 22.596404 Si / 1000 Ang^3
#
#
#
# Elastic Constant Matrix: (Units=GPa)
#
#
# Indices 1 2 3 4 5 6 
#
# 1 182.0780 75.4948 48.5076 0.0000 12.1384 0.0000
# 2 75.4948 118.4781 19.5539 0.0000 -5.4916 0.0000
# 3 48.5076 19.5539 120.5341 0.0000 -9.6723 0.0000
# 4 0.0000 0.0000 0.0000 27.5711 0.0000 -25.9803
# 5 12.1384 -5.4916 -9.6723 0.0000 55.5434 0.0000
# 6 0.0000 0.0000 0.0000 -25.9803 0.0000 -13.4885
#
#
#
# Elastic Compliance Matrix: (Units=1/GPa)
#
#
# Indices 1 2 3 4 5 6 
#
# 1 0.008566 -0.005121 -0.002847 0.000000 -0.002874 0.000000
# 2 -0.005121 0.011756 0.000342 0.000000 0.002341 0.000000
# 3 -0.002847 0.000342 0.009573 0.000000 0.002323 0.000000
# 4 0.000000 0.000000 0.000000 0.012885 0.000000 -0.024817
# 5 -0.002874 0.002341 0.002323 0.000000 0.019268 0.000000
# 6 0.000000 0.000000 0.000000 -0.024817 0.000000 -0.026337
#
#
# Mechanical properties :
#
#
# Convention : Reuss Voigt Hill
#
# Bulk Modulus (GPa) = 68.29914 78.68920 73.49417
# Shear Modulus (GPa) = 89.53472 32.42747 60.98110
#
# Velocity S-wave (km/s) = 6.30154 3.79234 5.20054
# Velocity P-wave (km/s) = 9.12344 7.35358 8.28590
#
# Compressibility (1/GPa) = 0.01464147
#
# Stress axis : x y z
#
# Youngs Moduli (GPa) = 116.74441 85.06377 104.45935
#
# Poissons Ratio (x) = 0.43565 0.29739
# Poissons Ratio (y) = 0.59790 -0.03571
# Poissons Ratio (z) = 0.33237 -0.02908
#
# Static dielectric constant tensor:
#      x y z
#    x 2.043180 0.000000 -0.106280 
#    y 0.000000 1.846680 0.000000 
#    z -0.106280 0.000000 1.910320 
# 
# From -- ./inp_files/134639.got.cif
#   From: 2010.05.17/outbox.cif.g08.bks.cpg/sg15_68_cif.got.tgz:134639.got - 2010.06.03 18:47:42.
