data_PCOD9307489
_publ_section_title
;
Structure prediction by ZEFSAII (Michael W. Deem and Ramdas Pophale) SiO2 
 PCOD9307489
Probable space group: C 2/C
;
_chemical_formula_sum "Si O2"
_cell_formula_units_Z 40
_cell_length_a 21.320704
_cell_length_b 9.417225
_cell_length_c 8.313606
_cell_angle_alpha 90.000000
_cell_angle_beta 87.399892
_cell_angle_gamma 90.000000
_cell_volume 1667.502842
_symmetry_space_group_name_H-M "C 2/C"
_symmetry_group_IT_number 15
_symmetry_cell_setting 'monoclinic'
loop_
_space_group_symop_operation_xyz
x,y,z
-x,y,1/2-z
-x,-y,-z
x,-y,1/2+z
1/2+x,1/2+y,z
1/2-x,1/2+y,1/2-z
1/2-x,1/2-y,-z
1/2+x,1/2-y,1/2+z
loop_
_atom_site_type_symbol
_atom_site_label
_atom_site_fract_x
_atom_site_fract_y
_atom_site_fract_z
Si Si1 0.500000 0.247478 0.750000
Si Si2 0.881910 0.092703 0.407080
Si Si3 0.793711 0.688110 0.766621
Si Si4 0.360137 0.960699 0.959647
Si Si5 0.145463 0.807078 0.235058
Si Si6 0.000000 0.500000 0.500000
O O1 0.556508 0.346638 0.685361
O O2 0.479696 0.140937 0.609246
O O3 0.822843 0.163788 0.321803
O O4 0.880339 0.142018 0.591114
O O5 0.876018 0.924294 0.390792
O O6 0.809498 0.574878 0.904641
O O7 0.830235 0.627566 0.608013
O O8 0.720688 0.698427 0.738602
O O9 0.375867 0.847941 0.817022
O O10 0.425615 0.038292 0.982331
#
# Coordination Sequence:
#
# PCOD9307489 Si02
#       6
#     4   8   8   8   8   4
#     4  12  28  48  76 100 144 186 248 298 350 444
#     4  12  26  48  69 106 145 192 244 294 369 425
#     4  12  23  46  74 109 146 191 247 297 360 432
#     4  12  24  44  75 110 141 196 243 300 360 427
#     4  12  27  46  73 107 152 190 236 306 367 433
#     4  12  24  48  72 102 142 184 248 298 346 430
#
# _framework density 23.987966
#
# number of rings (size 3 to 8) (size 9 to 14) (size 15 to 20)
#    0.000    0.000    4.000    6.000    2.800    0.800 
#    0.000    0.000    0.000    0.000    0.000    0.000 
#    0.000    0.000    0.000    0.000    0.000    0.000 
#
# Total GULP energy -111729.704603 kJ/mol
# GULP energy per Si atom -5586.485230 kJ/mol
# Density = 2.393337 g / cm^3
# Si number density = 23.987966 Si / 1000 Ang^3
#
#
#
# Elastic Constant Matrix: (Units=GPa)
#
#
# Indices 1 2 3 4 5 6 
#
# 1 58.4242 7.9659 26.7720 0.0000 -29.4217 0.0000
# 2 7.9659 80.9607 -9.0943 0.0000 -5.3522 0.0000
# 3 26.7720 -9.0943 63.4183 0.0000 -21.7540 0.0000
# 4 0.0000 0.0000 0.0000 34.5034 0.0000 -5.1202
# 5 -29.4217 -5.3522 -21.7540 0.0000 27.3905 0.0000
# 6 0.0000 0.0000 0.0000 -5.1202 0.0000 11.6806
#
#
#
# Elastic Compliance Matrix: (Units=1/GPa)
#
#
# Indices 1 2 3 4 5 6 
#
# 1 0.037829 -0.001592 -0.003252 0.000000 0.037740 0.000000
# 2 -0.001592 0.013215 0.003940 0.000000 0.004001 0.000000
# 3 -0.003252 0.003940 0.023052 0.000000 0.015585 0.000000
# 4 0.000000 0.000000 0.000000 0.030999 0.000000 0.013588
# 5 0.037740 0.004001 0.015585 0.000000 0.090208 0.000000
# 6 0.000000 0.000000 0.000000 0.013588 0.000000 0.091569
#
#
# Mechanical properties :
#
#
# Convention : Reuss Voigt Hill
#
# Bulk Modulus (GPa) = 13.83374 28.23226 21.03300
# Shear Modulus (GPa) = 15.98582 26.52554 21.25568
#
# Velocity S-wave (km/s) = 2.58429 3.32894 2.97997
# Velocity P-wave (km/s) = 3.83200 5.15468 4.54175
#
# Compressibility (1/GPa) = 0.07228704
#
# Stress axis : x y z
#
# Youngs Moduli (GPa) = 26.43470 75.66934 43.37993
#
# Poissons Ratio (x) = 0.12050 0.14107
# Poissons Ratio (y) = 0.04210 -0.17090
# Poissons Ratio (z) = 0.08597 -0.29812
#
# Static dielectric constant tensor:
#      x y z
#    x 1.833150 0.000000 0.021190 
#    y 0.000000 1.946240 0.000000 
#    z 0.021190 0.000000 1.992750 
# 
# From -- ./inp_files/59987.got.cif
#   From: 2010.05.17/outbox.cif.g08.bks.cpg/sg15_30_cif.got.tgz:59987.got - 2010.06.03 18:47:42.
