data_PCOD9307495
_publ_section_title
;
Structure prediction by ZEFSAII (Michael W. Deem and Ramdas Pophale) SiO2 
 PCOD9307495
Probable space group: C 2/C
;
_chemical_formula_sum "Si O2"
_cell_formula_units_Z 44
_cell_length_a 19.231205
_cell_length_b 6.659931
_cell_length_c 16.383070
_cell_angle_alpha 90.000000
_cell_angle_beta 61.846978
_cell_angle_gamma 90.000000
_cell_volume 1850.068162
_symmetry_space_group_name_H-M "C 2/C"
_symmetry_group_IT_number 15
_symmetry_cell_setting 'monoclinic'
loop_
_space_group_symop_operation_xyz
x,y,z
-x,y,1/2-z
-x,-y,-z
x,-y,1/2+z
1/2+x,1/2+y,z
1/2-x,1/2+y,1/2-z
1/2-x,1/2-y,-z
1/2+x,1/2-y,1/2+z
loop_
_atom_site_type_symbol
_atom_site_label
_atom_site_fract_x
_atom_site_fract_y
_atom_site_fract_z
Si Si1 0.932290 0.601417 0.592431
Si Si2 0.500000 0.467163 0.250000
Si Si3 0.350663 0.502079 0.084910
Si Si4 0.924083 0.252797 0.403861
Si Si5 0.699187 0.090455 0.080449
Si Si6 0.118689 0.238670 0.782504
O O1 0.884551 0.771929 0.571016
O O2 0.877983 0.432431 0.661579
O O3 0.000000 0.500000 0.500000
O O4 0.984736 0.683390 0.638219
O O5 0.428158 0.600929 0.325334
O O6 0.469587 0.330279 0.192403
O O7 0.267268 0.468107 0.088549
O O8 0.346109 0.434218 0.180935
O O9 0.407468 0.368993 0.996484
O O10 0.863274 0.437174 0.426180
O O11 0.656623 0.212527 0.175465
O O12 0.750000 0.250000 0.000000
#
# Coordination Sequence:
#
# PCOD9307495 Si02
#       6
#     8   4   8   8   8   8
#     4  12  23  46  75 108 142 188 249 313 371 446
#     4  12  24  46  76 110 150 194 254 318 388 446
#     4  12  27  46  76 107 147 199 250 309 378 460
#     4  12  24  48  75 106 149 196 249 315 379 452
#     4  12  29  48  72 107 156 200 250 310 386 454
#     4  12  27  46  76 107 149 196 251 311 382 459
#
# _framework density 23.782909
#
# number of rings (size 3 to 8) (size 9 to 14) (size 15 to 20)
#    0.000    0.000    3.636    6.545    2.545    0.000 
#    0.000    0.000    0.000    0.000    0.000    0.000 
#    0.000    0.000    0.000    0.000    0.000    0.000 
#
# Total GULP energy -123014.719390 kJ/mol
# GULP energy per Si atom -5591.578154 kJ/mol
# Density = 2.372878 g / cm^3
# Si number density = 23.782909 Si / 1000 Ang^3
#
#
#
# Elastic Constant Matrix: (Units=GPa)
#
#
# Indices 1 2 3 4 5 6 
#
# 1 45.0196 -4.3586 -8.4687 -0.0001 4.8144 -0.0003
# 2 -4.3586 94.8802 60.4954 0.0007 -6.2627 0.0009
# 3 -8.4687 60.4954 121.2785 0.0001 -1.9724 0.0000
# 4 -0.0001 0.0007 0.0001 30.5139 0.0000 11.6546
# 5 4.8144 -6.2627 -1.9724 0.0000 33.0186 0.0000
# 6 -0.0003 0.0009 0.0000 11.6546 0.0000 51.6447
#
#
#
# Elastic Compliance Matrix: (Units=1/GPa)
#
#
# Indices 1 2 3 4 5 6 
#
# 1 0.022852 -0.000220 0.001652 0.000000 -0.003275 0.000000
# 2 -0.000220 0.015662 -0.007786 0.000000 0.002537 0.000000
# 3 0.001652 -0.007786 0.012229 0.000000 -0.000987 0.000000
# 4 0.000000 0.000000 0.000000 0.035863 0.000000 -0.008093
# 5 -0.003275 0.002537 -0.000987 0.000000 0.031186 0.000000
# 6 0.000000 0.000000 0.000000 -0.008093 0.000000 0.021189
#
#
# Mechanical properties :
#
#
# Convention : Reuss Voigt Hill
#
# Bulk Modulus (GPa) = 26.29184 39.61274 32.95229
# Shear Modulus (GPa) = 30.41974 37.26943 33.84458
#
# Velocity S-wave (km/s) = 3.58027 3.96292 3.77644
# Velocity P-wave (km/s) = 5.30755 6.13447 5.73593
#
# Compressibility (1/GPa) = 0.03803461
#
# Stress axis : x y z
#
# Youngs Moduli (GPa) = 43.75931 63.85078 81.77486
#
# Poissons Ratio (x) = 0.01403 -0.13510
# Poissons Ratio (y) = 0.00962 0.63672
# Poissons Ratio (z) = -0.07229 0.49716
#
# Static dielectric constant tensor:
#      x y z
#    x 2.003760 0.000000 -0.004240 
#    y 0.000000 2.132560 0.000000 
#    z -0.004240 0.000000 1.969210 
# 
# From -- ./inp_files/212857.got.cif
#   From: 2010.05.17/outbox.cif.g08.bks.cpg/sg15_107_cif.got.tgz:212857.got - 2010.06.03 18:47:42.
