data_PCOD9307387
_publ_section_title
;
Structure prediction by ZEFSAII (Michael W. Deem and Ramdas Pophale) SiO2 
 PCOD9307387
Probable space group: C 2/C
;
_chemical_formula_sum "Si O2"
_cell_formula_units_Z 48
_cell_length_a 12.018827
_cell_length_b 16.122645
_cell_length_c 19.361795
_cell_angle_alpha 90.000000
_cell_angle_beta 38.095100
_cell_angle_gamma 90.000000
_cell_volume 2314.765686
_symmetry_space_group_name_H-M "C 2/C"
_symmetry_group_IT_number 15
_symmetry_cell_setting 'monoclinic'
loop_
_space_group_symop_operation_xyz
x,y,z
-x,y,1/2-z
-x,-y,-z
x,-y,1/2+z
1/2+x,1/2+y,z
1/2-x,1/2+y,1/2-z
1/2-x,1/2-y,-z
1/2+x,1/2-y,1/2+z
loop_
_atom_site_type_symbol
_atom_site_label
_atom_site_fract_x
_atom_site_fract_y
_atom_site_fract_z
Si Si1 0.678866 0.807476 0.396381
Si Si2 0.984379 0.978910 0.926537
Si Si3 0.661074 0.297933 0.480043
Si Si4 0.000000 0.374919 0.250000
Si Si5 0.863886 0.465763 0.181178
Si Si6 0.500000 0.811627 0.750000
Si Si7 0.156735 0.405892 0.541435
O O1 0.494184 0.757203 0.477557
O O2 0.670057 0.889514 0.353589
O O3 0.843365 0.747287 0.296506
O O4 0.702458 0.835651 0.463746
O O5 0.924694 0.883709 0.951424
O O6 0.174341 0.996128 0.797534
O O7 0.830808 0.037667 0.970050
O O8 0.000000 0.000000 0.000000
O O9 0.750000 0.250000 0.500000
O O10 0.821239 0.321335 0.349502
O O11 0.964799 0.430122 0.199846
O O12 0.996756 0.536844 0.088944
O O13 0.586237 0.867409 0.647630
#
# Coordination Sequence:
#
# PCOD9307387 Si02
#       7
#     8   8   8   4   8   4   8
#     4  12  27  45  68 103 143 174 225 296 352 403
#     4  12  23  42  73  98 132 187 236 276 337 424
#     4  12  25  44  69 107 137 180 228 291 349 409
#     4  12  23  42  72  97 136 176 238 272 341 418
#     4  12  24  44  71  98 135 182 231 281 340 413
#     4  12  27  44  68 101 134 184 222 276 345 416
#     4  12  25  46  68 102 135 179 229 283 342 415
#
# _framework density 20.736440999999999
#
# number of rings (size 3 to 8) (size 9 to 14) (size 15 to 20)
#    0.000    0.000    5.000    5.500    2.333    1.333 
#    0.000    0.000    0.000    0.000    0.000    0.000 
#    0.000    0.000    0.000    0.000    0.000    0.000 
#
# Total GULP energy -134456.539411 kJ/mol
# GULP energy per Si atom -5602.355809 kJ/mol
# Density = 2.068924 g / cm^3
# Si number density = 20.736441 Si / 1000 Ang^3
#
#
#
# Elastic Constant Matrix: (Units=GPa)
#
#
# Indices 1 2 3 4 5 6 
#
# 1 75.6794 35.9760 15.4086 0.0002 -12.2356 -0.0001
# 2 35.9760 99.8280 17.3678 -0.0002 -15.0632 -0.0003
# 3 15.4086 17.3678 79.1623 0.0001 -33.6879 -0.0008
# 4 0.0002 -0.0002 0.0001 29.7960 -0.0003 -6.5220
# 5 -12.2356 -15.0632 -33.6879 -0.0003 45.8462 0.0002
# 6 -0.0001 -0.0003 -0.0008 -6.5220 0.0002 44.3197
#
#
#
# Elastic Compliance Matrix: (Units=1/GPa)
#
#
# Indices 1 2 3 4 5 6 
#
# 1 0.016311 -0.005407 -0.001298 0.000000 0.001623 0.000000
# 2 -0.005407 0.012414 -0.000799 0.000000 0.002048 0.000000
# 3 -0.001298 -0.000799 0.018625 0.000000 0.013077 0.000000
# 4 0.000000 0.000000 0.000000 0.034679 0.000000 0.005103
# 5 0.001623 0.002048 0.013077 0.000000 0.032527 0.000000
# 6 0.000000 0.000000 0.000000 0.005103 0.000000 0.023314
#
#
# Mechanical properties :
#
#
# Convention : Reuss Voigt Hill
#
# Bulk Modulus (GPa) = 30.92096 43.57494 37.24795
# Shear Modulus (GPa) = 30.55121 36.38687 33.46904
#
# Velocity S-wave (km/s) = 3.84254 4.19350 4.02185
# Velocity P-wave (km/s) = 5.88477 6.67132 6.29035
#
# Compressibility (1/GPa) = 0.03234052
#
# Stress axis : x y z
#
# Youngs Moduli (GPa) = 61.30906 80.55356 53.69071
#
# Poissons Ratio (x) = 0.43559 0.06969
# Poissons Ratio (y) = 0.33152 0.04292
# Poissons Ratio (z) = 0.07957 0.06440
#
# Static dielectric constant tensor:
#      x y z
#    x 1.732870 0.000000 -0.015070 
#    y 0.000000 1.754100 0.000000 
#    z -0.015070 0.000000 1.756940 
# 
# From -- ./inp_files/144107.got.cif
#   From: 2010.05.17/outbox.cif.g08.bks.cpg/sg15_73_cif.got.tgz:144107.got - 2010.06.03 18:47:42.
