data_PCOD9307380
_publ_section_title
;
Structure prediction by ZEFSAII (Michael W. Deem and Ramdas Pophale) SiO2 
 PCOD9307380
Probable space group: C 2/C
;
_chemical_formula_sum "Si O2"
_cell_formula_units_Z 48
_cell_length_a 4.810876
_cell_length_b 25.829250
_cell_length_c 17.200093
_cell_angle_alpha 90.000000
_cell_angle_beta 72.069367
_cell_angle_gamma 90.000000
_cell_volume 2033.497151
_symmetry_space_group_name_H-M "C 2/C"
_symmetry_group_IT_number 15
_symmetry_cell_setting 'monoclinic'
loop_
_space_group_symop_operation_xyz
x,y,z
-x,y,1/2-z
-x,-y,-z
x,-y,1/2+z
1/2+x,1/2+y,z
1/2-x,1/2+y,1/2-z
1/2-x,1/2-y,-z
1/2+x,1/2-y,1/2+z
loop_
_atom_site_type_symbol
_atom_site_label
_atom_site_fract_x
_atom_site_fract_y
_atom_site_fract_z
Si Si1 0.184033 0.251329 0.913900
Si Si2 0.228345 0.305510 0.661759
Si Si3 0.978510 0.478036 0.913666
Si Si4 0.766233 0.581114 0.667253
Si Si5 0.034537 0.093063 0.088163
Si Si6 0.352007 0.633713 0.590090
O O1 0.490953 0.269123 0.851514
O O2 0.089828 0.193618 0.899048
O O3 0.935628 0.290220 0.904590
O O4 0.250000 0.250000 0.000000
O O5 0.347666 0.363766 0.647706
O O6 0.000000 0.298184 0.750000
O O7 0.091668 0.524561 0.850476
O O8 0.196442 0.429741 0.887882
O O9 0.662860 0.456120 0.919115
O O10 0.000000 0.500000 0.000000
O O11 0.500000 0.584083 0.750000
O O12 0.609897 0.598240 0.601036
O O13 0.042071 0.618548 0.654052
O O14 0.158483 0.121016 0.000360
#
# Coordination Sequence:
#
# PCOD9307380 Si02
#       6
#     8   8   8   8   8   8
#     4  12  26  45  75 103 136 188 237 279 341 422
#     4  12  28  47  70 107 145 177 229 297 350 404
#     4  12  23  42  70  98 131 178 230 278 338 411
#     4  12  27  43  65 101 139 173 225 289 342 399
#     4  12  24  42  73 100 131 181 230 276 338 415
#     4  12  24  43  71  98 132 180 229 276 338 412
#
# _framework density 23.604655000000001
#
# number of rings (size 3 to 8) (size 9 to 14) (size 15 to 20)
#    0.000    0.000    5.000    5.000    2.333    5.333 
#    0.000    0.000    0.000    0.000    0.000    0.000 
#    0.000    0.000    0.000    0.000    0.000    0.000 
#
# Total GULP energy -134534.061272 kJ/mol
# GULP energy per Si atom -5605.585886 kJ/mol
# Density = 2.355093 g / cm^3
# Si number density = 23.604655 Si / 1000 Ang^3
#
#
#
# Elastic Constant Matrix: (Units=GPa)
#
#
# Indices 1 2 3 4 5 6 
#
# 1 85.1487 6.4684 5.8044 0.0000 -17.8050 0.0000
# 2 6.4684 96.9530 6.6591 0.0000 -14.7709 0.0000
# 3 5.8044 6.6591 48.0932 0.0000 -23.6133 0.0000
# 4 0.0000 0.0000 0.0000 17.2065 0.0000 -16.9052
# 5 -17.8050 -14.7709 -23.6133 0.0000 38.9675 0.0000
# 6 0.0000 0.0000 0.0000 -16.9052 0.0000 46.9090
#
#
#
# Elastic Compliance Matrix: (Units=1/GPa)
#
#
# Indices 1 2 3 4 5 6 
#
# 1 0.013111 0.000089 0.001941 0.000000 0.007200 0.000000
# 2 0.000089 0.010966 0.000757 0.000000 0.004656 0.000000
# 3 0.001941 0.000757 0.029937 0.000000 0.019315 0.000000
# 4 0.000000 0.000000 0.000000 0.089976 0.000000 0.032426
# 5 0.007200 0.004656 0.019315 0.000000 0.042422 0.000000
# 6 0.000000 0.000000 0.000000 0.032426 0.000000 0.033004
#
#
# Mechanical properties :
#
#
# Convention : Reuss Voigt Hill
#
# Bulk Modulus (GPa) = 16.78220 29.78429 23.28324
# Shear Modulus (GPa) = 21.39457 34.70079 28.04768
#
# Velocity S-wave (km/s) = 3.01387 3.83833 3.45081
# Velocity P-wave (km/s) = 4.38592 5.68234 5.07569
#
# Compressibility (1/GPa) = 0.05958694
#
# Stress axis : x y z
#
# Youngs Moduli (GPa) = 76.27343 91.19356 33.40298
#
# Poissons Ratio (x) = -0.00811 -0.06482
# Poissons Ratio (y) = -0.00679 -0.02529
# Poissons Ratio (z) = -0.14802 -0.06903
#
# Static dielectric constant tensor:
#      x y z
#    x 1.846730 0.000000 0.022800 
#    y 0.000000 1.864700 0.000000 
#    z 0.022800 0.000000 1.889470 
# 
# From -- ./inp_files/227802.got.cif
#   From: 2010.05.17/outbox.cif.g08.bks.cpg/sg15_114_cif.got.tgz:227802.got - 2010.06.03 18:47:42.
