data_PCOD9307659
_publ_section_title
;
Structure prediction by ZEFSAII (Michael W. Deem and Ramdas Pophale) SiO2 
 PCOD9307659
Probable space group: C 2/C
;
_chemical_formula_sum "Si O2"
_cell_formula_units_Z 36
_cell_length_a 8.481900
_cell_length_b 11.745243
_cell_length_c 16.299241
_cell_angle_alpha 90.000000
_cell_angle_beta 73.878183
_cell_angle_gamma 90.000000
_cell_volume 1559.905688
_symmetry_space_group_name_H-M "C 2/C"
_symmetry_group_IT_number 15
_symmetry_cell_setting 'monoclinic'
loop_
_space_group_symop_operation_xyz
x,y,z
-x,y,1/2-z
-x,-y,-z
x,-y,1/2+z
1/2+x,1/2+y,z
1/2-x,1/2+y,1/2-z
1/2-x,1/2-y,-z
1/2+x,1/2-y,1/2+z
loop_
_atom_site_type_symbol
_atom_site_label
_atom_site_fract_x
_atom_site_fract_y
_atom_site_fract_z
Si Si1 0.107390 0.228005 0.087411
Si Si2 0.164524 0.944525 0.851636
Si Si3 0.961021 0.475403 0.410995
Si Si4 0.351268 0.183200 0.196097
Si Si5 0.000000 0.113599 0.750000
O O1 0.000331 0.342918 0.108001
O O2 0.202448 0.212697 0.158242
O O3 0.996915 0.116663 0.089336
O O4 0.250000 0.250000 0.000000
O O5 0.275732 0.005242 0.904212
O O6 0.271663 0.844731 0.794995
O O7 0.119572 0.023978 0.779733
O O8 0.000000 0.500000 0.500000
O O9 0.065592 0.567410 0.346500
O O10 0.476434 0.289276 0.181692
#
# Coordination Sequence:
#
# PCOD9307659 Si02
#       5
#     8   8   8   8   4
#     4  12  27  48  72 109 153 194 253 315 382 453
#     4  12  27  46  78 108 146 207 251 311 379 457
#     4  12  27  47  74 111 155 192 248 320 384 450
#     4  12  25  47  74 112 145 196 254 313 376 454
#     4  12  24  44  76 108 144 186 258 302 372 444
#
# _framework density 23.078316999999998
#
# number of rings (size 3 to 8) (size 9 to 14) (size 15 to 20)
#    0.000    0.000    8.889    0.000    3.111    3.556 
#    4.000    0.000    0.000    0.000    0.000    0.000 
#    0.000    0.000    0.000    0.000    0.000    0.000 
#
# Total GULP energy -100280.361338 kJ/mol
# GULP energy per Si atom -5571.131185 kJ/mol
# Density = 2.302579 g / cm^3
# Si number density = 23.078317 Si / 1000 Ang^3
#
#
#
# Elastic Constant Matrix: (Units=GPa)
#
#
# Indices 1 2 3 4 5 6 
#
# 1 114.6677 50.1335 41.6073 0.0000 30.8222 0.0000
# 2 50.1335 135.0471 14.1076 0.0000 -6.3834 0.0000
# 3 41.6073 14.1076 71.6203 0.0000 0.6301 0.0000
# 4 0.0000 0.0000 0.0000 32.6737 0.0000 8.9955
# 5 30.8222 -6.3834 0.6301 0.0000 35.6958 0.0000
# 6 0.0000 0.0000 0.0000 8.9955 0.0000 49.0657
#
#
#
# Elastic Compliance Matrix: (Units=1/GPa)
#
#
# Indices 1 2 3 4 5 6 
#
# 1 0.021141 -0.007660 -0.010602 0.000000 -0.019438 0.000000
# 2 -0.007660 0.010404 0.002326 0.000000 0.008433 0.000000
# 3 -0.010602 0.002326 0.019582 0.000000 0.009225 0.000000
# 4 0.000000 0.000000 0.000000 0.032233 0.000000 -0.005909
# 5 -0.019438 0.008433 0.009225 0.000000 0.046143 0.000000
# 6 0.000000 0.000000 0.000000 -0.005909 0.000000 0.021464
#
#
# Mechanical properties :
#
#
# Convention : Reuss Voigt Hill
#
# Bulk Modulus (GPa) = 51.92994 59.22578 55.57786
# Shear Modulus (GPa) = 26.41898 37.85283 32.13591
#
# Velocity S-wave (km/s) = 3.38709 4.05432 3.73563
# Velocity P-wave (km/s) = 6.15199 6.90184 6.53767
#
# Compressibility (1/GPa) = 0.01925671
#
# Stress axis : x y z
#
# Youngs Moduli (GPa) = 47.30055 96.11795 51.06620
#
# Poissons Ratio (x) = 0.73622 0.54141
# Poissons Ratio (y) = 0.36230 -0.11879
# Poissons Ratio (z) = 0.50149 -0.22359
#
# Static dielectric constant tensor:
#      x y z
#    x 1.919630 0.000000 0.005950 
#    y 0.000000 1.850970 0.000000 
#    z 0.005950 0.000000 1.843430 
# 
# From -- ./inp_files/181686.got.cif
#   From: 2010.05.17/outbox.cif.g08.bks.cpg/sg15_91_cif.got.tgz:181686.got - 2010.06.03 18:47:42.
