data_PCOD9307017
_publ_section_title
;
Structure prediction by ZEFSAII (Michael W. Deem and Ramdas Pophale) SiO2 
 PCOD9307017
Probable space group: C 2/C
;
_chemical_formula_sum "Si O2"
_cell_formula_units_Z 56
_cell_length_a 23.826482
_cell_length_b 13.863720
_cell_length_c 24.470734
_cell_angle_alpha 90.000000
_cell_angle_beta 160.514891
_cell_angle_gamma 90.000000
_cell_volume 2696.268156
_symmetry_space_group_name_H-M "C 2/C"
_symmetry_group_IT_number 15
_symmetry_cell_setting 'monoclinic'
loop_
_space_group_symop_operation_xyz
x,y,z
-x,y,1/2-z
-x,-y,-z
x,-y,1/2+z
1/2+x,1/2+y,z
1/2-x,1/2+y,1/2-z
1/2-x,1/2-y,-z
1/2+x,1/2-y,1/2+z
loop_
_atom_site_type_symbol
_atom_site_label
_atom_site_fract_x
_atom_site_fract_y
_atom_site_fract_z
Si Si1 0.113534 0.222284 0.205459
Si Si2 0.298650 0.637422 0.055327
Si Si3 0.190538 0.446046 0.570737
Si Si4 0.221159 0.891990 0.080835
Si Si5 0.188487 0.896975 0.249247
Si Si6 0.365443 0.291601 0.901820
Si Si7 0.323484 0.983153 0.768420
O O1 0.269270 0.150409 0.358408
O O2 0.146836 0.317446 0.270873
O O3 0.093618 0.236795 0.123041
O O4 0.952628 0.166266 0.079592
O O5 0.500000 0.632927 0.250000
O O6 0.212277 0.588486 0.028529
O O7 0.250000 0.750000 0.000000
O O8 0.243222 0.584012 0.948868
O O9 0.324304 0.527125 0.713141
O O10 0.013077 0.491225 0.425563
O O11 0.212579 0.977710 0.115992
O O12 0.305973 0.807356 0.374168
O O13 0.266863 0.958546 0.270525
O O14 0.021706 0.845772 0.072873
O O15 0.217181 0.371015 0.762400
#
# Coordination Sequence:
#
# PCOD9307017 Si02
#       7
#     8   8   8   8   8   8   8
#     4  12  21  37  63  94 134 172 219 266 324 401
#     4  12  26  42  65  95 134 175 220 270 333 391
#     4  12  26  40  62  94 134 174 223 270 327 398
#     4  12  23  39  61  94 133 175 216 270 329 391
#     4  12  25  42  65  95 136 176 220 271 333 394
#     4  12  24  41  66  98 133 178 217 269 332 399
#     4  12  25  39  66  95 133 173 218 269 332 396
#
# _framework density 20.769447
#
# number of rings (size 3 to 8) (size 9 to 14) (size 15 to 20)
#    0.000    0.000    7.143    3.429    4.000    0.000 
#    0.000    0.000    0.000    0.857    0.000    0.000 
#    0.000    0.000    0.000    0.000    0.000    0.000 
#
# Total GULP energy -156719.022596 kJ/mol
# GULP energy per Si atom -5597.107950 kJ/mol
# Density = 2.072217 g / cm^3
# Si number density = 20.769447 Si / 1000 Ang^3
#
#
#
# Elastic Constant Matrix: (Units=GPa)
#
#
# Indices 1 2 3 4 5 6 
#
# 1 106.9073 41.6134 35.0787 -0.0005 -25.1317 -0.0024
# 2 41.6134 112.9316 25.3902 0.0024 -13.5078 -0.0010
# 3 35.0787 25.3902 92.0593 0.0121 -0.4101 0.0010
# 4 -0.0005 0.0024 0.0121 38.8361 0.0029 -5.2139
# 5 -25.1317 -13.5078 -0.4101 0.0029 37.0490 -0.0002
# 6 -0.0024 -0.0010 0.0010 -5.2139 -0.0002 31.4907
#
#
#
# Elastic Compliance Matrix: (Units=1/GPa)
#
#
# Indices 1 2 3 4 5 6 
#
# 1 0.013984 -0.003169 -0.004417 0.000001 0.008281 0.000001
# 2 -0.003169 0.010611 -0.001711 0.000000 0.001700 0.000000
# 3 -0.004417 -0.001711 0.013002 -0.000004 -0.003477 -0.000001
# 4 0.000001 0.000000 -0.000004 0.026335 -0.000001 0.004360
# 5 0.008281 0.001700 -0.003477 -0.000001 0.033190 0.000001
# 6 0.000001 0.000000 -0.000001 0.004360 0.000001 0.032477
#
#
# Mechanical properties :
#
#
# Convention : Reuss Voigt Hill
#
# Bulk Modulus (GPa) = 52.62878 57.34031 54.98455
# Shear Modulus (GPa) = 32.35654 35.46290 33.90972
#
# Velocity S-wave (km/s) = 3.95130 4.13662 4.04502
# Velocity P-wave (km/s) = 6.79790 7.10517 6.95323
#
# Compressibility (1/GPa) = 0.01900101
#
# Stress axis : x y z
#
# Youngs Moduli (GPa) = 71.51186 94.24404 76.90931
#
# Poissons Ratio (x) = 0.29866 0.33975
# Poissons Ratio (y) = 0.22662 0.13162
# Poissons Ratio (z) = 0.31590 0.16128
#
# Static dielectric constant tensor:
#      x y z
#    x 1.758190 -0.000010 0.021610 
#    y -0.000010 1.751200 -0.000010 
#    z 0.021610 -0.000010 1.882840 
# 
# From -- ./inp_files/282113.got.cif
#   From: 2010.05.17/outbox.cif.g08.bks.cpg/sg15_142_cif.got.tgz:282113.got - 2010.06.03 18:47:42.
