data_PCOD9307499
_publ_section_title
;
Structure prediction by ZEFSAII (Michael W. Deem and Ramdas Pophale) SiO2 
 PCOD9307499
Probable space group: C 2/C
;
_chemical_formula_sum "Si O2"
_cell_formula_units_Z 44
_cell_length_a 8.695477
_cell_length_b 30.389901
_cell_length_c 9.451403
_cell_angle_alpha 90.000000
_cell_angle_beta 53.114588
_cell_angle_gamma 90.000000
_cell_volume 1997.656175
_symmetry_space_group_name_H-M "C 2/C"
_symmetry_group_IT_number 15
_symmetry_cell_setting 'monoclinic'
loop_
_space_group_symop_operation_xyz
x,y,z
-x,y,1/2-z
-x,-y,-z
x,-y,1/2+z
1/2+x,1/2+y,z
1/2-x,1/2+y,1/2-z
1/2-x,1/2-y,-z
1/2+x,1/2-y,1/2+z
loop_
_atom_site_type_symbol
_atom_site_label
_atom_site_fract_x
_atom_site_fract_y
_atom_site_fract_z
Si Si1 0.450051 0.361481 0.024930
Si Si2 0.427253 0.042184 0.453508
Si Si3 0.102581 0.621476 0.540124
Si Si4 0.789206 0.274388 0.331361
Si Si5 0.169621 0.313400 0.766903
Si Si6 0.500000 0.428824 0.250000
O O1 0.327206 0.379345 0.960399
O O2 0.345396 0.315669 0.125120
O O3 0.443994 0.397013 0.151312
O O4 0.666395 0.347552 0.870765
O O5 0.500000 0.041179 0.250000
O O6 0.521683 0.083726 0.482646
O O7 0.194263 0.045619 0.596468
O O8 0.500000 0.000000 0.500000
O O9 0.082819 0.665738 0.457739
O O10 0.000000 0.617658 0.750000
O O11 0.750000 0.250000 0.500000
O O12 0.765734 0.234536 0.234222
O O13 0.000000 0.290480 0.250000
O O14 0.000000 0.309969 0.750000
#
# Coordination Sequence:
#
# PCOD9307499 Si02
#       6
#     8   8   8   8   8   4
#     4  12  26  45  75 105 153 200 259 314 378 446
#     4  12  29  55  83 118 158 193 248 316 385 470
#     4  12  23  46  77 107 145 200 249 311 384 452
#     4  12  24  43  65 102 143 199 259 311 366 436
#     4  12  27  44  69 106 153 203 262 321 378 440
#     4  12  28  50  80 122 150 202 256 312 386 466
#
# _framework density 22.025814
#
# number of rings (size 3 to 8) (size 9 to 14) (size 15 to 20)
#    0.000    0.000    5.455    4.364    1.273    1.455 
#    3.273    0.000    0.000    0.000    0.000    0.000 
#    0.000    0.000    0.000    0.000    0.000    0.000 
#
# Total GULP energy -123006.508049 kJ/mol
# GULP energy per Si atom -5591.204911 kJ/mol
# Density = 2.197568 g / cm^3
# Si number density = 22.025814 Si / 1000 Ang^3
#
#
#
# Elastic Constant Matrix: (Units=GPa)
#
#
# Indices 1 2 3 4 5 6 
#
# 1 170.1329 52.3190 65.9930 0.0000 5.3526 0.0000
# 2 52.3190 115.3436 53.0286 0.0000 0.4546 0.0000
# 3 65.9930 53.0286 152.7479 0.0000 1.0266 0.0000
# 4 0.0000 0.0000 0.0000 26.9451 0.0000 1.1486
# 5 5.3526 0.4546 1.0266 0.0000 43.5403 0.0000
# 6 0.0000 0.0000 0.0000 1.1486 0.0000 47.6532
#
#
#
# Elastic Compliance Matrix: (Units=1/GPa)
#
#
# Indices 1 2 3 4 5 6 
#
# 1 0.007567 -0.002295 -0.002467 0.000000 -0.000848 0.000000
# 2 -0.002295 0.011012 -0.002833 0.000000 0.000234 0.000000
# 3 -0.002467 -0.002833 0.008595 0.000000 0.000130 0.000000
# 4 0.000000 0.000000 0.000000 0.037151 0.000000 -0.000895
# 5 -0.000848 0.000234 0.000130 0.000000 0.023066 0.000000
# 6 0.000000 0.000000 0.000000 -0.000895 0.000000 0.021007
#
#
# Mechanical properties :
#
#
# Convention : Reuss Voigt Hill
#
# Bulk Modulus (GPa) = 83.43949 86.76731 85.10340
# Shear Modulus (GPa) = 39.19034 41.41998 40.30516
#
# Velocity S-wave (km/s) = 4.22274 4.34120 4.28238
# Velocity P-wave (km/s) = 7.85749 8.03785 7.94818
#
# Compressibility (1/GPa) = 0.01198473
#
# Stress axis : x y z
#
# Youngs Moduli (GPa) = 132.15232 90.80754 116.34392
#
# Poissons Ratio (x) = 0.20839 0.28700
# Poissons Ratio (y) = 0.30327 0.32962
# Poissons Ratio (z) = 0.32600 0.25727
#
# Static dielectric constant tensor:
#      x y z
#    x 1.802980 0.000000 -0.087810 
#    y 0.000000 1.803880 0.000000 
#    z -0.087810 0.000000 1.871580 
# 
# From -- ./inp_files/26012.got.cif
#   From: 2010.05.17/outbox.cif.g08.bks.cpg/sg15_14_cif.got.tgz:26012.got - 2010.06.03 18:47:42.
