data_PCOD9307139
_publ_section_title
;
Structure prediction by ZEFSAII (Michael W. Deem and Ramdas Pophale) SiO2 
 PCOD9307139
Probable space group: C 2/C
;
_chemical_formula_sum "Si O2"
_cell_formula_units_Z 64
_cell_length_a 11.240752
_cell_length_b 19.742579
_cell_length_c 16.777738
_cell_angle_alpha 90.000000
_cell_angle_beta 48.945171
_cell_angle_gamma 90.000000
_cell_volume 2807.701280
_symmetry_space_group_name_H-M "C 2/C"
_symmetry_group_IT_number 15
_symmetry_cell_setting 'monoclinic'
loop_
_space_group_symop_operation_xyz
x,y,z
-x,y,1/2-z
-x,-y,-z
x,-y,1/2+z
1/2+x,1/2+y,z
1/2-x,1/2+y,1/2-z
1/2-x,1/2-y,-z
1/2+x,1/2-y,1/2+z
loop_
_atom_site_type_symbol
_atom_site_label
_atom_site_fract_x
_atom_site_fract_y
_atom_site_fract_z
Si Si1 0.901555 0.662241 0.993191
Si Si2 0.875903 0.298434 0.230572
Si Si3 0.229960 0.656375 0.282835
Si Si4 0.104270 0.454471 0.399620
Si Si5 0.875536 0.911947 0.100869
Si Si6 0.422997 0.614554 0.401459
Si Si7 0.332441 0.967058 0.783771
Si Si8 0.886209 0.959463 0.374675
O O1 0.895296 0.646419 0.090020
O O2 0.717196 0.666647 0.056630
O O3 0.017695 0.712989 0.897231
O O4 0.981806 0.597340 0.915047
O O5 0.754473 0.236511 0.275303
O O6 0.761943 0.363832 0.299943
O O7 0.000000 0.294290 0.250000
O O8 0.409994 0.628292 0.214059
O O9 0.181500 0.613099 0.226370
O O10 0.179717 0.501088 0.299480
O O11 0.232005 0.424556 0.404586
O O12 0.000000 0.500000 0.500000
O O13 0.021250 0.921849 0.096289
O O14 0.800383 0.986834 0.116381
O O15 0.935780 0.882913 0.991148
O O16 0.362410 0.538789 0.406433
O O17 0.500000 0.981139 0.750000
O O18 0.000000 0.960830 0.250000
#
# Coordination Sequence:
#
# PCOD9307139 Si02
#       8
#     8   8   8   8   8   8   8   8
#     4  12  23  43  70 100 139 182 236 284 343 417
#     4  12  26  46  70 103 141 189 233 286 347 410
#     4  12  28  43  67 103 138 187 232 287 353 410
#     4  12  22  38  68 103 133 179 227 283 347 408
#     4  12  25  42  69 107 143 181 226 287 355 410
#     4  12  23  40  66 103 142 178 227 291 349 407
#     4  12  24  44  71 104 140 178 230 290 350 412
#     4  12  22  40  65 102 146 177 225 287 344 420
#
# _framework density 22.794449
#
# number of rings (size 3 to 8) (size 9 to 14) (size 15 to 20)
#    0.000    0.000    7.500    3.375    1.750    1.000 
#    0.000    1.875    0.000    1.500    0.000    0.000 
#    0.000    0.000    0.000    0.000    0.000    0.000 
#
# Total GULP energy -178430.134719 kJ/mol
# GULP energy per Si atom -5575.941710 kJ/mol
# Density = 2.274257 g / cm^3
# Si number density = 22.794449 Si / 1000 Ang^3
#
#
#
# Elastic Constant Matrix: (Units=GPa)
#
#
# Indices 1 2 3 4 5 6 
#
# 1 109.2829 6.9544 7.9195 0.0000 -8.5038 0.0000
# 2 6.9544 75.5085 13.3662 0.0000 -2.9965 0.0000
# 3 7.9195 13.3662 129.4620 0.0000 -7.5712 0.0000
# 4 0.0000 0.0000 0.0000 28.0148 0.0000 -8.3097
# 5 -8.5038 -2.9965 -7.5712 0.0000 28.9272 0.0000
# 6 0.0000 0.0000 0.0000 -8.3097 0.0000 25.9613
#
#
#
# Elastic Compliance Matrix: (Units=1/GPa)
#
#
# Indices 1 2 3 4 5 6 
#
# 1 0.009423 -0.000702 -0.000352 0.000000 0.002605 0.000000
# 2 -0.000702 0.013574 -0.001308 0.000000 0.000857 0.000000
# 3 -0.000352 -0.001308 0.007989 0.000000 0.001852 0.000000
# 4 0.000000 0.000000 0.000000 0.039440 0.000000 0.012624
# 5 0.002605 0.000857 0.001852 0.000000 0.035909 0.000000
# 6 0.000000 0.000000 0.000000 0.012624 0.000000 0.042560
#
#
# Mechanical properties :
#
#
# Convention : Reuss Voigt Hill
#
# Bulk Modulus (GPa) = 38.07767 41.19263 39.63515
# Shear Modulus (GPa) = 30.79322 35.64821 33.22071
#
# Velocity S-wave (km/s) = 3.67946 3.95891 3.82174
# Velocity P-wave (km/s) = 5.89850 6.24562 6.07454
#
# Compressibility (1/GPa) = 0.02626211
#
# Stress axis : x y z
#
# Youngs Moduli (GPa) = 106.11793 73.67116 125.16935
#
# Poissons Ratio (x) = 0.05174 0.04401
# Poissons Ratio (y) = 0.07452 0.16376
# Poissons Ratio (z) = 0.03731 0.09639
#
# Static dielectric constant tensor:
#      x y z
#    x 1.478340 0.000000 -0.191020 
#    y 0.000000 2.304160 0.000000 
#    z -0.191020 0.000000 1.821810 
# 
# From -- ./inp_files/200359.got.cif
#   From: 2010.05.17/outbox.cif.g08.bks.cpg/sg15_101_cif.got.tgz:200359.got - 2010.06.03 18:47:42.
