data_PCOD9307896
_publ_section_title
;
Structure prediction by ZEFSAII (Michael W. Deem and Ramdas Pophale) SiO2 
 PCOD9307896
Probable space group: C 2/C
;
_chemical_formula_sum "Si O2"
_cell_formula_units_Z 40
_cell_length_a 10.774448
_cell_length_b 17.110059
_cell_length_c 10.026114
_cell_angle_alpha 90.000000
_cell_angle_beta 75.662177
_cell_angle_gamma 90.000000
_cell_volume 1790.757689
_symmetry_space_group_name_H-M "C 2/C"
_symmetry_group_IT_number 15
_symmetry_cell_setting 'monoclinic'
loop_
_space_group_symop_operation_xyz
x,y,z
-x,y,1/2-z
-x,-y,-z
x,-y,1/2+z
1/2+x,1/2+y,z
1/2-x,1/2+y,1/2-z
1/2-x,1/2-y,-z
1/2+x,1/2-y,1/2+z
loop_
_atom_site_type_symbol
_atom_site_label
_atom_site_fract_x
_atom_site_fract_y
_atom_site_fract_z
Si Si1 0.486514 0.620236 0.403066
Si Si2 0.630933 0.673235 0.792872
Si Si3 0.362535 0.957262 0.824024
Si Si4 0.253859 0.193894 0.374032
Si Si5 0.800213 0.011559 0.876712
O O1 0.500000 0.655401 0.250000
O O2 0.398413 0.654034 0.544969
O O3 0.629275 0.638210 0.416159
O O4 0.429111 0.533329 0.390486
O O5 0.500000 0.695362 0.750000
O O6 0.727903 0.745868 0.752205
O O7 0.676298 0.595566 0.699581
O O8 0.500000 0.991709 0.750000
O O9 0.371431 0.865305 0.851124
O O10 0.270326 0.964473 0.721305
O O11 0.295598 0.990882 0.972797
O O12 0.250000 0.250000 0.500000
#
# Coordination Sequence:
#
# PCOD9307896 Si02
#       5
#     8   8   8   8   8
#     4  12  26  47  74 110 147 188 249 309 361 433
#     4  12  25  43  77 106 148 195 247 296 362 444
#     4  12  26  46  74 106 150 192 245 305 374 437
#     4  12  25  45  71 108 144 196 241 293 373 441
#     4  12  25  47  76 112 141 194 252 305 363 437
#
# _framework density 22.336915999999999
#
# number of rings (size 3 to 8) (size 9 to 14) (size 15 to 20)
#    0.000    0.000    8.000    1.800    0.000    3.200 
#    0.000    1.000    0.000    0.000    0.000    0.000 
#    0.000    0.000    0.000    0.000    0.000    0.000 
#
# Total GULP energy -111579.356992 kJ/mol
# GULP energy per Si atom -5578.967850 kJ/mol
# Density = 2.228608 g / cm^3
# Si number density = 22.336916 Si / 1000 Ang^3
#
#
#
# Elastic Constant Matrix: (Units=GPa)
#
#
# Indices 1 2 3 4 5 6 
#
# 1 65.9833 21.1051 29.0512 0.0000 -19.3518 0.0000
# 2 21.1051 74.0622 40.6986 0.0000 -21.3805 0.0000
# 3 29.0512 40.6986 228.4977 0.0000 -19.0673 0.0000
# 4 0.0000 0.0000 0.0000 37.5955 0.0000 -11.4014
# 5 -19.3518 -21.3805 -19.0673 0.0000 45.1983 0.0000
# 6 0.0000 0.0000 0.0000 -11.4014 0.0000 15.3613
#
#
#
# Elastic Compliance Matrix: (Units=1/GPa)
#
#
# Indices 1 2 3 4 5 6 
#
# 1 0.018392 -0.002771 -0.001344 0.000000 0.005997 0.000000
# 2 -0.002771 0.017254 -0.002217 0.000000 0.006040 0.000000
# 3 -0.001344 -0.002217 0.004982 0.000000 0.000477 0.000000
# 4 0.000000 0.000000 0.000000 0.034325 0.000000 0.025476
# 5 0.005997 0.006040 0.000477 0.000000 0.027751 0.000000
# 6 0.000000 0.000000 0.000000 0.025476 0.000000 0.084008
#
#
# Mechanical properties :
#
#
# Convention : Reuss Voigt Hill
#
# Bulk Modulus (GPa) = 35.76131 61.13924 48.45027
# Shear Modulus (GPa) = 23.95814 38.14358 31.05086
#
# Velocity S-wave (km/s) = 3.27858 4.13685 3.73247
# Velocity P-wave (km/s) = 5.51152 7.08864 6.34924
#
# Compressibility (1/GPa) = 0.02796318
#
# Stress axis : x y z
#
# Youngs Moduli (GPa) = 54.37032 57.95877 200.72177
#
# Poissons Ratio (x) = 0.16062 0.26985
# Poissons Ratio (y) = 0.15067 0.44495
# Poissons Ratio (z) = 0.07310 0.12848
#
# Static dielectric constant tensor:
#      x y z
#    x 1.892860 0.000000 0.001320 
#    y 0.000000 1.872230 0.000000 
#    z 0.001320 0.000000 1.859850 
# 
# From -- ./inp_files/86650.got.cif
#   From: 2010.05.17/outbox.cif.g08.bks.cpg/sg15_44_cif.got.tgz:86650.got - 2010.06.03 18:47:42.
