data_PCOD9307519
_publ_section_title
;
Structure prediction by ZEFSAII (Michael W. Deem and Ramdas Pophale) SiO2 
 PCOD9307519
Probable space group: C 2/C
;
_chemical_formula_sum "Si O2"
_cell_formula_units_Z 36
_cell_length_a 13.496175
_cell_length_b 14.586823
_cell_length_c 20.387652
_cell_angle_alpha 90.000000
_cell_angle_beta 157.242546
_cell_angle_gamma 90.000000
_cell_volume 1552.600859
_symmetry_space_group_name_H-M "C 2/C"
_symmetry_group_IT_number 15
_symmetry_cell_setting 'monoclinic'
loop_
_space_group_symop_operation_xyz
x,y,z
-x,y,1/2-z
-x,-y,-z
x,-y,1/2+z
1/2+x,1/2+y,z
1/2-x,1/2+y,1/2-z
1/2-x,1/2-y,-z
1/2+x,1/2-y,1/2+z
loop_
_atom_site_type_symbol
_atom_site_label
_atom_site_fract_x
_atom_site_fract_y
_atom_site_fract_z
Si Si1 0.000000 0.585929 0.750000
Si Si2 0.451592 0.917927 0.806149
Si Si3 0.556466 0.704283 0.518539
Si Si4 0.600224 0.899190 0.047735
Si Si5 0.067189 0.167505 0.914469
O O1 0.910418 0.522431 0.757415
O O2 0.241878 0.653525 0.904611
O O3 0.217248 0.846204 0.659951
O O4 0.560390 0.901020 0.945537
O O5 0.711244 0.898999 0.923501
O O6 0.548881 0.814334 0.509311
O O7 0.598590 0.691747 0.622815
O O8 0.884540 0.877825 0.248909
O O9 0.500000 0.000000 0.000000
O O10 0.250000 0.250000 0.000000
#
# Coordination Sequence:
#
# PCOD9307519 Si02
#       5
#     4   8   8   8   8
#     4  12  28  46  76 110 156 198 244 312 396 460
#     4  12  25  44  79 107 140 193 257 308 367 456
#     4  12  25  50  74 108 150 199 251 309 383 464
#     4  12  27  46  73 112 150 191 251 315 383 441
#     4  12  23  47  79 109 141 191 259 316 360 441
#
# _framework density 23.186900000000001
#
# number of rings (size 3 to 8) (size 9 to 14) (size 15 to 20)
#    0.000    0.000    6.667    2.667    3.111    0.000 
#    4.000    5.556    0.000    0.000    0.000    0.000 
#    0.000    0.000    0.000    0.000    0.000    0.000 
#
# Total GULP energy -100227.116662 kJ/mol
# GULP energy per Si atom -5568.173148 kJ/mol
# Density = 2.313413 g / cm^3
# Si number density = 23.186900 Si / 1000 Ang^3
#
#
#
# Elastic Constant Matrix: (Units=GPa)
#
#
# Indices 1 2 3 4 5 6 
#
# 1 53.6847 39.2008 39.6335 -0.0110 -10.7325 -0.0014
# 2 39.2008 198.1947 74.3966 0.0330 7.7145 0.0023
# 3 39.6335 74.3966 124.6041 0.0523 -24.0378 0.0075
# 4 -0.0110 0.0330 0.0523 31.1454 -0.0065 15.7199
# 5 -10.7325 7.7145 -24.0378 -0.0065 21.7533 -0.0068
# 6 -0.0014 0.0023 0.0075 15.7199 -0.0068 36.5331
#
#
#
# Elastic Compliance Matrix: (Units=1/GPa)
#
#
# Indices 1 2 3 4 5 6 
#
# 1 0.026679 -0.004155 -0.004044 0.000026 0.010168 -0.000007
# 2 -0.004155 0.008626 -0.006119 -0.000003 -0.011870 -0.000001
# 3 -0.004044 -0.006119 0.016520 -0.000024 0.018430 0.000011
# 4 0.000026 -0.000003 -0.000024 0.041015 -0.000006 -0.017648
# 5 0.010168 -0.011870 0.018430 -0.000006 0.075562 0.000014
# 6 -0.000007 -0.000001 0.000011 -0.017648 0.000014 0.034966
#
#
# Mechanical properties :
#
#
# Convention : Reuss Voigt Hill
#
# Bulk Modulus (GPa) = 43.12020 75.88281 59.50151
# Shear Modulus (GPa) = 20.85641 32.76988 26.81315
#
# Velocity S-wave (km/s) = 3.00241 3.76346 3.40427
# Velocity P-wave (km/s) = 5.53682 7.18905 6.41634
#
# Compressibility (1/GPa) = 0.02319099
#
# Stress axis : x y z
#
# Youngs Moduli (GPa) = 37.48235 115.92636 60.53094
#
# Poissons Ratio (x) = 0.48163 0.24478
# Poissons Ratio (y) = 0.15573 0.37038
# Poissons Ratio (z) = 0.15158 0.70933
#
# Static dielectric constant tensor:
#      x y z
#    x 2.039020 0.000030 0.035790 
#    y 0.000030 2.243220 -0.000040 
#    z 0.035790 -0.000040 1.912700 
# 
# From -- ./inp_files/274418.got.cif
#   From: 2010.05.17/outbox.cif.g08.bks.cpg/sg15_138_cif.got.tgz:274418.got - 2010.06.03 18:47:42.
