data_PCOD9307046
_publ_section_title
;
Structure prediction by ZEFSAII (Michael W. Deem and Ramdas Pophale) SiO2 
 PCOD9307046
Probable space group: C 2/C
;
_chemical_formula_sum "Si O2"
_cell_formula_units_Z 60
_cell_length_a 8.939936
_cell_length_b 22.708577
_cell_length_c 15.210753
_cell_angle_alpha 90.000000
_cell_angle_beta 75.754531
_cell_angle_gamma 90.000000
_cell_volume 2993.029664
_symmetry_space_group_name_H-M "C 2/C"
_symmetry_group_IT_number 15
_symmetry_cell_setting 'monoclinic'
loop_
_space_group_symop_operation_xyz
x,y,z
-x,y,1/2-z
-x,-y,-z
x,-y,1/2+z
1/2+x,1/2+y,z
1/2-x,1/2+y,1/2-z
1/2-x,1/2-y,-z
1/2+x,1/2-y,1/2+z
loop_
_atom_site_type_symbol
_atom_site_label
_atom_site_fract_x
_atom_site_fract_y
_atom_site_fract_z
Si Si1 0.950332 0.756483 0.166468
Si Si2 0.152564 0.318647 0.168681
Si Si3 0.190732 0.862915 0.113735
Si Si4 0.602628 0.047065 0.429733
Si Si5 0.914821 0.978626 0.425269
Si Si6 0.000000 0.478279 0.750000
Si Si7 0.784861 0.933803 0.206197
Si Si8 0.978655 0.676188 0.992961
O O1 0.054361 0.815770 0.143268
O O2 0.000000 0.726572 0.250000
O O3 0.772481 0.775454 0.197440
O O4 0.972719 0.716679 0.078737
O O5 0.239881 0.381074 0.147161
O O6 0.000000 0.326869 0.250000
O O7 0.111290 0.297791 0.077462
O O8 0.157515 0.913988 0.048168
O O9 0.213749 0.900283 0.200276
O O10 0.346600 0.830987 0.065339
O O11 0.584955 0.111163 0.475225
O O12 0.500000 0.000000 0.500000
O O13 0.778213 0.021452 0.410945
O O14 0.538218 0.051799 0.338629
O O15 0.053972 0.964611 0.337854
O O16 0.000000 0.000000 0.500000
O O17 0.149145 0.519551 0.717124
#
# Coordination Sequence:
#
# PCOD9307046 Si02
#       8
#     8   8   8   8   8   4   8   8
#     4  12  25  44  69  99 136 177 228 284 342 409
#     4  12  22  41  71  99 127 171 229 285 336 396
#     4  12  22  44  70 101 129 177 234 281 336 397
#     4  12  25  44  64  99 138 180 228 272 346 420
#     4  12  24  39  65 100 138 168 217 286 334 398
#     4  12  24  38  68  96 136 180 218 278 342 410
#     4  12  21  40  69 100 130 169 229 283 332 395
#     4  12  26  44  67  99 137 180 225 282 344 412
#
# _framework density 20.046579000000001
#
# number of rings (size 3 to 8) (size 9 to 14) (size 15 to 20)
#    0.000    0.000    7.333    3.600    0.933    0.000 
#    0.000    0.000    2.933    0.000    0.000    0.000 
#    0.000    0.000    0.000    0.000    0.000    0.000 
#
# Total GULP energy -167661.024613 kJ/mol
# GULP energy per Si atom -5588.700820 kJ/mol
# Density = 2.000095 g / cm^3
# Si number density = 20.046579 Si / 1000 Ang^3
#
#
#
# Elastic Constant Matrix: (Units=GPa)
#
#
# Indices 1 2 3 4 5 6 
#
# 1 149.8828 28.9254 52.7596 0.0000 -2.8109 0.0000
# 2 28.9254 43.8735 25.1723 0.0000 7.3181 0.0000
# 3 52.7596 25.1723 113.2010 0.0000 28.6648 0.0000
# 4 0.0000 0.0000 0.0000 41.5292 0.0000 -1.4335
# 5 -2.8109 7.3181 28.6648 0.0000 47.8333 0.0000
# 6 0.0000 0.0000 0.0000 -1.4335 0.0000 18.7193
#
#
#
# Elastic Compliance Matrix: (Units=1/GPa)
#
#
# Indices 1 2 3 4 5 6 
#
# 1 0.009027 -0.004146 -0.004221 0.000000 0.003694 0.000000
# 2 -0.004146 0.028045 -0.003720 0.000000 -0.002305 0.000000
# 3 -0.004221 -0.003720 0.013613 0.000000 -0.007836 0.000000
# 4 0.000000 0.000000 0.000000 0.024143 0.000000 0.001849
# 5 0.003694 -0.002305 -0.007836 0.000000 0.026172 0.000000
# 6 0.000000 0.000000 0.000000 0.001849 0.000000 0.053562
#
#
# Mechanical properties :
#
#
# Convention : Reuss Voigt Hill
#
# Bulk Modulus (GPa) = 37.72065 57.85242 47.78653
# Shear Modulus (GPa) = 26.65626 34.95637 30.80632
#
# Velocity S-wave (km/s) = 3.65048 4.18036 3.92438
# Velocity P-wave (km/s) = 6.05189 7.22649 6.66512
#
# Compressibility (1/GPa) = 0.02651067
#
# Stress axis : x y z
#
# Youngs Moduli (GPa) = 110.77891 35.65666 73.46118
#
# Poissons Ratio (x) = 0.14783 0.31006
# Poissons Ratio (y) = 0.45929 0.27331
# Poissons Ratio (z) = 0.46756 0.13266
#
# Static dielectric constant tensor:
#      x y z
#    x 1.752720 0.000000 0.027460 
#    y 0.000000 1.696850 0.000000 
#    z 0.027460 0.000000 1.759300 
# 
# From -- ./inp_files/137345.got.cif
#   From: 2010.05.17/outbox.cif.g08.bks.cpg/sg15_69_cif.got.tgz:137345.got - 2010.06.03 18:47:42.
