data_PCOD9307469
_publ_section_title
;
Structure prediction by ZEFSAII (Michael W. Deem and Ramdas Pophale) SiO2 
 PCOD9307469
Probable space group: C 2/C
;
_chemical_formula_sum "Si O2"
_cell_formula_units_Z 60
_cell_length_a 16.296377
_cell_length_b 11.265728
_cell_length_c 16.673918
_cell_angle_alpha 90.000000
_cell_angle_beta 106.966528
_cell_angle_gamma 90.000000
_cell_volume 2927.937408
_symmetry_space_group_name_H-M "C 2/C"
_symmetry_group_IT_number 15
_symmetry_cell_setting 'monoclinic'
loop_
_space_group_symop_operation_xyz
x,y,z
-x,y,1/2-z
-x,-y,-z
x,-y,1/2+z
1/2+x,1/2+y,z
1/2-x,1/2+y,1/2-z
1/2-x,1/2-y,-z
1/2+x,1/2-y,1/2+z
loop_
_atom_site_type_symbol
_atom_site_label
_atom_site_fract_x
_atom_site_fract_y
_atom_site_fract_z
Si Si1 0.491449 0.626231 0.896689
Si Si2 0.846430 0.478251 0.672287
Si Si3 0.500000 0.804514 0.750000
Si Si4 0.429369 0.752746 0.426047
Si Si5 0.862383 0.967408 0.632736
Si Si6 0.342891 0.530227 0.316534
Si Si7 0.789556 0.377908 0.485588
Si Si8 0.065812 0.276877 0.336660
O O1 0.497052 0.723144 0.827975
O O2 0.552461 0.519816 0.884019
O O3 0.396951 0.571294 0.877820
O O4 0.528853 0.681639 0.987959
O O5 0.757583 0.476895 0.694760
O O6 0.825896 0.438345 0.575662
O O7 0.887518 0.608078 0.683334
O O8 0.915931 0.386189 0.725323
O O9 0.377059 0.656730 0.358327
O O10 0.363943 0.848424 0.443374
O O11 0.505411 0.806394 0.394688
O O12 0.861787 0.987720 0.728067
O O13 0.867481 0.826337 0.622458
O O14 0.783356 0.038183 0.572130
O O15 0.750000 0.250000 0.500000
O O16 0.000000 0.229827 0.250000
#
# Coordination Sequence:
#
# PCOD9307469 Si02
#       8
#     8   8   4   8   8   8   8   8
#     4  12  23  45  75 109 138 184 250 293 354 436
#     4  12  28  48  70 105 146 192 236 303 363 425
#     4  12  24  48  74 100 144 190 242 302 352 432
#     4  12  25  45  76 102 145 194 230 299 369 422
#     4  12  24  44  73 107 143 187 236 298 359 433
#     4  12  25  42  74 107 139 186 241 286 367 425
#     4  12  25  46  74 107 144 183 247 300 348 433
#     4  12  27  49  69 103 151 189 238 302 366 430
#
# _framework density 20.492242000000001
#
# number of rings (size 3 to 8) (size 9 to 14) (size 15 to 20)
#    0.000    0.000    8.667    0.400    3.733    2.133 
#    2.400    0.000    0.000    0.000    0.000    0.000 
#    0.000    0.000    0.000    0.000    0.000    0.000 
#
# Total GULP energy -167979.936994 kJ/mol
# GULP energy per Si atom -5599.331233 kJ/mol
# Density = 2.044560 g / cm^3
# Si number density = 20.492242 Si / 1000 Ang^3
#
#
#
# Elastic Constant Matrix: (Units=GPa)
#
#
# Indices 1 2 3 4 5 6 
#
# 1 91.3949 -1.6133 -2.8127 0.0000 2.0831 0.0000
# 2 -1.6133 56.6629 -18.8758 0.0000 9.2977 0.0000
# 3 -2.8127 -18.8758 61.9803 0.0000 -3.0979 0.0000
# 4 0.0000 0.0000 0.0000 26.8701 0.0000 2.8705
# 5 2.0831 9.2977 -3.0979 0.0000 25.1286 0.0000
# 6 0.0000 0.0000 0.0000 2.8705 0.0000 31.5842
#
#
#
# Elastic Compliance Matrix: (Units=1/GPa)
#
#
# Indices 1 2 3 4 5 6 
#
# 1 0.010999 0.000713 0.000662 0.000000 -0.001094 0.000000
# 2 0.000713 0.020828 0.006024 0.000000 -0.007023 0.000000
# 3 0.000662 0.006024 0.017996 0.000000 -0.000065 0.000000
# 4 0.000000 0.000000 0.000000 0.037581 0.000000 -0.003416
# 5 -0.001094 -0.007023 -0.000065 0.000000 0.042476 0.000000
# 6 0.000000 0.000000 0.000000 -0.003416 0.000000 0.031972
#
#
# Mechanical properties :
#
#
# Convention : Reuss Voigt Hill
#
# Bulk Modulus (GPa) = 15.47485 18.15938 16.81712
# Shear Modulus (GPa) = 29.65703 32.27257 30.96480
#
# Velocity S-wave (km/s) = 3.80838 3.97277 3.89144
# Velocity P-wave (km/s) = 5.18713 5.47034 5.33062
#
# Compressibility (1/GPa) = 0.06462098
#
# Stress axis : x y z
#
# Youngs Moduli (GPa) = 90.91387 48.01289 55.56912
#
# Poissons Ratio (x) = -0.03424 -0.03677
# Poissons Ratio (y) = -0.06483 -0.33477
# Poissons Ratio (z) = -0.06015 -0.28925
#
# Static dielectric constant tensor:
#      x y z
#    x 1.723170 0.000000 0.007810 
#    y 0.000000 1.710840 0.000000 
#    z 0.007810 0.000000 1.726140 
# 
# From -- ./inp_files/204498.got.cif
#   From: 2010.05.17/outbox.cif.g08.bks.cpg/sg15_103_cif.got.tgz:204498.got - 2010.06.03 18:47:42.
