data_PCOD9307454
_publ_section_title
;
Structure prediction by ZEFSAII (Michael W. Deem and Ramdas Pophale) SiO2 
 PCOD9307454
Probable space group: C 2/C
;
_chemical_formula_sum "Si O2"
_cell_formula_units_Z 40
_cell_length_a 17.645061
_cell_length_b 16.083732
_cell_length_c 8.354144
_cell_angle_alpha 90.000000
_cell_angle_beta 132.912102
_cell_angle_gamma 90.000000
_cell_volume 1736.439879
_symmetry_space_group_name_H-M "C 2/C"
_symmetry_group_IT_number 15
_symmetry_cell_setting 'monoclinic'
loop_
_space_group_symop_operation_xyz
x,y,z
-x,y,1/2-z
-x,-y,-z
x,-y,1/2+z
1/2+x,1/2+y,z
1/2-x,1/2+y,1/2-z
1/2-x,1/2-y,-z
1/2+x,1/2-y,1/2+z
loop_
_atom_site_type_symbol
_atom_site_label
_atom_site_fract_x
_atom_site_fract_y
_atom_site_fract_z
Si Si1 0.214380 0.320775 0.317365
Si Si2 0.425261 0.553762 0.284741
Si Si3 0.889200 0.816868 0.004547
Si Si4 0.264004 0.408433 0.077303
Si Si5 0.081881 0.470960 0.249505
O O1 0.250000 0.250000 0.500000
O O2 0.286790 0.365754 0.284012
O O3 0.161676 0.398819 0.324063
O O4 0.130090 0.275214 0.084753
O O5 0.500000 0.582906 0.250000
O O6 0.500000 0.500000 0.500000
O O7 0.385368 0.626165 0.341093
O O8 0.336095 0.486270 0.125636
O O9 0.795615 0.841862 0.988104
O O10 0.000000 0.828206 0.250000
O O11 0.149764 0.449790 0.907736
O O12 0.000000 0.430882 0.250000
O O13 0.000000 0.500000 0.000000
#
# Coordination Sequence:
#
# PCOD9307454 Si02
#       5
#     8   8   8   8   8
#     4  12  30  48  76 112 152 198 260 323 388 450
#     4  12  23  44  76 112 148 196 252 307 383 468
#     4  12  27  45  75 111 153 194 242 324 394 447
#     4  12  25  50  76 105 153 201 257 311 383 462
#     4  12  28  50  79 105 150 212 263 307 376 476
#
# _framework density 23.035637999999999
#
# number of rings (size 3 to 8) (size 9 to 14) (size 15 to 20)
#    0.000    0.000    6.000    3.000    8.400    2.400 
#    0.000    0.000    0.000    0.000    0.000    0.000 
#    0.000    0.000    0.000    0.000    0.000    0.000 
#
# Total GULP energy -111525.056533 kJ/mol
# GULP energy per Si atom -5576.252827 kJ/mol
# Density = 2.298321 g / cm^3
# Si number density = 23.035638 Si / 1000 Ang^3
#
#
#
# Elastic Constant Matrix: (Units=GPa)
#
#
# Indices 1 2 3 4 5 6 
#
# 1 147.4936 34.1302 22.1898 0.0000 -34.6176 0.0000
# 2 34.1302 121.2994 45.2315 0.0000 -10.2568 0.0000
# 3 22.1898 45.2315 83.5496 0.0000 6.6482 0.0000
# 4 0.0000 0.0000 0.0000 50.7015 0.0000 -7.2410
# 5 -34.6176 -10.2568 6.6482 0.0000 37.4821 0.0000
# 6 0.0000 0.0000 0.0000 -7.2410 0.0000 27.0134
#
#
#
# Elastic Compliance Matrix: (Units=1/GPa)
#
#
# Indices 1 2 3 4 5 6 
#
# 1 0.009524 -0.000881 -0.002772 0.000000 0.009047 0.000000
# 2 -0.000881 0.010997 -0.005978 0.000000 0.003256 0.000000
# 3 -0.002772 -0.005978 0.016509 0.000000 -0.007125 0.000000
# 4 0.000000 0.000000 0.000000 0.020508 0.000000 0.005497
# 5 0.009047 0.003256 -0.007125 0.000000 0.037190 0.000000
# 6 0.000000 0.000000 0.000000 0.005497 0.000000 0.038492
#
#
# Mechanical properties :
#
#
# Convention : Reuss Voigt Hill
#
# Bulk Modulus (GPa) = 56.28751 61.71617 59.00184
# Shear Modulus (GPa) = 31.56455 39.75881 35.66168
#
# Velocity S-wave (km/s) = 3.70570 4.15899 3.93887
# Velocity P-wave (km/s) = 6.54199 7.06489 6.80846
#
# Compressibility (1/GPa) = 0.01776593
#
# Stress axis : x y z
#
# Youngs Moduli (GPa) = 104.99395 90.93789 60.57415
#
# Poissons Ratio (x) = 0.08012 0.16794
# Poissons Ratio (y) = 0.09250 0.36213
# Poissons Ratio (z) = 0.29109 0.54365
#
# Static dielectric constant tensor:
#      x y z
#    x 1.892810 0.000000 0.031410 
#    y 0.000000 1.868490 0.000000 
#    z 0.031410 0.000000 1.890730 
# 
# From -- ./inp_files/48802.got.cif
#   From: 2010.05.17/outbox.cif.g08.bks.cpg/sg15_25_cif.got.tgz:48802.got - 2010.06.03 18:47:42.
