data_PCOD9307000
_publ_section_title
;
Structure prediction by ZEFSAII (Michael W. Deem and Ramdas Pophale) SiO2 
 PCOD9307000
Probable space group: C 2/C
;
_chemical_formula_sum "Si O2"
_cell_formula_units_Z 48
_cell_length_a 10.490111
_cell_length_b 11.514999
_cell_length_c 21.029393
_cell_angle_alpha 90.000000
_cell_angle_beta 72.175372
_cell_angle_gamma 90.000000
_cell_volume 2418.280746
_symmetry_space_group_name_H-M "C 2/C"
_symmetry_group_IT_number 15
_symmetry_cell_setting 'monoclinic'
loop_
_space_group_symop_operation_xyz
x,y,z
-x,y,1/2-z
-x,-y,-z
x,-y,1/2+z
1/2+x,1/2+y,z
1/2-x,1/2+y,1/2-z
1/2-x,1/2-y,-z
1/2+x,1/2-y,1/2+z
loop_
_atom_site_type_symbol
_atom_site_label
_atom_site_fract_x
_atom_site_fract_y
_atom_site_fract_z
Si Si1 0.985995 0.784041 0.054180
Si Si2 0.649768 0.667630 0.401999
Si Si3 0.619279 0.947313 0.548293
Si Si4 0.716825 0.399047 0.103291
Si Si5 0.951991 0.110232 0.328519
Si Si6 0.197285 0.309380 0.073208
O O1 0.997974 0.644877 0.064027
O O2 0.092184 0.840723 0.085309
O O3 0.839918 0.837378 0.083806
O O4 0.041933 0.810954 0.974945
O O5 0.772131 0.604221 0.418641
O O6 0.705931 0.794537 0.373329
O O7 0.579394 0.597948 0.356406
O O8 0.687486 0.943609 0.468251
O O9 0.606079 0.080201 0.570541
O O10 0.651997 0.503462 0.151964
O O11 0.878588 0.220580 0.370429
O O12 0.000000 0.128400 0.250000
O O13 0.250000 0.250000 0.000000
#
# Coordination Sequence:
#
# PCOD9307000 Si02
#       6
#     8   8   8   8   8   8
#     4   9  18  34  63  91 107 134 191 246 291 339
#     4   9  18  37  61  86 113 140 189 242 283 344
#     4   9  18  34  63  90 108 138 188 249 292 329
#     4   9  18  37  62  85 108 146 186 241 296 335
#     4  12  25  39  52  81 122 158 190 230 289 354
#     4  12  21  33  56  84 118 153 184 235 297 344
#
# _framework density 19.848811000000001
#
# number of rings (size 3 to 8) (size 9 to 14) (size 15 to 20)
#    0.000    2.000    3.333    3.000    0.000    4.667 
#    6.000    0.000    0.000    0.000    0.000    0.000 
#    0.000    0.000    0.000    0.000    0.000    0.000 
#
# Total GULP energy -133974.724377 kJ/mol
# GULP energy per Si atom -5582.280182 kJ/mol
# Density = 1.980363 g / cm^3
# Si number density = 19.848811 Si / 1000 Ang^3
#
#
#
# Elastic Constant Matrix: (Units=GPa)
#
#
# Indices 1 2 3 4 5 6 
#
# 1 51.5767 -6.2371 1.7029 0.0000 10.0586 0.0000
# 2 -6.2371 102.2312 33.4978 0.0000 -9.2344 0.0000
# 3 1.7029 33.4978 79.8641 0.0000 -6.6067 0.0000
# 4 0.0000 0.0000 0.0000 16.0638 0.0000 -5.4244
# 5 10.0586 -9.2344 -6.6067 0.0000 14.2466 0.0000
# 6 0.0000 0.0000 0.0000 -5.4244 0.0000 29.8925
#
#
#
# Elastic Compliance Matrix: (Units=1/GPa)
#
#
# Indices 1 2 3 4 5 6 
#
# 1 0.022783 0.000573 -0.002107 0.000000 -0.016691 0.000000
# 2 0.000573 0.011761 -0.004521 0.000000 0.005122 0.000000
# 3 -0.002107 -0.004521 0.014915 0.000000 0.005474 0.000000
# 4 0.000000 0.000000 0.000000 0.066315 0.000000 0.012034
# 5 -0.016691 0.005122 0.005474 0.000000 0.087835 0.000000
# 6 0.000000 0.000000 0.000000 0.012034 0.000000 0.035637
#
#
# Mechanical properties :
#
#
# Convention : Reuss Voigt Hill
#
# Bulk Modulus (GPa) = 26.77534 32.39989 29.58761
# Shear Modulus (GPa) = 18.95332 25.68782 22.32057
#
# Velocity S-wave (km/s) = 3.09347 3.60137 3.35704
# Velocity P-wave (km/s) = 5.12624 5.80103 5.47404
#
# Compressibility (1/GPa) = 0.03734780
#
# Stress axis : x y z
#
# Youngs Moduli (GPa) = 43.89328 85.02763 67.04471
#
# Poissons Ratio (x) = -0.04868 0.14124
# Poissons Ratio (y) = -0.02513 0.30314
# Poissons Ratio (z) = 0.09247 0.38444
#
# Static dielectric constant tensor:
#      x y z
#    x 1.801850 0.000000 0.026780 
#    y 0.000000 1.767490 0.000000 
#    z 0.026780 0.000000 1.625830 
# 
# From -- ./inp_files/195984.got.cif
#   From: 2010.05.17/outbox.cif.g08.bks.cpg/sg15_98_cif.got.tgz:195984.got - 2010.06.03 18:47:42.
