data_PCOD9307973
_publ_section_title
;
Structure prediction by ZEFSAII (Michael W. Deem and Ramdas Pophale) SiO2 
 PCOD9307973
Probable space group: C 2/C
;
_chemical_formula_sum "Si O2"
_cell_formula_units_Z 32
_cell_length_a 16.333401
_cell_length_b 9.744446
_cell_length_c 9.507992
_cell_angle_alpha 90.000000
_cell_angle_beta 108.881430
_cell_angle_gamma 90.000000
_cell_volume 1431.861704
_symmetry_space_group_name_H-M "C 2/C"
_symmetry_group_IT_number 15
_symmetry_cell_setting 'monoclinic'
loop_
_space_group_symop_operation_xyz
x,y,z
-x,y,1/2-z
-x,-y,-z
x,-y,1/2+z
1/2+x,1/2+y,z
1/2-x,1/2+y,1/2-z
1/2-x,1/2-y,-z
1/2+x,1/2-y,1/2+z
loop_
_atom_site_type_symbol
_atom_site_label
_atom_site_fract_x
_atom_site_fract_y
_atom_site_fract_z
Si Si1 0.725763 0.463192 0.852643
Si Si2 0.345354 0.993371 0.664572
Si Si3 0.580363 0.737946 0.201511
Si Si4 0.589304 0.691205 0.874880
O O1 0.761348 0.489746 0.717218
O O2 0.666728 0.329428 0.812917
O O3 0.665705 0.587197 0.874330
O O4 0.810238 0.452273 0.996400
O O5 0.383445 0.842561 0.662971
O O6 0.410404 0.099083 0.773357
O O7 0.500000 0.689515 0.250000
O O8 0.575559 0.697833 0.035369
O O9 0.500000 0.651238 0.750000
#
# Coordination Sequence:
#
# PCOD9307973 Si02
#       4
#     8   8   8   8
#     4  12  25  47  74 100 138 182 230 285 341 403
#     4  12  25  47  74 100 138 182 230 285 341 403
#     4  12  28  46  70 104 139 184 229 278 347 408
#     4  12  28  47  68 104 145 177 227 288 339 408
#
# _framework density 22.348528000000002
#
# number of rings (size 3 to 8) (size 9 to 14) (size 15 to 20)
#    0.000    0.000    5.000    4.500    7.000    4.000 
#    0.000    0.000    0.000    0.000    0.000    0.000 
#    0.000    0.000    0.000    0.000    0.000    0.000 
#
# Total GULP energy -89614.602689 kJ/mol
# GULP energy per Si atom -5600.912668 kJ/mol
# Density = 2.229766 g / cm^3
# Si number density = 22.348528 Si / 1000 Ang^3
#
#
#
# Elastic Constant Matrix: (Units=GPa)
#
#
# Indices 1 2 3 4 5 6 
#
# 1 87.6680 16.8847 12.0972 0.0000 -21.4748 0.0000
# 2 16.8847 82.3005 16.2655 0.0000 -22.7731 0.0000
# 3 12.0972 16.2655 77.4751 0.0000 -11.7452 0.0000
# 4 0.0000 0.0000 0.0000 25.1054 0.0000 -1.7450
# 5 -21.4748 -22.7731 -11.7452 0.0000 38.4142 0.0000
# 6 0.0000 0.0000 0.0000 -1.7450 0.0000 18.4925
#
#
#
# Elastic Compliance Matrix: (Units=1/GPa)
#
#
# Indices 1 2 3 4 5 6 
#
# 1 0.013321 -0.000681 -0.000911 0.000000 0.006764 0.000000
# 2 -0.000681 0.014821 -0.001815 0.000000 0.007851 0.000000
# 3 -0.000911 -0.001815 0.013832 0.000000 0.002643 0.000000
# 4 0.000000 0.000000 0.000000 0.040095 0.000000 0.003783
# 5 0.006764 0.007851 0.002643 0.000000 0.035276 0.000000
# 6 0.000000 0.000000 0.000000 0.003783 0.000000 0.054433
#
#
# Mechanical properties :
#
#
# Convention : Reuss Voigt Hill
#
# Bulk Modulus (GPa) = 28.44279 37.54869 32.99574
# Shear Modulus (GPa) = 26.27264 29.88218 28.07741
#
# Velocity S-wave (km/s) = 3.43240 3.66060 3.54834
# Velocity P-wave (km/s) = 5.33508 5.89106 5.61995
#
# Compressibility (1/GPa) = 0.03515830
#
# Stress axis : x y z
#
# Youngs Moduli (GPa) = 75.07202 67.46972 72.29863
#
# Poissons Ratio (x) = 0.04594 0.06590
# Poissons Ratio (y) = 0.05112 0.13123
# Poissons Ratio (z) = 0.06843 0.12247
#
# Static dielectric constant tensor:
#      x y z
#    x 1.871370 0.000000 -0.043450 
#    y 0.000000 1.811770 0.000000 
#    z -0.043450 0.000000 1.818780 
# 
# From -- ./inp_files/36767.got.cif
#   From: 2010.05.17/outbox.cif.g08.bks.cpg/sg15_19_cif.got.tgz:36767.got - 2010.06.03 18:47:42.
