data_PCOD9307520
_publ_section_title
;
Structure prediction by ZEFSAII (Michael W. Deem and Ramdas Pophale) SiO2 
 PCOD9307520
Probable space group: C 2/C
;
_chemical_formula_sum "Si O2"
_cell_formula_units_Z 36
_cell_length_a 16.724937
_cell_length_b 8.725231
_cell_length_c 11.127606
_cell_angle_alpha 90.000000
_cell_angle_beta 66.086089
_cell_angle_gamma 90.000000
_cell_volume 1484.442127
_symmetry_space_group_name_H-M "C 2/C"
_symmetry_group_IT_number 15
_symmetry_cell_setting 'monoclinic'
loop_
_space_group_symop_operation_xyz
x,y,z
-x,y,1/2-z
-x,-y,-z
x,-y,1/2+z
1/2+x,1/2+y,z
1/2-x,1/2+y,1/2-z
1/2-x,1/2-y,-z
1/2+x,1/2-y,1/2+z
loop_
_atom_site_type_symbol
_atom_site_label
_atom_site_fract_x
_atom_site_fract_y
_atom_site_fract_z
Si Si1 0.204622 0.784957 0.784257
Si Si2 0.416880 0.924637 0.981741
Si Si3 0.629635 0.602181 0.865309
Si Si4 0.406634 0.236103 0.872758
Si Si5 0.000000 0.818915 0.250000
O O1 0.304540 0.735292 0.717903
O O2 0.166667 0.794606 0.673122
O O3 0.149882 0.653294 0.885751
O O4 0.183714 0.051871 0.355455
O O5 0.448128 0.793368 0.871546
O O6 0.378515 0.066496 0.931680
O O7 0.500000 0.000000 0.000000
O O8 0.561245 0.582300 0.799297
O O9 0.585302 0.659681 0.014150
O O10 0.500000 0.223766 0.750000
#
# Coordination Sequence:
#
# PCOD9307520 Si02
#       5
#     8   8   8   8   4
#     4  12  29  50  76 112 160 197 258 316 380 452
#     4  12  23  47  80 110 150 206 252 307 383 454
#     4  12  30  49  78 115 154 204 253 318 381 449
#     4  12  25  49  79 111 154 200 253 312 382 453
#     4  12  26  46  78 112 150 198 262 302 382 458
#
# _framework density 24.251535000000001
#
# number of rings (size 3 to 8) (size 9 to 14) (size 15 to 20)
#    0.000    0.000    5.556    2.000    7.778    2.667 
#    0.000    0.000    0.000    0.000    0.000    0.000 
#    0.000    0.000    0.000    0.000    0.000    0.000 
#
# Total GULP energy -101034.868252 kJ/mol
# GULP energy per Si atom -5613.048236 kJ/mol
# Density = 2.419634 g / cm^3
# Si number density = 24.251535 Si / 1000 Ang^3
#
#
#
# Elastic Constant Matrix: (Units=GPa)
#
#
# Indices 1 2 3 4 5 6 
#
# 1 77.9721 10.7314 45.1860 0.0000 1.6331 0.0000
# 2 10.7314 126.5064 36.3292 0.0000 -15.5520 0.0000
# 3 45.1860 36.3292 143.3629 0.0000 -11.1825 0.0000
# 4 0.0000 0.0000 0.0000 -41.2591 0.0000 -1.6616
# 5 1.6331 -15.5520 -11.1825 0.0000 27.0551 0.0000
# 6 0.0000 0.0000 0.0000 -1.6616 0.0000 39.6401
#
#
#
# Elastic Compliance Matrix: (Units=1/GPa)
#
#
# Indices 1 2 3 4 5 6 
#
# 1 0.015953 -0.000256 -0.005218 0.000000 -0.003267 0.000000
# 2 -0.000256 0.009003 -0.001856 0.000000 0.004424 0.000000
# 3 -0.005218 -0.001856 0.009332 0.000000 0.003106 0.000000
# 4 0.000000 0.000000 0.000000 -0.024196 0.000000 -0.001014
# 5 -0.003267 0.004424 0.003106 0.000000 0.040985 0.000000
# 6 0.000000 0.000000 0.000000 -0.001014 0.000000 0.025184
#
#
# Mechanical properties :
#
#
# Convention : Reuss Voigt Hill
#
# Bulk Modulus (GPa) = 50.94662 59.14827 55.04744
# Shear Modulus (GPa) = 51.30075 22.12688 36.71381
#
# Velocity S-wave (km/s) = 4.60430 3.02386 3.89508
# Velocity P-wave (km/s) = 7.02277 6.05261 6.55566
#
# Compressibility (1/GPa) = 0.01962839
#
# Stress axis : x y z
#
# Youngs Moduli (GPa) = 62.68546 111.07161 107.15383
#
# Poissons Ratio (x) = 0.02848 0.55912
# Poissons Ratio (y) = 0.01607 0.19883
# Poissons Ratio (z) = 0.32709 0.20610
#
# Static dielectric constant tensor:
#      x y z
#    x 1.909930 0.000000 0.005390 
#    y 0.000000 1.932090 0.000000 
#    z 0.005390 0.000000 1.896430 
# 
# From -- ./inp_files/38350.got.cif
#   From: 2010.05.17/outbox.cif.g08.bks.cpg/sg15_20_cif.got.tgz:38350.got - 2010.06.03 18:47:42.
