data_PCOD9307269
_publ_section_title
;
Structure prediction by ZEFSAII (Michael W. Deem and Ramdas Pophale) SiO2 
 PCOD9307269
Probable space group: C 2/C
;
_chemical_formula_sum "Si O2"
_cell_formula_units_Z 36
_cell_length_a 20.261682
_cell_length_b 15.788099
_cell_length_c 8.743698
_cell_angle_alpha 90.000000
_cell_angle_beta 37.831541
_cell_angle_gamma 90.000000
_cell_volume 1715.549072
_symmetry_space_group_name_H-M "C 2/C"
_symmetry_group_IT_number 15
_symmetry_cell_setting 'monoclinic'
loop_
_space_group_symop_operation_xyz
x,y,z
-x,y,1/2-z
-x,-y,-z
x,-y,1/2+z
1/2+x,1/2+y,z
1/2-x,1/2+y,1/2-z
1/2-x,1/2-y,-z
1/2+x,1/2-y,1/2+z
loop_
_atom_site_type_symbol
_atom_site_label
_atom_site_fract_x
_atom_site_fract_y
_atom_site_fract_z
Si Si1 0.253328 0.574747 0.740658
Si Si2 0.070279 0.059647 0.480025
Si Si3 0.141848 0.209674 0.132673
Si Si4 0.500000 0.846200 0.250000
Si Si5 0.114409 0.483539 0.208184
O O1 0.334227 0.498257 0.629507
O O2 0.321997 0.660189 0.589192
O O3 0.192280 0.555408 0.693528
O O4 0.166029 0.567017 0.036738
O O5 0.106979 0.137529 0.312581
O O6 0.000000 0.000000 0.500000
O O7 0.000000 0.089771 0.750000
O O8 0.046323 0.277741 0.287064
O O9 0.250000 0.250000 0.000000
O O10 0.595073 0.916000 0.105146
O O11 0.000000 0.500000 0.500000
#
# Coordination Sequence:
#
# PCOD9307269 Si02
#       5
#     8   8   8   4   8
#     4  12  22  44  72  99 133 184 232 276 340 414
#     4  12  23  44  73 101 134 185 234 277 339 425
#     4  12  25  43  66 101 144 173 219 292 349 392
#     4  12  24  44  66 100 144 178 216 302 350 386
#     4  12  24  44  73  98 133 186 240 274 336 424
#
# _framework density 20.984535000000001
#
# number of rings (size 3 to 8) (size 9 to 14) (size 15 to 20)
#    0.000    0.000    8.889    1.333    0.000    0.000 
#    4.000    1.111    0.000    0.000    0.000    0.000 
#    0.000    0.000    0.000    0.000    0.000    0.000 
#
# Total GULP energy -100306.486595 kJ/mol
# GULP energy per Si atom -5572.582589 kJ/mol
# Density = 2.093677 g / cm^3
# Si number density = 20.984535 Si / 1000 Ang^3
#
#
#
# Elastic Constant Matrix: (Units=GPa)
#
#
# Indices 1 2 3 4 5 6 
#
# 1 127.0471 22.9957 1.3634 0.0000 -23.1405 0.0000
# 2 22.9957 100.8961 31.9616 0.0000 -6.4059 0.0000
# 3 1.3634 31.9616 126.5263 0.0000 4.5579 0.0000
# 4 0.0000 0.0000 0.0000 24.5979 0.0000 -2.4919
# 5 -23.1405 -6.4059 4.5579 0.0000 23.9182 0.0000
# 6 0.0000 0.0000 0.0000 -2.4919 0.0000 52.8303
#
#
#
# Elastic Compliance Matrix: (Units=1/GPa)
#
#
# Indices 1 2 3 4 5 6 
#
# 1 0.009822 -0.001659 -0.000013 0.000000 0.009061 0.000000
# 2 -0.001659 0.011340 -0.002918 0.000000 0.001988 0.000000
# 3 -0.000013 -0.002918 0.008729 0.000000 -0.002458 0.000000
# 4 0.000000 0.000000 0.000000 0.040849 0.000000 0.001927
# 5 0.009061 0.001988 -0.002458 0.000000 0.051576 0.000000
# 6 0.000000 0.000000 0.000000 0.001927 0.000000 0.019019
#
#
# Mechanical properties :
#
#
# Convention : Reuss Voigt Hill
#
# Bulk Modulus (GPa) = 48.28562 51.90120 50.09341
# Shear Modulus (GPa) = 31.76211 40.14588 35.95400
#
# Velocity S-wave (km/s) = 3.89472 4.37866 4.14376
# Velocity P-wave (km/s) = 6.57914 7.09580 6.84235
#
# Compressibility (1/GPa) = 0.02071010
#
# Stress axis : x y z
#
# Youngs Moduli (GPa) = 101.81373 88.18338 114.55589
#
# Poissons Ratio (x) = 0.14631 0.00150
# Poissons Ratio (y) = 0.16892 0.33431
# Poissons Ratio (z) = 0.00134 0.25735
#
# Static dielectric constant tensor:
#      x y z
#    x 1.762250 0.000000 -0.007740 
#    y 0.000000 1.741230 0.000000 
#    z -0.007740 0.000000 1.838090 
# 
# From -- ./inp_files/55566.got.cif
#   From: 2010.05.17/outbox.cif.g08.bks.cpg/sg15_28_cif.got.tgz:55566.got - 2010.06.03 18:47:42.
