data_PCOD9307678
_publ_section_title
;
Structure prediction by ZEFSAII (Michael W. Deem and Ramdas Pophale) SiO2 
 PCOD9307678
Probable space group: C 2/C
;
_chemical_formula_sum "Si O2"
_cell_formula_units_Z 36
_cell_length_a 14.795850
_cell_length_b 8.029048
_cell_length_c 22.348847
_cell_angle_alpha 90.000000
_cell_angle_beta 142.691336
_cell_angle_gamma 90.000000
_cell_volume 1609.198432
_symmetry_space_group_name_H-M "C 2/C"
_symmetry_group_IT_number 15
_symmetry_cell_setting 'monoclinic'
loop_
_space_group_symop_operation_xyz
x,y,z
-x,y,1/2-z
-x,-y,-z
x,-y,1/2+z
1/2+x,1/2+y,z
1/2-x,1/2+y,1/2-z
1/2-x,1/2-y,-z
1/2+x,1/2-y,1/2+z
loop_
_atom_site_type_symbol
_atom_site_label
_atom_site_fract_x
_atom_site_fract_y
_atom_site_fract_z
Si Si1 0.000000 0.416211 0.250000
Si Si2 0.368226 0.885806 0.793890
Si Si3 0.129490 0.801854 0.484868
Si Si4 0.385205 0.177304 0.895469
Si Si5 0.704619 0.313253 0.041529
O O1 0.959007 0.527312 0.286765
O O2 0.146641 0.308174 0.340498
O O3 0.468104 0.735347 0.872028
O O4 0.210862 0.822026 0.686922
O O5 0.352236 0.014458 0.839728
O O6 0.250000 0.750000 0.500000
O O7 0.156310 0.687405 0.557067
O O8 0.153984 0.993706 0.514180
O O9 0.561326 0.211529 0.986415
O O10 0.750000 0.250000 0.000000
#
# Coordination Sequence:
#
# PCOD9307678 Si02
#       5
#     4   8   8   8   8
#     4  12  24  48  70  98 150 184 240 302 368 422
#     4  12  25  46  71 107 144 194 242 304 366 433
#     4  12  24  45  71 103 144 187 240 304 362 430
#     4  12  26  45  72 105 145 192 244 298 366 436
#     4  12  25  46  72 104 142 193 237 298 369 434
#
# _framework density 22.371385
#
# number of rings (size 3 to 8) (size 9 to 14) (size 15 to 20)
#    0.000    0.000    6.667    2.667    3.111    0.000 
#    0.000    1.111    0.000    0.000    0.000    0.000 
#    0.000    0.000    0.000    0.000    0.000    0.000 
#
# Total GULP energy -100842.974813 kJ/mol
# GULP energy per Si atom -5602.387490 kJ/mol
# Density = 2.232047 g / cm^3
# Si number density = 22.371385 Si / 1000 Ang^3
#
#
#
# Elastic Constant Matrix: (Units=GPa)
#
#
# Indices 1 2 3 4 5 6 
#
# 1 132.8621 33.3395 54.4691 0.0000 -15.2598 0.0000
# 2 33.3395 55.0350 39.2773 0.0000 1.6438 0.0000
# 3 54.4691 39.2773 181.4384 0.0000 14.5922 0.0000
# 4 0.0000 0.0000 0.0000 48.3987 0.0000 3.0396
# 5 -15.2598 1.6438 14.5922 0.0000 45.1531 0.0000
# 6 0.0000 0.0000 0.0000 3.0396 0.0000 22.8870
#
#
#
# Elastic Compliance Matrix: (Units=1/GPa)
#
#
# Indices 1 2 3 4 5 6 
#
# 1 0.010166 -0.004565 -0.002416 0.000000 0.004383 0.000000
# 2 -0.004565 0.023564 -0.003632 0.000000 -0.001227 0.000000
# 3 -0.002416 -0.003632 0.007267 0.000000 -0.003033 0.000000
# 4 0.000000 0.000000 0.000000 0.020835 0.000000 -0.002767
# 5 0.004383 -0.001227 -0.003033 0.000000 0.024653 0.000000
# 6 0.000000 0.000000 0.000000 -0.002767 0.000000 0.044060
#
#
# Mechanical properties :
#
#
# Convention : Reuss Voigt Hill
#
# Bulk Modulus (GPa) = 50.57894 69.27859 59.92877
# Shear Modulus (GPa) = 31.57302 39.43774 35.50538
#
# Velocity S-wave (km/s) = 3.76082 4.20320 3.98815
# Velocity P-wave (km/s) = 6.44331 7.38855 6.93206
#
# Compressibility (1/GPa) = 0.01977107
#
# Stress axis : x y z
#
# Youngs Moduli (GPa) = 98.36674 42.43684 137.60762
#
# Poissons Ratio (x) = 0.19372 0.33249
# Poissons Ratio (y) = 0.44904 0.49980
# Poissons Ratio (z) = 0.23767 0.15413
#
# Static dielectric constant tensor:
#      x y z
#    x 1.825510 0.000000 -0.003020 
#    y 0.000000 1.830600 0.000000 
#    z -0.003020 0.000000 1.812040 
# 
# From -- ./inp_files/150119.got.cif
#   From: 2010.05.17/outbox.cif.g08.bks.cpg/sg15_76_cif.got.tgz:150119.got - 2010.06.03 18:47:42.
