data_PCOD9307444
_publ_section_title
;
Structure prediction by ZEFSAII (Michael W. Deem and Ramdas Pophale) SiO2 
 PCOD9307444
Probable space group: C 2/C
;
_chemical_formula_sum "Si O2"
_cell_formula_units_Z 44
_cell_length_a 12.016766
_cell_length_b 9.687650
_cell_length_c 23.705366
_cell_angle_alpha 90.000000
_cell_angle_beta 47.367235
_cell_angle_gamma 90.000000
_cell_volume 2030.295742
_symmetry_space_group_name_H-M "C 2/C"
_symmetry_group_IT_number 15
_symmetry_cell_setting 'monoclinic'
loop_
_space_group_symop_operation_xyz
x,y,z
-x,y,1/2-z
-x,-y,-z
x,-y,1/2+z
1/2+x,1/2+y,z
1/2-x,1/2+y,1/2-z
1/2-x,1/2-y,-z
1/2+x,1/2-y,1/2+z
loop_
_atom_site_type_symbol
_atom_site_label
_atom_site_fract_x
_atom_site_fract_y
_atom_site_fract_z
Si Si1 0.654143 0.378392 0.730476
Si Si2 0.656338 0.647736 0.806039
Si Si3 0.250000 0.750000 0.500000
Si Si4 0.673824 0.462728 0.426659
Si Si5 0.176292 0.741792 0.087457
Si Si6 0.677939 0.977863 0.932213
O O1 0.500000 0.350165 0.750000
O O2 0.642035 0.518741 0.769469
O O3 0.703870 0.251075 0.752563
O O4 0.781844 0.400391 0.639222
O O5 0.679370 0.587130 0.860558
O O6 0.502258 0.734885 0.855061
O O7 0.276547 0.656990 0.547828
O O8 0.259755 0.893023 0.535821
O O9 0.500000 0.500000 0.500000
O O10 0.774989 0.598353 0.401648
O O11 0.244030 0.872546 0.097259
O O12 0.250000 0.750000 0.000000
O O13 0.500000 0.000000 0.000000
#
# Coordination Sequence:
#
# PCOD9307444 Si02
#       6
#     8   8   4   8   8   8
#     4  12  29  50  71 107 154 195 247 305 382 453
#     4  12  28  49  72 107 150 203 244 309 381 447
#     4  12  24  42  74 112 144 184 250 308 368 424
#     4  12  25  44  74 111 147 187 246 311 369 444
#     4  12  23  44  74 109 145 184 248 307 366 440
#     4  12  25  46  77 107 145 194 249 311 372 443
#
# _framework density 21.671717999999998
#
# number of rings (size 3 to 8) (size 9 to 14) (size 15 to 20)
#    0.000    0.000    7.273    2.182    2.545    2.909 
#    0.000    0.000    0.000    0.000    0.000    0.000 
#    0.000    0.000    0.000    0.000    0.000    0.000 
#
# Total GULP energy -122710.587326 kJ/mol
# GULP energy per Si atom -5577.753969 kJ/mol
# Density = 2.162239 g / cm^3
# Si number density = 21.671718 Si / 1000 Ang^3
#
#
#
# Elastic Constant Matrix: (Units=GPa)
#
#
# Indices 1 2 3 4 5 6 
#
# 1 128.2867 73.1045 25.1164 0.0000 -11.5087 0.0000
# 2 73.1045 145.6754 5.2722 0.0000 -16.7312 0.0000
# 3 25.1164 5.2722 47.0932 0.0000 -1.5266 0.0000
# 4 0.0000 0.0000 0.0000 33.6115 0.0000 7.6371
# 5 -11.5087 -16.7312 -1.5266 0.0000 27.2389 0.0000
# 6 0.0000 0.0000 0.0000 7.6371 0.0000 47.1015
#
#
#
# Elastic Compliance Matrix: (Units=1/GPa)
#
#
# Indices 1 2 3 4 5 6 
#
# 1 0.012414 -0.005865 -0.005922 0.000000 0.001311 0.000000
# 2 -0.005865 0.010178 0.002115 0.000000 0.003892 0.000000
# 3 -0.005922 0.002115 0.024161 0.000000 0.000151 0.000000
# 4 0.000000 0.000000 0.000000 0.030890 0.000000 -0.005009
# 5 0.001311 0.003892 0.000151 0.000000 0.039665 0.000000
# 6 0.000000 0.000000 0.000000 -0.005009 0.000000 0.022043
#
#
# Mechanical properties :
#
#
# Convention : Reuss Voigt Hill
#
# Bulk Modulus (GPa) = 36.48403 58.67128 47.57765
# Shear Modulus (GPa) = 29.79167 36.09451 32.94309
#
# Velocity S-wave (km/s) = 3.71169 4.08550 3.90307
# Velocity P-wave (km/s) = 5.93635 7.02756 6.50488
#
# Compressibility (1/GPa) = 0.02740925
#
# Stress axis : x y z
#
# Youngs Moduli (GPa) = 80.55294 98.24792 41.38907
#
# Poissons Ratio (x) = 0.57622 0.24510
# Poissons Ratio (y) = 0.47244 -0.08752
# Poissons Ratio (z) = 0.47702 -0.20776
#
# Static dielectric constant tensor:
#      x y z
#    x 1.772590 0.000000 -0.001570 
#    y 0.000000 1.616760 0.000000 
#    z -0.001570 0.000000 1.787530 
# 
# From -- ./inp_files/267963.got.cif
#   From: 2010.05.17/outbox.cif.g08.bks.cpg/sg15_134_cif.got.tgz:267963.got - 2010.06.03 18:47:42.
