data_PCOD9307165
_publ_section_title
;
Structure prediction by ZEFSAII (Michael W. Deem and Ramdas Pophale) SiO2 
 PCOD9307165
Probable space group: C 2/C
;
_chemical_formula_sum "Si O2"
_cell_formula_units_Z 36
_cell_length_a 23.113583
_cell_length_b 6.987836
_cell_length_c 9.677393
_cell_angle_alpha 90.000000
_cell_angle_beta 84.829593
_cell_angle_gamma 90.000000
_cell_volume 1556.673886
_symmetry_space_group_name_H-M "C 2/C"
_symmetry_group_IT_number 15
_symmetry_cell_setting 'monoclinic'
loop_
_space_group_symop_operation_xyz
x,y,z
-x,y,1/2-z
-x,-y,-z
x,-y,1/2+z
1/2+x,1/2+y,z
1/2-x,1/2+y,1/2-z
1/2-x,1/2-y,-z
1/2+x,1/2-y,1/2+z
loop_
_atom_site_type_symbol
_atom_site_label
_atom_site_fract_x
_atom_site_fract_y
_atom_site_fract_z
Si Si1 0.645869 0.036130 0.300024
Si Si2 0.541562 0.154774 0.924431
Si Si3 0.184741 0.729560 0.566999
Si Si4 0.116702 0.124535 0.630652
Si Si5 0.000000 0.034319 0.250000
O O1 0.655369 0.093909 0.456943
O O2 0.654705 0.229199 0.211101
O O3 0.580037 0.954823 0.301506
O O4 0.683252 0.872869 0.216967
O O5 0.501045 0.323668 0.878789
O O6 0.589287 0.261895 0.007912
O O7 0.500000 0.000000 0.000000
O O8 0.250000 0.750000 0.500000
O O9 0.150776 0.931484 0.584720
O O10 0.059714 0.078089 0.734632
#
# Coordination Sequence:
#
# PCOD9307165 Si02
#       5
#     8   8   8   8   4
#     4  12  26  51  72 110 152 188 253 311 370 450
#     4  12  23  43  72 109 149 197 240 305 372 448
#     4  12  30  49  79 107 146 203 252 316 377 443
#     4  12  25  46  72 109 150 192 252 300 386 446
#     4  12  22  40  70 102 146 192 236 296 372 448
#
# _framework density 23.126232999999999
#
# number of rings (size 3 to 8) (size 9 to 14) (size 15 to 20)
#    0.000    0.000    4.444    6.000    3.111    0.889 
#    0.000    0.000    0.000    0.000    0.000    0.000 
#    0.000    0.000    0.000    0.000    0.000    0.000 
#
# Total GULP energy -100695.998662 kJ/mol
# GULP energy per Si atom -5594.222148 kJ/mol
# Density = 2.307360 g / cm^3
# Si number density = 23.126233 Si / 1000 Ang^3
#
#
#
# Elastic Constant Matrix: (Units=GPa)
#
#
# Indices 1 2 3 4 5 6 
#
# 1 74.0572 37.5686 -1.3101 0.0000 -34.9030 0.0000
# 2 37.5686 148.4450 38.2642 0.0000 -14.9813 0.0000
# 3 -1.3101 38.2642 56.0224 0.0000 -13.0640 0.0000
# 4 0.0000 0.0000 0.0000 46.5638 0.0000 -13.2741
# 5 -34.9030 -14.9813 -13.0640 0.0000 50.4564 0.0000
# 6 0.0000 0.0000 0.0000 -13.2741 0.0000 13.5951
#
#
#
# Elastic Compliance Matrix: (Units=1/GPa)
#
#
# Indices 1 2 3 4 5 6 
#
# 1 0.026050 -0.007280 0.009876 0.000000 0.018416 0.000000
# 2 -0.007280 0.010262 -0.008135 0.000000 -0.004095 0.000000
# 3 0.009876 -0.008135 0.026252 0.000000 0.011213 0.000000
# 4 0.000000 0.000000 0.000000 0.029759 0.000000 0.029056
# 5 0.018416 -0.004095 0.011213 0.000000 0.034245 0.000000
# 6 0.000000 0.000000 0.000000 0.029056 0.000000 0.101926
#
#
# Mechanical properties :
#
#
# Convention : Reuss Voigt Hill
#
# Bulk Modulus (GPa) = 19.42236 47.50777 33.46506
# Shear Modulus (GPa) = 19.47534 35.72317 27.59926
#
# Velocity S-wave (km/s) = 2.90510 3.93454 3.45834
# Velocity P-wave (km/s) = 4.43502 6.42092 5.51804
#
# Compressibility (1/GPa) = 0.05148706
#
# Stress axis : x y z
#
# Youngs Moduli (GPa) = 38.38765 97.44242 38.09256
#
# Poissons Ratio (x) = 0.70937 -0.37620
# Poissons Ratio (y) = 0.27946 0.30987
# Poissons Ratio (z) = -0.37911 0.79265
#
# Static dielectric constant tensor:
#      x y z
#    x 1.870330 0.000000 0.029170 
#    y 0.000000 1.924110 0.000000 
#    z 0.029170 0.000000 1.975370 
# 
# From -- ./inp_files/59779.got.cif
#   From: 2010.05.17/outbox.cif.g08.bks.cpg/sg15_30_cif.got.tgz:59779.got - 2010.06.03 18:47:42.
