data_PCOD9307474
_publ_section_title
;
Structure prediction by ZEFSAII (Michael W. Deem and Ramdas Pophale) SiO2 
 PCOD9307474
Probable space group: C 2/C
;
_chemical_formula_sum "Si O2"
_cell_formula_units_Z 52
_cell_length_a 9.047115
_cell_length_b 17.133483
_cell_length_c 16.614056
_cell_angle_alpha 90.000000
_cell_angle_beta 112.012741
_cell_angle_gamma 90.000000
_cell_volume 2387.581845
_symmetry_space_group_name_H-M "C 2/C"
_symmetry_group_IT_number 15
_symmetry_cell_setting 'monoclinic'
loop_
_space_group_symop_operation_xyz
x,y,z
-x,y,1/2-z
-x,-y,-z
x,-y,1/2+z
1/2+x,1/2+y,z
1/2-x,1/2+y,1/2-z
1/2-x,1/2-y,-z
1/2+x,1/2-y,1/2+z
loop_
_atom_site_type_symbol
_atom_site_label
_atom_site_fract_x
_atom_site_fract_y
_atom_site_fract_z
Si Si1 0.609913 0.698821 0.433167
Si Si2 0.116890 0.216836 0.910036
Si Si3 0.904053 0.078531 0.494132
Si Si4 0.332911 0.157993 0.348105
Si Si5 0.454127 0.014771 0.087411
Si Si6 0.000000 0.400699 0.250000
Si Si7 0.177724 0.273368 0.204860
O O1 0.750000 0.750000 0.500000
O O2 0.487383 0.644360 0.455730
O O3 0.712835 0.644277 0.396516
O O4 0.496162 0.761171 0.367714
O O5 0.192223 0.218535 0.837454
O O6 0.964158 0.273097 0.888463
O O7 0.250000 0.250000 0.000000
O O8 0.083353 0.126054 0.920252
O O9 0.720013 0.054934 0.445684
O O10 0.000000 0.000000 0.500000
O O11 0.425492 0.079305 0.353499
O O12 0.222477 0.193103 0.257071
O O13 0.463920 0.947318 0.158469
O O14 0.500000 0.000000 0.000000
O O15 0.847341 0.345890 0.240688
#
# Coordination Sequence:
#
# PCOD9307474 Si02
#       7
#     8   8   8   8   8   4   8
#     4  12  24  45  77 107 148 200 263 318 383 477
#     4  12  23  45  76 105 142 197 260 313 382 477
#     4  12  27  44  76 113 151 196 262 319 399 471
#     4  12  25  45  75 109 148 199 258 319 392 471
#     4  12  29  50  78 113 163 209 260 335 414 479
#     4  12  30  48  76 110 160 194 264 330 412 462
#     4  12  26  47  74 110 146 201 263 323 388 476
#
# _framework density 21.779357000000001
#
# number of rings (size 3 to 8) (size 9 to 14) (size 15 to 20)
#    0.000    0.000    6.154    2.308   10.769    0.000 
#    0.000    0.000    0.000    0.000    0.000    0.000 
#    0.000    0.000    0.000    0.000    0.000    0.000 
#
# Total GULP energy -145066.533399 kJ/mol
# GULP energy per Si atom -5579.482054 kJ/mol
# Density = 2.172979 g / cm^3
# Si number density = 21.779357 Si / 1000 Ang^3
#
#
#
# Elastic Constant Matrix: (Units=GPa)
#
#
# Indices 1 2 3 4 5 6 
#
# 1 155.7003 36.0766 38.2805 0.0000 -7.0215 0.0000
# 2 36.0766 118.0971 32.4969 0.0000 -10.9125 0.0000
# 3 38.2805 32.4969 80.5776 0.0000 -1.0564 0.0000
# 4 0.0000 0.0000 0.0000 28.7270 0.0000 6.4008
# 5 -7.0215 -10.9125 -1.0564 0.0000 30.9811 0.0000
# 6 0.0000 0.0000 0.0000 6.4008 0.0000 45.0255
#
#
#
# Elastic Compliance Matrix: (Units=1/GPa)
#
#
# Indices 1 2 3 4 5 6 
#
# 1 0.007531 -0.001368 -0.003011 0.000000 0.001122 0.000000
# 2 -0.001368 0.010107 -0.003385 0.000000 0.003134 0.000000
# 3 -0.003011 -0.003385 0.015188 0.000000 -0.001357 0.000000
# 4 0.000000 0.000000 0.000000 0.035949 0.000000 -0.005110
# 5 0.001122 0.003134 -0.001357 0.000000 0.033590 0.000000
# 6 0.000000 0.000000 0.000000 -0.005110 0.000000 0.022936
#
#
# Mechanical properties :
#
#
# Convention : Reuss Voigt Hill
#
# Bulk Modulus (GPa) = 57.81340 63.12034 60.46687
# Shear Modulus (GPa) = 34.10771 37.44813 35.77792
#
# Velocity S-wave (km/s) = 3.96164 4.15110 4.05748
# Velocity P-wave (km/s) = 6.89411 7.21250 7.05510
#
# Compressibility (1/GPa) = 0.01729703
#
# Stress axis : x y z
#
# Youngs Moduli (GPa) = 132.79296 98.94503 65.84045
#
# Poissons Ratio (x) = 0.13538 0.19825
# Poissons Ratio (y) = 0.18169 0.22286
# Poissons Ratio (z) = 0.39985 0.33492
#
# Static dielectric constant tensor:
#      x y z
#    x 1.821140 0.000000 -0.035460 
#    y 0.000000 1.957090 0.000000 
#    z -0.035460 0.000000 1.879560 
# 
# From -- ./inp_files/191146.got.cif
#   From: 2010.05.17/outbox.cif.g08.bks.cpg/sg15_96_cif.got.tgz:191146.got - 2010.06.03 18:47:42.
