data_PCOD9307244
_publ_section_title
;
Structure prediction by ZEFSAII (Michael W. Deem and Ramdas Pophale) SiO2 
 PCOD9307244
Probable space group: C 2/C
;
_chemical_formula_sum "Si O2"
_cell_formula_units_Z 44
_cell_length_a 6.833342
_cell_length_b 13.780019
_cell_length_c 24.735516
_cell_angle_alpha 90.000000
_cell_angle_beta 123.703743
_cell_angle_gamma 90.000000
_cell_volume 1937.690469
_symmetry_space_group_name_H-M "C 2/C"
_symmetry_group_IT_number 15
_symmetry_cell_setting 'monoclinic'
loop_
_space_group_symop_operation_xyz
x,y,z
-x,y,1/2-z
-x,-y,-z
x,-y,1/2+z
1/2+x,1/2+y,z
1/2-x,1/2+y,1/2-z
1/2-x,1/2-y,-z
1/2+x,1/2-y,1/2+z
loop_
_atom_site_type_symbol
_atom_site_label
_atom_site_fract_x
_atom_site_fract_y
_atom_site_fract_z
Si Si1 0.931353 0.987237 0.427396
Si Si2 0.000000 0.378210 0.750000
Si Si3 0.281322 0.378942 0.601194
Si Si4 0.865253 0.273617 0.351327
Si Si5 0.816240 0.668176 0.967312
Si Si6 0.874604 0.487977 0.324370
O O1 0.089464 0.900250 0.428602
O O2 0.021923 0.078491 0.408001
O O3 0.000000 0.000000 0.500000
O O4 0.653694 0.979156 0.379259
O O5 0.833727 0.305581 0.691541
O O6 0.853581 0.449970 0.766479
O O7 0.385189 0.272276 0.630365
O O8 0.242633 0.447648 0.646615
O O9 0.042404 0.380733 0.529802
O O10 0.881502 0.294921 0.417859
O O11 0.798118 0.375966 0.313017
O O12 0.750000 0.750000 0.000000
#
# Coordination Sequence:
#
# PCOD9307244 Si02
#       6
#     8   4   8   8   8   8
#     4  12  22  43  75 112 153 189 237 307 382 452
#     4  12  30  52  72 106 148 198 266 314 360 452
#     4  12  24  47  74 112 155 192 243 316 380 457
#     4  12  27  48  76 109 147 202 259 302 383 451
#     4  12  23  42  75 115 158 193 242 307 385 460
#     4  12  27  50  76 107 150 202 250 315 382 446
#
# _framework density 22.707443999999999
#
# number of rings (size 3 to 8) (size 9 to 14) (size 15 to 20)
#    0.000    0.000    5.455    5.455    0.000    5.091 
#    0.000    0.000    0.000    0.000    0.000    0.000 
#    0.000    0.000    0.000    0.000    0.000    0.000 
#
# Total GULP energy -123163.285517 kJ/mol
# GULP energy per Si atom -5598.331160 kJ/mol
# Density = 2.265576 g / cm^3
# Si number density = 22.707444 Si / 1000 Ang^3
#
#
#
# Elastic Constant Matrix: (Units=GPa)
#
#
# Indices 1 2 3 4 5 6 
#
# 1 89.7206 45.4685 11.8363 0.0000 -6.1394 0.0000
# 2 45.4685 148.4548 26.8283 0.0000 -22.0993 0.0000
# 3 11.8363 26.8283 37.6461 0.0000 -10.3192 0.0000
# 4 0.0000 0.0000 0.0000 17.5553 0.0000 -0.4957
# 5 -6.1394 -22.0993 -10.3192 0.0000 42.6635 0.0000
# 6 0.0000 0.0000 0.0000 -0.4957 0.0000 56.3669
#
#
#
# Elastic Compliance Matrix: (Units=1/GPa)
#
#
# Indices 1 2 3 4 5 6 
#
# 1 0.013272 -0.003853 -0.001554 0.000000 -0.000462 0.000000
# 2 -0.003853 0.009191 -0.004483 0.000000 0.003122 0.000000
# 3 -0.001554 -0.004483 0.031647 0.000000 0.005109 0.000000
# 4 0.000000 0.000000 0.000000 0.056977 0.000000 0.000501
# 5 -0.000462 0.003122 0.005109 0.000000 0.026226 0.000000
# 6 0.000000 0.000000 0.000000 0.000501 0.000000 0.017745
#
#
# Mechanical properties :
#
#
# Convention : Reuss Voigt Hill
#
# Bulk Modulus (GPa) = 29.12821 49.34307 39.23564
# Shear Modulus (GPa) = 26.84146 36.09637 31.46891
#
# Velocity S-wave (km/s) = 3.44183 3.99134 3.72673
# Velocity P-wave (km/s) = 5.35261 6.55882 5.98617
#
# Compressibility (1/GPa) = 0.03433098
#
# Stress axis : x y z
#
# Youngs Moduli (GPa) = 75.34897 108.80280 31.59893
#
# Poissons Ratio (x) = 0.41919 0.04909
# Poissons Ratio (y) = 0.29030 0.14165
# Poissons Ratio (z) = 0.11706 0.48773
#
# Static dielectric constant tensor:
#      x y z
#    x 1.976410 0.000000 0.192810 
#    y 0.000000 2.027930 0.000000 
#    z 0.192810 0.000000 2.087300 
# 
# From -- ./inp_files/260350.got.cif
#   From: 2010.05.17/outbox.cif.g08.bks.cpg/sg15_131_cif.got.tgz:260350.got - 2010.06.03 18:47:42.
