data_PCOD9307062
_publ_section_title
;
Structure prediction by ZEFSAII (Michael W. Deem and Ramdas Pophale) SiO2 
 PCOD9307062
Probable space group: C 2/C
;
_chemical_formula_sum "Si O2"
_cell_formula_units_Z 40
_cell_length_a 11.411613
_cell_length_b 17.216391
_cell_length_c 16.804995
_cell_angle_alpha 90.000000
_cell_angle_beta 149.838318
_cell_angle_gamma 90.000000
_cell_volume 1658.873722
_symmetry_space_group_name_H-M "C 2/C"
_symmetry_group_IT_number 15
_symmetry_cell_setting 'monoclinic'
loop_
_space_group_symop_operation_xyz
x,y,z
-x,y,1/2-z
-x,-y,-z
x,-y,1/2+z
1/2+x,1/2+y,z
1/2-x,1/2+y,1/2-z
1/2-x,1/2-y,-z
1/2+x,1/2-y,1/2+z
loop_
_atom_site_type_symbol
_atom_site_label
_atom_site_fract_x
_atom_site_fract_y
_atom_site_fract_z
Si Si1 0.615256 0.649512 0.086958
Si Si2 0.605588 0.021046 0.976734
Si Si3 0.020085 0.770968 0.140056
Si Si4 0.500000 0.596049 0.750000
Si Si5 0.000000 0.454238 0.750000
Si Si6 0.191087 0.336260 0.434379
O O1 0.761743 0.595219 0.113866
O O2 0.817032 0.698284 0.247856
O O3 0.468126 0.705811 0.943996
O O4 0.423769 0.620527 0.036173
O O5 0.633406 0.112478 0.978524
O O6 0.475615 0.999196 0.818462
O O7 0.500000 0.000000 0.000000
O O8 0.824060 0.962878 0.105021
O O9 0.094056 0.843258 0.239092
O O10 0.750000 0.750000 0.000000
O O11 0.250000 0.250000 0.500000
O O12 0.000000 0.335727 0.250000
#
# Coordination Sequence:
#
# PCOD9307062 Si02
#       6
#     8   8   8   4   4   8
#     4  12  25  44  80 112 161 202 275 328 414 488
#     4  12  31  50  80 115 164 212 276 336 419 489
#     4  12  21  42  72 121 154 205 261 335 408 493
#     4  12  25  44  73 114 156 200 272 332 407 478
#     4  12  25  50  79 118 150 210 262 346 403 490
#     4  12  31  55  78 114 163 221 273 342 425 503
#
# _framework density 24.112745
#
# number of rings (size 3 to 8) (size 9 to 14) (size 15 to 20)
#    0.000    0.000    7.000    1.200    9.800    0.800 
#    0.000    0.000    0.000    0.000    0.000    0.000 
#    0.000    0.000    0.000    0.000    0.000    0.000 
#
# Total GULP energy -111753.661917 kJ/mol
# GULP energy per Si atom -5587.683096 kJ/mol
# Density = 2.405786 g / cm^3
# Si number density = 24.112745 Si / 1000 Ang^3
#
#
#
# Elastic Constant Matrix: (Units=GPa)
#
#
# Indices 1 2 3 4 5 6 
#
# 1 144.1394 44.1418 36.4923 0.0009 -5.8890 0.0002
# 2 44.1418 118.2370 30.7989 0.0004 -4.5205 0.0008
# 3 36.4923 30.7989 87.4535 0.0015 -7.0100 0.0044
# 4 0.0009 0.0004 0.0015 15.9080 0.0016 -16.2829
# 5 -5.8890 -4.5205 -7.0100 0.0016 41.2229 0.0016
# 6 0.0002 0.0008 0.0044 -16.2829 0.0016 37.7342
#
#
#
# Elastic Compliance Matrix: (Units=1/GPa)
#
#
# Indices 1 2 3 4 5 6 
#
# 1 0.008357 -0.002426 -0.002594 0.000000 0.000487 0.000000
# 2 -0.002426 0.010025 -0.002492 0.000000 0.000329 0.000000
# 3 -0.002594 -0.002492 0.013527 -0.000005 0.001657 -0.000004
# 4 0.000000 0.000000 -0.000005 0.112591 -0.000007 0.048585
# 5 0.000487 0.000329 0.001657 -0.000007 0.024646 -0.000004
# 6 0.000000 0.000000 -0.000004 0.048585 -0.000004 0.047466
#
#
# Mechanical properties :
#
#
# Convention : Reuss Voigt Hill
#
# Bulk Modulus (GPa) = 59.21976 63.63288 61.42632
# Shear Modulus (GPa) = 21.07351 34.86615 27.96983
#
# Velocity S-wave (km/s) = 2.95948 3.80671 3.40951
# Velocity P-wave (km/s) = 6.02419 6.76523 6.40544
#
# Compressibility (1/GPa) = 0.01688626
#
# Stress axis : x y z
#
# Youngs Moduli (GPa) = 119.65720 99.75171 73.92390
#
# Poissons Ratio (x) = 0.24197 0.19176
# Poissons Ratio (y) = 0.29026 0.18421
# Poissons Ratio (z) = 0.31039 0.24858
#
# Static dielectric constant tensor:
#      x y z
#    x 2.149980 0.000000 -0.037690 
#    y 0.000000 1.991390 0.000000 
#    z -0.037690 0.000000 2.026310 
# 
# From -- ./inp_files/106914.got.cif
#   From: 2010.05.17/outbox.cif.g08.bks.cpg/sg15_54_cif.got.tgz:106914.got - 2010.06.03 18:47:42.
