data_PCOD9307801
_publ_section_title
;
Structure prediction by ZEFSAII (Michael W. Deem and Ramdas Pophale) SiO2 
 PCOD9307801
Probable space group: C 2/C
;
_chemical_formula_sum "Si O2"
_cell_formula_units_Z 40
_cell_length_a 12.690305
_cell_length_b 11.285306
_cell_length_c 21.731993
_cell_angle_alpha 90.000000
_cell_angle_beta 36.244125
_cell_angle_gamma 90.000000
_cell_volume 1840.090492
_symmetry_space_group_name_H-M "C 2/C"
_symmetry_group_IT_number 15
_symmetry_cell_setting 'monoclinic'
loop_
_space_group_symop_operation_xyz
x,y,z
-x,y,1/2-z
-x,-y,-z
x,-y,1/2+z
1/2+x,1/2+y,z
1/2-x,1/2+y,1/2-z
1/2-x,1/2-y,-z
1/2+x,1/2-y,1/2+z
loop_
_atom_site_type_symbol
_atom_site_label
_atom_site_fract_x
_atom_site_fract_y
_atom_site_fract_z
Si Si1 0.295580 0.524976 0.831163
Si Si2 0.000000 0.433084 0.750000
Si Si3 0.183789 0.265151 0.891772
Si Si4 0.714138 0.257842 0.944601
Si Si5 0.107195 0.379341 0.303546
Si Si6 0.750000 0.750000 0.000000
O O1 0.500000 0.491477 0.750000
O O2 0.180543 0.407111 0.892464
O O3 0.248404 0.628582 0.900362
O O4 0.254946 0.576285 0.782772
O O5 0.843126 0.349436 0.849415
O O6 0.938974 0.514767 0.721748
O O7 0.311144 0.224631 0.776551
O O8 0.257780 0.224049 0.922356
O O9 0.990596 0.210720 0.970938
O O10 0.750000 0.250000 0.000000
O O11 0.936961 0.328665 0.420418
#
# Coordination Sequence:
#
# PCOD9307801 Si02
#       6
#     8   4   8   8   8   4
#     4  12  26  46  76 105 150 198 248 315 378 456
#     4  12  28  50  74 112 156 198 254 324 382 460
#     4  12  27  48  77 110 147 202 258 312 380 459
#     4  12  27  46  74 110 151 198 253 313 386 452
#     4  12  27  50  75 112 153 200 256 316 379 458
#     4  12  24  48  76 108 150 190 258 304 382 446
#
# _framework density 21.738061999999999
#
# number of rings (size 3 to 8) (size 9 to 14) (size 15 to 20)
#    0.000    0.000    5.000    4.200    5.600    2.400 
#    3.600    0.000    0.000    0.000    0.000    0.000 
#    0.000    0.000    0.000    0.000    0.000    0.000 
#
# Total GULP energy -111503.402166 kJ/mol
# GULP energy per Si atom -5575.170108 kJ/mol
# Density = 2.168859 g / cm^3
# Si number density = 21.738062 Si / 1000 Ang^3
#
#
#
# Elastic Constant Matrix: (Units=GPa)
#
#
# Indices 1 2 3 4 5 6 
#
# 1 146.6502 28.0364 31.1809 0.0000 28.6368 0.0000
# 2 28.0364 102.9419 47.2113 0.0000 4.1271 0.0000
# 3 31.1809 47.2113 110.8991 -0.0001 4.5088 0.0000
# 4 0.0000 0.0000 -0.0001 6.6525 0.0000 2.5208
# 5 28.6368 4.1271 4.5088 0.0000 36.1174 0.0000
# 6 0.0000 0.0000 0.0000 2.5208 0.0000 29.0057
#
#
#
# Elastic Compliance Matrix: (Units=1/GPa)
#
#
# Indices 1 2 3 4 5 6 
#
# 1 0.008698 -0.001376 -0.001594 0.000000 -0.006540 0.000000
# 2 -0.001376 0.012308 -0.004865 0.000000 0.000292 0.000000
# 3 -0.001594 -0.004865 0.011521 0.000000 0.000382 0.000000
# 4 0.000000 0.000000 0.000000 0.155437 0.000000 -0.013508
# 5 -0.006540 0.000292 0.000382 0.000000 0.032792 0.000000
# 6 0.000000 0.000000 0.000000 -0.013508 0.000000 0.035650
#
#
# Mechanical properties :
#
#
# Convention : Reuss Voigt Hill
#
# Bulk Modulus (GPa) = 59.31861 63.70536 61.51199
# Shear Modulus (GPa) = 18.00538 31.29263 24.64900
#
# Velocity S-wave (km/s) = 2.88112 3.79823 3.37101
# Velocity P-wave (km/s) = 6.19798 6.97173 6.59621
#
# Compressibility (1/GPa) = 0.01685811
#
# Stress axis : x y z
#
# Youngs Moduli (GPa) = 114.96884 81.24580 86.79850
#
# Poissons Ratio (x) = 0.11177 0.13836
# Poissons Ratio (y) = 0.15816 0.42227
# Poissons Ratio (z) = 0.18326 0.39525
#
# Static dielectric constant tensor:
#      x y z
#    x 1.806600 0.000000 -0.050310 
#    y 0.000000 1.911050 0.000000 
#    z -0.050310 0.000000 1.782140 
# 
# From -- ./inp_files/237391.got.cif
#   From: 2010.05.17/outbox.cif.g08.bks.cpg/sg15_119_cif.got.tgz:237391.got - 2010.06.03 18:47:42.
