data_PCOD9307856
_publ_section_title
;
Structure prediction by ZEFSAII (Michael W. Deem and Ramdas Pophale) SiO2 
 PCOD9307856
Probable space group: C 2/C
;
_chemical_formula_sum "Si O2"
_cell_formula_units_Z 44
_cell_length_a 22.410794
_cell_length_b 11.441283
_cell_length_c 8.503411
_cell_angle_alpha 90.000000
_cell_angle_beta 123.344392
_cell_angle_gamma 90.000000
_cell_volume 1821.420070
_symmetry_space_group_name_H-M "C 2/C"
_symmetry_group_IT_number 15
_symmetry_cell_setting 'monoclinic'
loop_
_space_group_symop_operation_xyz
x,y,z
-x,y,1/2-z
-x,-y,-z
x,-y,1/2+z
1/2+x,1/2+y,z
1/2-x,1/2+y,1/2-z
1/2-x,1/2-y,-z
1/2+x,1/2-y,1/2+z
loop_
_atom_site_type_symbol
_atom_site_label
_atom_site_fract_x
_atom_site_fract_y
_atom_site_fract_z
Si Si1 0.278124 0.455586 0.783948
Si Si2 0.548272 0.225772 0.597895
Si Si3 0.500000 0.397121 0.250000
Si Si4 0.500000 0.949991 0.250000
Si Si5 0.360503 0.911099 0.506813
Si Si6 0.124772 0.086479 0.376286
Si Si7 0.750000 0.750000 0.000000
O O1 0.199841 0.493502 0.618249
O O2 0.327346 0.417876 0.710760
O O3 0.318162 0.573860 0.902075
O O4 0.274855 0.359148 0.914700
O O5 0.516335 0.315894 0.424331
O O6 0.494301 0.131094 0.588079
O O7 0.613171 0.157769 0.609224
O O8 0.579042 0.297799 0.790000
O O9 0.568125 0.480427 0.313430
O O10 0.569127 0.028196 0.328630
O O11 0.323917 0.819446 0.568929
#
# Coordination Sequence:
#
# PCOD9307856 Si02
#       7
#     8   8   4   4   8   8   4
#     4  12  27  46  81 109 156 196 262 318 388 460
#     4  12  27  48  78 111 152 207 252 316 393 446
#     4  12  26  48  76 112 160 198 258 320 384 458
#     4  12  30  52  78 116 156 204 268 314 382 476
#     4  12  27  51  77 113 154 203 258 319 378 470
#     4  12  25  48  75 117 148 203 257 323 382 463
#     4  12  24  50  76 112 150 200 246 318 392 438
#
# _framework density 24.156974000000002
#
# number of rings (size 3 to 8) (size 9 to 14) (size 15 to 20)
#    0.000    0.000    5.455    3.273    2.545    5.091 
#    0.000    0.000    0.000    0.000    0.000    0.000 
#    0.000    0.000    0.000    0.000    0.000    0.000 
#
# Total GULP energy -122753.870380 kJ/mol
# GULP energy per Si atom -5579.721381 kJ/mol
# Density = 2.410199 g / cm^3
# Si number density = 24.156974 Si / 1000 Ang^3
#
#
#
# Elastic Constant Matrix: (Units=GPa)
#
#
# Indices 1 2 3 4 5 6 
#
# 1 176.2364 59.2690 32.3083 0.0000 13.3792 0.0000
# 2 59.2690 100.3370 29.0376 0.0000 12.4563 0.0000
# 3 32.3083 29.0376 59.2694 0.0000 26.0735 0.0000
# 4 0.0000 0.0000 0.0000 13.4378 0.0000 -5.4746
# 5 13.3792 12.4563 26.0735 0.0000 32.1212 0.0000
# 6 0.0000 0.0000 0.0000 -5.4746 0.0000 59.9112
#
#
#
# Elastic Compliance Matrix: (Units=1/GPa)
#
#
# Indices 1 2 3 4 5 6 
#
# 1 0.007316 -0.003690 -0.002285 0.000000 0.000239 0.000000
# 2 -0.003690 0.013475 -0.004616 0.000000 0.000058 0.000000
# 3 -0.002285 -0.004616 0.029822 0.000000 -0.021466 0.000000
# 4 0.000000 0.000000 0.000000 0.077295 0.000000 0.007063
# 5 0.000239 0.000058 -0.021466 0.000000 0.048434 0.000000
# 6 0.000000 0.000000 0.000000 0.007063 0.000000 0.017337
#
#
# Mechanical properties :
#
#
# Convention : Reuss Voigt Hill
#
# Bulk Modulus (GPa) = 33.97773 64.11918 49.04846
# Shear Modulus (GPa) = 22.25482 35.44256 28.84869
#
# Velocity S-wave (km/s) = 3.03852 3.83453 3.45949
# Velocity P-wave (km/s) = 5.13868 6.79744 6.02541
#
# Compressibility (1/GPa) = 0.02943104
#
# Stress axis : x y z
#
# Youngs Moduli (GPa) = 136.68848 74.21395 33.53195
#
# Poissons Ratio (x) = 0.27383 0.07663
# Poissons Ratio (y) = 0.50435 0.15478
# Poissons Ratio (z) = 0.31236 0.34256
#
# Static dielectric constant tensor:
#      x y z
#    x 1.844590 0.000000 -0.036390 
#    y 0.000000 1.934170 0.000000 
#    z -0.036390 0.000000 2.018260 
# 
# From -- ./inp_files/60960.got.cif
#   From: 2010.05.17/outbox.cif.g08.bks.cpg/sg15_31_cif.got.tgz:60960.got - 2010.06.03 18:47:42.
