data_PCOD9307207
_publ_section_title
;
Structure prediction by ZEFSAII (Michael W. Deem and Ramdas Pophale) SiO2 
 PCOD9307207
Probable space group: C 2/C
;
_chemical_formula_sum "Si O2"
_cell_formula_units_Z 32
_cell_length_a 19.106125
_cell_length_b 6.864017
_cell_length_c 12.343870
_cell_angle_alpha 90.000000
_cell_angle_beta 56.591161
_cell_angle_gamma 90.000000
_cell_volume 1351.342575
_symmetry_space_group_name_H-M "C 2/C"
_symmetry_group_IT_number 15
_symmetry_cell_setting 'monoclinic'
loop_
_space_group_symop_operation_xyz
x,y,z
-x,y,1/2-z
-x,-y,-z
x,-y,1/2+z
1/2+x,1/2+y,z
1/2-x,1/2+y,1/2-z
1/2-x,1/2-y,-z
1/2+x,1/2-y,1/2+z
loop_
_atom_site_type_symbol
_atom_site_label
_atom_site_fract_x
_atom_site_fract_y
_atom_site_fract_z
Si Si1 0.079649 0.090068 0.042110
Si Si2 0.308364 0.239171 0.555100
Si Si3 0.332527 0.110420 0.172750
Si Si4 0.926208 0.311309 0.248028
O O1 0.118390 0.187875 0.119672
O O2 0.982147 0.152195 0.134274
O O3 0.108086 0.867979 0.024344
O O4 0.245364 0.827021 0.799487
O O5 0.250000 0.250000 0.500000
O O6 0.324814 0.017994 0.571648
O O7 0.116633 0.800258 0.406497
O O8 0.376663 0.963386 0.219299
O O9 0.000000 0.424871 0.250000
#
# Coordination Sequence:
#
# PCOD9307207 Si02
#       4
#     8   8   8   8
#     4   9  22  45  62  99 130 169 230 266 331 400
#     4  12  27  39  68 102 134 179 218 278 333 397
#     4  12  22  42  68  96 135 177 221 276 338 388
#     4   8  22  41  69  91 133 178 218 282 319 400
#
# _framework density 23.680152
#
# number of rings (size 3 to 8) (size 9 to 14) (size 15 to 20)
#    1.500    0.000    2.500    2.250    3.500    3.000 
#    0.000   10.000    0.000    0.000    0.000    0.000 
#    0.000    0.000    0.000    0.000    0.000    0.000 
#
# Total GULP energy -89321.372780 kJ/mol
# GULP energy per Si atom -5582.585799 kJ/mol
# Density = 2.362625 g / cm^3
# Si number density = 23.680152 Si / 1000 Ang^3
#
#
#
# Elastic Constant Matrix: (Units=GPa)
#
#
# Indices 1 2 3 4 5 6 
#
# 1 60.7452 17.5281 -12.8376 0.0000 12.8122 0.0000
# 2 17.5281 91.9846 25.1969 0.0001 -9.3699 -0.0001
# 3 -12.8376 25.1969 71.7650 0.0000 -9.0016 0.0000
# 4 0.0000 0.0001 0.0000 15.3410 0.0000 -5.1681
# 5 12.8122 -9.3699 -9.0016 0.0000 31.7186 0.0000
# 6 0.0000 -0.0001 0.0000 -5.1681 0.0000 33.9308
#
#
#
# Elastic Compliance Matrix: (Units=1/GPa)
#
#
# Indices 1 2 3 4 5 6 
#
# 1 0.021218 -0.006300 0.004872 0.000000 -0.009049 0.000000
# 2 -0.006300 0.014084 -0.005424 0.000000 0.005166 0.000000
# 3 0.004872 -0.005424 0.016863 0.000000 0.001215 0.000000
# 4 0.000000 0.000000 0.000000 0.068710 0.000000 0.010465
# 5 -0.009049 0.005166 0.001215 0.000000 0.037053 0.000000
# 6 0.000000 0.000000 0.000000 0.010465 0.000000 0.031066
#
#
# Mechanical properties :
#
#
# Convention : Reuss Voigt Hill
#
# Bulk Modulus (GPa) = 25.99929 31.58551 28.79240
# Shear Modulus (GPa) = 23.20004 29.17192 26.18598
#
# Velocity S-wave (km/s) = 3.13345 3.51367 3.32899
# Velocity P-wave (km/s) = 4.90862 5.46155 5.19245
#
# Compressibility (1/GPa) = 0.03846258
#
# Stress axis : x y z
#
# Youngs Moduli (GPa) = 47.12924 71.00392 59.30248
#
# Poissons Ratio (x) = 0.44730 -0.28894
# Poissons Ratio (y) = 0.29690 0.32164
# Poissons Ratio (z) = -0.22963 0.38511
#
# Static dielectric constant tensor:
#      x y z
#    x 1.905200 0.000000 0.049290 
#    y 0.000000 1.875420 0.000000 
#    z 0.049290 0.000000 1.935730 
# 
# From -- ./inp_files/110262.got.cif
#   From: 2010.05.17/outbox.cif.g08.bks.cpg/sg15_56_cif.got.tgz:110262.got - 2010.06.03 18:47:42.
