data_PCOD9307645
_publ_section_title
;
Structure prediction by ZEFSAII (Michael W. Deem and Ramdas Pophale) SiO2 
 PCOD9307645
Probable space group: C 2/C
;
_chemical_formula_sum "Si O2"
_cell_formula_units_Z 40
_cell_length_a 31.354401
_cell_length_b 9.841178
_cell_length_c 9.236516
_cell_angle_alpha 90.000000
_cell_angle_beta 138.032924
_cell_angle_gamma 90.000000
_cell_volume 1905.844018
_symmetry_space_group_name_H-M "C 2/C"
_symmetry_group_IT_number 15
_symmetry_cell_setting 'monoclinic'
loop_
_space_group_symop_operation_xyz
x,y,z
-x,y,1/2-z
-x,-y,-z
x,-y,1/2+z
1/2+x,1/2+y,z
1/2-x,1/2+y,1/2-z
1/2-x,1/2-y,-z
1/2+x,1/2-y,1/2+z
loop_
_atom_site_type_symbol
_atom_site_label
_atom_site_fract_x
_atom_site_fract_y
_atom_site_fract_z
Si Si1 0.212610 0.539844 0.529647
Si Si2 0.133433 0.277855 0.249949
Si Si3 0.109236 0.237122 0.857167
Si Si4 0.302535 0.507429 0.518030
Si Si5 0.009170 0.646154 0.600518
O O1 0.178153 0.409913 0.372223
O O2 0.160847 0.655138 0.426604
O O3 0.272760 0.580072 0.582906
O O4 0.244575 0.496249 0.759719
O O5 0.078403 0.298963 0.229961
O O6 0.174342 0.143167 0.383331
O O7 0.103323 0.264978 0.013652
O O8 0.139629 0.090712 0.904679
O O9 0.044423 0.258943 0.606608
O O10 0.000000 0.634834 0.750000
O O11 0.000000 0.500000 0.500000
#
# Coordination Sequence:
#
# PCOD9307645 Si02
#       5
#     8   8   8   8   8
#     4  12  24  44  73 103 143 187 227 286 343 420
#     4  12  26  48  71 103 144 184 235 289 342 413
#     4  12  26  47  73 102 142 187 233 289 342 414
#     4  12  26  44  71 105 147 181 229 284 356 408
#     4  12  28  47  74 102 134 184 237 288 346 411
#
# _framework density 20.988077000000001
#
# number of rings (size 3 to 8) (size 9 to 14) (size 15 to 20)
#    0.000    0.000    6.000    4.200    5.600    0.800 
#    0.000    0.000    0.000    0.000    0.000    0.000 
#    0.000    0.000    0.000    0.000    0.000    0.000 
#
# Total GULP energy -111965.179240 kJ/mol
# GULP energy per Si atom -5598.258962 kJ/mol
# Density = 2.094031 g / cm^3
# Si number density = 20.988077 Si / 1000 Ang^3
#
#
#
# Elastic Constant Matrix: (Units=GPa)
#
#
# Indices 1 2 3 4 5 6 
#
# 1 142.3534 7.1108 22.5601 0.0000 -16.7542 0.0000
# 2 7.1108 34.8032 2.3537 0.0000 -9.5575 0.0000
# 3 22.5601 2.3537 82.2435 0.0000 -15.5923 0.0000
# 4 0.0000 0.0000 0.0000 14.7074 0.0000 -1.8578
# 5 -16.7542 -9.5575 -15.5923 0.0000 44.2745 0.0000
# 6 0.0000 0.0000 0.0000 -1.8578 0.0000 21.9056
#
#
#
# Elastic Compliance Matrix: (Units=1/GPa)
#
#
# Indices 1 2 3 4 5 6 
#
# 1 0.007577 -0.000860 -0.001656 0.000000 0.002098 0.000000
# 2 -0.000860 0.030654 0.000591 0.000000 0.006500 0.000000
# 3 -0.001656 0.000591 0.013396 0.000000 0.004219 0.000000
# 4 0.000000 0.000000 0.000000 0.068729 0.000000 0.005829
# 5 0.002098 0.006500 0.004219 0.000000 0.026269 0.000000
# 6 0.000000 0.000000 0.000000 0.005829 0.000000 0.046145
#
#
# Mechanical properties :
#
#
# Convention : Reuss Voigt Hill
#
# Bulk Modulus (GPa) = 20.93056 35.93880 28.43468
# Shear Modulus (GPa) = 23.52434 31.33588 27.43011
#
# Velocity S-wave (km/s) = 3.35153 3.86817 3.61908
# Velocity P-wave (km/s) = 4.99713 6.09187 5.57145
#
# Compressibility (1/GPa) = 0.04777704
#
# Stress axis : x y z
#
# Youngs Moduli (GPa) = 131.97581 32.62253 74.64816
#
# Poissons Ratio (x) = 0.02805 0.12362
# Poissons Ratio (y) = 0.11348 -0.04411
# Poissons Ratio (z) = 0.21856 -0.01928
#
# Static dielectric constant tensor:
#      x y z
#    x 1.834100 0.000000 -0.048450 
#    y 0.000000 1.735410 0.000000 
#    z -0.048450 0.000000 1.744260 
# 
# From -- ./inp_files/46185.got.cif
#   From: 2010.05.17/outbox.cif.g08.bks.cpg/sg15_24_cif.got.tgz:46185.got - 2010.06.03 18:47:42.
