data_PCOD9307258
_publ_section_title
;
Structure prediction by ZEFSAII (Michael W. Deem and Ramdas Pophale) SiO2 
 PCOD9307258
Probable space group: C 2/C
;
_chemical_formula_sum "Si O2"
_cell_formula_units_Z 48
_cell_length_a 9.630316
_cell_length_b 24.580070
_cell_length_c 16.856009
_cell_angle_alpha 90.000000
_cell_angle_beta 33.934908
_cell_angle_gamma 90.000000
_cell_volume 2227.448557
_symmetry_space_group_name_H-M "C 2/C"
_symmetry_group_IT_number 15
_symmetry_cell_setting 'monoclinic'
loop_
_space_group_symop_operation_xyz
x,y,z
-x,y,1/2-z
-x,-y,-z
x,-y,1/2+z
1/2+x,1/2+y,z
1/2-x,1/2+y,1/2-z
1/2-x,1/2-y,-z
1/2+x,1/2-y,1/2+z
loop_
_atom_site_type_symbol
_atom_site_label
_atom_site_fract_x
_atom_site_fract_y
_atom_site_fract_z
Si Si1 0.242350 0.721603 0.840434
Si Si2 0.446840 0.895974 0.045317
Si Si3 0.765987 0.780453 0.140410
Si Si4 0.000000 0.509143 0.750000
Si Si5 0.284049 0.605523 0.543965
Si Si6 0.000000 0.019323 0.750000
Si Si7 0.729185 0.562794 0.252241
O O1 0.500000 0.745677 0.750000
O O2 0.198999 0.660536 0.893299
O O3 0.279149 0.718763 0.728738
O O4 0.997390 0.752753 0.986583
O O5 0.598011 0.893458 0.056504
O O6 0.245512 0.944140 0.136658
O O7 0.636225 0.907479 0.884054
O O8 0.500000 0.752114 0.250000
O O9 0.752136 0.841267 0.112036
O O10 0.220221 0.550722 0.622364
O O11 0.079882 0.471191 0.784931
O O12 0.567049 0.603631 0.380743
O O13 0.028240 0.979689 0.811578
#
# Coordination Sequence:
#
# PCOD9307258 Si02
#       7
#     8   8   8   4   8   4   8
#     4  12  28  51  76 108 147 189 243 310 374 435
#     4  12  24  44  74 103 141 192 241 295 360 428
#     4  12  27  49  79 107 140 193 244 306 369 436
#     4  12  24  44  66 106 150 192 234 298 358 420
#     4  12  24  46  70 104 146 183 245 296 359 426
#     4  12  22  44  70 100 144 192 240 282 358 422
#     4  12  26  41  72 108 144 193 241 291 352 437
#
# _framework density 21.549319000000001
#
# number of rings (size 3 to 8) (size 9 to 14) (size 15 to 20)
#    0.000    0.000    6.667    3.000    2.333    1.333 
#    1.500    0.000    0.000    0.000    0.000    0.000 
#    0.000    0.000    0.000    0.000    0.000    0.000 
#
# Total GULP energy -134310.977303 kJ/mol
# GULP energy per Si atom -5596.290721 kJ/mol
# Density = 2.150027 g / cm^3
# Si number density = 21.549319 Si / 1000 Ang^3
#
#
#
# Elastic Constant Matrix: (Units=GPa)
#
#
# Indices 1 2 3 4 5 6 
#
# 1 112.2005 30.9888 46.5137 -0.0012 14.4659 0.0005
# 2 30.9888 61.3264 46.9997 0.0125 7.2472 -0.0020
# 3 46.5137 46.9997 171.7169 0.0189 12.3444 -0.0023
# 4 -0.0012 0.0125 0.0189 285.5039 -0.0031 -70.2389
# 5 14.4659 7.2472 12.3444 -0.0031 37.7771 0.0002
# 6 0.0005 -0.0020 -0.0023 -70.2389 0.0002 26.6775
#
#
#
# Elastic Compliance Matrix: (Units=1/GPa)
#
#
# Indices 1 2 3 4 5 6 
#
# 1 0.011090 -0.003944 -0.001714 0.000000 -0.002930 0.000000
# 2 -0.003944 0.022212 -0.004929 -0.000001 -0.001140 -0.000001
# 3 -0.001714 -0.004929 0.007703 -0.000001 -0.000915 -0.000001
# 4 0.000000 -0.000001 -0.000001 0.009943 0.000001 0.026179
# 5 -0.002930 -0.001140 -0.000915 0.000001 0.028111 0.000002
# 6 0.000000 -0.000001 -0.000001 0.026179 0.000002 0.106411
#
#
# Mechanical properties :
#
#
# Convention : Reuss Voigt Hill
#
# Bulk Modulus (GPa) = 50.42840 66.02759 58.22799
# Shear Modulus (GPa) = 23.44619 84.70780 54.07700
#
# Velocity S-wave (km/s) = 3.30210 6.27648 5.01488
# Velocity P-wave (km/s) = 6.16366 9.12317 7.78534
#
# Compressibility (1/GPa) = 0.01983010
#
# Stress axis : x y z
#
# Youngs Moduli (GPa) = 90.16925 45.02163 129.82512
#
# Poissons Ratio (x) = 0.17758 0.22250
# Poissons Ratio (y) = 0.35565 0.63991
# Poissons Ratio (z) = 0.15454 0.22191
#
# Static dielectric constant tensor:
#      x y z
#    x 1.794780 0.000000 -0.010560 
#    y 0.000000 1.773690 0.000000 
#    z -0.010560 0.000000 1.801280 
# 
# From -- ./inp_files/138959.got.cif
#   From: 2010.05.17/outbox.cif.g08.bks.cpg/sg15_70_cif.got.tgz:138959.got - 2010.06.03 18:47:42.
