data_PCOD9307691
_publ_section_title
;
Structure prediction by ZEFSAII (Michael W. Deem and Ramdas Pophale) SiO2 
 PCOD9307691
Probable space group: C 2/C
;
_chemical_formula_sum "Si O2"
_cell_formula_units_Z 28
_cell_length_a 11.723747
_cell_length_b 17.740619
_cell_length_c 5.060729
_cell_angle_alpha 90.000000
_cell_angle_beta 80.150473
_cell_angle_gamma 90.000000
_cell_volume 1037.049093
_symmetry_space_group_name_H-M "C 2/C"
_symmetry_group_IT_number 15
_symmetry_cell_setting 'monoclinic'
loop_
_space_group_symop_operation_xyz
x,y,z
-x,y,1/2-z
-x,-y,-z
x,-y,1/2+z
1/2+x,1/2+y,z
1/2-x,1/2+y,1/2-z
1/2-x,1/2-y,-z
1/2+x,1/2-y,1/2+z
loop_
_atom_site_type_symbol
_atom_site_label
_atom_site_fract_x
_atom_site_fract_y
_atom_site_fract_z
Si Si1 0.000000 0.754423 0.750000
Si Si2 0.185802 0.828877 0.024869
Si Si3 0.393454 0.113829 0.101325
Si Si4 0.204233 0.046960 0.890079
O O1 0.071935 0.808104 0.912650
O O2 0.075534 0.694322 0.546841
O O3 0.280385 0.878500 0.830725
O O4 0.250000 0.750000 0.000000
O O5 0.168091 0.869360 0.311920
O O6 0.500000 0.094178 0.250000
O O7 0.343536 0.058550 0.892960
O O8 0.162154 0.995905 0.664255
#
# Coordination Sequence:
#
# PCOD9307691 Si02
#       4
#     4   8   8   8
#     4  12  26  44  78 120 144 198 252 324 368 444
#     4  12  25  48  78 112 152 196 259 310 373 450
#     4  12  24  45  76 116 150 195 248 312 388 438
#     4  12  27  50  75 110 159 202 247 310 383 458
#
# _framework density 26.999683999999998
#
# number of rings (size 3 to 8) (size 9 to 14) (size 15 to 20)
#    0.000    0.000    8.571    0.857    0.000    1.143 
#    0.000    1.429    0.000    0.000    0.000    0.000 
#    0.000    0.000    0.000    0.000    0.000    0.000 
#
# Total GULP energy -78349.153469 kJ/mol
# GULP energy per Si atom -5596.368105 kJ/mol
# Density = 2.693823 g / cm^3
# Si number density = 26.999684 Si / 1000 Ang^3
#
#
#
# Elastic Constant Matrix: (Units=GPa)
#
#
# Indices 1 2 3 4 5 6 
#
# 1 99.7273 7.2866 37.2976 0.0000 25.0253 0.0000
# 2 7.2866 94.8624 42.2229 0.0000 17.4361 0.0000
# 3 37.2976 42.2229 169.0172 0.0000 32.3597 0.0000
# 4 0.0000 0.0000 0.0000 71.8473 0.0000 26.1617
# 5 25.0253 17.4361 32.3597 0.0000 61.3019 0.0000
# 6 0.0000 0.0000 0.0000 26.1617 0.0000 40.6993
#
#
#
# Elastic Compliance Matrix: (Units=1/GPa)
#
#
# Indices 1 2 3 4 5 6 
#
# 1 0.011712 0.000717 -0.002013 0.000000 -0.003923 0.000000
# 2 0.000717 0.012132 -0.002750 0.000000 -0.002292 0.000000
# 3 -0.002013 -0.002750 0.007499 0.000000 -0.002354 0.000000
# 4 0.000000 0.000000 0.000000 0.018172 0.000000 -0.011681
# 5 -0.003923 -0.002292 -0.002354 0.000000 0.019809 0.000000
# 6 0.000000 0.000000 0.000000 -0.011681 0.000000 0.032079
#
#
# Mechanical properties :
#
#
# Convention : Reuss Voigt Hill
#
# Bulk Modulus (GPa) = 43.00878 59.69125 51.35001
# Shear Modulus (GPa) = 42.64628 53.22302 47.93465
#
# Velocity S-wave (km/s) = 3.97862 4.44469 4.21809
# Velocity P-wave (km/s) = 6.08850 6.96394 6.54088
#
# Compressibility (1/GPa) = 0.02325107
#
# Stress axis : x y z
#
# Youngs Moduli (GPa) = 85.38225 82.42779 133.35985
#
# Poissons Ratio (x) = -0.05912 0.26841
# Poissons Ratio (y) = -0.06124 0.36677
# Poissons Ratio (z) = 0.17185 0.22669
#
# Static dielectric constant tensor:
#      x y z
#    x 1.901370 0.000000 -0.055040 
#    y 0.000000 2.224890 0.000000 
#    z -0.055040 0.000000 2.264430 
# 
# From -- ./inp_files/6310.got.cif
#   From: 2010.05.17/outbox.cif.g08.bks.cpg/sg15_4_cif.got.tgz:6310.got - 2010.06.03 18:47:42.
