data_PCOD9307488
_publ_section_title
;
Structure prediction by ZEFSAII (Michael W. Deem and Ramdas Pophale) SiO2 
 PCOD9307488
Probable space group: C 2/C
;
_chemical_formula_sum "Si O2"
_cell_formula_units_Z 36
_cell_length_a 15.535108
_cell_length_b 17.601007
_cell_length_c 9.832228
_cell_angle_alpha 90.000000
_cell_angle_beta 39.101745
_cell_angle_gamma 90.000000
_cell_volume 1695.610825
_symmetry_space_group_name_H-M "C 2/C"
_symmetry_group_IT_number 15
_symmetry_cell_setting 'monoclinic'
loop_
_space_group_symop_operation_xyz
x,y,z
-x,y,1/2-z
-x,-y,-z
x,-y,1/2+z
1/2+x,1/2+y,z
1/2-x,1/2+y,1/2-z
1/2-x,1/2-y,-z
1/2+x,1/2-y,1/2+z
loop_
_atom_site_type_symbol
_atom_site_label
_atom_site_fract_x
_atom_site_fract_y
_atom_site_fract_z
Si Si1 0.870107 0.245991 0.179415
Si Si2 0.236910 0.582390 0.323621
Si Si3 0.847726 0.960135 0.397501
Si Si4 0.660315 0.294233 0.220556
Si Si5 0.000000 0.338196 0.250000
O O1 0.828006 0.157859 0.234031
O O2 0.750883 0.289793 0.245762
O O3 0.899541 0.284716 0.287199
O O4 0.015177 0.245932 0.922516
O O5 0.279294 0.519440 0.380379
O O6 0.084416 0.610122 0.542392
O O7 0.263301 0.553027 0.139304
O O8 0.861635 0.879262 0.304800
O O9 0.000000 0.986257 0.250000
O O10 0.750000 0.250000 0.000000
#
# Coordination Sequence:
#
# PCOD9307488 Si02
#       5
#     8   8   8   8   4
#     4  12  25  45  76 106 141 192 241 302 353 433
#     4  12  28  46  71 107 145 192 241 300 365 428
#     4  12  26  47  74 106 146 192 241 300 364 440
#     4  12  23  46  74 107 144 186 247 294 357 432
#     4  12  28  48  70 106 150 190 248 296 372 430
#
# _framework density 21.231286999999998
#
# number of rings (size 3 to 8) (size 9 to 14) (size 15 to 20)
#    0.000    0.000    6.667    2.000    4.667    0.889 
#    4.000    0.000    0.000    0.000    0.000    0.000 
#    0.000    0.000    0.000    0.000    0.000    0.000 
#
# Total GULP energy -100816.100933 kJ/mol
# GULP energy per Si atom -5600.894496 kJ/mol
# Density = 2.118296 g / cm^3
# Si number density = 21.231287 Si / 1000 Ang^3
#
#
#
# Elastic Constant Matrix: (Units=GPa)
#
#
# Indices 1 2 3 4 5 6 
#
# 1 96.5632 25.1295 11.1176 -0.0001 16.6939 0.0001
# 2 25.1295 63.8572 17.6469 0.0000 18.2949 0.0000
# 3 11.1176 17.6469 126.8593 0.0000 1.4525 0.0000
# 4 -0.0001 0.0000 0.0000 6.3165 0.0001 16.4948
# 5 16.6939 18.2949 1.4525 0.0001 45.8870 -0.0001
# 6 0.0001 0.0000 0.0000 16.4948 -0.0001 40.4789
#
#
#
# Elastic Compliance Matrix: (Units=1/GPa)
#
#
# Indices 1 2 3 4 5 6 
#
# 1 0.011869 -0.003729 -0.000489 -0.000003 -0.002816 0.000001
# 2 -0.003729 0.019599 -0.002326 -0.000002 -0.006384 0.000001
# 3 -0.000489 -0.002326 0.008240 -0.000001 0.000845 0.000000
# 4 -0.000003 -0.000002 -0.000001 -2.469311 0.000007 1.006225
# 5 -0.002816 -0.006384 0.000845 0.000007 0.025336 -0.000003
# 6 0.000001 0.000001 0.000000 1.006225 -0.000003 -0.385324
#
#
# Mechanical properties :
#
#
# Convention : Reuss Voigt Hill
#
# Bulk Modulus (GPa) = 37.56726 43.89639 40.73183
# Shear Modulus (GPa) = -1.80660 34.09554 16.14447
#
# Velocity S-wave (km/s) = -0.92345 4.01173 2.76054
# Velocity P-wave (km/s) = 4.07378 6.49452 5.42100
#
# Compressibility (1/GPa) = 0.02661892
#
# Stress axis : x y z
#
# Youngs Moduli (GPa) = 84.24960 51.02223 121.36536
#
# Poissons Ratio (x) = 0.19026 0.05938
# Poissons Ratio (y) = 0.31417 0.28235
# Poissons Ratio (z) = 0.04122 0.11870
#
# Static dielectric constant tensor:
#      x y z
#    x 1.769820 0.000000 0.010070 
#    y 0.000000 1.719060 0.000000 
#    z 0.010070 0.000000 1.815130 
# 
# From -- ./inp_files/48256.got.cif
#   From: 2010.05.17/outbox.cif.g08.bks.cpg/sg15_25_cif.got.tgz:48256.got - 2010.06.03 18:47:42.
