data_PCOD9307558
_publ_section_title
;
Structure prediction by ZEFSAII (Michael W. Deem and Ramdas Pophale) SiO2 
 PCOD9307558
Probable space group: C 2/C
;
_chemical_formula_sum "Si O2"
_cell_formula_units_Z 48
_cell_length_a 11.210866
_cell_length_b 13.008746
_cell_length_c 22.285033
_cell_angle_alpha 90.000000
_cell_angle_beta 132.979692
_cell_angle_gamma 90.000000
_cell_volume 2377.709724
_symmetry_space_group_name_H-M "C 2/C"
_symmetry_group_IT_number 15
_symmetry_cell_setting 'monoclinic'
loop_
_space_group_symop_operation_xyz
x,y,z
-x,y,1/2-z
-x,-y,-z
x,-y,1/2+z
1/2+x,1/2+y,z
1/2-x,1/2+y,1/2-z
1/2-x,1/2-y,-z
1/2+x,1/2-y,1/2+z
loop_
_atom_site_type_symbol
_atom_site_label
_atom_site_fract_x
_atom_site_fract_y
_atom_site_fract_z
Si Si1 0.210148 0.366681 0.494554
Si Si2 0.163795 0.629717 0.628937
Si Si3 0.371867 0.644097 0.813337
Si Si4 0.687530 0.515104 0.585460
Si Si5 0.387253 0.201098 0.152217
Si Si6 0.898366 0.031826 0.164484
O O1 0.250000 0.250000 0.500000
O O2 0.228266 0.420677 0.437465
O O3 0.337741 0.410069 0.585934
O O4 0.024240 0.376674 0.449576
O O5 0.218324 0.659951 0.715648
O O6 0.248561 0.713641 0.615381
O O7 0.243005 0.519868 0.642174
O O8 0.320024 0.584102 0.856178
O O9 0.486229 0.748189 0.853993
O O10 0.486584 0.561914 0.817662
O O11 0.500000 0.500000 0.500000
O O12 0.790092 0.407548 0.618912
O O13 0.500000 0.198722 0.250000
O O14 0.000000 0.091805 0.250000
#
# Coordination Sequence:
#
# PCOD9307558 Si02
#       6
#     8   8   8   8   8   8
#     4  12  25  41  57  96 132 163 210 271 329 381
#     4   9  20  41  68  90 126 163 215 268 316 398
#     4   9  20  42  66  97 125 167 217 269 324 388
#     4  12  24  40  64  95 134 170 215 273 323 392
#     4   9  21  43  69  94 127 173 217 267 329 390
#     4   9  19  43  68  85 120 171 216 256 322 391
#
# _framework density 20.187494000000001
#
# number of rings (size 3 to 8) (size 9 to 14) (size 15 to 20)
#    0.000    2.000    1.667    3.500    2.333    0.667 
#    9.000    0.000    0.000    0.000    0.000    0.000 
#    0.000    0.000    0.000    0.000    0.000    0.000 
#
# Total GULP energy -133684.890922 kJ/mol
# GULP energy per Si atom -5570.203788 kJ/mol
# Density = 2.014155 g / cm^3
# Si number density = 20.187494 Si / 1000 Ang^3
#
#
#
# Elastic Constant Matrix: (Units=GPa)
#
#
# Indices 1 2 3 4 5 6 
#
# 1 35.0689 15.7631 13.2356 0.0000 -7.7978 0.0000
# 2 15.7631 76.0012 13.9644 0.0000 -10.0681 0.0000
# 3 13.2356 13.9644 48.5781 0.0000 -8.9782 0.0000
# 4 0.0000 0.0000 0.0000 8.3409 0.0000 -0.3349
# 5 -7.7978 -10.0681 -8.9782 0.0000 32.5802 0.0000
# 6 0.0000 0.0000 0.0000 -0.3349 0.0000 27.2164
#
#
#
# Elastic Compliance Matrix: (Units=1/GPa)
#
#
# Indices 1 2 3 4 5 6 
#
# 1 0.034582 -0.005255 -0.007041 0.000000 0.004713 0.000000
# 2 -0.005255 0.015049 -0.002389 0.000000 0.002734 0.000000
# 3 -0.007041 -0.002389 0.023963 0.000000 0.004180 0.000000
# 4 0.000000 0.000000 0.000000 0.119951 0.000000 0.001476
# 5 0.004713 0.002734 0.004180 0.000000 0.033818 0.000000
# 6 0.000000 0.000000 0.000000 0.001476 0.000000 0.036761
#
#
# Mechanical properties :
#
#
# Convention : Reuss Voigt Hill
#
# Bulk Modulus (GPa) = 22.61132 27.28603 24.94867
# Shear Modulus (GPa) = 16.22141 21.40651 18.81396
#
# Velocity S-wave (km/s) = 2.83775 3.25989 3.05612
# Velocity P-wave (km/s) = 4.68637 5.26449 4.98382
#
# Compressibility (1/GPa) = 0.04422564
#
# Stress axis : x y z
#
# Youngs Moduli (GPa) = 28.91647 66.45094 41.73094
#
# Poissons Ratio (x) = 0.34917 0.29382
# Poissons Ratio (y) = 0.15194 0.09969
# Poissons Ratio (z) = 0.20359 0.15874
#
# Static dielectric constant tensor:
#      x y z
#    x 1.749010 0.000000 0.008450 
#    y 0.000000 1.762290 0.000000 
#    z 0.008450 0.000000 1.749520 
# 
# From -- ./inp_files/237736.got.cif
#   From: 2010.05.17/outbox.cif.g08.bks.cpg/sg15_119_cif.got.tgz:237736.got - 2010.06.03 18:47:42.
