data_PCOD9307922
_publ_section_title
;
Structure prediction by ZEFSAII (Michael W. Deem and Ramdas Pophale) SiO2 
 PCOD9307922
Probable space group: C 2/C
;
_chemical_formula_sum "Si O2"
_cell_formula_units_Z 44
_cell_length_a 13.969732
_cell_length_b 5.692998
_cell_length_c 24.112456
_cell_angle_alpha 90.000000
_cell_angle_beta 65.719562
_cell_angle_gamma 90.000000
_cell_volume 1748.026688
_symmetry_space_group_name_H-M "C 2/C"
_symmetry_group_IT_number 15
_symmetry_cell_setting 'monoclinic'
loop_
_space_group_symop_operation_xyz
x,y,z
-x,y,1/2-z
-x,-y,-z
x,-y,1/2+z
1/2+x,1/2+y,z
1/2-x,1/2+y,1/2-z
1/2-x,1/2-y,-z
1/2+x,1/2-y,1/2+z
loop_
_atom_site_type_symbol
_atom_site_label
_atom_site_fract_x
_atom_site_fract_y
_atom_site_fract_z
Si Si1 0.194690 0.419132 0.770792
Si Si2 0.646771 0.089623 0.022282
Si Si3 0.588204 0.272515 0.624986
Si Si4 0.535727 0.437953 0.429513
Si Si5 0.697305 0.904892 0.893822
Si Si6 0.500000 0.983991 0.750000
O O1 0.240414 0.672634 0.739288
O O2 0.165918 0.485503 0.840663
O O3 0.097008 0.350814 0.754931
O O4 0.541360 0.220788 0.065414
O O5 0.652820 0.875315 0.063369
O O6 0.750000 0.250000 0.000000
O O7 0.638382 0.014027 0.960311
O O8 0.495415 0.385503 0.611392
O O9 0.679326 0.442912 0.626246
O O10 0.545410 0.135091 0.688015
O O11 0.500000 0.500000 0.500000
O O12 0.656650 0.365340 0.402866
#
# Coordination Sequence:
#
# PCOD9307922 Si02
#       6
#     8   8   8   8   8   4
#     4  12  31  55  82 120 165 220 279 340 412 500
#     4  12  25  45  75 115 153 204 262 340 410 486
#     4  12  27  51  72 116 155 213 267 337 410 497
#     4  12  26  44  75 112 158 203 264 332 417 488
#     4  12  26  48  79 114 156 207 273 339 411 485
#     4  12  30  52  82 112 170 216 278 338 418 500
#
# _framework density 25.171240000000001
#
# number of rings (size 3 to 8) (size 9 to 14) (size 15 to 20)
#    0.000    0.000    5.455    3.273    7.636    2.182 
#    0.000    0.000    0.000    0.000    0.000    0.000 
#    0.000    0.000    0.000    0.000    0.000    0.000 
#
# Total GULP energy -123061.471251 kJ/mol
# GULP energy per Si atom -5593.703239 kJ/mol
# Density = 2.511395 g / cm^3
# Si number density = 25.171240 Si / 1000 Ang^3
#
#
#
# Elastic Constant Matrix: (Units=GPa)
#
#
# Indices 1 2 3 4 5 6 
#
# 1 115.1016 27.7601 14.7289 0.0001 28.7790 0.0003
# 2 27.7601 57.4285 20.9066 -0.0003 3.5890 0.0001
# 3 14.7289 20.9066 174.4944 0.0000 21.3817 0.0000
# 4 0.0001 -0.0003 0.0000 32.2394 0.0000 16.4771
# 5 28.7790 3.5890 21.3817 0.0000 48.6591 0.0000
# 6 0.0003 0.0001 0.0000 16.4771 0.0000 30.8866
#
#
#
# Elastic Compliance Matrix: (Units=1/GPa)
#
#
# Indices 1 2 3 4 5 6 
#
# 1 0.011586 -0.005359 0.000481 0.000000 -0.006669 0.000000
# 2 -0.005359 0.020693 -0.002355 0.000000 0.002678 0.000000
# 3 0.000481 -0.002355 0.006327 0.000000 -0.002891 0.000000
# 4 0.000000 0.000000 0.000000 0.042645 0.000000 -0.022750
# 5 -0.006669 0.002678 -0.002891 0.000000 0.025568 0.000000
# 6 0.000000 0.000000 0.000000 -0.022750 0.000000 0.044513
#
#
# Mechanical properties :
#
#
# Convention : Reuss Voigt Hill
#
# Bulk Modulus (GPa) = 41.42420 52.64616 47.03518
# Shear Modulus (GPa) = 28.76116 41.26561 35.01339
#
# Velocity S-wave (km/s) = 3.38393 4.05334 3.73367
# Velocity P-wave (km/s) = 5.63566 6.54726 6.10849
#
# Compressibility (1/GPa) = 0.02414048
#
# Stress axis : x y z
#
# Youngs Moduli (GPa) = 86.30875 48.32441 158.06174
#
# Poissons Ratio (x) = 0.25897 -0.07607
# Poissons Ratio (y) = 0.46254 0.37226
# Poissons Ratio (z) = -0.04154 0.11381
#
# Static dielectric constant tensor:
#      x y z
#    x 2.089100 0.000000 0.077140 
#    y 0.000000 2.158200 0.000000 
#    z 0.077140 0.000000 2.022090 
# 
# From -- ./inp_files/271863.got.cif
#   From: 2010.05.17/outbox.cif.g08.bks.cpg/sg15_136_cif.got.tgz:271863.got - 2010.06.03 18:47:42.
