data_PCOD9307593
_publ_section_title
;
Structure prediction by ZEFSAII (Michael W. Deem and Ramdas Pophale) SiO2 
 PCOD9307593
Probable space group: C 2/C
;
_chemical_formula_sum "Si O2"
_cell_formula_units_Z 32
_cell_length_a 31.532320
_cell_length_b 4.873955
_cell_length_c 8.243028
_cell_angle_alpha 90.000000
_cell_angle_beta 85.105549
_cell_angle_gamma 90.000000
_cell_volume 1262.227663
_symmetry_space_group_name_H-M "C 2/C"
_symmetry_group_IT_number 15
_symmetry_cell_setting 'monoclinic'
loop_
_space_group_symop_operation_xyz
x,y,z
-x,y,1/2-z
-x,-y,-z
x,-y,1/2+z
1/2+x,1/2+y,z
1/2-x,1/2+y,1/2-z
1/2-x,1/2-y,-z
1/2+x,1/2-y,1/2+z
loop_
_atom_site_type_symbol
_atom_site_label
_atom_site_fract_x
_atom_site_fract_y
_atom_site_fract_z
Si Si1 0.919544 0.630137 0.877490
Si Si2 0.452357 0.396319 0.547342
Si Si3 0.173779 0.804276 0.594232
Si Si4 0.706063 0.197961 0.922610
O O1 0.947290 0.759001 0.724001
O O2 0.870887 0.670746 0.840014
O O3 0.936324 0.334481 0.925606
O O4 0.924123 0.832253 0.031149
O O5 0.500000 0.500000 0.500000
O O6 0.205027 0.784234 0.736973
O O7 0.192719 0.615526 0.446496
O O8 0.171882 0.110571 0.527633
O O9 0.750000 0.250000 0.000000
#
# Coordination Sequence:
#
# PCOD9307593 Si02
#       4
#     8   8   8   8
#     4  12  25  46  70 102 137 180 231 285 345 414
#     4  12  27  47  72 102 138 179 227 286 348 415
#     4  12  24  43  70 100 137 183 231 285 341 407
#     4  12  25  44  68 102 141 184 231 284 342 406
#
# _framework density 25.352001999999999
#
# number of rings (size 3 to 8) (size 9 to 14) (size 15 to 20)
#    0.000    0.000    0.000   11.250    0.000    2.000 
#    0.000    0.000    0.000    0.000    0.000    0.000 
#    0.000    0.000    0.000    0.000    0.000    0.000 
#
# Total GULP energy -89758.954024 kJ/mol
# GULP energy per Si atom -5609.934626 kJ/mol
# Density = 2.529430 g / cm^3
# Si number density = 25.352002 Si / 1000 Ang^3
#
#
#
# Elastic Constant Matrix: (Units=GPa)
#
#
# Indices 1 2 3 4 5 6 
#
# 1 112.4139 28.2400 -10.8852 0.0000 -2.4758 0.0000
# 2 28.2400 130.8172 18.1696 0.0000 6.9835 0.0000
# 3 -10.8852 18.1696 91.4034 0.0000 5.2658 0.0000
# 4 0.0000 0.0000 0.0000 42.4286 0.0000 3.1854
# 5 -2.4758 6.9835 5.2658 0.0000 37.0848 0.0000
# 6 0.0000 0.0000 0.0000 3.1854 0.0000 35.7136
#
#
#
# Elastic Compliance Matrix: (Units=1/GPa)
#
#
# Indices 1 2 3 4 5 6 
#
# 1 0.009656 -0.002348 0.001567 0.000000 0.000864 0.000000
# 2 -0.002348 0.008492 -0.001882 0.000000 -0.001489 0.000000
# 3 0.001567 -0.001882 0.011569 0.000000 -0.001184 0.000000
# 4 0.000000 0.000000 0.000000 0.023728 0.000000 -0.002116
# 5 0.000864 -0.001489 -0.001184 0.000000 0.027471 0.000000
# 6 0.000000 0.000000 0.000000 -0.002116 0.000000 0.028189
#
#
# Mechanical properties :
#
#
# Convention : Reuss Voigt Hill
#
# Bulk Modulus (GPa) = 40.99837 45.07591 43.03714
# Shear Modulus (GPa) = 40.79517 42.98609 41.89063
#
# Velocity S-wave (km/s) = 4.01577 4.12220 4.06933
# Velocity P-wave (km/s) = 6.14074 6.36202 6.25236
#
# Compressibility (1/GPa) = 0.02439122
#
# Stress axis : x y z
#
# Youngs Moduli (GPa) = 103.55820 117.75694 86.43468
#
# Poissons Ratio (x) = 0.27653 -0.13544
# Poissons Ratio (y) = 0.24319 0.16267
# Poissons Ratio (z) = -0.16227 0.22162
#
# Static dielectric constant tensor:
#      x y z
#    x 2.050530 0.000000 0.001880 
#    y 0.000000 1.922080 0.000000 
#    z 0.001880 0.000000 1.980530 
# 
# From -- ./inp_files/67885.got.cif
#   From: 2010.05.17/outbox.cif.g08.bks.cpg/sg15_34_cif.got.tgz:67885.got - 2010.06.03 18:47:42.
