data_PCOD9307451
_publ_section_title
;
Structure prediction by ZEFSAII (Michael W. Deem and Ramdas Pophale) SiO2 
 PCOD9307451
Probable space group: C 2/C
;
_chemical_formula_sum "Si O2"
_cell_formula_units_Z 40
_cell_length_a 11.516989
_cell_length_b 20.613951
_cell_length_c 12.226844
_cell_angle_alpha 90.000000
_cell_angle_beta 37.177433
_cell_angle_gamma 90.000000
_cell_volume 1754.109178
_symmetry_space_group_name_H-M "C 2/C"
_symmetry_group_IT_number 15
_symmetry_cell_setting 'monoclinic'
loop_
_space_group_symop_operation_xyz
x,y,z
-x,y,1/2-z
-x,-y,-z
x,-y,1/2+z
1/2+x,1/2+y,z
1/2-x,1/2+y,1/2-z
1/2-x,1/2-y,-z
1/2+x,1/2-y,1/2+z
loop_
_atom_site_type_symbol
_atom_site_label
_atom_site_fract_x
_atom_site_fract_y
_atom_site_fract_z
Si Si1 0.414853 0.335396 0.134385
Si Si2 0.000000 0.595375 0.250000
Si Si3 0.011490 0.650079 0.623425
Si Si4 0.500000 0.559790 0.750000
Si Si5 0.701426 0.805811 0.762809
Si Si6 0.344486 0.010534 0.021887
O O1 0.511121 0.386056 0.144145
O O2 0.357463 0.266145 0.231607
O O3 0.208501 0.360916 0.248949
O O4 0.573599 0.319271 0.923329
O O5 0.092516 0.640849 0.271879
O O6 0.137927 0.546007 0.082265
O O7 0.127442 0.686601 0.441815
O O8 0.117398 0.580885 0.554692
O O9 0.000000 0.683319 0.750000
O O10 0.631608 0.506591 0.717196
O O11 0.500000 0.000000 0.000000
#
# Coordination Sequence:
#
# PCOD9307451 Si02
#       6
#     8   4   8   4   8   8
#     4  12  26  47  76 113 149 196 253 310 381 445
#     4  12  23  44  76 106 149 184 242 320 368 440
#     4  12  28  50  72 106 157 201 250 309 366 454
#     4  12  25  44  82 114 149 198 244 316 394 440
#     4  12  26  46  76 112 146 196 252 309 380 442
#     4  12  24  45  72 110 152 190 245 304 375 455
#
# _framework density 22.803598000000001
#
# number of rings (size 3 to 8) (size 9 to 14) (size 15 to 20)
#    0.000    0.000    9.000    0.600    0.000    4.800 
#    0.000    4.000    0.000    0.000    0.000    0.000 
#    0.000    0.000    0.000    0.000    0.000    0.000 
#
# Total GULP energy -111572.115707 kJ/mol
# GULP energy per Si atom -5578.605785 kJ/mol
# Density = 2.275170 g / cm^3
# Si number density = 22.803598 Si / 1000 Ang^3
#
#
#
# Elastic Constant Matrix: (Units=GPa)
#
#
# Indices 1 2 3 4 5 6 
#
# 1 79.1196 28.7607 39.2786 0.0013 2.2785 -0.0008
# 2 28.7607 119.8792 15.6389 0.0002 -16.5556 -0.0001
# 3 39.2786 15.6389 95.1722 0.0017 -2.6510 -0.0009
# 4 0.0013 0.0002 0.0017 23.9965 -0.0011 -0.9097
# 5 2.2785 -16.5556 -2.6510 -0.0011 32.3759 0.0006
# 6 -0.0008 -0.0001 -0.0009 -0.9097 0.0006 12.6368
#
#
#
# Elastic Compliance Matrix: (Units=1/GPa)
#
#
# Indices 1 2 3 4 5 6 
#
# 1 0.017455 -0.003832 -0.006678 -0.000001 -0.003735 0.000001
# 2 -0.003832 0.009993 0.000090 0.000000 0.005387 0.000000
# 3 -0.006678 0.000090 0.013293 0.000000 0.001604 0.000000
# 4 -0.000001 0.000000 0.000000 0.041787 0.000002 0.003008
# 5 -0.003735 0.005387 0.001604 0.000002 0.034036 -0.000002
# 6 0.000001 0.000000 0.000000 0.003008 -0.000002 0.079351
#
#
# Mechanical properties :
#
#
# Convention : Reuss Voigt Hill
#
# Bulk Modulus (GPa) = 50.25117 51.28082 50.76599
# Shear Modulus (GPa) = 22.38230 27.83469 25.10850
#
# Velocity S-wave (km/s) = 3.13633 3.49754 3.32185
# Velocity P-wave (km/s) = 5.93294 6.23275 6.08469
#
# Compressibility (1/GPa) = 0.01990003
#
# Stress axis : x y z
#
# Youngs Moduli (GPa) = 57.28982 100.06535 75.22519
#
# Poissons Ratio (x) = 0.38348 0.50237
# Poissons Ratio (y) = 0.21955 -0.00674
# Poissons Ratio (z) = 0.38259 -0.00896
#
# Static dielectric constant tensor:
#      x y z
#    x 1.685650 0.000000 0.202260 
#    y 0.000000 1.810830 0.000000 
#    z 0.202260 0.000000 1.671100 
# 
# From -- ./inp_files/89356.got.cif
#   From: 2010.05.17/outbox.cif.g08.bks.cpg/sg15_45_cif.got.tgz:89356.got - 2010.06.03 18:47:42.
