data_PCOD9307881
_publ_section_title
;
Structure prediction by ZEFSAII (Michael W. Deem and Ramdas Pophale) SiO2 
 PCOD9307881
Probable space group: C 2/C
;
_chemical_formula_sum "Si O2"
_cell_formula_units_Z 40
_cell_length_a 10.646187
_cell_length_b 10.976071
_cell_length_c 19.193350
_cell_angle_alpha 90.000000
_cell_angle_beta 137.775429
_cell_angle_gamma 90.000000
_cell_volume 1507.251596
_symmetry_space_group_name_H-M "C 2/C"
_symmetry_group_IT_number 15
_symmetry_cell_setting 'monoclinic'
loop_
_space_group_symop_operation_xyz
x,y,z
-x,y,1/2-z
-x,-y,-z
x,-y,1/2+z
1/2+x,1/2+y,z
1/2-x,1/2+y,1/2-z
1/2-x,1/2-y,-z
1/2+x,1/2-y,1/2+z
loop_
_atom_site_type_symbol
_atom_site_label
_atom_site_fract_x
_atom_site_fract_y
_atom_site_fract_z
Si Si1 0.789324 0.850559 0.650344
Si Si2 0.614542 0.501326 0.118277
Si Si3 0.209315 0.905997 0.442970
Si Si4 0.455180 0.232574 0.934320
Si Si5 0.545826 0.993065 0.661033
O O1 0.656302 0.757885 0.554819
O O2 0.000000 0.810890 0.750000
O O3 0.790778 0.971925 0.603269
O O4 0.676018 0.900250 0.670003
O O5 0.505329 0.402675 0.121424
O O6 0.582998 0.644327 0.121523
O O7 0.834204 0.484567 0.219994
O O8 0.500000 0.500000 0.000000
O O9 0.303545 0.804055 0.432406
O O10 0.342491 0.933713 0.564320
O O11 0.459065 0.119864 0.883034
#
# Coordination Sequence:
#
# PCOD9307881 Si02
#       5
#     8   8   8   8   8
#     4   9  15  35  67  93 117 162 220 279 334 405
#     4  12  25  40  60  96 134 175 232 273 335 415
#     4   9  20  41  64  90 130 166 220 282 326 405
#     4   9  22  40  64  98 124 170 225 276 347 391
#     4   9  20  39  62  89 129 168 219 278 338 410
#
# _framework density 26.538368999999999
#
# number of rings (size 3 to 8) (size 9 to 14) (size 15 to 20)
#    0.000    2.400    2.000    2.400    0.000    8.000 
#    3.600    2.000    0.000    0.000    0.000    0.000 
#    0.000    0.000    0.000    0.000    0.000    0.000 
#
# Total GULP energy -111791.447575 kJ/mol
# GULP energy per Si atom -5589.572379 kJ/mol
# Density = 2.647797 g / cm^3
# Si number density = 26.538369 Si / 1000 Ang^3
#
#
#
# Elastic Constant Matrix: (Units=GPa)
#
#
# Indices 1 2 3 4 5 6 
#
# 1 88.6828 18.2371 33.1379 0.0000 40.4072 0.0000
# 2 18.2371 98.6855 28.5617 0.0000 11.3312 0.0000
# 3 33.1379 28.5617 177.1299 0.0000 23.8257 0.0000
# 4 0.0000 0.0000 0.0000 12.0275 0.0000 7.1448
# 5 40.4072 11.3312 23.8257 0.0000 49.6936 0.0000
# 6 0.0000 0.0000 0.0000 7.1448 0.0000 21.8790
#
#
#
# Elastic Compliance Matrix: (Units=1/GPa)
#
#
# Indices 1 2 3 4 5 6 
#
# 1 0.018471 -0.001412 -0.001337 0.000000 -0.014056 0.000000
# 2 -0.001412 0.010875 -0.001401 0.000000 -0.000660 0.000000
# 3 -0.001337 -0.001401 0.006341 0.000000 -0.001634 0.000000
# 4 0.000000 0.000000 0.000000 0.103153 0.000000 -0.033686
# 5 -0.014056 -0.000660 -0.001634 0.000000 0.032486 0.000000
# 6 0.000000 0.000000 0.000000 -0.033686 0.000000 0.056706
#
#
# Mechanical properties :
#
#
# Convention : Reuss Voigt Hill
#
# Bulk Modulus (GPa) = 36.51388 58.26350 47.38869
# Shear Modulus (GPa) = 20.36973 35.69080 28.03026
#
# Velocity S-wave (km/s) = 2.77349 3.67123 3.25347
# Velocity P-wave (km/s) = 4.90358 6.32240 5.65764
#
# Compressibility (1/GPa) = 0.02738685
#
# Stress axis : x y z
#
# Youngs Moduli (GPa) = 54.14014 91.95104 157.69567
#
# Poissons Ratio (x) = 0.12988 0.21086
# Poissons Ratio (y) = 0.07647 0.22087
# Poissons Ratio (z) = 0.07239 0.12879
#
# Static dielectric constant tensor:
#      x y z
#    x 2.140710 0.000000 -0.049000 
#    y 0.000000 2.019220 0.000000 
#    z -0.049000 0.000000 2.071460 
# 
# From -- ./inp_files/237811.got.cif
#   From: 2010.05.17/outbox.cif.g08.bks.cpg/sg15_119_cif.got.tgz:237811.got - 2010.06.03 18:47:42.
