data_PCOD9307338
_publ_section_title
;
Structure prediction by ZEFSAII (Michael W. Deem and Ramdas Pophale) SiO2 
 PCOD9307338
Probable space group: C 2/C
;
_chemical_formula_sum "Si O2"
_cell_formula_units_Z 32
_cell_length_a 7.586899
_cell_length_b 19.775169
_cell_length_c 19.652121
_cell_angle_alpha 90.000000
_cell_angle_beta 147.851786
_cell_angle_gamma 90.000000
_cell_volume 1568.903989
_symmetry_space_group_name_H-M "C 2/C"
_symmetry_group_IT_number 15
_symmetry_cell_setting 'monoclinic'
loop_
_space_group_symop_operation_xyz
x,y,z
-x,y,1/2-z
-x,-y,-z
x,-y,1/2+z
1/2+x,1/2+y,z
1/2-x,1/2+y,1/2-z
1/2-x,1/2-y,-z
1/2+x,1/2-y,1/2+z
loop_
_atom_site_type_symbol
_atom_site_label
_atom_site_fract_x
_atom_site_fract_y
_atom_site_fract_z
Si Si1 0.773490 0.262038 0.395747
Si Si2 0.893486 0.984544 0.887953
Si Si3 0.909920 0.110135 0.801109
Si Si4 0.768967 0.852627 0.470275
O O1 0.500000 0.241837 0.250000
O O2 0.417530 0.318616 0.122515
O O3 0.956486 0.193567 0.476903
O O4 0.059113 0.305989 0.452760
O O5 0.500000 0.977526 0.750000
O O6 0.010114 0.045789 0.877919
O O7 0.065747 0.912390 0.932693
O O8 0.000000 0.000000 0.000000
O O9 0.512197 0.118911 0.672025
O O10 0.000000 0.099313 0.750000
#
# Coordination Sequence:
#
# PCOD9307338 Si02
#       4
#     8   8   8   8
#     4   8  16  32  59  87 114 158 200 251 299 355
#     4  12  23  38  59  88 124 164 196 250 311 362
#     4   9  20  37  60  90 121 161 204 253 301 361
#     4   9  17  34  58  86 119 157 199 244 305 355
#
# _framework density 20.396404
#
# number of rings (size 3 to 8) (size 9 to 14) (size 15 to 20)
#    0.000    3.000    2.500    0.750    0.000    4.000 
#    0.000    1.250    0.000    0.000    0.000    0.000 
#    0.000    0.000    0.000    0.000    0.000    0.000 
#
# Total GULP energy -89102.341637 kJ/mol
# GULP energy per Si atom -5568.896352 kJ/mol
# Density = 2.034998 g / cm^3
# Si number density = 20.396404 Si / 1000 Ang^3
#
#
#
# Elastic Constant Matrix: (Units=GPa)
#
#
# Indices 1 2 3 4 5 6 
#
# 1 48.9933 41.5532 53.8726 0.0039 -4.3995 0.0010
# 2 41.5532 138.4186 73.0348 0.0038 8.4184 0.0005
# 3 53.8726 73.0348 115.7942 -0.0027 15.5782 0.0002
# 4 0.0039 0.0038 -0.0027 -100.5333 0.0048 18.4703
# 5 -4.3995 8.4184 15.5782 0.0048 33.8155 0.0011
# 6 0.0010 0.0005 0.0002 18.4703 0.0011 18.6151
#
#
#
# Elastic Compliance Matrix: (Units=1/GPa)
#
#
# Indices 1 2 3 4 5 6 
#
# 1 0.052320 -0.004001 -0.024379 0.000002 0.019034 -0.000006
# 2 -0.004001 0.011141 -0.005035 0.000000 -0.000975 0.000000
# 3 -0.024379 -0.005035 0.024959 -0.000002 -0.013416 0.000004
# 4 0.000002 0.000000 -0.000002 -0.008413 0.000002 0.008348
# 5 0.019034 -0.000975 -0.013416 0.000002 0.038472 -0.000005
# 6 -0.000006 0.000000 0.000004 0.008348 -0.000005 0.045437
#
#
# Mechanical properties :
#
#
# Convention : Reuss Voigt Hill
#
# Bulk Modulus (GPa) = 46.31492 71.12524 58.72008
# Shear Modulus (GPa) = 21.01352 -0.63751 10.18800
#
# Velocity S-wave (km/s) = 3.21324 -0.55968 2.23737
# Velocity P-wave (km/s) = 6.04345 5.87618 5.96040
#
# Compressibility (1/GPa) = 0.02159131
#
# Stress axis : x y z
#
# Youngs Moduli (GPa) = 19.11301 89.75665 40.06637
#
# Poissons Ratio (x) = 0.35911 0.97678
# Poissons Ratio (y) = 0.07647 0.20172
# Poissons Ratio (z) = 0.46596 0.45188
#
# Static dielectric constant tensor:
#      x y z
#    x 1.771050 0.000000 0.018940 
#    y 0.000000 1.799320 0.000000 
#    z 0.018940 0.000000 1.725280 
# 
# From -- ./inp_files/22266.got.cif
#   From: 2010.05.17/outbox.cif.g08.bks.cpg/sg15_12_cif.got.tgz:22266.got - 2010.06.03 18:47:42.
