data_PCOD9307682
_publ_section_title
;
Structure prediction by ZEFSAII (Michael W. Deem and Ramdas Pophale) SiO2 
 PCOD9307682
Probable space group: C 2/C
;
_chemical_formula_sum "Si O2"
_cell_formula_units_Z 36
_cell_length_a 25.067441
_cell_length_b 4.861554
_cell_length_c 11.405969
_cell_angle_alpha 90.000000
_cell_angle_beta 103.375612
_cell_angle_gamma 90.000000
_cell_volume 1352.303254
_symmetry_space_group_name_H-M "C 2/C"
_symmetry_group_IT_number 15
_symmetry_cell_setting 'monoclinic'
loop_
_space_group_symop_operation_xyz
x,y,z
-x,y,1/2-z
-x,-y,-z
x,-y,1/2+z
1/2+x,1/2+y,z
1/2-x,1/2+y,1/2-z
1/2-x,1/2-y,-z
1/2+x,1/2-y,1/2+z
loop_
_atom_site_type_symbol
_atom_site_label
_atom_site_fract_x
_atom_site_fract_y
_atom_site_fract_z
Si Si1 0.940911 0.600807 0.663315
Si Si2 0.250000 0.750000 0.000000
Si Si3 0.059687 0.096334 0.987389
Si Si4 0.828400 0.561210 0.196667
Si Si5 0.323970 0.558236 0.341148
O O1 0.940406 0.415341 0.546367
O O2 0.893089 0.485375 0.719729
O O3 0.000000 0.572850 0.750000
O O4 0.930438 0.915267 0.624178
O O5 0.197371 0.557892 0.934111
O O6 0.288463 0.564964 0.927686
O O7 0.111790 0.041672 0.095368
O O8 0.000000 0.000000 0.000000
O O9 0.813988 0.871924 0.220257
O O10 0.809196 0.365804 0.293983
#
# Coordination Sequence:
#
# PCOD9307682 Si02
#       5
#     8   4   8   8   8
#     4  12  24  45  73 109 151 195 246 312 374 450
#     4  12  28  50  76 106 154 194 256 308 378 450
#     4  12  24  45  73 109 151 193 245 312 373 450
#     4  12  27  48  74 110 146 197 248 309 374 446
#     4  12  27  48  74 110 146 196 249 306 374 445
#
# _framework density 26.621245999999999
#
# number of rings (size 3 to 8) (size 9 to 14) (size 15 to 20)
#    0.000    0.000    2.222    8.000    0.000    1.778 
#    0.000    0.000    0.000    0.000    0.000    0.000 
#    0.000    0.000    0.000    0.000    0.000    0.000 
#
# Total GULP energy -100593.337631 kJ/mol
# GULP energy per Si atom -5588.518757 kJ/mol
# Density = 2.656065 g / cm^3
# Si number density = 26.621246 Si / 1000 Ang^3
#
#
#
# Elastic Constant Matrix: (Units=GPa)
#
#
# Indices 1 2 3 4 5 6 
#
# 1 138.4441 5.6734 6.5427 0.0000 7.9391 0.0000
# 2 5.6734 94.1451 12.6434 0.0000 -10.7349 0.0000
# 3 6.5427 12.6434 64.4445 0.0000 -2.7131 0.0000
# 4 0.0000 0.0000 0.0000 57.4375 0.0000 -14.1566
# 5 7.9391 -10.7349 -2.7131 0.0000 42.3362 0.0000
# 6 0.0000 0.0000 0.0000 -14.1566 0.0000 5.8264
#
#
#
# Elastic Compliance Matrix: (Units=1/GPa)
#
#
# Indices 1 2 3 4 5 6 
#
# 1 0.007368 -0.000527 -0.000710 0.000000 -0.001561 0.000000
# 2 -0.000527 0.011248 -0.002035 0.000000 0.002821 0.000000
# 3 -0.000710 -0.002035 0.016016 0.000000 0.000644 0.000000
# 4 0.000000 0.000000 0.000000 0.043402 0.000000 0.105456
# 5 -0.001561 0.002821 0.000644 0.000000 0.024670 0.000000
# 6 0.000000 0.000000 0.000000 0.105456 0.000000 0.427865
#
#
# Mechanical properties :
#
#
# Convention : Reuss Voigt Hill
#
# Bulk Modulus (GPa) = 35.60151 38.52807 37.06479
# Shear Modulus (GPa) = 9.14955 39.26496 24.20726
#
# Velocity S-wave (km/s) = 1.85591 3.84467 3.01877
# Velocity P-wave (km/s) = 4.24204 5.84917 5.10919
#
# Compressibility (1/GPa) = 0.02808870
#
# Stress axis : x y z
#
# Youngs Moduli (GPa) = 135.72613 88.90082 62.43904
#
# Poissons Ratio (x) = 0.04681 0.04436
# Poissons Ratio (y) = 0.07147 0.12704
# Poissons Ratio (z) = 0.09642 0.18088
#
# Static dielectric constant tensor:
#      x y z
#    x 2.131020 0.000000 -0.046630 
#    y 0.000000 1.997870 0.000000 
#    z -0.046630 0.000000 2.140530 
# 
# From -- ./inp_files/120583.got.cif
#   From: 2010.05.17/outbox.cif.g08.bks.cpg/sg15_61_cif.got.tgz:120583.got - 2010.06.03 18:47:42.
