data_PCOD9307428
_publ_section_title
;
Structure prediction by ZEFSAII (Michael W. Deem and Ramdas Pophale) SiO2 
 PCOD9307428
Probable space group: C 2/C
;
_chemical_formula_sum "Si O2"
_cell_formula_units_Z 48
_cell_length_a 15.979943
_cell_length_b 28.445688
_cell_length_c 15.436740
_cell_angle_alpha 90.000000
_cell_angle_beta 162.124432
_cell_angle_gamma 90.000000
_cell_volume 2153.852925
_symmetry_space_group_name_H-M "C 2/C"
_symmetry_group_IT_number 15
_symmetry_cell_setting 'monoclinic'
loop_
_space_group_symop_operation_xyz
x,y,z
-x,y,1/2-z
-x,-y,-z
x,-y,1/2+z
1/2+x,1/2+y,z
1/2-x,1/2+y,1/2-z
1/2-x,1/2-y,-z
1/2+x,1/2-y,1/2+z
loop_
_atom_site_type_symbol
_atom_site_label
_atom_site_fract_x
_atom_site_fract_y
_atom_site_fract_z
Si Si1 0.720132 0.005426 0.028248
Si Si2 0.062713 0.848521 0.217805
Si Si3 0.172120 0.780872 0.165855
Si Si4 0.945248 0.409825 0.824179
Si Si5 0.066894 0.146595 0.417677
Si Si6 0.066647 0.410009 0.483734
O O1 0.000000 0.999252 0.250000
O O2 0.720377 0.041812 0.107427
O O3 0.500000 0.030123 0.750000
O O4 0.567903 0.957770 0.906482
O O5 0.067489 0.814672 0.139794
O O6 0.364618 0.868677 0.522557
O O7 0.000000 0.826901 0.250000
O O8 0.860196 0.893130 0.000022
O O9 0.482203 0.764945 0.482851
O O10 0.149530 0.806796 0.051182
O O11 0.990776 0.412940 0.971503
O O12 0.000000 0.151291 0.250000
O O13 0.787467 0.129952 0.185228
O O14 0.297222 0.107307 0.666929
#
# Coordination Sequence:
#
# PCOD9307428 Si02
#       6
#     8   8   8   8   8   8
#     4  12  25  40  63 102 141 180 235 279 324 391
#     4  12  25  45  72 101 136 182 226 276 343 408
#     4  12  26  46  72 101 138 169 222 290 346 410
#     4  12  23  44  68  99 139 186 229 277 332 397
#     4  12  25  45  72 101 136 182 226 276 343 408
#     4  12  23  44  68  99 139 186 229 277 332 397
#
# _framework density 22.285644000000001
#
# number of rings (size 3 to 8) (size 9 to 14) (size 15 to 20)
#    0.000    0.000    3.333    8.500    0.000    1.333 
#    0.000    5.000    0.000    0.000    0.000    0.000 
#    0.000    0.000    0.000    0.000    0.000    0.000 
#
# Total GULP energy -134150.630547 kJ/mol
# GULP energy per Si atom -5589.609606 kJ/mol
# Density = 2.223492 g / cm^3
# Si number density = 22.285644 Si / 1000 Ang^3
#
#
#
# Elastic Constant Matrix: (Units=GPa)
#
#
# Indices 1 2 3 4 5 6 
#
# 1 123.9036 49.7743 18.9757 -0.0081 -4.1733 0.0047
# 2 49.7743 58.4168 8.4181 0.0031 -3.8659 0.0021
# 3 18.9757 8.4181 97.0446 -0.0132 6.4974 0.0113
# 4 -0.0081 0.0031 -0.0132 76.9519 0.0004 -17.7369
# 5 -4.1733 -3.8659 6.4974 0.0004 36.5768 0.0020
# 6 0.0047 0.0021 0.0113 -17.7369 0.0020 40.6570
#
#
#
# Elastic Compliance Matrix: (Units=1/GPa)
#
#
# Indices 1 2 3 4 5 6 
#
# 1 0.012507 -0.010388 -0.001585 0.000001 0.000611 0.000000
# 2 -0.010388 0.026128 -0.000345 -0.000003 0.001638 -0.000001
# 3 -0.001585 -0.000345 0.010787 0.000001 -0.002134 -0.000002
# 4 0.000001 -0.000003 0.000001 0.014448 -0.000001 0.006303
# 5 0.000611 0.001638 -0.002134 -0.000001 0.027961 -0.000001
# 6 0.000000 -0.000001 -0.000002 0.006303 -0.000001 0.027346
#
#
# Mechanical properties :
#
#
# Convention : Reuss Voigt Hill
#
# Bulk Modulus (GPa) = 40.34589 48.18901 44.26745
# Shear Modulus (GPa) = 32.87844 44.31693 38.59768
#
# Velocity S-wave (km/s) = 3.84516 4.46419 4.16619
# Velocity P-wave (km/s) = 6.15280 6.94567 6.56122
#
# Compressibility (1/GPa) = 0.02478567
#
# Stress axis : x y z
#
# Youngs Moduli (GPa) = 79.95413 38.27384 92.70157
#
# Poissons Ratio (x) = 0.39759 0.14697
# Poissons Ratio (y) = 0.83056 0.03197
# Poissons Ratio (z) = 0.12676 0.01320
#
# Static dielectric constant tensor:
#      x y z
#    x 1.771340 0.000000 0.085770 
#    y 0.000000 1.830920 0.000000 
#    z 0.085770 0.000000 1.603650 
# 
# From -- ./inp_files/157622.got.cif
#   From: 2010.05.17/outbox.cif.g08.bks.cpg/sg15_79_cif.got.tgz:157622.got - 2010.06.03 18:47:42.
