data_PCOD9307050
_publ_section_title
;
Structure prediction by ZEFSAII (Michael W. Deem and Ramdas Pophale) SiO2 
 PCOD9307050
Probable space group: C 2/C
;
_chemical_formula_sum "Si O2"
_cell_formula_units_Z 44
_cell_length_a 20.181598
_cell_length_b 17.514071
_cell_length_c 16.818470
_cell_angle_alpha 90.000000
_cell_angle_beta 18.280634
_cell_angle_gamma 90.000000
_cell_volume 1864.679717
_symmetry_space_group_name_H-M "C 2/C"
_symmetry_group_IT_number 15
_symmetry_cell_setting 'monoclinic'
loop_
_space_group_symop_operation_xyz
x,y,z
-x,y,1/2-z
-x,-y,-z
x,-y,1/2+z
1/2+x,1/2+y,z
1/2-x,1/2+y,1/2-z
1/2-x,1/2-y,-z
1/2+x,1/2-y,1/2+z
loop_
_atom_site_type_symbol
_atom_site_label
_atom_site_fract_x
_atom_site_fract_y
_atom_site_fract_z
Si Si1 0.500000 0.335336 0.250000
Si Si2 0.790565 0.732627 0.620422
Si Si3 0.129046 0.916650 0.731911
Si Si4 0.211680 0.851504 0.479303
Si Si5 0.080514 0.762017 0.875691
Si Si6 0.793149 0.576061 0.537740
O O1 0.351438 0.281577 0.472428
O O2 0.374075 0.388940 0.333357
O O3 0.692907 0.740576 0.827527
O O4 0.831537 0.642901 0.557298
O O5 0.515756 0.741835 0.918527
O O6 0.270019 0.892762 0.494363
O O7 0.131462 0.849102 0.792299
O O8 0.201921 0.998431 0.678028
O O9 0.893865 0.913408 0.960447
O O10 0.366653 0.798210 0.255503
O O11 0.000000 0.805366 0.750000
O O12 0.000000 0.561237 0.250000
#
# Coordination Sequence:
#
# PCOD9307050 Si02
#       6
#     4   8   8   8   8   8
#     4  12  24  50  70  90 136 180 230 284 326 386
#     4  12  24  41  69  94 128 178 226 275 327 396
#     4   9  22  40  65  96 138 173 207 278 337 392
#     4   8  19  40  65  97 133 176 216 259 334 412
#     4  12  21  41  66 101 130 172 222 271 330 402
#     4  12  25  44  70 100 131 179 231 271 338 401
#
# _framework density 23.596544000000002
#
# number of rings (size 3 to 8) (size 9 to 14) (size 15 to 20)
#    1.091    0.000    4.545    3.273    0.000    2.909 
#    0.000    0.000    0.000    5.455    0.000    0.000 
#    0.000    0.000    0.000    0.000    0.000    0.000 
#
# Total GULP energy -122765.956954 kJ/mol
# GULP energy per Si atom -5580.270771 kJ/mol
# Density = 2.354284 g / cm^3
# Si number density = 23.596544 Si / 1000 Ang^3
#
#
#
# Elastic Constant Matrix: (Units=GPa)
#
#
# Indices 1 2 3 4 5 6 
#
# 1 120.5062 49.4535 9.5400 -0.0153 1.0266 0.0235
# 2 49.4535 190.5595 62.2383 -0.0155 1.9253 0.0957
# 3 9.5400 62.2383 168.3534 -0.0707 -14.7370 0.0565
# 4 -0.0153 -0.0155 -0.0707 6.7846 0.0328 -22.1826
# 5 1.0266 1.9253 -14.7370 0.0328 23.9229 0.0259
# 6 0.0235 0.0957 0.0565 -22.1826 0.0259 1.2620
#
#
#
# Elastic Compliance Matrix: (Units=1/GPa)
#
#
# Indices 1 2 3 4 5 6 
#
# 1 0.009313 -0.002556 0.000423 0.000000 0.000067 -0.000006
# 2 -0.002556 0.006756 -0.002527 0.000018 -0.001991 0.000008
# 3 0.000423 -0.002527 0.007258 0.000013 0.004656 -0.000011
# 4 0.000000 0.000018 0.000013 -0.002610 0.000060 -0.045879
# 5 0.000067 -0.001991 0.004656 0.000060 0.044827 0.000071
# 6 -0.000006 0.000008 -0.000011 -0.045879 0.000071 -0.014032
#
#
# Mechanical properties :
#
#
# Convention : Reuss Voigt Hill
#
# Bulk Modulus (GPa) = 71.39139 80.20920 75.80029
# Shear Modulus (GPa) = 76.33441 30.27305 53.30373
#
# Velocity S-wave (km/s) = 5.69386 3.58571 4.75801
# Velocity P-wave (km/s) = 8.57598 7.15603 7.89798
#
# Compressibility (1/GPa) = 0.01400729
#
# Stress axis : x y z
#
# Youngs Moduli (GPa) = 107.37569 148.00588 137.78258
#
# Poissons Ratio (x) = 0.37826 -0.05827
# Poissons Ratio (y) = 0.27442 0.34821
# Poissons Ratio (z) = -0.04541 0.37405
#
# Static dielectric constant tensor:
#      x y z
#    x 1.982180 -0.000030 -0.117380 
#    y -0.000030 1.796390 0.000060 
#    z -0.117380 0.000060 1.970940 
# 
# From -- ./inp_files/219672.got.cif
#   From: 2010.05.17/outbox.cif.g08.bks.cpg/sg15_110_cif.got.tgz:219672.got - 2010.06.03 18:47:42.
