data_PCOD9307871
_publ_section_title
;
Structure prediction by ZEFSAII (Michael W. Deem and Ramdas Pophale) SiO2 
 PCOD9307871
Probable space group: C 2/C
;
_chemical_formula_sum "Si O2"
_cell_formula_units_Z 32
_cell_length_a 15.993292
_cell_length_b 11.566492
_cell_length_c 9.895207
_cell_angle_alpha 90.000000
_cell_angle_beta 40.871738
_cell_angle_gamma 90.000000
_cell_volume 1197.805761
_symmetry_space_group_name_H-M "C 2/C"
_symmetry_group_IT_number 15
_symmetry_cell_setting 'monoclinic'
loop_
_space_group_symop_operation_xyz
x,y,z
-x,y,1/2-z
-x,-y,-z
x,-y,1/2+z
1/2+x,1/2+y,z
1/2-x,1/2+y,1/2-z
1/2-x,1/2-y,-z
1/2+x,1/2-y,1/2+z
loop_
_atom_site_type_symbol
_atom_site_label
_atom_site_fract_x
_atom_site_fract_y
_atom_site_fract_z
Si Si1 0.328217 0.471670 0.563596
Si Si2 0.250000 0.750000 0.000000
Si Si3 0.911573 0.462780 0.983278
Si Si4 0.486064 0.270245 0.475129
Si Si5 0.000000 0.826209 0.750000
O O1 0.274914 0.389060 0.511833
O O2 0.442053 0.396670 0.487815
O O3 0.383393 0.590904 0.438454
O O4 0.224059 0.487703 0.808503
O O5 0.371222 0.747894 0.745380
O O6 0.000000 0.495367 0.750000
O O7 0.898917 0.321052 0.996397
O O8 0.000000 0.500000 0.000000
O O9 0.466364 0.254057 0.658063
#
# Coordination Sequence:
#
# PCOD9307871 Si02
#       5
#     8   4   8   8   4
#     4  12  28  50  83 112 160 205 269 328 405 469
#     4  12  24  52  78 112 152 204 260 326 404 472
#     4  12  30  50  80 116 159 211 265 329 399 476
#     4  12  29  50  79 116 159 207 270 329 409 475
#     4  12  30  48  78 120 154 212 262 340 392 490
#
# _framework density 26.715519
#
# number of rings (size 3 to 8) (size 9 to 14) (size 15 to 20)
#    0.000    0.000    5.000    2.250   12.250    1.000 
#    0.000    0.000    0.000    0.000    0.000    0.000 
#    0.000    0.000    0.000    0.000    0.000    0.000 
#
# Total GULP energy -89430.026109 kJ/mol
# GULP energy per Si atom -5589.376632 kJ/mol
# Density = 2.665471 g / cm^3
# Si number density = 26.715519 Si / 1000 Ang^3
#
#
#
# Elastic Constant Matrix: (Units=GPa)
#
#
# Indices 1 2 3 4 5 6 
#
# 1 70.9007 10.8914 58.9295 0.0000 33.9464 0.0000
# 2 10.8914 102.2919 34.1529 0.0000 6.9937 0.0000
# 3 58.9295 34.1529 231.8090 0.0000 11.7309 0.0000
# 4 0.0000 0.0000 0.0000 58.3107 0.0000 1.1317
# 5 33.9464 6.9937 11.7309 0.0000 67.4492 0.0000
# 6 0.0000 0.0000 0.0000 1.1317 0.0000 49.2164
#
#
#
# Elastic Compliance Matrix: (Units=1/GPa)
#
#
# Indices 1 2 3 4 5 6 
#
# 1 0.024051 0.000057 -0.005559 0.000000 -0.011144 0.000000
# 2 0.000057 0.010326 -0.001493 0.000000 -0.000840 0.000000
# 3 -0.005559 -0.001493 0.005849 0.000000 0.001935 0.000000
# 4 0.000000 0.000000 0.000000 0.017157 0.000000 -0.000395
# 5 -0.011144 -0.000840 0.001935 0.000000 0.020185 0.000000
# 6 0.000000 0.000000 0.000000 -0.000395 0.000000 0.020327
#
#
# Mechanical properties :
#
#
# Convention : Reuss Voigt Hill
#
# Bulk Modulus (GPa) = 38.11545 68.10546 53.11045
# Shear Modulus (GPa) = 41.44874 55.06378 48.25626
#
# Velocity S-wave (km/s) = 3.94316 4.54488 4.25467
# Velocity P-wave (km/s) = 5.91857 7.28625 6.63773
#
# Compressibility (1/GPa) = 0.02623608
#
# Stress axis : x y z
#
# Youngs Moduli (GPa) = 41.57822 96.84418 170.96746
#
# Poissons Ratio (x) = -0.00552 0.95034
# Poissons Ratio (y) = -0.00237 0.25531
# Poissons Ratio (z) = 0.23112 0.14462
#
# Static dielectric constant tensor:
#      x y z
#    x 2.717240 0.000000 -0.107400 
#    y 0.000000 2.129860 0.000000 
#    z -0.107400 0.000000 1.930920 
# 
# From -- ./inp_files/111347.got.cif
#   From: 2010.05.17/outbox.cif.g08.bks.cpg/sg15_56_cif.got.tgz:111347.got - 2010.06.03 18:47:42.
