data_PCOD9307547
_publ_section_title
;
Structure prediction by ZEFSAII (Michael W. Deem and Ramdas Pophale) SiO2 
 PCOD9307547
Probable space group: C 2/C
;
_chemical_formula_sum "Si O2"
_cell_formula_units_Z 48
_cell_length_a 12.092040
_cell_length_b 15.448468
_cell_length_c 19.498557
_cell_angle_alpha 90.000000
_cell_angle_beta 141.945972
_cell_angle_gamma 90.000000
_cell_volume 2245.190020
_symmetry_space_group_name_H-M "C 2/C"
_symmetry_group_IT_number 15
_symmetry_cell_setting 'monoclinic'
loop_
_space_group_symop_operation_xyz
x,y,z
-x,y,1/2-z
-x,-y,-z
x,-y,1/2+z
1/2+x,1/2+y,z
1/2-x,1/2+y,1/2-z
1/2-x,1/2-y,-z
1/2+x,1/2-y,1/2+z
loop_
_atom_site_type_symbol
_atom_site_label
_atom_site_fract_x
_atom_site_fract_y
_atom_site_fract_z
Si Si1 0.000000 0.187292 0.250000
Si Si2 0.373071 0.540865 0.379856
Si Si3 0.500000 0.932344 0.750000
Si Si4 0.844864 0.766327 0.811451
Si Si5 0.259630 0.463576 0.674878
Si Si6 0.791367 0.150261 0.642167
Si Si7 0.974235 0.654042 0.098748
O O1 0.974859 0.238302 0.309039
O O2 0.835786 0.119477 0.171829
O O3 0.500000 0.500000 0.500000
O O4 0.171703 0.517958 0.305934
O O5 0.385798 0.645984 0.375812
O O6 0.378627 0.515134 0.301873
O O7 0.570726 0.873205 0.846338
O O8 0.828068 0.686679 0.853748
O O9 0.641832 0.780609 0.684149
O O10 0.274246 0.547231 0.636479
O O11 0.068323 0.430896 0.609502
O O12 0.695263 0.182215 0.526957
O O13 0.000000 0.174574 0.750000
#
# Coordination Sequence:
#
# PCOD9307547 Si02
#       7
#     4   8   4   8   8   8   8
#     4   8  16  42  64  74 124 174 208 244 292 394
#     4   9  19  35  60  85 124 169 215 255 313 389
#     4   8  18  36  58  84 120 160 200 266 312 350
#     4   9  22  39  57  92 126 163 207 256 329 366
#     4   9  19  38  60  91 116 164 224 249 302 382
#     4  12  24  35  62 100 127 159 208 267 324 379
#     4   9  21  40  58  83 131 165 203 260 314 378
#
# _framework density 21.379037
#
# number of rings (size 3 to 8) (size 9 to 14) (size 15 to 20)
#    0.000    3.333    0.833    0.500    7.000    2.000 
#    0.000    8.333    0.000    0.000    0.000    0.000 
#    0.000    0.000    0.000    0.000    0.000    0.000 
#
# Total GULP energy -133666.889338 kJ/mol
# GULP energy per Si atom -5569.453722 kJ/mol
# Density = 2.133038 g / cm^3
# Si number density = 21.379037 Si / 1000 Ang^3
#
#
#
# Elastic Constant Matrix: (Units=GPa)
#
#
# Indices 1 2 3 4 5 6 
#
# 1 127.8689 9.5876 30.1425 0.0000 -11.1358 0.0000
# 2 9.5876 20.3639 -1.5054 0.0000 2.7997 0.0000
# 3 30.1425 -1.5054 141.5628 0.0001 -11.8040 0.0000
# 4 0.0000 0.0000 0.0001 -26.3815 0.0000 9.3407
# 5 -11.1358 2.7997 -11.8040 0.0000 13.1335 0.0000
# 6 0.0000 0.0000 0.0000 9.3407 0.0000 11.5450
#
#
#
# Elastic Compliance Matrix: (Units=1/GPa)
#
#
# Indices 1 2 3 4 5 6 
#
# 1 0.009236 -0.005518 -0.001377 0.000000 0.007769 0.000000
# 2 -0.005518 0.053906 0.000432 0.000000 -0.015781 0.000000
# 3 -0.001377 0.000432 0.007845 0.000000 0.005791 0.000000
# 4 0.000000 0.000000 0.000000 -0.029465 0.000000 0.023839
# 5 0.007769 -0.015781 0.005791 0.000000 0.091297 0.000000
# 6 0.000000 0.000000 0.000000 0.023839 0.000000 0.067330
#
#
# Mechanical properties :
#
#
# Convention : Reuss Voigt Hill
#
# Bulk Modulus (GPa) = 17.22356 40.69388 28.95872
# Shear Modulus (GPa) = 21.51203 16.43081 18.97142
#
# Velocity S-wave (km/s) = 3.17554 2.77528 2.98213
# Velocity P-wave (km/s) = 4.63888 5.41713 5.04304
#
# Compressibility (1/GPa) = 0.05806001
#
# Stress axis : x y z
#
# Youngs Moduli (GPa) = 108.27745 18.55076 127.47427
#
# Poissons Ratio (x) = 0.10237 0.17558
# Poissons Ratio (y) = 0.59749 -0.05511
# Poissons Ratio (z) = 0.14914 -0.00802
#
# Static dielectric constant tensor:
#      x y z
#    x 1.838660 0.000000 0.000910 
#    y 0.000000 1.803000 0.000000 
#    z 0.000910 0.000000 1.799940 
# 
# From -- ./inp_files/239679.got.cif
#   From: 2010.05.17/outbox.cif.g08.bks.cpg/sg15_120_cif.got.tgz:239679.got - 2010.06.03 18:47:42.
