data_PCOD9307136
_publ_section_title
;
Structure prediction by ZEFSAII (Michael W. Deem and Ramdas Pophale) SiO2 
 PCOD9307136
Probable space group: C 2/C
;
_chemical_formula_sum "Si O2"
_cell_formula_units_Z 60
_cell_length_a 17.127768
_cell_length_b 24.402574
_cell_length_c 16.872524
_cell_angle_alpha 90.000000
_cell_angle_beta 26.510833
_cell_angle_gamma 90.000000
_cell_volume 3147.810326
_symmetry_space_group_name_H-M "C 2/C"
_symmetry_group_IT_number 15
_symmetry_cell_setting 'monoclinic'
loop_
_space_group_symop_operation_xyz
x,y,z
-x,y,1/2-z
-x,-y,-z
x,-y,1/2+z
1/2+x,1/2+y,z
1/2-x,1/2+y,1/2-z
1/2-x,1/2-y,-z
1/2+x,1/2-y,1/2+z
loop_
_atom_site_type_symbol
_atom_site_label
_atom_site_fract_x
_atom_site_fract_y
_atom_site_fract_z
Si Si1 0.131636 0.401180 0.344483
Si Si2 0.029246 0.484552 0.316213
Si Si3 0.261749 0.196477 0.664798
Si Si4 0.000000 0.056645 0.750000
Si Si5 0.725656 0.924589 0.735412
Si Si6 0.177921 0.359364 0.550565
Si Si7 0.829183 0.991950 0.262866
Si Si8 0.147044 0.814396 0.962789
O O1 0.108889 0.428472 0.279686
O O2 0.185978 0.338586 0.306057
O O3 0.271381 0.438193 0.266089
O O4 0.945793 0.409062 0.557635
O O5 0.152858 0.533197 0.235999
O O6 0.000000 0.483774 0.250000
O O7 0.842391 0.493704 0.528922
O O8 0.356233 0.168601 0.502981
O O9 0.303145 0.260286 0.630705
O O10 0.057591 0.188119 0.834061
O O11 0.980849 0.021384 0.687365
O O12 0.171527 0.095078 0.593053
O O13 0.807217 0.870742 0.623196
O O14 0.851453 0.958955 0.679952
O O15 0.249101 0.315285 0.548794
O O16 0.000000 0.381880 0.750000
#
# Coordination Sequence:
#
# PCOD9307136 Si02
#       8
#     8   8   8   4   8   8   8   8
#     4   9  17  38  55  78 117 151 191 242 288 352
#     4   9  19  32  58  86 112 151 196 239 296 349
#     4  12  23  40  56  86 117 151 201 241 291 347
#     4  12  22  38  60  86 122 158 198 234 292 342
#     4   9  20  36  57  83 115 156 195 233 295 343
#     4  12  24  38  57  85 126 158 197 240 284 346
#     4   9  19  36  55  81 120 155 192 243 282 353
#     4  12  24  37  58  84 115 158 197 243 286 354
#
# _framework density 19.060869
#
# number of rings (size 3 to 8) (size 9 to 14) (size 15 to 20)
#    0.000    1.600    2.667    4.400    3.733    0.000 
#    2.400    2.000    0.000    0.000    1.733    2.800 
#    0.000    0.000    0.000    0.000    0.000    0.000 
#
# Total GULP energy -167829.559968 kJ/mol
# GULP energy per Si atom -5594.318666 kJ/mol
# Density = 1.901749 g / cm^3
# Si number density = 19.060869 Si / 1000 Ang^3
#
#
#
# Elastic Constant Matrix: (Units=GPa)
#
#
# Indices 1 2 3 4 5 6 
#
# 1 106.8914 54.8831 13.5639 0.0195 11.6376 0.0005
# 2 54.8831 127.6073 19.5300 0.0177 11.3122 -0.0117
# 3 13.5639 19.5300 73.6130 0.0746 -0.0237 -0.0177
# 4 0.0195 0.0177 0.0746 9.4157 -0.0204 -2.9874
# 5 11.6376 11.3122 -0.0237 -0.0204 23.1236 -0.0049
# 6 0.0005 -0.0117 -0.0177 -2.9874 -0.0049 29.3473
#
#
#
# Elastic Compliance Matrix: (Units=1/GPa)
#
#
# Indices 1 2 3 4 5 6 
#
# 1 0.012384 -0.004830 -0.001002 -0.000019 -0.003871 -0.000005
# 2 -0.004830 0.010439 -0.001880 0.000000 -0.002678 0.000003
# 3 -0.001002 -0.001880 0.014269 -0.000105 0.001439 -0.000003
# 4 -0.000019 0.000000 -0.000105 0.109751 0.000109 0.011172
# 5 -0.003871 -0.002678 0.001439 0.000109 0.046506 0.000019
# 6 -0.000005 0.000003 -0.000003 0.011172 0.000019 0.035212
#
#
# Mechanical properties :
#
#
# Convention : Reuss Voigt Hill
#
# Bulk Modulus (GPa) = 46.15205 53.78509 49.96857
# Shear Modulus (GPa) = 19.90400 27.05297 23.47848
#
# Velocity S-wave (km/s) = 3.23497 3.77144 3.51346
# Velocity P-wave (km/s) = 6.18214 6.87341 6.53692
#
# Compressibility (1/GPa) = 0.02166751
#
# Stress axis : x y z
#
# Youngs Moduli (GPa) = 80.75194 95.79500 70.08400
#
# Poissons Ratio (x) = 0.46266 0.07020
# Poissons Ratio (y) = 0.39000 0.13179
# Poissons Ratio (z) = 0.08089 0.18014
#
# Static dielectric constant tensor:
#      x y z
#    x 1.671480 -0.000010 -0.005750 
#    y -0.000010 1.681050 0.000030 
#    z -0.005750 0.000030 1.722010 
# 
# From -- ./inp_files/157318.got.cif
#   From: 2010.05.17/outbox.cif.g08.bks.cpg/sg15_79_cif.got.tgz:157318.got - 2010.06.03 18:47:42.
