data_PCOD9307640
_publ_section_title
;
Structure prediction by ZEFSAII (Michael W. Deem and Ramdas Pophale) SiO2 
 PCOD9307640
Probable space group: C 2/C
;
_chemical_formula_sum "Si O2"
_cell_formula_units_Z 40
_cell_length_a 11.475013
_cell_length_b 29.433487
_cell_length_c 5.369074
_cell_angle_alpha 90.000000
_cell_angle_beta 64.162623
_cell_angle_gamma 90.000000
_cell_volume 1632.125404
_symmetry_space_group_name_H-M "C 2/C"
_symmetry_group_IT_number 15
_symmetry_cell_setting 'monoclinic'
loop_
_space_group_symop_operation_xyz
x,y,z
-x,y,1/2-z
-x,-y,-z
x,-y,1/2+z
1/2+x,1/2+y,z
1/2-x,1/2+y,1/2-z
1/2-x,1/2-y,-z
1/2+x,1/2-y,1/2+z
loop_
_atom_site_type_symbol
_atom_site_label
_atom_site_fract_x
_atom_site_fract_y
_atom_site_fract_z
Si Si1 0.500000 0.898626 0.750000
Si Si2 0.000000 0.924019 0.250000
Si Si3 0.277348 0.028211 0.473052
Si Si4 0.797916 0.342300 0.707438
Si Si5 0.076836 0.253407 0.932403
Si Si6 0.354395 0.647968 0.635595
O O1 0.618366 0.932123 0.576759
O O2 0.439521 0.864566 0.602529
O O3 0.129422 0.953697 0.109295
O O4 0.032490 0.888775 0.441609
O O5 0.297297 0.006670 0.181806
O O6 0.801880 0.287456 0.687296
O O7 0.731566 0.361532 0.524321
O O8 0.724048 0.353330 0.031943
O O9 0.099286 0.199807 0.926820
O O10 0.000000 0.262348 0.750000
O O11 0.000000 0.267250 0.250000
#
# Coordination Sequence:
#
# PCOD9307640 Si02
#       6
#     4   4   8   8   8   8
#     4  12  28  53  84 116 154 200 258 321 384 464
#     4  12  28  53  84 116 154 200 258 321 384 464
#     4  12  30  54  82 113 154 197 250 322 404 470
#     4  12  27  47  76 111 159 206 259 312 372 452
#     4  12  24  44  72 109 161 211 255 311 372 439
#     4  12  27  47  76 111 159 206 259 312 372 452
#
# _framework density 24.507919000000001
#
# number of rings (size 3 to 8) (size 9 to 14) (size 15 to 20)
#    0.000    0.000    4.000    4.800    2.800    3.200 
#    0.000    0.000    0.000    0.000    0.000    0.000 
#    0.000    0.000    0.000    0.000    0.000    0.000 
#
# Total GULP energy -112064.755059 kJ/mol
# GULP energy per Si atom -5603.237753 kJ/mol
# Density = 2.445214 g / cm^3
# Si number density = 24.507919 Si / 1000 Ang^3
#
#
#
# Elastic Constant Matrix: (Units=GPa)
#
#
# Indices 1 2 3 4 5 6 
#
# 1 132.4821 12.9292 50.2569 0.0000 37.8390 0.0000
# 2 12.9292 74.6608 5.0637 0.0000 3.7491 0.0000
# 3 50.2569 5.0637 138.7897 0.0000 30.0674 0.0000
# 4 0.0000 0.0000 0.0000 -10.1414 0.0000 -13.3798
# 5 37.8390 3.7491 30.0674 0.0000 54.9591 0.0000
# 6 0.0000 0.0000 0.0000 -13.3798 0.0000 63.3879
#
#
#
# Elastic Compliance Matrix: (Units=1/GPa)
#
#
# Indices 1 2 3 4 5 6 
#
# 1 0.010199 -0.001320 -0.002432 0.000000 -0.005602 0.000000
# 2 -0.001320 0.013624 -0.000017 0.000000 -0.000011 0.000000
# 3 -0.002432 -0.000017 0.008762 0.000000 -0.003118 0.000000
# 4 0.000000 0.000000 0.000000 -0.077127 0.000000 -0.016280
# 5 -0.005602 -0.000011 -0.003118 0.000000 0.023759 0.000000
# 6 0.000000 0.000000 0.000000 -0.016280 0.000000 0.012340
#
#
# Mechanical properties :
#
#
# Convention : Reuss Voigt Hill
#
# Bulk Modulus (GPa) = 39.92163 53.60356 46.76260
# Shear Modulus (GPa) = 671.79548 40.15331 355.97440
#
# Velocity S-wave (km/s) = 16.57434 4.05208 12.06499
# Velocity P-wave (km/s) = 19.56024 6.61906 14.60162
#
# Compressibility (1/GPa) = 0.02504907
#
# Stress axis : x y z
#
# Youngs Moduli (GPa) = 98.04480 73.39876 114.13229
#
# Poissons Ratio (x) = 0.09689 0.27752
# Poissons Ratio (y) = 0.12942 0.00189
# Poissons Ratio (z) = 0.23840 0.00122
#
# Static dielectric constant tensor:
#      x y z
#    x 1.952090 0.000000 -0.085590 
#    y 0.000000 1.952160 0.000000 
#    z -0.085590 0.000000 1.922080 
# 
# From -- ./inp_files/5734.got.cif
#   From: 2010.05.17/outbox.cif.g08.bks.cpg/sg15_3_cif.got.tgz:5734.got - 2010.06.03 18:47:42.
