data_PCOD9307425
_publ_section_title
;
Structure prediction by ZEFSAII (Michael W. Deem and Ramdas Pophale) SiO2 
 PCOD9307425
Probable space group: C 2/C
;
_chemical_formula_sum "Si O2"
_cell_formula_units_Z 28
_cell_length_a 24.024113
_cell_length_b 5.272688
_cell_length_c 9.092229
_cell_angle_alpha 90.000000
_cell_angle_beta 106.063261
_cell_angle_gamma 90.000000
_cell_volume 1106.760509
_symmetry_space_group_name_H-M "C 2/C"
_symmetry_group_IT_number 15
_symmetry_cell_setting 'monoclinic'
loop_
_space_group_symop_operation_xyz
x,y,z
-x,y,1/2-z
-x,-y,-z
x,-y,1/2+z
1/2+x,1/2+y,z
1/2-x,1/2+y,1/2-z
1/2-x,1/2-y,-z
1/2+x,1/2-y,1/2+z
loop_
_atom_site_type_symbol
_atom_site_label
_atom_site_fract_x
_atom_site_fract_y
_atom_site_fract_z
Si Si1 0.935286 0.989472 0.014661
Si Si2 0.268587 0.138539 0.675550
Si Si3 0.000000 0.611551 0.250000
Si Si4 0.397858 0.177187 0.741398
O O1 0.910870 0.224663 0.086749
O O2 0.947996 0.774396 0.144143
O O3 0.959477 0.549609 0.829026
O O4 0.000000 0.000000 0.000000
O O5 0.261345 0.382240 0.780985
O O6 0.250000 0.250000 0.500000
O O7 0.335868 0.052638 0.707486
O O8 0.105419 0.091445 0.146198
#
# Coordination Sequence:
#
# PCOD9307425 Si02
#       4
#     8   8   4   8
#     4  12  23  44  63 110 146 183 232 297 381 451
#     4  12  30  54  80 113 153 210 268 319 382 454
#     4  12  24  38  72 104 140 180 238 290 382 430
#     4  12  27  43  75 101 148 186 241 307 367 451
#
# _framework density 25.299060000000001
#
# number of rings (size 3 to 8) (size 9 to 14) (size 15 to 20)
#    0.000    0.000    5.714    3.429    8.000    0.000 
#    0.000    0.000    0.000    0.000    0.000    0.000 
#    0.000    0.000    0.000    0.000    0.000    0.000 
#
# Total GULP energy -78101.576710 kJ/mol
# GULP energy per Si atom -5578.684051 kJ/mol
# Density = 2.524148 g / cm^3
# Si number density = 25.299060 Si / 1000 Ang^3
#
#
#
# Elastic Constant Matrix: (Units=GPa)
#
#
# Indices 1 2 3 4 5 6 
#
# 1 195.3849 26.4260 4.4227 0.0000 -20.2703 0.0000
# 2 26.4260 91.6890 4.8885 0.0000 -22.3279 0.0000
# 3 4.4227 4.8885 72.6129 0.0000 -13.5030 0.0000
# 4 0.0000 0.0000 0.0000 40.2047 0.0000 -5.3685
# 5 -20.2703 -22.3279 -13.5030 0.0000 26.1428 0.0000
# 6 0.0000 0.0000 0.0000 -5.3685 0.0000 33.7624
#
#
#
# Elastic Compliance Matrix: (Units=1/GPa)
#
#
# Indices 1 2 3 4 5 6 
#
# 1 0.005615 -0.000663 0.000450 0.000000 0.004019 0.000000
# 2 -0.000663 0.013978 0.001354 0.000000 0.012123 0.000000
# 3 0.000450 0.001354 0.015413 0.000000 0.009466 0.000000
# 4 0.000000 0.000000 0.000000 0.025412 0.000000 0.004041
# 5 0.004019 0.012123 0.009466 0.000000 0.056611 0.000000
# 6 0.000000 0.000000 0.000000 0.004041 0.000000 0.030261
#
#
# Mechanical properties :
#
#
# Convention : Reuss Voigt Hill
#
# Bulk Modulus (GPa) = 26.81940 47.90680 37.36310
# Shear Modulus (GPa) = 31.75845 41.61860 36.68853
#
# Velocity S-wave (km/s) = 3.54690 4.06034 3.81227
# Velocity P-wave (km/s) = 5.23430 6.39993 5.84624
#
# Compressibility (1/GPa) = 0.03728645
#
# Stress axis : x y z
#
# Youngs Moduli (GPa) = 178.10628 71.54313 64.87836
#
# Poissons Ratio (x) = 0.04747 -0.02920
# Poissons Ratio (y) = 0.11816 -0.08783
# Poissons Ratio (z) = -0.08017 -0.09685
#
# Static dielectric constant tensor:
#      x y z
#    x 1.929600 0.000000 -0.029810 
#    y 0.000000 5.825010 0.000000 
#    z -0.029810 0.000000 1.818200 
# 
# From -- ./inp_files/59496.got.cif
#   From: 2010.05.17/outbox.cif.g08.bks.cpg/sg15_30_cif.got.tgz:59496.got - 2010.06.03 18:47:42.
