data_PCOD9307570
_publ_section_title
;
Structure prediction by ZEFSAII (Michael W. Deem and Ramdas Pophale) SiO2 
 PCOD9307570
Probable space group: C 2/C
;
_chemical_formula_sum "Si O2"
_cell_formula_units_Z 32
_cell_length_a 26.139362
_cell_length_b 5.626963
_cell_length_c 9.519390
_cell_angle_alpha 90.000000
_cell_angle_beta 91.710067
_cell_angle_gamma 90.000000
_cell_volume 1399.538012
_symmetry_space_group_name_H-M "C 2/C"
_symmetry_group_IT_number 15
_symmetry_cell_setting 'monoclinic'
loop_
_space_group_symop_operation_xyz
x,y,z
-x,y,1/2-z
-x,-y,-z
x,-y,1/2+z
1/2+x,1/2+y,z
1/2-x,1/2+y,1/2-z
1/2-x,1/2-y,-z
1/2+x,1/2-y,1/2+z
loop_
_atom_site_type_symbol
_atom_site_label
_atom_site_fract_x
_atom_site_fract_y
_atom_site_fract_z
Si Si1 0.983720 0.748066 0.580684
Si Si2 0.317254 0.460722 0.294188
Si Si3 0.712790 0.915121 0.905892
Si Si4 0.137303 0.768922 0.948436
O O1 0.922114 0.734622 0.572709
O O2 0.000000 0.752493 0.750000
O O3 0.000000 0.500000 0.500000
O O4 0.000000 0.000000 0.500000
O O5 0.324380 0.229704 0.198643
O O6 0.257214 0.448142 0.325148
O O7 0.351281 0.467147 0.434948
O O8 0.335817 0.669158 0.195645
O O9 0.675037 0.060230 0.002170
O O10 0.750000 0.750000 0.000000
#
# Coordination Sequence:
#
# PCOD9307570 Si02
#       4
#     8   8   8   8
#     4  12  30  55  84 118 158 208 280 345 403 473
#     4  12  24  43  67 107 147 189 242 296 377 462
#     4  12  24  41  67 107 151 189 242 299 372 469
#     4  12  28  43  77 102 150 200 246 316 389 455
#
# _framework density 22.86469
#
# number of rings (size 3 to 8) (size 9 to 14) (size 15 to 20)
#    0.000    0.000    5.000    4.500    7.000    0.000 
#    0.000    0.000    0.000    0.000    0.000    0.000 
#    0.000    0.000    0.000    0.000    0.000    0.000 
#
# Total GULP energy -89206.809937 kJ/mol
# GULP energy per Si atom -5575.425621 kJ/mol
# Density = 2.281265 g / cm^3
# Si number density = 22.864690 Si / 1000 Ang^3
#
#
#
# Elastic Constant Matrix: (Units=GPa)
#
#
# Indices 1 2 3 4 5 6 
#
# 1 204.7454 42.6407 60.7221 0.0000 9.6279 0.0000
# 2 42.6407 97.3666 55.4013 0.0000 0.9204 0.0000
# 3 60.7221 55.4013 157.1272 0.0000 10.3179 0.0000
# 4 0.0000 0.0000 0.0000 37.4384 0.0000 0.6733
# 5 9.6279 0.9204 10.3179 0.0000 21.4294 0.0000
# 6 0.0000 0.0000 0.0000 0.6733 0.0000 26.3049
#
#
#
# Elastic Compliance Matrix: (Units=1/GPa)
#
#
# Indices 1 2 3 4 5 6 
#
# 1 0.005763 -0.001634 -0.001534 0.000000 -0.001780 0.000000
# 2 -0.001634 0.013370 -0.004227 0.000000 0.002195 0.000000
# 3 -0.001534 -0.004227 0.008664 0.000000 -0.003301 0.000000
# 4 0.000000 0.000000 0.000000 0.026723 0.000000 -0.000684
# 5 -0.001780 0.002195 -0.003301 0.000000 0.048960 0.000000
# 6 0.000000 0.000000 0.000000 -0.000684 0.000000 0.038033
#
#
# Mechanical properties :
#
#
# Convention : Reuss Voigt Hill
#
# Bulk Modulus (GPa) = 76.87845 86.30750 81.59298
# Shear Modulus (GPa) = 31.12550 37.06619 34.09584
#
# Velocity S-wave (km/s) = 3.69357 4.03067 3.86580
# Velocity P-wave (km/s) = 7.20321 7.71302 7.46247
#
# Compressibility (1/GPa) = 0.01300755
#
# Stress axis : x y z
#
# Youngs Moduli (GPa) = 173.51638 74.79160 115.41721
#
# Poissons Ratio (x) = 0.12222 0.17706
# Poissons Ratio (y) = 0.28356 0.48786
# Poissons Ratio (z) = 0.26618 0.31614
#
# Static dielectric constant tensor:
#      x y z
#    x 1.794050 0.000000 -0.042380 
#    y 0.000000 2.101640 0.000000 
#    z -0.042380 0.000000 2.063670 
# 
# From -- ./inp_files/68018.got.cif
#   From: 2010.05.17/outbox.cif.g08.bks.cpg/sg15_35_cif.got.tgz:68018.got - 2010.06.03 18:47:42.
