data_PCOD9307260
_publ_section_title
;
Structure prediction by ZEFSAII (Michael W. Deem and Ramdas Pophale) SiO2 
 PCOD9307260
Probable space group: C 2/C
;
_chemical_formula_sum "Si O2"
_cell_formula_units_Z 48
_cell_length_a 23.865205
_cell_length_b 16.796229
_cell_length_c 8.135659
_cell_angle_alpha 90.000000
_cell_angle_beta 132.984555
_cell_angle_gamma 90.000000
_cell_volume 2385.647638
_symmetry_space_group_name_H-M "C 2/C"
_symmetry_group_IT_number 15
_symmetry_cell_setting 'monoclinic'
loop_
_space_group_symop_operation_xyz
x,y,z
-x,y,1/2-z
-x,-y,-z
x,-y,1/2+z
1/2+x,1/2+y,z
1/2-x,1/2+y,1/2-z
1/2-x,1/2-y,-z
1/2+x,1/2-y,1/2+z
loop_
_atom_site_type_symbol
_atom_site_label
_atom_site_fract_x
_atom_site_fract_y
_atom_site_fract_z
Si Si1 0.500000 0.141163 0.250000
Si Si2 0.339710 0.892044 0.879495
Si Si3 0.085459 0.534826 0.648338
Si Si4 0.839710 0.107955 0.479343
Si Si5 0.412430 0.250000 0.324860
Si Si6 0.000000 0.858836 0.750000
Si Si7 0.585459 0.534826 0.193500
O O1 0.571124 0.090528 0.462154
O O2 0.467009 0.193947 0.328449
O O3 0.250000 0.891294 0.737626
O O4 0.364708 0.808249 0.849234
O O5 0.359403 0.962344 0.789188
O O6 0.386757 0.915942 0.138037
O O7 0.000000 0.500000 0.500000
O O8 0.864708 0.191751 0.609599
O O9 0.886757 0.084059 0.408992
O O10 0.859403 0.037655 0.648423
O O11 0.467009 0.306053 0.539586
O O12 0.928876 0.909471 0.677659
O O13 0.500000 0.500000 0.000000
#
# Coordination Sequence:
#
# PCOD9307260 Si02
#       7
#     4   8   8   8   8   4   8
#     4  12  24  40  72  96 130 172 232 282 316 384
#     4  12  25  43  67 100 140 175 216 277 341 397
#     4  12  22  44  70  99 125 178 234 272 319 395
#     4  12  25  43  67 100 140 175 216 277 341 397
#     4  12  25  42  64 102 139 174 218 274 339 396
#     4  12  24  40  72  96 130 172 232 282 316 384
#     4  12  22  44  70  99 125 178 234 272 319 395
#
# _framework density 20.120322999999999
#
# number of rings (size 3 to 8) (size 9 to 14) (size 15 to 20)
#    0.000    0.000    6.667    3.500    0.000    0.000 
#    0.000    6.667    0.000    0.000    0.000    0.000 
#    0.000    0.000    0.000    0.000    0.000    0.000 
#
# Total GULP energy -134205.141277 kJ/mol
# GULP energy per Si atom -5591.880887 kJ/mol
# Density = 2.007453 g / cm^3
# Si number density = 20.120323 Si / 1000 Ang^3
#
#
#
# Elastic Constant Matrix: (Units=GPa)
#
#
# Indices 1 2 3 4 5 6 
#
# 1 82.5001 21.4794 23.2395 0.0000 5.5928 0.0000
# 2 21.4794 99.3752 21.3292 0.0000 -2.6393 0.0000
# 3 23.2395 21.3292 83.1648 0.0000 6.0922 0.0000
# 4 0.0000 0.0000 0.0000 32.4470 0.0000 -27.6423
# 5 5.5928 -2.6393 6.0922 0.0000 38.5693 0.0000
# 6 0.0000 0.0000 0.0000 -27.6423 0.0000 34.0202
#
#
#
# Elastic Compliance Matrix: (Units=1/GPa)
#
#
# Indices 1 2 3 4 5 6 
#
# 1 0.013720 -0.002342 -0.003112 0.000000 -0.001658 0.000000
# 2 -0.002342 0.011101 -0.002300 0.000000 0.001463 0.000000
# 3 -0.003112 -0.002300 0.013620 0.000000 -0.001857 0.000000
# 4 0.000000 0.000000 0.000000 0.100132 0.000000 0.081360
# 5 -0.001658 0.001463 -0.001857 0.000000 0.026561 0.000000
# 6 0.000000 0.000000 0.000000 0.081360 0.000000 0.095502
#
#
# Mechanical properties :
#
#
# Convention : Reuss Voigt Hill
#
# Bulk Modulus (GPa) = 43.60283 44.12626 43.86454
# Shear Modulus (GPa) = 17.61878 34.27342 25.94610
#
# Velocity S-wave (km/s) = 2.96238 4.13173 3.59492
# Velocity P-wave (km/s) = 5.78092 6.68883 6.25138
#
# Compressibility (1/GPa) = 0.02293429
#
# Stress axis : x y z
#
# Youngs Moduli (GPa) = 72.88717 90.07799 73.42232
#
# Poissons Ratio (x) = 0.21093 0.22848
# Poissons Ratio (y) = 0.17067 0.16887
# Poissons Ratio (z) = 0.22681 0.20718
#
# Static dielectric constant tensor:
#      x y z
#    x 1.709380 0.000000 -0.042070 
#    y 0.000000 1.771980 0.000000 
#    z -0.042070 0.000000 1.706990 
# 
# From -- ./inp_files/47493.got.cif
#   From: 2010.05.17/outbox.cif.g08.bks.cpg/sg15_24_cif.got.tgz:47493.got - 2010.06.03 18:47:42.
