data_PCOD9307832
_publ_section_title
;
Structure prediction by ZEFSAII (Michael W. Deem and Ramdas Pophale) SiO2 
 PCOD9307832
Probable space group: C 2/C
;
_chemical_formula_sum "Si O2"
_cell_formula_units_Z 32
_cell_length_a 11.273584
_cell_length_b 18.487218
_cell_length_c 8.439796
_cell_angle_alpha 90.000000
_cell_angle_beta 52.302917
_cell_angle_gamma 90.000000
_cell_volume 1391.815923
_symmetry_space_group_name_H-M "C 2/C"
_symmetry_group_IT_number 15
_symmetry_cell_setting 'monoclinic'
loop_
_space_group_symop_operation_xyz
x,y,z
-x,y,1/2-z
-x,-y,-z
x,-y,1/2+z
1/2+x,1/2+y,z
1/2-x,1/2+y,1/2-z
1/2-x,1/2-y,-z
1/2+x,1/2-y,1/2+z
loop_
_atom_site_type_symbol
_atom_site_label
_atom_site_fract_x
_atom_site_fract_y
_atom_site_fract_z
Si Si1 0.642909 0.970608 0.738396
Si Si2 0.952288 0.661367 0.970913
Si Si3 0.768881 0.223308 0.806023
Si Si4 0.651646 0.428957 0.206964
O O1 0.500000 0.995929 0.750000
O O2 0.738015 0.926180 0.532669
O O3 0.757643 0.026233 0.731793
O O4 0.584908 0.914954 0.917742
O O5 0.000000 0.654865 0.750000
O O6 0.104046 0.694062 0.912528
O O7 0.823041 0.716758 0.135586
O O8 0.875570 0.152369 0.709456
O O9 0.750000 0.250000 0.000000
O O10 0.500000 0.460310 0.250000
#
# Coordination Sequence:
#
# PCOD9307832 Si02
#       4
#     8   8   8   8
#     4  12  26  49  76 110 151 201 254 308 378 452
#     4  12  27  48  75 113 147 196 253 316 375 449
#     4  12  24  49  77 105 148 197 253 304 380 447
#     4  12  27  47  76 113 153 198 251 313 378 448
#
# _framework density 22.991546
#
# number of rings (size 3 to 8) (size 9 to 14) (size 15 to 20)
#    0.000    0.000    5.000    4.500    3.500    0.000 
#    0.000    0.000    0.000    0.000    0.000    0.000 
#    0.000    0.000    0.000    0.000    0.000    0.000 
#
# Total GULP energy -89367.201188 kJ/mol
# GULP energy per Si atom -5585.450074 kJ/mol
# Density = 2.293922 g / cm^3
# Si number density = 22.991546 Si / 1000 Ang^3
#
#
#
# Elastic Constant Matrix: (Units=GPa)
#
#
# Indices 1 2 3 4 5 6 
#
# 1 134.7078 57.9338 7.7714 0.0000 -0.0574 0.0000
# 2 57.9338 155.0996 54.3315 0.0000 25.4259 0.0000
# 3 7.7714 54.3315 141.4032 0.0000 20.1446 0.0000
# 4 0.0000 0.0000 0.0000 42.2742 0.0000 0.2786
# 5 -0.0574 25.4259 20.1446 0.0000 39.5415 0.0000
# 6 0.0000 0.0000 0.0000 0.2786 0.0000 26.6198
#
#
#
# Elastic Compliance Matrix: (Units=1/GPa)
#
#
# Indices 1 2 3 4 5 6 
#
# 1 0.009113 -0.004025 0.000728 0.000000 0.002230 0.000000
# 2 -0.004025 0.009733 -0.002832 0.000000 -0.004822 0.000000
# 3 0.000728 -0.002832 0.008476 0.000000 -0.002496 0.000000
# 4 0.000000 0.000000 0.000000 0.023657 0.000000 -0.000248
# 5 0.002230 -0.004822 -0.002496 0.000000 0.029665 0.000000
# 6 0.000000 0.000000 0.000000 -0.000248 0.000000 0.037569
#
#
# Mechanical properties :
#
#
# Convention : Reuss Voigt Hill
#
# Bulk Modulus (GPa) = 66.37887 74.58711 70.48299
# Shear Modulus (GPa) = 36.90272 42.43203 39.66738
#
# Velocity S-wave (km/s) = 4.01066 4.30065 4.15818
# Velocity P-wave (km/s) = 7.09795 7.56123 7.33325
#
# Compressibility (1/GPa) = 0.01506504
#
# Stress axis : x y z
#
# Youngs Moduli (GPa) = 109.72963 102.74152 117.98595
#
# Poissons Ratio (x) = 0.41350 -0.08587
# Poissons Ratio (y) = 0.44162 0.33410
# Poissons Ratio (z) = -0.07986 0.29093
#
# Static dielectric constant tensor:
#      x y z
#    x 1.885360 0.000000 -0.048810 
#    y 0.000000 1.932300 0.000000 
#    z -0.048810 0.000000 1.771020 
# 
# From -- ./inp_files/28627.got.cif
#   From: 2010.05.17/outbox.cif.g08.bks.cpg/sg15_15_cif.got.tgz:28627.got - 2010.06.03 18:47:42.
