data_PCOD9307742
_publ_section_title
;
Structure prediction by ZEFSAII (Michael W. Deem and Ramdas Pophale) SiO2 
 PCOD9307742
Probable space group: C 2/C
;
_chemical_formula_sum "Si O2"
_cell_formula_units_Z 36
_cell_length_a 8.046190
_cell_length_b 14.473862
_cell_length_c 23.033195
_cell_angle_alpha 90.000000
_cell_angle_beta 147.432561
_cell_angle_gamma 90.000000
_cell_volume 1443.932091
_symmetry_space_group_name_H-M "C 2/C"
_symmetry_group_IT_number 15
_symmetry_cell_setting 'monoclinic'
loop_
_space_group_symop_operation_xyz
x,y,z
-x,y,1/2-z
-x,-y,-z
x,-y,1/2+z
1/2+x,1/2+y,z
1/2-x,1/2+y,1/2-z
1/2-x,1/2-y,-z
1/2+x,1/2-y,1/2+z
loop_
_atom_site_type_symbol
_atom_site_label
_atom_site_fract_x
_atom_site_fract_y
_atom_site_fract_z
Si Si1 0.649967 0.758524 0.403857
Si Si2 0.106320 0.895423 0.217518
Si Si3 0.834663 0.901215 0.953091
Si Si4 0.007053 0.400314 0.972901
Si Si5 0.500000 0.964483 0.750000
O O1 0.750000 0.750000 0.500000
O O2 0.334984 0.811015 0.299186
O O3 0.915740 0.825283 0.456440
O O4 0.700859 0.657849 0.392979
O O5 0.289277 0.968852 0.229796
O O6 0.000000 0.932702 0.250000
O O7 0.806720 0.859034 0.094561
O O8 0.696743 0.897117 0.848680
O O9 0.578364 0.904726 0.926593
O O10 0.000000 0.000000 0.000000
O O11 0.000000 0.500000 0.000000
#
# Coordination Sequence:
#
# PCOD9307742 Si02
#       5
#     8   8   8   8   4
#     4  12  26  47  75 118 161 202 266 326 396 475
#     4  12  24  46  79 115 156 212 260 324 395 481
#     4  12  24  47  76 112 157 208 253 335 395 469
#     4  12  26  50  81 113 161 208 266 329 398 475
#     4  12  26  46  80 114 158 208 270 314 412 472
#
# _framework density 24.931920999999999
#
# number of rings (size 3 to 8) (size 9 to 14) (size 15 to 20)
#    0.000    0.000    6.667    3.333    0.000    1.778 
#    0.000    2.222    2.444    0.000    0.000    0.000 
#    0.000    0.000    0.000    0.000    0.000    0.000 
#
# Total GULP energy -100897.668036 kJ/mol
# GULP energy per Si atom -5605.426002 kJ/mol
# Density = 2.487518 g / cm^3
# Si number density = 24.931921 Si / 1000 Ang^3
#
#
#
# Elastic Constant Matrix: (Units=GPa)
#
#
# Indices 1 2 3 4 5 6 
#
# 1 175.6722 34.8126 16.0484 0.0000 -1.6434 0.0002
# 2 34.8126 100.8375 18.9619 0.0007 16.2124 0.0005
# 3 16.0484 18.9619 126.8303 0.0026 -9.4834 0.0014
# 4 0.0000 0.0007 0.0026 45.1821 0.0009 4.4464
# 5 -1.6434 16.2124 -9.4834 0.0009 37.4104 0.0004
# 6 0.0002 0.0005 0.0014 4.4464 0.0004 36.6896
#
#
#
# Elastic Compliance Matrix: (Units=1/GPa)
#
#
# Indices 1 2 3 4 5 6 
#
# 1 0.006182 -0.002253 -0.000359 0.000000 0.001157 0.000000
# 2 -0.002253 0.011990 -0.001940 0.000000 -0.005787 0.000000
# 3 -0.000359 -0.001940 0.008442 0.000000 0.002965 0.000000
# 4 0.000000 0.000000 0.000000 0.022400 -0.000001 -0.002715
# 5 0.001157 -0.005787 0.002965 -0.000001 0.030041 0.000000
# 6 0.000000 0.000000 0.000000 -0.002715 0.000000 0.027585
#
#
# Mechanical properties :
#
#
# Convention : Reuss Voigt Hill
#
# Bulk Modulus (GPa) = 57.11007 60.33174 58.72091
# Shear Modulus (GPa) = 41.12507 46.09090 43.60799
#
# Velocity S-wave (km/s) = 4.06580 4.30428 4.18674
# Velocity P-wave (km/s) = 6.70799 6.99668 6.85386
#
# Compressibility (1/GPa) = 0.01751005
#
# Stress axis : x y z
#
# Youngs Moduli (GPa) = 161.74702 83.40302 118.45895
#
# Poissons Ratio (x) = 0.18790 0.04252
# Poissons Ratio (y) = 0.36440 0.22983
# Poissons Ratio (z) = 0.05806 0.16182
#
# Static dielectric constant tensor:
#      x y z
#    x 1.973790 0.000000 0.049570 
#    y 0.000000 2.012530 0.000000 
#    z 0.049570 0.000000 1.723230 
# 
# From -- ./inp_files/289168.got.cif
#   From: 2010.05.17/outbox.cif.g08.bks.cpg/sg15_145_cif.got.tgz:289168.got - 2010.06.03 18:47:42.
