data_PCOD9307192
_publ_section_title
;
Structure prediction by ZEFSAII (Michael W. Deem and Ramdas Pophale) SiO2 
 PCOD9307192
Probable space group: C 2/C
;
_chemical_formula_sum "Si O2"
_cell_formula_units_Z 44
_cell_length_a 15.137892
_cell_length_b 20.727198
_cell_length_c 7.022316
_cell_angle_alpha 90.000000
_cell_angle_beta 57.160039
_cell_angle_gamma 90.000000
_cell_volume 1851.241781
_symmetry_space_group_name_H-M "C 2/C"
_symmetry_group_IT_number 15
_symmetry_cell_setting 'monoclinic'
loop_
_space_group_symop_operation_xyz
x,y,z
-x,y,1/2-z
-x,-y,-z
x,-y,1/2+z
1/2+x,1/2+y,z
1/2-x,1/2+y,1/2-z
1/2-x,1/2-y,-z
1/2+x,1/2-y,1/2+z
loop_
_atom_site_type_symbol
_atom_site_label
_atom_site_fract_x
_atom_site_fract_y
_atom_site_fract_z
Si Si1 0.097117 0.648563 0.507605
Si Si2 0.500000 0.103323 0.250000
Si Si3 0.750000 0.750000 0.000000
Si Si4 0.830807 0.997392 0.031104
Si Si5 0.902883 0.148563 0.492396
Si Si6 0.000000 0.896679 0.250000
Si Si7 0.669190 0.002607 0.468896
O O1 0.057794 0.646093 0.338208
O O2 0.195084 0.693631 0.432105
O O3 0.123835 0.574934 0.531603
O O4 0.000000 0.671438 0.750000
O O5 0.414157 0.055654 0.443344
O O6 0.695081 0.693634 0.932100
O O7 0.697839 0.005074 0.185733
O O8 0.914156 0.055652 0.943343
O O9 0.802158 0.005075 0.814267
O O10 0.876161 0.925065 0.968397
O O11 0.942207 0.146091 0.661790
O O12 0.000000 0.171437 0.250000
#
# Coordination Sequence:
#
# PCOD9307192 Si02
#       7
#     8   4   4   8   8   4   8
#     4  12  26  48  71 103 148 191 242 296 354 428
#     4  12  26  43  78 115 140 180 238 308 366 430
#     4  12  30  50  70  96 144 206 248 292 344 424
#     4  12  22  41  74 112 144 179 226 296 378 430
#     4  12  26  48  71 103 148 191 242 296 354 428
#     4  12  26  43  78 115 140 180 238 308 366 430
#     4  12  22  41  74 112 144 179 226 296 378 430
#
# _framework density 23.767831999999999
#
# number of rings (size 3 to 8) (size 9 to 14) (size 15 to 20)
#    0.000    0.000    7.273    3.818    0.000    0.727 
#    0.000    1.818    0.000    0.000    0.000    0.000 
#    0.000    0.000    0.000    0.000    0.000    0.000 
#
# Total GULP energy -122586.674524 kJ/mol
# GULP energy per Si atom -5572.121569 kJ/mol
# Density = 2.371374 g / cm^3
# Si number density = 23.767832 Si / 1000 Ang^3
#
#
#
# Elastic Constant Matrix: (Units=GPa)
#
#
# Indices 1 2 3 4 5 6 
#
# 1 217.4626 81.1412 31.7279 0.0000 52.4989 0.0000
# 2 81.1412 113.0931 19.8907 0.0000 27.4568 0.0000
# 3 31.7279 19.8907 141.7270 0.0000 14.2494 0.0000
# 4 0.0000 0.0000 0.0000 -3.9797 0.0000 -6.5577
# 5 52.4989 27.4568 14.2494 0.0000 38.9275 0.0000
# 6 0.0000 0.0000 0.0000 -6.5577 0.0000 136.5897
#
#
#
# Elastic Compliance Matrix: (Units=1/GPa)
#
#
# Indices 1 2 3 4 5 6 
#
# 1 0.007972 -0.003703 -0.000464 0.000000 -0.007969 0.000000
# 2 -0.003703 0.012471 -0.000560 0.000000 -0.003597 0.000000
# 3 -0.000464 -0.000560 0.007408 0.000000 -0.001692 0.000000
# 4 0.000000 0.000000 0.000000 -0.232854 0.000000 -0.011179
# 5 -0.007969 -0.003597 -0.001692 0.000000 0.039593 0.000000
# 6 0.000000 0.000000 0.000000 -0.011179 0.000000 0.006784
#
#
# Mechanical properties :
#
#
# Convention : Reuss Voigt Hill
#
# Bulk Modulus (GPa) = 54.35322 81.97803 68.16563
# Shear Modulus (GPa) = -34.95525 56.94236 10.99356
#
# Velocity S-wave (km/s) = -3.83913 4.89997 2.15301
# Velocity P-wave (km/s) = 1.80726 8.15960 5.90954
#
# Compressibility (1/GPa) = 0.01839817
#
# Stress axis : x y z
#
# Youngs Moduli (GPa) = 125.44154 80.18637 134.98472
#
# Poissons Ratio (x) = 0.29695 0.06259
# Poissons Ratio (y) = 0.46454 0.07553
# Poissons Ratio (z) = 0.05816 0.04487
#
# Static dielectric constant tensor:
#      x y z
#    x 2.042170 0.000000 0.199120 
#    y 0.000000 1.787500 0.000000 
#    z 0.199120 0.000000 2.208770 
# 
# From -- ./inp_files/39574.got.cif
#   From: 2010.05.17/outbox.cif.g08.bks.cpg/sg15_20_cif.got.tgz:39574.got - 2010.06.03 18:47:42.
