data_PCOD9307080
_publ_section_title
;
Structure prediction by ZEFSAII (Michael W. Deem and Ramdas Pophale) SiO2 
 PCOD9307080
Probable space group: C 2/C
;
_chemical_formula_sum "Si O2"
_cell_formula_units_Z 28
_cell_length_a 6.675875
_cell_length_b 13.556373
_cell_length_c 12.554307
_cell_angle_alpha 90.000000
_cell_angle_beta 115.276192
_cell_angle_gamma 90.000000
_cell_volume 1027.395822
_symmetry_space_group_name_H-M "C 2/C"
_symmetry_group_IT_number 15
_symmetry_cell_setting 'monoclinic'
loop_
_space_group_symop_operation_xyz
x,y,z
-x,y,1/2-z
-x,-y,-z
x,-y,1/2+z
1/2+x,1/2+y,z
1/2-x,1/2+y,1/2-z
1/2-x,1/2-y,-z
1/2+x,1/2-y,1/2+z
loop_
_atom_site_type_symbol
_atom_site_label
_atom_site_fract_x
_atom_site_fract_y
_atom_site_fract_z
Si Si1 0.637537 0.100019 0.503788
Si Si2 0.109874 0.046300 0.659410
Si Si3 0.415666 0.213581 0.628143
Si Si4 0.500000 0.110857 0.250000
O O1 0.612338 0.170772 0.599481
O O2 0.536494 0.154410 0.376453
O O3 0.885352 0.062229 0.539807
O O4 0.500000 0.000000 0.500000
O O5 0.278275 0.127957 0.654793
O O6 0.000000 0.057898 0.750000
O O7 0.275418 0.953716 0.707675
O O8 0.500000 0.275525 0.750000
O O9 0.250000 0.250000 0.500000
#
# Coordination Sequence:
#
# PCOD9307080 Si02
#       4
#     8   8   8   4
#     4  12  24  43  72 106 140 183 231 295 357 414
#     4  12  21  44  73  96 145 178 229 287 365 409
#     4  12  27  49  69 101 143 192 239 290 353 430
#     4  12  24  40  72 112 136 178 236 298 356 420
#
# _framework density 27.253373
#
# number of rings (size 3 to 8) (size 9 to 14) (size 15 to 20)
#    0.000    0.000   10.000    0.857    0.000    3.429 
#    2.571    0.000    0.000    0.000    0.000    0.000 
#    0.000    0.000    0.000    0.000    0.000    0.000 
#
# Total GULP energy -78250.262279 kJ/mol
# GULP energy per Si atom -5589.304449 kJ/mol
# Density = 2.719134 g / cm^3
# Si number density = 27.253373 Si / 1000 Ang^3
#
#
#
# Elastic Constant Matrix: (Units=GPa)
#
#
# Indices 1 2 3 4 5 6 
#
# 1 193.7043 28.9979 61.9382 0.0000 11.9134 0.0000
# 2 28.9979 31.7989 16.7536 0.0000 -10.4724 0.0000
# 3 61.9382 16.7536 274.8170 0.0000 -16.1006 0.0000
# 4 0.0000 0.0000 0.0000 22.4086 0.0000 -1.4093
# 5 11.9134 -10.4724 -16.1006 0.0000 72.2918 0.0000
# 6 0.0000 0.0000 0.0000 -1.4093 0.0000 44.0519
#
#
#
# Elastic Compliance Matrix: (Units=1/GPa)
#
#
# Indices 1 2 3 4 5 6 
#
# 1 0.006617 -0.006118 -0.001250 0.000000 -0.002255 0.000000
# 2 -0.006118 0.039538 -0.000645 0.000000 0.006592 0.000000
# 3 -0.001250 -0.000645 0.004019 0.000000 0.001008 0.000000
# 4 0.000000 0.000000 0.000000 0.044716 0.000000 0.001430
# 5 -0.002255 0.006592 0.001008 0.000000 0.015384 0.000000
# 6 0.000000 0.000000 0.000000 0.001430 0.000000 0.022746
#
#
# Mechanical properties :
#
#
# Convention : Reuss Voigt Hill
#
# Bulk Modulus (GPa) = 29.28586 79.52217 54.40402
# Shear Modulus (GPa) = 31.16649 53.92583 42.54616
#
# Velocity S-wave (km/s) = 3.38536 4.45307 3.95541
# Velocity P-wave (km/s) = 5.10392 7.46203 6.39265
#
# Compressibility (1/GPa) = 0.03414617
#
# Stress axis : x y z
#
# Youngs Moduli (GPa) = 151.12760 25.29236 248.81863
#
# Poissons Ratio (x) = 0.15474 0.31114
# Poissons Ratio (y) = 0.92459 0.16055
# Poissons Ratio (z) = 0.18898 0.01632
#
# Static dielectric constant tensor:
#      x y z
#    x 2.062100 0.000000 0.070720 
#    y 0.000000 2.209630 0.000000 
#    z 0.070720 0.000000 2.213590 
# 
# From -- ./inp_files/71617.got.cif
#   From: 2010.05.17/outbox.cif.g08.bks.cpg/sg15_36_cif.got.tgz:71617.got - 2010.06.03 18:47:42.
