data_PCOD9307015
_publ_section_title
;
Structure prediction by ZEFSAII (Michael W. Deem and Ramdas Pophale) SiO2 
 PCOD9307015
Probable space group: C 2/C
;
_chemical_formula_sum "Si O2"
_cell_formula_units_Z 60
_cell_length_a 15.407898
_cell_length_b 19.997734
_cell_length_c 9.360186
_cell_angle_alpha 90.000000
_cell_angle_beta 66.963550
_cell_angle_gamma 90.000000
_cell_volume 2654.100497
_symmetry_space_group_name_H-M "C 2/C"
_symmetry_group_IT_number 15
_symmetry_cell_setting 'monoclinic'
loop_
_space_group_symop_operation_xyz
x,y,z
-x,y,1/2-z
-x,-y,-z
x,-y,1/2+z
1/2+x,1/2+y,z
1/2-x,1/2+y,1/2-z
1/2-x,1/2-y,-z
1/2+x,1/2-y,1/2+z
loop_
_atom_site_type_symbol
_atom_site_label
_atom_site_fract_x
_atom_site_fract_y
_atom_site_fract_z
Si Si1 0.911595 0.383315 0.491067
Si Si2 0.000000 0.061131 0.750000
Si Si3 0.733008 0.580070 0.280762
Si Si4 0.594553 0.275673 0.503945
Si Si5 0.120394 0.373100 0.325488
Si Si6 0.176270 0.878045 0.282015
Si Si7 0.381138 0.711781 0.178994
Si Si8 0.652670 0.480297 0.544338
O O1 0.837407 0.413979 0.648050
O O2 0.910656 0.303376 0.507498
O O3 0.881033 0.390987 0.343768
O O4 0.021120 0.401925 0.443428
O O5 0.089445 0.103943 0.739099
O O6 0.049339 0.012340 0.605892
O O7 0.688701 0.654318 0.333202
O O8 0.721956 0.534223 0.426738
O O9 0.675321 0.541877 0.191208
O O10 0.664741 0.302005 0.338510
O O11 0.627340 0.291736 0.643375
O O12 0.488505 0.305179 0.561774
O O13 0.218371 0.396574 0.329784
O O14 0.124047 0.292025 0.344834
O O15 0.157532 0.916354 0.441755
#
# Coordination Sequence:
#
# PCOD9307015 Si02
#       8
#     8   4   8   8   8   8   8   8
#     4   9  18  35  61  92 125 149 203 261 313 357
#     4  12  28  42  56  86 126 168 206 242 300 380
#     4  12  22  39  61  90 130 165 205 252 303 361
#     4   9  17  29  58  95 118 152 189 251 323 365
#     4   9  18  34  62  97 119 152 197 266 318 356
#     4  12  21  37  59  84 124 159 202 249 301 363
#     4   9  17  30  57  94 124 147 193 251 319 365
#     4  12  26  39  61  87 122 169 207 249 304 361
#
# _framework density 22.606528999999998
#
# number of rings (size 3 to 8) (size 9 to 14) (size 15 to 20)
#    0.000    1.600    4.000    3.600    1.867    2.133 
#    0.000    0.667    2.933   12.800    0.000    0.000 
#    0.000    0.000    0.000    0.000    0.000    0.000 
#
# Total GULP energy -167466.125108 kJ/mol
# GULP energy per Si atom -5582.204170 kJ/mol
# Density = 2.255508 g / cm^3
# Si number density = 22.606529 Si / 1000 Ang^3
#
#
#
# Elastic Constant Matrix: (Units=GPa)
#
#
# Indices 1 2 3 4 5 6 
#
# 1 123.1469 12.2790 29.2986 0.0000 -26.2019 0.0000
# 2 12.2790 26.3961 16.4102 0.0000 0.6727 0.0000
# 3 29.2986 16.4102 68.1895 0.0000 -23.5978 0.0000
# 4 0.0000 0.0000 0.0000 26.5464 0.0000 -1.9602
# 5 -26.2019 0.6727 -23.5978 0.0000 34.3224 0.0000
# 6 0.0000 0.0000 0.0000 -1.9602 0.0000 12.4421
#
#
#
# Elastic Compliance Matrix: (Units=1/GPa)
#
#
# Indices 1 2 3 4 5 6 
#
# 1 0.010340 -0.004516 -0.000779 0.000000 0.007447 0.000000
# 2 -0.004516 0.049808 -0.015192 0.000000 -0.014868 0.000000
# 3 -0.000779 -0.015192 0.024345 0.000000 0.016441 0.000000
# 4 0.000000 0.000000 0.000000 0.038113 0.000000 0.006005
# 5 0.007447 -0.014868 0.016441 0.000000 0.046416 0.000000
# 6 0.000000 0.000000 0.000000 0.006005 0.000000 0.081318
#
#
# Mechanical properties :
#
#
# Convention : Reuss Voigt Hill
#
# Bulk Modulus (GPa) = 22.97734 37.07870 30.02802
# Shear Modulus (GPa) = 16.34941 25.31182 20.83062
#
# Velocity S-wave (km/s) = 2.69219 3.34978 3.03882
# Velocity P-wave (km/s) = 4.45532 5.60345 5.06205
#
# Compressibility (1/GPa) = 0.04352115
#
# Stress axis : x y z
#
# Youngs Moduli (GPa) = 96.70759 20.07693 41.07541
#
# Poissons Ratio (x) = 0.09066 0.03201
# Poissons Ratio (y) = 0.43669 0.62401
# Poissons Ratio (z) = 0.07536 0.30501
#
# Static dielectric constant tensor:
#      x y z
#    x 1.873780 0.000000 -0.025230 
#    y 0.000000 1.885120 0.000000 
#    z -0.025230 0.000000 1.844840 
# 
# From -- ./inp_files/99760.got.cif
#   From: 2010.05.17/outbox.cif.g08.bks.cpg/sg15_50_cif.got.tgz:99760.got - 2010.06.03 18:47:42.
