data_PCOD9307577
_publ_section_title
;
Structure prediction by ZEFSAII (Michael W. Deem and Ramdas Pophale) SiO2 
 PCOD9307577
Probable space group: C 2/C
;
_chemical_formula_sum "Si O2"
_cell_formula_units_Z 40
_cell_length_a 17.341549
_cell_length_b 24.266411
_cell_length_c 5.112257
_cell_angle_alpha 90.000000
_cell_angle_beta 52.223484
_cell_angle_gamma 90.000000
_cell_volume 1700.420887
_symmetry_space_group_name_H-M "C 2/C"
_symmetry_group_IT_number 15
_symmetry_cell_setting 'monoclinic'
loop_
_space_group_symop_operation_xyz
x,y,z
-x,y,1/2-z
-x,-y,-z
x,-y,1/2+z
1/2+x,1/2+y,z
1/2-x,1/2+y,1/2-z
1/2-x,1/2-y,-z
1/2+x,1/2-y,1/2+z
loop_
_atom_site_type_symbol
_atom_site_label
_atom_site_fract_x
_atom_site_fract_y
_atom_site_fract_z
Si Si1 0.343489 0.462257 0.816027
Si Si2 0.500000 0.830177 0.750000
Si Si3 0.840313 0.388973 0.421113
Si Si4 0.345014 0.223527 0.178442
Si Si5 0.500000 0.621840 0.750000
Si Si6 0.500000 0.962049 0.250000
Si Si7 0.500000 0.695594 0.250000
O O1 0.351489 0.512018 0.588369
O O2 0.422516 0.418344 0.550997
O O3 0.243098 0.428207 0.011271
O O4 0.577903 0.868970 0.449076
O O5 0.568538 0.794850 0.801780
O O6 0.807649 0.331612 0.614480
O O7 0.904137 0.425036 0.484834
O O8 0.250000 0.250000 0.500000
O O9 0.404542 0.267407 0.878790
O O10 0.468830 0.660184 0.569475
O O11 0.500000 0.000000 0.500000
#
# Coordination Sequence:
#
# PCOD9307577 Si02
#       7
#     8   4   8   8   4   4   4
#     4  12  28  50  77 112 148 202 258 319 390 452
#     4  12  24  48  74 103 159 194 256 308 388 444
#     4  12  26  45  71 110 147 195 250 315 374 464
#     4  12  27  46  75 108 156 203 252 313 384 466
#     4  12  27  49  79 106 155 195 262 323 376 460
#     4  12  24  42  69 102 143 192 235 301 368 440
#     4  12  25  49  72 119 145 203 255 310 392 458
#
# _framework density 23.523588
#
# number of rings (size 3 to 8) (size 9 to 14) (size 15 to 20)
#    0.000    0.000    4.000    5.400    5.600    0.800 
#    0.000    0.000    0.000    0.000    0.000    0.000 
#    0.000    0.000    0.000    0.000    0.000    0.000 
#
# Total GULP energy -111933.708227 kJ/mol
# GULP energy per Si atom -5596.685411 kJ/mol
# Density = 2.347005 g / cm^3
# Si number density = 23.523588 Si / 1000 Ang^3
#
#
#
# Elastic Constant Matrix: (Units=GPa)
#
#
# Indices 1 2 3 4 5 6 
#
# 1 22.4778 -0.8952 4.5798 0.0000 4.9281 0.0000
# 2 -0.8952 106.2287 29.5960 0.0000 -0.6141 0.0000
# 3 4.5798 29.5960 114.4211 0.0000 -7.2699 0.0000
# 4 0.0000 0.0000 0.0000 216.8555 0.0000 20.7128
# 5 4.9281 -0.6141 -7.2699 0.0000 45.6188 0.0000
# 6 0.0000 0.0000 0.0000 20.7128 0.0000 24.1766
#
#
#
# Elastic Compliance Matrix: (Units=1/GPa)
#
#
# Indices 1 2 3 4 5 6 
#
# 1 0.046209 0.001044 -0.002461 0.000000 -0.005370 0.000000
# 2 0.001044 0.010172 -0.002699 0.000000 -0.000406 0.000000
# 3 -0.002461 -0.002699 0.009648 0.000000 0.001767 0.000000
# 4 0.000000 0.000000 0.000000 0.005022 0.000000 -0.004303
# 5 -0.005370 -0.000406 0.001767 0.000000 0.022777 0.000000
# 6 0.000000 0.000000 0.000000 -0.004303 0.000000 0.045049
#
#
# Mechanical properties :
#
#
# Convention : Reuss Voigt Hill
#
# Bulk Modulus (GPa) = 17.30161 34.40988 25.85574
# Shear Modulus (GPa) = 30.05278 71.31998 50.68638
#
# Velocity S-wave (km/s) = 3.57817 5.51220 4.64692
# Velocity P-wave (km/s) = 4.94389 7.42779 6.30928
#
# Compressibility (1/GPa) = 0.05779809
#
# Stress axis : x y z
#
# Youngs Moduli (GPa) = 21.64099 98.30952 103.64371
#
# Poissons Ratio (x) = -0.10263 0.25504
# Poissons Ratio (y) = -0.02259 0.27970
# Poissons Ratio (z) = 0.05325 0.26530
#
# Static dielectric constant tensor:
#      x y z
#    x 1.826830 0.000000 0.108730 
#    y 0.000000 1.990810 0.000000 
#    z 0.108730 0.000000 1.812030 
# 
# From -- ./inp_files/7954.got.cif
#   From: 2010.05.17/outbox.cif.g08.bks.cpg/sg15_4_cif.got.tgz:7954.got - 2010.06.03 18:47:42.
