data_PCOD9307002
_publ_section_title
;
Structure prediction by ZEFSAII (Michael W. Deem and Ramdas Pophale) SiO2 
 PCOD9307002
Probable space group: C 2/C
;
_chemical_formula_sum "Si O2"
_cell_formula_units_Z 28
_cell_length_a 13.244365
_cell_length_b 17.644542
_cell_length_c 5.285973
_cell_angle_alpha 90.000000
_cell_angle_beta 115.162941
_cell_angle_gamma 90.000000
_cell_volume 1118.057449
_symmetry_space_group_name_H-M "C 2/C"
_symmetry_group_IT_number 15
_symmetry_cell_setting 'monoclinic'
loop_
_space_group_symop_operation_xyz
x,y,z
-x,y,1/2-z
-x,-y,-z
x,-y,1/2+z
1/2+x,1/2+y,z
1/2-x,1/2+y,1/2-z
1/2-x,1/2-y,-z
1/2+x,1/2-y,1/2+z
loop_
_atom_site_type_symbol
_atom_site_label
_atom_site_fract_x
_atom_site_fract_y
_atom_site_fract_z
Si Si1 0.418537 0.568820 0.975610
Si Si2 0.832194 0.457286 0.217612
Si Si3 0.317541 0.779364 0.319293
Si Si4 0.500000 0.310939 0.250000
O O1 0.303210 0.538431 0.953479
O O2 0.405369 0.629267 0.740875
O O3 0.500000 0.613634 0.250000
O O4 0.500000 0.500000 0.000000
O O5 0.872259 0.512152 0.487962
O O6 0.842352 0.369176 0.306871
O O7 0.250000 0.750000 0.500000
O O8 0.438452 0.742083 0.486093
O O9 0.250000 0.750000 0.000000
#
# Coordination Sequence:
#
# PCOD9307002 Si02
#       4
#     8   8   8   4
#     4  12  21  34  62  99 134 167 215 281 358 416
#     4  12  24  43  67  97 138 179 227 284 343 412
#     4  12  27  46  70 103 143 184 231 287 347 416
#     4  12  26  44  66 100 140 184 230 286 348 414
#
# _framework density 25.043434000000001
#
# number of rings (size 3 to 8) (size 9 to 14) (size 15 to 20)
#    0.000    0.000    7.143    3.429    0.000    0.000 
#    0.000    1.429    0.000    0.000    0.000    0.000 
#    0.000    0.000    0.000    0.000    0.000    0.000 
#
# Total GULP energy -78127.155082 kJ/mol
# GULP energy per Si atom -5580.511077 kJ/mol
# Density = 2.498643 g / cm^3
# Si number density = 25.043434 Si / 1000 Ang^3
#
#
#
# Elastic Constant Matrix: (Units=GPa)
#
#
# Indices 1 2 3 4 5 6 
#
# 1 38.7625 13.9790 24.5597 0.0000 -2.3560 0.0000
# 2 13.9790 194.3223 63.3649 0.0000 -3.0305 0.0000
# 3 24.5597 63.3649 159.0605 0.0000 -16.0227 0.0000
# 4 0.0000 0.0000 0.0000 49.4416 0.0000 8.8949
# 5 -2.3560 -3.0305 -16.0227 0.0000 42.7826 0.0000
# 6 0.0000 0.0000 0.0000 8.8949 0.0000 29.2501
#
#
#
# Elastic Compliance Matrix: (Units=1/GPa)
#
#
# Indices 1 2 3 4 5 6 
#
# 1 0.028681 -0.000711 -0.004148 0.000000 -0.000024 0.000000
# 2 -0.000711 0.005942 -0.002306 0.000000 -0.000482 0.000000
# 3 -0.004148 -0.002306 0.008112 0.000000 0.002646 0.000000
# 4 0.000000 0.000000 0.000000 0.021396 0.000000 -0.006507
# 5 -0.000024 -0.000482 0.002646 0.000000 0.024330 0.000000
# 6 0.000000 0.000000 0.000000 -0.006507 0.000000 0.036167
#
#
# Mechanical properties :
#
#
# Convention : Reuss Voigt Hill
#
# Bulk Modulus (GPa) = 35.20366 66.21694 50.71030
# Shear Modulus (GPa) = 33.68694 43.64430 38.66562
#
# Velocity S-wave (km/s) = 3.67159 4.17915 3.93357
# Velocity P-wave (km/s) = 5.66231 7.05587 6.39715
#
# Compressibility (1/GPa) = 0.02840614
#
# Stress axis : x y z
#
# Youngs Moduli (GPa) = 34.86622 168.30573 123.26763
#
# Poissons Ratio (x) = 0.11969 0.51127
# Poissons Ratio (y) = 0.02479 0.28421
# Poissons Ratio (z) = 0.14461 0.38806
#
# Static dielectric constant tensor:
#      x y z
#    x 2.165370 0.000000 0.092240 
#    y 0.000000 1.996720 0.000000 
#    z 0.092240 0.000000 2.220100 
# 
# From -- ./inp_files/6279.got.cif
#   From: 2010.05.17/outbox.cif.g08.bks.cpg/sg15_4_cif.got.tgz:6279.got - 2010.06.03 18:47:42.
