data_PCOD9307886
_publ_section_title
;
Structure prediction by ZEFSAII (Michael W. Deem and Ramdas Pophale) SiO2 
 PCOD9307886
Probable space group: C 2/C
;
_chemical_formula_sum "Si O2"
_cell_formula_units_Z 36
_cell_length_a 11.010796
_cell_length_b 25.101283
_cell_length_c 5.413983
_cell_angle_alpha 90.000000
_cell_angle_beta 98.630851
_cell_angle_gamma 90.000000
_cell_volume 1479.399247
_symmetry_space_group_name_H-M "C 2/C"
_symmetry_group_IT_number 15
_symmetry_cell_setting 'monoclinic'
loop_
_space_group_symop_operation_xyz
x,y,z
-x,y,1/2-z
-x,-y,-z
x,-y,1/2+z
1/2+x,1/2+y,z
1/2-x,1/2+y,1/2-z
1/2-x,1/2-y,-z
1/2+x,1/2-y,1/2+z
loop_
_atom_site_type_symbol
_atom_site_label
_atom_site_fract_x
_atom_site_fract_y
_atom_site_fract_z
Si Si1 0.371065 0.463831 0.963334
Si Si2 0.176822 0.395735 0.139639
Si Si3 0.500000 0.625977 0.250000
Si Si4 0.000000 0.656515 0.250000
Si Si5 0.250117 0.312287 0.557613
Si Si6 0.000000 0.468246 0.250000
O O1 0.372379 0.500544 0.715731
O O2 0.476259 0.417414 0.962081
O O3 0.254108 0.425284 0.955242
O O4 0.233805 0.346559 0.301673
O O5 0.133525 0.440123 0.313864
O O6 0.047627 0.377677 0.989966
O O7 0.620610 0.663787 0.302003
O O8 0.128233 0.682163 0.194108
O O9 0.250000 0.250000 0.500000
O O10 0.000000 0.500000 0.500000
#
# Coordination Sequence:
#
# PCOD9307886 Si02
#       6
#     8   8   4   4   8   4
#     4  12  27  50  83 122 171 227 278 343 426 508
#     4  12  26  48  79 119 166 212 278 344 408 500
#     4  12  28  53  82 125 169 217 288 348 412 512
#     4  12  25  54  80 113 169 208 274 349 414 484
#     4  12  30  53  86 118 162 223 281 350 427 492
#     4  12  25  41  76 120 166 215 266 333 418 492
#
# _framework density 24.334204
#
# number of rings (size 3 to 8) (size 9 to 14) (size 15 to 20)
#    0.000    0.000    4.444    4.000    3.111    5.333 
#    0.000    0.000    0.000    0.000    0.000    0.000 
#    0.000    0.000    0.000    0.000    0.000    0.000 
#
# Total GULP energy -100404.266407 kJ/mol
# GULP energy per Si atom -5578.014800 kJ/mol
# Density = 2.427882 g / cm^3
# Si number density = 24.334204 Si / 1000 Ang^3
#
#
#
# Elastic Constant Matrix: (Units=GPa)
#
#
# Indices 1 2 3 4 5 6 
#
# 1 186.0923 85.0563 49.0935 0.0000 -20.3211 0.0000
# 2 85.0563 175.7743 69.8152 0.0000 -9.0996 0.0000
# 3 49.0935 69.8152 134.7696 0.0000 -10.8673 0.0000
# 4 0.0000 0.0000 0.0000 33.2490 0.0000 -5.3709
# 5 -20.3211 -9.0996 -10.8673 0.0000 42.6610 0.0000
# 6 0.0000 0.0000 0.0000 -5.3709 0.0000 31.5045
#
#
#
# Elastic Compliance Matrix: (Units=1/GPa)
#
#
# Indices 1 2 3 4 5 6 
#
# 1 0.007276 -0.003043 -0.000865 0.000000 0.002597 0.000000
# 2 -0.003043 0.008450 -0.003309 0.000000 -0.000490 0.000000
# 3 -0.000865 -0.003309 0.009555 0.000000 0.001316 0.000000
# 4 0.000000 0.000000 0.000000 0.030928 0.000000 0.005273
# 5 0.002597 -0.000490 0.001316 0.000000 0.024908 0.000000
# 6 0.000000 0.000000 0.000000 0.005273 0.000000 0.032640
#
#
# Mechanical properties :
#
#
# Convention : Reuss Voigt Hill
#
# Bulk Modulus (GPa) = 92.17431 100.50737 96.34084
# Shear Modulus (GPa) = 37.93412 40.99431 39.46421
#
# Velocity S-wave (km/s) = 3.95255 4.10889 4.03148
# Velocity P-wave (km/s) = 7.66752 7.99395 7.83244
#
# Compressibility (1/GPa) = 0.01084901
#
# Stress axis : x y z
#
# Youngs Moduli (GPa) = 137.43381 118.33781 104.65505
#
# Poissons Ratio (x) = 0.36011 0.09051
# Poissons Ratio (y) = 0.41821 0.34626
# Poissons Ratio (z) = 0.11885 0.39153
#
# Static dielectric constant tensor:
#      x y z
#    x 1.991110 0.000000 -0.061320 
#    y 0.000000 1.671330 0.000000 
#    z -0.061320 0.000000 1.983900 
# 
# From -- ./inp_files/4371.got.cif
#   From: 2010.05.17/outbox.cif.g08.bks.cpg/sg15_3_cif.got.tgz:4371.got - 2010.06.03 18:47:42.
