data_PCOD9307312
_publ_section_title
;
Structure prediction by ZEFSAII (Michael W. Deem and Ramdas Pophale) SiO2 
 PCOD9307312
Probable space group: C 2/C
;
_chemical_formula_sum "Si O2"
_cell_formula_units_Z 36
_cell_length_a 4.931743
_cell_length_b 14.242913
_cell_length_c 23.950145
_cell_angle_alpha 90.000000
_cell_angle_beta 58.061208
_cell_angle_gamma 90.000000
_cell_volume 1427.635872
_symmetry_space_group_name_H-M "C 2/C"
_symmetry_group_IT_number 15
_symmetry_cell_setting 'monoclinic'
loop_
_space_group_symop_operation_xyz
x,y,z
-x,y,1/2-z
-x,-y,-z
x,-y,1/2+z
1/2+x,1/2+y,z
1/2-x,1/2+y,1/2-z
1/2-x,1/2-y,-z
1/2+x,1/2-y,1/2+z
loop_
_atom_site_type_symbol
_atom_site_label
_atom_site_fract_x
_atom_site_fract_y
_atom_site_fract_z
Si Si1 0.000000 0.431619 0.250000
Si Si2 0.282408 0.678781 0.945865
Si Si3 0.191979 0.448234 0.819595
Si Si4 0.547782 0.254048 0.308394
Si Si5 0.799119 0.559058 0.945912
O O1 0.928368 0.504699 0.307588
O O2 0.279836 0.353482 0.219871
O O3 0.280821 0.722826 0.883515
O O4 0.621867 0.628103 0.920897
O O5 0.972242 0.613204 0.977190
O O6 0.250000 0.750000 0.000000
O O7 0.500000 0.478525 0.750000
O O8 0.210396 0.336155 0.820095
O O9 0.083784 0.496599 0.888195
O O10 0.500000 0.220330 0.250000
O O11 0.500000 0.500000 0.000000
#
# Coordination Sequence:
#
# PCOD9307312 Si02
#       5
#     4   8   8   8   8
#     4  12  22  48  68 104 156 192 262 320 398 462
#     4  12  27  51  80 114 163 215 271 340 411 495
#     4  12  26  46  78 114 155 209 265 334 404 479
#     4  12  26  46  78 114 155 209 265 334 404 479
#     4  12  27  51  80 114 163 215 271 340 411 495
#
# _framework density 25.216512000000002
#
# number of rings (size 3 to 8) (size 9 to 14) (size 15 to 20)
#    0.000    0.000    4.444    6.000    0.000    0.000 
#    0.000    0.000    0.000    0.000    0.000    0.000 
#    0.000    0.000    0.000    0.000    0.000    0.000 
#
# Total GULP energy -100372.925161 kJ/mol
# GULP energy per Si atom -5576.273620 kJ/mol
# Density = 2.515912 g / cm^3
# Si number density = 25.216512 Si / 1000 Ang^3
#
#
#
# Elastic Constant Matrix: (Units=GPa)
#
#
# Indices 1 2 3 4 5 6 
#
# 1 95.6939 27.0334 33.6589 0.0000 -3.5351 0.0000
# 2 27.0334 126.4897 32.6869 0.0000 -8.0993 0.0000
# 3 33.6589 32.6869 145.4896 0.0000 -4.8463 0.0000
# 4 0.0000 0.0000 0.0000 43.0514 0.0000 3.9003
# 5 -3.5351 -8.0993 -4.8463 0.0000 42.9252 0.0000
# 6 0.0000 0.0000 0.0000 3.9003 0.0000 39.8183
#
#
#
# Elastic Compliance Matrix: (Units=1/GPa)
#
#
# Indices 1 2 3 4 5 6 
#
# 1 0.011808 -0.001909 -0.002291 0.000000 0.000354 0.000000
# 2 -0.001909 0.008783 -0.001487 0.000000 0.001332 0.000000
# 3 -0.002291 -0.001487 0.007751 0.000000 0.000406 0.000000
# 4 0.000000 0.000000 0.000000 0.023436 0.000000 -0.002296
# 5 0.000354 0.001332 0.000406 0.000000 0.023623 0.000000
# 6 0.000000 0.000000 0.000000 -0.002296 0.000000 0.025339
#
#
# Mechanical properties :
#
#
# Convention : Reuss Voigt Hill
#
# Bulk Modulus (GPa) = 58.93517 61.60352 60.26935
# Shear Modulus (GPa) = 42.45521 43.44523 42.95022
#
# Velocity S-wave (km/s) = 4.10765 4.15527 4.13153
# Velocity P-wave (km/s) = 6.77639 6.89236 6.83462
#
# Compressibility (1/GPa) = 0.01696780
#
# Stress axis : x y z
#
# Youngs Moduli (GPa) = 84.68691 113.85091 129.01426
#
# Poissons Ratio (x) = 0.21733 0.29559
# Poissons Ratio (y) = 0.16166 0.19189
# Poissons Ratio (z) = 0.19403 0.16934
#
# Static dielectric constant tensor:
#      x y z
#    x 2.405020 0.000000 -0.015850 
#    y 0.000000 2.005730 0.000000 
#    z -0.015850 0.000000 1.995410 
# 
# From -- ./inp_files/226461.got.cif
#   From: 2010.05.17/outbox.cif.g08.bks.cpg/sg15_114_cif.got.tgz:226461.got - 2010.06.03 18:47:42.
