data_PCOD9307468
_publ_section_title
;
Structure prediction by ZEFSAII (Michael W. Deem and Ramdas Pophale) SiO2 
 PCOD9307468
Probable space group: C 2/C
;
_chemical_formula_sum "Si O2"
_cell_formula_units_Z 40
_cell_length_a 8.055006
_cell_length_b 12.265270
_cell_length_c 19.102548
_cell_angle_alpha 90.000000
_cell_angle_beta 70.562173
_cell_angle_gamma 90.000000
_cell_volume 1779.702571
_symmetry_space_group_name_H-M "C 2/C"
_symmetry_group_IT_number 15
_symmetry_cell_setting 'monoclinic'
loop_
_space_group_symop_operation_xyz
x,y,z
-x,y,1/2-z
-x,-y,-z
x,-y,1/2+z
1/2+x,1/2+y,z
1/2-x,1/2+y,1/2-z
1/2-x,1/2-y,-z
1/2+x,1/2-y,1/2+z
loop_
_atom_site_type_symbol
_atom_site_label
_atom_site_fract_x
_atom_site_fract_y
_atom_site_fract_z
Si Si1 0.102693 0.387701 0.575567
Si Si2 0.271846 0.298759 0.919354
Si Si3 0.373164 0.693661 0.832467
Si Si4 0.997200 0.605683 0.669307
Si Si5 0.402637 0.471107 0.440950
O O1 0.185899 0.302780 0.618490
O O2 0.223679 0.411671 0.491867
O O3 0.920413 0.331004 0.580634
O O4 0.068338 0.504126 0.615116
O O5 0.378692 0.210282 0.860509
O O6 0.372006 0.413357 0.909417
O O7 0.250000 0.250000 0.000000
O O8 0.500000 0.721058 0.750000
O O9 0.199365 0.633893 0.828541
O O10 0.473207 0.612942 0.873221
O O11 0.000000 0.576145 0.750000
O O12 0.500000 0.500000 0.500000
#
# Coordination Sequence:
#
# PCOD9307468 Si02
#       5
#     8   8   8   8   8
#     4  12  25  49  74 105 147 191 248 305 365 439
#     4  12  23  45  75 106 143 188 243 301 364 434
#     4  12  27  48  70 108 152 190 247 304 366 441
#     4  12  27  47  74 104 147 196 242 304 375 433
#     4  12  25  45  78 108 147 194 245 304 367 438
#
# _framework density 22.475666
#
# number of rings (size 3 to 8) (size 9 to 14) (size 15 to 20)
#    0.000    0.000    4.000    6.600    2.800    0.800 
#    3.600    0.000    0.000    0.000    0.000    0.000 
#    0.000    0.000    0.000    0.000    0.000    0.000 
#
# Total GULP energy -112067.934759 kJ/mol
# GULP energy per Si atom -5603.396738 kJ/mol
# Density = 2.242451 g / cm^3
# Si number density = 22.475666 Si / 1000 Ang^3
#
#
#
# Elastic Constant Matrix: (Units=GPa)
#
#
# Indices 1 2 3 4 5 6 
#
# 1 67.0719 12.1845 1.2438 0.0000 19.9705 0.0000
# 2 12.1845 136.6706 21.2206 0.0000 -1.6046 0.0000
# 3 1.2438 21.2206 84.8681 0.0000 -3.9648 0.0000
# 4 0.0000 0.0000 0.0000 -5.4464 0.0000 -0.9674
# 5 19.9705 -1.6046 -3.9648 0.0000 32.5916 0.0000
# 6 0.0000 0.0000 0.0000 -0.9674 0.0000 39.3804
#
#
#
# Elastic Compliance Matrix: (Units=1/GPa)
#
#
# Indices 1 2 3 4 5 6 
#
# 1 0.018680 -0.001742 -0.000379 0.000000 -0.011578 0.000000
# 2 -0.001742 0.007776 -0.001862 0.000000 0.001224 0.000000
# 3 -0.000379 -0.001862 0.012331 0.000000 0.001641 0.000000
# 4 0.000000 0.000000 0.000000 -0.182809 0.000000 -0.004491
# 5 -0.011578 0.001224 0.001641 0.000000 0.038037 0.000000
# 6 0.000000 0.000000 0.000000 -0.004491 0.000000 0.025283
#
#
# Mechanical properties :
#
#
# Convention : Reuss Voigt Hill
#
# Bulk Modulus (GPa) = 32.44576 39.76758 36.10667
# Shear Modulus (GPa) = -80.04751 30.23589 -24.90581
#
# Velocity S-wave (km/s) = -5.97432 3.67177 -3.33246
# Velocity P-wave (km/s) = 5.75523 5.97561 1.13693
#
# Compressibility (1/GPa) = 0.03082067
#
# Stress axis : x y z
#
# Youngs Moduli (GPa) = 53.53216 128.60725 81.09876
#
# Poissons Ratio (x) = 0.22410 0.03073
# Poissons Ratio (y) = 0.09328 0.15097
# Poissons Ratio (z) = 0.02029 0.23940
#
# Static dielectric constant tensor:
#      x y z
#    x 1.876630 0.000000 0.043180 
#    y 0.000000 1.796160 0.000000 
#    z 0.043180 0.000000 1.790620 
# 
# From -- ./inp_files/187797.got.cif
#   From: 2010.05.17/outbox.cif.g08.bks.cpg/sg15_94_cif.got.tgz:187797.got - 2010.06.03 18:47:42.
