data_PCOD9307743
_publ_section_title
;
Structure prediction by ZEFSAII (Michael W. Deem and Ramdas Pophale) SiO2 
 PCOD9307743
Probable space group: C 2/C
;
_chemical_formula_sum "Si O2"
_cell_formula_units_Z 36
_cell_length_a 15.477634
_cell_length_b 10.894550
_cell_length_c 14.770702
_cell_angle_alpha 90.000000
_cell_angle_beta 144.123448
_cell_angle_gamma 90.000000
_cell_volume 1459.630265
_symmetry_space_group_name_H-M "C 2/C"
_symmetry_group_IT_number 15
_symmetry_cell_setting 'monoclinic'
loop_
_space_group_symop_operation_xyz
x,y,z
-x,y,1/2-z
-x,-y,-z
x,-y,1/2+z
1/2+x,1/2+y,z
1/2-x,1/2+y,1/2-z
1/2-x,1/2-y,-z
1/2+x,1/2-y,1/2+z
loop_
_atom_site_type_symbol
_atom_site_label
_atom_site_fract_x
_atom_site_fract_y
_atom_site_fract_z
Si Si1 0.329684 0.880929 0.081701
Si Si2 0.659593 0.239424 0.248091
Si Si3 0.111319 0.575038 0.532483
Si Si4 0.626908 0.469766 0.537347
Si Si5 0.500000 0.652138 0.750000
O O1 0.500000 0.859527 0.250000
O O2 0.243027 0.935784 0.093592
O O3 0.250000 0.750000 0.000000
O O4 0.335380 0.983226 0.003920
O O5 0.748382 0.363213 0.298380
O O6 0.771725 0.130746 0.327894
O O7 0.633646 0.262467 0.332382
O O8 0.497344 0.190976 0.083364
O O9 0.000000 0.500000 0.500000
O O10 0.500000 0.500000 0.500000
O O11 0.545076 0.425127 0.375473
#
# Coordination Sequence:
#
# PCOD9307743 Si02
#       5
#     8   8   8   8   4
#     4  12  29  52  76 114 168 213 267 341 427 500
#     4  12  25  48  81 113 157 206 281 338 406 493
#     4  12  29  49  83 121 160 215 278 344 421 494
#     4  12  28  48  78 117 163 212 277 346 418 491
#     4  12  24  46  80 116 148 208 276 346 400 484
#
# _framework density 24.663779999999999
#
# number of rings (size 3 to 8) (size 9 to 14) (size 15 to 20)
#    0.000    0.000    6.667    2.000    7.778    1.778 
#    0.000    0.000    0.000    0.000    0.000    0.000 
#    0.000    0.000    0.000    0.000    0.000    0.000 
#
# Total GULP energy -100469.181794 kJ/mol
# GULP energy per Si atom -5581.621211 kJ/mol
# Density = 2.460764 g / cm^3
# Si number density = 24.663780 Si / 1000 Ang^3
#
#
#
# Elastic Constant Matrix: (Units=GPa)
#
#
# Indices 1 2 3 4 5 6 
#
# 1 218.9958 68.8296 31.3634 0.0000 34.2985 0.0000
# 2 68.8296 144.5820 47.7192 0.0000 25.4235 0.0000
# 3 31.3634 47.7192 115.0901 0.0000 29.8438 0.0000
# 4 0.0000 0.0000 0.0000 45.9248 0.0000 24.0088
# 5 34.2985 25.4235 29.8438 0.0000 47.0351 0.0000
# 6 0.0000 0.0000 0.0000 24.0088 0.0000 64.6128
#
#
#
# Elastic Compliance Matrix: (Units=1/GPa)
#
#
# Indices 1 2 3 4 5 6 
#
# 1 0.005728 -0.002241 0.000164 0.000000 -0.003070 0.000000
# 2 -0.002241 0.009178 -0.002791 0.000000 -0.001556 0.000000
# 3 0.000164 -0.002791 0.011301 0.000000 -0.005781 0.000000
# 4 0.000000 0.000000 0.000000 0.027024 0.000000 -0.010042
# 5 -0.003070 -0.001556 -0.005781 0.000000 0.028008 0.000000
# 6 0.000000 0.000000 0.000000 -0.010042 0.000000 0.019208
#
#
# Mechanical properties :
#
#
# Convention : Reuss Voigt Hill
#
# Bulk Modulus (GPa) = 60.71597 86.05471 73.38534
# Shear Modulus (GPa) = 43.22480 53.56489 48.39485
#
# Velocity S-wave (km/s) = 4.19090 4.66532 4.43446
# Velocity P-wave (km/s) = 6.93463 7.99920 7.48586
#
# Compressibility (1/GPa) = 0.01647013
#
# Stress axis : x y z
#
# Youngs Moduli (GPa) = 174.58203 108.95235 88.49117
#
# Poissons Ratio (x) = 0.24420 -0.01455
# Poissons Ratio (y) = 0.39129 0.24702
# Poissons Ratio (z) = -0.02870 0.30413
#
# Static dielectric constant tensor:
#      x y z
#    x 2.036940 0.000000 -0.023220 
#    y 0.000000 2.125160 0.000000 
#    z -0.023220 0.000000 2.022850 
# 
# From -- ./inp_files/152804.got.cif
#   From: 2010.05.17/outbox.cif.g08.bks.cpg/sg15_77_cif.got.tgz:152804.got - 2010.06.03 18:47:42.
