data_PCOD9307790
_publ_section_title
;
Structure prediction by ZEFSAII (Michael W. Deem and Ramdas Pophale) SiO2 
 PCOD9307790
Probable space group: C 2/C
;
_chemical_formula_sum "Si O2"
_cell_formula_units_Z 36
_cell_length_a 7.156098
_cell_length_b 16.915123
_cell_length_c 16.987322
_cell_angle_alpha 90.000000
_cell_angle_beta 59.884025
_cell_angle_gamma 90.000000
_cell_volume 1778.681831
_symmetry_space_group_name_H-M "C 2/C"
_symmetry_group_IT_number 15
_symmetry_cell_setting 'monoclinic'
loop_
_space_group_symop_operation_xyz
x,y,z
-x,y,1/2-z
-x,-y,-z
x,-y,1/2+z
1/2+x,1/2+y,z
1/2-x,1/2+y,1/2-z
1/2-x,1/2-y,-z
1/2+x,1/2-y,1/2+z
loop_
_atom_site_type_symbol
_atom_site_label
_atom_site_fract_x
_atom_site_fract_y
_atom_site_fract_z
Si Si1 0.855291 0.924668 0.008734
Si Si2 0.500000 0.361201 0.250000
Si Si3 0.982680 0.778339 0.421133
Si Si4 0.914377 0.525547 0.678983
Si Si5 0.705236 0.370238 0.653439
O O1 0.608168 0.944137 0.082950
O O2 0.934910 0.850569 0.042899
O O3 0.872667 0.905118 0.913249
O O4 0.000000 0.000000 0.000000
O O5 0.472770 0.308605 0.333549
O O6 0.291109 0.416966 0.284254
O O7 0.750000 0.750000 0.500000
O O8 0.148197 0.705895 0.391927
O O9 0.840968 0.438682 0.667963
O O10 0.000000 0.525048 0.750000
O O11 0.500000 0.349402 0.750000
#
# Coordination Sequence:
#
# PCOD9307790 Si02
#       5
#     8   4   8   8   8
#     4  12  25  48  77 107 147 197 246 298 364 436
#     4  12  26  48  74 108 144 200 244 298 362 436
#     4  12  28  46  72 109 153 190 241 305 367 433
#     4  12  24  48  74 107 144 195 250 297 357 437
#     4  12  27  44  73 109 147 189 244 304 367 428
#
# _framework density 20.239706000000002
#
# number of rings (size 3 to 8) (size 9 to 14) (size 15 to 20)
#    0.000    0.000    3.333    6.667    7.778    0.000 
#    0.000    0.000    0.000    0.000    0.000    0.000 
#    0.000    0.000    0.000    0.000    0.000    0.000 
#
# Total GULP energy -100910.222362 kJ/mol
# GULP energy per Si atom -5606.123465 kJ/mol
# Density = 2.019364 g / cm^3
# Si number density = 20.239706 Si / 1000 Ang^3
#
#
#
# Elastic Constant Matrix: (Units=GPa)
#
#
# Indices 1 2 3 4 5 6 
#
# 1 140.2606 80.1691 76.6262 0.0000 -13.0476 0.0000
# 2 80.1691 155.4168 56.5488 0.0000 -18.9983 0.0000
# 3 76.6262 56.5488 150.1113 0.0000 -16.6084 0.0000
# 4 0.0000 0.0000 0.0000 44.0439 0.0000 12.0430
# 5 -13.0476 -18.9983 -16.6084 0.0000 60.0221 0.0000
# 6 0.0000 0.0000 0.0000 12.0430 0.0000 94.6751
#
#
#
# Elastic Compliance Matrix: (Units=1/GPa)
#
#
# Indices 1 2 3 4 5 6 
#
# 1 0.012267 -0.004699 -0.004499 0.000000 -0.000066 0.000000
# 2 -0.004699 0.009415 -0.000961 0.000000 0.001693 0.000000
# 3 -0.004499 -0.000961 0.009468 0.000000 0.001338 0.000000
# 4 0.000000 0.000000 0.000000 0.023523 0.000000 -0.002992
# 5 -0.000066 0.001693 0.001338 0.000000 0.017552 0.000000
# 6 0.000000 0.000000 0.000000 -0.002992 0.000000 0.010943
#
#
# Mechanical properties :
#
#
# Convention : Reuss Voigt Hill
#
# Bulk Modulus (GPa) = 92.31274 96.94186 94.62730
# Shear Modulus (GPa) = 46.68708 55.24454 50.96581
#
# Velocity S-wave (km/s) = 4.80803 5.23014 5.02352
# Velocity P-wave (km/s) = 8.74823 9.19094 8.97232
#
# Compressibility (1/GPa) = 0.01083274
#
# Stress axis : x y z
#
# Youngs Moduli (GPa) = 81.51913 106.21819 105.61601
#
# Poissons Ratio (x) = 0.49910 0.47517
# Poissons Ratio (y) = 0.38304 0.10147
# Poissons Ratio (z) = 0.36676 0.10205
#
# Static dielectric constant tensor:
#      x y z
#    x 1.681050 0.000000 0.002330 
#    y 0.000000 1.674040 0.000000 
#    z 0.002330 0.000000 1.694680 
# 
# From -- ./inp_files/184194.got.cif
#   From: 2010.05.17/outbox.cif.g08.bks.cpg/sg15_93_cif.got.tgz:184194.got - 2010.06.03 18:47:42.
