data_PCOD9307358
_publ_section_title
;
Structure prediction by ZEFSAII (Michael W. Deem and Ramdas Pophale) SiO2 
 PCOD9307358
Probable space group: C 2/C
;
_chemical_formula_sum "Si O2"
_cell_formula_units_Z 60
_cell_length_a 23.432399
_cell_length_b 19.756997
_cell_length_c 12.286145
_cell_angle_alpha 90.000000
_cell_angle_beta 151.667376
_cell_angle_gamma 90.000000
_cell_volume 2699.425988
_symmetry_space_group_name_H-M "C 2/C"
_symmetry_group_IT_number 15
_symmetry_cell_setting 'monoclinic'
loop_
_space_group_symop_operation_xyz
x,y,z
-x,y,1/2-z
-x,-y,-z
x,-y,1/2+z
1/2+x,1/2+y,z
1/2-x,1/2+y,1/2-z
1/2-x,1/2-y,-z
1/2+x,1/2-y,1/2+z
loop_
_atom_site_type_symbol
_atom_site_label
_atom_site_fract_x
_atom_site_fract_y
_atom_site_fract_z
Si Si1 0.000000 0.576713 0.750000
Si Si2 0.230008 0.359198 0.949019
Si Si3 0.627540 0.992401 0.276731
Si Si4 0.155345 0.189606 0.285027
Si Si5 0.089767 0.164875 0.553817
Si Si6 0.259957 0.868926 0.161825
Si Si7 0.481863 0.209876 0.100684
Si Si8 0.169250 0.315881 0.622961
O O1 0.906973 0.530901 0.659586
O O2 0.934603 0.627512 0.556237
O O3 0.201550 0.438602 0.898848
O O4 0.252578 0.330718 0.866353
O O5 0.105646 0.323781 0.774710
O O6 0.331635 0.340735 0.205351
O O7 0.701322 0.933087 0.342492
O O8 0.500000 0.000000 0.000000
O O9 0.230279 0.191009 0.524085
O O10 0.252312 0.173644 0.354272
O O11 0.065527 0.241540 0.073278
O O12 0.045827 0.142718 0.147578
O O13 0.152418 0.120772 0.565049
O O14 0.109849 0.241584 0.538096
O O15 0.374735 0.845200 0.425578
O O16 0.500000 0.241087 0.250000
#
# Coordination Sequence:
#
# PCOD9307358 Si02
#       8
#     4   8   8   8   8   8   8   8
#     4  12  26  44  74 112 144 180 240 304 374 414
#     4  12  26  46  70 112 138 189 243 300 362 423
#     4  12  26  45  75 104 145 187 245 309 353 425
#     4  12  27  44  69 104 151 192 235 291 370 440
#     4  12  28  43  75 101 150 191 238 293 370 435
#     4  12  25  47  68 107 142 195 236 294 365 430
#     4  12  23  40  73 111 146 180 237 304 362 424
#     4  12  25  43  72 108 146 181 237 303 362 427
#
# _framework density 22.226946999999999
#
# number of rings (size 3 to 8) (size 9 to 14) (size 15 to 20)
#    0.000    0.000    8.000    1.200    6.533    0.000 
#    0.000    0.667    2.933    0.000    0.000    0.000 
#    0.000    0.000    0.000    0.000    0.000    0.000 
#
# Total GULP energy -167675.722649 kJ/mol
# GULP energy per Si atom -5589.190755 kJ/mol
# Density = 2.217636 g / cm^3
# Si number density = 22.226947 Si / 1000 Ang^3
#
#
#
# Elastic Constant Matrix: (Units=GPa)
#
#
# Indices 1 2 3 4 5 6 
#
# 1 126.0357 1.5814 21.3072 0.0000 -4.4714 0.0000
# 2 1.5814 67.8530 4.6363 0.0000 1.6396 0.0000
# 3 21.3072 4.6363 112.7451 0.0000 -17.8574 0.0000
# 4 0.0000 0.0000 0.0000 25.7771 0.0000 -1.6677
# 5 -4.4714 1.6396 -17.8574 0.0000 40.8536 0.0000
# 6 0.0000 0.0000 0.0000 -1.6677 0.0000 23.7645
#
#
#
# Elastic Compliance Matrix: (Units=1/GPa)
#
#
# Indices 1 2 3 4 5 6 
#
# 1 0.008199 -0.000094 -0.001507 0.000000 0.000242 0.000000
# 2 -0.000094 0.014813 -0.000738 0.000000 -0.000927 0.000000
# 3 -0.001507 -0.000738 0.009845 0.000000 0.004168 0.000000
# 4 0.000000 0.000000 0.000000 0.038971 0.000000 0.002735
# 5 0.000242 -0.000927 0.004168 0.000000 0.026363 0.000000
# 6 0.000000 0.000000 0.000000 0.002735 0.000000 0.042271
#
#
# Mechanical properties :
#
#
# Convention : Reuss Voigt Hill
#
# Bulk Modulus (GPa) = 35.48911 40.18706 37.83809
# Shear Modulus (GPa) = 32.35539 36.68630 34.52084
#
# Velocity S-wave (km/s) = 3.81948 4.06708 3.94522
# Velocity P-wave (km/s) = 5.95421 6.33833 6.14927
#
# Compressibility (1/GPa) = 0.02817766
#
# Stress axis : x y z
#
# Youngs Moduli (GPa) = 121.96847 67.50924 101.57528
#
# Poissons Ratio (x) = 0.00634 0.15310
# Poissons Ratio (y) = 0.01146 0.07499
# Poissons Ratio (z) = 0.18383 0.04984
#
# Static dielectric constant tensor:
#      x y z
#    x 1.867010 0.000000 0.023190 
#    y 0.000000 1.849730 0.000000 
#    z 0.023190 0.000000 1.850340 
# 
# From -- ./inp_files/119966.got.cif
#   From: 2010.05.17/outbox.cif.g08.bks.cpg/sg15_60_cif.got.tgz:119966.got - 2010.06.03 18:47:42.
