data_PCOD9307841
_publ_section_title
;
Structure prediction by ZEFSAII (Michael W. Deem and Ramdas Pophale) SiO2 
 PCOD9307841
Probable space group: C 2/C
;
_chemical_formula_sum "Si O2"
_cell_formula_units_Z 28
_cell_length_a 11.664800
_cell_length_b 17.027443
_cell_length_c 9.501522
_cell_angle_alpha 90.000000
_cell_angle_beta 35.358649
_cell_angle_gamma 90.000000
_cell_volume 1092.113914
_symmetry_space_group_name_H-M "C 2/C"
_symmetry_group_IT_number 15
_symmetry_cell_setting 'monoclinic'
loop_
_space_group_symop_operation_xyz
x,y,z
-x,y,1/2-z
-x,-y,-z
x,-y,1/2+z
1/2+x,1/2+y,z
1/2-x,1/2+y,1/2-z
1/2-x,1/2-y,-z
1/2+x,1/2-y,1/2+z
loop_
_atom_site_type_symbol
_atom_site_label
_atom_site_fract_x
_atom_site_fract_y
_atom_site_fract_z
Si Si1 0.661371 0.313323 0.194822
Si Si2 0.863072 0.569988 0.688336
Si Si3 0.500000 0.415325 0.750000
Si Si4 0.304662 0.805516 0.576860
O O1 0.500000 0.348190 0.250000
O O2 0.775744 0.387600 0.138881
O O3 0.646757 0.254931 0.345230
O O4 0.750000 0.250000 0.000000
O O5 0.684621 0.451287 0.475672
O O6 0.000000 0.500000 0.500000
O O7 0.008442 0.636566 0.604948
O O8 0.616265 0.364602 0.754661
O O9 0.250000 0.750000 0.500000
#
# Coordination Sequence:
#
# PCOD9307841 Si02
#       4
#     8   8   4   8
#     4  12  24  49  84 128 177 224 283 364 442 519
#     4  12  29  54  87 129 179 229 293 371 445 519
#     4  12  26  48  90 124 168 230 302 348 432 530
#     4  12  25  51  90 131 168 233 300 348 429 553
#
# _framework density 25.638352000000001
#
# number of rings (size 3 to 8) (size 9 to 14) (size 15 to 20)
#    0.000    0.000    5.714    4.286    0.000    1.143 
#   12.857    0.000    0.000    1.714    0.000    0.000 
#    0.000    0.000    0.000    0.000    0.000    0.000 
#
# Total GULP energy -78090.099723 kJ/mol
# GULP energy per Si atom -5577.864266 kJ/mol
# Density = 2.558000 g / cm^3
# Si number density = 25.638352 Si / 1000 Ang^3
#
#
#
# Elastic Constant Matrix: (Units=GPa)
#
#
# Indices 1 2 3 4 5 6 
#
# 1 280.2367 85.9882 75.3369 -0.0021 2.8186 0.0012
# 2 85.9882 154.6935 107.2923 -0.0013 7.8064 0.0010
# 3 75.3369 107.2923 196.8032 -0.0034 -2.1415 0.0029
# 4 -0.0021 -0.0013 -0.0034 45.9629 0.0025 -11.9825
# 5 2.8186 7.8064 -2.1415 0.0025 49.0456 -0.0018
# 6 0.0012 0.0010 0.0029 -11.9825 -0.0018 31.0816
#
#
#
# Elastic Compliance Matrix: (Units=1/GPa)
#
#
# Indices 1 2 3 4 5 6 
#
# 1 0.004340 -0.002031 -0.000554 0.000000 0.000050 0.000000
# 2 -0.002031 0.011526 -0.005528 0.000000 -0.001959 0.000000
# 3 -0.000554 -0.005528 0.008320 0.000000 0.001275 0.000000
# 4 0.000000 0.000000 0.000000 0.024188 -0.000001 0.009325
# 5 0.000050 -0.001959 0.001275 -0.000001 0.020754 0.000001
# 6 0.000000 0.000000 0.000000 0.009325 0.000001 0.035768
#
#
# Mechanical properties :
#
#
# Convention : Reuss Voigt Hill
#
# Bulk Modulus (GPa) = 125.59278 129.88539 127.73909
# Shear Modulus (GPa) = 40.39610 49.42575 44.91092
#
# Velocity S-wave (km/s) = 3.97370 4.39544 4.18988
# Velocity P-wave (km/s) = 8.37535 8.74817 8.56379
#
# Compressibility (1/GPa) = 0.00796224
#
# Stress axis : x y z
#
# Youngs Moduli (GPa) = 230.41956 86.76040 120.18532
#
# Poissons Ratio (x) = 0.17621 0.06653
# Poissons Ratio (y) = 0.46797 0.66433
# Poissons Ratio (z) = 0.12755 0.47957
#
# Static dielectric constant tensor:
#      x y z
#    x 1.910310 0.000000 -0.256200 
#    y 0.000000 2.172600 0.000000 
#    z -0.256200 0.000000 2.662310 
# 
# From -- ./inp_files/75493.got.cif
#   From: 2010.05.17/outbox.cif.g08.bks.cpg/sg15_38_cif.got.tgz:75493.got - 2010.06.03 18:47:42.
