data_PCOD9307530
_publ_section_title
;
Structure prediction by ZEFSAII (Michael W. Deem and Ramdas Pophale) SiO2 
 PCOD9307530
Probable space group: C 2/C
;
_chemical_formula_sum "Si O2"
_cell_formula_units_Z 48
_cell_length_a 18.211365
_cell_length_b 6.964701
_cell_length_c 19.122142
_cell_angle_alpha 90.000000
_cell_angle_beta 43.256339
_cell_angle_gamma 90.000000
_cell_volume 1662.031150
_symmetry_space_group_name_H-M "C 2/C"
_symmetry_group_IT_number 15
_symmetry_cell_setting 'monoclinic'
loop_
_space_group_symop_operation_xyz
x,y,z
-x,y,1/2-z
-x,-y,-z
x,-y,1/2+z
1/2+x,1/2+y,z
1/2-x,1/2+y,1/2-z
1/2-x,1/2-y,-z
1/2+x,1/2-y,1/2+z
loop_
_atom_site_type_symbol
_atom_site_label
_atom_site_fract_x
_atom_site_fract_y
_atom_site_fract_z
Si Si1 0.631558 0.323560 0.707157
Si Si2 0.863732 0.134332 0.918500
Si Si3 0.536511 0.610817 0.406515
Si Si4 0.568769 0.898142 0.795754
Si Si5 0.870036 0.384391 0.580575
Si Si6 0.198537 0.187739 0.395993
O O1 0.365990 0.450233 0.865282
O O2 0.558869 0.446114 0.812074
O O3 0.754748 0.290329 0.644773
O O4 0.578368 0.114028 0.757053
O O5 0.959031 0.291905 0.851346
O O6 0.750000 0.250000 0.000000
O O7 0.856870 0.063593 0.004444
O O8 0.500000 0.500000 0.500000
O O9 0.462756 0.797681 0.467296
O O10 0.662047 0.627200 0.344278
O O11 0.594684 0.877169 0.861968
O O12 0.674487 0.803243 0.687919
O O13 0.849993 0.600044 0.568673
#
# Coordination Sequence:
#
# PCOD9307530 Si02
#       6
#     8   8   8   8   8   8
#     4  12  28  51  90 143 185 243 324 390 481 579
#     4  12  29  54  89 133 196 252 301 390 496 580
#     4  12  26  46  87 137 178 233 319 398 466 560
#     4  12  26  52  94 135 188 247 318 400 476 572
#     4  12  23  48  93 140 180 236 324 404 470 561
#     4  12  25  49  88 129 180 244 303 384 473 562
#
# _framework density 28.880324999999999
#
# number of rings (size 3 to 8) (size 9 to 14) (size 15 to 20)
#    0.000    0.000    6.667    2.500    2.333    1.333 
#    3.000    0.000   14.667    2.000    0.000    0.000 
#    0.000    0.000    0.000    0.000    0.000    0.000 
#
# Total GULP energy -134316.041696 kJ/mol
# GULP energy per Si atom -5596.501737 kJ/mol
# Density = 2.881459 g / cm^3
# Si number density = 28.880325 Si / 1000 Ang^3
#
#
#
# Elastic Constant Matrix: (Units=GPa)
#
#
# Indices 1 2 3 4 5 6 
#
# 1 210.4180 71.4520 102.8006 0.0000 -0.3724 -0.0002
# 2 71.4520 168.7045 72.8652 -0.0002 6.1645 -0.0003
# 3 102.8006 72.8652 241.0298 0.0000 7.3058 0.0000
# 4 0.0000 -0.0002 0.0000 36.4202 0.0000 -1.2909
# 5 -0.3724 6.1645 7.3058 0.0000 69.4162 0.0000
# 6 -0.0002 -0.0003 0.0000 -1.2909 0.0000 45.1699
#
#
#
# Elastic Compliance Matrix: (Units=1/GPa)
#
#
# Indices 1 2 3 4 5 6 
#
# 1 0.006445 -0.001786 -0.002222 0.000000 0.000427 0.000000
# 2 -0.001786 0.007323 -0.001437 0.000000 -0.000509 0.000000
# 3 -0.002222 -0.001437 0.005545 0.000000 -0.000468 0.000000
# 4 0.000000 0.000000 0.000000 0.027485 0.000000 0.000785
# 5 0.000427 -0.000509 -0.000468 0.000000 0.014503 0.000000
# 6 0.000000 0.000000 0.000000 0.000785 0.000000 0.022161
#
#
# Mechanical properties :
#
#
# Convention : Reuss Voigt Hill
#
# Bulk Modulus (GPa) = 118.70391 123.82087 121.26239
# Shear Modulus (GPa) = 51.46207 55.07021 53.26614
#
# Velocity S-wave (km/s) = 4.22584 4.37148 4.29928
# Velocity P-wave (km/s) = 8.06236 8.27325 8.16848
#
# Compressibility (1/GPa) = 0.00842432
#
# Stress axis : x y z
#
# Youngs Moduli (GPa) = 155.15602 136.55711 180.33920
#
# Poissons Ratio (x) = 0.24384 0.40072
# Poissons Ratio (y) = 0.27705 0.25911
# Poissons Ratio (z) = 0.34476 0.19620
#
# Static dielectric constant tensor:
#      x y z
#    x 2.373210 0.000000 0.344260 
#    y 0.000000 4.201670 -0.000010 
#    z 0.344260 -0.000010 1.370460 
# 
# From -- ./inp_files/300471.got.cif
#   From: 2010.05.17/outbox.cif.g08.bks.cpg/sg15_151_cif.got.tgz:300471.got - 2010.06.03 18:47:42.
