data_PCOD9307163
_publ_section_title
;
Structure prediction by ZEFSAII (Michael W. Deem and Ramdas Pophale) SiO2 
 PCOD9307163
Probable space group: C 2/C
;
_chemical_formula_sum "Si O2"
_cell_formula_units_Z 40
_cell_length_a 24.017942
_cell_length_b 6.775562
_cell_length_c 10.243142
_cell_angle_alpha 90.000000
_cell_angle_beta 110.368590
_cell_angle_gamma 90.000000
_cell_volume 1562.690777
_symmetry_space_group_name_H-M "C 2/C"
_symmetry_group_IT_number 15
_symmetry_cell_setting 'monoclinic'
loop_
_space_group_symop_operation_xyz
x,y,z
-x,y,1/2-z
-x,-y,-z
x,-y,1/2+z
1/2+x,1/2+y,z
1/2-x,1/2+y,1/2-z
1/2-x,1/2-y,-z
1/2+x,1/2-y,1/2+z
loop_
_atom_site_type_symbol
_atom_site_label
_atom_site_fract_x
_atom_site_fract_y
_atom_site_fract_z
Si Si1 0.809656 0.655855 0.722794
Si Si2 0.554651 0.687254 0.847523
Si Si3 0.813927 0.634367 0.053227
Si Si4 0.906360 0.985249 0.866680
Si Si5 0.678888 0.172553 0.109825
O O1 0.851791 0.846122 0.778752
O O2 0.740482 0.709119 0.656325
O O3 0.823461 0.622527 0.564027
O O4 0.814424 0.579906 0.890404
O O5 0.500000 0.821152 0.750000
O O6 0.621574 0.763615 0.895401
O O7 0.556627 0.528153 0.733070
O O8 0.552435 0.623688 0.994753
O O9 0.816047 0.595796 0.220136
O O10 0.750000 0.750000 0.000000
O O11 0.877490 0.179654 0.913018
#
# Coordination Sequence:
#
# PCOD9307163 Si02
#       5
#     8   8   8   8   8
#     4  12  22  40  69 108 148 189 241 301 373 436
#     4  12  27  49  75 106 146 200 251 303 372 448
#     4  12  24  45  72 109 151 198 243 309 376 444
#     4  12  25  48  74 104 148 196 251 306 367 446
#     4  12  22  40  69 108 148 189 241 301 373 436
#
# _framework density 25.596874
#
# number of rings (size 3 to 8) (size 9 to 14) (size 15 to 20)
#    0.000    0.000    6.000    6.000    0.000    0.000 
#    0.000    8.000    0.000    0.000    0.000    0.000 
#    0.000    0.000    0.000    0.000    0.000    0.000 
#
# Total GULP energy -111550.644833 kJ/mol
# GULP energy per Si atom -5577.532242 kJ/mol
# Density = 2.553861 g / cm^3
# Si number density = 25.596874 Si / 1000 Ang^3
#
#
#
# Elastic Constant Matrix: (Units=GPa)
#
#
# Indices 1 2 3 4 5 6 
#
# 1 89.0314 14.6624 45.4253 0.0000 -12.2314 0.0000
# 2 14.6624 63.5264 41.4864 0.0000 -7.2137 0.0000
# 3 45.4253 41.4864 239.2340 0.0000 -17.3697 0.0000
# 4 0.0000 0.0000 0.0000 65.6868 0.0000 -24.3949
# 5 -12.2314 -7.2137 -17.3697 0.0000 80.2434 0.0000
# 6 0.0000 0.0000 0.0000 -24.3949 0.0000 24.5582
#
#
#
# Elastic Compliance Matrix: (Units=1/GPa)
#
#
# Indices 1 2 3 4 5 6 
#
# 1 0.012709 -0.001429 -0.002066 0.000000 0.001361 0.000000
# 2 -0.001429 0.017983 -0.002789 0.000000 0.000795 0.000000
# 3 -0.002066 -0.002789 0.005095 0.000000 0.000537 0.000000
# 4 0.000000 0.000000 0.000000 0.024123 0.000000 0.023963
# 5 0.001361 0.000795 0.000537 0.000000 0.012857 0.000000
# 6 0.000000 0.000000 0.000000 0.023963 0.000000 0.064523
#
#
# Mechanical properties :
#
#
# Convention : Reuss Voigt Hill
#
# Bulk Modulus (GPa) = 43.07190 66.10445 54.58817
# Shear Modulus (GPa) = 31.72601 53.44552 42.58576
#
# Velocity S-wave (km/s) = 3.52440 4.57439 4.08328
# Velocity P-wave (km/s) = 5.78147 7.33357 6.60328
#
# Compressibility (1/GPa) = 0.02321699
#
# Stress axis : x y z
#
# Youngs Moduli (GPa) = 78.68617 55.60716 196.26681
#
# Poissons Ratio (x) = 0.07947 0.40557
# Poissons Ratio (y) = 0.11246 0.54748
# Poissons Ratio (z) = 0.16260 0.15511
#
# Static dielectric constant tensor:
#      x y z
#    x 2.111010 0.000000 -0.212170 
#    y 0.000000 2.029640 0.000000 
#    z -0.212170 0.000000 2.317530 
# 
# From -- ./inp_files/38613.got.cif
#   From: 2010.05.17/outbox.cif.g08.bks.cpg/sg15_20_cif.got.tgz:38613.got - 2010.06.03 18:47:42.
