data_PCOD9307901
_publ_section_title
;
Structure prediction by ZEFSAII (Michael W. Deem and Ramdas Pophale) SiO2 
 PCOD9307901
Probable space group: C 2/C
;
_chemical_formula_sum "Si O2"
_cell_formula_units_Z 32
_cell_length_a 5.071660
_cell_length_b 18.341305
_cell_length_c 15.547165
_cell_angle_alpha 90.000000
_cell_angle_beta 84.769497
_cell_angle_gamma 90.000000
_cell_volume 1440.188693
_symmetry_space_group_name_H-M "C 2/C"
_symmetry_group_IT_number 15
_symmetry_cell_setting 'monoclinic'
loop_
_space_group_symop_operation_xyz
x,y,z
-x,y,1/2-z
-x,-y,-z
x,-y,1/2+z
1/2+x,1/2+y,z
1/2-x,1/2+y,1/2-z
1/2-x,1/2-y,-z
1/2+x,1/2-y,1/2+z
loop_
_atom_site_type_symbol
_atom_site_label
_atom_site_fract_x
_atom_site_fract_y
_atom_site_fract_z
Si Si1 0.158621 0.785902 0.092050
Si Si2 0.384586 0.132539 0.848726
Si Si3 0.736615 0.012465 0.060639
Si Si4 0.758232 0.859055 0.690968
O O1 0.361554 0.851763 0.099825
O O2 0.221242 0.723793 0.160613
O O3 0.858574 0.814469 0.115256
O O4 0.250000 0.750000 0.000000
O O5 0.500000 0.143924 0.750000
O O6 0.290557 0.050265 0.866217
O O7 0.766349 0.089533 0.107413
O O8 0.500000 0.000000 0.000000
O O9 0.000000 0.000000 0.000000
O O10 0.500000 0.882223 0.750000
O O11 0.000000 0.865382 0.750000
#
# Coordination Sequence:
#
# PCOD9307901 Si02
#       4
#     8   8   8   8
#     4  12  25  44  69  99 135 177 225 280 340 408
#     4  12  25  44  69  99 134 177 226 281 339 405
#     4  12  26  46  69  99 136 180 228 281 342 411
#     4  12  25  44  68  99 135 176 223 280 341 404
#
# _framework density 22.219308999999999
#
# number of rings (size 3 to 8) (size 9 to 14) (size 15 to 20)
#    0.000    0.000    0.000   12.000    0.000    2.000 
#    0.000    0.000    0.000    0.000    0.000    0.000 
#    0.000    0.000    0.000    0.000    0.000    0.000 
#
# Total GULP energy -89548.045323 kJ/mol
# GULP energy per Si atom -5596.752833 kJ/mol
# Density = 2.216874 g / cm^3
# Si number density = 22.219309 Si / 1000 Ang^3
#
#
#
# Elastic Constant Matrix: (Units=GPa)
#
#
# Indices 1 2 3 4 5 6 
#
# 1 170.0177 -4.6228 50.6394 0.0000 -19.1483 0.0000
# 2 -4.6228 73.8837 11.1225 0.0000 -13.9104 0.0000
# 3 50.6394 11.1225 101.4842 0.0000 -12.9005 0.0000
# 4 0.0000 0.0000 0.0000 55.9228 0.0000 -1.1777
# 5 -19.1483 -13.9104 -12.9005 0.0000 46.5671 0.0000
# 6 0.0000 0.0000 0.0000 -1.1777 0.0000 37.2845
#
#
#
# Elastic Compliance Matrix: (Units=1/GPa)
#
#
# Indices 1 2 3 4 5 6 
#
# 1 0.007224 0.001431 -0.003451 0.000000 0.002442 0.000000
# 2 0.001431 0.014737 -0.001757 0.000000 0.004504 0.000000
# 3 -0.003451 -0.001757 0.011942 0.000000 0.001364 0.000000
# 4 0.000000 0.000000 0.000000 0.017894 0.000000 0.000565
# 5 0.002442 0.004504 0.001364 0.000000 0.024202 0.000000
# 6 0.000000 0.000000 0.000000 0.000565 0.000000 0.026839
#
#
# Mechanical properties :
#
#
# Convention : Reuss Voigt Hill
#
# Bulk Modulus (GPa) = 37.95199 51.07375 44.51287
# Shear Modulus (GPa) = 41.95616 47.17134 44.56375
#
# Velocity S-wave (km/s) = 4.35014 4.61259 4.48329
# Velocity P-wave (km/s) = 6.50764 7.16966 6.84666
#
# Compressibility (1/GPa) = 0.02634908
#
# Stress axis : x y z
#
# Youngs Moduli (GPa) = 138.43689 67.85750 83.74029
#
# Poissons Ratio (x) = -0.09712 0.28898
# Poissons Ratio (y) = -0.19813 0.14711
# Poissons Ratio (z) = 0.47773 0.11921
#
# Static dielectric constant tensor:
#      x y z
#    x 1.694730 0.000000 0.180310 
#    y 0.000000 1.840420 0.000000 
#    z 0.180310 0.000000 1.107230 
# 
# From -- ./inp_files/128293.got.cif
#   From: 2010.05.17/outbox.cif.g08.bks.cpg/sg15_65_cif.got.tgz:128293.got - 2010.06.03 18:47:42.
