data_PCOD9307957
_publ_section_title
;
Structure prediction by ZEFSAII (Michael W. Deem and Ramdas Pophale) SiO2 
 PCOD9307957
Probable space group: C 2/C
;
_chemical_formula_sum "Si O2"
_cell_formula_units_Z 48
_cell_length_a 11.263838
_cell_length_b 13.292165
_cell_length_c 21.094585
_cell_angle_alpha 90.000000
_cell_angle_beta 41.105022
_cell_angle_gamma 90.000000
_cell_volume 2076.395522
_symmetry_space_group_name_H-M "C 2/C"
_symmetry_group_IT_number 15
_symmetry_cell_setting 'monoclinic'
loop_
_space_group_symop_operation_xyz
x,y,z
-x,y,1/2-z
-x,-y,-z
x,-y,1/2+z
1/2+x,1/2+y,z
1/2-x,1/2+y,1/2-z
1/2-x,1/2-y,-z
1/2+x,1/2-y,1/2+z
loop_
_atom_site_type_symbol
_atom_site_label
_atom_site_fract_x
_atom_site_fract_y
_atom_site_fract_z
Si Si1 0.255611 0.362267 0.247635
Si Si2 0.000000 0.434196 0.250000
Si Si3 0.691991 0.082360 0.079114
Si Si4 0.896109 0.235619 0.080005
Si Si5 0.000000 0.887863 0.750000
Si Si6 0.491944 0.460303 0.882781
Si Si7 0.608564 0.186749 0.379148
O O1 0.194934 0.320621 0.339708
O O2 0.333889 0.473456 0.206391
O O3 0.402294 0.285593 0.160585
O O4 0.086157 0.364921 0.268770
O O5 0.866290 0.507057 0.341589
O O6 0.756986 0.184133 0.087092
O O7 0.527059 0.106196 0.097723
O O8 0.857663 0.028011 0.977903
O O9 0.965975 0.143013 0.096205
O O10 0.049162 0.283481 0.973835
O O11 0.910456 0.941941 0.846294
O O12 0.820432 0.839014 0.792369
#
# Coordination Sequence:
#
# PCOD9307957 Si02
#       7
#     8   4   8   8   4   8   8
#     4  12  26  47  77 112 151 205 247 308 374 444
#     4  12  25  46  77 108 150 204 257 300 377 440
#     4  12  26  50  77 111 152 198 255 307 375 451
#     4  12  26  49  78 113 154 194 254 311 373 449
#     4  12  29  50  71 112 158 192 257 306 375 448
#     4  12  27  49  75 111 154 201 246 317 371 448
#     4  12  27  49  74 112 151 199 251 309 370 449
#
# _framework density 23.116983000000001
#
# number of rings (size 3 to 8) (size 9 to 14) (size 15 to 20)
#    0.000    0.000    5.000    4.500    4.667    1.333 
#    0.000    0.000    0.000    0.000    0.000    0.000 
#    0.000    0.000    0.000    0.000    0.000    0.000 
#
# Total GULP energy -134159.556482 kJ/mol
# GULP energy per Si atom -5589.981520 kJ/mol
# Density = 2.306437 g / cm^3
# Si number density = 23.116983 Si / 1000 Ang^3
#
#
#
# Elastic Constant Matrix: (Units=GPa)
#
#
# Indices 1 2 3 4 5 6 
#
# 1 91.5673 34.8130 24.0910 0.0000 1.0003 0.0000
# 2 34.8130 66.0257 56.6868 -0.0001 7.4640 0.0000
# 3 24.0910 56.6868 168.7603 0.0000 22.9332 -0.0001
# 4 0.0000 -0.0001 0.0000 42.0937 0.0001 11.3948
# 5 1.0003 7.4640 22.9332 0.0001 34.1986 0.0000
# 6 0.0000 0.0000 -0.0001 11.3948 0.0000 21.2646
#
#
#
# Elastic Compliance Matrix: (Units=1/GPa)
#
#
# Indices 1 2 3 4 5 6 
#
# 1 0.013739 -0.007809 0.000533 0.000000 0.000945 0.000000
# 2 -0.007809 0.025723 -0.007475 0.000000 -0.000373 0.000000
# 3 0.000533 -0.007475 0.008957 0.000000 -0.004391 0.000000
# 4 0.000000 0.000000 0.000000 0.027787 0.000000 -0.014890
# 5 0.000945 -0.000373 -0.004391 0.000000 0.032239 0.000000
# 6 0.000000 0.000000 0.000000 -0.014890 0.000000 0.055006
#
#
# Mechanical properties :
#
#
# Convention : Reuss Voigt Hill
#
# Bulk Modulus (GPa) = 52.85982 61.94833 57.40407
# Shear Modulus (GPa) = 25.09317 33.56221 29.32769
#
# Velocity S-wave (km/s) = 3.29825 3.81444 3.56570
# Velocity P-wave (km/s) = 6.11722 6.80117 6.46824
#
# Compressibility (1/GPa) = 0.01891796
#
# Stress axis : x y z
#
# Youngs Moduli (GPa) = 72.78470 38.87616 111.64589
#
# Poissons Ratio (x) = 0.30358 -0.05954
# Poissons Ratio (y) = 0.56836 0.83454
# Poissons Ratio (z) = -0.03882 0.29059
#
# Static dielectric constant tensor:
#      x y z
#    x 1.970890 0.000000 -0.029720 
#    y 0.000000 2.001440 0.000000 
#    z -0.029720 0.000000 1.828760 
# 
# From -- ./inp_files/238986.got.cif
#   From: 2010.05.17/outbox.cif.g08.bks.cpg/sg15_120_cif.got.tgz:238986.got - 2010.06.03 18:47:42.
