data_PCOD9307802
_publ_section_title
;
Structure prediction by ZEFSAII (Michael W. Deem and Ramdas Pophale) SiO2 
 PCOD9307802
Probable space group: C 2/C
;
_chemical_formula_sum "Si O2"
_cell_formula_units_Z 32
_cell_length_a 15.857482
_cell_length_b 14.477514
_cell_length_c 11.175437
_cell_angle_alpha 90.000000
_cell_angle_beta 30.892427
_cell_angle_gamma 90.000000
_cell_volume 1317.261941
_symmetry_space_group_name_H-M "C 2/C"
_symmetry_group_IT_number 15
_symmetry_cell_setting 'monoclinic'
loop_
_space_group_symop_operation_xyz
x,y,z
-x,y,1/2-z
-x,-y,-z
x,-y,1/2+z
1/2+x,1/2+y,z
1/2-x,1/2+y,1/2-z
1/2-x,1/2-y,-z
1/2+x,1/2-y,1/2+z
loop_
_atom_site_type_symbol
_atom_site_label
_atom_site_fract_x
_atom_site_fract_y
_atom_site_fract_z
Si Si1 0.500000 0.392938 0.250000
Si Si2 0.385659 0.134099 0.004905
Si Si3 0.250000 0.750000 0.000000
Si Si4 0.331571 0.517532 0.635388
Si Si5 0.162700 0.292684 0.334153
O O1 0.617618 0.332506 0.190535
O O2 0.365375 0.458268 0.476220
O O3 0.500000 0.136912 0.750000
O O4 0.489105 0.172701 0.992786
O O5 0.318062 0.032213 0.113466
O O6 0.230774 0.202744 0.183039
O O7 0.162629 0.732819 0.973964
O O8 0.500000 0.500000 0.500000
O O9 0.285463 0.621815 0.663373
#
# Coordination Sequence:
#
# PCOD9307802 Si02
#       5
#     4   8   4   8   8
#     4  12  26  46  78 106 154 202 260 318 388 450
#     4  12  28  50  75 113 155 208 255 322 393 465
#     4  12  24  48  76 110 150 196 258 324 374 466
#     4  12  27  49  72 114 152 209 260 318 388 463
#     4  12  26  49  76 110 154 200 263 317 395 458
#
# _framework density 24.292812999999999
#
# number of rings (size 3 to 8) (size 9 to 14) (size 15 to 20)
#    0.000    0.000    5.000    4.500    5.250    0.000 
#    6.750    0.000    0.000    0.000    0.000    0.000 
#    0.000    0.000    0.000    0.000    0.000    0.000 
#
# Total GULP energy -89117.306072 kJ/mol
# GULP energy per Si atom -5569.831629 kJ/mol
# Density = 2.423752 g / cm^3
# Si number density = 24.292813 Si / 1000 Ang^3
#
#
#
# Elastic Constant Matrix: (Units=GPa)
#
#
# Indices 1 2 3 4 5 6 
#
# 1 87.2169 -17.8031 14.3451 0.0000 9.8045 0.0000
# 2 -17.8031 65.2606 12.4271 0.0001 8.9216 0.0000
# 3 14.3451 12.4271 75.0644 0.0001 9.3405 0.0000
# 4 0.0000 0.0001 0.0001 55.5701 -0.0001 -23.7070
# 5 9.8045 8.9216 9.3405 -0.0001 26.7144 0.0000
# 6 0.0000 0.0000 0.0000 -23.7070 0.0000 -4.0203
#
#
#
# Elastic Compliance Matrix: (Units=1/GPa)
#
#
# Indices 1 2 3 4 5 6 
#
# 1 0.013573 0.004999 -0.002712 0.000000 -0.005703 0.000000
# 2 0.004999 0.018214 -0.003121 0.000000 -0.006826 0.000000
# 3 -0.002712 -0.003121 0.014745 0.000000 -0.003118 0.000000
# 4 0.000000 0.000000 0.000000 0.005119 0.000000 -0.030183
# 5 -0.005703 -0.006826 -0.003118 0.000000 0.042896 0.000000
# 6 0.000000 0.000000 0.000000 -0.030183 0.000000 -0.070751
#
#
# Mechanical properties :
#
#
# Convention : Reuss Voigt Hill
#
# Bulk Modulus (GPa) = 22.28979 27.27557 24.78268
# Shear Modulus (GPa) = 123.70437 30.22436 76.96437
#
# Velocity S-wave (km/s) = 7.14372 3.53110 5.63478
# Velocity P-wave (km/s) = 8.78858 5.27988 7.24970
#
# Compressibility (1/GPa) = 0.04486359
#
# Stress axis : x y z
#
# Youngs Moduli (GPa) = 73.67494 54.90164 67.82043
#
# Poissons Ratio (x) = -0.27444 0.18392
# Poissons Ratio (y) = -0.36828 0.21169
# Poissons Ratio (z) = 0.19979 0.17136
#
# Static dielectric constant tensor:
#      x y z
#    x 1.955560 0.000000 0.024760 
#    y 0.000000 1.900000 0.000000 
#    z 0.024760 0.000000 2.010930 
# 
# From -- ./inp_files/27932.got.cif
#   From: 2010.05.17/outbox.cif.g08.bks.cpg/sg15_14_cif.got.tgz:27932.got - 2010.06.03 18:47:42.
