data_PCOD9307280
_publ_section_title
;
Structure prediction by ZEFSAII (Michael W. Deem and Ramdas Pophale) SiO2 
 PCOD9307280
Probable space group: C 2/C
;
_chemical_formula_sum "Si O2"
_cell_formula_units_Z 44
_cell_length_a 16.921927
_cell_length_b 5.297949
_cell_length_c 21.936618
_cell_angle_alpha 90.000000
_cell_angle_beta 72.936811
_cell_angle_gamma 90.000000
_cell_volume 1880.082278
_symmetry_space_group_name_H-M "C 2/C"
_symmetry_group_IT_number 15
_symmetry_cell_setting 'monoclinic'
loop_
_space_group_symop_operation_xyz
x,y,z
-x,y,1/2-z
-x,-y,-z
x,-y,1/2+z
1/2+x,1/2+y,z
1/2-x,1/2+y,1/2-z
1/2-x,1/2-y,-z
1/2+x,1/2-y,1/2+z
loop_
_atom_site_type_symbol
_atom_site_label
_atom_site_fract_x
_atom_site_fract_y
_atom_site_fract_z
Si Si1 0.714382 0.725125 0.393968
Si Si2 0.962498 0.462010 0.858488
Si Si3 0.815529 0.761263 0.859992
Si Si4 0.500000 0.371525 0.250000
Si Si5 0.121091 0.752165 0.789213
Si Si6 0.950880 0.749618 0.490951
O O1 0.761874 0.468555 0.398205
O O2 0.677772 0.692224 0.334014
O O3 0.637733 0.754116 0.456955
O O4 0.772164 0.972610 0.381972
O O5 0.905509 0.710748 0.869518
O O6 0.946598 0.289446 0.919794
O O7 0.058577 0.533709 0.827031
O O8 0.940998 0.304317 0.803209
O O9 0.826472 0.718883 0.784474
O O10 0.443598 0.534781 0.218138
O O11 0.000000 0.500000 0.500000
O O12 0.000000 0.000000 0.500000
#
# Coordination Sequence:
#
# PCOD9307280 Si02
#       6
#     8   8   8   4   8   8
#     4  12  28  46  73 106 154 194 240 311 384 438
#     4  12  26  44  80 105 149 202 250 315 367 455
#     4  12  26  46  69 114 151 187 244 313 382 435
#     4  12  22  44  76 112 144 186 270 298 380 428
#     4  12  24  45  73 108 143 201 244 307 365 459
#     4  12  27  50  76 109 146 201 263 306 369 464
#
# _framework density 23.403230000000001
#
# number of rings (size 3 to 8) (size 9 to 14) (size 15 to 20)
#    0.000    0.000    5.455    4.364    2.545    1.455 
#    0.000    0.000    0.000    0.000    0.000    0.000 
#    0.000    0.000    0.000    0.000    0.000    0.000 
#
# Total GULP energy -123196.786624 kJ/mol
# GULP energy per Si atom -5599.853937 kJ/mol
# Density = 2.334996 g / cm^3
# Si number density = 23.403230 Si / 1000 Ang^3
#
#
#
# Elastic Constant Matrix: (Units=GPa)
#
#
# Indices 1 2 3 4 5 6 
#
# 1 81.0774 59.0143 28.4614 0.0002 -21.7475 0.0000
# 2 59.0143 152.3655 35.5025 0.0004 -14.4132 -0.0002
# 3 28.4614 35.5025 127.7129 -0.0004 -21.6289 -0.0004
# 4 0.0002 0.0004 -0.0004 24.1224 0.0003 -1.8903
# 5 -21.7475 -14.4132 -21.6289 0.0003 53.0332 0.0002
# 6 0.0000 -0.0002 -0.0004 -1.8903 0.0002 46.1213
#
#
#
# Elastic Compliance Matrix: (Units=1/GPa)
#
#
# Indices 1 2 3 4 5 6 
#
# 1 0.019067 -0.006518 -0.001518 0.000000 0.005428 0.000000
# 2 -0.006518 0.009317 -0.001247 0.000000 -0.000649 0.000000
# 3 -0.001518 -0.001247 0.008972 0.000000 0.002698 0.000000
# 4 0.000000 0.000000 0.000000 0.041589 0.000000 0.001705
# 5 0.005428 -0.000649 0.002698 0.000000 0.022006 0.000000
# 6 0.000000 0.000000 0.000000 0.001705 0.000000 0.021752
#
#
# Mechanical properties :
#
#
# Convention : Reuss Voigt Hill
#
# Bulk Modulus (GPa) = 53.22146 67.45689 60.33918
# Shear Modulus (GPa) = 33.89096 40.53389 37.21242
#
# Velocity S-wave (km/s) = 3.80956 4.16622 3.99188
# Velocity P-wave (km/s) = 6.49159 7.21315 6.86186
#
# Compressibility (1/GPa) = 0.01878941
#
# Stress axis : x y z
#
# Youngs Moduli (GPa) = 52.44655 107.33187 111.45821
#
# Poissons Ratio (x) = 0.69957 0.16919
# Poissons Ratio (y) = 0.34184 0.13904
# Poissons Ratio (z) = 0.07961 0.13389
#
# Static dielectric constant tensor:
#      x y z
#    x 1.881620 0.000000 -0.007290 
#    y 0.000000 1.877370 0.000000 
#    z -0.007290 0.000000 1.870950 
# 
# From -- ./inp_files/246392.got.cif
#   From: 2010.05.17/outbox.cif.g08.bks.cpg/sg15_124_cif.got.tgz:246392.got - 2010.06.03 18:47:42.
