data_PCOD9307252
_publ_section_title
;
Structure prediction by ZEFSAII (Michael W. Deem and Ramdas Pophale) SiO2 
 PCOD9307252
Probable space group: C 2/C
;
_chemical_formula_sum "Si O2"
_cell_formula_units_Z 52
_cell_length_a 8.251639
_cell_length_b 22.143344
_cell_length_c 14.853087
_cell_angle_alpha 90.000000
_cell_angle_beta 51.868180
_cell_angle_gamma 90.000000
_cell_volume 2134.763649
_symmetry_space_group_name_H-M "C 2/C"
_symmetry_group_IT_number 15
_symmetry_cell_setting 'monoclinic'
loop_
_space_group_symop_operation_xyz
x,y,z
-x,y,1/2-z
-x,-y,-z
x,-y,1/2+z
1/2+x,1/2+y,z
1/2-x,1/2+y,1/2-z
1/2-x,1/2-y,-z
1/2+x,1/2-y,1/2+z
loop_
_atom_site_type_symbol
_atom_site_label
_atom_site_fract_x
_atom_site_fract_y
_atom_site_fract_z
Si Si1 0.160079 0.060334 0.257073
Si Si2 0.247416 0.004560 0.905439
Si Si3 0.186593 0.284283 0.614579
Si Si4 0.075137 0.401723 0.540619
Si Si5 0.500000 0.776439 0.250000
Si Si6 0.076359 0.820043 0.593794
Si Si7 0.984641 0.625900 0.877543
O O1 0.332538 0.087575 0.133638
O O2 0.033014 0.116950 0.340540
O O3 0.000000 0.023842 0.250000
O O4 0.271948 0.023587 0.297288
O O5 0.372891 0.066722 0.874343
O O6 0.322004 0.962244 0.960257
O O7 0.000000 0.000000 0.000000
O O8 0.250000 0.250000 0.500000
O O9 0.131289 0.350146 0.592938
O O10 0.396502 0.287630 0.599626
O O11 0.000000 0.267565 0.750000
O O12 0.111339 0.388454 0.423899
O O13 0.362899 0.726828 0.348408
O O14 0.387148 0.826561 0.226822
O O15 0.283296 0.835379 0.471939
#
# Coordination Sequence:
#
# PCOD9307252 Si02
#       7
#     8   8   8   8   4   8   8
#     4  12  22  43  77 107 138 196 252 298 376 464
#     4  12  24  46  71 107 150 188 250 311 377 464
#     4  12  26  43  72 108 149 199 261 316 385 460
#     4  12  23  46  74 106 147 199 248 307 387 474
#     4  12  28  44  74 108 146 190 260 312 382 450
#     4  12  23  47  71  98 149 198 247 310 379 464
#     4  12  27  46  72 109 147 194 249 319 387 454
#
# _framework density 24.358667000000001
#
# number of rings (size 3 to 8) (size 9 to 14) (size 15 to 20)
#    0.000    0.000    6.923    2.308    4.308    0.000 
#    0.000    0.000    0.000    0.000    0.000    0.000 
#    0.000    0.000    0.000    0.000    0.000    0.000 
#
# Total GULP energy -145249.795683 kJ/mol
# GULP energy per Si atom -5586.530603 kJ/mol
# Density = 2.430323 g / cm^3
# Si number density = 24.358667 Si / 1000 Ang^3
#
#
#
# Elastic Constant Matrix: (Units=GPa)
#
#
# Indices 1 2 3 4 5 6 
#
# 1 96.2238 39.5755 18.1088 0.0000 10.2484 0.0000
# 2 39.5755 138.6173 48.9720 0.0000 18.9593 0.0000
# 3 18.1088 48.9720 82.3763 0.0000 15.1892 0.0000
# 4 0.0000 0.0000 0.0000 37.4064 0.0000 10.3655
# 5 10.2484 18.9593 15.1892 0.0000 43.4873 0.0000
# 6 0.0000 0.0000 0.0000 10.3655 0.0000 29.0767
#
#
#
# Elastic Compliance Matrix: (Units=1/GPa)
#
#
# Indices 1 2 3 4 5 6 
#
# 1 0.011877 -0.003008 -0.000586 0.000000 -0.001283 0.000000
# 2 -0.003008 0.010101 -0.004983 0.000000 -0.001954 0.000000
# 3 -0.000586 -0.004983 0.015824 0.000000 -0.003216 0.000000
# 4 0.000000 0.000000 0.000000 0.029664 0.000000 -0.010575
# 5 -0.001283 -0.001954 -0.003216 0.000000 0.025273 0.000000
# 6 0.000000 0.000000 0.000000 -0.010575 0.000000 0.038162
#
#
# Mechanical properties :
#
#
# Convention : Reuss Voigt Hill
#
# Bulk Modulus (GPa) = 48.43489 58.94777 53.69133
# Shear Modulus (GPa) = 32.27134 36.03148 34.15141
#
# Velocity S-wave (km/s) = 3.64378 3.85022 3.74842
# Velocity P-wave (km/s) = 6.13434 6.63461 6.38937
#
# Compressibility (1/GPa) = 0.02064627
#
# Stress axis : x y z
#
# Youngs Moduli (GPa) = 84.19913 99.00224 63.19637
#
# Poissons Ratio (x) = 0.29784 0.03702
# Poissons Ratio (y) = 0.25330 0.31492
# Poissons Ratio (z) = 0.04933 0.49334
#
# Static dielectric constant tensor:
#      x y z
#    x 1.984830 0.000000 0.072360 
#    y 0.000000 1.960810 0.000000 
#    z 0.072360 0.000000 2.105910 
# 
# From -- ./inp_files/192467.got.cif
#   From: 2010.05.17/outbox.cif.g08.bks.cpg/sg15_97_cif.got.tgz:192467.got - 2010.06.03 18:47:42.
