data_PCOD9307692
_publ_section_title
;
Structure prediction by ZEFSAII (Michael W. Deem and Ramdas Pophale) SiO2 
 PCOD9307692
Probable space group: C 2/C
;
_chemical_formula_sum "Si O2"
_cell_formula_units_Z 52
_cell_length_a 5.056978
_cell_length_b 20.768931
_cell_length_c 20.218509
_cell_angle_alpha 90.000000
_cell_angle_beta 89.378685
_cell_angle_gamma 90.000000
_cell_volume 2123.385259
_symmetry_space_group_name_H-M "C 2/C"
_symmetry_group_IT_number 15
_symmetry_cell_setting 'monoclinic'
loop_
_space_group_symop_operation_xyz
x,y,z
-x,y,1/2-z
-x,-y,-z
x,-y,1/2+z
1/2+x,1/2+y,z
1/2-x,1/2+y,1/2-z
1/2-x,1/2-y,-z
1/2+x,1/2-y,1/2+z
loop_
_atom_site_type_symbol
_atom_site_label
_atom_site_fract_x
_atom_site_fract_y
_atom_site_fract_z
Si Si1 0.223106 0.589714 0.627571
Si Si2 0.500000 0.843076 0.250000
Si Si3 0.158672 0.448297 0.580833
Si Si4 0.242334 0.112648 0.546716
Si Si5 0.250000 0.250000 0.500000
Si Si6 0.817627 0.766504 0.653365
Si Si7 0.500000 0.139454 0.250000
Si Si8 0.331361 0.381099 0.862143
O O1 0.181177 0.613667 0.701924
O O2 0.124439 0.517441 0.614010
O O3 0.519640 0.598044 0.601033
O O4 0.024109 0.628759 0.579492
O O5 0.648708 0.795385 0.300302
O O6 0.231290 0.447573 0.503236
O O7 0.404067 0.417260 0.618733
O O8 0.899360 0.403754 0.588145
O O9 0.169117 0.173221 0.501049
O O10 0.291415 0.248524 0.418599
O O11 0.642578 0.815533 0.696295
O O12 0.093983 0.805341 0.641868
O O13 0.284833 0.100517 0.209323
#
# Coordination Sequence:
#
# PCOD9307692 Si02
#       8
#     8   4   8   8   4   8   4   8
#     4  12  29  51  76 112 163 218 266 322 396 494
#     4  12  28  51  74 114 159 222 258 330 406 496
#     4  12  26  49  79 118 160 207 269 331 396 481
#     4  12  26  48  81 115 158 210 268 334 408 472
#     4  12  26  48  80 124 152 210 270 346 402 488
#     4  12  26  49  79 115 161 202 264 336 412 479
#     4  12  24  45  76 116 153 208 248 336 412 476
#     4  12  24  46  79 115 150 202 261 330 400 469
#
# _framework density 24.489196
#
# number of rings (size 3 to 8) (size 9 to 14) (size 15 to 20)
#    0.000    0.000    6.154    2.769    2.154    3.077 
#    0.000    0.000    0.000    0.000    0.000    0.000 
#    0.000    0.000    0.000    0.000    0.000    0.000 
#
# Total GULP energy -145096.675051 kJ/mol
# GULP energy per Si atom -5580.641348 kJ/mol
# Density = 2.443346 g / cm^3
# Si number density = 24.489196 Si / 1000 Ang^3
#
#
#
# Elastic Constant Matrix: (Units=GPa)
#
#
# Indices 1 2 3 4 5 6 
#
# 1 109.6823 23.2487 32.6580 0.0000 -21.0621 0.0000
# 2 23.2487 90.0575 40.7023 0.0000 -24.5480 0.0000
# 3 32.6580 40.7023 184.1226 0.0000 -21.6900 0.0000
# 4 0.0000 0.0000 0.0000 41.0221 0.0000 -5.7328
# 5 -21.0621 -24.5480 -21.6900 0.0000 41.3700 0.0000
# 6 0.0000 0.0000 0.0000 -5.7328 0.0000 14.4750
#
#
#
# Elastic Compliance Matrix: (Units=1/GPa)
#
#
# Indices 1 2 3 4 5 6 
#
# 1 0.010470 -0.001072 -0.001137 0.000000 0.004098 0.000000
# 2 -0.001072 0.014193 -0.002153 0.000000 0.006747 0.000000
# 3 -0.001137 -0.002153 0.006278 0.000000 0.001435 0.000000
# 4 0.000000 0.000000 0.000000 0.025805 0.000000 0.010220
# 5 0.004098 0.006747 0.001435 0.000000 0.031015 0.000000
# 6 0.000000 0.000000 0.000000 0.010220 0.000000 0.073133
#
#
# Mechanical properties :
#
#
# Convention : Reuss Voigt Hill
#
# Bulk Modulus (GPa) = 45.00990 64.12005 54.56498
# Shear Modulus (GPa) = 28.24503 38.52364 33.38434
#
# Velocity S-wave (km/s) = 3.39981 3.97052 3.69620
# Velocity P-wave (km/s) = 5.81644 6.87458 6.36753
#
# Compressibility (1/GPa) = 0.02221733
#
# Stress axis : x y z
#
# Youngs Moduli (GPa) = 95.51068 70.45837 159.29159
#
# Poissons Ratio (x) = 0.07551 0.18118
# Poissons Ratio (y) = 0.10236 0.34288
# Poissons Ratio (z) = 0.10863 0.15166
#
# Static dielectric constant tensor:
#      x y z
#    x 1.938590 0.000000 0.086300 
#    y 0.000000 2.071430 0.000000 
#    z 0.086300 0.000000 1.846280 
# 
# From -- ./inp_files/227569.got.cif
#   From: 2010.05.17/outbox.cif.g08.bks.cpg/sg15_114_cif.got.tgz:227569.got - 2010.06.03 18:47:42.
