data_PCOD9307485
_publ_section_title
;
Structure prediction by ZEFSAII (Michael W. Deem and Ramdas Pophale) SiO2 
 PCOD9307485
Probable space group: C 2/C
;
_chemical_formula_sum "Si O2"
_cell_formula_units_Z 40
_cell_length_a 12.587338
_cell_length_b 8.072464
_cell_length_c 17.097141
_cell_angle_alpha 90.000000
_cell_angle_beta 80.069885
_cell_angle_gamma 90.000000
_cell_volume 1711.228616
_symmetry_space_group_name_H-M "C 2/C"
_symmetry_group_IT_number 15
_symmetry_cell_setting 'monoclinic'
loop_
_space_group_symop_operation_xyz
x,y,z
-x,y,1/2-z
-x,-y,-z
x,-y,1/2+z
1/2+x,1/2+y,z
1/2-x,1/2+y,1/2-z
1/2-x,1/2-y,-z
1/2+x,1/2-y,1/2+z
loop_
_atom_site_type_symbol
_atom_site_label
_atom_site_fract_x
_atom_site_fract_y
_atom_site_fract_z
Si Si1 0.260314 0.384968 0.929265
Si Si2 0.025127 0.054376 0.585477
Si Si3 0.098643 0.577633 0.036343
Si Si4 0.618093 0.007108 0.208614
Si Si5 0.169875 0.184688 0.797501
O O1 0.382353 0.433201 0.894873
O O2 0.196730 0.311596 0.864450
O O3 0.250000 0.250000 0.000000
O O4 0.202007 0.549950 0.968906
O O5 0.068425 0.239494 0.566512
O O6 0.922212 0.065417 0.655563
O O7 0.000000 0.000000 0.500000
O O8 0.122014 0.486165 0.115088
O O9 0.000000 0.500000 0.000000
O O10 0.500000 0.950799 0.250000
O O11 0.630435 0.199810 0.232159
O O12 0.719344 0.911287 0.232530
#
# Coordination Sequence:
#
# PCOD9307485 Si02
#       5
#     8   8   8   8   8
#     4  12  23  46  73 107 141 187 252 308 359 444
#     4  12  24  44  75 107 145 184 251 312 368 431
#     4  12  23  47  77 106 148 195 250 311 366 439
#     4  12  27  50  72 103 155 198 242 306 378 446
#     4  12  28  48  71 108 149 194 249 302 379 444
#
# _framework density 23.375017
#
# number of rings (size 3 to 8) (size 9 to 14) (size 15 to 20)
#    0.000    0.000    8.000    0.600    2.800    1.600 
#    3.600    0.000    0.000    0.000    0.000    0.000 
#    0.000    0.000    0.000    0.000    0.000    0.000 
#
# Total GULP energy -112022.883685 kJ/mol
# GULP energy per Si atom -5601.144184 kJ/mol
# Density = 2.332181 g / cm^3
# Si number density = 23.375017 Si / 1000 Ang^3
#
#
#
# Elastic Constant Matrix: (Units=GPa)
#
#
# Indices 1 2 3 4 5 6 
#
# 1 161.0277 33.7305 45.3386 0.0000 -32.6882 0.0000
# 2 33.7305 66.0556 15.4810 0.0000 -12.7033 0.0000
# 3 45.3386 15.4810 95.4645 0.0000 3.8931 0.0000
# 4 0.0000 0.0000 0.0000 42.2618 0.0000 -1.0700
# 5 -32.6882 -12.7033 3.8931 0.0000 50.8960 0.0000
# 6 0.0000 0.0000 0.0000 -1.0700 0.0000 58.6519
#
#
#
# Elastic Compliance Matrix: (Units=1/GPa)
#
#
# Indices 1 2 3 4 5 6 
#
# 1 0.009009 -0.002596 -0.004080 0.000000 0.005450 0.000000
# 2 -0.002596 0.017403 -0.001704 0.000000 0.002807 0.000000
# 3 -0.004080 -0.001704 0.012853 0.000000 -0.004029 0.000000
# 4 0.000000 0.000000 0.000000 0.023673 0.000000 0.000432
# 5 0.005450 0.002807 -0.004029 0.000000 0.024157 0.000000
# 6 0.000000 0.000000 0.000000 0.000432 0.000000 0.017058
#
#
# Mechanical properties :
#
#
# Convention : Reuss Voigt Hill
#
# Bulk Modulus (GPa) = 44.43175 56.84979 50.64077
# Shear Modulus (GPa) = 38.93626 45.56177 42.24901
#
# Velocity S-wave (km/s) = 4.08575 4.41972 4.25602
# Velocity P-wave (km/s) = 6.42708 7.10062 6.77223
#
# Compressibility (1/GPa) = 0.02250643
#
# Stress axis : x y z
#
# Youngs Moduli (GPa) = 111.00014 57.45976 77.80088
#
# Poissons Ratio (x) = 0.14917 0.31742
# Poissons Ratio (y) = 0.28816 0.13256
# Poissons Ratio (z) = 0.45287 0.09790
#
# Static dielectric constant tensor:
#      x y z
#    x 1.895420 0.000000 -0.008830 
#    y 0.000000 1.860900 0.000000 
#    z -0.008830 0.000000 1.955920 
# 
# From -- ./inp_files/195077.got.cif
#   From: 2010.05.17/outbox.cif.g08.bks.cpg/sg15_98_cif.got.tgz:195077.got - 2010.06.03 18:47:42.
