data_PCOD9307701
_publ_section_title
;
Structure prediction by ZEFSAII (Michael W. Deem and Ramdas Pophale) SiO2 
 PCOD9307701
Probable space group: C 2/C
;
_chemical_formula_sum "Si O2"
_cell_formula_units_Z 32
_cell_length_a 23.152826
_cell_length_b 5.171380
_cell_length_c 10.139195
_cell_angle_alpha 90.000000
_cell_angle_beta 107.591232
_cell_angle_gamma 90.000000
_cell_volume 1157.216970
_symmetry_space_group_name_H-M "C 2/C"
_symmetry_group_IT_number 15
_symmetry_cell_setting 'monoclinic'
loop_
_space_group_symop_operation_xyz
x,y,z
-x,y,1/2-z
-x,-y,-z
x,-y,1/2+z
1/2+x,1/2+y,z
1/2-x,1/2+y,1/2-z
1/2-x,1/2-y,-z
1/2+x,1/2-y,1/2+z
loop_
_atom_site_type_symbol
_atom_site_label
_atom_site_fract_x
_atom_site_fract_y
_atom_site_fract_z
Si Si1 0.961936 0.384977 0.352002
Si Si2 0.393623 0.495556 0.165999
Si Si3 0.241521 0.049762 0.322150
Si Si4 0.627480 0.001129 0.013404
O O1 0.944019 0.082678 0.309162
O O2 0.899731 0.257810 0.582689
O O3 0.000000 0.462839 0.250000
O O4 0.000000 0.500000 0.500000
O O5 0.325946 0.498776 0.176738
O O6 0.395168 0.990126 0.350076
O O7 0.394524 0.734842 0.065174
O O8 0.249742 0.349682 0.292079
O O9 0.300100 0.984113 0.449840
#
# Coordination Sequence:
#
# PCOD9307701 Si02
#       4
#     8   8   8   8
#     4  12  28  57  86 124 171 229 289 354 424 509
#     4  12  27  51  83 120 173 222 287 350 430 513
#     4  12  24  45  82 123 173 221 280 354 435 511
#     4  12  27  51  80 123 167 228 282 355 425 508
#
# _framework density 27.652550000000002
#
# number of rings (size 3 to 8) (size 9 to 14) (size 15 to 20)
#    0.000    0.000    5.000    4.500    0.000    1.000 
#    4.500    0.000    0.000    0.000    0.000    0.000 
#    0.000    0.000    0.000    0.000    0.000    0.000 
#
# Total GULP energy -89576.265966 kJ/mol
# GULP energy per Si atom -5598.516623 kJ/mol
# Density = 2.758961 g / cm^3
# Si number density = 27.652550 Si / 1000 Ang^3
#
#
#
# Elastic Constant Matrix: (Units=GPa)
#
#
# Indices 1 2 3 4 5 6 
#
# 1 186.4620 52.6311 76.3567 0.0000 -19.1093 0.0000
# 2 52.6311 143.4216 74.2999 0.0000 7.9121 0.0000
# 3 76.3567 74.2999 140.6841 0.0000 3.3616 0.0000
# 4 0.0000 0.0000 0.0000 60.0183 0.0000 5.5222
# 5 -19.1093 7.9121 3.3616 0.0000 73.0810 0.0000
# 6 0.0000 0.0000 0.0000 5.5222 0.0000 46.2022
#
#
#
# Elastic Compliance Matrix: (Units=1/GPa)
#
#
# Indices 1 2 3 4 5 6 
#
# 1 0.007294 -0.000990 -0.003488 0.000000 0.002175 0.000000
# 2 -0.000990 0.009781 -0.004602 0.000000 -0.001106 0.000000
# 3 -0.003488 -0.004602 0.011454 0.000000 -0.000941 0.000000
# 4 0.000000 0.000000 0.000000 0.016847 0.000000 -0.002014
# 5 0.002175 -0.001106 -0.000941 0.000000 0.014415 0.000000
# 6 0.000000 0.000000 0.000000 -0.002014 0.000000 0.021885
#
#
# Mechanical properties :
#
#
# Convention : Reuss Voigt Hill
#
# Bulk Modulus (GPa) = 96.43743 97.46033 96.94888
# Shear Modulus (GPa) = 48.40726 53.67899 51.04313
#
# Velocity S-wave (km/s) = 4.18850 4.41068 4.30102
# Velocity P-wave (km/s) = 7.63818 7.82687 7.73310
#
# Compressibility (1/GPa) = 0.01036942
#
# Stress axis : x y z
#
# Youngs Moduli (GPa) = 137.10807 102.24262 87.30458
#
# Poissons Ratio (x) = 0.10117 0.30451
# Poissons Ratio (y) = 0.13567 0.40178
# Poissons Ratio (z) = 0.47822 0.47052
#
# Static dielectric constant tensor:
#      x y z
#    x 2.150690 0.000000 0.046880 
#    y 0.000000 2.108660 0.000000 
#    z 0.046880 0.000000 2.312630 
# 
# From -- ./inp_files/115732.got.cif
#   From: 2010.05.17/outbox.cif.g08.bks.cpg/sg15_58_cif.got.tgz:115732.got - 2010.06.03 18:47:42.
