data_PCOD9307791
_publ_section_title
;
Structure prediction by ZEFSAII (Michael W. Deem and Ramdas Pophale) SiO2 
 PCOD9307791
Probable space group: C 2/C
;
_chemical_formula_sum "Si O2"
_cell_formula_units_Z 36
_cell_length_a 8.690519
_cell_length_b 17.177090
_cell_length_c 15.562439
_cell_angle_alpha 90.000000
_cell_angle_beta 135.983828
_cell_angle_gamma 90.000000
_cell_volume 1614.251286
_symmetry_space_group_name_H-M "C 2/C"
_symmetry_group_IT_number 15
_symmetry_cell_setting 'monoclinic'
loop_
_space_group_symop_operation_xyz
x,y,z
-x,y,1/2-z
-x,-y,-z
x,-y,1/2+z
1/2+x,1/2+y,z
1/2-x,1/2+y,1/2-z
1/2-x,1/2-y,-z
1/2+x,1/2-y,1/2+z
loop_
_atom_site_type_symbol
_atom_site_label
_atom_site_fract_x
_atom_site_fract_y
_atom_site_fract_z
Si Si1 0.887721 0.353542 0.789815
Si Si2 0.500000 0.620155 0.750000
Si Si3 0.323080 0.021898 0.997417
Si Si4 0.249898 0.197259 0.691602
Si Si5 0.460496 0.415624 0.526710
O O1 0.827111 0.286958 0.833088
O O2 0.660870 0.393153 0.668398
O O3 0.000000 0.317257 0.750000
O O4 0.061383 0.418297 0.890807
O O5 0.372493 0.566060 0.630525
O O6 0.683624 0.664052 0.761398
O O7 0.255344 0.938398 0.007524
O O8 0.500000 0.000000 0.000000
O O9 0.500000 0.191608 0.750000
O O10 0.093510 0.150111 0.563435
O O11 0.500000 0.500000 0.500000
#
# Coordination Sequence:
#
# PCOD9307791 Si02
#       5
#     8   4   8   8   8
#     4  12  27  48  76 108 152 202 251 309 385 451
#     4  12  24  48  74 108 146 198 246 304 382 440
#     4  12  27  45  78 108 149 194 259 311 374 450
#     4  12  29  47  76 109 157 195 252 314 383 447
#     4  12  26  49  76 108 149 197 255 309 376 447
#
# _framework density 22.301361
#
# number of rings (size 3 to 8) (size 9 to 14) (size 15 to 20)
#    0.000    0.000    5.556    2.667    9.333    2.667 
#    0.000    0.000    0.000    0.000    0.000    0.000 
#    0.000    0.000    0.000    0.000    0.000    0.000 
#
# Total GULP energy -100472.674374 kJ/mol
# GULP energy per Si atom -5581.815243 kJ/mol
# Density = 2.225060 g / cm^3
# Si number density = 22.301361 Si / 1000 Ang^3
#
#
#
# Elastic Constant Matrix: (Units=GPa)
#
#
# Indices 1 2 3 4 5 6 
#
# 1 133.3496 32.1604 17.0934 0.0001 -7.9582 -0.0002
# 2 32.1604 122.7694 77.4037 0.0000 6.3699 -0.0001
# 3 17.0934 77.4037 142.1025 0.0000 7.0243 0.0001
# 4 0.0001 0.0000 0.0000 28.9180 0.0001 -3.4102
# 5 -7.9582 6.3699 7.0243 0.0001 27.0979 0.0000
# 6 -0.0002 -0.0001 0.0001 -3.4102 0.0000 38.0150
#
#
#
# Elastic Compliance Matrix: (Units=1/GPa)
#
#
# Indices 1 2 3 4 5 6 
#
# 1 0.008236 -0.002428 0.000186 0.000000 0.002941 0.000000
# 2 -0.002428 0.013159 -0.006774 0.000000 -0.002050 0.000000
# 3 0.000186 -0.006774 0.010761 0.000000 -0.001142 0.000000
# 4 0.000000 0.000000 0.000000 0.034950 0.000000 0.003135
# 5 0.002941 -0.002050 -0.001142 0.000000 0.038545 0.000000
# 6 0.000000 0.000000 0.000000 0.003135 0.000000 0.026587
#
#
# Mechanical properties :
#
#
# Convention : Reuss Voigt Hill
#
# Bulk Modulus (GPa) = 70.79695 72.39294 71.59495
# Shear Modulus (GPa) = 32.26277 36.91046 34.58661
#
# Velocity S-wave (km/s) = 3.80764 4.07268 3.94239
# Velocity P-wave (km/s) = 7.15160 7.39238 7.27298
#
# Compressibility (1/GPa) = 0.01412490
#
# Stress axis : x y z
#
# Youngs Moduli (GPa) = 121.41517 75.99578 92.92662
#
# Poissons Ratio (x) = 0.18448 -0.01730
# Poissons Ratio (y) = 0.29474 0.62950
# Poissons Ratio (z) = -0.02260 0.51481
#
# Static dielectric constant tensor:
#      x y z
#    x 3.117540 0.000000 -0.510700 
#    y 0.000000 1.738700 0.000000 
#    z -0.510700 0.000000 1.956920 
# 
# From -- ./inp_files/134676.got.cif
#   From: 2010.05.17/outbox.cif.g08.bks.cpg/sg15_68_cif.got.tgz:134676.got - 2010.06.03 18:47:42.
