data_PCOD9307858
_publ_section_title
;
Structure prediction by ZEFSAII (Michael W. Deem and Ramdas Pophale) SiO2 
 PCOD9307858
Probable space group: C 2/C
;
_chemical_formula_sum "Si O2"
_cell_formula_units_Z 52
_cell_length_a 13.623782
_cell_length_b 26.147503
_cell_length_c 9.288689
_cell_angle_alpha 90.000000
_cell_angle_beta 39.027725
_cell_angle_gamma 90.000000
_cell_volume 2083.596028
_symmetry_space_group_name_H-M "C 2/C"
_symmetry_group_IT_number 15
_symmetry_cell_setting 'monoclinic'
loop_
_space_group_symop_operation_xyz
x,y,z
-x,y,1/2-z
-x,-y,-z
x,-y,1/2+z
1/2+x,1/2+y,z
1/2-x,1/2+y,1/2-z
1/2-x,1/2-y,-z
1/2+x,1/2-y,1/2+z
loop_
_atom_site_type_symbol
_atom_site_label
_atom_site_fract_x
_atom_site_fract_y
_atom_site_fract_z
Si Si1 0.143805 0.085795 0.235591
Si Si2 0.208744 0.590617 0.121361
Si Si3 0.136519 0.521041 0.691085
Si Si4 0.000000 0.164793 0.250000
Si Si5 0.365954 0.454139 0.166293
Si Si6 0.269163 0.732003 0.645052
Si Si7 0.453646 0.801049 0.648547
O O1 0.202479 0.089505 0.329129
O O2 0.158274 0.137656 0.132416
O O3 0.957399 0.084292 0.456985
O O4 0.217191 0.036103 0.076607
O O5 0.107189 0.538844 0.239583
O O6 0.111777 0.642529 0.234312
O O7 0.327367 0.575963 0.856614
O O8 0.203061 0.464514 0.271177
O O9 0.000000 0.545576 0.750000
O O10 0.926955 0.198348 0.460753
O O11 0.500000 0.500000 0.000000
O O12 0.250000 0.750000 0.500000
O O13 0.318179 0.774917 0.706860
O O14 0.114726 0.701855 0.873810
O O15 0.500000 0.776120 0.750000
#
# Coordination Sequence:
#
# PCOD9307858 Si02
#       7
#     8   8   8   4   8   8   8
#     4  12  26  45  78 116 158 218 281 332 407 500
#     4  12  27  46  78 118 163 212 277 341 423 492
#     4  12  26  47  77 113 168 216 275 346 407 492
#     4  12  26  48  88 124 158 216 292 348 412 526
#     4  12  24  50  77 109 162 226 276 330 405 498
#     4  12  26  57  89 115 162 220 286 353 437 517
#     4  12  29  52  82 125 167 214 273 366 441 507
#
# _framework density 24.956852999999999
#
# number of rings (size 3 to 8) (size 9 to 14) (size 15 to 20)
#    0.000    0.000    6.154    2.308    2.154    4.923 
#    0.000    0.000    0.000    0.000    0.000    0.000 
#    0.000    0.000    0.000    0.000    0.000    0.000 
#
# Total GULP energy -144917.649055 kJ/mol
# GULP energy per Si atom -5573.755733 kJ/mol
# Density = 2.490005 g / cm^3
# Si number density = 24.956853 Si / 1000 Ang^3
#
#
#
# Elastic Constant Matrix: (Units=GPa)
#
#
# Indices 1 2 3 4 5 6 
#
# 1 184.5357 55.1959 39.8451 0.0000 24.2350 0.0000
# 2 55.1959 104.5006 45.0251 0.0000 3.4542 0.0000
# 3 39.8451 45.0251 171.0446 0.0000 0.5628 0.0000
# 4 0.0000 0.0000 0.0000 27.6439 0.0000 10.2660
# 5 24.2350 3.4542 0.5628 0.0000 48.3950 0.0000
# 6 0.0000 0.0000 0.0000 10.2660 0.0000 9.0812
#
#
#
# Elastic Compliance Matrix: (Units=1/GPa)
#
#
# Indices 1 2 3 4 5 6 
#
# 1 0.006984 -0.003254 -0.000760 0.000000 -0.003256 0.000000
# 2 -0.003254 0.012336 -0.002492 0.000000 0.000778 0.000000
# 3 -0.000760 -0.002492 0.006678 0.000000 0.000481 0.000000
# 4 0.000000 0.000000 0.000000 0.062350 0.000000 -0.070485
# 5 -0.003256 0.000778 0.000481 0.000000 0.022233 0.000000
# 6 0.000000 0.000000 0.000000 -0.070485 0.000000 0.189798
#
#
# Mechanical properties :
#
#
# Convention : Reuss Voigt Hill
#
# Bulk Modulus (GPa) = 77.00097 82.24592 79.62345
# Shear Modulus (GPa) = 15.73723 38.35834 27.04778
#
# Velocity S-wave (km/s) = 2.51385 3.92469 3.29566
# Velocity P-wave (km/s) = 6.27268 7.31877 6.81583
#
# Compressibility (1/GPa) = 0.01298685
#
# Stress axis : x y z
#
# Youngs Moduli (GPa) = 143.18560 81.06429 149.75109
#
# Poissons Ratio (x) = 0.26377 0.11376
# Poissons Ratio (y) = 0.46591 0.37315
# Poissons Ratio (z) = 0.10877 0.20200
#
# Static dielectric constant tensor:
#      x y z
#    x 2.033260 0.000000 0.038830 
#    y 0.000000 2.318430 0.000000 
#    z 0.038830 0.000000 2.134160 
# 
# From -- ./inp_files/44750.got.cif
#   From: 2010.05.17/outbox.cif.g08.bks.cpg/sg15_23_cif.got.tgz:44750.got - 2010.06.03 18:47:42.
