data_PCOD9307328
_publ_section_title
;
Structure prediction by ZEFSAII (Michael W. Deem and Ramdas Pophale) SiO2 
 PCOD9307328
Probable space group: C 2/C
;
_chemical_formula_sum "Si O2"
_cell_formula_units_Z 32
_cell_length_a 14.246400
_cell_length_b 7.653276
_cell_length_c 19.163989
_cell_angle_alpha 90.000000
_cell_angle_beta 32.207527
_cell_angle_gamma 90.000000
_cell_volume 1113.667112
_symmetry_space_group_name_H-M "C 2/C"
_symmetry_group_IT_number 15
_symmetry_cell_setting 'monoclinic'
loop_
_space_group_symop_operation_xyz
x,y,z
-x,y,1/2-z
-x,-y,-z
x,-y,1/2+z
1/2+x,1/2+y,z
1/2-x,1/2+y,1/2-z
1/2-x,1/2-y,-z
1/2+x,1/2-y,1/2+z
loop_
_atom_site_type_symbol
_atom_site_label
_atom_site_fract_x
_atom_site_fract_y
_atom_site_fract_z
Si Si1 0.243069 0.028943 0.152735
Si Si2 0.319213 0.394021 0.110103
Si Si3 0.645041 0.492986 0.561596
Si Si4 0.575077 0.810217 0.782960
O O1 0.350768 0.193789 0.111709
O O2 0.043210 0.088793 0.298366
O O3 0.236734 0.830473 0.182633
O O4 0.260262 0.016654 0.058429
O O5 0.163857 0.505244 0.244316
O O6 0.500000 0.500000 0.000000
O O7 0.273269 0.402788 0.056539
O O8 0.578974 0.691139 0.586304
O O9 0.500000 0.818623 0.750000
#
# Coordination Sequence:
#
# PCOD9307328 Si02
#       4
#     8   8   8   8
#     4   8  19  41  55  82 112 146 198 242 271 343
#     4  12  23  34  60  89 115 155 187 234 312 344
#     4   8  19  42  56  83 115 146 198 239 276 343
#     4   8  20  39  57  82 111 144 201 233 277 344
#
# _framework density 28.733899999999998
#
# number of rings (size 3 to 8) (size 9 to 14) (size 15 to 20)
#    1.500    1.500    0.000    0.750    3.500    7.000 
#    4.500    0.000    0.000    0.000    0.000    0.000 
#    0.000    0.000    0.000    0.000    0.000    0.000 
#
# Total GULP energy -89324.128377 kJ/mol
# GULP energy per Si atom -5582.758024 kJ/mol
# Density = 2.866850 g / cm^3
# Si number density = 28.733900 Si / 1000 Ang^3
#
#
#
# Elastic Constant Matrix: (Units=GPa)
#
#
# Indices 1 2 3 4 5 6 
#
# 1 80.2959 44.5587 13.9241 0.0000 13.5608 0.0000
# 2 44.5587 147.6019 28.8019 -0.0009 -18.5603 0.0000
# 3 13.9241 28.8019 76.1442 -0.0010 -7.1957 0.0000
# 4 0.0000 -0.0009 -0.0010 40.1363 0.0002 -13.2680
# 5 13.5608 -18.5603 -7.1957 0.0002 53.8075 0.0000
# 6 0.0000 0.0000 0.0000 -13.2680 0.0000 33.0694
#
#
#
# Elastic Compliance Matrix: (Units=1/GPa)
#
#
# Indices 1 2 3 4 5 6 
#
# 1 0.016921 -0.005606 -0.001580 0.000000 -0.006410 0.000000
# 2 -0.005606 0.009434 -0.002129 0.000000 0.004382 0.000000
# 3 -0.001580 -0.002129 0.014377 0.000000 0.001586 0.000000
# 4 0.000000 0.000000 0.000000 0.028725 0.000000 0.011525
# 5 -0.006410 0.004382 0.001586 0.000000 0.021924 0.000000
# 6 0.000000 0.000000 0.000000 0.011525 0.000000 0.034863
#
#
# Mechanical properties :
#
#
# Convention : Reuss Voigt Hill
#
# Bulk Modulus (GPa) = 45.24298 53.17905 49.21102
# Shear Modulus (GPa) = 32.84255 39.85312 36.34784
#
# Velocity S-wave (km/s) = 3.38448 3.72825 3.56052
# Velocity P-wave (km/s) = 5.57249 6.08939 5.83667
#
# Compressibility (1/GPa) = 0.02210288
#
# Stress axis : x y z
#
# Youngs Moduli (GPa) = 59.09716 106.00115 69.55515
#
# Poissons Ratio (x) = 0.59425 0.10986
# Poissons Ratio (y) = 0.33130 0.14809
# Poissons Ratio (z) = 0.09334 0.22569
#
# Static dielectric constant tensor:
#      x y z
#    x 2.332130 0.000000 0.048390 
#    y 0.000000 2.216210 0.000000 
#    z 0.048390 0.000000 2.265250 
# 
# From -- ./inp_files/93747.got.cif
#   From: 2010.05.17/outbox.cif.g08.bks.cpg/sg15_47_cif.got.tgz:93747.got - 2010.06.03 18:47:42.
