data_PCOD9307019
_publ_section_title
;
Structure prediction by ZEFSAII (Michael W. Deem and Ramdas Pophale) SiO2 
 PCOD9307019
Probable space group: C 2/C
;
_chemical_formula_sum "Si O2"
_cell_formula_units_Z 40
_cell_length_a 19.365070
_cell_length_b 9.053699
_cell_length_c 11.258846
_cell_angle_alpha 90.000000
_cell_angle_beta 133.230946
_cell_angle_gamma 90.000000
_cell_volume 1438.227034
_symmetry_space_group_name_H-M "C 2/C"
_symmetry_group_IT_number 15
_symmetry_cell_setting 'monoclinic'
loop_
_space_group_symop_operation_xyz
x,y,z
-x,y,1/2-z
-x,-y,-z
x,-y,1/2+z
1/2+x,1/2+y,z
1/2-x,1/2+y,1/2-z
1/2-x,1/2-y,-z
1/2+x,1/2-y,1/2+z
loop_
_atom_site_type_symbol
_atom_site_label
_atom_site_fract_x
_atom_site_fract_y
_atom_site_fract_z
Si Si1 0.103036 0.500796 0.403063
Si Si2 0.139607 0.750000 0.252854
Si Si3 0.242374 0.250000 0.646635
Si Si4 0.563819 0.750000 0.050885
Si Si5 0.103036 0.999204 0.403063
O O1 0.186544 0.391307 0.534519
O O2 0.145572 0.250000 0.245278
O O3 0.918505 0.606325 0.009680
O O4 0.770408 0.250000 0.725380
O O5 0.368189 0.891037 0.671240
O O6 0.131811 0.891037 0.328760
O O7 0.048097 0.750000 0.057430
O O8 0.000000 0.433646 0.250000
O O9 0.186544 0.108693 0.534519
O O10 0.581495 0.606324 0.990320
O O11 0.000000 0.066354 0.250000
#
# Coordination Sequence:
#
# PCOD9307019 Si02
#       5
#     8   8   8   8   8
#     4   9  20  39  59  87 122 151 197 247 285 357
#     4   9  22  43  60  81 124 164 185 238 312 346
#     4  12  21  37  67  88 112 160 200 241 297 342
#     4   9  20  39  59  87 122 151 197 247 285 357
#     4   9  20  39  59  87 122 151 197 247 285 357
#
# _framework density 27.812018999999999
#
# number of rings (size 3 to 8) (size 9 to 14) (size 15 to 20)
#    0.000    2.400    0.000    4.200    0.000    9.600 
#    0.000   12.000    0.000    7.200    0.000    0.000 
#    0.000    0.000    0.000    0.000    0.000    0.000 
#
# Total GULP energy -112436.685150 kJ/mol
# GULP energy per Si atom -5621.834257 kJ/mol
# Density = 2.774872 g / cm^3
# Si number density = 27.812019 Si / 1000 Ang^3
#
#
#
# Elastic Constant Matrix: (Units=GPa)
#
#
# Indices 1 2 3 4 5 6 
#
# 1 103.2752 2.4739 9.4588 0.0000 6.7370 0.0000
# 2 2.4739 119.4734 52.8755 0.0000 10.5467 0.0000
# 3 9.4588 52.8755 188.9504 0.0000 37.6866 0.0000
# 4 0.0000 0.0000 0.0000 13.4008 0.0000 -16.1078
# 5 6.7370 10.5467 37.6866 0.0000 50.0285 0.0000
# 6 0.0000 0.0000 0.0000 -16.1078 0.0000 13.1507
#
#
#
# Elastic Compliance Matrix: (Units=1/GPa)
#
#
# Indices 1 2 3 4 5 6 
#
# 1 0.009780 0.000016 -0.000272 0.000000 -0.001116 0.000000
# 2 0.000016 0.009553 -0.002674 0.000000 -0.000002 0.000000
# 3 -0.000272 -0.002674 0.006984 0.000000 -0.004661 0.000000
# 4 0.000000 0.000000 0.000000 -0.158001 0.000000 -0.193530
# 5 -0.001116 -0.000002 -0.004661 0.000000 0.023650 0.000000
# 6 0.000000 0.000000 0.000000 -0.193530 0.000000 -0.161007
#
#
# Mechanical properties :
#
#
# Convention : Reuss Voigt Hill
#
# Bulk Modulus (GPa) = 48.87856 60.14615 54.51235
# Shear Modulus (GPa) = -19.50362 38.44207 9.46922
#
# Velocity S-wave (km/s) = -2.65102 3.72184 1.84719
# Velocity P-wave (km/s) = 2.87093 6.33580 4.91857
#
# Compressibility (1/GPa) = 0.02045887
#
# Stress axis : x y z
#
# Youngs Moduli (GPa) = 102.24798 104.67650 143.18861
#
# Poissons Ratio (x) = -0.00169 0.03888
# Poissons Ratio (y) = -0.00165 0.38285
# Poissons Ratio (z) = 0.02777 0.27988
#
# Static dielectric constant tensor:
#      x y z
#    x 2.089220 0.000000 -0.029700 
#    y 0.000000 2.098290 0.000000 
#    z -0.029700 0.000000 2.126290 
# 
# From -- ./inp_files/112250.got.cif
#   From: 2010.05.17/outbox.cif.g08.bks.cpg/sg15_57_cif.got.tgz:112250.got - 2010.06.03 18:47:42.
