data_PCOD9307639
_publ_section_title
;
Structure prediction by ZEFSAII (Michael W. Deem and Ramdas Pophale) SiO2 
 PCOD9307639
Probable space group: C 2/C
;
_chemical_formula_sum "Si O2"
_cell_formula_units_Z 36
_cell_length_a 13.686622
_cell_length_b 21.530924
_cell_length_c 14.174457
_cell_angle_alpha 90.000000
_cell_angle_beta 160.123412
_cell_angle_gamma 90.000000
_cell_volume 1420.163319
_symmetry_space_group_name_H-M "C 2/C"
_symmetry_group_IT_number 15
_symmetry_cell_setting 'monoclinic'
loop_
_space_group_symop_operation_xyz
x,y,z
-x,y,1/2-z
-x,-y,-z
x,-y,1/2+z
1/2+x,1/2+y,z
1/2-x,1/2+y,1/2-z
1/2-x,1/2-y,-z
1/2+x,1/2-y,1/2+z
loop_
_atom_site_type_symbol
_atom_site_label
_atom_site_fract_x
_atom_site_fract_y
_atom_site_fract_z
Si Si1 0.500000 0.703266 0.250000
Si Si2 0.000000 0.420186 0.750000
Si Si3 0.497420 0.289141 0.038476
Si Si4 0.779880 0.477655 0.193970
Si Si5 0.000000 0.830116 0.250000
Si Si6 0.177804 0.106849 0.261712
O O1 0.750000 0.750000 0.500000
O O2 0.668680 0.659777 0.330049
O O3 0.887629 0.465387 0.730063
O O4 0.771053 0.375903 0.491220
O O5 0.449037 0.293037 0.107253
O O6 0.825681 0.267281 0.333610
O O7 0.399050 0.354480 0.904227
O O8 0.039975 0.438208 0.479382
O O9 0.500000 0.500000 0.000000
O O10 0.610655 0.430719 0.973359
#
# Coordination Sequence:
#
# PCOD9307639 Si02
#       6
#     4   4   8   8   4   8
#     4  12  24  44  72 108 148 194 242 302 376 452
#     4  12  26  48  72 106 146 190 244 308 366 444
#     4  12  25  45  70 103 141 186 238 297 359 431
#     4  12  26  46  73 106 145 193 244 305 375 443
#     4  12  26  46  72 102 142 192 242 300 366 434
#     4  12  25  45  72 107 145 190 242 303 368 446
#
# _framework density 25.349195000000002
#
# number of rings (size 3 to 8) (size 9 to 14) (size 15 to 20)
#    0.000    0.000    0.000   10.667    0.000    3.556 
#    0.000    0.000    0.000    0.000    0.000    0.000 
#    0.000    0.000    0.000    0.000    0.000    0.000 
#
# Total GULP energy -100603.138902 kJ/mol
# GULP energy per Si atom -5589.063272 kJ/mol
# Density = 2.529150 g / cm^3
# Si number density = 25.349195 Si / 1000 Ang^3
#
#
#
# Elastic Constant Matrix: (Units=GPa)
#
#
# Indices 1 2 3 4 5 6 
#
# 1 102.1694 30.6346 38.0249 -0.0011 -1.5028 0.0032
# 2 30.6346 120.2342 75.3809 0.0020 -2.5457 -0.0061
# 3 38.0249 75.3809 201.1705 -0.0179 11.3977 0.0350
# 4 -0.0011 0.0020 -0.0179 -11.3974 -0.0116 143.4531
# 5 -1.5028 -2.5457 11.3977 -0.0116 33.7505 0.0204
# 6 0.0032 -0.0061 0.0350 143.4531 0.0204 -210.1443
#
#
#
# Elastic Compliance Matrix: (Units=1/GPa)
#
#
# Indices 1 2 3 4 5 6 
#
# 1 0.010884 -0.001878 -0.001400 0.000000 0.000816 0.000000
# 2 -0.001878 0.011364 -0.004024 0.000001 0.002132 0.000000
# 3 -0.001400 -0.004024 0.006896 0.000000 -0.002695 0.000001
# 4 0.000000 0.000001 0.000000 0.011557 -0.000001 0.007889
# 5 0.000816 0.002132 -0.002695 -0.000001 0.030736 0.000002
# 6 0.000000 0.000000 0.000001 0.007889 0.000002 0.000627
#
#
# Mechanical properties :
#
#
# Convention : Reuss Voigt Hill
#
# Bulk Modulus (GPa) = 68.77725 79.07278 73.92502
# Shear Modulus (GPa) = 54.63689 -18.92267 17.85711
#
# Velocity S-wave (km/s) = 4.64763 -2.73514 2.65702
# Velocity P-wave (km/s) = 7.48275 4.61372 6.21603
#
# Compressibility (1/GPa) = 0.01453969
#
# Stress axis : x y z
#
# Youngs Moduli (GPa) = 91.87997 88.00043 145.01356
#
# Poissons Ratio (x) = 0.16529 0.20296
# Poissons Ratio (y) = 0.17258 0.58351
# Poissons Ratio (z) = 0.12860 0.35410
#
# Static dielectric constant tensor:
#      x y z
#    x 2.035700 0.000000 -0.044390 
#    y 0.000000 2.062680 0.000000 
#    z -0.044390 0.000000 2.001790 
# 
# From -- ./inp_files/156881.got.cif
#   From: 2010.05.17/outbox.cif.g08.bks.cpg/sg15_79_cif.got.tgz:156881.got - 2010.06.03 18:47:42.
