data_PCOD9307864
_publ_section_title
;
Structure prediction by ZEFSAII (Michael W. Deem and Ramdas Pophale) SiO2 
 PCOD9307864
Probable space group: C 2/C
;
_chemical_formula_sum "Si O2"
_cell_formula_units_Z 36
_cell_length_a 22.499742
_cell_length_b 9.303730
_cell_length_c 11.040509
_cell_angle_alpha 90.000000
_cell_angle_beta 145.743037
_cell_angle_gamma 90.000000
_cell_volume 1300.945579
_symmetry_space_group_name_H-M "C 2/C"
_symmetry_group_IT_number 15
_symmetry_cell_setting 'monoclinic'
loop_
_space_group_symop_operation_xyz
x,y,z
-x,y,1/2-z
-x,-y,-z
x,-y,1/2+z
1/2+x,1/2+y,z
1/2-x,1/2+y,1/2-z
1/2-x,1/2-y,-z
1/2+x,1/2-y,1/2+z
loop_
_atom_site_type_symbol
_atom_site_label
_atom_site_fract_x
_atom_site_fract_y
_atom_site_fract_z
Si Si1 0.315690 0.117705 0.275976
Si Si2 0.872668 0.972843 0.663635
Si Si3 0.031847 0.286462 0.670717
Si Si4 0.312523 0.271752 0.730968
Si Si5 0.500000 0.779856 0.250000
O O1 0.369290 0.154940 0.237580
O O2 0.241185 0.226998 0.227951
O O3 0.416128 0.123426 0.535789
O O4 0.231017 0.996324 0.095243
O O5 0.940326 0.117271 0.772696
O O6 0.842262 0.940168 0.751891
O O7 0.938729 0.836059 0.729855
O O8 0.000000 0.334888 0.750000
O O9 0.921682 0.313903 0.416480
O O10 0.250000 0.250000 0.500000
#
# Coordination Sequence:
#
# PCOD9307864 Si02
#       5
#     8   8   8   8   4
#     4  12  26  47  79 117 158 205 264 333 389 476
#     4  12  25  45  80 113 152 208 262 326 397 462
#     4  12  25  46  75 118 152 203 271 326 390 480
#     4  12  25  45  77 107 160 208 249 327 404 457
#     4  12  24  50  82 112 160 206 266 324 398 474
#
# _framework density 27.672179
#
# number of rings (size 3 to 8) (size 9 to 14) (size 15 to 20)
#    0.000    0.000    7.778    1.333    3.111    0.000 
#    0.000    4.444    0.000    0.000    0.000    0.000 
#    0.000    0.000    0.000    0.000    0.000    0.000 
#
# Total GULP energy -100559.546292 kJ/mol
# GULP energy per Si atom -5586.641461 kJ/mol
# Density = 2.760920 g / cm^3
# Si number density = 27.672179 Si / 1000 Ang^3
#
#
#
# Elastic Constant Matrix: (Units=GPa)
#
#
# Indices 1 2 3 4 5 6 
#
# 1 211.1257 17.9879 11.0590 0.0000 9.2395 0.0000
# 2 17.9879 77.8337 24.5122 0.0000 -6.2877 0.0000
# 3 11.0590 24.5122 158.5998 0.0000 8.0015 0.0000
# 4 0.0000 0.0000 0.0000 48.7212 0.0000 -19.0240
# 5 9.2395 -6.2877 8.0015 0.0000 45.6532 0.0000
# 6 0.0000 0.0000 0.0000 -19.0240 0.0000 5.1267
#
#
#
# Elastic Compliance Matrix: (Units=1/GPa)
#
#
# Indices 1 2 3 4 5 6 
#
# 1 0.004893 -0.001191 -0.000100 0.000000 -0.001137 0.000000
# 2 -0.001191 0.014027 -0.002214 0.000000 0.002561 0.000000
# 3 -0.000100 -0.002214 0.006728 0.000000 -0.001464 0.000000
# 4 0.000000 0.000000 0.000000 -0.045719 0.000000 -0.169653
# 5 -0.001137 0.002561 -0.001464 0.000000 0.022744 0.000000
# 6 0.000000 0.000000 0.000000 -0.169653 0.000000 -0.434489
#
#
# Mechanical properties :
#
#
# Convention : Reuss Voigt Hill
#
# Bulk Modulus (GPa) = 53.65268 61.63083 57.64176
# Shear Modulus (GPa) = -11.94480 46.16690 17.11105
#
# Velocity S-wave (km/s) = -2.07988 4.08898 2.48936
# Velocity P-wave (km/s) = 3.69633 6.67930 5.39796
#
# Compressibility (1/GPa) = 0.01863840
#
# Stress axis : x y z
#
# Youngs Moduli (GPa) = 204.37428 71.28905 148.62833
#
# Poissons Ratio (x) = 0.08492 0.01482
# Poissons Ratio (y) = 0.24346 0.32908
# Poissons Ratio (z) = 0.02038 0.15784
#
# Static dielectric constant tensor:
#      x y z
#    x 2.257340 0.000000 0.091950 
#    y 0.000000 2.423090 0.000000 
#    z 0.091950 0.000000 2.238510 
# 
# From -- ./inp_files/118169.got.cif
#   From: 2010.05.17/outbox.cif.g08.bks.cpg/sg15_60_cif.got.tgz:118169.got - 2010.06.03 18:47:42.
