data_PCOD9307313
_publ_section_title
;
Structure prediction by ZEFSAII (Michael W. Deem and Ramdas Pophale) SiO2 
 PCOD9307313
Probable space group: C 2/C
;
_chemical_formula_sum "Si O2"
_cell_formula_units_Z 40
_cell_length_a 21.659309
_cell_length_b 7.933233
_cell_length_c 15.253370
_cell_angle_alpha 90.000000
_cell_angle_beta 134.345187
_cell_angle_gamma 90.000000
_cell_volume 1874.358729
_symmetry_space_group_name_H-M "C 2/C"
_symmetry_group_IT_number 15
_symmetry_cell_setting 'monoclinic'
loop_
_space_group_symop_operation_xyz
x,y,z
-x,y,1/2-z
-x,-y,-z
x,-y,1/2+z
1/2+x,1/2+y,z
1/2-x,1/2+y,1/2-z
1/2-x,1/2-y,-z
1/2+x,1/2-y,1/2+z
loop_
_atom_site_type_symbol
_atom_site_label
_atom_site_fract_x
_atom_site_fract_y
_atom_site_fract_z
Si Si1 0.000000 0.500000 0.500000
Si Si2 0.667755 0.097660 0.566100
Si Si3 0.000000 0.188973 0.250000
Si Si4 0.322998 0.887685 0.097061
Si Si5 0.263762 0.532506 0.322159
Si Si6 0.449169 0.622839 0.013272
O O1 0.929989 0.406550 0.496615
O O2 0.970519 0.684571 0.511878
O O3 0.706819 0.282533 0.620008
O O4 0.677848 0.031801 0.477711
O O5 0.721252 0.975691 0.684658
O O6 0.916138 0.301203 0.186704
O O7 0.978116 0.086215 0.141470
O O8 0.304158 0.961384 0.174459
O O9 0.250000 0.750000 0.000000
O O10 0.347999 0.415486 0.405955
O O11 0.500000 0.500000 0.000000
#
# Coordination Sequence:
#
# PCOD9307313 Si02
#       6
#     4   8   4   8   8   8
#     4  12  22  48  72 108 146 194 246 302 378 440
#     4  12  26  46  74 106 151 193 249 315 372 456
#     4  12  26  48  76 108 154 196 250 320 372 460
#     4  12  25  47  74 107 148 199 250 309 384 448
#     4  12  26  47  74 109 146 199 252 307 383 451
#     4  12  26  46  77 109 151 195 249 309 375 452
#
# _framework density 21.340633
#
# number of rings (size 3 to 8) (size 9 to 14) (size 15 to 20)
#    0.000    0.000    6.000    4.200    2.800    0.000 
#    0.000    4.000    0.000    0.000    0.000    0.000 
#    0.000    0.000    0.000    0.000    0.000    0.000 
#
# Total GULP energy -111515.027589 kJ/mol
# GULP energy per Si atom -5575.751379 kJ/mol
# Density = 2.129206 g / cm^3
# Si number density = 21.340633 Si / 1000 Ang^3
#
#
#
# Elastic Constant Matrix: (Units=GPa)
#
#
# Indices 1 2 3 4 5 6 
#
# 1 131.8328 15.6315 25.6828 0.0000 5.4606 0.0000
# 2 15.6315 66.1247 -4.8437 0.0000 4.9260 0.0000
# 3 25.6828 -4.8437 62.6372 0.0000 -5.7466 0.0000
# 4 0.0000 0.0000 0.0000 28.0780 0.0000 -4.7408
# 5 5.4606 4.9260 -5.7466 0.0000 33.0277 0.0000
# 6 0.0000 0.0000 0.0000 -4.7408 0.0000 31.3189
#
#
#
# Elastic Compliance Matrix: (Units=1/GPa)
#
#
# Indices 1 2 3 4 5 6 
#
# 1 0.008679 -0.002204 -0.003893 0.000000 -0.001783 0.000000
# 2 -0.002204 0.015913 0.001982 0.000000 -0.001664 0.000000
# 3 -0.003893 0.001982 0.018034 0.000000 0.003486 0.000000
# 4 0.000000 0.000000 0.000000 0.036549 0.000000 0.005533
# 5 -0.001783 -0.001664 0.003486 0.000000 0.031427 0.000000
# 6 0.000000 0.000000 0.000000 0.005533 0.000000 0.032767
#
#
# Mechanical properties :
#
#
# Convention : Reuss Voigt Hill
#
# Bulk Modulus (GPa) = 29.07315 37.05955 33.06635
# Shear Modulus (GPa) = 30.66265 33.42653 32.04459
#
# Velocity S-wave (km/s) = 3.79465 3.96199 3.87922
# Velocity P-wave (km/s) = 5.73168 6.19138 5.96596
#
# Compressibility (1/GPa) = 0.03439600
#
# Stress axis : x y z
#
# Youngs Moduli (GPa) = 115.22215 62.84142 55.45063
#
# Poissons Ratio (x) = 0.13850 0.21585
# Poissons Ratio (y) = 0.25394 -0.10988
# Poissons Ratio (z) = 0.44851 -0.12452
#
# Static dielectric constant tensor:
#      x y z
#    x 1.751740 0.000000 0.007770 
#    y 0.000000 1.738600 0.000000 
#    z 0.007770 0.000000 1.808090 
# 
# From -- ./inp_files/166522.got.cif
#   From: 2010.05.17/outbox.cif.g08.bks.cpg/sg15_84_cif.got.tgz:166522.got - 2010.06.03 18:47:42.
