data_PCOD9307336
_publ_section_title
;
Structure prediction by ZEFSAII (Michael W. Deem and Ramdas Pophale) SiO2 
 PCOD9307336
Probable space group: C 2/C
;
_chemical_formula_sum "Si O2"
_cell_formula_units_Z 56
_cell_length_a 22.037703
_cell_length_b 21.326312
_cell_length_c 10.435100
_cell_angle_alpha 90.000000
_cell_angle_beta 36.137510
_cell_angle_gamma 90.000000
_cell_volume 2892.200429
_symmetry_space_group_name_H-M "C 2/C"
_symmetry_group_IT_number 15
_symmetry_cell_setting 'monoclinic'
loop_
_space_group_symop_operation_xyz
x,y,z
-x,y,1/2-z
-x,-y,-z
x,-y,1/2+z
1/2+x,1/2+y,z
1/2-x,1/2+y,1/2-z
1/2-x,1/2-y,-z
1/2+x,1/2-y,1/2+z
loop_
_atom_site_type_symbol
_atom_site_label
_atom_site_fract_x
_atom_site_fract_y
_atom_site_fract_z
Si Si1 0.882713 0.633481 0.732434
Si Si2 0.620567 0.134252 0.328354
Si Si3 0.825662 0.126785 0.545121
Si Si4 0.229083 0.071569 0.612099
Si Si5 0.122486 0.272054 0.043940
Si Si6 0.431918 0.489728 0.742802
Si Si7 0.886546 0.527921 0.943446
O O1 0.796556 0.622300 0.773865
O O2 0.843076 0.690975 0.888141
O O3 0.885345 0.574662 0.824271
O O4 0.001321 0.644064 0.490634
O O5 0.657911 0.191421 0.355413
O O6 0.622821 0.072163 0.415925
O O7 0.694581 0.120563 0.084319
O O8 0.843864 0.103333 0.658510
O O9 0.855851 0.199061 0.485047
O O10 0.886549 0.080078 0.346194
O O11 0.164433 0.035729 0.614095
O O12 0.295797 0.020235 0.575262
O O13 0.000000 0.282543 0.250000
O O14 0.500000 0.506119 0.750000
O O15 0.500000 0.500000 0.500000
O O16 0.000000 0.497127 0.750000
#
# Coordination Sequence:
#
# PCOD9307336 Si02
#       7
#     8   8   8   8   8   8   8
#     4   9  19  38  60  89 120 154 202 256 309 379
#     4   9  21  38  58  87 128 157 192 264 320 371
#     4  12  23  37  64  91 116 169 216 254 317 381
#     4  12  24  36  61  92 127 161 203 258 323 380
#     4   9  20  40  61  83 117 164 218 260 308 371
#     4  12  26  45  62  91 131 166 218 271 308 368
#     4   9  19  34  57  88 121 156 190 239 316 389
#
# _framework density 19.362421000000001
#
# number of rings (size 3 to 8) (size 9 to 14) (size 15 to 20)
#    0.000    1.714    2.857    3.429    2.000    1.714 
#    0.000    0.000    0.000    0.000    0.000    0.000 
#    0.000    0.000    0.000    0.000    0.000    0.000 
#
# Total GULP energy -156286.571493 kJ/mol
# GULP energy per Si atom -5581.663268 kJ/mol
# Density = 1.931835 g / cm^3
# Si number density = 19.362421 Si / 1000 Ang^3
#
#
#
# Elastic Constant Matrix: (Units=GPa)
#
#
# Indices 1 2 3 4 5 6 
#
# 1 84.9976 28.2141 5.7777 0.0000 -5.9209 0.0000
# 2 28.2141 107.6760 32.7339 0.0000 8.5583 0.0000
# 3 5.7777 32.7339 45.2289 0.0000 15.3401 0.0000
# 4 0.0000 0.0000 0.0000 4.8708 0.0000 -4.8919
# 5 -5.9209 8.5583 15.3401 0.0000 27.6037 0.0000
# 6 0.0000 0.0000 0.0000 -4.8919 0.0000 13.3049
#
#
#
# Elastic Compliance Matrix: (Units=1/GPa)
#
#
# Indices 1 2 3 4 5 6 
#
# 1 0.013317 -0.003682 -0.000484 0.000000 0.004267 0.000000
# 2 -0.003682 0.012966 -0.008974 0.000000 0.000177 0.000000
# 3 -0.000484 -0.008974 0.034205 0.000000 -0.016330 0.000000
# 4 0.000000 0.000000 0.000000 0.325513 0.000000 0.119685
# 5 0.004267 0.000177 -0.016330 0.000000 0.046162 0.000000
# 6 0.000000 0.000000 0.000000 0.119685 0.000000 0.119166
#
#
# Mechanical properties :
#
#
# Convention : Reuss Voigt Hill
#
# Bulk Modulus (GPa) = 29.23162 41.26156 35.24659
# Shear Modulus (GPa) = 8.48882 20.56765 14.52824
#
# Velocity S-wave (km/s) = 2.09611 3.26275 2.74219
# Velocity P-wave (km/s) = 4.58128 5.96242 5.31689
#
# Compressibility (1/GPa) = 0.03420953
#
# Stress axis : x y z
#
# Youngs Moduli (GPa) = 75.09087 77.12660 29.23576
#
# Poissons Ratio (x) = 0.28394 0.01415
# Poissons Ratio (y) = 0.27645 0.26235
# Poissons Ratio (z) = 0.03634 0.69211
#
# Static dielectric constant tensor:
#      x y z
#    x 1.692850 0.000000 -0.011900 
#    y 0.000000 1.664420 0.000000 
#    z -0.011900 0.000000 1.691360 
# 
# From -- ./inp_files/119798.got.cif
#   From: 2010.05.17/outbox.cif.g08.bks.cpg/sg15_60_cif.got.tgz:119798.got - 2010.06.03 18:47:42.
