data_PCOD9307579
_publ_section_title
;
Structure prediction by ZEFSAII (Michael W. Deem and Ramdas Pophale) SiO2 
 PCOD9307579
Probable space group: C 2/C
;
_chemical_formula_sum "Si O2"
_cell_formula_units_Z 48
_cell_length_a 29.402848
_cell_length_b 13.306047
_cell_length_c 9.121113
_cell_angle_alpha 90.000000
_cell_angle_beta 34.064269
_cell_angle_gamma 90.000000
_cell_volume 1998.799799
_symmetry_space_group_name_H-M "C 2/C"
_symmetry_group_IT_number 15
_symmetry_cell_setting 'monoclinic'
loop_
_space_group_symop_operation_xyz
x,y,z
-x,y,1/2-z
-x,-y,-z
x,-y,1/2+z
1/2+x,1/2+y,z
1/2-x,1/2+y,1/2-z
1/2-x,1/2-y,-z
1/2+x,1/2-y,1/2+z
loop_
_atom_site_type_symbol
_atom_site_label
_atom_site_fract_x
_atom_site_fract_y
_atom_site_fract_z
Si Si1 0.840155 0.273371 0.316953
Si Si2 0.575415 0.289574 0.334350
Si Si3 0.680463 0.191492 0.282326
Si Si4 0.500000 0.560565 0.250000
Si Si5 0.277195 0.960972 0.372786
Si Si6 0.500000 0.746292 0.750000
Si Si7 0.661953 0.530462 0.453034
O O1 0.750000 0.250000 0.500000
O O2 0.833995 0.278752 0.509472
O O3 0.849338 0.381974 0.208799
O O4 0.914234 0.207518 0.054523
O O5 0.603201 0.222518 0.393736
O O6 0.517532 0.371950 0.561663
O O7 0.538562 0.223136 0.303246
O O8 0.644610 0.364552 0.082909
O O9 0.750000 0.250000 0.000000
O O10 0.692306 0.072495 0.241518
O O11 0.420660 0.500743 0.408926
O O12 0.203751 0.948510 0.450151
O O13 0.230322 0.958989 0.650140
#
# Coordination Sequence:
#
# PCOD9307579 Si02
#       7
#     8   8   8   4   8   4   8
#     4  12  29  48  79 110 151 198 249 311 369 443
#     4  12  26  44  68 105 147 194 235 310 374 443
#     4  12  24  48  74 108 147 198 250 302 372 444
#     4  12  25  42  67 104 152 194 238 311 377 446
#     4  12  26  45  73 107 139 194 248 304 364 443
#     4  12  29  48  73 112 150 190 256 303 373 440
#     4  12  24  42  70 104 146 185 247 303 378 436
#
# _framework density 24.014412
#
# number of rings (size 3 to 8) (size 9 to 14) (size 15 to 20)
#    0.000    0.000    5.000    4.000   11.667    0.000 
#    0.000    4.167    0.000    0.000    0.000    0.000 
#    0.000    0.000    0.000    0.000    0.000    0.000 
#
# Total GULP energy -133764.401195 kJ/mol
# GULP energy per Si atom -5573.516716 kJ/mol
# Density = 2.395975 g / cm^3
# Si number density = 24.014412 Si / 1000 Ang^3
#
#
#
# Elastic Constant Matrix: (Units=GPa)
#
#
# Indices 1 2 3 4 5 6 
#
# 1 212.4767 41.0349 32.5489 0.0000 21.5168 0.0000
# 2 41.0349 93.3730 21.8727 0.0000 6.7425 0.0000
# 3 32.5489 21.8727 131.7676 0.0000 23.0305 0.0000
# 4 0.0000 0.0000 0.0000 21.1487 0.0000 17.2081
# 5 21.5168 6.7425 23.0305 0.0000 37.8570 0.0000
# 6 0.0000 0.0000 0.0000 17.2081 0.0000 14.6473
#
#
#
# Elastic Compliance Matrix: (Units=1/GPa)
#
#
# Indices 1 2 3 4 5 6 
#
# 1 0.005437 -0.002082 -0.000584 0.000000 -0.002364 0.000000
# 2 -0.002082 0.011972 -0.001463 0.000000 -0.000059 0.000000
# 3 -0.000584 -0.001463 0.008809 0.000000 -0.004767 0.000000
# 4 0.000000 0.000000 0.000000 1.072972 0.000000 -1.260565
# 5 -0.002364 -0.000059 -0.004767 0.000000 0.030669 0.000000
# 6 0.000000 0.000000 0.000000 -1.260565 0.000000 1.549227
#
#
# Mechanical properties :
#
#
# Convention : Reuss Voigt Hill
#
# Bulk Modulus (GPa) = 55.67770 69.83670 62.75720
# Shear Modulus (GPa) = 1.85644 37.54130 19.69887
#
# Velocity S-wave (km/s) = 0.88019 3.95813 2.86718
# Velocity P-wave (km/s) = 4.92630 7.07342 6.09515
#
# Compressibility (1/GPa) = 0.01796051
#
# Stress axis : x y z
#
# Youngs Moduli (GPa) = 183.91112 83.53100 113.51567
#
# Poissons Ratio (x) = 0.17391 0.06633
# Poissons Ratio (y) = 0.38290 0.16603
# Poissons Ratio (z) = 0.10746 0.12217
#
# Static dielectric constant tensor:
#      x y z
#    x 2.040120 0.000000 -0.120580 
#    y 0.000000 2.122350 0.000000 
#    z -0.120580 0.000000 1.993800 
# 
# From -- ./inp_files/66452.got.cif
#   From: 2010.05.17/outbox.cif.g08.bks.cpg/sg15_34_cif.got.tgz:66452.got - 2010.06.03 18:47:42.
