data_PCOD9307066
_publ_section_title
;
Structure prediction by ZEFSAII (Michael W. Deem and Ramdas Pophale) SiO2 
 PCOD9307066
Probable space group: C 2/C
;
_chemical_formula_sum "Si O2"
_cell_formula_units_Z 24
_cell_length_a 13.725426
_cell_length_b 6.611738
_cell_length_c 17.713671
_cell_angle_alpha 90.000000
_cell_angle_beta 30.124946
_cell_angle_gamma 90.000000
_cell_volume 806.782199
_symmetry_space_group_name_H-M "C 2/C"
_symmetry_group_IT_number 15
_symmetry_cell_setting 'monoclinic'
loop_
_space_group_symop_operation_xyz
x,y,z
-x,y,1/2-z
-x,-y,-z
x,-y,1/2+z
1/2+x,1/2+y,z
1/2-x,1/2+y,1/2-z
1/2-x,1/2-y,-z
1/2+x,1/2-y,1/2+z
loop_
_atom_site_type_symbol
_atom_site_label
_atom_site_fract_x
_atom_site_fract_y
_atom_site_fract_z
Si Si1 0.151134 0.652810 0.856884
Si Si2 0.306124 0.975480 0.336094
Si Si3 0.086472 0.939379 0.109867
O O1 0.161855 0.855426 0.898552
O O2 0.130258 0.645142 0.780448
O O3 0.381719 0.612162 0.709775
O O4 0.000000 0.500000 0.000000
O O5 0.500000 0.044827 0.250000
O O6 0.184102 0.896419 0.488581
O O7 0.000000 0.001191 0.250000
O O8 0.250000 0.750000 0.000000
#
# Coordination Sequence:
#
# PCOD9307066 Si02
#       3
#     8   8   8
#     4  12  25  42  76 114 151 202 261 315 393 466
#     4  12  25  49  77 112 154 204 257 322 388 467
#     4  12  21  42  76 106 144 203 256 310 380 458
#
# _framework density 29.747809
#
# number of rings (size 3 to 8) (size 9 to 14) (size 15 to 20)
#    0.000    0.000    6.667    5.000    0.000    0.000 
#    0.000    3.333    0.000   16.000    0.000    0.000 
#    0.000    0.000    0.000    0.000    0.000    0.000 
#
# Total GULP energy -66904.865331 kJ/mol
# GULP energy per Si atom -5575.405444 kJ/mol
# Density = 2.968010 g / cm^3
# Si number density = 29.747809 Si / 1000 Ang^3
#
#
#
# Elastic Constant Matrix: (Units=GPa)
#
#
# Indices 1 2 3 4 5 6 
#
# 1 258.4740 81.9044 129.4289 -0.0002 40.3716 0.0000
# 2 81.9044 115.9953 91.4544 -0.0006 1.9502 0.0005
# 3 129.4289 91.4544 365.9291 -0.0015 40.9240 0.0005
# 4 -0.0002 -0.0006 -0.0015 73.5164 0.0005 -10.8149
# 5 40.3716 1.9502 40.9240 0.0005 88.4184 -0.0001
# 6 0.0000 0.0005 0.0005 -10.8149 -0.0001 47.9038
#
#
#
# Elastic Compliance Matrix: (Units=1/GPa)
#
#
# Indices 1 2 3 4 5 6 
#
# 1 0.005705 -0.003220 -0.000980 0.000000 -0.002080 0.000000
# 2 -0.003220 0.012650 -0.002273 0.000000 0.002244 0.000000
# 3 -0.000980 -0.002273 0.003788 0.000000 -0.001256 0.000000
# 4 0.000000 0.000000 0.000000 0.014070 0.000000 0.003176
# 5 -0.002080 0.002244 -0.001256 0.000000 0.012791 0.000000
# 6 0.000000 0.000000 0.000000 0.003176 0.000000 0.021592
#
#
# Mechanical properties :
#
#
# Convention : Reuss Voigt Hill
#
# Bulk Modulus (GPa) = 108.75982 149.55265 129.15624
# Shear Modulus (GPa) = 57.73046 71.14176 64.43611
#
# Velocity S-wave (km/s) = 4.41007 4.89560 4.65916
# Velocity P-wave (km/s) = 7.91022 9.07406 8.51205
#
# Compressibility (1/GPa) = 0.00919457
#
# Stress axis : x y z
#
# Youngs Moduli (GPa) = 175.27875 79.05372 263.98470
#
# Poissons Ratio (x) = 0.25459 0.25881
# Poissons Ratio (y) = 0.56448 0.60011
# Poissons Ratio (z) = 0.17185 0.17971
#
# Static dielectric constant tensor:
#      x y z
#    x 2.389750 0.000000 0.082370 
#    y 0.000000 2.953200 0.000000 
#    z 0.082370 0.000000 2.298460 
# 
# From -- ./inp_files/202430.got.cif
#   From: 2010.05.17/outbox.cif.g08.bks.cpg/sg15_102_cif.got.tgz:202430.got - 2010.06.03 18:47:42.
