data_PCOD9307834
_publ_section_title
;
Structure prediction by ZEFSAII (Michael W. Deem and Ramdas Pophale) SiO2 
 PCOD9307834
Probable space group: C 2/C
;
_chemical_formula_sum "Si O2"
_cell_formula_units_Z 28
_cell_length_a 9.739234
_cell_length_b 16.282217
_cell_length_c 8.024077
_cell_angle_alpha 90.000000
_cell_angle_beta 116.007592
_cell_angle_gamma 90.000000
_cell_volume 1143.577341
_symmetry_space_group_name_H-M "C 2/C"
_symmetry_group_IT_number 15
_symmetry_cell_setting 'monoclinic'
loop_
_space_group_symop_operation_xyz
x,y,z
-x,y,1/2-z
-x,-y,-z
x,-y,1/2+z
1/2+x,1/2+y,z
1/2-x,1/2+y,1/2-z
1/2-x,1/2-y,-z
1/2+x,1/2-y,1/2+z
loop_
_atom_site_type_symbol
_atom_site_label
_atom_site_fract_x
_atom_site_fract_y
_atom_site_fract_z
Si Si1 0.000000 0.856116 0.250000
Si Si2 0.117051 0.574850 0.042666
Si Si3 0.672445 0.527483 0.049036
Si Si4 0.425546 0.254935 0.542290
O O1 0.962699 0.804281 0.395000
O O2 0.143523 0.913435 0.375675
O O3 0.231307 0.575874 0.261532
O O4 0.227444 0.550446 0.949458
O O5 0.031368 0.660041 0.969694
O O6 0.000000 0.500000 0.000000
O O7 0.500000 0.500000 0.000000
O O8 0.500000 0.289722 0.750000
O O9 0.250000 0.250000 0.500000
#
# Coordination Sequence:
#
# PCOD9307834 Si02
#       4
#     4   8   8   8
#     4  12  28  48  84 112 154 208 260 314 394 464
#     4  12  27  46  76 112 150 193 257 328 380 449
#     4  12  24  49  78 108 149 203 264 311 379 476
#     4  12  29  51  75 112 160 201 257 322 390 463
#
# _framework density 24.484572
#
# number of rings (size 3 to 8) (size 9 to 14) (size 15 to 20)
#    0.000    0.000    2.857    6.000    8.000    2.286 
#    0.000    0.000    0.000    0.000    0.000    0.000 
#    0.000    0.000    0.000    0.000    0.000    0.000 
#
# Total GULP energy -78469.108851 kJ/mol
# GULP energy per Si atom -5604.936347 kJ/mol
# Density = 2.442884 g / cm^3
# Si number density = 24.484572 Si / 1000 Ang^3
#
#
#
# Elastic Constant Matrix: (Units=GPa)
#
#
# Indices 1 2 3 4 5 6 
#
# 1 104.5955 15.9249 30.0065 0.0000 -1.9379 0.0000
# 2 15.9249 114.4343 17.0865 0.0000 -21.0702 0.0000
# 3 30.0065 17.0865 185.4183 0.0000 -16.8076 0.0000
# 4 0.0000 0.0000 0.0000 43.5681 0.0000 -9.5930
# 5 -1.9379 -21.0702 -16.8076 0.0000 40.7726 0.0000
# 6 0.0000 0.0000 0.0000 -9.5930 0.0000 42.5006
#
#
#
# Elastic Compliance Matrix: (Units=1/GPa)
#
#
# Indices 1 2 3 4 5 6 
#
# 1 0.010210 -0.001341 -0.001608 0.000000 -0.000870 0.000000
# 2 -0.001341 0.009871 -0.000245 0.000000 0.004936 0.000000
# 3 -0.001608 -0.000245 0.005877 0.000000 0.002220 0.000000
# 4 0.000000 0.000000 0.000000 0.024153 0.000000 0.005452
# 5 -0.000870 0.004936 0.002220 0.000000 0.027951 0.000000
# 6 0.000000 0.000000 0.000000 0.005452 0.000000 0.024760
#
#
# Mechanical properties :
#
#
# Convention : Reuss Voigt Hill
#
# Bulk Modulus (GPa) = 51.09812 58.94264 55.02038
# Shear Modulus (GPa) = 43.20328 48.13030 45.66679
#
# Velocity S-wave (km/s) = 4.20516 4.43848 4.32339
# Velocity P-wave (km/s) = 6.67028 7.09876 6.88786
#
# Compressibility (1/GPa) = 0.01957019
#
# Stress axis : x y z
#
# Youngs Moduli (GPa) = 97.94434 101.30970 170.15008
#
# Poissons Ratio (x) = 0.13586 0.27353
# Poissons Ratio (y) = 0.13135 0.04171
# Poissons Ratio (z) = 0.15746 0.02483
#
# Static dielectric constant tensor:
#      x y z
#    x 1.914340 0.000000 -0.031220 
#    y 0.000000 2.092990 0.000000 
#    z -0.031220 0.000000 2.008920 
# 
# From -- ./inp_files/27764.got.cif
#   From: 2010.05.17/outbox.cif.g08.bks.cpg/sg15_14_cif.got.tgz:27764.got - 2010.06.03 18:47:42.
