data_PCOD9307980
_publ_section_title
;
Structure prediction by ZEFSAII (Michael W. Deem and Ramdas Pophale) SiO2 
 PCOD9307980
Probable space group: C 2/C
;
_chemical_formula_sum "Si O2"
_cell_formula_units_Z 36
_cell_length_a 14.615021
_cell_length_b 7.803842
_cell_length_c 13.508944
_cell_angle_alpha 90.000000
_cell_angle_beta 60.031178
_cell_angle_gamma 90.000000
_cell_volume 1334.738849
_symmetry_space_group_name_H-M "C 2/C"
_symmetry_group_IT_number 15
_symmetry_cell_setting 'monoclinic'
loop_
_space_group_symop_operation_xyz
x,y,z
-x,y,1/2-z
-x,-y,-z
x,-y,1/2+z
1/2+x,1/2+y,z
1/2-x,1/2+y,1/2-z
1/2-x,1/2-y,-z
1/2+x,1/2-y,1/2+z
loop_
_atom_site_type_symbol
_atom_site_label
_atom_site_fract_x
_atom_site_fract_y
_atom_site_fract_z
Si Si1 0.000000 0.701094 0.250000
Si Si2 0.111447 0.062153 0.990606
Si Si3 0.317422 0.577321 0.841334
Si Si4 0.475755 0.925474 0.405532
Si Si5 0.701218 0.797676 0.240191
O O1 0.063596 0.584078 0.138270
O O2 0.153384 0.948637 0.059937
O O3 0.089297 0.252199 0.048214
O O4 0.208543 0.094039 0.863673
O O5 0.000000 0.000000 0.000000
O O6 0.418525 0.674323 0.740858
O O7 0.298567 0.389357 0.807097
O O8 0.223885 0.690859 0.845999
O O9 0.585292 0.874165 0.293959
O O10 0.500000 0.000000 0.500000
#
# Coordination Sequence:
#
# PCOD9307980 Si02
#       5
#     4   8   8   8   8
#     4  12  26  46  74 108 148 204 252 312 382 452
#     4  12  27  50  80 115 154 202 256 319 390 463
#     4  12  25  47  75 109 154 201 257 316 384 458
#     4  12  26  47  74 110 154 198 253 312 381 462
#     4  12  26  47  76 112 152 201 255 317 387 460
#
# _framework density 26.97157
#
# number of rings (size 3 to 8) (size 9 to 14) (size 15 to 20)
#    0.000    0.000    0.000   11.333    0.000    1.778 
#    0.000   12.222    0.000    0.000    0.000    0.000 
#    0.000    0.000    0.000    0.000    0.000    0.000 
#
# Total GULP energy -100893.435492 kJ/mol
# GULP energy per Si atom -5605.190861 kJ/mol
# Density = 2.691018 g / cm^3
# Si number density = 26.971570 Si / 1000 Ang^3
#
#
#
# Elastic Constant Matrix: (Units=GPa)
#
#
# Indices 1 2 3 4 5 6 
#
# 1 127.9480 49.4995 38.5329 0.0000 20.0766 0.0000
# 2 49.4995 145.7239 52.0934 0.0000 20.4930 0.0000
# 3 38.5329 52.0934 145.2405 0.0000 1.1369 0.0000
# 4 0.0000 0.0000 0.0000 32.7612 0.0000 7.9284
# 5 20.0766 20.4930 1.1369 0.0000 62.2946 0.0000
# 6 0.0000 0.0000 0.0000 7.9284 0.0000 40.3296
#
#
#
# Elastic Compliance Matrix: (Units=1/GPa)
#
#
# Indices 1 2 3 4 5 6 
#
# 1 0.009585 -0.002330 -0.001690 0.000000 -0.002292 0.000000
# 2 -0.002330 0.008861 -0.002543 0.000000 -0.002118 0.000000
# 3 -0.001690 -0.002543 0.008236 0.000000 0.001231 0.000000
# 4 0.000000 0.000000 0.000000 0.032049 0.000000 -0.006300
# 5 -0.002292 -0.002118 0.001231 0.000000 0.017466 0.000000
# 6 0.000000 0.000000 0.000000 -0.006300 0.000000 0.026034
#
#
# Mechanical properties :
#
#
# Convention : Reuss Voigt Hill
#
# Bulk Modulus (GPa) = 73.76349 77.68490 75.72420
# Shear Modulus (GPa) = 41.71020 45.66285 43.68653
#
# Velocity S-wave (km/s) = 3.93676 4.11907 4.02895
# Velocity P-wave (km/s) = 6.93340 7.17547 7.05548
#
# Compressibility (1/GPa) = 0.01355684
#
# Stress axis : x y z
#
# Youngs Moduli (GPa) = 104.32500 112.85838 121.41848
#
# Poissons Ratio (x) = 0.26292 0.20514
# Poissons Ratio (y) = 0.24304 0.30882
# Poissons Ratio (z) = 0.17626 0.28704
#
# Static dielectric constant tensor:
#      x y z
#    x 2.211360 0.000000 0.059620 
#    y 0.000000 2.184160 0.000000 
#    z 0.059620 0.000000 2.124310 
# 
# From -- ./inp_files/213182.got.cif
#   From: 2010.05.17/outbox.cif.g08.bks.cpg/sg15_107_cif.got.tgz:213182.got - 2010.06.03 18:47:42.
