data_PCOD9307595
_publ_section_title
;
Structure prediction by ZEFSAII (Michael W. Deem and Ramdas Pophale) SiO2 
 PCOD9307595
Probable space group: C 2/C
;
_chemical_formula_sum "Si O2"
_cell_formula_units_Z 24
_cell_length_a 24.725212
_cell_length_b 4.755733
_cell_length_c 8.396312
_cell_angle_alpha 90.000000
_cell_angle_beta 97.390385
_cell_angle_gamma 90.000000
_cell_volume 979.091319
_symmetry_space_group_name_H-M "C 2/C"
_symmetry_group_IT_number 15
_symmetry_cell_setting 'monoclinic'
loop_
_space_group_symop_operation_xyz
x,y,z
-x,y,1/2-z
-x,-y,-z
x,-y,1/2+z
1/2+x,1/2+y,z
1/2-x,1/2+y,1/2-z
1/2-x,1/2-y,-z
1/2+x,1/2-y,1/2+z
loop_
_atom_site_type_symbol
_atom_site_label
_atom_site_fract_x
_atom_site_fract_y
_atom_site_fract_z
Si Si1 0.103995 0.905258 0.334937
Si Si2 0.437977 0.905419 0.994680
Si Si3 0.270673 0.590310 0.664006
O O1 0.098054 0.675773 0.473562
O O2 0.166483 0.989227 0.334108
O O3 0.069085 0.175937 0.368682
O O4 0.081901 0.749176 0.171209
O O5 0.500000 0.000000 0.000000
O O6 0.235977 0.317336 0.696590
O O7 0.250000 0.750000 0.500000
#
# Coordination Sequence:
#
# PCOD9307595 Si02
#       3
#     8   8   8
#     4  12  25  46  69 101 138 178 226 281 335 402
#     4  12  26  45  69  98 135 182 227 278 336 397
#     4  12  24  43  70 103 137 178 223 277 340 405
#
# _framework density 24.512526999999999
#
# number of rings (size 3 to 8) (size 9 to 14) (size 15 to 20)
#    0.000    0.000    0.000   11.000    0.000    2.667 
#    0.000    0.000    0.000    0.000    0.000    0.000 
#    0.000    0.000    0.000    0.000    0.000    0.000 
#
# Total GULP energy -67429.238971 kJ/mol
# GULP energy per Si atom -5619.103248 kJ/mol
# Density = 2.445674 g / cm^3
# Si number density = 24.512527 Si / 1000 Ang^3
#
#
#
# Elastic Constant Matrix: (Units=GPa)
#
#
# Indices 1 2 3 4 5 6 
#
# 1 139.5558 11.5608 31.3430 0.0000 -23.1664 0.0000
# 2 11.5608 111.8913 3.5510 0.0000 -32.1277 0.0000
# 3 31.3430 3.5510 76.7834 0.0000 -7.2390 0.0000
# 4 0.0000 0.0000 0.0000 51.9059 0.0000 -7.5506
# 5 -23.1664 -32.1277 -7.2390 0.0000 40.4818 0.0000
# 6 0.0000 0.0000 0.0000 -7.5506 0.0000 35.0012
#
#
#
# Elastic Compliance Matrix: (Units=1/GPa)
#
#
# Indices 1 2 3 4 5 6 
#
# 1 0.008615 0.000602 -0.003087 0.000000 0.004856 0.000000
# 2 0.000602 0.011626 0.000121 0.000000 0.009593 0.000000
# 3 -0.003087 0.000121 0.014363 0.000000 0.000898 0.000000
# 4 0.000000 0.000000 0.000000 0.019890 0.000000 0.004291
# 5 0.004856 0.009593 0.000898 0.000000 0.035255 0.000000
# 6 0.000000 0.000000 0.000000 0.004291 0.000000 0.029496
#
#
# Mechanical properties :
#
#
# Convention : Reuss Voigt Hill
#
# Bulk Modulus (GPa) = 33.47153 46.79335 40.13244
# Shear Modulus (GPa) = 37.33289 44.26282 40.79785
#
# Velocity S-wave (km/s) = 3.90681 4.25399 4.08409
# Velocity P-wave (km/s) = 5.83399 6.57720 6.21671
#
# Compressibility (1/GPa) = 0.02987614
#
# Stress axis : x y z
#
# Youngs Moduli (GPa) = 116.07570 86.01734 69.62474
#
# Poissons Ratio (x) = -0.05180 0.21491
# Poissons Ratio (y) = -0.06990 -0.00842
# Poissons Ratio (z) = 0.35829 -0.01040
#
# Static dielectric constant tensor:
#      x y z
#    x 1.836110 0.000000 -0.031500 
#    y 0.000000 1.913880 0.000000 
#    z -0.031500 0.000000 2.008380 
# 
# From -- ./inp_files/53055.got.cif
#   From: 2010.05.17/outbox.cif.g08.bks.cpg/sg15_27_cif.got.tgz:53055.got - 2010.06.03 18:47:42.
