data_PCOD9307263
_publ_section_title
;
Structure prediction by ZEFSAII (Michael W. Deem and Ramdas Pophale) SiO2 
 PCOD9307263
Probable space group: C 2/C
;
_chemical_formula_sum "Si O2"
_cell_formula_units_Z 48
_cell_length_a 9.912522
_cell_length_b 23.431622
_cell_length_c 17.559766
_cell_angle_alpha 90.000000
_cell_angle_beta 147.021487
_cell_angle_gamma 90.000000
_cell_volume 2220.051796
_symmetry_space_group_name_H-M "C 2/C"
_symmetry_group_IT_number 15
_symmetry_cell_setting 'monoclinic'
loop_
_space_group_symop_operation_xyz
x,y,z
-x,y,1/2-z
-x,-y,-z
x,-y,1/2+z
1/2+x,1/2+y,z
1/2-x,1/2+y,1/2-z
1/2-x,1/2-y,-z
1/2+x,1/2-y,1/2+z
loop_
_atom_site_type_symbol
_atom_site_label
_atom_site_fract_x
_atom_site_fract_y
_atom_site_fract_z
Si Si1 0.000000 0.526504 0.750000
Si Si2 0.255870 0.254218 0.411874
Si Si3 0.381506 0.614389 0.962218
Si Si4 0.776878 0.218429 0.593069
Si Si5 0.000000 0.998944 0.750000
Si Si6 0.719337 0.066150 0.244572
Si Si7 0.674981 0.404707 0.447327
O O1 0.166448 0.569001 0.878978
O O2 0.171587 0.485958 0.780502
O O3 0.250000 0.250000 0.500000
O O4 0.289504 0.321398 0.409620
O O5 0.506413 0.222715 0.503308
O O6 0.000000 0.234562 0.250000
O O7 0.497855 0.595650 0.936658
O O8 0.585748 0.608387 0.124378
O O9 0.750000 0.250000 0.500000
O O10 0.854667 0.153884 0.611768
O O11 0.000000 0.243967 0.750000
O O12 0.129728 0.040784 0.872505
O O13 0.183653 0.959468 0.788486
O O14 0.454944 0.094680 0.109306
#
# Coordination Sequence:
#
# PCOD9307263 Si02
#       7
#     4   8   8   8   4   8   8
#     4  12  22  44  72 100 144 186 246 282 356 430
#     4  12  29  49  75 110 150 190 245 313 376 436
#     4  12  25  46  76 102 143 195 240 288 369 442
#     4  12  27  47  80 107 144 192 250 308 366 441
#     4  12  26  46  68 110 152 182 242 300 364 412
#     4  12  26  43  73 109 141 191 239 299 348 442
#     4  12  25  46  74 106 141 190 244 294 363 434
#
# _framework density 21.621116000000001
#
# number of rings (size 3 to 8) (size 9 to 14) (size 15 to 20)
#    0.000    0.000    6.667    3.000    4.667    2.667 
#    0.000    0.000    0.000    0.000    0.000    0.000 
#    0.000    0.000    0.000    0.000    0.000    0.000 
#
# Total GULP energy -134343.840773 kJ/mol
# GULP energy per Si atom -5597.660032 kJ/mol
# Density = 2.157191 g / cm^3
# Si number density = 21.621116 Si / 1000 Ang^3
#
#
#
# Elastic Constant Matrix: (Units=GPa)
#
#
# Indices 1 2 3 4 5 6 
#
# 1 119.9600 7.4942 13.1695 0.0077 -9.0758 -0.0033
# 2 7.4942 35.7132 -4.0998 -0.0084 -6.0621 0.0034
# 3 13.1695 -4.0998 143.7857 0.0071 4.2371 -0.0075
# 4 0.0077 -0.0084 0.0071 55.7726 0.0089 -14.1478
# 5 -9.0758 -6.0621 4.2371 0.0089 30.9661 -0.0047
# 6 -0.0033 0.0034 -0.0075 -14.1478 -0.0047 43.5930
#
#
#
# Elastic Compliance Matrix: (Units=1/GPa)
#
#
# Indices 1 2 3 4 5 6 
#
# 1 0.008712 -0.001529 -0.000912 -0.000002 0.002379 0.000000
# 2 -0.001529 0.029294 0.000823 0.000004 0.005174 -0.000001
# 3 -0.000912 0.000823 0.007093 0.000000 -0.001077 0.000001
# 4 -0.000002 0.000004 0.000000 0.019538 -0.000004 0.006341
# 5 0.002379 0.005174 -0.001077 -0.000004 0.034151 0.000002
# 6 0.000000 -0.000001 0.000001 0.006341 0.000002 0.024997
#
#
# Mechanical properties :
#
#
# Convention : Reuss Voigt Hill
#
# Bulk Modulus (GPa) = 23.88680 36.95408 30.42044
# Shear Modulus (GPa) = 35.46693 44.92602 40.19648
#
# Velocity S-wave (km/s) = 4.05456 4.56332 4.31644
# Velocity P-wave (km/s) = 5.74379 6.70029 6.24040
#
# Compressibility (1/GPa) = 0.04186413
#
# Stress axis : x y z
#
# Youngs Moduli (GPa) = 114.78847 34.13619 140.97456
#
# Poissons Ratio (x) = 0.05219 0.12851
# Poissons Ratio (y) = 0.17551 -0.11600
# Poissons Ratio (z) = 0.10464 -0.02809
#
# Static dielectric constant tensor:
#      x y z
#    x 1.781360 -0.000010 -0.004840 
#    y -0.000010 1.805620 -0.000010 
#    z -0.004840 -0.000010 1.789640 
# 
# From -- ./inp_files/139077.got.cif
#   From: 2010.05.17/outbox.cif.g08.bks.cpg/sg15_70_cif.got.tgz:139077.got - 2010.06.03 18:47:42.
