data_PCOD9307290
_publ_section_title
;
Structure prediction by ZEFSAII (Michael W. Deem and Ramdas Pophale) SiO2 
 PCOD9307290
Probable space group: C 2/C
;
_chemical_formula_sum "Si O2"
_cell_formula_units_Z 36
_cell_length_a 7.501447
_cell_length_b 17.784286
_cell_length_c 16.649203
_cell_angle_alpha 90.000000
_cell_angle_beta 137.705500
_cell_angle_gamma 90.000000
_cell_volume 1494.693847
_symmetry_space_group_name_H-M "C 2/C"
_symmetry_group_IT_number 15
_symmetry_cell_setting 'monoclinic'
loop_
_space_group_symop_operation_xyz
x,y,z
-x,y,1/2-z
-x,-y,-z
x,-y,1/2+z
1/2+x,1/2+y,z
1/2-x,1/2+y,1/2-z
1/2-x,1/2-y,-z
1/2+x,1/2-y,1/2+z
loop_
_atom_site_type_symbol
_atom_site_label
_atom_site_fract_x
_atom_site_fract_y
_atom_site_fract_z
Si Si1 0.500000 0.504720 0.250000
Si Si2 0.278537 0.787077 0.244023
Si Si3 0.912883 0.873951 0.855284
Si Si4 0.038046 0.387861 0.058117
Si Si5 0.783945 0.838909 0.993070
O O1 0.593980 0.554399 0.205144
O O2 0.234075 0.456766 0.142337
O O3 0.500000 0.793154 0.250000
O O4 0.283550 0.697396 0.265197
O O5 0.332325 0.819264 0.349974
O O6 0.060477 0.843836 0.133442
O O7 0.231390 0.875074 0.977343
O O8 0.795941 0.867864 0.906507
O O9 0.063082 0.379214 0.971457
O O10 0.750000 0.750000 0.000000
#
# Coordination Sequence:
#
# PCOD9307290 Si02
#       5
#     4   8   8   8   8
#     4  12  28  50  76 108 160 202 240 312 386 446
#     4  12  22  45  78 106 143 194 250 310 366 431
#     4  12  27  47  75 110 149 198 251 304 375 451
#     4  12  25  50  72 106 153 196 247 311 373 440
#     4  12  25  43  78 112 143 191 256 311 365 438
#
# _framework density 24.085198999999999
#
# number of rings (size 3 to 8) (size 9 to 14) (size 15 to 20)
#    0.000    0.000    7.778    2.667    0.000    0.889 
#    0.000    2.222    0.000    0.000    0.000    0.000 
#    0.000    0.000    0.000    0.000    0.000    0.000 
#
# Total GULP energy -100311.373723 kJ/mol
# GULP energy per Si atom -5572.854096 kJ/mol
# Density = 2.403038 g / cm^3
# Si number density = 24.085199 Si / 1000 Ang^3
#
#
#
# Elastic Constant Matrix: (Units=GPa)
#
#
# Indices 1 2 3 4 5 6 
#
# 1 172.3256 26.5975 22.1835 -0.0001 -45.8387 0.0000
# 2 26.5975 114.2963 29.8291 0.0000 -14.6295 0.0000
# 3 22.1835 29.8291 91.2966 -0.0001 -23.3246 0.0000
# 4 -0.0001 0.0000 -0.0001 31.8525 -0.0001 -0.7891
# 5 -45.8387 -14.6295 -23.3246 -0.0001 37.1363 0.0000
# 6 0.0000 0.0000 0.0000 -0.7891 0.0000 8.7377
#
#
#
# Elastic Compliance Matrix: (Units=1/GPa)
#
#
# Indices 1 2 3 4 5 6 
#
# 1 0.008761 -0.000878 0.000992 0.000000 0.011091 0.000000
# 2 -0.000878 0.009799 -0.002715 0.000000 0.001072 0.000000
# 3 0.000992 -0.002715 0.013863 0.000000 0.008862 0.000000
# 4 0.000000 0.000000 0.000000 0.031465 0.000000 0.002842
# 5 0.011091 0.001072 0.008862 0.000000 0.046606 0.000000
# 6 0.000000 0.000000 0.000000 0.002842 0.000000 0.114703
#
#
# Mechanical properties :
#
#
# Convention : Reuss Voigt Hill
#
# Bulk Modulus (GPa) = 36.73528 59.45985 48.09756
# Shear Modulus (GPa) = 20.87914 35.49920 28.18917
#
# Velocity S-wave (km/s) = 2.94749 3.84331 3.42481
# Velocity P-wave (km/s) = 5.18352 6.66600 5.97095
#
# Compressibility (1/GPa) = 0.02722179
#
# Stress axis : x y z
#
# Youngs Moduli (GPa) = 114.14176 102.05028 72.13272
#
# Poissons Ratio (x) = 0.08959 -0.07153
# Poissons Ratio (y) = 0.10021 0.19581
# Poissons Ratio (z) = -0.11319 0.27702
#
# Static dielectric constant tensor:
#      x y z
#    x 1.896160 0.000000 0.062390 
#    y 0.000000 1.996930 0.000000 
#    z 0.062390 0.000000 1.775590 
# 
# From -- ./inp_files/76303.got.cif
#   From: 2010.05.17/outbox.cif.g08.bks.cpg/sg15_39_cif.got.tgz:76303.got - 2010.06.03 18:47:42.
