data_PCOD9307830
_publ_section_title
;
Structure prediction by ZEFSAII (Michael W. Deem and Ramdas Pophale) SiO2 
 PCOD9307830
Probable space group: C 2/C
;
_chemical_formula_sum "Si O2"
_cell_formula_units_Z 36
_cell_length_a 10.860790
_cell_length_b 16.409512
_cell_length_c 9.492635
_cell_angle_alpha 90.000000
_cell_angle_beta 102.533757
_cell_angle_gamma 90.000000
_cell_volume 1651.461953
_symmetry_space_group_name_H-M "C 2/C"
_symmetry_group_IT_number 15
_symmetry_cell_setting 'monoclinic'
loop_
_space_group_symop_operation_xyz
x,y,z
-x,y,1/2-z
-x,-y,-z
x,-y,1/2+z
1/2+x,1/2+y,z
1/2-x,1/2+y,1/2-z
1/2-x,1/2-y,-z
1/2+x,1/2-y,1/2+z
loop_
_atom_site_type_symbol
_atom_site_label
_atom_site_fract_x
_atom_site_fract_y
_atom_site_fract_z
Si Si1 0.857164 0.097936 0.232225
Si Si2 0.468459 0.917382 0.574446
Si Si3 0.662767 0.778116 0.608342
Si Si4 0.814935 0.955485 0.018935
Si Si5 0.000000 0.847345 0.250000
O O1 0.761107 0.171542 0.228605
O O2 0.852496 0.039350 0.365610
O O3 0.000000 0.126642 0.250000
O O4 0.811913 0.044236 0.088922
O O5 0.500000 0.924999 0.750000
O O6 0.552474 0.842320 0.540587
O O7 0.319602 0.910551 0.511700
O O8 0.500000 0.000000 0.500000
O O9 0.750000 0.750000 0.500000
O O10 0.592797 0.707969 0.677911
O O11 0.916599 0.902705 0.127113
#
# Coordination Sequence:
#
# PCOD9307830 Si02
#       5
#     8   8   8   8   4
#     4  12  25  45  74 107 143 190 250 295 361 443
#     4  12  24  49  76 106 143 193 250 301 363 440
#     4  12  27  46  73 110 150 187 245 306 371 432
#     4  12  25  45  78 102 145 193 240 305 360 438
#     4  12  28  48  70 110 152 188 240 306 378 426
#
# _framework density 21.798869
#
# number of rings (size 3 to 8) (size 9 to 14) (size 15 to 20)
#    0.000    0.000    6.667    2.000    3.111    7.111 
#    0.000    0.000    0.000    0.000    0.000    0.000 
#    0.000    0.000    0.000    0.000    0.000    0.000 
#
# Total GULP energy -100744.172386 kJ/mol
# GULP energy per Si atom -5596.898466 kJ/mol
# Density = 2.174925 g / cm^3
# Si number density = 21.798869 Si / 1000 Ang^3
#
#
#
# Elastic Constant Matrix: (Units=GPa)
#
#
# Indices 1 2 3 4 5 6 
#
# 1 158.4821 26.5551 29.2849 0.0000 19.2379 0.0000
# 2 26.5551 57.6387 9.4941 0.0000 -0.8935 0.0000
# 3 29.2849 9.4941 85.3508 0.0000 0.6663 0.0000
# 4 0.0000 0.0000 0.0000 26.6063 0.0000 -8.8106
# 5 19.2379 -0.8935 0.6663 0.0000 51.1435 0.0000
# 6 0.0000 0.0000 0.0000 -8.8106 0.0000 49.9698
#
#
#
# Elastic Compliance Matrix: (Units=1/GPa)
#
#
# Indices 1 2 3 4 5 6 
#
# 1 0.007606 -0.003181 -0.002233 0.000000 -0.002888 0.000000
# 2 -0.003181 0.019009 -0.001035 0.000000 0.001542 0.000000
# 3 -0.002233 -0.001035 0.012593 0.000000 0.000658 0.000000
# 4 0.000000 0.000000 0.000000 0.039916 0.000000 0.007038
# 5 -0.002888 0.001542 0.000658 0.000000 0.020657 0.000000
# 6 0.000000 0.000000 0.000000 0.007038 0.000000 0.021253
#
#
# Mechanical properties :
#
#
# Convention : Reuss Voigt Hill
#
# Bulk Modulus (GPa) = 38.00975 48.01553 43.01264
# Shear Modulus (GPa) = 35.03780 41.28642 38.16211
#
# Velocity S-wave (km/s) = 4.01349 4.35670 4.18861
# Velocity P-wave (km/s) = 6.24115 6.88347 6.57016
#
# Compressibility (1/GPa) = 0.02630904
#
# Stress axis : x y z
#
# Youngs Moduli (GPa) = 131.47359 52.60539 79.41148
#
# Poissons Ratio (x) = 0.16735 0.17735
# Poissons Ratio (y) = 0.41824 0.08220
# Poissons Ratio (z) = 0.29362 0.05445
#
# Static dielectric constant tensor:
#      x y z
#    x 1.832510 0.000000 -0.025390 
#    y 0.000000 1.781880 0.000000 
#    z -0.025390 0.000000 1.785490 
# 
# From -- ./inp_files/29413.got.cif
#   From: 2010.05.17/outbox.cif.g08.bks.cpg/sg15_15_cif.got.tgz:29413.got - 2010.06.03 18:47:42.
