data_PCOD9307867
_publ_section_title
;
Structure prediction by ZEFSAII (Michael W. Deem and Ramdas Pophale) SiO2 
 PCOD9307867
Probable space group: C 2/C
;
_chemical_formula_sum "Si O2"
_cell_formula_units_Z 32
_cell_length_a 11.841914
_cell_length_b 10.380155
_cell_length_c 9.690754
_cell_angle_alpha 90.000000
_cell_angle_beta 93.844301
_cell_angle_gamma 90.000000
_cell_volume 1188.515952
_symmetry_space_group_name_H-M "C 2/C"
_symmetry_group_IT_number 15
_symmetry_cell_setting 'monoclinic'
loop_
_space_group_symop_operation_xyz
x,y,z
-x,y,1/2-z
-x,-y,-z
x,-y,1/2+z
1/2+x,1/2+y,z
1/2-x,1/2+y,1/2-z
1/2-x,1/2-y,-z
1/2+x,1/2-y,1/2+z
loop_
_atom_site_type_symbol
_atom_site_label
_atom_site_fract_x
_atom_site_fract_y
_atom_site_fract_z
Si Si1 0.893340 0.260526 0.161157
Si Si2 0.191985 0.849085 0.327905
Si Si3 0.500000 0.844269 0.750000
Si Si4 0.000000 0.500000 0.000000
Si Si5 0.630560 0.531669 0.541352
O O1 0.801984 0.286287 0.272202
O O2 0.850418 0.164936 0.038811
O O3 0.000000 0.200726 0.250000
O O4 0.936237 0.392859 0.096292
O O5 0.092139 0.744680 0.333014
O O6 0.205757 0.923124 0.472573
O O7 0.152969 0.947396 0.203844
O O8 0.443786 0.929925 0.861351
O O9 0.500000 0.500000 0.500000
#
# Coordination Sequence:
#
# PCOD9307867 Si02
#       5
#     8   8   4   4   8
#     4  12  28  45  74 112 151 200 254 307 379 449
#     4  12  27  47  80 107 155 196 255 312 376 446
#     4  12  26  52  72 112 144 202 242 318 368 454
#     4  12  26  46  74 104 152 188 246 306 380 432
#     4  12  24  51  75 111 146 201 253 313 377 452
#
# _framework density 26.924333000000001
#
# number of rings (size 3 to 8) (size 9 to 14) (size 15 to 20)
#    0.000    0.000    6.250    2.250    7.000    0.000 
#    0.000    3.750    0.000    0.000    0.000    0.000 
#    0.000    0.000    0.000    0.000    0.000    0.000 
#
# Total GULP energy -89391.272976 kJ/mol
# GULP energy per Si atom -5586.954561 kJ/mol
# Density = 2.686305 g / cm^3
# Si number density = 26.924333 Si / 1000 Ang^3
#
#
#
# Elastic Constant Matrix: (Units=GPa)
#
#
# Indices 1 2 3 4 5 6 
#
# 1 84.4821 22.7047 -17.0932 0.0000 -13.7821 0.0000
# 2 22.7047 85.5581 6.1083 0.0000 -7.3182 0.0000
# 3 -17.0932 6.1083 122.7548 0.0000 4.5324 0.0000
# 4 0.0000 0.0000 0.0000 21.9696 0.0000 7.1316
# 5 -13.7821 -7.3182 4.5324 0.0000 37.3673 0.0000
# 6 0.0000 0.0000 0.0000 7.1316 0.0000 19.0008
#
#
#
# Elastic Compliance Matrix: (Units=1/GPa)
#
#
# Indices 1 2 3 4 5 6 
#
# 1 0.013842 -0.003454 0.001945 0.000000 0.004193 0.000000
# 2 -0.003454 0.012806 -0.001169 0.000000 0.001376 0.000000
# 3 0.001945 -0.001169 0.008495 0.000000 -0.000542 0.000000
# 4 0.000000 0.000000 0.000000 0.051833 0.000000 -0.019454
# 5 0.004193 0.001376 -0.000542 0.000000 0.028643 0.000000
# 6 0.000000 0.000000 0.000000 -0.019454 0.000000 0.059931
#
#
# Mechanical properties :
#
#
# Convention : Reuss Voigt Hill
#
# Bulk Modulus (GPa) = 33.57115 35.13719 34.35417
# Shear Modulus (GPa) = 26.20057 34.40587 30.30322
#
# Velocity S-wave (km/s) = 3.12287 3.57861 3.35848
# Velocity P-wave (km/s) = 5.04964 5.49126 5.27507
#
# Compressibility (1/GPa) = 0.02978748
#
# Stress axis : x y z
#
# Youngs Moduli (GPa) = 72.24135 78.09096 117.71254
#
# Poissons Ratio (x) = 0.26969 -0.22890
# Poissons Ratio (y) = 0.24949 0.13759
# Poissons Ratio (z) = -0.14048 0.09128
#
# Static dielectric constant tensor:
#      x y z
#    x 2.116420 0.000000 -0.015730 
#    y 0.000000 2.160900 0.000000 
#    z -0.015730 0.000000 2.009940 
# 
# From -- ./inp_files/36600.got.cif
#   From: 2010.05.17/outbox.cif.g08.bks.cpg/sg15_19_cif.got.tgz:36600.got - 2010.06.03 18:47:42.
