data_PCOD9307147
_publ_section_title
;
Structure prediction by ZEFSAII (Michael W. Deem and Ramdas Pophale) SiO2 
 PCOD9307147
Probable space group: C 2/C
;
_chemical_formula_sum "Si O2"
_cell_formula_units_Z 60
_cell_length_a 23.332786
_cell_length_b 14.174935
_cell_length_c 9.537552
_cell_angle_alpha 90.000000
_cell_angle_beta 111.499338
_cell_angle_gamma 90.000000
_cell_volume 2934.975440
_symmetry_space_group_name_H-M "C 2/C"
_symmetry_group_IT_number 15
_symmetry_cell_setting 'monoclinic'
loop_
_space_group_symop_operation_xyz
x,y,z
-x,y,1/2-z
-x,-y,-z
x,-y,1/2+z
1/2+x,1/2+y,z
1/2-x,1/2+y,1/2-z
1/2-x,1/2-y,-z
1/2+x,1/2-y,1/2+z
loop_
_atom_site_type_symbol
_atom_site_label
_atom_site_fract_x
_atom_site_fract_y
_atom_site_fract_z
Si Si1 0.260196 0.199196 0.861726
Si Si2 0.000000 0.784524 0.250000
Si Si3 0.935254 0.224058 0.193007
Si Si4 0.548653 0.584212 0.544057
Si Si5 0.194410 0.291101 0.544658
Si Si6 0.259014 0.476025 0.627571
Si Si7 0.893360 0.220027 0.469544
Si Si8 0.159934 0.975488 0.550325
O O1 0.210791 0.242262 0.708170
O O2 0.254584 0.086623 0.870916
O O3 0.330845 0.223129 0.887221
O O4 0.250000 0.250000 0.000000
O O5 0.969028 0.847403 0.344972
O O6 0.055603 0.733589 0.383175
O O7 0.950318 0.137161 0.103862
O O8 0.920666 0.199310 0.340500
O O9 0.000000 0.281428 0.250000
O O10 0.873335 0.267699 0.071766
O O11 0.500000 0.500000 0.500000
O O12 0.616297 0.538923 0.608120
O O13 0.250000 0.250000 0.500000
O O14 0.204201 0.403894 0.549242
O O15 0.285733 0.442056 0.799677
O O16 0.310504 0.468524 0.551772
O O17 0.876287 0.118865 0.523275
#
# Coordination Sequence:
#
# PCOD9307147 Si02
#       8
#     8   4   8   8   8   8   8   8
#     4  12  25  43  67 103 138 176 229 299 349 401
#     4  12  26  40  60  94 136 186 218 276 346 412
#     4  12  25  44  65  96 138 184 230 283 340 419
#     4  12  25  37  63  95 139 183 224 267 341 431
#     4  12  24  45  72 100 134 184 233 284 344 417
#     4  12  24  42  68  98 131 178 224 290 347 400
#     4  12  24  43  64  94 138 179 225 281 346 410
#     4  12  22  39  62  95 134 173 225 274 342 411
#
# _framework density 20.443100999999999
#
# number of rings (size 3 to 8) (size 9 to 14) (size 15 to 20)
#    0.000    0.000    6.667    4.000    4.667    0.000 
#    0.000    0.000    1.467    0.800    0.000    0.000 
#    0.000    0.000    0.000    0.000    0.000    0.000 
#
# Total GULP energy -167669.829796 kJ/mol
# GULP energy per Si atom -5588.994327 kJ/mol
# Density = 2.039657 g / cm^3
# Si number density = 20.443101 Si / 1000 Ang^3
#
#
#
# Elastic Constant Matrix: (Units=GPa)
#
#
# Indices 1 2 3 4 5 6 
#
# 1 116.4964 41.9782 46.7939 0.0000 15.4499 0.0000
# 2 41.9782 84.3060 19.6227 0.0000 5.7607 0.0000
# 3 46.7939 19.6227 132.9754 0.0000 13.8016 0.0000
# 4 0.0000 0.0000 0.0000 21.6075 0.0000 2.7620
# 5 15.4499 5.7607 13.8016 0.0000 47.6537 0.0000
# 6 0.0000 0.0000 0.0000 2.7620 0.0000 24.0597
#
#
#
# Elastic Compliance Matrix: (Units=1/GPa)
#
#
# Indices 1 2 3 4 5 6 
#
# 1 0.012024 -0.005073 -0.003239 0.000000 -0.002347 0.000000
# 2 -0.005073 0.014469 -0.000350 0.000000 -0.000003 0.000000
# 3 -0.003239 -0.000350 0.008865 0.000000 -0.001475 0.000000
# 4 0.000000 0.000000 0.000000 0.046969 0.000000 -0.005392
# 5 -0.002347 -0.000003 -0.001475 0.000000 0.022173 0.000000
# 6 0.000000 0.000000 0.000000 -0.005392 0.000000 0.042182
#
#
# Mechanical properties :
#
#
# Convention : Reuss Voigt Hill
#
# Bulk Modulus (GPa) = 55.44878 61.17415 58.31146
# Shear Modulus (GPa) = 29.40864 33.68971 31.54918
#
# Velocity S-wave (km/s) = 3.79695 4.06393 3.93271
# Velocity P-wave (km/s) = 6.81211 7.21178 7.01479
#
# Compressibility (1/GPa) = 0.01803466
#
# Stress axis : x y z
#
# Youngs Moduli (GPa) = 83.16508 69.11282 112.80664
#
# Poissons Ratio (x) = 0.35060 0.36540
# Poissons Ratio (y) = 0.42189 0.03944
# Poissons Ratio (z) = 0.26938 0.02417
#
# Static dielectric constant tensor:
#      x y z
#    x 1.791340 0.000000 0.027000 
#    y 0.000000 1.736470 0.000000 
#    z 0.027000 0.000000 1.778180 
# 
# From -- ./inp_files/61957.got.cif
#   From: 2010.05.17/outbox.cif.g08.bks.cpg/sg15_31_cif.got.tgz:61957.got - 2010.06.03 18:47:42.
