data_PCOD9307307
_publ_section_title
;
Structure prediction by ZEFSAII (Michael W. Deem and Ramdas Pophale) SiO2 
 PCOD9307307
Probable space group: C 2/C
;
_chemical_formula_sum "Si O2"
_cell_formula_units_Z 40
_cell_length_a 9.592196
_cell_length_b 22.766241
_cell_length_c 7.631321
_cell_angle_alpha 90.000000
_cell_angle_beta 81.541290
_cell_angle_gamma 90.000000
_cell_volume 1648.386357
_symmetry_space_group_name_H-M "C 2/C"
_symmetry_group_IT_number 15
_symmetry_cell_setting 'monoclinic'
loop_
_space_group_symop_operation_xyz
x,y,z
-x,y,1/2-z
-x,-y,-z
x,-y,1/2+z
1/2+x,1/2+y,z
1/2-x,1/2+y,1/2-z
1/2-x,1/2-y,-z
1/2+x,1/2-y,1/2+z
loop_
_atom_site_type_symbol
_atom_site_label
_atom_site_fract_x
_atom_site_fract_y
_atom_site_fract_z
Si Si1 0.500000 0.276135 0.750000
Si Si2 0.500000 0.653583 0.750000
Si Si3 0.162967 0.964908 0.663092
Si Si4 0.983176 0.317699 0.963311
Si Si5 0.739662 0.412400 0.008376
Si Si6 0.704229 0.651359 0.993358
O O1 0.449358 0.237979 0.592686
O O2 0.372634 0.317519 0.831138
O O3 0.406561 0.617973 0.907970
O O4 0.373622 0.680796 0.658619
O O5 0.173439 0.918384 0.502363
O O6 0.000000 0.974988 0.750000
O O7 0.239195 0.025552 0.608493
O O8 0.236392 0.930925 0.807413
O O9 0.000000 0.307186 0.750000
O O10 0.132017 0.337937 0.017375
O O11 0.867302 0.368131 0.014214
#
# Coordination Sequence:
#
# PCOD9307307 Si02
#       6
#     4   4   8   8   8   8
#     4  12  28  53  84 112 158 223 278 328 390 492
#     4  12  24  45  80 110 158 211 264 330 388 484
#     4  12  22  46  78 115 159 205 273 326 393 484
#     4  12  29  53  77 119 167 208 264 340 413 474
#     4  12  25  45  78 115 159 211 263 333 399 481
#     4  12  26  50  78 117 156 208 273 331 399 478
#
# _framework density 24.266155999999999
#
# number of rings (size 3 to 8) (size 9 to 14) (size 15 to 20)
#    0.000    0.000    6.000    3.600    1.400    1.600 
#    0.000    0.000    0.000    0.000    0.000    0.000 
#    0.000    0.000    0.000    0.000    0.000    0.000 
#
# Total GULP energy -112000.462497 kJ/mol
# GULP energy per Si atom -5600.023125 kJ/mol
# Density = 2.421093 g / cm^3
# Si number density = 24.266156 Si / 1000 Ang^3
#
#
#
# Elastic Constant Matrix: (Units=GPa)
#
#
# Indices 1 2 3 4 5 6 
#
# 1 156.5842 41.1104 36.8548 0.0000 9.7207 0.0000
# 2 41.1104 120.6467 38.0920 0.0000 -3.0568 0.0000
# 3 36.8548 38.0920 85.5416 0.0000 20.2779 0.0000
# 4 0.0000 0.0000 0.0000 34.2597 0.0000 12.3413
# 5 9.7207 -3.0568 20.2779 0.0000 36.4947 0.0000
# 6 0.0000 0.0000 0.0000 12.3413 0.0000 16.7183
#
#
#
# Elastic Compliance Matrix: (Units=1/GPa)
#
#
# Indices 1 2 3 4 5 6 
#
# 1 0.007444 -0.001884 -0.002143 0.000000 -0.000950 0.000000
# 2 -0.001884 0.010570 -0.004865 0.000000 0.004090 0.000000
# 3 -0.002143 -0.004865 0.016977 0.000000 -0.009270 0.000000
# 4 0.000000 0.000000 0.000000 0.039762 0.000000 -0.029352
# 5 -0.000950 0.004090 -0.009270 0.000000 0.033148 0.000000
# 6 0.000000 0.000000 0.000000 -0.029352 0.000000 0.081482
#
#
# Mechanical properties :
#
#
# Convention : Reuss Voigt Hill
#
# Bulk Modulus (GPa) = 58.11318 66.09854 62.10586
# Shear Modulus (GPa) = 23.48471 33.94223 28.71347
#
# Velocity S-wave (km/s) = 3.11432 3.74404 3.44360
# Velocity P-wave (km/s) = 6.07719 6.78149 6.43897
#
# Compressibility (1/GPa) = 0.01720780
#
# Stress axis : x y z
#
# Youngs Moduli (GPa) = 134.32920 94.60471 58.90179
#
# Poissons Ratio (x) = 0.17824 0.12624
# Poissons Ratio (y) = 0.25309 0.28655
# Poissons Ratio (z) = 0.28789 0.46024
#
# Static dielectric constant tensor:
#      x y z
#    x 1.876940 0.000000 0.040700 
#    y 0.000000 1.958230 0.000000 
#    z 0.040700 0.000000 2.015280 
# 
# From -- ./inp_files/23528.got.cif
#   From: 2010.05.17/outbox.cif.g08.bks.cpg/sg15_12_cif.got.tgz:23528.got - 2010.06.03 18:47:42.
