data_PCOD9307299
_publ_section_title
;
Structure prediction by ZEFSAII (Michael W. Deem and Ramdas Pophale) SiO2 
 PCOD9307299
Probable space group: C 2/C
;
_chemical_formula_sum "Si O2"
_cell_formula_units_Z 52
_cell_length_a 18.492059
_cell_length_b 6.594072
_cell_length_c 23.518773
_cell_angle_alpha 90.000000
_cell_angle_beta 55.394990
_cell_angle_gamma 90.000000
_cell_volume 2360.473920
_symmetry_space_group_name_H-M "C 2/C"
_symmetry_group_IT_number 15
_symmetry_cell_setting 'monoclinic'
loop_
_space_group_symop_operation_xyz
x,y,z
-x,y,1/2-z
-x,-y,-z
x,-y,1/2+z
1/2+x,1/2+y,z
1/2-x,1/2+y,1/2-z
1/2-x,1/2-y,-z
1/2+x,1/2-y,1/2+z
loop_
_atom_site_type_symbol
_atom_site_label
_atom_site_fract_x
_atom_site_fract_y
_atom_site_fract_z
Si Si1 0.843495 0.447129 0.084255
Si Si2 0.958941 0.124667 0.966613
Si Si3 0.342044 0.743134 0.490478
Si Si4 0.000000 0.953316 0.750000
Si Si5 0.339223 0.760827 0.808253
Si Si6 0.908099 0.636805 0.168631
Si Si7 0.434296 0.075802 0.847454
O O1 0.750056 0.335089 0.127951
O O2 0.879000 0.486876 0.131616
O O3 0.911789 0.314836 0.017364
O O4 0.834320 0.663168 0.056604
O O5 0.034772 0.189995 0.888618
O O6 0.886491 0.976992 0.971246
O O7 0.000000 0.000000 0.000000
O O8 0.250000 0.750000 0.500000
O O9 0.398683 0.894278 0.426491
O O10 0.040549 0.796943 0.686435
O O11 0.082018 0.096141 0.727986
O O12 0.327809 0.810144 0.746210
O O13 0.369704 0.947234 0.835596
O O14 0.975325 0.541898 0.184138
#
# Coordination Sequence:
#
# PCOD9307299 Si02
#       7
#     8   8   8   4   8   8   8
#     4  12  28  46  71 110 149 181 247 307 361 426
#     4  12  25  48  76 102 144 195 240 291 368 433
#     4  12  26  44  72 108 141 186 242 300 360 423
#     4  12  22  46  74 104 138 196 242 286 372 438
#     4  12  27  47  72 109 146 192 244 301 367 437
#     4  12  24  49  70 102 147 193 236 300 362 437
#     4  12  24  45  74 100 142 189 244 295 354 442
#
# _framework density 22.029474
#
# number of rings (size 3 to 8) (size 9 to 14) (size 15 to 20)
#    0.000    0.000    6.154    4.154    2.154    3.692 
#    2.769    0.000    0.000    0.000    0.000    0.000 
#    0.000    0.000    0.000    0.000    0.000    0.000 
#
# Total GULP energy -145358.790079 kJ/mol
# GULP energy per Si atom -5590.722695 kJ/mol
# Density = 2.197933 g / cm^3
# Si number density = 22.029474 Si / 1000 Ang^3
#
#
#
# Elastic Constant Matrix: (Units=GPa)
#
#
# Indices 1 2 3 4 5 6 
#
# 1 67.3137 14.3984 -2.3833 -0.0022 8.9233 -0.0001
# 2 14.3984 71.1718 6.3627 -0.0073 16.3914 0.0014
# 3 -2.3833 6.3627 79.7516 -0.0004 19.1418 0.0001
# 4 -0.0022 -0.0073 -0.0004 43.9056 0.0006 8.0565
# 5 8.9233 16.3914 19.1418 0.0006 32.5368 -0.0002
# 6 -0.0001 0.0014 0.0001 8.0565 -0.0002 43.0776
#
#
#
# Elastic Compliance Matrix: (Units=1/GPa)
#
#
# Indices 1 2 3 4 5 6 
#
# 1 0.015983 -0.002429 0.001665 0.000000 -0.004139 0.000000
# 2 -0.002429 0.016304 0.000510 0.000003 -0.007847 -0.000001
# 3 0.001665 0.000510 0.014811 0.000000 -0.009427 0.000000
# 4 0.000000 0.000003 0.000000 0.023586 -0.000002 -0.004411
# 5 -0.004139 -0.007847 -0.009427 -0.000002 0.041369 0.000001
# 6 0.000000 -0.000001 0.000000 -0.004411 0.000001 0.024039
#
#
# Mechanical properties :
#
#
# Convention : Reuss Voigt Hill
#
# Bulk Modulus (GPa) = 21.46409 28.33252 24.89830
# Shear Modulus (GPa) = 32.86703 37.22796 35.04749
#
# Velocity S-wave (km/s) = 3.86678 4.11532 3.99298
# Velocity P-wave (km/s) = 5.44981 5.95569 5.70836
#
# Compressibility (1/GPa) = 0.04658945
#
# Stress axis : x y z
#
# Youngs Moduli (GPa) = 62.56640 61.33615 67.51927
#
# Poissons Ratio (x) = 0.14898 -0.11241
# Poissons Ratio (y) = 0.15197 -0.03445
# Poissons Ratio (z) = -0.10417 -0.03129
#
# Static dielectric constant tensor:
#      x y z
#    x 1.859480 -0.000040 -0.169390 
#    y -0.000040 1.454160 0.000070 
#    z -0.169390 0.000070 2.327190 
# 
# From -- ./inp_files/300075.got.cif
#   From: 2010.05.17/outbox.cif.g08.bks.cpg/sg15_151_cif.got.tgz:300075.got - 2010.06.03 18:47:42.
