data_PCOD9307926
_publ_section_title
;
Structure prediction by ZEFSAII (Michael W. Deem and Ramdas Pophale) SiO2 
 PCOD9307926
Probable space group: C 2/C
;
_chemical_formula_sum "Si O2"
_cell_formula_units_Z 32
_cell_length_a 21.690566
_cell_length_b 4.801176
_cell_length_c 12.049909
_cell_angle_alpha 90.000000
_cell_angle_beta 104.851000
_cell_angle_gamma 90.000000
_cell_volume 1212.961748
_symmetry_space_group_name_H-M "C 2/C"
_symmetry_group_IT_number 15
_symmetry_cell_setting 'monoclinic'
loop_
_space_group_symop_operation_xyz
x,y,z
-x,y,1/2-z
-x,-y,-z
x,-y,1/2+z
1/2+x,1/2+y,z
1/2-x,1/2+y,1/2-z
1/2-x,1/2-y,-z
1/2+x,1/2-y,1/2+z
loop_
_atom_site_type_symbol
_atom_site_label
_atom_site_fract_x
_atom_site_fract_y
_atom_site_fract_z
Si Si1 0.152597 0.251446 0.203044
Si Si2 0.745079 0.468438 0.423055
Si Si3 0.069694 0.075723 0.488241
Si Si4 0.377928 0.892922 0.614797
O O1 0.250000 0.250000 0.500000
O O2 0.202454 0.407461 0.147843
O O3 0.198004 0.698469 0.446467
O O4 0.189428 0.076757 0.311286
O O5 0.884544 0.523397 0.739189
O O6 0.114798 0.952473 0.604774
O O7 0.918388 0.118823 0.613027
O O8 0.093026 0.380610 0.459506
O O9 0.000000 0.000000 0.500000
#
# Coordination Sequence:
#
# PCOD9307926 Si02
#       4
#     8   8   8   8
#     4  12  26  45  81 111 153 199 238 317 390 439
#     4  12  25  45  77 115 152 187 248 309 384 457
#     4  12  30  53  75 107 153 202 262 305 361 451
#     4  12  26  50  74 113 146 196 251 312 373 445
#
# _framework density 26.381702000000001
#
# number of rings (size 3 to 8) (size 9 to 14) (size 15 to 20)
#    0.000    0.000    7.500    0.750    7.000    3.000 
#    4.500    0.000    0.000    0.000    0.000    0.000 
#    0.000    0.000    0.000    0.000    0.000    0.000 
#
# Total GULP energy -89622.367791 kJ/mol
# GULP energy per Si atom -5601.397987 kJ/mol
# Density = 2.632166 g / cm^3
# Si number density = 26.381702 Si / 1000 Ang^3
#
#
#
# Elastic Constant Matrix: (Units=GPa)
#
#
# Indices 1 2 3 4 5 6 
#
# 1 186.4154 67.3331 14.5933 0.0000 -30.6349 0.0000
# 2 67.3331 174.4216 27.7771 0.0000 -17.0574 0.0000
# 3 14.5933 27.7771 106.5440 0.0000 -41.7613 0.0000
# 4 0.0000 0.0000 0.0000 49.0386 0.0000 -19.5166
# 5 -30.6349 -17.0574 -41.7613 0.0000 41.6766 0.0000
# 6 0.0000 0.0000 0.0000 -19.5166 0.0000 48.0904
#
#
#
# Elastic Compliance Matrix: (Units=1/GPa)
#
#
# Indices 1 2 3 4 5 6 
#
# 1 0.007145 -0.002478 0.002188 0.000000 0.006430 0.000000
# 2 -0.002478 0.006895 -0.001755 0.000000 -0.000758 0.000000
# 3 0.002188 -0.001755 0.016291 0.000000 0.017214 0.000000
# 4 0.000000 0.000000 0.000000 0.024320 0.000000 0.009870
# 5 0.006430 -0.000758 0.017214 0.000000 0.045659 0.000000
# 6 0.000000 0.000000 0.000000 0.009870 0.000000 0.024800
#
#
# Mechanical properties :
#
#
# Convention : Reuss Voigt Hill
#
# Bulk Modulus (GPa) = 38.11039 76.30977 57.21008
# Shear Modulus (GPa) = 36.24581 51.60630 43.92606
#
# Velocity S-wave (km/s) = 3.71064 4.42763 4.08489
# Velocity P-wave (km/s) = 5.73023 7.42473 6.63182
#
# Compressibility (1/GPa) = 0.02623957
#
# Stress axis : x y z
#
# Youngs Moduli (GPa) = 139.96398 145.03000 61.38391
#
# Poissons Ratio (x) = 0.35934 -0.13428
# Poissons Ratio (y) = 0.34679 0.10776
# Poissons Ratio (z) = -0.30618 0.25459
#
# Static dielectric constant tensor:
#      x y z
#    x 2.123400 0.000000 0.058840 
#    y 0.000000 2.674960 0.000000 
#    z 0.058840 0.000000 2.116180 
# 
# From -- ./inp_files/120616.got.cif
#   From: 2010.05.17/outbox.cif.g08.bks.cpg/sg15_61_cif.got.tgz:120616.got - 2010.06.03 18:47:42.
