data_PCOD9307393
_publ_section_title
;
Structure prediction by ZEFSAII (Michael W. Deem and Ramdas Pophale) SiO2 
 PCOD9307393
Probable space group: C 2/C
;
_chemical_formula_sum "Si O2"
_cell_formula_units_Z 52
_cell_length_a 27.091349
_cell_length_b 17.081513
_cell_length_c 13.205340
_cell_angle_alpha 90.000000
_cell_angle_beta 158.897496
_cell_angle_gamma 90.000000
_cell_volume 2200.160630
_symmetry_space_group_name_H-M "C 2/C"
_symmetry_group_IT_number 15
_symmetry_cell_setting 'monoclinic'
loop_
_space_group_symop_operation_xyz
x,y,z
-x,y,1/2-z
-x,-y,-z
x,-y,1/2+z
1/2+x,1/2+y,z
1/2-x,1/2+y,1/2-z
1/2-x,1/2-y,-z
1/2+x,1/2-y,1/2+z
loop_
_atom_site_type_symbol
_atom_site_label
_atom_site_fract_x
_atom_site_fract_y
_atom_site_fract_z
Si Si1 0.843981 0.112556 0.475297
Si Si2 0.415964 0.417095 0.338075
Si Si3 0.167453 0.140420 0.404111
Si Si4 0.000000 0.450003 0.750000
Si Si5 0.292294 0.435042 0.318436
Si Si6 0.625036 0.791218 0.426686
Si Si7 0.914266 0.558517 0.765150
O O1 0.834326 0.098572 0.578250
O O2 0.820677 0.027387 0.381769
O O3 0.732635 0.167746 0.208517
O O4 0.000000 0.137397 0.750000
O O5 0.500000 0.500000 0.500000
O O6 0.327391 0.411056 0.271093
O O7 0.537447 0.354280 0.581756
O O8 0.125244 0.098172 0.427837
O O9 0.203302 0.226920 0.510435
O O10 0.275114 0.082738 0.555608
O O11 0.864202 0.407016 0.452024
O O12 0.925349 0.505877 0.686833
O O13 0.500000 0.754778 0.250000
O O14 0.550841 0.855780 0.212668
O O15 0.000000 0.500000 0.000000
#
# Coordination Sequence:
#
# PCOD9307393 Si02
#       7
#     8   8   8   4   8   8   8
#     4  12  24  44  73 109 150 202 261 318 386 463
#     4  12  23  42  76 107 145 197 258 319 385 464
#     4  12  26  48  76 111 152 205 255 320 396 472
#     4  12  24  42  70 114 148 192 256 328 376 454
#     4  12  23  43  70 110 149 195 263 324 384 461
#     4  12  27  49  75 112 162 204 252 322 406 469
#     4  12  24  46  76 108 147 201 260 315 379 461
#
# _framework density 23.634637000000001
#
# number of rings (size 3 to 8) (size 9 to 14) (size 15 to 20)
#    0.000    0.000    6.923    3.692    0.000    0.000 
#    1.385    4.615    0.000    0.000    0.000    0.000 
#    0.000    0.000    0.000    0.000    0.000    0.000 
#
# Total GULP energy -145068.418671 kJ/mol
# GULP energy per Si atom -5579.554564 kJ/mol
# Density = 2.358084 g / cm^3
# Si number density = 23.634637 Si / 1000 Ang^3
#
#
#
# Elastic Constant Matrix: (Units=GPa)
#
#
# Indices 1 2 3 4 5 6 
#
# 1 169.8873 22.8409 57.5026 0.0000 -2.2229 0.0000
# 2 22.8409 65.4301 53.7970 0.0000 -19.3173 0.0000
# 3 57.5026 53.7970 112.8840 0.0000 8.9201 0.0000
# 4 0.0000 0.0000 0.0000 26.1108 0.0000 0.5532
# 5 -2.2229 -19.3173 8.9201 0.0000 42.7896 0.0000
# 6 0.0000 0.0000 0.0000 0.5532 0.0000 16.0673
#
#
#
# Elastic Compliance Matrix: (Units=1/GPa)
#
#
# Indices 1 2 3 4 5 6 
#
# 1 0.007305 0.002295 -0.005009 0.000000 0.002460 0.000000
# 2 0.002295 0.038324 -0.021158 0.000000 0.021831 0.000000
# 3 -0.005009 -0.021158 0.022642 0.000000 -0.014532 0.000000
# 4 0.000000 0.000000 0.000000 0.038326 0.000000 -0.001320
# 5 0.002460 0.021831 -0.014532 0.000000 0.036383 0.000000
# 6 0.000000 0.000000 0.000000 -0.001320 0.000000 0.062284
#
#
# Mechanical properties :
#
#
# Convention : Reuss Voigt Hill
#
# Bulk Modulus (GPa) = 48.71856 68.49803 58.60830
# Shear Modulus (GPa) = 19.24172 31.26426 25.25299
#
# Velocity S-wave (km/s) = 2.85640 3.64100 3.27230
# Velocity P-wave (km/s) = 5.61575 6.83526 6.25529
#
# Compressibility (1/GPa) = 0.02052606
#
# Stress axis : x y z
#
# Youngs Moduli (GPa) = 136.88431 26.09322 44.16588
#
# Poissons Ratio (x) = -0.05987 0.22124
# Poissons Ratio (y) = -0.31409 0.93446
# Poissons Ratio (z) = 0.68568 0.55208
#
# Static dielectric constant tensor:
#      x y z
#    x 1.961150 0.000000 -0.007600 
#    y 0.000000 1.942680 0.000000 
#    z -0.007600 0.000000 2.078560 
# 
# From -- ./inp_files/182907.got.cif
#   From: 2010.05.17/outbox.cif.g08.bks.cpg/sg15_92_cif.got.tgz:182907.got - 2010.06.03 18:47:42.
