data_PCOD9307933
_publ_section_title
;
Structure prediction by ZEFSAII (Michael W. Deem and Ramdas Pophale) SiO2 
 PCOD9307933
Probable space group: C 2/C
;
_chemical_formula_sum "Si O2"
_cell_formula_units_Z 36
_cell_length_a 27.268118
_cell_length_b 4.927607
_cell_length_c 20.181400
_cell_angle_alpha 90.000000
_cell_angle_beta 33.409627
_cell_angle_gamma 90.000000
_cell_volume 1493.121998
_symmetry_space_group_name_H-M "C 2/C"
_symmetry_group_IT_number 15
_symmetry_cell_setting 'monoclinic'
loop_
_space_group_symop_operation_xyz
x,y,z
-x,y,1/2-z
-x,-y,-z
x,-y,1/2+z
1/2+x,1/2+y,z
1/2-x,1/2+y,1/2-z
1/2-x,1/2-y,-z
1/2+x,1/2-y,1/2+z
loop_
_atom_site_type_symbol
_atom_site_label
_atom_site_fract_x
_atom_site_fract_y
_atom_site_fract_z
Si Si1 0.402068 0.816001 0.487676
Si Si2 0.500000 0.024719 0.750000
Si Si3 0.925304 0.814937 0.548542
Si Si4 0.801302 0.142249 0.309866
Si Si5 0.666510 0.160932 0.138381
O O1 0.391991 0.519130 0.529381
O O2 0.302379 0.916307 0.585183
O O3 0.458846 0.807222 0.356915
O O4 0.447195 0.030347 0.487968
O O5 0.420205 0.852227 0.809089
O O6 0.848995 0.766070 0.688919
O O7 0.000000 0.000000 0.500000
O O8 0.813383 0.370830 0.351873
O O9 0.846146 0.872205 0.287842
O O10 0.750000 0.250000 0.000000
#
# Coordination Sequence:
#
# PCOD9307933 Si02
#       5
#     8   4   8   8   8
#     4  12  26  44  72 104 142 193 236 297 359 434
#     4  12  28  46  74 106 150 188 248 292 380 428
#     4  12  25  46  71 104 143 186 245 295 362 426
#     4  12  25  48  73 104 144 187 247 298 365 430
#     4  12  26  47  72 107 146 190 238 303 360 442
#
# _framework density 24.110552999999999
#
# number of rings (size 3 to 8) (size 9 to 14) (size 15 to 20)
#    0.000    0.000    2.222    8.000    0.000    1.778 
#    0.000    0.000    0.000    0.000    0.000    0.000 
#    0.000    0.000    0.000    0.000    0.000    0.000 
#
# Total GULP energy -101000.180432 kJ/mol
# GULP energy per Si atom -5611.121135 kJ/mol
# Density = 2.405568 g / cm^3
# Si number density = 24.110553 Si / 1000 Ang^3
#
#
#
# Elastic Constant Matrix: (Units=GPa)
#
#
# Indices 1 2 3 4 5 6 
#
# 1 99.8745 18.1265 48.0348 0.0304 -12.3150 0.0361
# 2 18.1265 98.6669 0.1863 0.0653 -5.2580 0.1834
# 3 48.0348 0.1863 160.1760 -0.0607 14.8491 -0.0079
# 4 0.0304 0.0653 -0.0607 19.3885 0.0159 1.1413
# 5 -12.3150 -5.2580 14.8491 0.0159 39.4476 -0.0695
# 6 0.0361 0.1834 -0.0079 1.1413 -0.0695 31.8766
#
#
#
# Elastic Compliance Matrix: (Units=1/GPa)
#
#
# Indices 1 2 3 4 5 6 
#
# 1 0.013236 -0.002128 -0.004480 -0.000033 0.005535 0.000009
# 2 -0.002128 0.010553 0.000577 -0.000028 0.000525 -0.000056
# 3 -0.004480 0.000577 0.007987 0.000034 -0.004328 -0.000007
# 4 -0.000033 -0.000028 0.000034 0.051686 -0.000051 -0.001851
# 5 0.005535 0.000525 -0.004328 -0.000051 0.028777 0.000054
# 6 0.000009 -0.000056 -0.000007 -0.001851 0.000054 0.031438
#
#
# Mechanical properties :
#
#
# Convention : Reuss Voigt Hill
#
# Bulk Modulus (GPa) = 50.72408 54.60139 52.66274
# Shear Modulus (GPa) = 30.80514 37.63386 34.21950
#
# Velocity S-wave (km/s) = 3.57832 3.95509 3.77141
# Velocity P-wave (km/s) = 6.17708 6.59943 6.39174
#
# Compressibility (1/GPa) = 0.01971450
#
# Stress axis : x y z
#
# Youngs Moduli (GPa) = 75.55199 94.75890 125.20038
#
# Poissons Ratio (x) = 0.20167 0.56089
# Poissons Ratio (y) = 0.16079 -0.07228
# Poissons Ratio (z) = 0.33847 -0.05470
#
# Static dielectric constant tensor:
#      x y z
#    x 1.923990 -0.000030 0.029710 
#    y -0.000030 1.875000 0.000020 
#    z 0.029710 0.000020 1.825690 
# 
# From -- ./inp_files/258379.got.cif
#   From: 2010.05.17/outbox.cif.g08.bks.cpg/sg15_130_cif.got.tgz:258379.got - 2010.06.03 18:47:42.
