data_PCOD9307953
_publ_section_title
;
Structure prediction by ZEFSAII (Michael W. Deem and Ramdas Pophale) SiO2 
 PCOD9307953
Probable space group: C 2/C
;
_chemical_formula_sum "Si O2"
_cell_formula_units_Z 36
_cell_length_a 15.271426
_cell_length_b 10.926071
_cell_length_c 16.109065
_cell_angle_alpha 90.000000
_cell_angle_beta 38.434784
_cell_angle_gamma 90.000000
_cell_volume 1670.864871
_symmetry_space_group_name_H-M "C 2/C"
_symmetry_group_IT_number 15
_symmetry_cell_setting 'monoclinic'
loop_
_space_group_symop_operation_xyz
x,y,z
-x,y,1/2-z
-x,-y,-z
x,-y,1/2+z
1/2+x,1/2+y,z
1/2-x,1/2+y,1/2-z
1/2-x,1/2-y,-z
1/2+x,1/2-y,1/2+z
loop_
_atom_site_type_symbol
_atom_site_label
_atom_site_fract_x
_atom_site_fract_y
_atom_site_fract_z
Si Si1 0.000000 0.053351 0.750000
Si Si2 0.603056 0.976462 0.247239
Si Si3 0.108389 0.252556 0.799534
Si Si4 0.342385 0.360373 0.969648
Si Si5 0.066209 0.715614 0.903208
O O1 0.941213 0.139967 0.720612
O O2 0.879136 0.964587 0.875784
O O3 0.500000 0.936551 0.250000
O O4 0.552583 0.916960 0.370512
O O5 0.603130 0.121528 0.252528
O O6 0.754047 0.922555 0.109255
O O7 0.268940 0.239166 0.709365
O O8 0.008903 0.268332 0.953100
O O9 0.487708 0.306962 0.897950
O O10 0.250000 0.250000 0.000000
#
# Coordination Sequence:
#
# PCOD9307953 Si02
#       5
#     4   8   8   8   8
#     4  12  30  48  78 108 158 192 246 318 380 440
#     4  12  25  46  76 106 154 198 249 306 377 448
#     4  12  29  48  74 115 151 196 249 314 380 434
#     4  12  26  48  75 110 148 201 250 303 375 450
#     4  12  27  48  76 111 148 199 255 306 368 451
#
# _framework density 21.545729000000001
#
# number of rings (size 3 to 8) (size 9 to 14) (size 15 to 20)
#    0.000    0.000    5.556    3.333    6.222    3.556 
#    0.000    0.000    0.000    0.000    0.000    0.000 
#    0.000    0.000    0.000    0.000    0.000    0.000 
#
# Total GULP energy -100784.476067 kJ/mol
# GULP energy per Si atom -5599.137559 kJ/mol
# Density = 2.149669 g / cm^3
# Si number density = 21.545729 Si / 1000 Ang^3
#
#
#
# Elastic Constant Matrix: (Units=GPa)
#
#
# Indices 1 2 3 4 5 6 
#
# 1 79.9659 46.5443 55.7996 0.0000 11.4719 0.0000
# 2 46.5443 154.6856 68.0828 0.0000 14.5244 0.0000
# 3 55.7996 68.0828 138.5647 0.0000 6.4393 0.0000
# 4 0.0000 0.0000 0.0000 36.9649 0.0000 17.1176
# 5 11.4719 14.5244 6.4393 0.0000 27.8583 0.0000
# 6 0.0000 0.0000 0.0000 17.1176 0.0000 38.4095
#
#
#
# Elastic Compliance Matrix: (Units=1/GPa)
#
#
# Indices 1 2 3 4 5 6 
#
# 1 0.019018 -0.002524 -0.006182 0.000000 -0.005087 0.000000
# 2 -0.002524 0.008915 -0.003231 0.000000 -0.002862 0.000000
# 3 -0.006182 -0.003231 0.011218 0.000000 0.001637 0.000000
# 4 0.000000 0.000000 0.000000 0.034088 0.000000 -0.015191
# 5 -0.005087 -0.002862 0.001637 0.000000 0.039104 0.000000
# 6 0.000000 0.000000 0.000000 -0.015191 0.000000 0.032805
#
#
# Mechanical properties :
#
#
# Convention : Reuss Voigt Hill
#
# Bulk Modulus (GPa) = 65.45819 79.34107 72.39963
# Shear Modulus (GPa) = 28.71690 34.16583 31.44136
#
# Velocity S-wave (km/s) = 3.65476 3.98645 3.82420
# Velocity P-wave (km/s) = 6.94671 7.62191 7.29213
#
# Compressibility (1/GPa) = 0.01527693
#
# Stress axis : x y z
#
# Youngs Moduli (GPa) = 52.58233 112.17161 89.14470
#
# Poissons Ratio (x) = 0.28311 0.55109
# Poissons Ratio (y) = 0.13271 0.28802
# Poissons Ratio (z) = 0.32506 0.36242
#
# Static dielectric constant tensor:
#      x y z
#    x 1.792180 0.000000 0.001540 
#    y 0.000000 1.764160 0.000000 
#    z 0.001540 0.000000 1.779740 
# 
# From -- ./inp_files/152404.got.cif
#   From: 2010.05.17/outbox.cif.g08.bks.cpg/sg15_77_cif.got.tgz:152404.got - 2010.06.03 18:47:42.
