data_PCOD9307514
_publ_section_title
;
Structure prediction by ZEFSAII (Michael W. Deem and Ramdas Pophale) SiO2 
 PCOD9307514
Probable space group: C 2/C
;
_chemical_formula_sum "Si O2"
_cell_formula_units_Z 44
_cell_length_a 22.645358
_cell_length_b 10.525536
_cell_length_c 12.659944
_cell_angle_alpha 90.000000
_cell_angle_beta 140.446150
_cell_angle_gamma 90.000000
_cell_volume 1921.588562
_symmetry_space_group_name_H-M "C 2/C"
_symmetry_group_IT_number 15
_symmetry_cell_setting 'monoclinic'
loop_
_space_group_symop_operation_xyz
x,y,z
-x,y,1/2-z
-x,-y,-z
x,-y,1/2+z
1/2+x,1/2+y,z
1/2-x,1/2+y,1/2-z
1/2-x,1/2-y,-z
1/2+x,1/2-y,1/2+z
loop_
_atom_site_type_symbol
_atom_site_label
_atom_site_fract_x
_atom_site_fract_y
_atom_site_fract_z
Si Si1 0.191719 0.624276 0.443384
Si Si2 0.000000 0.909117 0.250000
Si Si3 0.914499 0.278520 0.053569
Si Si4 0.358131 0.054947 0.900384
Si Si5 0.307214 0.439519 0.482340
Si Si6 0.524404 0.778232 0.585908
O O1 0.250000 0.750000 0.500000
O O2 0.161536 0.634729 0.521724
O O3 0.253321 0.499044 0.507798
O O4 0.102842 0.629351 0.244178
O O5 0.992736 0.823598 0.345445
O O6 0.093284 0.992195 0.386043
O O7 0.000000 0.270644 0.250000
O O8 0.897558 0.423462 0.998854
O O9 0.830132 0.208158 0.995809
O O10 0.938753 0.217987 0.972302
O O11 0.263550 0.027426 0.709104
O O12 0.432983 0.137389 0.939115
#
# Coordination Sequence:
#
# PCOD9307514 Si02
#       6
#     8   4   8   8   8   8
#     4  12  23  47  76 108 142 194 254 301 355 458
#     4  12  26  50  76 104 144 200 250 304 362 452
#     4  12  28  47  68 111 155 187 233 314 381 424
#     4  12  27  45  77 108 141 196 249 307 365 444
#     4  12  28  46  70 113 149 188 246 302 382 434
#     4  12  24  48  80 103 146 198 258 295 363 459
#
# _framework density 22.897722000000002
#
# number of rings (size 3 to 8) (size 9 to 14) (size 15 to 20)
#    0.000    0.000    6.364    2.727    5.091    2.909 
#    0.000    0.000    0.000    0.000    0.000    0.000 
#    0.000    0.000    0.000    0.000    0.000    0.000 
#
# Total GULP energy -123113.428393 kJ/mol
# GULP energy per Si atom -5596.064927 kJ/mol
# Density = 2.284561 g / cm^3
# Si number density = 22.897722 Si / 1000 Ang^3
#
#
#
# Elastic Constant Matrix: (Units=GPa)
#
#
# Indices 1 2 3 4 5 6 
#
# 1 60.0861 8.1099 14.6123 0.0000 13.5620 0.0000
# 2 8.1099 64.7110 -4.4553 0.0000 6.4598 0.0000
# 3 14.6123 -4.4553 107.8022 0.0000 24.2319 0.0000
# 4 0.0000 0.0000 0.0000 23.1160 0.0000 18.1740
# 5 13.5620 6.4598 24.2319 0.0000 29.4131 0.0000
# 6 0.0000 0.0000 0.0000 18.1740 0.0000 113.9573
#
#
#
# Elastic Compliance Matrix: (Units=1/GPa)
#
#
# Indices 1 2 3 4 5 6 
#
# 1 0.018794 -0.001666 -0.000921 0.000000 -0.007541 0.000000
# 2 -0.001666 0.016224 0.001871 0.000000 -0.004336 0.000000
# 3 -0.000921 0.001871 0.011629 0.000000 -0.009567 0.000000
# 4 0.000000 0.000000 0.000000 0.049462 0.000000 -0.007888
# 5 -0.007541 -0.004336 -0.009567 0.000000 0.046309 0.000000
# 6 0.000000 0.000000 0.000000 -0.007888 0.000000 0.010033
#
#
# Mechanical properties :
#
#
# Convention : Reuss Voigt Hill
#
# Bulk Modulus (GPa) = 22.11706 29.90365 26.01036
# Shear Modulus (GPa) = 29.59382 47.58610 38.58996
#
# Velocity S-wave (km/s) = 3.59895 4.56368 4.10972
# Velocity P-wave (km/s) = 5.19133 6.39199 5.82269
#
# Compressibility (1/GPa) = 0.04521397
#
# Stress axis : x y z
#
# Youngs Moduli (GPa) = 53.20937 61.63771 85.99310
#
# Poissons Ratio (x) = 0.10269 0.07922
# Poissons Ratio (y) = 0.08865 -0.16090
# Poissons Ratio (z) = 0.04902 -0.11533
#
# Static dielectric constant tensor:
#      x y z
#    x 1.941560 0.000000 -0.001150 
#    y 0.000000 1.900060 0.000000 
#    z -0.001150 0.000000 1.803260 
# 
# From -- ./inp_files/118115.got.cif
#   From: 2010.05.17/outbox.cif.g08.bks.cpg/sg15_60_cif.got.tgz:118115.got - 2010.06.03 18:47:42.
