data_PCOD9307635
_publ_section_title
;
Structure prediction by ZEFSAII (Michael W. Deem and Ramdas Pophale) SiO2 
 PCOD9307635
Probable space group: C 2/C
;
_chemical_formula_sum "Si O2"
_cell_formula_units_Z 32
_cell_length_a 21.115367
_cell_length_b 4.752345
_cell_length_c 11.679219
_cell_angle_alpha 90.000000
_cell_angle_beta 103.120393
_cell_angle_gamma 90.000000
_cell_volume 1141.386255
_symmetry_space_group_name_H-M "C 2/C"
_symmetry_group_IT_number 15
_symmetry_cell_setting 'monoclinic'
loop_
_space_group_symop_operation_xyz
x,y,z
-x,y,1/2-z
-x,-y,-z
x,-y,1/2+z
1/2+x,1/2+y,z
1/2-x,1/2+y,1/2-z
1/2-x,1/2-y,-z
1/2+x,1/2-y,1/2+z
loop_
_atom_site_type_symbol
_atom_site_label
_atom_site_fract_x
_atom_site_fract_y
_atom_site_fract_z
Si Si1 0.898619 0.996230 0.535206
Si Si2 0.000000 0.827902 0.250000
Si Si3 0.414760 0.026814 0.884915
Si Si4 0.782528 0.671205 0.711645
Si Si5 0.250000 0.250000 0.000000
O O1 0.942845 0.995127 0.666162
O O2 0.828576 0.140664 0.525483
O O3 0.936171 0.197192 0.460415
O O4 0.891146 0.699463 0.469442
O O5 0.033412 0.625018 0.171761
O O6 0.354729 0.126796 0.782895
O O7 0.759105 0.993627 0.709167
O O8 0.769942 0.518228 0.589305
#
# Coordination Sequence:
#
# PCOD9307635 Si02
#       5
#     8   4   8   8   4
#     4  12  28  46  74 104 142 179 238 284 346 419
#     4  12  28  50  72 102 140 194 226 290 350 402
#     4  12  26  48  70 105 139 186 235 285 340 419
#     4  12  24  44  71 104 141 179 232 289 343 410
#     4  12  24  46  74 106 136 190 220 294 352 406
#
# _framework density 28.036079000000001
#
# number of rings (size 3 to 8) (size 9 to 14) (size 15 to 20)
#    0.000    0.000    7.500    1.500    0.000    8.000 
#    0.000    0.000    0.000    0.000    0.000    0.000 
#    0.000    0.000    0.000    0.000    0.000    0.000 
#
# Total GULP energy -89569.505322 kJ/mol
# GULP energy per Si atom -5598.094083 kJ/mol
# Density = 2.797227 g / cm^3
# Si number density = 28.036079 Si / 1000 Ang^3
#
#
#
# Elastic Constant Matrix: (Units=GPa)
#
#
# Indices 1 2 3 4 5 6 
#
# 1 166.9193 55.3070 71.6421 0.0000 27.6746 0.0000
# 2 55.3070 163.1574 31.6293 0.0000 -13.2379 0.0000
# 3 71.6421 31.6293 139.3701 0.0000 39.9965 0.0000
# 4 0.0000 0.0000 0.0000 77.4191 0.0000 -20.9167
# 5 27.6746 -13.2379 39.9965 0.0000 61.1339 0.0000
# 6 0.0000 0.0000 0.0000 -20.9167 0.0000 59.5403
#
#
#
# Elastic Compliance Matrix: (Units=1/GPa)
#
#
# Indices 1 2 3 4 5 6 
#
# 1 0.008558 -0.002477 -0.003166 0.000000 -0.002339 0.000000
# 2 -0.002477 0.007569 -0.001522 0.000000 0.003756 0.000000
# 3 -0.003166 -0.001522 0.010873 0.000000 -0.006010 0.000000
# 4 0.000000 0.000000 0.000000 0.014271 0.000000 0.005014
# 5 -0.002339 0.003756 -0.006010 0.000000 0.022162 0.000000
# 6 0.000000 0.000000 0.000000 0.005014 0.000000 0.018557
#
#
# Mechanical properties :
#
#
# Convention : Reuss Voigt Hill
#
# Bulk Modulus (GPa) = 78.93152 87.40041 83.16597
# Shear Modulus (GPa) = 49.72999 60.34322 55.03661
#
# Velocity S-wave (km/s) = 4.21620 4.64437 4.43545
# Velocity P-wave (km/s) = 7.20531 7.74610 7.48060
#
# Compressibility (1/GPa) = 0.01266921
#
# Stress axis : x y z
#
# Youngs Moduli (GPa) = 116.84487 132.12426 91.97374
#
# Poissons Ratio (x) = 0.32730 0.29117
# Poissons Ratio (y) = 0.28945 0.14001
# Poissons Ratio (z) = 0.36991 0.20112
#
# Static dielectric constant tensor:
#      x y z
#    x 2.172340 0.000000 -0.155440 
#    y 0.000000 2.091320 0.000000 
#    z -0.155440 0.000000 2.072760 
# 
# From -- ./inp_files/165023.got.cif
#   From: 2010.05.17/outbox.cif.g08.bks.cpg/sg15_83_cif.got.tgz:165023.got - 2010.06.03 18:47:42.
