data_PCOD9307208
_publ_section_title
;
Structure prediction by ZEFSAII (Michael W. Deem and Ramdas Pophale) SiO2 
 PCOD9307208
Probable space group: C 2/C
;
_chemical_formula_sum "Si O2"
_cell_formula_units_Z 28
_cell_length_a 9.712180
_cell_length_b 11.090853
_cell_length_c 13.291069
_cell_angle_alpha 90.000000
_cell_angle_beta 127.057441
_cell_angle_gamma 90.000000
_cell_volume 1142.514616
_symmetry_space_group_name_H-M "C 2/C"
_symmetry_group_IT_number 15
_symmetry_cell_setting 'monoclinic'
loop_
_space_group_symop_operation_xyz
x,y,z
-x,y,1/2-z
-x,-y,-z
x,-y,1/2+z
1/2+x,1/2+y,z
1/2-x,1/2+y,1/2-z
1/2-x,1/2-y,-z
1/2+x,1/2-y,1/2+z
loop_
_atom_site_type_symbol
_atom_site_label
_atom_site_fract_x
_atom_site_fract_y
_atom_site_fract_z
Si Si1 0.180112 0.704884 0.231191
Si Si2 0.560145 0.004938 0.911343
Si Si3 0.886477 0.870346 0.116094
Si Si4 0.000000 0.727510 0.750000
O O1 0.206720 0.772337 0.350355
O O2 0.343568 0.702546 0.232295
O O3 0.092194 0.575627 0.205239
O O4 0.029555 0.792736 0.119743
O O5 0.565016 0.135956 0.865437
O O6 0.749929 0.946607 0.996112
O O7 0.500000 0.000000 0.000000
O O8 0.000000 0.941827 0.250000
#
# Coordination Sequence:
#
# PCOD9307208 Si02
#       4
#     8   8   8   4
#     4   9  22  41  64  95 134 169 221 273 324 390
#     4  12  22  42  68  98 134 172 222 274 329 400
#     4   8  19  43  63  92 131 171 219 272 327 382
#     4  12  24  44  68 104 130 178 224 266 338 396
#
# _framework density 24.507345999999998
#
# number of rings (size 3 to 8) (size 9 to 14) (size 15 to 20)
#    1.714    0.000    2.857    2.571    0.000    2.286 
#    7.714    0.000    0.000    0.000    0.000    0.000 
#    0.000    0.000    0.000    0.000    0.000    0.000 
#
# Total GULP energy -78142.983323 kJ/mol
# GULP energy per Si atom -5581.641666 kJ/mol
# Density = 2.445157 g / cm^3
# Si number density = 24.507346 Si / 1000 Ang^3
#
#
#
# Elastic Constant Matrix: (Units=GPa)
#
#
# Indices 1 2 3 4 5 6 
#
# 1 199.4270 38.3075 14.0419 0.0000 5.9937 0.0000
# 2 38.3075 56.6758 10.5996 0.0000 9.8981 0.0000
# 3 14.0419 10.5996 79.4464 0.0000 12.0059 0.0000
# 4 0.0000 0.0000 0.0000 15.1429 0.0000 -12.5828
# 5 5.9937 9.8981 12.0059 0.0000 40.9183 0.0000
# 6 0.0000 0.0000 0.0000 -12.5828 0.0000 19.7541
#
#
#
# Elastic Compliance Matrix: (Units=1/GPa)
#
#
# Indices 1 2 3 4 5 6 
#
# 1 0.005785 -0.003851 -0.000546 0.000000 0.000244 0.000000
# 2 -0.003851 0.021254 -0.001531 0.000000 -0.004128 0.000000
# 3 -0.000546 -0.001531 0.013415 0.000000 -0.003486 0.000000
# 4 0.000000 0.000000 0.000000 0.140291 0.000000 0.089361
# 5 0.000244 -0.004128 -0.003486 0.000000 0.026424 0.000000
# 6 0.000000 0.000000 0.000000 0.089361 0.000000 0.107543
#
#
# Mechanical properties :
#
#
# Convention : Reuss Voigt Hill
#
# Bulk Modulus (GPa) = 34.96673 51.27189 43.11931
# Shear Modulus (GPa) = 14.87649 33.33641 24.10645
#
# Velocity S-wave (km/s) = 2.46645 3.69217 3.13971
# Velocity P-wave (km/s) = 4.73392 6.25641 5.54764
#
# Compressibility (1/GPa) = 0.02859862
#
# Stress axis : x y z
#
# Youngs Moduli (GPa) = 172.85669 47.04931 74.54572
#
# Poissons Ratio (x) = 0.18118 0.04068
# Poissons Ratio (y) = 0.66564 0.11415
# Poissons Ratio (z) = 0.09432 0.07204
#
# Static dielectric constant tensor:
#      x y z
#    x 1.933360 0.000000 -0.015400 
#    y 0.000000 1.964970 0.000000 
#    z -0.015400 0.000000 2.079330 
# 
# From -- ./inp_files/75725.got.cif
#   From: 2010.05.17/outbox.cif.g08.bks.cpg/sg15_38_cif.got.tgz:75725.got - 2010.06.03 18:47:42.
