data_PCOD9307644
_publ_section_title
;
Structure prediction by ZEFSAII (Michael W. Deem and Ramdas Pophale) SiO2 
 PCOD9307644
Probable space group: C 2/C
;
_chemical_formula_sum "Si O2"
_cell_formula_units_Z 48
_cell_length_a 9.539352
_cell_length_b 23.322725
_cell_length_c 14.042873
_cell_angle_alpha 90.000000
_cell_angle_beta 45.736638
_cell_angle_gamma 90.000000
_cell_volume 2237.440917
_symmetry_space_group_name_H-M "C 2/C"
_symmetry_group_IT_number 15
_symmetry_cell_setting 'monoclinic'
loop_
_space_group_symop_operation_xyz
x,y,z
-x,y,1/2-z
-x,-y,-z
x,-y,1/2+z
1/2+x,1/2+y,z
1/2-x,1/2+y,1/2-z
1/2-x,1/2-y,-z
1/2+x,1/2-y,1/2+z
loop_
_atom_site_type_symbol
_atom_site_label
_atom_site_fract_x
_atom_site_fract_y
_atom_site_fract_z
Si Si1 0.825829 0.585777 0.756208
Si Si2 0.414849 0.873795 0.536840
Si Si3 0.876916 0.303787 0.903761
Si Si4 0.096722 0.794193 0.610856
Si Si5 0.439965 0.372385 0.540049
Si Si6 0.330607 0.465885 0.749611
O O1 0.736092 0.526550 0.760025
O O2 0.000000 0.576189 0.750000
O O3 0.076016 0.618041 0.879380
O O4 0.646731 0.619552 0.889768
O O5 0.481275 0.826321 0.580719
O O6 0.214201 0.850892 0.586150
O O7 0.354182 0.932798 0.616301
O O8 0.734834 0.358052 0.948743
O O9 0.000000 0.290570 0.750000
O O10 0.750000 0.250000 0.000000
O O11 0.250000 0.750000 0.500000
O O12 0.000000 0.768943 0.750000
O O13 0.949060 0.815585 0.601402
O O14 0.399693 0.425869 0.628680
O O15 0.500000 0.471693 0.750000
#
# Coordination Sequence:
#
# PCOD9307644 Si02
#       6
#     8   8   8   8   8   8
#     4  12  28  44  75 110 140 190 241 292 351 432
#     4  12  25  47  70 104 149 182 234 297 354 422
#     4  12  28  48  75 107 144 190 237 291 359 422
#     4  12  24  44  73 101 134 184 233 293 355 418
#     4  12  25  47  70 104 149 182 234 297 354 422
#     4  12  24  48  73 104 144 190 241 292 363 420
#
# _framework density 21.45308
#
# number of rings (size 3 to 8) (size 9 to 14) (size 15 to 20)
#    0.000    0.000    6.667    2.000    9.333    0.000 
#    0.000    0.000    0.000    0.000    0.000    0.000 
#    0.000    0.000    0.000    0.000    0.000    0.000 
#
# Total GULP energy -134341.075332 kJ/mol
# GULP energy per Si atom -5597.544806 kJ/mol
# Density = 2.140425 g / cm^3
# Si number density = 21.453080 Si / 1000 Ang^3
#
#
#
# Elastic Constant Matrix: (Units=GPa)
#
#
# Indices 1 2 3 4 5 6 
#
# 1 65.7607 20.2628 30.1830 0.0000 -6.3898 0.0000
# 2 20.2628 53.5718 32.9731 0.0000 7.0739 0.0000
# 3 30.1830 32.9731 195.3860 0.0000 -8.7548 0.0000
# 4 0.0000 0.0000 0.0000 31.4429 0.0000 -16.3341
# 5 -6.3898 7.0739 -8.7548 0.0000 27.9864 0.0000
# 6 0.0000 0.0000 0.0000 -16.3341 0.0000 27.8798
#
#
#
# Elastic Compliance Matrix: (Units=1/GPa)
#
#
# Indices 1 2 3 4 5 6 
#
# 1 0.018516 -0.006830 -0.001461 0.000000 0.005497 0.000000
# 2 -0.006830 0.024566 -0.003488 0.000000 -0.008860 0.000000
# 3 -0.001461 -0.003488 0.006042 0.000000 0.002438 0.000000
# 4 0.000000 0.000000 0.000000 0.045718 0.000000 0.026785
# 5 0.005497 -0.008860 0.002438 0.000000 0.039989 0.000000
# 6 0.000000 0.000000 0.000000 0.026785 0.000000 0.051561
#
#
# Mechanical properties :
#
#
# Convention : Reuss Voigt Hill
#
# Bulk Modulus (GPa) = 39.11415 53.50626 46.31020
# Shear Modulus (GPa) = 22.88624 32.88179 27.88401
#
# Velocity S-wave (km/s) = 3.26974 3.91926 3.60914
# Velocity P-wave (km/s) = 5.70324 6.74359 6.24511
#
# Compressibility (1/GPa) = 0.02556619
#
# Stress axis : x y z
#
# Youngs Moduli (GPa) = 54.00749 40.70614 165.51741
#
# Poissons Ratio (x) = 0.27801 0.24190
# Poissons Ratio (y) = 0.36885 0.57728
# Poissons Ratio (z) = 0.07893 0.14197
#
# Static dielectric constant tensor:
#      x y z
#    x 1.716180 0.000000 -0.035890 
#    y 0.000000 1.843730 0.000000 
#    z -0.035890 0.000000 1.701770 
# 
# From -- ./inp_files/80490.got.cif
#   From: 2010.05.17/outbox.cif.g08.bks.cpg/sg15_41_cif.got.tgz:80490.got - 2010.06.03 18:47:42.
