data_PCOD9307052
_publ_section_title
;
Structure prediction by ZEFSAII (Michael W. Deem and Ramdas Pophale) SiO2 
 PCOD9307052
Probable space group: C 2/C
;
_chemical_formula_sum "Si O2"
_cell_formula_units_Z 52
_cell_length_a 25.747682
_cell_length_b 10.871437
_cell_length_c 9.262372
_cell_angle_alpha 90.000000
_cell_angle_beta 55.096978
_cell_angle_gamma 90.000000
_cell_volume 2126.305250
_symmetry_space_group_name_H-M "C 2/C"
_symmetry_group_IT_number 15
_symmetry_cell_setting 'monoclinic'
loop_
_space_group_symop_operation_xyz
x,y,z
-x,y,1/2-z
-x,-y,-z
x,-y,1/2+z
1/2+x,1/2+y,z
1/2-x,1/2+y,1/2-z
1/2-x,1/2-y,-z
1/2+x,1/2-y,1/2+z
loop_
_atom_site_type_symbol
_atom_site_label
_atom_site_fract_x
_atom_site_fract_y
_atom_site_fract_z
Si Si1 0.213621 0.894678 0.807665
Si Si2 0.342280 0.070468 0.240380
Si Si3 0.631502 0.154372 0.976522
Si Si4 0.333840 0.398823 0.917560
Si Si5 0.000000 0.728976 0.250000
Si Si6 0.060380 0.080794 0.872488
Si Si7 0.573751 0.230163 0.593620
O O1 0.278560 0.863322 0.785892
O O2 0.218082 0.891855 0.627359
O O3 0.161331 0.790731 0.925995
O O4 0.194372 0.029467 0.899305
O O5 0.353443 0.094916 0.390664
O O6 0.399245 0.125891 0.053440
O O7 0.339040 0.930237 0.194021
O O8 0.555338 0.156873 0.080839
O O9 0.384678 0.495811 0.773382
O O10 0.373463 0.271790 0.873140
O O11 0.038959 0.814608 0.296376
O O12 0.075872 0.145989 0.996205
O O13 0.000000 0.000000 0.000000
O O14 0.500000 0.208693 0.750000
#
# Coordination Sequence:
#
# PCOD9307052 Si02
#       7
#     8   8   8   8   4   8   8
#     4  12  27  49  78 109 150 194 254 309 371 441
#     4  12  30  51  74 103 153 203 252 304 368 445
#     4  12  29  50  76 107 150 201 250 307 371 449
#     4  12  24  43  77 113 146 192 244 307 378 433
#     4  12  24  44  72 104 148 192 242 300 372 440
#     4  12  21  41  67 114 147 185 236 311 374 434
#     4  12  26  42  72 108 149 187 244 308 373 438
#
# _framework density 24.455563999999999
#
# number of rings (size 3 to 8) (size 9 to 14) (size 15 to 20)
#    0.000    0.000    6.154    3.231    5.385    1.231 
#    0.000    0.000    0.000    0.000    0.000    0.000 
#    0.000    0.000    0.000    0.000    0.000    0.000 
#
# Total GULP energy -145573.630682 kJ/mol
# GULP energy per Si atom -5598.985795 kJ/mol
# Density = 2.439990 g / cm^3
# Si number density = 24.455564 Si / 1000 Ang^3
#
#
#
# Elastic Constant Matrix: (Units=GPa)
#
#
# Indices 1 2 3 4 5 6 
#
# 1 74.8149 18.2920 24.5166 0.0000 3.1491 0.0000
# 2 18.2920 70.0896 22.1794 0.0000 1.9995 0.0000
# 3 24.5166 22.1794 69.7716 0.0000 2.7391 0.0000
# 4 0.0000 0.0000 0.0000 41.9303 0.0000 -3.3719
# 5 3.1491 1.9995 2.7391 0.0000 51.5290 0.0000
# 6 0.0000 0.0000 0.0000 -3.3719 0.0000 14.2376
#
#
#
# Elastic Compliance Matrix: (Units=1/GPa)
#
#
# Indices 1 2 3 4 5 6 
#
# 1 0.015534 -0.002576 -0.004616 0.000000 -0.000604 0.000000
# 2 -0.002576 0.016297 -0.004265 0.000000 -0.000248 0.000000
# 3 -0.004616 -0.004265 0.017329 0.000000 -0.000474 0.000000
# 4 0.000000 0.000000 0.000000 0.024312 0.000000 0.005758
# 5 -0.000604 -0.000248 -0.000474 0.000000 0.019478 0.000000
# 6 0.000000 0.000000 0.000000 0.005758 0.000000 0.071600
#
#
# Mechanical properties :
#
#
# Convention : Reuss Voigt Hill
#
# Bulk Modulus (GPa) = 38.10290 38.29469 38.19879
# Shear Modulus (GPa) = 25.48239 31.51858 28.50049
#
# Velocity S-wave (km/s) = 3.23149 3.59390 3.41750
# Velocity P-wave (km/s) = 5.43485 5.73710 5.58802
#
# Compressibility (1/GPa) = 0.02624472
#
# Stress axis : x y z
#
# Youngs Moduli (GPa) = 64.37397 61.36221 57.70691
#
# Poissons Ratio (x) = 0.15808 0.26636
# Poissons Ratio (y) = 0.16584 0.24615
# Poissons Ratio (z) = 0.29714 0.26174
#
# Static dielectric constant tensor:
#      x y z
#    x 1.847540 0.000000 0.078160 
#    y 0.000000 2.194730 0.000000 
#    z 0.078160 0.000000 1.913430 
# 
# From -- ./inp_files/65357.got.cif
#   From: 2010.05.17/outbox.cif.g08.bks.cpg/sg15_33_cif.got.tgz:65357.got - 2010.06.03 18:47:42.
