data_PCOD9307658
_publ_section_title
;
Structure prediction by ZEFSAII (Michael W. Deem and Ramdas Pophale) SiO2 
 PCOD9307658
Probable space group: C 2/C
;
_chemical_formula_sum "Si O2"
_cell_formula_units_Z 40
_cell_length_a 21.306334
_cell_length_b 14.868605
_cell_length_c 18.386515
_cell_angle_alpha 90.000000
_cell_angle_beta 160.955412
_cell_angle_gamma 90.000000
_cell_volume 1900.643189
_symmetry_space_group_name_H-M "C 2/C"
_symmetry_group_IT_number 15
_symmetry_cell_setting 'monoclinic'
loop_
_space_group_symop_operation_xyz
x,y,z
-x,y,1/2-z
-x,-y,-z
x,-y,1/2+z
1/2+x,1/2+y,z
1/2-x,1/2+y,1/2-z
1/2-x,1/2-y,-z
1/2+x,1/2-y,1/2+z
loop_
_atom_site_type_symbol
_atom_site_label
_atom_site_fract_x
_atom_site_fract_y
_atom_site_fract_z
Si Si1 0.457963 0.123967 0.419697
Si Si2 0.637897 0.698157 0.600318
Si Si3 0.798931 0.168107 0.998727
Si Si4 0.673803 0.443447 0.722748
Si Si5 0.007082 0.497425 0.676704
O O1 0.375565 0.220569 0.356485
O O2 0.685022 0.136403 0.680121
O O3 0.347573 0.062489 0.356364
O O4 0.423254 0.078644 0.303732
O O5 0.669227 0.708060 0.547634
O O6 0.431562 0.650359 0.379378
O O7 0.638036 0.088856 0.817678
O O8 0.750000 0.250000 0.000000
O O9 0.000000 0.129458 0.250000
O O10 0.500000 0.500000 0.500000
O O11 0.785979 0.477639 0.915589
O O12 0.000000 0.461710 0.750000
#
# Coordination Sequence:
#
# PCOD9307658 Si02
#       5
#     8   8   8   8   8
#     4  12  25  46  71 107 143 193 256 301 363 450
#     4  12  24  44  76 103 143 200 251 305 367 447
#     4  12  26  44  69 111 158 191 239 313 390 452
#     4  12  24  45  78 107 144 194 251 311 372 440
#     4  12  27  47  71 111 154 191 247 316 382 451
#
# _framework density 21.045507000000001
#
# number of rings (size 3 to 8) (size 9 to 14) (size 15 to 20)
#    0.000    0.000    6.000    4.800    2.800    0.000 
#    0.000    1.000    0.000    0.000    0.000    0.000 
#    0.000    0.000    0.000    0.000    0.000    0.000 
#
# Total GULP energy -111673.119341 kJ/mol
# GULP energy per Si atom -5583.655967 kJ/mol
# Density = 2.099761 g / cm^3
# Si number density = 21.045507 Si / 1000 Ang^3
#
#
#
# Elastic Constant Matrix: (Units=GPa)
#
#
# Indices 1 2 3 4 5 6 
#
# 1 175.8287 66.6135 39.7112 -0.0018 -17.9626 -0.0008
# 2 66.6135 110.3393 44.1101 -0.0037 -12.5650 -0.0033
# 3 39.7112 44.1101 151.1308 -0.0008 -5.8557 -0.0024
# 4 -0.0018 -0.0037 -0.0008 47.6619 -0.0017 0.2607
# 5 -17.9626 -12.5650 -5.8557 -0.0017 40.4635 -0.0018
# 6 -0.0008 -0.0033 -0.0024 0.2607 -0.0018 40.8099
#
#
#
# Elastic Compliance Matrix: (Units=1/GPa)
#
#
# Indices 1 2 3 4 5 6 
#
# 1 0.007598 -0.004066 -0.000732 0.000000 0.002004 0.000000
# 2 -0.004066 0.012754 -0.002585 0.000001 0.001781 0.000001
# 3 -0.000732 -0.002585 0.007562 0.000000 -0.000033 0.000000
# 4 0.000000 0.000001 0.000000 0.020982 0.000001 -0.000134
# 5 0.002004 0.001781 -0.000033 0.000001 0.026152 0.000001
# 6 0.000000 0.000001 0.000000 -0.000134 0.000001 0.024505
#
#
# Mechanical properties :
#
#
# Convention : Reuss Voigt Hill
#
# Bulk Modulus (GPa) = 76.05764 82.01872 79.03818
# Shear Modulus (GPa) = 42.12251 44.91134 43.51693
#
# Velocity S-wave (km/s) = 4.47866 4.62455 4.55219
# Velocity P-wave (km/s) = 7.93490 8.22021 8.07882
#
# Compressibility (1/GPa) = 0.01314792
#
# Stress axis : x y z
#
# Youngs Moduli (GPa) = 131.61549 78.40689 132.23442
#
# Poissons Ratio (x) = 0.31881 0.09680
# Poissons Ratio (y) = 0.53516 0.34183
# Poissons Ratio (z) = 0.09634 0.20269
#
# Static dielectric constant tensor:
#      x y z
#    x 1.291690 0.000020 0.313410 
#    y 0.000020 1.889170 -0.000010 
#    z 0.313410 -0.000010 1.563100 
# 
# From -- ./inp_files/215654.got.cif
#   From: 2010.05.17/outbox.cif.g08.bks.cpg/sg15_108_cif.got.tgz:215654.got - 2010.06.03 18:47:42.
