data_PCOD9307586
_publ_section_title
;
Structure prediction by ZEFSAII (Michael W. Deem and Ramdas Pophale) SiO2 
 PCOD9307586
Probable space group: C 2/C
;
_chemical_formula_sum "Si O2"
_cell_formula_units_Z 44
_cell_length_a 10.808556
_cell_length_b 23.252152
_cell_length_c 9.104863
_cell_angle_alpha 90.000000
_cell_angle_beta 116.605254
_cell_angle_gamma 90.000000
_cell_volume 2045.958119
_symmetry_space_group_name_H-M "C 2/C"
_symmetry_group_IT_number 15
_symmetry_cell_setting 'monoclinic'
loop_
_space_group_symop_operation_xyz
x,y,z
-x,y,1/2-z
-x,-y,-z
x,-y,1/2+z
1/2+x,1/2+y,z
1/2-x,1/2+y,1/2-z
1/2-x,1/2-y,-z
1/2+x,1/2-y,1/2+z
loop_
_atom_site_type_symbol
_atom_site_label
_atom_site_fract_x
_atom_site_fract_y
_atom_site_fract_z
Si Si1 0.624458 0.375031 0.204089
Si Si2 0.663374 0.218543 0.575573
Si Si3 0.568002 0.332937 0.631962
Si Si4 0.837219 0.450954 0.123305
Si Si5 0.000000 0.664491 0.250000
Si Si6 0.714553 0.927836 0.752570
O O1 0.500000 0.396426 0.250000
O O2 0.747561 0.337592 0.340301
O O3 0.714889 0.418243 0.149615
O O4 0.541062 0.331019 0.057036
O O5 0.750000 0.250000 0.500000
O O6 0.642437 0.270525 0.677637
O O7 0.528956 0.199482 0.413740
O O8 0.500000 0.338810 0.750000
O O9 0.640698 0.395238 0.651212
O O10 0.813904 0.516471 0.163524
O O11 0.000000 0.435479 0.250000
O O12 0.815986 0.441683 0.936235
O O13 0.120568 0.622283 0.267514
#
# Coordination Sequence:
#
# PCOD9307586 Si02
#       6
#     8   8   8   8   4   8
#     4  12  26  47  76 108 148 196 250 304 373 446
#     4  12  24  42  75 104 145 193 242 299 369 447
#     4  12  27  48  69 112 151 190 246 311 374 436
#     4  12  28  48  75 110 148 198 251 309 372 437
#     4  12  24  46  74 110 146 190 250 306 370 438
#     4  12  27  46  76 106 149 194 249 311 365 443
#
# _framework density 21.505818000000001
#
# number of rings (size 3 to 8) (size 9 to 14) (size 15 to 20)
#    0.000    0.000    6.364    2.727    5.091    4.364 
#    0.000    0.000    0.000    0.000    0.000    0.000 
#    0.000    0.000    0.000    0.000    0.000    0.000 
#
# Total GULP energy -122490.405613 kJ/mol
# GULP energy per Si atom -5567.745710 kJ/mol
# Density = 2.145687 g / cm^3
# Si number density = 21.505818 Si / 1000 Ang^3
#
#
#
# Elastic Constant Matrix: (Units=GPa)
#
#
# Indices 1 2 3 4 5 6 
#
# 1 84.4212 15.8451 8.1688 0.0000 -8.6483 0.0000
# 2 15.8451 82.6779 18.5795 0.0000 5.7050 0.0000
# 3 8.1688 18.5795 93.7570 0.0000 3.7372 0.0000
# 4 0.0000 0.0000 0.0000 45.9499 0.0000 -18.3827
# 5 -8.6483 5.7050 3.7372 0.0000 28.8360 0.0000
# 6 0.0000 0.0000 0.0000 -18.3827 0.0000 61.6498
#
#
#
# Elastic Compliance Matrix: (Units=1/GPa)
#
#
# Indices 1 2 3 4 5 6 
#
# 1 0.012867 -0.002598 -0.000785 0.000000 0.004475 0.000000
# 2 -0.002598 0.013323 -0.002289 0.000000 -0.003118 0.000000
# 3 -0.000785 -0.002289 0.011237 0.000000 -0.001239 0.000000
# 4 0.000000 0.000000 0.000000 0.024711 0.000000 0.007368
# 5 0.004475 -0.003118 -0.001239 0.000000 0.036798 0.000000
# 6 0.000000 0.000000 0.000000 0.007368 0.000000 0.018418
#
#
# Mechanical properties :
#
#
# Convention : Reuss Voigt Hill
#
# Bulk Modulus (GPa) = 38.33979 38.44921 38.39450
# Shear Modulus (GPa) = 36.39189 41.83799 39.11494
#
# Velocity S-wave (km/s) = 4.11808 4.41548 4.26937
# Velocity P-wave (km/s) = 6.36222 6.62666 6.49579
#
# Compressibility (1/GPa) = 0.02608257
#
# Stress axis : x y z
#
# Youngs Moduli (GPa) = 77.71572 75.05939 88.98943
#
# Poissons Ratio (x) = 0.19504 0.06982
# Poissons Ratio (y) = 0.20194 0.20373
# Poissons Ratio (z) = 0.06097 0.17184
#
# Static dielectric constant tensor:
#      x y z
#    x 1.731560 0.000000 0.052200 
#    y 0.000000 1.566110 0.000000 
#    z 0.052200 0.000000 1.533340 
# 
# From -- ./inp_files/31033.got.cif
#   From: 2010.05.17/outbox.cif.g08.bks.cpg/sg15_16_cif.got.tgz:31033.got - 2010.06.03 18:47:42.
