data_PCOD9307237
_publ_section_title
;
Structure prediction by ZEFSAII (Michael W. Deem and Ramdas Pophale) SiO2 
 PCOD9307237
Probable space group: C 2/C
;
_chemical_formula_sum "Si O2"
_cell_formula_units_Z 32
_cell_length_a 5.089187
_cell_length_b 22.272122
_cell_length_c 13.734153
_cell_angle_alpha 90.000000
_cell_angle_beta 78.424515
_cell_angle_gamma 90.000000
_cell_volume 1525.063028
_symmetry_space_group_name_H-M "C 2/C"
_symmetry_group_IT_number 15
_symmetry_cell_setting 'monoclinic'
loop_
_space_group_symop_operation_xyz
x,y,z
-x,y,1/2-z
-x,-y,-z
x,-y,1/2+z
1/2+x,1/2+y,z
1/2-x,1/2+y,1/2-z
1/2-x,1/2-y,-z
1/2+x,1/2-y,1/2+z
loop_
_atom_site_type_symbol
_atom_site_label
_atom_site_fract_x
_atom_site_fract_y
_atom_site_fract_z
Si Si1 0.038686 0.243482 0.928828
Si Si2 0.594083 0.066472 0.519532
Si Si3 0.024566 0.109482 0.634805
Si Si4 0.796876 0.636535 0.185058
O O1 0.057905 0.178592 0.877698
O O2 0.095603 0.297489 0.850922
O O3 0.250000 0.250000 0.000000
O O4 0.750000 0.250000 0.000000
O O5 0.825966 0.069872 0.583242
O O6 0.698829 0.098694 0.414355
O O7 0.330001 0.100773 0.577683
O O8 0.500000 0.000000 0.500000
O O9 0.000000 0.094397 0.750000
O O10 0.500000 0.640024 0.250000
O O11 0.000000 0.610160 0.250000
#
# Coordination Sequence:
#
# PCOD9307237 Si02
#       4
#     8   8   8   8
#     4  12  22  43  72 101 144 181 222 290 360 416
#     4  12  27  48  70 101 143 187 239 292 340 410
#     4  12  25  46  74 104 138 184 235 289 355 416
#     4  12  25  43  71 102 139 182 229 284 352 414
#
# _framework density 20.98274
#
# number of rings (size 3 to 8) (size 9 to 14) (size 15 to 20)
#    0.000    0.000    5.000    5.250    0.000    5.000 
#    0.000    0.000    0.000    0.000    0.000    0.000 
#    0.000    0.000    0.000    0.000    0.000    0.000 
#
# Total GULP energy -89659.844234 kJ/mol
# GULP energy per Si atom -5603.740265 kJ/mol
# Density = 2.093498 g / cm^3
# Si number density = 20.982740 Si / 1000 Ang^3
#
#
#
# Elastic Constant Matrix: (Units=GPa)
#
#
# Indices 1 2 3 4 5 6 
#
# 1 164.7556 -6.9421 85.8716 0.0000 -7.2484 0.0000
# 2 -6.9421 71.0582 39.4251 0.0000 -12.6482 0.0000
# 3 85.8716 39.4251 185.7032 0.0000 0.3589 0.0000
# 4 0.0000 0.0000 0.0000 -5.8037 0.0000 3.2763
# 5 -7.2484 -12.6482 0.3589 0.0000 56.6059 0.0000
# 6 0.0000 0.0000 0.0000 3.2763 0.0000 29.1525
#
#
#
# Elastic Compliance Matrix: (Units=1/GPa)
#
#
# Indices 1 2 3 4 5 6 
#
# 1 0.008926 0.004004 -0.004981 0.000000 0.002069 0.000000
# 2 0.004004 0.018511 -0.005791 0.000000 0.004686 0.000000
# 3 -0.004981 -0.005791 0.008922 0.000000 -0.001988 0.000000
# 4 0.000000 0.000000 0.000000 -0.162024 0.000000 0.018209
# 5 0.002069 0.004686 -0.001988 0.000000 0.018991 0.000000
# 6 0.000000 0.000000 0.000000 0.018209 0.000000 0.032256
#
#
# Mechanical properties :
#
#
# Convention : Reuss Voigt Hill
#
# Bulk Modulus (GPa) = 43.81614 73.13625 58.47619
# Shear Modulus (GPa) = -93.85077 36.20177 -28.82450
#
# Velocity S-wave (km/s) = -6.69513 4.15819 -3.71040
# Velocity P-wave (km/s) = 6.23209 7.61480 3.09405
#
# Compressibility (1/GPa) = 0.02282264
#
# Stress axis : x y z
#
# Youngs Moduli (GPa) = 112.03575 54.02204 112.08727
#
# Poissons Ratio (x) = -0.21631 0.55836
# Poissons Ratio (y) = -0.44861 0.64905
# Poissons Ratio (z) = 0.55810 0.31282
#
# Static dielectric constant tensor:
#      x y z
#    x 1.722550 0.000000 0.027660 
#    y 0.000000 1.762630 0.000000 
#    z 0.027660 0.000000 1.729160 
# 
# From -- ./inp_files/72116.got.cif
#   From: 2010.05.17/outbox.cif.g08.bks.cpg/sg15_37_cif.got.tgz:72116.got - 2010.06.03 18:47:42.
