data_PCOD9307720
_publ_section_title
;
Structure prediction by ZEFSAII (Michael W. Deem and Ramdas Pophale) SiO2 
 PCOD9307720
Probable space group: C 2/C
;
_chemical_formula_sum "Si O2"
_cell_formula_units_Z 48
_cell_length_a 24.666120
_cell_length_b 6.731999
_cell_length_c 19.687951
_cell_angle_alpha 90.000000
_cell_angle_beta 146.093895
_cell_angle_gamma 90.000000
_cell_volume 1823.685856
_symmetry_space_group_name_H-M "C 2/C"
_symmetry_group_IT_number 15
_symmetry_cell_setting 'monoclinic'
loop_
_space_group_symop_operation_xyz
x,y,z
-x,y,1/2-z
-x,-y,-z
x,-y,1/2+z
1/2+x,1/2+y,z
1/2-x,1/2+y,1/2-z
1/2-x,1/2-y,-z
1/2+x,1/2-y,1/2+z
loop_
_atom_site_type_symbol
_atom_site_label
_atom_site_fract_x
_atom_site_fract_y
_atom_site_fract_z
Si Si1 0.171633 0.563990 0.325183
Si Si2 0.500000 0.692419 0.250000
Si Si3 0.882792 0.730773 0.838556
Si Si4 0.341883 0.013877 0.043775
Si Si5 0.257714 0.589467 0.691320
Si Si6 0.000000 0.000000 0.500000
Si Si7 0.984550 0.840767 0.135547
O O1 0.144219 0.360585 0.260847
O O2 0.216990 0.541799 0.446993
O O3 0.224642 0.698708 0.324586
O O4 0.072425 0.685582 0.230680
O O5 0.414236 0.837355 0.138015
O O6 0.518190 0.538498 0.208455
O O7 0.816464 0.619962 0.824536
O O8 0.857503 0.973346 0.817190
O O9 0.996266 0.761314 0.966629
O O10 0.399396 0.216503 0.083939
O O11 0.284695 0.964842 0.915546
O O12 0.962722 0.093233 0.536591
#
# Coordination Sequence:
#
# PCOD9307720 Si02
#       7
#     8   4   8   8   8   4   8
#     4  12  25  48  73 104 146 193 241 300 371 441
#     4  12  24  46  74 104 146 190 250 310 362 436
#     4  12  27  48  74 109 146 195 247 302 369 446
#     4  12  26  45  73 108 144 195 243 307 367 443
#     4  12  27  47  71 106 149 191 243 306 370 440
#     4  12  26  46  80 108 142 202 244 304 368 434
#     4  12  25  46  75 107 146 184 254 303 363 446
#
# _framework density 26.320322999999998
#
# number of rings (size 3 to 8) (size 9 to 14) (size 15 to 20)
#    0.000    0.000    8.333    1.500    0.000    5.333 
#    0.000    0.000    0.000    0.000    0.000    0.000 
#    0.000    0.000    0.000    0.000    0.000    0.000 
#
# Total GULP energy -133958.036924 kJ/mol
# GULP energy per Si atom -5581.584872 kJ/mol
# Density = 2.626042 g / cm^3
# Si number density = 26.320323 Si / 1000 Ang^3
#
#
#
# Elastic Constant Matrix: (Units=GPa)
#
#
# Indices 1 2 3 4 5 6 
#
# 1 112.4939 52.2622 44.2701 0.0000 -38.9209 0.0000
# 2 52.2622 148.9649 40.1477 -0.0002 -3.7263 -0.0002
# 3 44.2701 40.1477 74.7428 -0.0001 -18.4195 -0.0001
# 4 0.0000 -0.0002 -0.0001 41.6943 0.0000 -8.5031
# 5 -38.9209 -3.7263 -18.4195 0.0000 40.0723 0.0000
# 6 0.0000 -0.0002 -0.0001 -8.5031 0.0000 41.9351
#
#
#
# Elastic Compliance Matrix: (Units=1/GPa)
#
#
# Indices 1 2 3 4 5 6 
#
# 1 0.018054 -0.004765 -0.004422 0.000000 0.015059 0.000000
# 2 -0.004765 0.009174 -0.003423 0.000000 -0.005349 0.000000
# 3 -0.004422 -0.003423 0.018834 0.000000 0.004043 0.000000
# 4 0.000000 0.000000 0.000000 0.025019 0.000000 0.005073
# 5 0.015059 -0.005349 0.004043 0.000000 0.040943 0.000000
# 6 0.000000 0.000000 0.000000 0.005073 0.000000 0.024875
#
#
# Mechanical properties :
#
#
# Convention : Reuss Voigt Hill
#
# Bulk Modulus (GPa) = 47.98625 67.72908 57.85766
# Shear Modulus (GPa) = 29.57423 38.04177 33.80800
#
# Velocity S-wave (km/s) = 3.35569 3.80588 3.58786
# Velocity P-wave (km/s) = 5.76935 6.71576 6.26047
#
# Compressibility (1/GPa) = 0.02083930
#
# Stress axis : x y z
#
# Youngs Moduli (GPa) = 55.38992 109.00797 53.09592
#
# Poissons Ratio (x) = 0.51946 0.23481
# Poissons Ratio (y) = 0.26395 0.18176
# Poissons Ratio (z) = 0.24496 0.37316
#
# Static dielectric constant tensor:
#      x y z
#    x 1.801870 0.000000 -0.858840 
#    y 0.000000 1.735550 0.000000 
#    z -0.858840 0.000000 -0.231180 
# 
# From -- ./inp_files/258581.got.cif
#   From: 2010.05.17/outbox.cif.g08.bks.cpg/sg15_130_cif.got.tgz:258581.got - 2010.06.03 18:47:42.
