data_PCOD9307189
_publ_section_title
;
Structure prediction by ZEFSAII (Michael W. Deem and Ramdas Pophale) SiO2 
 PCOD9307189
Probable space group: C 2/C
;
_chemical_formula_sum "Si O2"
_cell_formula_units_Z 52
_cell_length_a 11.200531
_cell_length_b 11.521015
_cell_length_c 28.613935
_cell_angle_alpha 90.000000
_cell_angle_beta 39.654631
_cell_angle_gamma 90.000000
_cell_volume 2356.326217
_symmetry_space_group_name_H-M "C 2/C"
_symmetry_group_IT_number 15
_symmetry_cell_setting 'monoclinic'
loop_
_space_group_symop_operation_xyz
x,y,z
-x,y,1/2-z
-x,-y,-z
x,-y,1/2+z
1/2+x,1/2+y,z
1/2-x,1/2+y,1/2-z
1/2-x,1/2-y,-z
1/2+x,1/2-y,1/2+z
loop_
_atom_site_type_symbol
_atom_site_label
_atom_site_fract_x
_atom_site_fract_y
_atom_site_fract_z
Si Si1 0.484697 0.524618 0.193366
Si Si2 0.350246 0.170516 0.099834
Si Si3 0.438159 0.992211 0.141207
Si Si4 0.353188 0.898508 0.330802
Si Si5 0.320241 0.629915 0.153143
Si Si6 0.500000 0.689837 0.750000
Si Si7 0.559695 0.796972 0.032686
O O1 0.647489 0.606473 0.165184
O O2 0.266975 0.514936 0.274859
O O3 0.463850 0.583092 0.148717
O O4 0.547015 0.395585 0.192010
O O5 0.477729 0.112440 0.101479
O O6 0.312779 0.306767 0.115734
O O7 0.416355 0.155873 0.026641
O O8 0.559287 0.936994 0.146423
O O9 0.466401 0.896435 0.092480
O O10 0.500000 0.844951 0.250000
O O11 0.290486 0.017173 0.327121
O O12 0.171041 0.727509 0.214034
O O13 0.424574 0.686094 0.077744
O O14 0.750000 0.750000 0.000000
#
# Coordination Sequence:
#
# PCOD9307189 Si02
#       7
#     8   8   8   8   8   4   8
#     4  12  22  41  74 100 135 188 240 296 353 427
#     4  12  26  44  71 109 142 194 245 288 371 447
#     4  12  23  45  70 103 142 184 245 300 354 433
#     4  12  25  43  70 104 143 187 237 311 362 421
#     4  12  25  44  69 104 145 181 238 299 367 422
#     4  12  24  44  66 108 140 184 236 306 360 418
#     4  12  24  46  73 100 150 193 235 301 364 442
#
# _framework density 22.068252000000001
#
# number of rings (size 3 to 8) (size 9 to 14) (size 15 to 20)
#    0.000    0.000    8.462    1.385    0.000    3.077 
#    0.000    0.769    0.000    0.000    0.000    0.000 
#    0.000    0.000    0.000    0.000    0.000    0.000 
#
# Total GULP energy -144916.554475 kJ/mol
# GULP energy per Si atom -5573.713634 kJ/mol
# Density = 2.201802 g / cm^3
# Si number density = 22.068252 Si / 1000 Ang^3
#
#
#
# Elastic Constant Matrix: (Units=GPa)
#
#
# Indices 1 2 3 4 5 6 
#
# 1 65.0963 35.8994 7.5276 0.0000 26.8283 0.0000
# 2 35.8994 124.6922 22.0767 0.0000 11.6098 0.0000
# 3 7.5276 22.0767 46.1020 0.0000 11.2065 0.0000
# 4 0.0000 0.0000 0.0000 41.7365 0.0000 4.2238
# 5 26.8283 11.6098 11.2065 0.0000 29.5282 0.0000
# 6 0.0000 0.0000 0.0000 4.2238 0.0000 30.5052
#
#
#
# Elastic Compliance Matrix: (Units=1/GPa)
#
#
# Indices 1 2 3 4 5 6 
#
# 1 0.029127 -0.006844 0.004737 0.000000 -0.025570 0.000000
# 2 -0.006844 0.010484 -0.004861 0.000000 0.003941 0.000000
# 3 0.004737 -0.004861 0.026248 0.000000 -0.012354 0.000000
# 4 0.000000 0.000000 0.000000 0.024300 0.000000 -0.003365
# 5 -0.025570 0.003941 -0.012354 0.000000 0.060238 0.000000
# 6 0.000000 0.000000 0.000000 -0.003365 0.000000 0.033247
#
#
# Mechanical properties :
#
#
# Convention : Reuss Voigt Hill
#
# Bulk Modulus (GPa) = 19.25891 40.76643 30.01267
# Shear Modulus (GPa) = 23.26809 31.71310 27.49060
#
# Velocity S-wave (km/s) = 3.25063 3.79495 3.53329
# Velocity P-wave (km/s) = 4.77857 6.14127 5.50227
#
# Compressibility (1/GPa) = 0.05192402
#
# Stress axis : x y z
#
# Youngs Moduli (GPa) = 34.33292 95.38585 38.09763
#
# Poissons Ratio (x) = 0.65278 -0.18047
# Poissons Ratio (y) = 0.23496 0.18518
# Poissons Ratio (z) = -0.16264 0.46365
#
# Static dielectric constant tensor:
#      x y z
#    x 2.042030 0.000000 0.064430 
#    y 0.000000 1.817300 0.000000 
#    z 0.064430 0.000000 1.936060 
# 
# From -- ./inp_files/310764.got.cif
#   From: 2010.05.17/outbox.cif.g08.bks.cpg/sg15_156_cif.got.tgz:310764.got - 2010.06.03 18:47:42.
