data_PCOD9307700
_publ_section_title
;
Structure prediction by ZEFSAII (Michael W. Deem and Ramdas Pophale) SiO2 
 PCOD9307700
Probable space group: C 2/C
;
_chemical_formula_sum "Si O2"
_cell_formula_units_Z 48
_cell_length_a 4.681399
_cell_length_b 16.857935
_cell_length_c 27.010849
_cell_angle_alpha 90.000000
_cell_angle_beta 115.780569
_cell_angle_gamma 90.000000
_cell_volume 1919.489508
_symmetry_space_group_name_H-M "C 2/C"
_symmetry_group_IT_number 15
_symmetry_cell_setting 'monoclinic'
loop_
_space_group_symop_operation_xyz
x,y,z
-x,y,1/2-z
-x,-y,-z
x,-y,1/2+z
1/2+x,1/2+y,z
1/2-x,1/2+y,1/2-z
1/2-x,1/2-y,-z
1/2+x,1/2-y,1/2+z
loop_
_atom_site_type_symbol
_atom_site_label
_atom_site_fract_x
_atom_site_fract_y
_atom_site_fract_z
Si Si1 0.305547 0.573332 0.464079
Si Si2 0.673500 0.813252 0.536336
Si Si3 0.717883 0.143055 0.311084
Si Si4 0.281316 0.595429 0.810916
Si Si5 0.840042 0.270735 0.852640
Si Si6 0.063348 0.500477 0.649387
O O1 0.500000 0.500000 0.500000
O O2 0.551460 0.621148 0.448649
O O3 0.015332 0.540582 0.408378
O O4 0.149013 0.634277 0.491208
O O5 0.750000 0.750000 0.500000
O O6 0.644528 0.769728 0.587184
O O7 0.500000 0.171162 0.250000
O O8 0.594898 0.456268 0.320648
O O9 0.664555 0.199754 0.353462
O O10 0.568743 0.059874 0.317885
O O11 0.292503 0.689972 0.819021
O O12 0.184106 0.570373 0.859094
O O13 0.000000 0.580776 0.750000
O O14 0.577585 0.340392 0.822071
#
# Coordination Sequence:
#
# PCOD9307700 Si02
#       6
#     8   8   8   8   8   8
#     4  12  27  52  79 114 153 206 264 329 403 470
#     4  12  26  51  81 115 150 204 266 329 397 470
#     4  12  24  45  78 106 144 205 256 321 385 465
#     4  12  27  45  74 113 154 207 253 316 390 466
#     4  12  25  49  74 110 157 195 266 322 382 471
#     4  12  25  48  74 108 159 197 259 321 388 470
#
# _framework density 25.006651000000002
#
# number of rings (size 3 to 8) (size 9 to 14) (size 15 to 20)
#    0.000    0.000    3.333    6.500    2.333    1.333 
#    0.000    0.000    0.000    0.000    0.000    0.000 
#    0.000    0.000    0.000    0.000    0.000    0.000 
#
# Total GULP energy -134033.785823 kJ/mol
# GULP energy per Si atom -5584.741076 kJ/mol
# Density = 2.494974 g / cm^3
# Si number density = 25.006651 Si / 1000 Ang^3
#
#
#
# Elastic Constant Matrix: (Units=GPa)
#
#
# Indices 1 2 3 4 5 6 
#
# 1 145.2182 65.4147 22.2007 0.0000 -7.2886 0.0000
# 2 65.4147 145.7960 49.8733 0.0000 4.0802 0.0000
# 3 22.2007 49.8733 98.1975 0.0000 -1.6122 0.0000
# 4 0.0000 0.0000 0.0000 34.2703 0.0000 10.8950
# 5 -7.2886 4.0802 -1.6122 0.0000 33.7465 0.0000
# 6 0.0000 0.0000 0.0000 10.8950 0.0000 37.3877
#
#
#
# Elastic Compliance Matrix: (Units=1/GPa)
#
#
# Indices 1 2 3 4 5 6 
#
# 1 0.008820 -0.004061 0.000108 0.000000 0.002401 0.000000
# 2 -0.004061 0.010221 -0.004311 0.000000 -0.002319 0.000000
# 3 0.000108 -0.004311 0.012367 0.000000 0.001135 0.000000
# 4 0.000000 0.000000 0.000000 0.032159 0.000000 -0.009371
# 5 0.002401 -0.002319 0.001135 0.000000 0.030486 0.000000
# 6 0.000000 0.000000 0.000000 -0.009371 0.000000 0.029478
#
#
# Mechanical properties :
#
#
# Convention : Reuss Voigt Hill
#
# Bulk Modulus (GPa) = 67.20677 73.79879 70.50278
# Shear Modulus (GPa) = 34.47853 37.86244 36.17048
#
# Velocity S-wave (km/s) = 3.71721 3.89536 3.80733
# Velocity P-wave (km/s) = 6.73480 7.05744 6.89801
#
# Compressibility (1/GPa) = 0.01487945
#
# Stress axis : x y z
#
# Youngs Moduli (GPa) = 113.38353 97.84133 80.85936
#
# Poissons Ratio (x) = 0.39737 -0.00875
# Poissons Ratio (y) = 0.46049 0.34857
# Poissons Ratio (z) = -0.01226 0.42178
#
# Static dielectric constant tensor:
#      x y z
#    x 1.947760 0.000000 0.018150 
#    y 0.000000 2.074680 0.000000 
#    z 0.018150 0.000000 1.990250 
# 
# From -- ./inp_files/285551.got.cif
#   From: 2010.05.17/outbox.cif.g08.bks.cpg/sg15_143_cif.got.tgz:285551.got - 2010.06.03 18:47:42.
