data_PCOD9307729
_publ_section_title
;
Structure prediction by ZEFSAII (Michael W. Deem and Ramdas Pophale) SiO2 
 PCOD9307729
Probable space group: C 2/C
;
_chemical_formula_sum "Si O2"
_cell_formula_units_Z 36
_cell_length_a 26.976193
_cell_length_b 6.201978
_cell_length_c 17.934195
_cell_angle_alpha 90.000000
_cell_angle_beta 30.188871
_cell_angle_gamma 90.000000
_cell_volume 1508.804618
_symmetry_space_group_name_H-M "C 2/C"
_symmetry_group_IT_number 15
_symmetry_cell_setting 'monoclinic'
loop_
_space_group_symop_operation_xyz
x,y,z
-x,y,1/2-z
-x,-y,-z
x,-y,1/2+z
1/2+x,1/2+y,z
1/2-x,1/2+y,1/2-z
1/2-x,1/2-y,-z
1/2+x,1/2-y,1/2+z
loop_
_atom_site_type_symbol
_atom_site_label
_atom_site_fract_x
_atom_site_fract_y
_atom_site_fract_z
Si Si1 0.500000 0.112514 0.750000
Si Si2 0.092411 0.650976 0.863467
Si Si3 0.519437 0.533822 0.340999
Si Si4 0.641078 0.204377 0.968868
Si Si5 0.814335 0.293183 0.844191
O O1 0.450784 0.281445 0.756366
O O2 0.425648 0.964065 0.895789
O O3 0.042280 0.854704 0.889968
O O4 0.163233 0.533222 0.712402
O O5 0.143367 0.670414 0.877239
O O6 0.000000 0.500000 0.000000
O O7 0.412790 0.439432 0.456217
O O8 0.584587 0.320027 0.263812
O O9 0.750360 0.193801 0.860221
O O10 0.750000 0.250000 0.000000
#
# Coordination Sequence:
#
# PCOD9307729 Si02
#       5
#     4   8   8   8   8
#     4  12  24  46  76 106 146 196 250 302 380 450
#     4  12  26  48  74 106 147 192 252 309 369 450
#     4  12  25  47  77 102 150 197 242 315 373 441
#     4  12  27  46  74 109 145 196 252 305 378 451
#     4  12  28  48  72 112 152 194 253 310 376 451
#
# _framework density 23.859946999999998
#
# number of rings (size 3 to 8) (size 9 to 14) (size 15 to 20)
#    0.000    0.000    4.444    5.333    3.111    5.333 
#    0.000    0.000    0.000    0.000    0.000    0.000 
#    0.000    0.000    0.000    0.000    0.000    0.000 
#
# Total GULP energy -100553.781129 kJ/mol
# GULP energy per Si atom -5586.321174 kJ/mol
# Density = 2.380564 g / cm^3
# Si number density = 23.859947 Si / 1000 Ang^3
#
#
#
# Elastic Constant Matrix: (Units=GPa)
#
#
# Indices 1 2 3 4 5 6 
#
# 1 171.4176 31.2140 13.2761 0.0202 8.5889 -0.0007
# 2 31.2140 81.0299 21.4689 0.0047 23.7359 0.0078
# 3 13.2761 21.4689 43.0262 -0.0137 16.0732 0.0029
# 4 0.0202 0.0047 -0.0137 35.1139 0.0051 10.8513
# 5 8.5889 23.7359 16.0732 0.0051 50.3070 0.0024
# 6 -0.0007 0.0078 0.0029 10.8513 0.0024 50.1985
#
#
#
# Elastic Compliance Matrix: (Units=1/GPa)
#
#
# Indices 1 2 3 4 5 6 
#
# 1 0.006304 -0.002269 -0.000921 -0.000004 0.000288 0.000001
# 2 -0.002269 0.016262 -0.005329 -0.000002 -0.005583 -0.000002
# 3 -0.000921 -0.005329 0.028600 0.000014 -0.006466 -0.000004
# 4 -0.000004 -0.000002 0.000014 0.030517 -0.000006 -0.006597
# 5 0.000288 -0.005583 -0.006466 -0.000006 0.024529 0.000001
# 6 0.000001 -0.000002 -0.000004 -0.006597 0.000001 0.021347
#
#
# Mechanical properties :
#
#
# Convention : Reuss Voigt Hill
#
# Bulk Modulus (GPa) = 29.29993 47.48796 38.39394
# Shear Modulus (GPa) = 32.05683 42.42486 37.24085
#
# Velocity S-wave (km/s) = 3.66941 4.22130 3.95499
# Velocity P-wave (km/s) = 5.50085 6.61099 6.08131
#
# Compressibility (1/GPa) = 0.03412977
#
# Stress axis : x y z
#
# Youngs Moduli (GPa) = 158.63689 61.49161 34.96461
#
# Poissons Ratio (x) = 0.13951 0.03219
# Poissons Ratio (y) = 0.35992 0.18632
# Poissons Ratio (z) = 0.14606 0.32767
#
# Static dielectric constant tensor:
#      x y z
#    x 1.936670 -0.000010 -0.000690 
#    y -0.000010 1.939970 -0.000020 
#    z -0.000690 -0.000020 1.913430 
# 
# From -- ./inp_files/179936.got.cif
#   From: 2010.05.17/outbox.cif.g08.bks.cpg/sg15_90_cif.got.tgz:179936.got - 2010.06.03 18:47:42.
