data_PCOD9307666
_publ_section_title
;
Structure prediction by ZEFSAII (Michael W. Deem and Ramdas Pophale) SiO2 
 PCOD9307666
Probable space group: C 2/C
;
_chemical_formula_sum "Si O2"
_cell_formula_units_Z 36
_cell_length_a 19.981641
_cell_length_b 8.764256
_cell_length_c 17.435545
_cell_angle_alpha 90.000000
_cell_angle_beta 28.402775
_cell_angle_gamma 90.000000
_cell_volume 1452.394465
_symmetry_space_group_name_H-M "C 2/C"
_symmetry_group_IT_number 15
_symmetry_cell_setting 'monoclinic'
loop_
_space_group_symop_operation_xyz
x,y,z
-x,y,1/2-z
-x,-y,-z
x,-y,1/2+z
1/2+x,1/2+y,z
1/2-x,1/2+y,1/2-z
1/2-x,1/2-y,-z
1/2+x,1/2-y,1/2+z
loop_
_atom_site_type_symbol
_atom_site_label
_atom_site_fract_x
_atom_site_fract_y
_atom_site_fract_z
Si Si1 0.792677 0.841745 0.575472
Si Si2 0.900739 0.864325 0.627358
Si Si3 0.468766 0.948151 0.120250
Si Si4 0.757218 0.508246 0.581115
Si Si5 0.000000 0.992561 0.250000
O O1 0.841177 0.789233 0.610777
O O2 0.731115 0.689451 0.599484
O O3 0.928065 0.901252 0.392902
O O4 0.678241 0.973727 0.705841
O O5 0.967745 0.734132 0.611742
O O6 0.782134 0.944526 0.796100
O O7 0.000000 0.000000 0.500000
O O8 0.500000 0.000000 0.000000
O O9 0.576133 0.988495 0.081155
O O10 0.642854 0.431190 0.640002
#
# Coordination Sequence:
#
# PCOD9307666 Si02
#       5
#     8   8   8   8   4
#     4  12  24  47  76 111 146 189 249 298 370 435
#     4  12  24  44  78 108 146 186 248 310 361 422
#     4  12  25  43  78 115 141 183 248 314 362 423
#     4  12  26  46  73 109 148 192 246 302 363 432
#     4  12  28  46  74 104 154 204 230 298 364 456
#
# _framework density 24.786655
#
# number of rings (size 3 to 8) (size 9 to 14) (size 15 to 20)
#    0.000    0.000    6.667    3.333    3.111    0.889 
#    0.000    4.444    0.000    1.333    0.000    0.000 
#    0.000    0.000    0.000    0.000    0.000    0.000 
#
# Total GULP energy -100521.747540 kJ/mol
# GULP energy per Si atom -5584.541530 kJ/mol
# Density = 2.473024 g / cm^3
# Si number density = 24.786655 Si / 1000 Ang^3
#
#
#
# Elastic Constant Matrix: (Units=GPa)
#
#
# Indices 1 2 3 4 5 6 
#
# 1 151.8715 10.0569 30.4292 0.0000 -27.5080 0.0000
# 2 10.0569 112.6907 20.2252 0.0000 -9.4207 0.0000
# 3 30.4292 20.2252 111.2026 0.0000 -8.7474 0.0000
# 4 0.0000 0.0000 0.0000 17.6767 0.0000 -21.7755
# 5 -27.5080 -9.4207 -8.7474 0.0000 48.5447 0.0000
# 6 0.0000 0.0000 0.0000 -21.7755 0.0000 8.0902
#
#
#
# Elastic Compliance Matrix: (Units=1/GPa)
#
#
# Indices 1 2 3 4 5 6 
#
# 1 0.007671 -0.000029 -0.001777 0.000000 0.004021 0.000000
# 2 -0.000029 0.009282 -0.001562 0.000000 0.001503 0.000000
# 3 -0.001777 -0.001562 0.009799 0.000000 0.000455 0.000000
# 4 0.000000 0.000000 0.000000 -0.024430 0.000000 -0.065754
# 5 0.004021 0.001503 0.000455 0.000000 0.023252 0.000000
# 6 0.000000 0.000000 0.000000 -0.065754 0.000000 -0.053377
#
#
# Mechanical properties :
#
#
# Convention : Reuss Voigt Hill
#
# Bulk Modulus (GPa) = 49.96359 55.24304 52.60332
# Shear Modulus (GPa) = -347.37145 35.86589 -155.75278
#
# Velocity S-wave (km/s) = -11.85111 3.80805 -7.93560
# Velocity P-wave (km/s) = 12.92532 6.45529 7.91811
#
# Compressibility (1/GPa) = 0.02001458
#
# Stress axis : x y z
#
# Youngs Moduli (GPa) = 130.36367 107.72989 102.05266
#
# Poissons Ratio (x) = 0.00317 0.18139
# Poissons Ratio (y) = 0.00384 0.15940
# Poissons Ratio (z) = 0.23171 0.16827
#
# Static dielectric constant tensor:
#      x y z
#    x 2.242900 0.000000 -0.247200 
#    y 0.000000 2.024950 0.000000 
#    z -0.247200 0.000000 2.154670 
# 
# From -- ./inp_files/214190.got.cif
#   From: 2010.05.17/outbox.cif.g08.bks.cpg/sg15_108_cif.got.tgz:214190.got - 2010.06.03 18:47:42.
