data_PCOD9307128
_publ_section_title
;
Structure prediction by ZEFSAII (Michael W. Deem and Ramdas Pophale) SiO2 
 PCOD9307128
Probable space group: C 2/C
;
_chemical_formula_sum "Si O2"
_cell_formula_units_Z 56
_cell_length_a 26.814331
_cell_length_b 13.949449
_cell_length_c 8.318185
_cell_angle_alpha 90.000000
_cell_angle_beta 62.315751
_cell_angle_gamma 90.000000
_cell_volume 2755.190587
_symmetry_space_group_name_H-M "C 2/C"
_symmetry_group_IT_number 15
_symmetry_cell_setting 'monoclinic'
loop_
_space_group_symop_operation_xyz
x,y,z
-x,y,1/2-z
-x,-y,-z
x,-y,1/2+z
1/2+x,1/2+y,z
1/2-x,1/2+y,1/2-z
1/2-x,1/2-y,-z
1/2+x,1/2-y,1/2+z
loop_
_atom_site_type_symbol
_atom_site_label
_atom_site_fract_x
_atom_site_fract_y
_atom_site_fract_z
Si Si1 0.842083 0.966278 0.069881
Si Si2 0.689935 0.236246 0.862167
Si Si3 0.783703 0.453740 0.349966
Si Si4 0.993122 0.110087 0.570364
Si Si5 0.629357 0.701903 0.778266
Si Si6 0.888927 0.861084 0.702962
Si Si7 0.805085 0.643370 0.163007
O O1 0.881644 0.914608 0.881670
O O2 0.782230 0.976923 0.075387
O O3 0.835517 0.892731 0.226992
O O4 0.870276 0.061648 0.094505
O O5 0.701311 0.125724 0.806686
O O6 0.655548 0.277497 0.760474
O O7 0.748638 0.294543 0.785316
O O8 0.652109 0.256844 0.075559
O O9 0.813045 0.554713 0.272615
O O10 0.795509 0.405434 0.504005
O O11 0.934239 0.162733 0.625664
O O12 0.000000 0.106877 0.750000
O O13 0.046627 0.165822 0.418308
O O14 0.000000 0.000000 0.500000
O O15 0.644016 0.782511 0.888392
#
# Coordination Sequence:
#
# PCOD9307128 Si02
#       7
#     8   8   8   8   8   8   8
#     4  12  22  37  63  97 135 175 215 266 323 403
#     4  12  23  40  64  93 133 173 216 271 331 395
#     4  12  24  41  65  98 138 176 217 271 331 403
#     4  12  25  43  64  96 132 177 218 273 331 389
#     4  12  26  40  63  94 132 177 225 269 329 398
#     4  12  23  38  62  93 134 172 216 266 330 388
#     4  12  25  41  64  96 133 176 221 272 338 397
#
# _framework density 20.325272999999999
#
# number of rings (size 3 to 8) (size 9 to 14) (size 15 to 20)
#    0.000    0.000    7.143    4.286    2.000    0.000 
#    0.000    0.000    0.000    0.857    0.000    0.000 
#    0.000    0.000    0.000    0.000    0.000    0.000 
#
# Total GULP energy -156693.692109 kJ/mol
# GULP energy per Si atom -5596.203290 kJ/mol
# Density = 2.027901 g / cm^3
# Si number density = 20.325273 Si / 1000 Ang^3
#
#
#
# Elastic Constant Matrix: (Units=GPa)
#
#
# Indices 1 2 3 4 5 6 
#
# 1 126.1983 56.9153 38.3435 0.0000 -5.2205 0.0000
# 2 56.9153 116.4301 22.5161 0.0000 -11.9210 0.0000
# 3 38.3435 22.5161 82.9620 0.0000 -1.1443 0.0000
# 4 0.0000 0.0000 0.0000 31.0096 0.0000 1.6358
# 5 -5.2205 -11.9210 -1.1443 0.0000 28.2769 0.0000
# 6 0.0000 0.0000 0.0000 1.6358 0.0000 32.7290
#
#
#
# Elastic Compliance Matrix: (Units=1/GPa)
#
#
# Indices 1 2 3 4 5 6 
#
# 1 0.011253 -0.004753 -0.003912 0.000000 -0.000085 0.000000
# 2 -0.004753 0.011482 -0.000865 0.000000 0.003928 0.000000
# 3 -0.003912 -0.000865 0.014089 0.000000 -0.000517 0.000000
# 4 0.000000 0.000000 0.000000 0.032333 0.000000 -0.001616
# 5 -0.000085 0.003928 -0.000517 0.000000 0.036984 0.000000
# 6 0.000000 0.000000 0.000000 -0.001616 0.000000 0.030635
#
#
# Mechanical properties :
#
#
# Convention : Reuss Voigt Hill
#
# Bulk Modulus (GPa) = 56.29506 62.34893 59.32199
# Shear Modulus (GPa) = 30.91047 32.25745 31.58396
#
# Velocity S-wave (km/s) = 3.90396 3.98812 3.94626
# Velocity P-wave (km/s) = 6.93386 7.20756 7.07203
#
# Compressibility (1/GPa) = 0.01776355
#
# Stress axis : x y z
#
# Youngs Moduli (GPa) = 88.86771 87.09492 70.97488
#
# Poissons Ratio (x) = 0.41395 0.27765
# Poissons Ratio (y) = 0.42237 0.06142
# Poissons Ratio (z) = 0.34765 0.07536
#
# Static dielectric constant tensor:
#      x y z
#    x 1.751080 0.000000 0.026160 
#    y 0.000000 1.736720 0.000000 
#    z 0.026160 0.000000 1.799750 
# 
# From -- ./inp_files/69286.got.cif
#   From: 2010.05.17/outbox.cif.g08.bks.cpg/sg15_35_cif.got.tgz:69286.got - 2010.06.03 18:47:42.
