data_PCOD9307814
_publ_section_title
;
Structure prediction by ZEFSAII (Michael W. Deem and Ramdas Pophale) SiO2 
 PCOD9307814
Probable space group: C 2/C
;
_chemical_formula_sum "Si O2"
_cell_formula_units_Z 32
_cell_length_a 10.236477
_cell_length_b 9.563246
_cell_length_c 14.426272
_cell_angle_alpha 90.000000
_cell_angle_beta 95.470908
_cell_angle_gamma 90.000000
_cell_volume 1405.811569
_symmetry_space_group_name_H-M "C 2/C"
_symmetry_group_IT_number 15
_symmetry_cell_setting 'monoclinic'
loop_
_space_group_symop_operation_xyz
x,y,z
-x,y,1/2-z
-x,-y,-z
x,-y,1/2+z
1/2+x,1/2+y,z
1/2-x,1/2+y,1/2-z
1/2-x,1/2-y,-z
1/2+x,1/2-y,1/2+z
loop_
_atom_site_type_symbol
_atom_site_label
_atom_site_fract_x
_atom_site_fract_y
_atom_site_fract_z
Si Si1 0.083890 0.901961 0.657214
Si Si2 0.644730 0.110776 0.222243
Si Si3 0.719159 0.651800 0.586802
Si Si4 0.989706 0.400988 0.408083
O O1 0.037093 0.765369 0.597151
O O2 0.000000 0.920762 0.750000
O O3 0.230948 0.881248 0.703805
O O4 0.108429 0.031464 0.588067
O O5 0.500000 0.135470 0.250000
O O6 0.624968 0.968633 0.161848
O O7 0.671577 0.236280 0.155602
O O8 0.750000 0.750000 0.500000
O O9 0.862890 0.590434 0.622209
O O10 0.000000 0.500000 0.500000
#
# Coordination Sequence:
#
# PCOD9307814 Si02
#       4
#     8   8   8   8
#     4  12  26  48  81 111 152 205 262 317 385 462
#     4  12  24  48  79 107 151 202 255 320 384 452
#     4  12  26  48  72 113 155 196 261 319 387 464
#     4  12  26  49  74 112 160 198 250 326 387 456
#
# _framework density 22.762653
#
# number of rings (size 3 to 8) (size 9 to 14) (size 15 to 20)
#    0.000    0.000    7.500    3.000    0.000    2.000 
#    0.000    0.000    0.000    0.000    0.000    0.000 
#    0.000    0.000    0.000    0.000    0.000    0.000 
#
# Total GULP energy -89125.510849 kJ/mol
# GULP energy per Si atom -5570.344428 kJ/mol
# Density = 2.271084 g / cm^3
# Si number density = 22.762653 Si / 1000 Ang^3
#
#
#
# Elastic Constant Matrix: (Units=GPa)
#
#
# Indices 1 2 3 4 5 6 
#
# 1 130.3437 44.3469 44.3496 0.0000 -11.6406 0.0000
# 2 44.3469 172.0724 71.0278 0.0000 -21.6886 0.0000
# 3 44.3496 71.0278 92.0488 0.0000 -1.0484 0.0000
# 4 0.0000 0.0000 0.0000 -11.4719 0.0000 32.4346
# 5 -11.6406 -21.6886 -1.0484 0.0000 35.4096 0.0000
# 6 0.0000 0.0000 0.0000 32.4346 0.0000 19.7861
#
#
#
# Elastic Compliance Matrix: (Units=1/GPa)
#
#
# Indices 1 2 3 4 5 6 
#
# 1 0.009492 -0.000322 -0.004293 0.000000 0.002796 0.000000
# 2 -0.000322 0.009539 -0.007143 0.000000 0.005526 0.000000
# 3 -0.004293 -0.007143 0.018384 0.000000 -0.005242 0.000000
# 4 0.000000 0.000000 0.000000 -0.015470 0.000000 0.025360
# 5 0.002796 0.005526 -0.005242 0.000000 0.032389 0.000000
# 6 0.000000 0.000000 0.000000 0.025360 0.000000 0.008970
#
#
# Mechanical properties :
#
#
# Convention : Reuss Voigt Hill
#
# Bulk Modulus (GPa) = 71.94274 79.32372 75.63323
# Shear Modulus (GPa) = 54.67265 24.39413 39.53339
#
# Velocity S-wave (km/s) = 4.90619 3.27719 4.17197
# Velocity P-wave (km/s) = 7.98552 7.01740 7.51706
#
# Compressibility (1/GPa) = 0.01389994
#
# Stress axis : x y z
#
# Youngs Moduli (GPa) = 105.35220 104.82913 54.39429
#
# Poissons Ratio (x) = 0.03372 0.23353
# Poissons Ratio (y) = 0.03389 0.38853
# Poissons Ratio (z) = 0.45230 0.74879
#
# Static dielectric constant tensor:
#      x y z
#    x 1.772130 0.000000 0.049900 
#    y 0.000000 2.039460 0.000000 
#    z 0.049900 0.000000 1.939930 
# 
# From -- ./inp_files/140705.got.cif
#   From: 2010.05.17/outbox.cif.g08.bks.cpg/sg15_71_cif.got.tgz:140705.got - 2010.06.03 18:47:42.
