data_PCOD9307130
_publ_section_title
;
Structure prediction by ZEFSAII (Michael W. Deem and Ramdas Pophale) SiO2 
 PCOD9307130
Probable space group: C 2/C
;
_chemical_formula_sum "Si O2"
_cell_formula_units_Z 40
_cell_length_a 5.048788
_cell_length_b 18.111755
_cell_length_c 21.967694
_cell_angle_alpha 90.000000
_cell_angle_beta 107.358416
_cell_angle_gamma 90.000000
_cell_volume 1917.293322
_symmetry_space_group_name_H-M "C 2/C"
_symmetry_group_IT_number 15
_symmetry_cell_setting 'monoclinic'
loop_
_space_group_symop_operation_xyz
x,y,z
-x,y,1/2-z
-x,-y,-z
x,-y,1/2+z
1/2+x,1/2+y,z
1/2-x,1/2+y,1/2-z
1/2-x,1/2-y,-z
1/2+x,1/2-y,1/2+z
loop_
_atom_site_type_symbol
_atom_site_label
_atom_site_fract_x
_atom_site_fract_y
_atom_site_fract_z
Si Si1 0.087563 0.661109 0.610147
Si Si2 0.628081 0.405059 0.594494
Si Si3 0.309860 0.286557 0.794466
Si Si4 0.896615 0.503054 0.422576
Si Si5 0.987178 0.189280 0.531126
O O1 0.142818 0.704429 0.675741
O O2 0.031946 0.573983 0.605079
O O3 0.363462 0.664403 0.587413
O O4 0.815380 0.702461 0.562875
O O5 0.631026 0.343048 0.646414
O O6 0.422219 0.471710 0.597353
O O7 0.527135 0.369898 0.523869
O O8 0.933577 0.434110 0.600864
O O9 0.500000 0.301407 0.750000
O O10 0.000000 0.294887 0.750000
O O11 0.000000 0.500000 0.500000
O O12 0.750000 0.250000 0.500000
#
# Coordination Sequence:
#
# PCOD9307130 Si02
#       5
#     8   8   8   8   8
#     4  12  25  41  69 100 140 172 220 284 345 412
#     4  12  24  42  69 100 141 172 221 279 347 415
#     4  12  28  49  67  92 131 190 244 279 314 392
#     4  12  23  41  67 112 141 167 204 281 369 428
#     4  12  22  37  68 107 134 167 219 285 355 405
#
# _framework density 20.862743999999999
#
# number of rings (size 3 to 8) (size 9 to 14) (size 15 to 20)
#    0.000    0.000    6.000    4.800    2.800    0.000 
#    0.000    6.000    0.000    0.000    0.000    0.000 
#    0.000    0.000    0.000    0.000    0.000    0.000 
#
# Total GULP energy -111750.032014 kJ/mol
# GULP energy per Si atom -5587.501601 kJ/mol
# Density = 2.081526 g / cm^3
# Si number density = 20.862744 Si / 1000 Ang^3
#
#
#
# Elastic Constant Matrix: (Units=GPa)
#
#
# Indices 1 2 3 4 5 6 
#
# 1 137.1354 7.6572 25.5820 0.0000 -4.1978 0.0000
# 2 7.6572 68.7016 5.9513 0.0000 -6.3108 0.0000
# 3 25.5820 5.9513 40.5393 0.0000 -6.7346 0.0000
# 4 0.0000 0.0000 0.0000 20.1285 0.0000 4.6217
# 5 -4.1978 -6.3108 -6.7346 0.0000 38.6772 0.0000
# 6 0.0000 0.0000 0.0000 4.6217 0.0000 27.6707
#
#
#
# Elastic Compliance Matrix: (Units=1/GPa)
#
#
# Indices 1 2 3 4 5 6 
#
# 1 0.008281 -0.000483 -0.005168 0.000000 -0.000080 0.000000
# 2 -0.000483 0.014937 -0.001537 0.000000 0.002117 0.000000
# 3 -0.005168 -0.001537 0.028854 0.000000 0.004213 0.000000
# 4 0.000000 0.000000 0.000000 0.051662 0.000000 -0.008629
# 5 -0.000080 0.002117 0.004213 0.000000 0.026925 0.000000
# 6 0.000000 0.000000 0.000000 -0.008629 0.000000 0.037581
#
#
# Mechanical properties :
#
#
# Convention : Reuss Voigt Hill
#
# Bulk Modulus (GPa) = 26.52684 36.08416 31.30550
# Shear Modulus (GPa) = 25.61748 31.10768 28.36258
#
# Velocity S-wave (km/s) = 3.50795 3.86562 3.69112
# Velocity P-wave (km/s) = 5.39909 6.10390 5.76228
#
# Compressibility (1/GPa) = 0.03769766
#
# Stress axis : x y z
#
# Youngs Moduli (GPa) = 120.76418 66.94750 34.65735
#
# Poissons Ratio (x) = 0.03231 0.17910
# Poissons Ratio (y) = 0.05828 0.05325
# Poissons Ratio (z) = 0.62409 0.10287
#
# Static dielectric constant tensor:
#      x y z
#    x 1.793660 0.000000 0.027660 
#    y 0.000000 1.889300 0.000000 
#    z 0.027660 0.000000 1.728050 
# 
# From -- ./inp_files/260808.got.cif
#   From: 2010.05.17/outbox.cif.g08.bks.cpg/sg15_131_cif.got.tgz:260808.got - 2010.06.03 18:47:42.
