data_PCOD9307384
_publ_section_title
;
Structure prediction by ZEFSAII (Michael W. Deem and Ramdas Pophale) SiO2 
 PCOD9307384
Probable space group: C 2/C
;
_chemical_formula_sum "Si O2"
_cell_formula_units_Z 56
_cell_length_a 19.720622
_cell_length_b 14.285909
_cell_length_c 9.385543
_cell_angle_alpha 90.000000
_cell_angle_beta 92.569505
_cell_angle_gamma 90.000000
_cell_volume 2641.502466
_symmetry_space_group_name_H-M "C 2/C"
_symmetry_group_IT_number 15
_symmetry_cell_setting 'monoclinic'
loop_
_space_group_symop_operation_xyz
x,y,z
-x,y,1/2-z
-x,-y,-z
x,-y,1/2+z
1/2+x,1/2+y,z
1/2-x,1/2+y,1/2-z
1/2-x,1/2-y,-z
1/2+x,1/2-y,1/2+z
loop_
_atom_site_type_symbol
_atom_site_label
_atom_site_fract_x
_atom_site_fract_y
_atom_site_fract_z
Si Si1 0.851295 0.584697 0.276044
Si Si2 0.421911 0.687984 0.471328
Si Si3 0.000000 0.288032 0.250000
Si Si4 0.933838 0.449726 0.065873
Si Si5 0.809276 0.678281 0.023045
Si Si6 0.777032 0.996918 0.098970
Si Si7 0.000000 0.121408 0.750000
Si Si8 0.374325 0.483097 0.365912
O O1 0.891721 0.520679 0.163723
O O2 0.892028 0.584705 0.425509
O O3 0.837628 0.677331 0.185917
O O4 0.775935 0.553435 0.310867
O O5 0.481229 0.716971 0.372768
O O6 0.372093 0.777491 0.445407
O O7 0.453038 0.676487 0.632159
O O8 0.386680 0.592109 0.412920
O O9 0.049495 0.362209 0.332314
O O10 0.000000 0.500000 0.000000
O O11 0.750000 0.750000 0.000000
O O12 0.773142 0.581700 0.973342
O O13 0.834115 0.965101 0.215780
O O14 0.821156 0.049825 0.982855
O O15 0.051826 0.061632 0.655024
#
# Coordination Sequence:
#
# PCOD9307384 Si02
#       8
#     8   8   4   8   8   8   4   8
#     4  12  23  42  72 101 139 186 239 284 348 431
#     4  12  27  45  69 104 145 177 228 301 358 404
#     4  12  27  42  65 106 142 176 230 296 347 400
#     4  12  23  44  69 102 141 192 235 282 344 433
#     4  12  23  44  66 101 139 178 225 289 355 401
#     4  12  23  43  73 100 133 188 233 289 345 430
#     4  12  27  48  73 102 136 196 234 290 355 438
#     4  12  24  47  72 101 135 187 247 282 351 428
#
# _framework density 21.200057000000001
#
# number of rings (size 3 to 8) (size 9 to 14) (size 15 to 20)
#    0.000    0.000    7.143    2.571    4.000    0.000 
#    0.000    0.000    0.000    5.143    0.000    0.000 
#    0.000    0.000    0.000    0.000    0.000    0.000 
#
# Total GULP energy -156015.630867 kJ/mol
# GULP energy per Si atom -5571.986817 kJ/mol
# Density = 2.115180 g / cm^3
# Si number density = 21.200057 Si / 1000 Ang^3
#
#
#
# Elastic Constant Matrix: (Units=GPa)
#
#
# Indices 1 2 3 4 5 6 
#
# 1 93.5869 28.6888 35.4664 0.0000 -3.1342 0.0000
# 2 28.6888 38.0658 33.3202 0.0000 -1.4321 0.0000
# 3 35.4664 33.3202 138.9722 0.0000 6.6645 0.0000
# 4 0.0000 0.0000 0.0000 15.6253 0.0000 -12.6347
# 5 -3.1342 -1.4321 6.6645 0.0000 58.2477 0.0000
# 6 0.0000 0.0000 0.0000 -12.6347 0.0000 20.6702
#
#
#
# Elastic Compliance Matrix: (Units=1/GPa)
#
#
# Indices 1 2 3 4 5 6 
#
# 1 0.014114 -0.009403 -0.001380 0.000000 0.000686 0.000000
# 2 -0.009403 0.039689 -0.007178 0.000000 0.001291 0.000000
# 3 -0.001380 -0.007178 0.009332 0.000000 -0.001319 0.000000
# 4 0.000000 0.000000 0.000000 0.126545 0.000000 0.077351
# 5 0.000686 0.001291 -0.001319 0.000000 0.017388 0.000000
# 6 0.000000 0.000000 0.000000 0.077351 0.000000 0.095659
#
#
# Mechanical properties :
#
#
# Convention : Reuss Voigt Hill
#
# Bulk Modulus (GPa) = 36.74857 51.73065 44.23961
# Shear Modulus (GPa) = 14.37939 30.45195 22.41567
#
# Velocity S-wave (km/s) = 2.60719 3.79411 3.25520
# Velocity P-wave (km/s) = 5.14150 6.60665 5.91958
#
# Compressibility (1/GPa) = 0.02721195
#
# Stress axis : x y z
#
# Youngs Moduli (GPa) = 70.85266 25.19610 107.15578
#
# Poissons Ratio (x) = 0.23692 0.14791
# Poissons Ratio (y) = 0.66623 0.76917
# Poissons Ratio (z) = 0.09780 0.18086
#
# Static dielectric constant tensor:
#      x y z
#    x 1.829280 0.000000 0.019190 
#    y 0.000000 0.672670 0.000000 
#    z 0.019190 0.000000 1.807150 
# 
# From -- ./inp_files/55668.got.cif
#   From: 2010.05.17/outbox.cif.g08.bks.cpg/sg15_28_cif.got.tgz:55668.got - 2010.06.03 18:47:42.
