data_PCOD9307262
_publ_section_title
;
Structure prediction by ZEFSAII (Michael W. Deem and Ramdas Pophale) SiO2 
 PCOD9307262
Probable space group: C 2/C
;
_chemical_formula_sum "Si O2"
_cell_formula_units_Z 36
_cell_length_a 26.093825
_cell_length_b 6.348429
_cell_length_c 14.366977
_cell_angle_alpha 90.000000
_cell_angle_beta 139.199516
_cell_angle_gamma 90.000000
_cell_volume 1555.129227
_symmetry_space_group_name_H-M "C 2/C"
_symmetry_group_IT_number 15
_symmetry_cell_setting 'monoclinic'
loop_
_space_group_symop_operation_xyz
x,y,z
-x,y,1/2-z
-x,-y,-z
x,-y,1/2+z
1/2+x,1/2+y,z
1/2-x,1/2+y,1/2-z
1/2-x,1/2-y,-z
1/2+x,1/2-y,1/2+z
loop_
_atom_site_type_symbol
_atom_site_label
_atom_site_fract_x
_atom_site_fract_y
_atom_site_fract_z
Si Si1 0.313546 0.066128 0.931443
Si Si2 0.429099 0.394010 0.027606
Si Si3 0.351426 0.746295 0.824892
Si Si4 0.569892 0.056541 0.232142
Si Si5 0.000000 0.196276 0.250000
O O1 0.224049 0.131691 0.823134
O O2 0.325533 0.856328 0.886162
O O3 0.353022 0.250668 0.925376
O O4 0.365850 0.067918 0.096960
O O5 0.504115 0.240738 0.137599
O O6 0.432252 0.540749 0.123798
O O7 0.416217 0.564767 0.929588
O O8 0.386044 0.923922 0.804593
O O9 0.523772 0.845021 0.196933
#
# Coordination Sequence:
#
# PCOD9307262 Si02
#       5
#     8   8   8   8   4
#     4  12  24  48  68 105 145 183 235 296 347 420
#     4  12  23  46  71  99 144 184 229 295 346 417
#     4  12  27  44  74 104 143 188 235 288 357 422
#     4  12  25  46  73 106 139 188 238 286 357 419
#     4  12  22  44  72 100 138 178 242 292 336 414
#
# _framework density 23.149201999999999
#
# number of rings (size 3 to 8) (size 9 to 14) (size 15 to 20)
#    0.000    0.000    8.889    1.333    0.000    5.333 
#    0.000    2.222    0.000    0.000    0.000    0.000 
#    0.000    0.000    0.000    0.000    0.000    0.000 
#
# Total GULP energy -100553.496928 kJ/mol
# GULP energy per Si atom -5586.305385 kJ/mol
# Density = 2.309651 g / cm^3
# Si number density = 23.149202 Si / 1000 Ang^3
#
#
#
# Elastic Constant Matrix: (Units=GPa)
#
#
# Indices 1 2 3 4 5 6 
#
# 1 59.1038 10.1859 29.8188 0.0000 7.6873 0.0000
# 2 10.1859 84.9866 41.3000 0.0000 17.4846 0.0000
# 3 29.8188 41.3000 121.1521 0.0000 25.7013 0.0000
# 4 0.0000 0.0000 0.0000 -5.9875 0.0000 44.7656
# 5 7.6873 17.4846 25.7013 0.0000 25.8372 0.0000
# 6 0.0000 0.0000 0.0000 44.7656 0.0000 -36.6743
#
#
#
# Elastic Compliance Matrix: (Units=1/GPa)
#
#
# Indices 1 2 3 4 5 6 
#
# 1 0.019354 0.000162 -0.004530 0.000000 -0.001362 0.000000
# 2 0.000162 0.014888 -0.003761 0.000000 -0.006382 0.000000
# 3 -0.004530 -0.003761 0.012453 0.000000 -0.008495 0.000000
# 4 0.000000 0.000000 0.000000 0.020553 0.000000 0.025088
# 5 -0.001362 -0.006382 -0.008495 0.000000 0.051878 0.000000
# 6 0.000000 0.000000 0.000000 0.025088 0.000000 0.003356
#
#
# Mechanical properties :
#
#
# Convention : Reuss Voigt Hill
#
# Bulk Modulus (GPa) = 32.85497 47.53910 40.19703
# Shear Modulus (GPa) = 33.58291 8.89761 21.24026
#
# Velocity S-wave (km/s) = 3.81296 1.96263 3.03237
# Velocity P-wave (km/s) = 5.79727 5.07114 5.44632
#
# Compressibility (1/GPa) = 0.03043680
#
# Stress axis : x y z
#
# Youngs Moduli (GPa) = 51.66895 67.16869 80.30047
#
# Poissons Ratio (x) = -0.01087 0.36375
# Poissons Ratio (y) = -0.00836 0.30203
# Poissons Ratio (z) = 0.23405 0.25263
#
# Static dielectric constant tensor:
#      x y z
#    x 1.870800 0.000000 -0.013510 
#    y 0.000000 1.858840 0.000000 
#    z -0.013510 0.000000 1.885620 
# 
# From -- ./inp_files/179932.got.cif
#   From: 2010.05.17/outbox.cif.g08.bks.cpg/sg15_90_cif.got.tgz:179932.got - 2010.06.03 18:47:42.
