data_PCOD9307115
_publ_section_title
;
Structure prediction by ZEFSAII (Michael W. Deem and Ramdas Pophale) SiO2 
 PCOD9307115
Probable space group: C 2/C
;
_chemical_formula_sum "Si O2"
_cell_formula_units_Z 48
_cell_length_a 12.344794
_cell_length_b 27.834394
_cell_length_c 5.641465
_cell_angle_alpha 90.000000
_cell_angle_beta 101.762963
_cell_angle_gamma 90.000000
_cell_volume 1897.754063
_symmetry_space_group_name_H-M "C 2/C"
_symmetry_group_IT_number 15
_symmetry_cell_setting 'monoclinic'
loop_
_space_group_symop_operation_xyz
x,y,z
-x,y,1/2-z
-x,-y,-z
x,-y,1/2+z
1/2+x,1/2+y,z
1/2-x,1/2+y,1/2-z
1/2-x,1/2-y,-z
1/2+x,1/2-y,1/2+z
loop_
_atom_site_type_symbol
_atom_site_label
_atom_site_fract_x
_atom_site_fract_y
_atom_site_fract_z
Si Si1 0.127429 0.775942 0.445388
Si Si2 0.081706 0.457517 0.598860
Si Si3 0.337238 0.866985 0.030129
Si Si4 0.284999 0.376160 0.033981
Si Si5 0.383996 0.238497 0.557393
Si Si6 0.816208 0.014105 0.709253
O O1 0.250000 0.750000 0.500000
O O2 0.129689 0.833393 0.480882
O O3 0.081690 0.751509 0.661502
O O4 0.085578 0.767591 0.162672
O O5 0.106374 0.418411 0.411183
O O6 0.197623 0.485868 0.702169
O O7 0.000000 0.430404 0.750000
O O8 0.000000 0.500000 0.500000
O O9 0.278101 0.877519 0.748329
O O10 0.274982 0.857965 0.251157
O O11 0.401555 0.817955 0.015482
O O12 0.314528 0.430392 0.123518
O O13 0.250000 0.250000 0.500000
O O14 0.866329 0.987859 0.498209
#
# Coordination Sequence:
#
# PCOD9307115 Si02
#       6
#     8   8   8   8   8   8
#     4  12  23  43  70  88 125 166 217 267 329 384
#     4  12  22  35  53  77 123 174 212 243 305 352
#     4  12  23  39  59  85 122 171 216 264 293 363
#     4  12  22  39  63  87 113 163 221 250 314 360
#     4  12  26  43  63  98 129 163 214 277 323 379
#     4  12  22  38  54  80 119 160 204 267 293 357
#
# _framework density 25.293057999999998
#
# number of rings (size 3 to 8) (size 9 to 14) (size 15 to 20)
#    0.000    0.000    8.333    2.000    0.000    4.667 
#    0.000    0.000    0.000    0.000    0.000    0.000 
#    0.000   13.333    0.000    0.000    0.000    0.000 
#
# Total GULP energy -133745.421140 kJ/mol
# GULP energy per Si atom -5572.725881 kJ/mol
# Density = 2.523549 g / cm^3
# Si number density = 25.293058 Si / 1000 Ang^3
#
#
#
# Elastic Constant Matrix: (Units=GPa)
#
#
# Indices 1 2 3 4 5 6 
#
# 1 21.2314 -2.2146 20.5594 0.0000 -20.7472 0.0000
# 2 -2.2146 201.1699 27.0138 0.0000 -5.9091 0.0000
# 3 20.5594 27.0138 216.9691 0.0000 -7.3286 0.0000
# 4 0.0000 0.0000 0.0000 53.4602 0.0000 -12.1179
# 5 -20.7472 -5.9091 -7.3286 0.0000 51.3294 0.0000
# 6 0.0000 0.0000 0.0000 -12.1179 0.0000 19.5450
#
#
#
# Elastic Compliance Matrix: (Units=1/GPa)
#
#
# Indices 1 2 3 4 5 6 
#
# 1 0.089434 0.003053 -0.007659 0.000000 0.035407 0.000000
# 2 0.003053 0.005172 -0.000876 0.000000 0.001704 0.000000
# 3 -0.007659 -0.000876 0.005362 0.000000 -0.002431 0.000000
# 4 0.000000 0.000000 0.000000 0.021764 0.000000 0.013494
# 5 0.035407 0.001704 -0.002431 0.000000 0.033643 0.000000
# 6 0.000000 0.000000 0.000000 0.013494 0.000000 0.059530
#
#
# Mechanical properties :
#
#
# Convention : Reuss Voigt Hill
#
# Bulk Modulus (GPa) = 11.23529 58.89863 35.06696
# Shear Modulus (GPa) = 19.56669 51.13436 35.35052
#
# Velocity S-wave (km/s) = 2.78438 4.50118 3.74255
# Velocity P-wave (km/s) = 3.84561 7.09586 5.70701
#
# Compressibility (1/GPa) = 0.08900531
#
# Stress axis : x y z
#
# Youngs Moduli (GPa) = 11.18139 193.34177 186.51185
#
# Poissons Ratio (x) = -0.59028 1.42844
# Poissons Ratio (y) = -0.03414 0.16333
# Poissons Ratio (z) = 0.08564 0.16931
#
# Static dielectric constant tensor:
#      x y z
#    x 2.775430 0.000000 -0.527890 
#    y 0.000000 1.858570 0.000000 
#    z -0.527890 0.000000 2.365160 
# 
# From -- ./inp_files/11123.got.cif
#   From: 2010.05.17/outbox.cif.g08.bks.cpg/sg15_6_cif.got.tgz:11123.got - 2010.06.03 18:47:42.
