data_PCOD9307072
_publ_section_title
;
Structure prediction by ZEFSAII (Michael W. Deem and Ramdas Pophale) SiO2 
 PCOD9307072
Probable space group: C 2/C
;
_chemical_formula_sum "Si O2"
_cell_formula_units_Z 48
_cell_length_a 8.811051
_cell_length_b 16.391139
_cell_length_c 32.542716
_cell_angle_alpha 90.000000
_cell_angle_beta 30.110642
_cell_angle_gamma 90.000000
_cell_volume 2357.816510
_symmetry_space_group_name_H-M "C 2/C"
_symmetry_group_IT_number 15
_symmetry_cell_setting 'monoclinic'
loop_
_space_group_symop_operation_xyz
x,y,z
-x,y,1/2-z
-x,-y,-z
x,-y,1/2+z
1/2+x,1/2+y,z
1/2-x,1/2+y,1/2-z
1/2-x,1/2-y,-z
1/2+x,1/2-y,1/2+z
loop_
_atom_site_type_symbol
_atom_site_label
_atom_site_fract_x
_atom_site_fract_y
_atom_site_fract_z
Si Si1 0.677046 0.188057 0.554356
Si Si2 0.716339 0.737431 0.792418
Si Si3 0.875720 0.909121 0.325473
Si Si4 0.706743 0.823809 0.542032
Si Si5 0.840430 0.178363 0.182230
Si Si6 0.169741 0.550708 0.424772
O O1 0.750000 0.250000 0.500000
O O2 0.482992 0.110046 0.587517
O O3 0.437119 0.237455 0.638339
O O4 0.971354 0.163156 0.511125
O O5 0.538578 0.665484 0.810902
O O6 0.508940 0.787510 0.872225
O O7 0.840716 0.801867 0.730236
O O8 0.000000 0.700730 0.750000
O O9 0.000000 0.915946 0.250000
O O10 0.892630 0.993164 0.346133
O O11 0.750000 0.750000 0.500000
O O12 0.559470 0.899107 0.551476
O O13 0.500000 0.154862 0.250000
O O14 0.103388 0.116603 0.108558
O O15 0.000000 0.500000 0.500000
#
# Coordination Sequence:
#
# PCOD9307072 Si02
#       6
#     8   8   8   8   8   8
#     4  12  21  43  73 102 133 182 238 282 343 425
#     4  12  22  42  74 101 130 185 243 283 339 429
#     4  12  26  45  67 104 147 176 226 303 358 403
#     4  12  24  42  75 102 131 186 239 283 344 430
#     4  12  23  45  72 102 134 190 235 277 345 428
#     4  12  28  47  69 106 149 180 234 308 360 407
#
# _framework density 20.357818000000002
#
# number of rings (size 3 to 8) (size 9 to 14) (size 15 to 20)
#    0.000    0.000    8.333    2.000    2.333    1.333 
#    3.000    0.000    0.000    0.000    0.000    0.000 
#    0.000    0.000    0.000    0.000    0.000    0.000 
#
# Total GULP energy -134116.160314 kJ/mol
# GULP energy per Si atom -5588.173346 kJ/mol
# Density = 2.031148 g / cm^3
# Si number density = 20.357818 Si / 1000 Ang^3
#
#
#
# Elastic Constant Matrix: (Units=GPa)
#
#
# Indices 1 2 3 4 5 6 
#
# 1 122.4792 22.6387 39.2362 -0.0549 -22.4373 -0.0178
# 2 22.6387 73.2427 15.6408 -0.0035 5.9898 -0.0229
# 3 39.2362 15.6408 88.9371 -0.0555 19.8395 -0.0032
# 4 -0.0549 -0.0035 -0.0555 41.7069 0.0354 1.1171
# 5 -22.4373 5.9898 19.8395 0.0354 56.7788 -0.0047
# 6 -0.0178 -0.0229 -0.0032 1.1171 -0.0047 33.6425
#
#
#
# Elastic Compliance Matrix: (Units=1/GPa)
#
#
# Indices 1 2 3 4 5 6 
#
# 1 0.012140 -0.002972 -0.006478 0.000001 0.007375 0.000005
# 2 -0.002972 0.014938 -0.000762 -0.000002 -0.002484 0.000008
# 3 -0.006478 -0.000762 0.016039 0.000020 -0.008084 -0.000004
# 4 0.000001 -0.000002 0.000020 0.023998 -0.000021 -0.000797
# 5 0.007375 -0.002484 -0.008084 -0.000021 0.023613 0.000005
# 6 0.000005 0.000008 -0.000004 -0.000797 0.000005 0.029751
#
#
# Mechanical properties :
#
#
# Convention : Reuss Voigt Hill
#
# Bulk Modulus (GPa) = 44.06632 48.85451 46.46041
# Shear Modulus (GPa) = 33.67726 40.23519 36.95622
#
# Velocity S-wave (km/s) = 4.07168 4.45049 4.26529
# Velocity P-wave (km/s) = 6.61798 7.10346 6.86502
#
# Compressibility (1/GPa) = 0.02269307
#
# Stress axis : x y z
#
# Youngs Moduli (GPa) = 82.37001 66.94466 62.34708
#
# Poissons Ratio (x) = 0.19897 0.40391
# Poissons Ratio (y) = 0.24482 0.04749
# Poissons Ratio (z) = 0.53362 0.05099
#
# Static dielectric constant tensor:
#      x y z
#    x 1.772370 0.000080 0.056210 
#    y 0.000080 1.684010 0.000250 
#    z 0.056210 0.000250 1.982190 
# 
# From -- ./inp_files/308711.got.cif
#   From: 2010.05.17/outbox.cif.g08.bks.cpg/sg15_155_cif.got.tgz:308711.got - 2010.06.03 18:47:42.
