data_PCOD9307326
_publ_section_title
;
Structure prediction by ZEFSAII (Michael W. Deem and Ramdas Pophale) SiO2 
 PCOD9307326
Probable space group: C 2/C
;
_chemical_formula_sum "Si O2"
_cell_formula_units_Z 40
_cell_length_a 8.265161
_cell_length_b 22.219842
_cell_length_c 8.824348
_cell_angle_alpha 90.000000
_cell_angle_beta 104.686288
_cell_angle_gamma 90.000000
_cell_volume 1567.649159
_symmetry_space_group_name_H-M "C 2/C"
_symmetry_group_IT_number 15
_symmetry_cell_setting 'monoclinic'
loop_
_space_group_symop_operation_xyz
x,y,z
-x,y,1/2-z
-x,-y,-z
x,-y,1/2+z
1/2+x,1/2+y,z
1/2-x,1/2+y,1/2-z
1/2-x,1/2-y,-z
1/2+x,1/2-y,1/2+z
loop_
_atom_site_type_symbol
_atom_site_label
_atom_site_fract_x
_atom_site_fract_y
_atom_site_fract_z
Si Si1 0.645165 0.604126 0.161751
Si Si2 0.777124 0.870880 0.125520
Si Si3 0.404731 0.113000 0.456621
Si Si4 0.802339 0.475004 0.161613
Si Si5 0.327986 0.217325 0.661651
O O1 0.500000 0.606632 0.250000
O O2 0.696676 0.535260 0.141453
O O3 0.802683 0.634186 0.287483
O O4 0.597572 0.631489 0.986739
O O5 0.603455 0.886124 0.994639
O O6 0.782201 0.926243 0.245086
O O7 0.768858 0.807546 0.213819
O O8 0.250000 0.250000 0.500000
O O9 0.321258 0.051245 0.495682
O O10 0.382083 0.155172 0.595778
O O11 0.000000 0.485089 0.250000
O O12 0.500000 0.249616 0.750000
#
# Coordination Sequence:
#
# PCOD9307326 Si02
#       5
#     8   8   8   8   8
#     4  12  23  32  51  87 129 170 209 253 307 367
#     4   9  19  37  59  86 119 162 213 256 305 374
#     4   9  19  36  58  85 119 161 207 256 306 371
#     4   9  18  34  56  81 116 167 218 256 297 363
#     4   9  19  39  69  97 120 150 199 268 330 382
#
# _framework density 25.515913999999999
#
# number of rings (size 3 to 8) (size 9 to 14) (size 15 to 20)
#    0.000    2.400    0.000    5.400    0.000    7.200 
#    0.000    4.000    0.000    4.800    0.000    4.200 
#    0.000    0.000    0.000    0.000    0.000    0.000 
#
# Total GULP energy -111747.261211 kJ/mol
# GULP energy per Si atom -5587.363061 kJ/mol
# Density = 2.545784 g / cm^3
# Si number density = 25.515914 Si / 1000 Ang^3
#
#
#
# Elastic Constant Matrix: (Units=GPa)
#
#
# Indices 1 2 3 4 5 6 
#
# 1 78.8317 24.9885 60.3889 0.0000 6.6720 0.0000
# 2 24.9885 53.3033 43.3840 0.0000 -2.6978 0.0000
# 3 60.3889 43.3840 194.9276 0.0000 -17.5781 0.0000
# 4 0.0000 0.0000 0.0000 35.7512 0.0000 13.3355
# 5 6.6720 -2.6978 -17.5781 0.0000 54.7661 0.0000
# 6 0.0000 0.0000 0.0000 13.3355 0.0000 0.7108
#
#
#
# Elastic Compliance Matrix: (Units=1/GPa)
#
#
# Indices 1 2 3 4 5 6 
#
# 1 0.018366 -0.004746 -0.005001 0.000000 -0.004076 0.000000
# 2 -0.004746 0.024152 -0.003857 0.000000 0.000530 0.000000
# 3 -0.005001 -0.003857 0.007802 0.000000 0.002923 0.000000
# 4 0.000000 0.000000 0.000000 -0.004664 0.000000 0.087491
# 5 -0.004076 0.000530 0.002923 0.000000 0.019720 0.000000
# 6 0.000000 0.000000 0.000000 0.087491 0.000000 -0.234555
#
#
# Mechanical properties :
#
#
# Convention : Reuss Voigt Hill
#
# Bulk Modulus (GPa) = 43.26996 64.95392 54.11194
# Shear Modulus (GPa) = -37.23896 31.46572 -2.88662
#
# Velocity S-wave (km/s) = -3.82441 3.51548 -1.06478
# Velocity P-wave (km/s) = 1.58323 6.47994 4.44314
#
# Compressibility (1/GPa) = 0.02311072
#
# Stress axis : x y z
#
# Youngs Moduli (GPa) = 54.44954 41.40510 128.17931
#
# Poissons Ratio (x) = 0.19649 0.64104
# Poissons Ratio (y) = 0.25840 0.49443
# Poissons Ratio (z) = 0.27231 0.15971
#
# Static dielectric constant tensor:
#      x y z
#    x 2.282970 0.000000 -0.023080 
#    y 0.000000 2.096140 0.000000 
#    z -0.023080 0.000000 2.011630 
# 
# From -- ./inp_files/76653.got.cif
#   From: 2010.05.17/outbox.cif.g08.bks.cpg/sg15_39_cif.got.tgz:76653.got - 2010.06.03 18:47:42.
