data_PCOD9307642
_publ_section_title
;
Structure prediction by ZEFSAII (Michael W. Deem and Ramdas Pophale) SiO2 
 PCOD9307642
Probable space group: C 2/C
;
_chemical_formula_sum "Si O2"
_cell_formula_units_Z 36
_cell_length_a 12.895109
_cell_length_b 23.776243
_cell_length_c 5.358509
_cell_angle_alpha 90.000000
_cell_angle_beta 74.142260
_cell_angle_gamma 90.000000
_cell_volume 1580.380283
_symmetry_space_group_name_H-M "C 2/C"
_symmetry_group_IT_number 15
_symmetry_cell_setting 'monoclinic'
loop_
_space_group_symop_operation_xyz
x,y,z
-x,y,1/2-z
-x,-y,-z
x,-y,1/2+z
1/2+x,1/2+y,z
1/2-x,1/2+y,1/2-z
1/2-x,1/2-y,-z
1/2+x,1/2-y,1/2+z
loop_
_atom_site_type_symbol
_atom_site_label
_atom_site_fract_x
_atom_site_fract_y
_atom_site_fract_z
Si Si1 0.325263 0.744787 0.701596
Si Si2 0.436418 0.861679 0.550353
Si Si3 0.073156 0.945292 0.896986
Si Si4 0.500000 0.348550 0.250000
Si Si5 0.309828 0.969512 0.595706
O O1 0.250000 0.750000 0.500000
O O2 0.395759 0.800698 0.645697
O O3 0.413981 0.693747 0.666667
O O4 0.250000 0.750000 0.000000
O O5 0.500000 0.883686 0.750000
O O6 0.340893 0.905011 0.570579
O O7 0.500000 0.859706 0.250000
O O8 0.181166 0.968997 0.707770
O O9 0.000000 0.911389 0.750000
O O10 0.085746 0.896620 0.092079
O O11 0.000000 0.000000 0.000000
O O12 0.349062 0.999347 0.319201
#
# Coordination Sequence:
#
# PCOD9307642 Si02
#       5
#     8   8   8   4   8
#     4  12  29  50  77 109 148 202 262 314 377 453
#     4  12  27  50  75 106 155 195 256 320 369 448
#     4  12  24  44  72 111 154 192 242 317 388 467
#     4  12  28  46  78 108 152 204 250 314 398 456
#     4  12  26  45  75 109 146 197 250 306 386 456
#
# _framework density 22.779329000000001
#
# number of rings (size 3 to 8) (size 9 to 14) (size 15 to 20)
#    0.000    0.000    4.444    4.000    6.222    2.667 
#    0.000    0.000    0.000    0.000    0.000    0.000 
#    0.000    0.000    0.000    0.000    0.000    0.000 
#
# Total GULP energy -100341.589992 kJ/mol
# GULP energy per Si atom -5574.532777 kJ/mol
# Density = 2.272748 g / cm^3
# Si number density = 22.779329 Si / 1000 Ang^3
#
#
#
# Elastic Constant Matrix: (Units=GPa)
#
#
# Indices 1 2 3 4 5 6 
#
# 1 86.7072 31.3498 34.0317 0.0000 5.8101 0.0000
# 2 31.3498 150.4304 13.8764 0.0000 11.2148 0.0000
# 3 34.0317 13.8764 134.2166 0.0000 19.7431 0.0000
# 4 0.0000 0.0000 0.0000 17.7827 0.0000 -14.4320
# 5 5.8101 11.2148 19.7431 0.0000 20.0484 0.0000
# 6 0.0000 0.0000 0.0000 -14.4320 0.0000 52.2782
#
#
#
# Elastic Compliance Matrix: (Units=1/GPa)
#
#
# Indices 1 2 3 4 5 6 
#
# 1 0.013731 -0.002611 -0.003322 0.000000 0.000753 0.000000
# 2 -0.002611 0.007437 0.000461 0.000000 -0.003857 0.000000
# 3 -0.003322 0.000461 0.009521 0.000000 -0.008671 0.000000
# 4 0.000000 0.000000 0.000000 0.072471 0.000000 0.020006
# 5 0.000753 -0.003857 -0.008671 0.000000 0.060357 0.000000
# 6 0.000000 0.000000 0.000000 0.020006 0.000000 0.024651
#
#
# Mechanical properties :
#
#
# Convention : Reuss Voigt Hill
#
# Bulk Modulus (GPa) = 50.65235 58.87445 54.76340
# Shear Modulus (GPa) = 24.30788 37.49496 30.90142
#
# Velocity S-wave (km/s) = 3.27020 4.06150 3.68714
# Velocity P-wave (km/s) = 6.04511 6.92070 6.49767
#
# Compressibility (1/GPa) = 0.01974242
#
# Stress axis : x y z
#
# Youngs Moduli (GPa) = 72.82964 134.46629 105.03220
#
# Poissons Ratio (x) = 0.35111 0.34895
# Poissons Ratio (y) = 0.19017 -0.04837
# Poissons Ratio (z) = 0.24197 -0.06193
#
# Static dielectric constant tensor:
#      x y z
#    x 2.003310 0.000000 0.339020 
#    y 0.000000 1.772660 0.000000 
#    z 0.339020 0.000000 1.750990 
# 
# From -- ./inp_files/4275.got.cif
#   From: 2010.05.17/outbox.cif.g08.bks.cpg/sg15_3_cif.got.tgz:4275.got - 2010.06.03 18:47:42.
