data_PCOD9307135
_publ_section_title
;
Structure prediction by ZEFSAII (Michael W. Deem and Ramdas Pophale) SiO2 
 PCOD9307135
Probable space group: C 2/C
;
_chemical_formula_sum "Si O2"
_cell_formula_units_Z 24
_cell_length_a 15.606351
_cell_length_b 12.273376
_cell_length_c 8.595314
_cell_angle_alpha 90.000000
_cell_angle_beta 33.917018
_cell_angle_gamma 90.000000
_cell_volume 918.660047
_symmetry_space_group_name_H-M "C 2/C"
_symmetry_group_IT_number 15
_symmetry_cell_setting 'monoclinic'
loop_
_space_group_symop_operation_xyz
x,y,z
-x,y,1/2-z
-x,-y,-z
x,-y,1/2+z
1/2+x,1/2+y,z
1/2-x,1/2+y,1/2-z
1/2-x,1/2-y,-z
1/2+x,1/2-y,1/2+z
loop_
_atom_site_type_symbol
_atom_site_label
_atom_site_fract_x
_atom_site_fract_y
_atom_site_fract_z
Si Si1 0.600197 0.740220 0.463192
Si Si2 0.632010 0.575999 0.653484
Si Si3 0.396168 0.923927 0.266369
O O1 0.500000 0.800764 0.750000
O O2 0.702478 0.660446 0.417533
O O3 0.472061 0.656805 0.585753
O O4 0.664147 0.824784 0.247698
O O5 0.500000 0.516808 0.750000
O O6 0.755370 0.497728 0.537249
O O7 0.500000 0.883898 0.250000
O O8 0.500000 0.000000 0.000000
#
# Coordination Sequence:
#
# PCOD9307135 Si02
#       3
#     8   8   8
#     4   6  17  42  69  85 133 173 222 259 335 389
#     4   6  18  43  71  83 136 180 215 262 343 392
#     4  12  22  37  72 103 127 175 226 274 332 393
#
# _framework density 26.125008000000001
#
# number of rings (size 3 to 8) (size 9 to 14) (size 15 to 20)
#    4.000    0.000    0.000    1.000    0.000    1.333 
#    0.000    3.333   14.667    0.000    0.000    0.000 
#    0.000    0.000    0.000    0.000    0.000    0.000 
#
# Total GULP energy -66808.272371 kJ/mol
# GULP energy per Si atom -5567.356031 kJ/mol
# Density = 2.606555 g / cm^3
# Si number density = 26.125008 Si / 1000 Ang^3
#
#
#
# Elastic Constant Matrix: (Units=GPa)
#
#
# Indices 1 2 3 4 5 6 
#
# 1 73.4670 36.1431 -6.2499 0.0000 -4.2172 0.0000
# 2 36.1431 87.0343 35.4344 0.0000 2.8493 0.0000
# 3 -6.2499 35.4344 46.9361 0.0000 -3.0483 0.0000
# 4 0.0000 0.0000 0.0000 -66.2983 0.0000 -42.5822
# 5 -4.2172 2.8493 -3.0483 0.0000 26.9075 0.0000
# 6 0.0000 0.0000 0.0000 -42.5822 0.0000 16.4960
#
#
#
# Elastic Compliance Matrix: (Units=1/GPa)
#
#
# Indices 1 2 3 4 5 6 
#
# 1 0.023568 -0.016597 0.016141 0.000000 0.007280 0.000000
# 2 -0.016597 0.028554 -0.024311 0.000000 -0.008379 0.000000
# 3 0.016141 -0.024311 0.042452 0.000000 0.009913 0.000000
# 4 0.000000 0.000000 0.000000 -0.005675 0.000000 -0.014649
# 5 0.007280 -0.008379 0.009913 0.000000 0.040316 0.000000
# 6 0.000000 0.000000 0.000000 -0.014649 0.000000 0.022807
#
#
# Mechanical properties :
#
#
# Convention : Reuss Voigt Hill
#
# Bulk Modulus (GPa) = 22.20264 37.56586 29.88425
# Shear Modulus (GPa) = 23.08732 4.89502 13.99117
#
# Velocity S-wave (km/s) = 2.97598 1.37031 2.31670
# Velocity P-wave (km/s) = 4.50840 4.11268 4.31508
#
# Compressibility (1/GPa) = 0.04503968
#
# Stress axis : x y z
#
# Youngs Moduli (GPa) = 42.43131 35.02137 23.55588
#
# Poissons Ratio (x) = 0.58124 -0.38021
# Poissons Ratio (y) = 0.70422 0.57267
# Poissons Ratio (z) = -0.68487 0.85140
#
# Static dielectric constant tensor:
#      x y z
#    x 1.969900 0.000000 -0.006320 
#    y 0.000000 2.056030 0.000000 
#    z -0.006320 0.000000 2.127430 
# 
# From -- ./inp_files/37317.got.cif
#   From: 2010.05.17/outbox.cif.g08.bks.cpg/sg15_19_cif.got.tgz:37317.got - 2010.06.03 18:47:42.
