data_PCOD9307235
_publ_section_title
;
Structure prediction by ZEFSAII (Michael W. Deem and Ramdas Pophale) SiO2 
 PCOD9307235
Probable space group: C 2/C
;
_chemical_formula_sum "Si O2"
_cell_formula_units_Z 36
_cell_length_a 28.395485
_cell_length_b 7.463902
_cell_length_c 9.593697
_cell_angle_alpha 90.000000
_cell_angle_beta 131.097540
_cell_angle_gamma 90.000000
_cell_volume 1532.276975
_symmetry_space_group_name_H-M "C 2/C"
_symmetry_group_IT_number 15
_symmetry_cell_setting 'monoclinic'
loop_
_space_group_symop_operation_xyz
x,y,z
-x,y,1/2-z
-x,-y,-z
x,-y,1/2+z
1/2+x,1/2+y,z
1/2-x,1/2+y,1/2-z
1/2-x,1/2-y,-z
1/2+x,1/2-y,1/2+z
loop_
_atom_site_type_symbol
_atom_site_label
_atom_site_fract_x
_atom_site_fract_y
_atom_site_fract_z
Si Si1 0.000000 0.545196 0.250000
Si Si2 0.814776 0.683147 0.061499
Si Si3 0.455282 0.625991 0.500748
Si Si4 0.120656 0.048714 0.400985
Si Si5 0.138156 0.595157 0.057277
O O1 0.012323 0.686170 0.399929
O O2 0.064975 0.436399 0.372071
O O3 0.853364 0.587930 0.260854
O O4 0.846373 0.865935 0.073855
O O5 0.750000 0.750000 0.000000
O O6 0.819172 0.547155 0.940561
O O7 0.500000 0.500000 0.500000
O O8 0.398850 0.642354 0.282088
O O9 0.432189 0.522316 0.593622
O O10 0.156840 0.203148 0.552608
#
# Coordination Sequence:
#
# PCOD9307235 Si02
#       5
#     4   8   8   8   8
#     4  12  26  46  76 114 162 196 266 314 406 476
#     4  12  30  54  80 115 156 211 275 328 394 467
#     4  12  22  43  71 109 156 205 249 310 381 476
#     4  12  26  47  74 113 155 204 266 314 398 462
#     4  12  29  50  79 119 158 206 261 333 399 469
#
# _framework density 23.494444999999999
#
# number of rings (size 3 to 8) (size 9 to 14) (size 15 to 20)
#    0.000    0.000    6.667    1.333    6.222    2.667 
#    0.000    0.000    0.000    0.000    0.000    0.000 
#    0.000    0.000    0.000    0.000    0.000    0.000 
#
# Total GULP energy -100678.886095 kJ/mol
# GULP energy per Si atom -5593.271450 kJ/mol
# Density = 2.344097 g / cm^3
# Si number density = 23.494445 Si / 1000 Ang^3
#
#
#
# Elastic Constant Matrix: (Units=GPa)
#
#
# Indices 1 2 3 4 5 6 
#
# 1 155.8384 66.7475 27.6537 0.0000 -5.0214 0.0000
# 2 66.7475 143.7898 36.9414 0.0000 -16.1438 0.0000
# 3 27.6537 36.9414 59.5892 0.0000 -21.7052 0.0000
# 4 0.0000 0.0000 0.0000 34.6389 0.0000 -15.2444
# 5 -5.0214 -16.1438 -21.7052 0.0000 29.6868 0.0000
# 6 0.0000 0.0000 0.0000 -15.2444 0.0000 32.1135
#
#
#
# Elastic Compliance Matrix: (Units=1/GPa)
#
#
# Indices 1 2 3 4 5 6 
#
# 1 0.008271 -0.003446 -0.002556 0.000000 -0.002343 0.000000
# 2 -0.003446 0.009730 -0.003705 0.000000 0.002000 0.000000
# 3 -0.002556 -0.003705 0.026405 0.000000 0.016859 0.000000
# 4 0.000000 0.000000 0.000000 0.036493 0.000000 0.017323
# 5 -0.002343 0.002000 0.016859 0.000000 0.046703 0.000000
# 6 0.000000 0.000000 0.000000 0.017323 0.000000 0.039363
#
#
# Mechanical properties :
#
#
# Convention : Reuss Voigt Hill
#
# Bulk Modulus (GPa) = 40.00951 69.10028 54.55490
# Shear Modulus (GPa) = 25.67940 34.47949 30.07944
#
# Velocity S-wave (km/s) = 3.30964 3.83503 3.58198
# Velocity P-wave (km/s) = 5.62772 7.00608 6.35438
#
# Compressibility (1/GPa) = 0.02499406
#
# Stress axis : x y z
#
# Youngs Moduli (GPa) = 120.90737 102.76986 37.87157
#
# Poissons Ratio (x) = 0.35413 0.09679
# Poissons Ratio (y) = 0.41663 0.14030
# Poissons Ratio (z) = 0.30900 0.38073
#
# Static dielectric constant tensor:
#      x y z
#    x 1.867820 0.000000 0.102240 
#    y 0.000000 1.847320 0.000000 
#    z 0.102240 0.000000 2.043820 
# 
# From -- ./inp_files/59744.got.cif
#   From: 2010.05.17/outbox.cif.g08.bks.cpg/sg15_30_cif.got.tgz:59744.got - 2010.06.03 18:47:42.
