data_PCOD9307670
_publ_section_title
;
Structure prediction by ZEFSAII (Michael W. Deem and Ramdas Pophale) SiO2 
 PCOD9307670
Probable space group: C 2/C
;
_chemical_formula_sum "Si O2"
_cell_formula_units_Z 32
_cell_length_a 5.157994
_cell_length_b 22.906741
_cell_length_c 11.675200
_cell_angle_alpha 90.000000
_cell_angle_beta 66.130503
_cell_angle_gamma 90.000000
_cell_volume 1261.472243
_symmetry_space_group_name_H-M "C 2/C"
_symmetry_group_IT_number 15
_symmetry_cell_setting 'monoclinic'
loop_
_space_group_symop_operation_xyz
x,y,z
-x,y,1/2-z
-x,-y,-z
x,-y,1/2+z
1/2+x,1/2+y,z
1/2-x,1/2+y,1/2-z
1/2-x,1/2-y,-z
1/2+x,1/2-y,1/2+z
loop_
_atom_site_type_symbol
_atom_site_label
_atom_site_fract_x
_atom_site_fract_y
_atom_site_fract_z
Si Si1 0.764355 0.632905 0.618790
Si Si2 0.463338 0.745306 0.122332
Si Si3 0.500000 0.477306 0.750000
Si Si4 0.500000 0.939257 0.250000
Si Si5 0.291671 0.611042 0.128424
O O1 0.500000 0.623221 0.750000
O O2 0.739891 0.602631 0.501047
O O3 0.776816 0.702677 0.603269
O O4 0.034429 0.606135 0.637961
O O5 0.500000 0.759490 0.250000
O O6 0.357932 0.679153 0.135645
O O7 0.750000 0.750000 0.000000
O O8 0.242477 0.518121 0.755414
O O9 0.473519 0.431958 0.860234
O O10 0.000000 0.599871 0.250000
#
# Coordination Sequence:
#
# PCOD9307670 Si02
#       5
#     8   8   4   4   8
#     4  12  27  50  79 113 160 205 258 325 395 467
#     4  12  24  44  80 117 157 201 255 323 400 473
#     4  12  28  53  80 115 156 214 268 322 384 462
#     4  12  28  53  80 115 156 214 268 322 384 462
#     4  12  27  50  79 113 160 205 258 325 395 467
#
# _framework density 25.367183000000001
#
# number of rings (size 3 to 8) (size 9 to 14) (size 15 to 20)
#    0.000    0.000    5.000    4.500    0.000    2.000 
#    0.000    0.000    0.000    0.000    0.000    0.000 
#    0.000    0.000    0.000    0.000    0.000    0.000 
#
# Total GULP energy -89579.438362 kJ/mol
# GULP energy per Si atom -5598.714898 kJ/mol
# Density = 2.530945 g / cm^3
# Si number density = 25.367183 Si / 1000 Ang^3
#
#
#
# Elastic Constant Matrix: (Units=GPa)
#
#
# Indices 1 2 3 4 5 6 
#
# 1 121.9720 51.5704 51.5582 0.0000 17.2134 0.0000
# 2 51.5704 187.5772 9.2589 0.0000 12.5129 0.0000
# 3 51.5582 9.2589 178.1198 0.0000 9.5748 0.0000
# 4 0.0000 0.0000 0.0000 -10.1347 0.0000 41.3724
# 5 17.2134 12.5129 9.5748 0.0000 63.5594 0.0000
# 6 0.0000 0.0000 0.0000 41.3724 0.0000 54.8994
#
#
#
# Elastic Compliance Matrix: (Units=1/GPa)
#
#
# Indices 1 2 3 4 5 6 
#
# 1 0.010843 -0.002707 -0.002892 0.000000 -0.001968 0.000000
# 2 -0.002707 0.006087 0.000496 0.000000 -0.000540 0.000000
# 3 -0.002892 0.000496 0.006441 0.000000 -0.000285 0.000000
# 4 0.000000 0.000000 0.000000 -0.024205 0.000000 0.018241
# 5 -0.001968 -0.000540 -0.000285 0.000000 0.016415 0.000000
# 6 0.000000 0.000000 0.000000 0.018241 0.000000 0.004468
#
#
# Mechanical properties :
#
#
# Convention : Reuss Voigt Hill
#
# Bulk Modulus (GPa) = 75.95885 79.16043 77.55964
# Shear Modulus (GPa) = 144.32299 46.68358 95.50328
#
# Velocity S-wave (km/s) = 7.55097 4.29454 6.14248
# Velocity P-wave (km/s) = 10.29716 7.47425 8.99711
#
# Compressibility (1/GPa) = 0.01316502
#
# Stress axis : x y z
#
# Youngs Moduli (GPa) = 92.22117 164.28631 155.25820
#
# Poissons Ratio (x) = 0.44475 0.44904
# Poissons Ratio (y) = 0.24966 -0.07704
# Poissons Ratio (z) = 0.26672 -0.08152
#
# Static dielectric constant tensor:
#      x y z
#    x 2.155700 0.000000 -0.021580 
#    y 0.000000 2.049970 0.000000 
#    z -0.021580 0.000000 1.972940 
# 
# From -- ./inp_files/72161.got.cif
#   From: 2010.05.17/outbox.cif.g08.bks.cpg/sg15_37_cif.got.tgz:72161.got - 2010.06.03 18:47:42.
