data_PCOD9307622
_publ_section_title
;
Structure prediction by ZEFSAII (Michael W. Deem and Ramdas Pophale) SiO2 
 PCOD9307622
Probable space group: C 2/C
;
_chemical_formula_sum "Si O2"
_cell_formula_units_Z 28
_cell_length_a 4.938616
_cell_length_b 19.808527
_cell_length_c 9.596783
_cell_angle_alpha 90.000000
_cell_angle_beta 93.270061
_cell_angle_gamma 90.000000
_cell_volume 937.293064
_symmetry_space_group_name_H-M "C 2/C"
_symmetry_group_IT_number 15
_symmetry_cell_setting 'monoclinic'
loop_
_space_group_symop_operation_xyz
x,y,z
-x,y,1/2-z
-x,-y,-z
x,-y,1/2+z
1/2+x,1/2+y,z
1/2-x,1/2+y,1/2-z
1/2-x,1/2-y,-z
1/2+x,1/2-y,1/2+z
loop_
_atom_site_type_symbol
_atom_site_label
_atom_site_fract_x
_atom_site_fract_y
_atom_site_fract_z
Si Si1 0.023829 0.773558 0.919608
Si Si2 0.322489 0.120876 0.601555
Si Si3 0.692010 0.099235 0.360890
Si Si4 0.000000 0.022650 0.750000
O O1 0.948305 0.855014 0.900797
O O2 0.000000 0.758555 0.750000
O O3 0.224394 0.699902 0.949428
O O4 0.750000 0.750000 0.000000
O O5 0.500000 0.119630 0.750000
O O6 0.509693 0.087594 0.490614
O O7 0.061259 0.075928 0.629457
O O8 0.500000 0.141276 0.250000
O O9 0.771412 0.031751 0.282192
#
# Coordination Sequence:
#
# PCOD9307622 Si02
#       4
#     8   8   8   4
#     4   8  22  49  77 104 151 216 273 326 384 469
#     4   9  23  48  75 108 161 210 269 322 388 472
#     4  12  24  43  77 119 159 209 260 334 399 474
#     4  12  26  44  74 126 160 214 256 332 398 470
#
# _framework density 29.873263000000001
#
# number of rings (size 3 to 8) (size 9 to 14) (size 15 to 20)
#    1.714    0.000    0.000    3.429    0.000    6.857 
#   20.571    0.000    0.000    0.000    0.000    0.000 
#    0.000    2.286    0.000    0.000    0.000    0.000 
#
# Total GULP energy -78322.013249 kJ/mol
# GULP energy per Si atom -5594.429518 kJ/mol
# Density = 2.980527 g / cm^3
# Si number density = 29.873263 Si / 1000 Ang^3
#
#
#
# Elastic Constant Matrix: (Units=GPa)
#
#
# Indices 1 2 3 4 5 6 
#
# 1 214.9285 111.6602 141.1269 0.0000 -18.1681 0.0000
# 2 111.6602 229.3837 89.8334 0.0000 7.5889 0.0000
# 3 141.1269 89.8334 302.8282 0.0000 -16.1705 0.0000
# 4 0.0000 0.0000 0.0000 50.9752 0.0000 -31.7465
# 5 -18.1681 7.5889 -16.1705 0.0000 68.7154 0.0000
# 6 0.0000 0.0000 0.0000 -31.7465 0.0000 0.7754
#
#
#
# Elastic Compliance Matrix: (Units=1/GPa)
#
#
# Indices 1 2 3 4 5 6 
#
# 1 0.008209 -0.002937 -0.002857 0.000000 0.001822 0.000000
# 2 -0.002937 0.006039 -0.000506 0.000000 -0.001563 0.000000
# 3 -0.002857 -0.000506 0.004807 0.000000 0.000432 0.000000
# 4 0.000000 0.000000 0.000000 -0.000801 0.000000 -0.032785
# 5 0.001822 -0.001563 0.000432 0.000000 0.015309 0.000000
# 6 0.000000 0.000000 0.000000 -0.032785 0.000000 -0.052644
#
#
# Mechanical properties :
#
#
# Convention : Reuss Voigt Hill
#
# Bulk Modulus (GPa) = 154.93816 159.15347 157.04582
# Shear Modulus (GPa) = -1154.94606 51.06121 -551.94243
#
# Velocity S-wave (km/s) = -19.68387 4.13881 -13.60744
# Velocity P-wave (km/s) = 21.55524 8.73107 13.93551
#
# Compressibility (1/GPa) = 0.00645419
#
# Stress axis : x y z
#
# Youngs Moduli (GPa) = 121.82373 165.58369 208.04140
#
# Poissons Ratio (x) = 0.48637 0.59433
# Poissons Ratio (y) = 0.35783 0.10529
# Poissons Ratio (z) = 0.34802 0.08380
#
# Static dielectric constant tensor:
#      x y z
#    x 2.732250 0.000000 0.069410 
#    y 0.000000 2.310810 0.000000 
#    z 0.069410 0.000000 2.306740 
# 
# From -- ./inp_files/71633.got.cif
#   From: 2010.05.17/outbox.cif.g08.bks.cpg/sg15_36_cif.got.tgz:71633.got - 2010.06.03 18:47:42.
