data_PCOD9307796
_publ_section_title
;
Structure prediction by ZEFSAII (Michael W. Deem and Ramdas Pophale) SiO2 
 PCOD9307796
Probable space group: C 2/C
;
_chemical_formula_sum "Si O2"
_cell_formula_units_Z 32
_cell_length_a 7.196178
_cell_length_b 12.186732
_cell_length_c 14.444544
_cell_angle_alpha 90.000000
_cell_angle_beta 81.988278
_cell_angle_gamma 90.000000
_cell_volume 1254.391992
_symmetry_space_group_name_H-M "C 2/C"
_symmetry_group_IT_number 15
_symmetry_cell_setting 'monoclinic'
loop_
_space_group_symop_operation_xyz
x,y,z
-x,y,1/2-z
-x,-y,-z
x,-y,1/2+z
1/2+x,1/2+y,z
1/2-x,1/2+y,1/2-z
1/2-x,1/2-y,-z
1/2+x,1/2-y,1/2+z
loop_
_atom_site_type_symbol
_atom_site_label
_atom_site_fract_x
_atom_site_fract_y
_atom_site_fract_z
Si Si1 0.182791 0.203633 0.102765
Si Si2 0.959868 0.486856 0.644083
Si Si3 0.238649 0.162348 0.418098
Si Si4 0.200873 0.166966 0.726294
O O1 0.314328 0.103896 0.121570
O O2 0.210068 0.295055 0.182190
O O3 0.250000 0.250000 0.000000
O O4 0.526361 0.342804 0.897039
O O5 0.846623 0.601143 0.651265
O O6 0.000000 0.480127 0.750000
O O7 0.153064 0.453533 0.577799
O O8 0.250000 0.250000 0.500000
O O9 0.346070 0.224465 0.328196
O O10 0.000000 0.106463 0.750000
#
# Coordination Sequence:
#
# PCOD9307796 Si02
#       4
#     8   8   8   8
#     4  12  24  50  77 107 153 203 249 320 382 452
#     4  12  26  46  74 110 146 200 254 305 386 450
#     4  12  24  48  75 104 152 196 253 313 380 459
#     4  12  26  49  75 111 153 201 254 317 387 454
#
# _framework density 25.510366999999999
#
# number of rings (size 3 to 8) (size 9 to 14) (size 15 to 20)
#    0.000    0.000    7.500    2.250    3.500    1.000 
#    4.500    2.500    0.000    0.000    0.000    0.000 
#    0.000    0.000    0.000    0.000    0.000    0.000 
#
# Total GULP energy -89537.808909 kJ/mol
# GULP energy per Si atom -5596.113057 kJ/mol
# Density = 2.545230 g / cm^3
# Si number density = 25.510367 Si / 1000 Ang^3
#
#
#
# Elastic Constant Matrix: (Units=GPa)
#
#
# Indices 1 2 3 4 5 6 
#
# 1 214.4219 41.7846 20.8041 0.0000 4.8163 0.0000
# 2 41.7846 101.4517 30.7998 0.0000 3.2735 0.0000
# 3 20.8041 30.7998 130.1197 0.0000 4.1342 0.0000
# 4 0.0000 0.0000 0.0000 42.0290 0.0000 -2.1736
# 5 4.8163 3.2735 4.1342 0.0000 41.7656 0.0000
# 6 0.0000 0.0000 0.0000 -2.1736 0.0000 46.6397
#
#
#
# Elastic Compliance Matrix: (Units=1/GPa)
#
#
# Indices 1 2 3 4 5 6 
#
# 1 0.005091 -0.001983 -0.000332 0.000000 -0.000399 0.000000
# 2 -0.001983 0.011407 -0.002369 0.000000 -0.000431 0.000000
# 3 -0.000332 -0.002369 0.008318 0.000000 -0.000599 0.000000
# 4 0.000000 0.000000 0.000000 0.023851 0.000000 0.001112
# 5 -0.000399 -0.000431 -0.000599 0.000000 0.024082 0.000000
# 6 0.000000 0.000000 0.000000 0.001112 0.000000 0.021493
#
#
# Mechanical properties :
#
#
# Convention : Reuss Voigt Hill
#
# Bulk Modulus (GPa) = 64.73553 70.30782 67.52168
# Shear Modulus (GPa) = 45.97268 49.59384 47.78326
#
# Velocity S-wave (km/s) = 4.24974 4.41394 4.33262
# Velocity P-wave (km/s) = 7.03645 7.32103 7.18015
#
# Compressibility (1/GPa) = 0.01544747
#
# Stress axis : x y z
#
# Youngs Moduli (GPa) = 196.41122 87.66566 120.21890
#
# Poissons Ratio (x) = 0.17387 0.03990
# Poissons Ratio (y) = 0.38955 0.28483
# Poissons Ratio (z) = 0.06519 0.20770
#
# Static dielectric constant tensor:
#      x y z
#    x 2.129870 0.000000 -0.050410 
#    y 0.000000 2.009720 0.000000 
#    z -0.050410 0.000000 1.987860 
# 
# From -- ./inp_files/132340.got.cif
#   From: 2010.05.17/outbox.cif.g08.bks.cpg/sg15_67_cif.got.tgz:132340.got - 2010.06.03 18:47:42.
