data_PCOD9307004
_publ_section_title
;
Structure prediction by ZEFSAII (Michael W. Deem and Ramdas Pophale) SiO2 
 PCOD9307004
Probable space group: C 2/C
;
_chemical_formula_sum "Si O2"
_cell_formula_units_Z 48
_cell_length_a 11.387308
_cell_length_b 21.692158
_cell_length_c 12.598684
_cell_angle_alpha 90.000000
_cell_angle_beta 133.925644
_cell_angle_gamma 90.000000
_cell_volume 2241.437658
_symmetry_space_group_name_H-M "C 2/C"
_symmetry_group_IT_number 15
_symmetry_cell_setting 'monoclinic'
loop_
_space_group_symop_operation_xyz
x,y,z
-x,y,1/2-z
-x,-y,-z
x,-y,1/2+z
1/2+x,1/2+y,z
1/2-x,1/2+y,1/2-z
1/2-x,1/2-y,-z
1/2+x,1/2-y,1/2+z
loop_
_atom_site_type_symbol
_atom_site_label
_atom_site_fract_x
_atom_site_fract_y
_atom_site_fract_z
Si Si1 0.000000 0.499035 0.250000
Si Si2 0.746754 0.413431 0.190340
Si Si3 0.196565 0.314042 0.751151
Si Si4 0.403337 0.903935 0.517027
Si Si5 0.000000 0.774571 0.250000
Si Si6 0.087267 0.879955 0.461062
Si Si7 0.810217 0.280196 0.145572
O O1 0.838314 0.458200 0.166229
O O2 0.984678 0.540928 0.135130
O O3 0.860612 0.411606 0.366896
O O4 0.562223 0.426358 0.113584
O O5 0.734927 0.345814 0.130066
O O6 0.150604 0.270250 0.821519
O O7 0.273491 0.270150 0.712266
O O8 0.029002 0.346873 0.609306
O O9 0.322984 0.364119 0.873103
O O10 0.230677 0.896986 0.469226
O O11 0.984610 0.818297 0.138791
O O12 0.000000 0.292300 0.250000
O O13 0.750000 0.250000 0.000000
#
# Coordination Sequence:
#
# PCOD9307004 Si02
#       7
#     4   8   8   8   4   8   8
#     4  12  27  50  72  96 142 197 244 288 344 414
#     4  12  26  44  74 100 137 186 240 284 352 421
#     4  12  24  40  71 103 146 176 229 292 364 421
#     4  12  24  48  69 103 138 182 241 299 351 405
#     4  12  21  34  70 104 144 177 222 290 362 420
#     4  12  22  41  68 108 134 177 233 293 351 417
#     4  12  25  44  67 103 145 187 224 281 361 440
#
# _framework density 21.414826000000001
#
# number of rings (size 3 to 8) (size 9 to 14) (size 15 to 20)
#    0.000    0.000    7.500    3.000    2.333    0.667 
#    0.000    0.000    0.000    0.000    0.000    0.000 
#    0.000    0.000    0.000    0.000    0.000    0.000 
#
# Total GULP energy -134161.609460 kJ/mol
# GULP energy per Si atom -5590.067061 kJ/mol
# Density = 2.136609 g / cm^3
# Si number density = 21.414826 Si / 1000 Ang^3
#
#
#
# Elastic Constant Matrix: (Units=GPa)
#
#
# Indices 1 2 3 4 5 6 
#
# 1 80.1617 15.6597 -6.4413 0.0000 12.5178 0.0000
# 2 15.6597 52.7343 -5.1045 0.0000 0.6812 0.0000
# 3 -6.4413 -5.1045 48.8489 0.0000 2.6031 0.0000
# 4 0.0000 0.0000 0.0000 11.5101 0.0000 -2.1298
# 5 12.5178 0.6812 2.6031 0.0000 48.7644 0.0000
# 6 0.0000 0.0000 0.0000 -2.1298 0.0000 35.9252
#
#
#
# Elastic Compliance Matrix: (Units=1/GPa)
#
#
# Indices 1 2 3 4 5 6 
#
# 1 0.013937 -0.003935 0.001619 0.000000 -0.003609 0.000000
# 2 -0.003935 0.020275 0.001565 0.000000 0.000643 0.000000
# 3 0.001619 0.001565 0.020931 0.000000 -0.001555 0.000000
# 4 0.000000 0.000000 0.000000 0.087844 0.000000 0.005208
# 5 -0.003609 0.000643 -0.001555 0.000000 0.021507 0.000000
# 6 0.000000 0.000000 0.000000 0.005208 0.000000 0.028144
#
#
# Mechanical properties :
#
#
# Convention : Reuss Voigt Hill
#
# Bulk Modulus (GPa) = 18.64245 21.10809 19.87527
# Shear Modulus (GPa) = 23.58255 31.08201 27.33228
#
# Velocity S-wave (km/s) = 3.32207 3.81389 3.57644
# Velocity P-wave (km/s) = 4.84140 5.41041 5.13379
#
# Compressibility (1/GPa) = 0.05364101
#
# Stress axis : x y z
#
# Youngs Moduli (GPa) = 71.75011 49.32218 47.77559
#
# Poissons Ratio (x) = 0.19410 -0.07734
# Poissons Ratio (y) = 0.28237 -0.07479
# Poissons Ratio (z) = -0.11615 -0.07721
#
# Static dielectric constant tensor:
#      x y z
#    x 1.784660 0.000000 0.002740 
#    y 0.000000 1.788120 0.000000 
#    z 0.002740 0.000000 1.799070 
# 
# From -- ./inp_files/31945.got.cif
#   From: 2010.05.17/outbox.cif.g08.bks.cpg/sg15_16_cif.got.tgz:31945.got - 2010.06.03 18:47:42.
