data_PCOD9307409
_publ_section_title
;
Structure prediction by ZEFSAII (Michael W. Deem and Ramdas Pophale) SiO2 
 PCOD9307409
Probable space group: C 2/C
;
_chemical_formula_sum "Si O2"
_cell_formula_units_Z 52
_cell_length_a 23.106195
_cell_length_b 13.179617
_cell_length_c 7.901170
_cell_angle_alpha 90.000000
_cell_angle_beta 115.371043
_cell_angle_gamma 90.000000
_cell_volume 2174.081207
_symmetry_space_group_name_H-M "C 2/C"
_symmetry_group_IT_number 15
_symmetry_cell_setting 'monoclinic'
loop_
_space_group_symop_operation_xyz
x,y,z
-x,y,1/2-z
-x,-y,-z
x,-y,1/2+z
1/2+x,1/2+y,z
1/2-x,1/2+y,1/2-z
1/2-x,1/2-y,-z
1/2+x,1/2-y,1/2+z
loop_
_atom_site_type_symbol
_atom_site_label
_atom_site_fract_x
_atom_site_fract_y
_atom_site_fract_z
Si Si1 0.267944 0.171991 0.877008
Si Si2 0.500000 0.754025 0.750000
Si Si3 0.601914 0.090002 0.531391
Si Si4 0.832912 0.042418 0.935267
Si Si5 0.123251 0.624719 0.955998
Si Si6 0.949067 0.170297 0.033495
Si Si7 0.274884 0.635140 0.198918
O O1 0.210267 0.100095 0.756750
O O2 0.283167 0.245885 0.737794
O O3 0.250000 0.250000 0.000000
O O4 0.331282 0.107279 0.985450
O O5 0.446119 0.830027 0.610251
O O6 0.522419 0.687654 0.617470
O O7 0.611436 0.113557 0.740993
O O8 0.586572 0.971030 0.493399
O O9 0.809750 0.927200 0.892124
O O10 0.905909 0.069325 0.990257
O O11 0.811312 0.094193 0.081529
O O12 0.096349 0.731593 0.988390
O O13 0.198783 0.616588 0.094749
O O14 0.000000 0.169539 0.250000
#
# Coordination Sequence:
#
# PCOD9307409 Si02
#       7
#     8   4   8   8   8   8   8
#     4  12  24  40  69 102 140 185 237 299 365 428
#     4  12  28  46  70 102 146 196 252 288 364 436
#     4  12  26  41  67 105 145 188 235 300 365 442
#     4  12  25  46  72 109 144 186 241 297 372 431
#     4  12  23  43  72 109 144 181 237 300 377 435
#     4  12  27  50  75 105 145 200 246 301 359 435
#     4  12  24  44  74 108 144 183 231 307 370 433
#
# _framework density 23.918149
#
# number of rings (size 3 to 8) (size 9 to 14) (size 15 to 20)
#    0.000    0.000    6.154    4.154    3.231    1.231 
#    0.000    0.769    1.692    0.000    0.000    0.000 
#    0.000    0.000    0.000    0.000    0.000    0.000 
#
# Total GULP energy -145753.257778 kJ/mol
# GULP energy per Si atom -5605.894530 kJ/mol
# Density = 2.386371 g / cm^3
# Si number density = 23.918149 Si / 1000 Ang^3
#
#
#
# Elastic Constant Matrix: (Units=GPa)
#
#
# Indices 1 2 3 4 5 6 
#
# 1 89.4329 14.3948 57.7162 0.0000 2.0626 0.0000
# 2 14.3948 78.2845 24.1356 0.0000 10.2976 0.0000
# 3 57.7162 24.1356 94.7048 0.0000 -8.0622 0.0000
# 4 0.0000 0.0000 0.0000 20.9541 0.0000 -9.4804
# 5 2.0626 10.2976 -8.0622 0.0000 47.5057 0.0000
# 6 0.0000 0.0000 0.0000 -9.4804 0.0000 22.7959
#
#
#
# Elastic Compliance Matrix: (Units=1/GPa)
#
#
# Indices 1 2 3 4 5 6 
#
# 1 0.018814 0.000589 -0.011868 0.000000 -0.002958 0.000000
# 2 0.000589 0.014538 -0.004398 0.000000 -0.003923 0.000000
# 3 -0.011868 -0.004398 0.019317 0.000000 0.004747 0.000000
# 4 0.000000 0.000000 0.000000 0.058784 0.000000 0.024447
# 5 -0.002958 -0.003923 0.004747 0.000000 0.022834 0.000000
# 6 0.000000 0.000000 0.000000 0.024447 0.000000 0.054035
#
#
# Mechanical properties :
#
#
# Convention : Reuss Voigt Hill
#
# Bulk Modulus (GPa) = 46.91619 50.54617 48.73118
# Shear Modulus (GPa) = 22.04784 29.32952 25.68868
#
# Velocity S-wave (km/s) = 3.03942 3.50558 3.28079
# Velocity P-wave (km/s) = 5.65467 6.12897 5.89659
#
# Compressibility (1/GPa) = 0.02131460
#
# Stress axis : x y z
#
# Youngs Moduli (GPa) = 53.15194 68.78743 51.76918
#
# Poissons Ratio (x) = -0.04049 0.61438
# Poissons Ratio (y) = -0.03128 0.22766
# Poissons Ratio (z) = 0.63079 0.30250
#
# Static dielectric constant tensor:
#      x y z
#    x 1.963640 0.000000 -0.061590 
#    y 0.000000 1.882480 0.000000 
#    z -0.061590 0.000000 1.950420 
# 
# From -- ./inp_files/61671.got.cif
#   From: 2010.05.17/outbox.cif.g08.bks.cpg/sg15_31_cif.got.tgz:61671.got - 2010.06.03 18:47:42.
