data_PCOD9307695
_publ_section_title
;
Structure prediction by ZEFSAII (Michael W. Deem and Ramdas Pophale) SiO2 
 PCOD9307695
Probable space group: C 2/C
;
_chemical_formula_sum "Si O2"
_cell_formula_units_Z 36
_cell_length_a 12.533777
_cell_length_b 16.741230
_cell_length_c 14.337674
_cell_angle_alpha 90.000000
_cell_angle_beta 34.364515
_cell_angle_gamma 90.000000
_cell_volume 1698.157735
_symmetry_space_group_name_H-M "C 2/C"
_symmetry_group_IT_number 15
_symmetry_cell_setting 'monoclinic'
loop_
_space_group_symop_operation_xyz
x,y,z
-x,y,1/2-z
-x,-y,-z
x,-y,1/2+z
1/2+x,1/2+y,z
1/2-x,1/2+y,1/2-z
1/2-x,1/2-y,-z
1/2+x,1/2-y,1/2+z
loop_
_atom_site_type_symbol
_atom_site_label
_atom_site_fract_x
_atom_site_fract_y
_atom_site_fract_z
Si Si1 0.537293 0.056462 0.386387
Si Si2 0.310478 0.658184 0.946004
Si Si3 0.000000 0.443935 0.250000
Si Si4 0.661817 0.662348 0.053886
Si Si5 0.575773 0.591476 0.434536
O O1 0.360173 0.109225 0.480258
O O2 0.731763 0.101691 0.264453
O O3 0.500000 0.000000 0.500000
O O4 0.592717 0.000853 0.259144
O O5 0.500000 0.652003 0.750000
O O6 0.250000 0.750000 0.000000
O O7 0.368536 0.624539 0.004751
O O8 0.843742 0.395676 0.420771
O O9 0.500000 0.648623 0.250000
O O10 0.573139 0.644341 0.015856
O O11 0.750000 0.750000 0.000000
O O12 0.500000 0.500000 0.500000
#
# Coordination Sequence:
#
# PCOD9307695 Si02
#       5
#     8   8   4   8   8
#     4  12  24  45  77 106 145 195 248 302 371 448
#     4  12  27  47  72 109 149 191 246 307 375 446
#     4  12  24  48  76 108 152 188 260 308 366 454
#     4  12  27  47  73 110 150 196 249 309 379 445
#     4  12  24  46  74 105 145 191 246 304 366 444
#
# _framework density 21.199445000000001
#
# number of rings (size 3 to 8) (size 9 to 14) (size 15 to 20)
#    0.000    0.000    5.556    4.000    0.000    7.111 
#    0.000    0.000    0.000    0.000    0.000    0.000 
#    0.000    0.000    0.000    0.000    0.000    0.000 
#
# Total GULP energy -100551.468342 kJ/mol
# GULP energy per Si atom -5586.192686 kJ/mol
# Density = 2.115119 g / cm^3
# Si number density = 21.199445 Si / 1000 Ang^3
#
#
#
# Elastic Constant Matrix: (Units=GPa)
#
#
# Indices 1 2 3 4 5 6 
#
# 1 148.1630 80.8984 35.8191 -0.0016 -11.9331 0.0009
# 2 80.8984 142.4636 53.0523 0.0004 -8.2764 0.0004
# 3 35.8191 53.0523 156.2243 -0.0005 -12.3053 0.0016
# 4 -0.0016 0.0004 -0.0005 40.9589 0.0014 -8.6043
# 5 -11.9331 -8.2764 -12.3053 0.0014 48.9985 -0.0010
# 6 0.0009 0.0004 0.0016 -8.6043 -0.0010 45.4733
#
#
#
# Elastic Compliance Matrix: (Units=1/GPa)
#
#
# Indices 1 2 3 4 5 6 
#
# 1 0.009900 -0.005421 -0.000317 0.000000 0.001416 0.000000
# 2 -0.005421 0.011027 -0.002509 0.000000 -0.000088 0.000000
# 3 -0.000317 -0.002509 0.007433 0.000000 0.001366 0.000000
# 4 0.000000 0.000000 0.000000 0.025425 -0.000001 0.004811
# 5 0.001416 -0.000088 0.001366 -0.000001 0.021082 0.000000
# 6 0.000000 0.000000 0.000000 0.004811 0.000000 0.022901
#
#
# Mechanical properties :
#
#
# Convention : Reuss Voigt Hill
#
# Bulk Modulus (GPa) = 84.27580 87.37672 85.82626
# Shear Modulus (GPa) = 42.29448 45.55821 43.92634
#
# Velocity S-wave (km/s) = 4.47147 4.64079 4.55692
# Velocity P-wave (km/s) = 8.15468 8.36791 8.26198
#
# Compressibility (1/GPa) = 0.01186580
#
# Stress axis : x y z
#
# Youngs Moduli (GPa) = 101.00779 90.68657 134.53032
#
# Poissons Ratio (x) = 0.49165 0.04269
# Poissons Ratio (y) = 0.54761 0.33747
# Poissons Ratio (z) = 0.03205 0.22749
#
# Static dielectric constant tensor:
#      x y z
#    x 1.552680 -0.000010 -0.299140 
#    y -0.000010 1.828730 0.000000 
#    z -0.299140 0.000000 1.838550 
# 
# From -- ./inp_files/144017.got.cif
#   From: 2010.05.17/outbox.cif.g08.bks.cpg/sg15_73_cif.got.tgz:144017.got - 2010.06.03 18:47:42.
