data_PCOD9307491
_publ_section_title
;
Structure prediction by ZEFSAII (Michael W. Deem and Ramdas Pophale) SiO2 
 PCOD9307491
Probable space group: C 2/C
;
_chemical_formula_sum "Si O2"
_cell_formula_units_Z 40
_cell_length_a 7.455495
_cell_length_b 18.020190
_cell_length_c 19.699439
_cell_angle_alpha 90.000000
_cell_angle_beta 43.496371
_cell_angle_gamma 90.000000
_cell_volume 1821.683491
_symmetry_space_group_name_H-M "C 2/C"
_symmetry_group_IT_number 15
_symmetry_cell_setting 'monoclinic'
loop_
_space_group_symop_operation_xyz
x,y,z
-x,y,1/2-z
-x,-y,-z
x,-y,1/2+z
1/2+x,1/2+y,z
1/2-x,1/2+y,1/2-z
1/2-x,1/2-y,-z
1/2+x,1/2-y,1/2+z
loop_
_atom_site_type_symbol
_atom_site_label
_atom_site_fract_x
_atom_site_fract_y
_atom_site_fract_z
Si Si1 0.000000 0.162041 0.250000
Si Si2 0.338439 0.395461 0.362200
Si Si3 0.500000 0.965017 0.250000
Si Si4 0.540310 0.547181 0.116592
Si Si5 0.047066 0.227566 0.902395
Si Si6 0.663712 0.868490 0.075814
O O1 0.259547 0.212973 0.185370
O O2 0.050521 0.109354 0.171768
O O3 0.291084 0.474334 0.410772
O O4 0.629111 0.417622 0.521737
O O5 0.507435 0.343054 0.364217
O O6 0.072540 0.356072 0.411710
O O7 0.550965 0.915193 0.169838
O O8 0.749789 0.015930 0.192711
O O9 0.500000 0.411278 0.250000
O O10 0.197739 0.202007 0.928951
O O11 0.750000 0.250000 0.000000
#
# Coordination Sequence:
#
# PCOD9307491 Si02
#       6
#     4   8   4   8   8   8
#     4  12  27  52  70 113 158 190 258 318 363 456
#     4  12  23  47  77 103 144 198 245 306 379 434
#     4  12  23  46  74 113 142 188 250 314 371 438
#     4  12  26  44  79 109 145 195 253 311 372 442
#     4  12  29  47  72 107 153 201 249 308 377 453
#     4  12  25  47  75 108 148 194 250 304 378 443
#
# _framework density 21.957712999999998
#
# number of rings (size 3 to 8) (size 9 to 14) (size 15 to 20)
#    0.000    0.000    5.000    4.200    2.800    4.800 
#    0.000    0.000    0.000    0.000    0.000    0.000 
#    0.000    0.000    0.000    0.000    0.000    0.000 
#
# Total GULP energy -111983.246834 kJ/mol
# GULP energy per Si atom -5599.162342 kJ/mol
# Density = 2.190774 g / cm^3
# Si number density = 21.957713 Si / 1000 Ang^3
#
#
#
# Elastic Constant Matrix: (Units=GPa)
#
#
# Indices 1 2 3 4 5 6 
#
# 1 114.9744 41.6229 20.3887 -0.0004 -21.8621 0.0007
# 2 41.6229 100.0390 25.2153 0.0001 4.8008 0.0004
# 3 20.3887 25.2153 100.8782 0.0004 5.1824 0.0008
# 4 -0.0004 0.0001 0.0004 25.9776 0.0000 -5.7904
# 5 -21.8621 4.8008 5.1824 0.0000 48.3921 -0.0003
# 6 0.0007 0.0004 0.0008 -5.7904 -0.0003 36.4622
#
#
#
# Elastic Compliance Matrix: (Units=1/GPa)
#
#
# Indices 1 2 3 4 5 6 
#
# 1 0.011857 -0.004844 -0.001494 0.000000 0.005997 0.000000
# 2 -0.004844 0.012677 -0.002024 0.000000 -0.003229 0.000000
# 3 -0.001494 -0.002024 0.010804 0.000000 -0.001631 0.000000
# 4 0.000000 0.000000 0.000000 0.039907 0.000000 0.006338
# 5 0.005997 -0.003229 -0.001631 0.000000 0.023869 0.000000
# 6 0.000000 0.000000 0.000000 0.006338 0.000000 0.028432
#
#
# Mechanical properties :
#
#
# Convention : Reuss Voigt Hill
#
# Bulk Modulus (GPa) = 53.72152 54.48282 54.10217
# Shear Modulus (GPa) = 33.22835 37.41071 35.31953
#
# Velocity S-wave (km/s) = 3.89432 4.13214 4.01499
# Velocity P-wave (km/s) = 6.68880 6.90164 6.79605
#
# Compressibility (1/GPa) = 0.01861451
#
# Stress axis : x y z
#
# Youngs Moduli (GPa) = 84.34175 78.88461 92.55471
#
# Poissons Ratio (x) = 0.38215 0.13823
# Poissons Ratio (y) = 0.40859 0.18730
# Poissons Ratio (z) = 0.12597 0.15963
#
# Static dielectric constant tensor:
#      x y z
#    x 1.805210 0.000000 -0.034320 
#    y 0.000000 1.822530 0.000000 
#    z -0.034320 0.000000 1.794960 
# 
# From -- ./inp_files/227461.got.cif
#   From: 2010.05.17/outbox.cif.g08.bks.cpg/sg15_114_cif.got.tgz:227461.got - 2010.06.03 18:47:42.
