data_PCOD9307660
_publ_section_title
;
Structure prediction by ZEFSAII (Michael W. Deem and Ramdas Pophale) SiO2 
 PCOD9307660
Probable space group: C 2/C
;
_chemical_formula_sum "Si O2"
_cell_formula_units_Z 44
_cell_length_a 11.965320
_cell_length_b 8.507822
_cell_length_c 18.138097
_cell_angle_alpha 90.000000
_cell_angle_beta 100.443611
_cell_angle_gamma 90.000000
_cell_volume 1815.848268
_symmetry_space_group_name_H-M "C 2/C"
_symmetry_group_IT_number 15
_symmetry_cell_setting 'monoclinic'
loop_
_space_group_symop_operation_xyz
x,y,z
-x,y,1/2-z
-x,-y,-z
x,-y,1/2+z
1/2+x,1/2+y,z
1/2-x,1/2+y,1/2-z
1/2-x,1/2-y,-z
1/2+x,1/2-y,1/2+z
loop_
_atom_site_type_symbol
_atom_site_label
_atom_site_fract_x
_atom_site_fract_y
_atom_site_fract_z
Si Si1 0.250000 0.250000 0.500000
Si Si2 0.862410 0.570954 0.822056
Si Si3 0.942514 0.101230 0.928141
Si Si4 0.299570 0.395805 0.795304
Si Si5 0.076541 0.632935 0.367110
Si Si6 0.200578 0.583112 0.521201
O O1 0.146665 0.226310 0.548411
O O2 0.277557 0.429196 0.534940
O O3 0.747052 0.489615 0.780133
O O4 0.864807 0.737844 0.781556
O O5 0.857430 0.609955 0.907960
O O6 0.969029 0.459178 0.822989
O O7 0.034507 0.201337 0.893416
O O8 0.873800 0.995364 0.861490
O O9 0.000000 0.000000 0.000000
O O10 0.182858 0.353305 0.825420
O O11 0.119427 0.534055 0.443348
O O12 0.250000 0.750000 0.500000
#
# Coordination Sequence:
#
# PCOD9307660 Si02
#       6
#     4   8   8   8   8   8
#     4  12  24  44  76 108 152 184 254 308 376 450
#     4  12  26  47  74 104 153 202 249 316 397 454
#     4  12  27  44  78 114 143 198 260 308 390 468
#     4  12  28  49  71 108 155 195 255 322 385 466
#     4  12  25  48  76 108 149 197 253 318 384 460
#     4  12  24  47  77 112 148 198 252 326 376 454
#
# _framework density 24.231100999999999
#
# number of rings (size 3 to 8) (size 9 to 14) (size 15 to 20)
#    0.000    0.000    5.455    4.364    2.545    0.000 
#    0.000    3.636    0.000    0.000    0.000    0.000 
#    0.000    0.000    0.000    0.000    0.000    0.000 
#
# Total GULP energy -122667.270863 kJ/mol
# GULP energy per Si atom -5575.785039 kJ/mol
# Density = 2.417595 g / cm^3
# Si number density = 24.231101 Si / 1000 Ang^3
#
#
#
# Elastic Constant Matrix: (Units=GPa)
#
#
# Indices 1 2 3 4 5 6 
#
# 1 69.0883 19.3940 16.1492 0.0000 0.7274 0.0000
# 2 19.3940 81.5239 2.8526 0.0000 -19.0363 0.0000
# 3 16.1492 2.8526 94.8505 0.0000 12.8820 0.0000
# 4 0.0000 0.0000 0.0000 37.3378 0.0000 2.6637
# 5 0.7274 -19.0363 12.8820 0.0000 33.3272 0.0000
# 6 0.0000 0.0000 0.0000 2.6637 0.0000 20.5999
#
#
#
# Elastic Compliance Matrix: (Units=1/GPa)
#
#
# Indices 1 2 3 4 5 6 
#
# 1 0.016233 -0.004206 -0.002388 0.000000 -0.001834 0.000000
# 2 -0.004206 0.015480 -0.001016 0.000000 0.009327 0.000000
# 3 -0.002388 -0.001016 0.011664 0.000000 -0.005037 0.000000
# 4 0.000000 0.000000 0.000000 0.027032 0.000000 -0.003495
# 5 -0.001834 0.009327 -0.005037 0.000000 0.037320 0.000000
# 6 0.000000 0.000000 0.000000 -0.003495 0.000000 0.048996
#
#
# Mechanical properties :
#
#
# Convention : Reuss Voigt Hill
#
# Bulk Modulus (GPa) = 35.51646 35.80603 35.66124
# Shear Modulus (GPa) = 27.57384 32.05743 29.81563
#
# Velocity S-wave (km/s) = 3.37701 3.64123 3.51161
# Velocity P-wave (km/s) = 5.46762 5.69974 5.58489
#
# Compressibility (1/GPa) = 0.02815596
#
# Stress axis : x y z
#
# Youngs Moduli (GPa) = 61.60469 64.59769 85.73275
#
# Poissons Ratio (x) = 0.27171 0.20475
# Poissons Ratio (y) = 0.25913 0.08712
# Poissons Ratio (z) = 0.14712 0.06564
#
# Static dielectric constant tensor:
#      x y z
#    x 1.969250 0.000000 0.026510 
#    y 0.000000 1.996810 0.000000 
#    z 0.026510 0.000000 1.996700 
# 
# From -- ./inp_files/236154.got.cif
#   From: 2010.05.17/outbox.cif.g08.bks.cpg/sg15_119_cif.got.tgz:236154.got - 2010.06.03 18:47:42.
