data_PCOD9307808
_publ_section_title
;
Structure prediction by ZEFSAII (Michael W. Deem and Ramdas Pophale) SiO2 
 PCOD9307808
Probable space group: C 2/C
;
_chemical_formula_sum "Si O2"
_cell_formula_units_Z 36
_cell_length_a 19.674619
_cell_length_b 9.246829
_cell_length_c 13.988713
_cell_angle_alpha 90.000000
_cell_angle_beta 143.758990
_cell_angle_gamma 90.000000
_cell_volume 1504.523349
_symmetry_space_group_name_H-M "C 2/C"
_symmetry_group_IT_number 15
_symmetry_cell_setting 'monoclinic'
loop_
_space_group_symop_operation_xyz
x,y,z
-x,y,1/2-z
-x,-y,-z
x,-y,1/2+z
1/2+x,1/2+y,z
1/2-x,1/2+y,1/2-z
1/2-x,1/2-y,-z
1/2+x,1/2-y,1/2+z
loop_
_atom_site_type_symbol
_atom_site_label
_atom_site_fract_x
_atom_site_fract_y
_atom_site_fract_z
Si Si1 0.421041 0.878313 0.962848
Si Si2 0.000000 0.871018 0.250000
Si Si3 0.161499 0.329534 0.827872
Si Si4 0.016408 0.071031 0.119897
Si Si5 0.771288 0.408183 0.980263
O O1 0.331968 0.825890 0.778810
O O2 0.350975 0.923592 0.976978
O O3 0.492321 0.739585 0.080109
O O4 0.500000 0.000000 0.000000
O O5 0.047610 0.757452 0.226643
O O6 0.937462 0.986578 0.107865
O O7 0.250000 0.250000 0.000000
O O8 0.169369 0.492933 0.872548
O O9 0.145286 0.042021 0.302651
O O10 0.000000 0.000000 0.000000
O O11 0.750000 0.250000 0.000000
#
# Coordination Sequence:
#
# PCOD9307808 Si02
#       5
#     8   4   8   8   8
#     4  12  28  49  76 112 154 200 256 318 387 459
#     4  12  24  48  78 108 156 196 262 312 404 448
#     4  12  26  46  74 109 145 202 248 313 374 466
#     4  12  26  46  74 109 145 202 248 313 374 466
#     4  12  28  49  76 112 154 200 256 318 387 459
#
# _framework density 23.927845999999999
#
# number of rings (size 3 to 8) (size 9 to 14) (size 15 to 20)
#    0.000    0.000    4.444    4.000    3.111    5.333 
#    0.000    0.000    0.000    0.000    0.000    0.000 
#    0.000    0.000    0.000    0.000    0.000    0.000 
#
# Total GULP energy -100535.733181 kJ/mol
# GULP energy per Si atom -5585.318510 kJ/mol
# Density = 2.387338 g / cm^3
# Si number density = 23.927846 Si / 1000 Ang^3
#
#
#
# Elastic Constant Matrix: (Units=GPa)
#
#
# Indices 1 2 3 4 5 6 
#
# 1 123.1993 34.9068 27.2055 0.0000 -18.4259 0.0000
# 2 34.9068 162.6453 23.7771 0.0000 -1.4816 0.0000
# 3 27.2055 23.7771 89.7244 0.0000 -23.6854 0.0000
# 4 0.0000 0.0000 0.0000 52.0934 0.0000 -15.2927
# 5 -18.4259 -1.4816 -23.6854 0.0000 36.9411 0.0000
# 6 0.0000 0.0000 0.0000 -15.2927 0.0000 38.0718
#
#
#
# Elastic Compliance Matrix: (Units=1/GPa)
#
#
# Indices 1 2 3 4 5 6 
#
# 1 0.009501 -0.001798 -0.001411 0.000000 0.003762 0.000000
# 2 -0.001798 0.006767 -0.001701 0.000000 -0.001716 0.000000
# 3 -0.001411 -0.001701 0.014228 0.000000 0.008351 0.000000
# 4 0.000000 0.000000 0.000000 0.021762 0.000000 0.008742
# 5 0.003762 -0.001716 0.008351 0.000000 0.034232 0.000000
# 6 0.000000 0.000000 0.000000 0.008742 0.000000 0.029777
#
#
# Mechanical properties :
#
#
# Convention : Reuss Voigt Hill
#
# Bulk Modulus (GPa) = 48.36725 60.81642 54.59184
# Shear Modulus (GPa) = 37.59923 44.73323 41.16623
#
# Velocity S-wave (km/s) = 3.96834 4.32847 4.15231
# Velocity P-wave (km/s) = 6.42298 7.10300 6.77153
#
# Compressibility (1/GPa) = 0.02067515
#
# Stress axis : x y z
#
# Youngs Moduli (GPa) = 105.25478 147.76739 70.28243
#
# Poissons Ratio (x) = 0.26576 0.09917
# Poissons Ratio (y) = 0.18930 0.11956
# Poissons Ratio (z) = 0.14852 0.25137
#
# Static dielectric constant tensor:
#      x y z
#    x 2.135430 0.000000 0.181390 
#    y 0.000000 1.974310 0.000000 
#    z 0.181390 0.000000 2.027420 
# 
# From -- ./inp_files/166736.got.cif
#   From: 2010.05.17/outbox.cif.g08.bks.cpg/sg15_84_cif.got.tgz:166736.got - 2010.06.03 18:47:42.
