data_PCOD9307156
_publ_section_title
;
Structure prediction by ZEFSAII (Michael W. Deem and Ramdas Pophale) SiO2 
 PCOD9307156
Probable space group: C 2/C
;
_chemical_formula_sum "Si O2"
_cell_formula_units_Z 60
_cell_length_a 14.248196
_cell_length_b 19.055616
_cell_length_c 13.487107
_cell_angle_alpha 90.000000
_cell_angle_beta 136.685979
_cell_angle_gamma 90.000000
_cell_volume 2512.022530
_symmetry_space_group_name_H-M "C 2/C"
_symmetry_group_IT_number 15
_symmetry_cell_setting 'monoclinic'
loop_
_space_group_symop_operation_xyz
x,y,z
-x,y,1/2-z
-x,-y,-z
x,-y,1/2+z
1/2+x,1/2+y,z
1/2-x,1/2+y,1/2-z
1/2-x,1/2-y,-z
1/2+x,1/2-y,1/2+z
loop_
_atom_site_type_symbol
_atom_site_label
_atom_site_fract_x
_atom_site_fract_y
_atom_site_fract_z
Si Si1 0.654587 0.383948 0.341145
Si Si2 0.730082 0.874501 0.447857
Si Si3 0.765156 0.305867 0.244032
Si Si4 0.383881 0.517495 0.330234
Si Si5 0.067587 0.704340 0.974036
Si Si6 0.130812 0.472614 0.897261
Si Si7 0.000000 0.118888 0.250000
Si Si8 0.579962 0.935623 0.612289
O O1 0.500000 0.363756 0.250000
O O2 0.725622 0.326339 0.325358
O O3 0.644088 0.449575 0.257869
O O4 0.745034 0.415260 0.501573
O O5 0.726765 0.872253 0.326093
O O6 0.621414 0.821092 0.409623
O O7 0.871037 0.843977 0.601876
O O8 0.717799 0.954634 0.478327
O O9 0.912685 0.270470 0.354725
O O10 0.658222 0.256568 0.107444
O O11 0.500000 0.500000 0.500000
O O12 0.443088 0.574238 0.299168
O O13 0.235263 0.542698 0.257172
O O14 0.074472 0.630800 0.039172
O O15 0.000000 0.515599 0.750000
O O16 0.017226 0.424352 0.869140
O O17 0.500000 0.000000 0.500000
#
# Coordination Sequence:
#
# PCOD9307156 Si02
#       8
#     8   8   8   8   8   8   4   8
#     4  12  25  48  67 104 147 188 248 309 365 442
#     4  12  25  44  74 109 154 189 244 306 388 451
#     4  12  29  47  74 105 147 198 249 302 379 461
#     4  12  24  38  68 107 145 188 235 304 381 433
#     4  12  25  50  73 107 145 199 245 301 374 457
#     4  12  25  42  75 112 143 190 246 316 386 432
#     4  12  22  40  62 110 146 182 234 302 372 438
#     4  12  22  45  74 101 145 186 245 316 367 444
#
# _framework density 23.885137
#
# number of rings (size 3 to 8) (size 9 to 14) (size 15 to 20)
#    0.000    0.000    7.333    2.400    7.467    1.067 
#    0.000    1.333    0.000    0.000    0.000    0.000 
#    0.000    0.000    0.000    0.000    0.000    0.000 
#
# Total GULP energy -167236.755344 kJ/mol
# GULP energy per Si atom -5574.558511 kJ/mol
# Density = 2.383077 g / cm^3
# Si number density = 23.885137 Si / 1000 Ang^3
#
#
#
# Elastic Constant Matrix: (Units=GPa)
#
#
# Indices 1 2 3 4 5 6 
#
# 1 97.4058 24.5140 55.3250 0.0000 24.2255 0.0000
# 2 24.5140 59.6096 16.7396 0.0000 2.6649 0.0000
# 3 55.3250 16.7396 148.2268 0.0000 42.0245 0.0000
# 4 0.0000 0.0000 0.0000 35.5152 0.0000 1.3447
# 5 24.2255 2.6649 42.0245 0.0000 49.1889 0.0000
# 6 0.0000 0.0000 0.0000 1.3447 0.0000 7.5111
#
#
#
# Elastic Compliance Matrix: (Units=1/GPa)
#
#
# Indices 1 2 3 4 5 6 
#
# 1 0.014556 -0.004736 -0.003878 0.000000 -0.003599 0.000000
# 2 -0.004736 0.018901 -0.000974 0.000000 0.002140 0.000000
# 3 -0.003878 -0.000974 0.010224 0.000000 -0.006772 0.000000
# 4 0.000000 0.000000 0.000000 0.028349 0.000000 -0.005075
# 5 -0.003599 0.002140 -0.006772 0.000000 0.027772 0.000000
# 6 0.000000 0.000000 0.000000 -0.005075 0.000000 0.134044
#
#
# Mechanical properties :
#
#
# Convention : Reuss Voigt Hill
#
# Bulk Modulus (GPa) = 40.80626 55.37769 48.09197
# Shear Modulus (GPa) = 19.14317 32.35396 25.74857
#
# Velocity S-wave (km/s) = 2.83409 3.68443 3.28688
# Velocity P-wave (km/s) = 5.27550 6.42926 5.88074
#
# Compressibility (1/GPa) = 0.02450605
#
# Stress axis : x y z
#
# Youngs Moduli (GPa) = 68.70090 52.90649 97.81235
#
# Poissons Ratio (x) = 0.25057 0.37927
# Poissons Ratio (y) = 0.32538 0.09523
# Poissons Ratio (z) = 0.26639 0.05151
#
# Static dielectric constant tensor:
#      x y z
#    x 1.990620 0.000000 0.003310 
#    y 0.000000 1.812900 0.000000 
#    z 0.003310 0.000000 1.883820 
# 
# From -- ./inp_files/156393.got.cif
#   From: 2010.05.17/outbox.cif.g08.bks.cpg/sg15_79_cif.got.tgz:156393.got - 2010.06.03 18:47:42.
