data_PCOD9307185
_publ_section_title
;
Structure prediction by ZEFSAII (Michael W. Deem and Ramdas Pophale) SiO2 
 PCOD9307185
Probable space group: C 2/C
;
_chemical_formula_sum "Si O2"
_cell_formula_units_Z 48
_cell_length_a 8.763911
_cell_length_b 23.174347
_cell_length_c 11.791702
_cell_angle_alpha 90.000000
_cell_angle_beta 110.962596
_cell_angle_gamma 90.000000
_cell_volume 2236.363641
_symmetry_space_group_name_H-M "C 2/C"
_symmetry_group_IT_number 15
_symmetry_cell_setting 'monoclinic'
loop_
_space_group_symop_operation_xyz
x,y,z
-x,y,1/2-z
-x,-y,-z
x,-y,1/2+z
1/2+x,1/2+y,z
1/2-x,1/2+y,1/2-z
1/2-x,1/2-y,-z
1/2+x,1/2-y,1/2+z
loop_
_atom_site_type_symbol
_atom_site_label
_atom_site_fract_x
_atom_site_fract_y
_atom_site_fract_z
Si Si1 0.818312 0.314066 0.494445
Si Si2 0.316646 0.380603 0.483706
Si Si3 0.312107 0.827722 0.832015
Si Si4 0.325911 0.591212 0.397262
Si Si5 0.088526 0.511794 0.899091
Si Si6 0.177419 0.197780 0.735849
O O1 0.750000 0.250000 0.500000
O O2 0.695132 0.358338 0.517142
O O3 0.813412 0.324160 0.359646
O O4 0.993692 0.326464 0.594917
O O5 0.280038 0.336911 0.575430
O O6 0.480432 0.415833 0.560379
O O7 0.170937 0.425989 0.434128
O O8 0.330841 0.342713 0.374675
O O9 0.256246 0.880103 0.736112
O O10 0.276881 0.764172 0.775980
O O11 0.227772 0.536652 0.416753
O O12 0.000000 0.510639 0.750000
O O13 0.000000 0.500000 0.000000
O O14 0.000000 0.197700 0.750000
#
# Coordination Sequence:
#
# PCOD9307185 Si02
#       6
#     8   8   8   8   8   8
#     4  12  22  41  72 103 142 189 237 287 358 433
#     4  12  28  46  72 108 142 189 243 304 362 430
#     4  12  25  45  72 106 150 193 235 296 366 441
#     4  12  24  48  75 103 145 191 240 297 364 439
#     4  12  29  51  77 108 144 192 252 311 373 440
#     4  12  24  43  69 106 145 188 235 294 363 435
#
# _framework density 21.463415000000001
#
# number of rings (size 3 to 8) (size 9 to 14) (size 15 to 20)
#    0.000    0.000    5.000    5.000    4.667    0.000 
#    3.000    1.667    0.000    0.000    0.000    0.000 
#    0.000    0.000    0.000    0.000    0.000    0.000 
#
# Total GULP energy -134149.297400 kJ/mol
# GULP energy per Si atom -5589.554058 kJ/mol
# Density = 2.141456 g / cm^3
# Si number density = 21.463415 Si / 1000 Ang^3
#
#
#
# Elastic Constant Matrix: (Units=GPa)
#
#
# Indices 1 2 3 4 5 6 
#
# 1 75.9268 16.2545 40.1586 0.0000 -16.7918 0.0000
# 2 16.2545 56.9428 20.6077 0.0000 -21.9332 0.0000
# 3 40.1586 20.6077 143.8787 0.0000 -18.9296 0.0000
# 4 0.0000 0.0000 0.0000 19.5308 0.0000 -11.3044
# 5 -16.7918 -21.9332 -18.9296 0.0000 38.7370 0.0000
# 6 0.0000 0.0000 0.0000 -11.3044 0.0000 37.0856
#
#
#
# Elastic Compliance Matrix: (Units=1/GPa)
#
#
# Indices 1 2 3 4 5 6 
#
# 1 0.016496 -0.001657 -0.003793 0.000000 0.004359 0.000000
# 2 -0.001657 0.022999 -0.001296 0.000000 0.011670 0.000000
# 3 -0.003793 -0.001296 0.008423 0.000000 0.001738 0.000000
# 4 0.000000 0.000000 0.000000 0.062169 0.000000 0.018950
# 5 0.004359 0.011670 0.001738 0.000000 0.035162 0.000000
# 6 0.000000 0.000000 0.000000 0.018950 0.000000 0.032741
#
#
# Mechanical properties :
#
#
# Convention : Reuss Voigt Hill
#
# Bulk Modulus (GPa) = 29.04897 47.86555 38.45726
# Shear Modulus (GPa) = 24.63561 32.38584 28.51072
#
# Velocity S-wave (km/s) = 3.39159 3.88865 3.64859
# Velocity P-wave (km/s) = 5.37594 6.52009 5.97546
#
# Compressibility (1/GPa) = 0.03442463
#
# Stress axis : x y z
#
# Youngs Moduli (GPa) = 60.62210 43.48050 118.71688
#
# Poissons Ratio (x) = 0.07205 0.45034
# Poissons Ratio (y) = 0.10045 0.15388
# Poissons Ratio (z) = 0.22996 0.05636
#
# Static dielectric constant tensor:
#      x y z
#    x 1.795010 0.000000 0.007870 
#    y 0.000000 1.736200 0.000000 
#    z 0.007870 0.000000 1.754420 
# 
# From -- ./inp_files/79890.got.cif
#   From: 2010.05.17/outbox.cif.g08.bks.cpg/sg15_40_cif.got.tgz:79890.got - 2010.06.03 18:47:42.
