data_PCOD9307119
_publ_section_title
;
Structure prediction by ZEFSAII (Michael W. Deem and Ramdas Pophale) SiO2 
 PCOD9307119
Probable space group: C 2/C
;
_chemical_formula_sum "Si O2"
_cell_formula_units_Z 40
_cell_length_a 22.512077
_cell_length_b 12.520512
_cell_length_c 19.967277
_cell_angle_alpha 90.000000
_cell_angle_beta 159.542778
_cell_angle_gamma 90.000000
_cell_volume 1967.041642
_symmetry_space_group_name_H-M "C 2/C"
_symmetry_group_IT_number 15
_symmetry_cell_setting 'monoclinic'
loop_
_space_group_symop_operation_xyz
x,y,z
-x,y,1/2-z
-x,-y,-z
x,-y,1/2+z
1/2+x,1/2+y,z
1/2-x,1/2+y,1/2-z
1/2-x,1/2-y,-z
1/2+x,1/2-y,1/2+z
loop_
_atom_site_type_symbol
_atom_site_label
_atom_site_fract_x
_atom_site_fract_y
_atom_site_fract_z
Si Si1 0.496833 0.392543 0.826278
Si Si2 0.348790 0.579507 0.754047
Si Si3 0.638648 0.813195 0.242546
Si Si4 0.845999 0.759080 0.896448
Si Si5 0.639358 0.926339 0.614837
O O1 0.500000 0.386087 0.750000
O O2 0.408507 0.502456 0.757320
O O3 0.391766 0.293198 0.746561
O O4 0.692149 0.377470 0.058521
O O5 0.188738 0.662275 0.588913
O O6 0.300670 0.494530 0.761358
O O7 0.499666 0.662114 0.926530
O O8 0.653757 0.783035 0.180007
O O9 0.458698 0.876041 0.052591
O O10 0.689282 0.841500 0.723894
O O11 0.500000 0.000000 0.500000
#
# Coordination Sequence:
#
# PCOD9307119 Si02
#       5
#     8   8   8   8   8
#     4  12  26  44  66  93 135 188 223 258 313 393
#     4  12  24  41  64  97 136 170 216 269 335 396
#     4  12  22  40  65 100 131 165 219 278 328 383
#     4  12  22  37  64 100 131 159 209 282 340 378
#     4  12  22  35  62  98 132 164 198 267 349 392
#
# _framework density 20.335107000000001
#
# number of rings (size 3 to 8) (size 9 to 14) (size 15 to 20)
#    0.000    0.000    8.000    2.400    0.000    0.000 
#    0.000    1.000    0.000    0.000    0.000    0.000 
#    0.000    0.000    0.000    0.000    0.000    0.000 
#
# Total GULP energy -111529.879213 kJ/mol
# GULP energy per Si atom -5576.493961 kJ/mol
# Density = 2.028882 g / cm^3
# Si number density = 20.335107 Si / 1000 Ang^3
#
#
#
# Elastic Constant Matrix: (Units=GPa)
#
#
# Indices 1 2 3 4 5 6 
#
# 1 99.2719 58.8262 33.9793 -0.0016 7.7294 0.0000
# 2 58.8262 135.2732 26.6562 -0.0051 10.2818 -0.0024
# 3 33.9793 26.6562 63.7133 -0.0004 16.9294 -0.0001
# 4 -0.0016 -0.0051 -0.0004 46.5597 -0.0014 26.6704
# 5 7.7294 10.2818 16.9294 -0.0014 20.7915 -0.0006
# 6 0.0000 -0.0024 -0.0001 26.6704 -0.0006 41.7837
#
#
#
# Elastic Compliance Matrix: (Units=1/GPa)
#
#
# Indices 1 2 3 4 5 6 
#
# 1 0.015445 -0.005611 -0.006509 0.000000 0.002333 0.000000
# 2 -0.005611 0.010136 -0.000601 0.000001 -0.002438 0.000000
# 3 -0.006509 -0.000601 0.023858 -0.000001 -0.016709 0.000000
# 4 0.000000 0.000001 -0.000001 0.033857 0.000002 -0.021611
# 5 0.002333 -0.002438 -0.016709 0.000002 0.062040 0.000000
# 6 0.000000 0.000000 0.000000 -0.021611 0.000000 0.037727
#
#
# Mechanical properties :
#
#
# Convention : Reuss Voigt Hill
#
# Bulk Modulus (GPa) = 41.67210 59.68686 50.67948
# Shear Modulus (GPa) = 23.09427 33.74676 28.42051
#
# Velocity S-wave (km/s) = 3.37365 4.07815 3.74252
# Velocity P-wave (km/s) = 5.97599 7.18265 6.60693
#
# Compressibility (1/GPa) = 0.02399687
#
# Stress axis : x y z
#
# Youngs Moduli (GPa) = 64.74697 98.65671 41.91461
#
# Poissons Ratio (x) = 0.55357 0.27284
# Poissons Ratio (y) = 0.36330 0.02517
# Poissons Ratio (z) = 0.42146 0.05925
#
# Static dielectric constant tensor:
#      x y z
#    x 1.709880 0.000000 0.074000 
#    y 0.000000 1.850110 0.000000 
#    z 0.074000 0.000000 1.827160 
# 
# From -- ./inp_files/60461.got.cif
#   From: 2010.05.17/outbox.cif.g08.bks.cpg/sg15_31_cif.got.tgz:60461.got - 2010.06.03 18:47:42.
