data_PCOD9307747
_publ_section_title
;
Structure prediction by ZEFSAII (Michael W. Deem and Ramdas Pophale) SiO2 
 PCOD9307747
Probable space group: C 2/C
;
_chemical_formula_sum "Si O2"
_cell_formula_units_Z 48
_cell_length_a 13.913742
_cell_length_b 18.168214
_cell_length_c 17.377979
_cell_angle_alpha 90.000000
_cell_angle_beta 28.659246
_cell_angle_gamma 90.000000
_cell_volume 2106.852563
_symmetry_space_group_name_H-M "C 2/C"
_symmetry_group_IT_number 15
_symmetry_cell_setting 'monoclinic'
loop_
_space_group_symop_operation_xyz
x,y,z
-x,y,1/2-z
-x,-y,-z
x,-y,1/2+z
1/2+x,1/2+y,z
1/2-x,1/2+y,1/2-z
1/2-x,1/2-y,-z
1/2+x,1/2-y,1/2+z
loop_
_atom_site_type_symbol
_atom_site_label
_atom_site_fract_x
_atom_site_fract_y
_atom_site_fract_z
Si Si1 0.043919 0.023761 0.055358
Si Si2 0.264484 0.306107 0.419365
Si Si3 0.157849 0.554879 0.427400
Si Si4 0.451387 0.790165 0.086818
Si Si5 0.719317 0.171484 0.633974
Si Si6 0.843315 0.451252 0.929930
O O1 0.858048 0.049302 0.236803
O O2 0.205627 0.089363 0.936177
O O3 0.000000 0.000000 0.000000
O O4 0.131039 0.952370 0.036509
O O5 0.500000 0.325039 0.250000
O O6 0.250000 0.250000 0.500000
O O7 0.173945 0.274837 0.403063
O O8 0.139774 0.378908 0.530342
O O9 0.167021 0.521991 0.507067
O O10 0.000000 0.500000 0.500000
O O11 0.087397 0.638337 0.476864
O O12 0.305122 0.814073 0.258040
O O13 0.598040 0.726238 0.014886
O O14 0.500000 0.184277 0.750000
O O15 0.000000 0.453990 0.750000
#
# Coordination Sequence:
#
# PCOD9307747 Si02
#       6
#     8   8   8   8   8   8
#     4  12  27  43  74 106 149 197 249 309 379 449
#     4  12  27  46  72 105 150 196 250 310 379 452
#     4  12  24  47  70 107 146 193 250 309 376 447
#     4  12  26  46  78 105 152 199 252 311 384 452
#     4  12  27  49  75 112 153 199 259 314 384 455
#     4  12  26  46  73 106 146 191 247 312 377 451
#
# _framework density 22.782799000000001
#
# number of rings (size 3 to 8) (size 9 to 14) (size 15 to 20)
#    0.000    0.000    1.667    9.000    4.667    1.333 
#    0.000    0.000    0.000    0.000    0.000    0.000 
#    0.000    0.000    0.000    0.000    0.000    0.000 
#
# Total GULP energy -134305.378612 kJ/mol
# GULP energy per Si atom -5596.057442 kJ/mol
# Density = 2.273094 g / cm^3
# Si number density = 22.782799 Si / 1000 Ang^3
#
#
#
# Elastic Constant Matrix: (Units=GPa)
#
#
# Indices 1 2 3 4 5 6 
#
# 1 146.7179 25.7475 17.1650 -0.0513 15.5069 -0.0986
# 2 25.7475 79.9049 13.4488 0.0177 0.1681 0.0759
# 3 17.1650 13.4488 134.6466 -0.0892 18.2457 -0.1070
# 4 -0.0513 0.0177 -0.0892 21.2007 0.0573 -27.2768
# 5 15.5069 0.1681 18.2457 0.0573 37.8646 0.1027
# 6 -0.0986 0.0759 -0.1070 -27.2768 0.1027 -9.7333
#
#
#
# Elastic Compliance Matrix: (Units=1/GPa)
#
#
# Indices 1 2 3 4 5 6 
#
# 1 0.007583 -0.002381 -0.000331 -0.000028 -0.002935 -0.000043
# 2 -0.002381 0.013489 -0.001249 0.000039 0.001517 0.000051
# 3 -0.000331 -0.001249 0.008104 -0.000028 -0.003764 -0.000056
# 4 -0.000028 0.000039 -0.000028 0.010242 0.000087 -0.028700
# 5 -0.002935 0.001517 -0.003764 0.000087 0.029418 0.000148
# 6 -0.000043 0.000051 -0.000056 -0.028700 0.000148 -0.022307
#
#
# Mechanical properties :
#
#
# Convention : Reuss Voigt Hill
#
# Bulk Modulus (GPa) = 47.05416 52.66577 49.85997
# Shear Modulus (GPa) = 81.25241 30.19362 55.72302
#
# Velocity S-wave (km/s) = 5.97841 3.64439 4.95091
# Velocity P-wave (km/s) = 8.26761 6.39339 7.39015
#
# Compressibility (1/GPa) = 0.02125211
#
# Stress axis : x y z
#
# Youngs Moduli (GPa) = 131.88058 74.13321 123.39937
#
# Poissons Ratio (x) = 0.17654 0.04086
# Poissons Ratio (y) = 0.31406 0.15416
# Poissons Ratio (z) = 0.04367 0.09261
#
# Static dielectric constant tensor:
#      x y z
#    x 1.849880 -0.000010 -0.056310 
#    y -0.000010 1.835350 -0.000020 
#    z -0.056310 -0.000020 1.873220 
# 
# From -- ./inp_files/206399.got.cif
#   From: 2010.05.17/outbox.cif.g08.bks.cpg/sg15_104_cif.got.tgz:206399.got - 2010.06.03 18:47:42.
