data_PCOD9307817
_publ_section_title
;
Structure prediction by ZEFSAII (Michael W. Deem and Ramdas Pophale) SiO2 
 PCOD9307817
Probable space group: C 2/C
;
_chemical_formula_sum "Si O2"
_cell_formula_units_Z 44
_cell_length_a 26.827455
_cell_length_b 9.012225
_cell_length_c 17.047718
_cell_angle_alpha 90.000000
_cell_angle_beta 156.455859
_cell_angle_gamma 90.000000
_cell_volume 1646.440779
_symmetry_space_group_name_H-M "C 2/C"
_symmetry_group_IT_number 15
_symmetry_cell_setting 'monoclinic'
loop_
_space_group_symop_operation_xyz
x,y,z
-x,y,1/2-z
-x,-y,-z
x,-y,1/2+z
1/2+x,1/2+y,z
1/2-x,1/2+y,1/2-z
1/2-x,1/2-y,-z
1/2+x,1/2-y,1/2+z
loop_
_atom_site_type_symbol
_atom_site_label
_atom_site_fract_x
_atom_site_fract_y
_atom_site_fract_z
Si Si1 0.832691 0.168954 0.868335
Si Si2 0.719276 0.004487 0.489004
Si Si3 0.494473 0.573318 0.889557
Si Si4 0.904265 0.374174 0.840028
Si Si5 0.000000 0.704766 0.750000
Si Si6 0.119786 0.294065 0.968359
O O1 0.902711 0.034105 0.926267
O O2 0.841209 0.317192 0.828425
O O3 0.685490 0.138940 0.641527
O O4 0.914305 0.204146 0.063393
O O5 0.868031 0.976977 0.699548
O O6 0.683349 0.049385 0.349919
O O7 0.712775 0.153778 0.533624
O O8 0.615471 0.886152 0.371731
O O9 0.467238 0.729555 0.891736
O O10 0.567667 0.634201 0.917852
O O11 0.000000 0.500000 0.000000
O O12 0.000000 0.360477 0.750000
#
# Coordination Sequence:
#
# PCOD9307817 Si02
#       6
#     8   8   8   8   4   8
#     4  12  30  49  79 118 169 211 274 350 409 497
#     4  12  25  52  83 115 166 216 280 336 415 504
#     4  12  28  50  80 122 160 216 278 337 417 491
#     4  12  24  48  79 114 155 215 272 329 412 487
#     4  12  28  52  76 126 172 218 268 350 430 480
#     4  12  26  49  83 113 155 219 278 332 404 495
#
# _framework density 26.724312000000001
#
# number of rings (size 3 to 8) (size 9 to 14) (size 15 to 20)
#    0.000    0.000    6.364    2.182    3.818    0.727 
#    3.273    0.000    0.000    0.000    0.000    0.000 
#    0.000    0.000    0.000    0.000    0.000    0.000 
#
# Total GULP energy -122553.192543 kJ/mol
# GULP energy per Si atom -5570.599661 kJ/mol
# Density = 2.666349 g / cm^3
# Si number density = 26.724312 Si / 1000 Ang^3
#
#
#
# Elastic Constant Matrix: (Units=GPa)
#
#
# Indices 1 2 3 4 5 6 
#
# 1 65.1693 23.0236 68.6032 0.0000 4.4014 0.0000
# 2 23.0236 85.7736 60.7538 0.0000 9.7010 0.0000
# 3 68.6032 60.7538 247.9896 0.0000 -8.9334 0.0000
# 4 0.0000 0.0000 0.0000 24.8937 0.0000 14.9643
# 5 4.4014 9.7010 -8.9334 0.0000 62.7533 0.0000
# 6 0.0000 0.0000 0.0000 14.9643 0.0000 32.1068
#
#
#
# Elastic Compliance Matrix: (Units=1/GPa)
#
#
# Indices 1 2 3 4 5 6 
#
# 1 0.022181 -0.001586 -0.005825 0.000000 -0.002140 0.000000
# 2 -0.001586 0.014685 -0.003253 0.000000 -0.002622 0.000000
# 3 -0.005825 -0.003253 0.006507 0.000000 0.001838 0.000000
# 4 0.000000 0.000000 0.000000 0.055806 0.000000 -0.026010
# 5 -0.002140 -0.002622 0.001838 0.000000 0.016752 0.000000
# 6 0.000000 0.000000 0.000000 -0.026010 0.000000 0.043269
#
#
# Mechanical properties :
#
#
# Convention : Reuss Voigt Hill
#
# Bulk Modulus (GPa) = 45.36200 78.18819 61.77509
# Shear Modulus (GPa) = 26.61315 40.38756 33.50036
#
# Velocity S-wave (km/s) = 3.15912 3.89172 3.54440
# Velocity P-wave (km/s) = 5.50614 7.03668 6.31793
#
# Compressibility (1/GPa) = 0.02204488
#
# Stress axis : x y z
#
# Youngs Moduli (GPa) = 45.08353 68.09542 153.68243
#
# Poissons Ratio (x) = 0.10802 0.89513
# Poissons Ratio (y) = 0.07152 0.49997
# Poissons Ratio (z) = 0.26259 0.22153
#
# Static dielectric constant tensor:
#      x y z
#    x 2.318420 0.000000 0.145370 
#    y 0.000000 2.069900 0.000000 
#    z 0.145370 0.000000 2.271210 
# 
# From -- ./inp_files/225426.got.cif
#   From: 2010.05.17/outbox.cif.g08.bks.cpg/sg15_113_cif.got.tgz:225426.got - 2010.06.03 18:47:42.
