data_PCOD9307377
_publ_section_title
;
Structure prediction by ZEFSAII (Michael W. Deem and Ramdas Pophale) SiO2 
 PCOD9307377
Probable space group: C 2/C
;
_chemical_formula_sum "Si O2"
_cell_formula_units_Z 48
_cell_length_a 11.285797
_cell_length_b 22.909354
_cell_length_c 9.486344
_cell_angle_alpha 90.000000
_cell_angle_beta 65.266060
_cell_angle_gamma 90.000000
_cell_volume 2227.688015
_symmetry_space_group_name_H-M "C 2/C"
_symmetry_group_IT_number 15
_symmetry_cell_setting 'monoclinic'
loop_
_space_group_symop_operation_xyz
x,y,z
-x,y,1/2-z
-x,-y,-z
x,-y,1/2+z
1/2+x,1/2+y,z
1/2-x,1/2+y,1/2-z
1/2-x,1/2-y,-z
1/2+x,1/2-y,1/2+z
loop_
_atom_site_type_symbol
_atom_site_label
_atom_site_fract_x
_atom_site_fract_y
_atom_site_fract_z
Si Si1 0.130332 0.111830 0.503469
Si Si2 0.405830 0.744621 0.924179
Si Si3 0.496437 0.155103 0.584091
Si Si4 0.211914 0.447893 0.336099
Si Si5 0.594773 0.551220 0.011877
Si Si6 0.281839 0.077806 0.157391
O O1 0.098548 0.174867 0.577600
O O2 0.173889 0.067677 0.606971
O O3 0.244031 0.101597 0.330582
O O4 0.997012 0.103296 0.485328
O O5 0.500000 0.764692 0.750000
O O6 0.250000 0.750000 0.000000
O O7 0.458171 0.784203 0.027692
O O8 0.500000 0.162526 0.750000
O O9 0.388964 0.105136 0.602133
O O10 0.631366 0.126550 0.461706
O O11 0.278080 0.449573 0.149898
O O12 0.153326 0.513142 0.378722
O O13 0.500000 0.500000 0.000000
O O14 0.648272 0.561271 0.141228
#
# Coordination Sequence:
#
# PCOD9307377 Si02
#       6
#     8   8   8   8   8   8
#     4  12  26  42  76 108 140 193 249 304 369 440
#     4  12  27  53  78 106 146 202 262 307 368 458
#     4  12  28  48  71 106 150 194 247 304 379 447
#     4  12  23  45  71 105 150 192 240 301 379 446
#     4  12  23  42  69 105 149 189 237 299 365 445
#     4  12  25  45  70 110 150 189 242 311 377 447
#
# _framework density 21.547004000000001
#
# number of rings (size 3 to 8) (size 9 to 14) (size 15 to 20)
#    0.000    0.000    6.667    3.500    0.000    1.333 
#    0.000    2.500    0.000    0.000    0.000    0.000 
#    0.000    0.000    0.000    0.000    0.000    0.000 
#
# Total GULP energy -133737.078884 kJ/mol
# GULP energy per Si atom -5572.378287 kJ/mol
# Density = 2.149796 g / cm^3
# Si number density = 21.547004 Si / 1000 Ang^3
#
#
#
# Elastic Constant Matrix: (Units=GPa)
#
#
# Indices 1 2 3 4 5 6 
#
# 1 68.3737 7.0339 16.5221 0.0000 -1.6097 0.0000
# 2 7.0339 67.4896 32.1086 0.0000 -4.4898 0.0000
# 3 16.5221 32.1086 101.2325 0.0000 9.5816 0.0000
# 4 0.0000 0.0000 0.0000 24.9343 0.0000 2.9979
# 5 -1.6097 -4.4898 9.5816 0.0000 29.7789 0.0000
# 6 0.0000 0.0000 0.0000 2.9979 0.0000 27.4490
#
#
#
# Elastic Compliance Matrix: (Units=1/GPa)
#
#
# Indices 1 2 3 4 5 6 
#
# 1 0.015311 -0.000267 -0.002567 0.000000 0.001613 0.000000
# 2 -0.000267 0.018074 -0.006132 0.000000 0.004684 0.000000
# 3 -0.002567 -0.006132 0.012731 0.000000 -0.005159 0.000000
# 4 0.000000 0.000000 0.000000 0.040639 0.000000 -0.004438
# 5 0.001613 0.004684 -0.005159 0.000000 0.036034 0.000000
# 6 0.000000 0.000000 0.000000 -0.004438 0.000000 0.036916
#
#
# Mechanical properties :
#
#
# Convention : Reuss Voigt Hill
#
# Bulk Modulus (GPa) = 35.48248 38.71390 37.09819
# Shear Modulus (GPa) = 26.73332 28.52785 27.63059
#
# Velocity S-wave (km/s) = 3.52618 3.64260 3.58486
# Velocity P-wave (km/s) = 5.75168 5.97475 5.86427
#
# Compressibility (1/GPa) = 0.02818292
#
# Stress axis : x y z
#
# Youngs Moduli (GPa) = 65.31146 55.32793 78.55103
#
# Poissons Ratio (x) = 0.01479 0.20163
# Poissons Ratio (y) = 0.01745 0.48170
# Poissons Ratio (z) = 0.16765 0.33929
#
# Static dielectric constant tensor:
#      x y z
#    x 1.631060 0.000000 -0.444500 
#    y 0.000000 1.625560 0.000000 
#    z -0.444500 0.000000 3.751980 
# 
# From -- ./inp_files/32533.got.cif
#   From: 2010.05.17/outbox.cif.g08.bks.cpg/sg15_17_cif.got.tgz:32533.got - 2010.06.03 18:47:42.
