data_PCOD9307749
_publ_section_title
;
Structure prediction by ZEFSAII (Michael W. Deem and Ramdas Pophale) SiO2 
 PCOD9307749
Probable space group: C 2/C
;
_chemical_formula_sum "Si O2"
_cell_formula_units_Z 52
_cell_length_a 18.015925
_cell_length_b 14.543545
_cell_length_c 14.365526
_cell_angle_alpha 90.000000
_cell_angle_beta 139.708556
_cell_angle_gamma 90.000000
_cell_volume 2434.081084
_symmetry_space_group_name_H-M "C 2/C"
_symmetry_group_IT_number 15
_symmetry_cell_setting 'monoclinic'
loop_
_space_group_symop_operation_xyz
x,y,z
-x,y,1/2-z
-x,-y,-z
x,-y,1/2+z
1/2+x,1/2+y,z
1/2-x,1/2+y,1/2-z
1/2-x,1/2-y,-z
1/2+x,1/2-y,1/2+z
loop_
_atom_site_type_symbol
_atom_site_label
_atom_site_fract_x
_atom_site_fract_y
_atom_site_fract_z
Si Si1 0.482068 0.057027 0.388208
Si Si2 0.759175 0.616985 0.883339
Si Si3 0.784557 0.674609 0.459028
Si Si4 0.363885 0.487373 0.606886
Si Si5 0.865320 0.997437 0.896094
Si Si6 0.225082 0.312783 0.763361
Si Si7 0.500000 0.923308 0.250000
O O1 0.607311 0.092305 0.478964
O O2 0.392460 0.137610 0.319282
O O3 0.500000 0.000000 0.500000
O O4 0.438598 0.988470 0.266491
O O5 0.691817 0.582375 0.910235
O O6 0.705451 0.556968 0.746643
O O7 0.747124 0.723366 0.845770
O O8 0.750000 0.750000 0.500000
O O9 0.695457 0.590732 0.386879
O O10 0.784351 0.712412 0.354681
O O11 0.908789 0.635666 0.605789
O O12 0.500000 0.490350 0.750000
O O13 0.344122 0.466127 0.479917
O O14 0.821382 0.892281 0.857922
O O15 0.000000 0.000000 0.000000
#
# Coordination Sequence:
#
# PCOD9307749 Si02
#       7
#     8   8   8   8   8   8   4
#     4  12  24  48  73 100 149 191 242 296 359 437
#     4  12  27  47  71 108 145 189 245 298 362 437
#     4  12  26  44  72 112 140 187 245 302 363 426
#     4  12  24  47  71 101 148 185 236 296 366 430
#     4  12  24  47  72 100 145 188 232 298 362 427
#     4  12  27  46  74 106 144 193 242 295 366 431
#     4  12  24  48  74 104 148 192 238 304 366 412
#
# _framework density 21.363299000000001
#
# number of rings (size 3 to 8) (size 9 to 14) (size 15 to 20)
#    0.000    0.000    7.692    1.846    5.385    0.615 
#    1.385    0.000    0.000    0.000    0.000    0.000 
#    0.000    0.000    0.000    0.000    0.000    0.000 
#
# Total GULP energy -145605.858497 kJ/mol
# GULP energy per Si atom -5600.225327 kJ/mol
# Density = 2.131468 g / cm^3
# Si number density = 21.363299 Si / 1000 Ang^3
#
#
#
# Elastic Constant Matrix: (Units=GPa)
#
#
# Indices 1 2 3 4 5 6 
#
# 1 86.1022 3.5129 25.5414 0.0000 14.0474 0.0000
# 2 3.5129 93.0823 6.7458 0.0000 21.0945 0.0000
# 3 25.5414 6.7458 61.2471 0.0000 26.8916 0.0000
# 4 0.0000 0.0000 0.0000 24.6576 0.0000 -10.1567
# 5 14.0474 21.0945 26.8916 0.0000 54.5223 0.0000
# 6 0.0000 0.0000 0.0000 -10.1567 0.0000 19.0788
#
#
#
# Elastic Compliance Matrix: (Units=1/GPa)
#
#
# Indices 1 2 3 4 5 6 
#
# 1 0.013287 0.000079 -0.005148 0.000000 -0.000915 0.000000
# 2 0.000079 0.011815 0.000870 0.000000 -0.005021 0.000000
# 3 -0.005148 0.000870 0.022904 0.000000 -0.010307 0.000000
# 4 0.000000 0.000000 0.000000 0.051947 0.000000 0.027654
# 5 -0.000915 -0.005021 -0.010307 0.000000 0.025603 0.000000
# 6 0.000000 0.000000 0.000000 0.027654 0.000000 0.067136
#
#
# Mechanical properties :
#
#
# Convention : Reuss Voigt Hill
#
# Bulk Modulus (GPa) = 25.24742 34.67020 29.95881
# Shear Modulus (GPa) = 23.33262 33.29383 28.31323
#
# Velocity S-wave (km/s) = 3.30840 3.95202 3.64445
# Velocity P-wave (km/s) = 5.14177 6.09005 5.63589
#
# Compressibility (1/GPa) = 0.03960801
#
# Stress axis : x y z
#
# Youngs Moduli (GPa) = 75.26006 84.63861 43.66089
#
# Poissons Ratio (x) = -0.00668 0.22477
# Poissons Ratio (y) = -0.00594 -0.03799
# Poissons Ratio (z) = 0.38745 -0.07365
#
# Static dielectric constant tensor:
#      x y z
#    x 1.888770 0.000000 0.075460 
#    y 0.000000 1.760280 0.000000 
#    z 0.075460 0.000000 1.843450 
# 
# From -- ./inp_files/162464.got.cif
#   From: 2010.05.17/outbox.cif.g08.bks.cpg/sg15_82_cif.got.tgz:162464.got - 2010.06.03 18:47:42.
