data_PCOD9307125
_publ_section_title
;
Structure prediction by ZEFSAII (Michael W. Deem and Ramdas Pophale) SiO2 
 PCOD9307125
Probable space group: C 2/C
;
_chemical_formula_sum "Si O2"
_cell_formula_units_Z 36
_cell_length_a 13.758523
_cell_length_b 24.375542
_cell_length_c 12.947730
_cell_angle_alpha 90.000000
_cell_angle_beta 158.552459
_cell_angle_gamma 90.000000
_cell_volume 1587.758172
_symmetry_space_group_name_H-M "C 2/C"
_symmetry_group_IT_number 15
_symmetry_cell_setting 'monoclinic'
loop_
_space_group_symop_operation_xyz
x,y,z
-x,y,1/2-z
-x,-y,-z
x,-y,1/2+z
1/2+x,1/2+y,z
1/2-x,1/2+y,1/2-z
1/2-x,1/2-y,-z
1/2+x,1/2-y,1/2+z
loop_
_atom_site_type_symbol
_atom_site_label
_atom_site_fract_x
_atom_site_fract_y
_atom_site_fract_z
Si Si1 0.500000 0.791932 0.750000
Si Si2 0.051482 0.376929 0.609936
Si Si3 0.500000 0.189455 0.750000
Si Si4 0.071814 0.937056 0.052346
Si Si5 0.500000 0.610442 0.250000
Si Si6 0.326571 0.776466 0.286680
O O1 0.250000 0.750000 0.500000
O O2 0.523636 0.835586 0.679192
O O3 0.942096 0.336000 0.415436
O O4 0.344314 0.398885 0.879078
O O5 0.841929 0.425801 0.384601
O O6 0.629534 0.227700 0.790708
O O7 0.255027 0.148679 0.478673
O O8 0.068200 0.922634 0.924749
O O9 0.000000 0.000000 0.000000
O O10 0.533732 0.732883 0.537891
#
# Coordination Sequence:
#
# PCOD9307125 Si02
#       6
#     4   8   4   8   4   8
#     4  12  26  48  76 106 142 192 244 304 368 430
#     4  12  25  46  69 100 140 180 235 295 351 412
#     4  12  22  39  63  94 134 179 208 259 334 392
#     4  12  26  46  73 101 135 187 236 292 356 419
#     4  12  22  45  67  96 140 171 212 287 342 396
#     4  12  22  37  61  95 134 172 213 256 323 410
#
# _framework density 22.673477999999999
#
# number of rings (size 3 to 8) (size 9 to 14) (size 15 to 20)
#    0.000    0.000    4.444    6.667    0.000    1.778 
#    0.000    0.000    0.000    0.000    0.000    0.000 
#    0.000    0.000    0.000    0.000    0.000    0.000 
#
# Total GULP energy -100424.115200 kJ/mol
# GULP energy per Si atom -5579.117511 kJ/mol
# Density = 2.262187 g / cm^3
# Si number density = 22.673478 Si / 1000 Ang^3
#
#
#
# Elastic Constant Matrix: (Units=GPa)
#
#
# Indices 1 2 3 4 5 6 
#
# 1 121.0077 35.1456 26.6720 0.0003 -6.7674 0.0000
# 2 35.1456 100.8742 6.5160 -0.0005 0.3562 0.0000
# 3 26.6720 6.5160 42.4635 0.0022 -9.8102 0.0003
# 4 0.0003 -0.0005 0.0022 48.6452 0.0009 1.1869
# 5 -6.7674 0.3562 -9.8102 0.0009 15.1005 -0.0002
# 6 0.0000 0.0000 0.0003 1.1869 -0.0002 28.4345
#
#
#
# Elastic Compliance Matrix: (Units=1/GPa)
#
#
# Indices 1 2 3 4 5 6 
#
# 1 0.010583 -0.003309 -0.005913 0.000000 0.000979 0.000000
# 2 -0.003309 0.011074 -0.000028 0.000000 -0.001762 0.000000
# 3 -0.005913 -0.000028 0.031364 -0.000002 0.017726 0.000000
# 4 0.000000 0.000000 -0.000002 0.020578 -0.000002 -0.000859
# 5 0.000979 -0.001762 0.017726 -0.000002 0.078219 0.000000
# 6 0.000000 0.000000 0.000000 -0.000859 0.000000 0.035204
#
#
# Mechanical properties :
#
#
# Convention : Reuss Voigt Hill
#
# Bulk Modulus (GPa) = 28.96873 44.55694 36.76284
# Shear Modulus (GPa) = 23.03830 31.50350 27.27090
#
# Velocity S-wave (km/s) = 3.19107 3.73157 3.47185
# Velocity P-wave (km/s) = 5.13629 6.18550 5.68515
#
# Compressibility (1/GPa) = 0.03451998
#
# Stress axis : x y z
#
# Youngs Moduli (GPa) = 94.49010 90.30009 31.88419
#
# Poissons Ratio (x) = 0.29878 0.18855
# Poissons Ratio (y) = 0.31264 0.00090
# Poissons Ratio (z) = 0.55876 0.00255
#
# Static dielectric constant tensor:
#      x y z
#    x 2.108840 0.000000 -0.196330 
#    y 0.000000 1.848470 0.000000 
#    z -0.196330 0.000000 2.016620 
# 
# From -- ./inp_files/7427.got.cif
#   From: 2010.05.17/outbox.cif.g08.bks.cpg/sg15_4_cif.got.tgz:7427.got - 2010.06.03 18:47:42.
