data_PCOD9307887
_publ_section_title
;
Structure prediction by ZEFSAII (Michael W. Deem and Ramdas Pophale) SiO2 
 PCOD9307887
Probable space group: C 2/C
;
_chemical_formula_sum "Si O2"
_cell_formula_units_Z 32
_cell_length_a 4.654543
_cell_length_b 17.998064
_cell_length_c 18.252605
_cell_angle_alpha 90.000000
_cell_angle_beta 63.931611
_cell_angle_gamma 90.000000
_cell_volume 1373.518987
_symmetry_space_group_name_H-M "C 2/C"
_symmetry_group_IT_number 15
_symmetry_cell_setting 'monoclinic'
loop_
_space_group_symop_operation_xyz
x,y,z
-x,y,1/2-z
-x,-y,-z
x,-y,1/2+z
1/2+x,1/2+y,z
1/2-x,1/2+y,1/2-z
1/2-x,1/2-y,-z
1/2+x,1/2-y,1/2+z
loop_
_atom_site_type_symbol
_atom_site_label
_atom_site_fract_x
_atom_site_fract_y
_atom_site_fract_z
Si Si1 0.249710 0.937908 0.444938
Si Si2 0.750282 0.235648 0.342167
Si Si3 0.872982 0.199444 0.054455
Si Si4 0.529926 0.600548 0.660756
O O1 0.630367 0.925593 0.412213
O O2 0.089171 0.865034 0.498259
O O3 0.226578 0.941237 0.359703
O O4 0.000000 0.000000 0.500000
O O5 0.470944 0.174346 0.375702
O O6 0.935178 0.236388 0.399348
O O7 0.567226 0.312883 0.342788
O O8 0.000000 0.222697 0.250000
O O9 0.750000 0.250000 0.000000
O O10 0.500000 0.588052 0.750000
#
# Coordination Sequence:
#
# PCOD9307887 Si02
#       4
#     8   8   8   8
#     4  12  27  47  68 103 144 192 241 287 355 443
#     4  12  25  42  69 109 141 177 238 302 363 417
#     4  12  25  42  70 102 141 182 232 298 366 415
#     4  12  25  44  73 104 138 184 242 297 358 426
#
# _framework density 23.297820999999999
#
# number of rings (size 3 to 8) (size 9 to 14) (size 15 to 20)
#    0.000    0.000    2.500    9.000    0.000    0.000 
#    0.000    7.500    0.000    0.000    0.000    0.000 
#    0.000    0.000    0.000    0.000    0.000    0.000 
#
# Total GULP energy -89257.703915 kJ/mol
# GULP energy per Si atom -5578.606495 kJ/mol
# Density = 2.324479 g / cm^3
# Si number density = 23.297821 Si / 1000 Ang^3
#
#
#
# Elastic Constant Matrix: (Units=GPa)
#
#
# Indices 1 2 3 4 5 6 
#
# 1 167.1031 26.9633 53.7768 0.0000 -3.8820 0.0000
# 2 26.9633 40.9711 36.4936 0.0000 4.5127 0.0000
# 3 53.7768 36.4936 136.6455 0.0000 -9.1863 0.0000
# 4 0.0000 0.0000 0.0000 26.8563 0.0000 -9.1237
# 5 -3.8820 4.5127 -9.1863 0.0000 68.8605 0.0000
# 6 0.0000 0.0000 0.0000 -9.1237 0.0000 23.6503
#
#
#
# Elastic Compliance Matrix: (Units=1/GPa)
#
#
# Indices 1 2 3 4 5 6 
#
# 1 0.007107 -0.002941 -0.001989 0.000000 0.000328 0.000000
# 2 -0.002941 0.033989 -0.008154 0.000000 -0.003481 0.000000
# 3 -0.001989 -0.008154 0.010400 0.000000 0.001810 0.000000
# 4 0.000000 0.000000 0.000000 0.042851 0.000000 0.016531
# 5 0.000328 -0.003481 0.001810 0.000000 0.015010 0.000000
# 6 0.000000 0.000000 0.000000 0.016531 0.000000 0.048660
#
#
# Mechanical properties :
#
#
# Convention : Reuss Voigt Hill
#
# Bulk Modulus (GPa) = 39.48269 64.35410 51.91839
# Shear Modulus (GPa) = 25.95660 39.03915 32.49788
#
# Velocity S-wave (km/s) = 3.34147 4.09792 3.73887
# Velocity P-wave (km/s) = 5.64543 7.07622 6.40093
#
# Compressibility (1/GPa) = 0.02532755
#
# Stress axis : x y z
#
# Youngs Moduli (GPa) = 140.71184 29.42100 96.15003
#
# Poissons Ratio (x) = 0.08653 0.19127
# Poissons Ratio (y) = 0.41386 0.78400
# Poissons Ratio (z) = 0.27992 0.23990
#
# Static dielectric constant tensor:
#      x y z
#    x 1.913610 0.000000 -0.040150 
#    y 0.000000 1.948730 0.000000 
#    z -0.040150 0.000000 1.997050 
# 
# From -- ./inp_files/227664.got.cif
#   From: 2010.05.17/outbox.cif.g08.bks.cpg/sg15_114_cif.got.tgz:227664.got - 2010.06.03 18:47:42.
