data_PCOD9307518
_publ_section_title
;
Structure prediction by ZEFSAII (Michael W. Deem and Ramdas Pophale) SiO2 
 PCOD9307518
Probable space group: C 2/C
;
_chemical_formula_sum "Si O2"
_cell_formula_units_Z 40
_cell_length_a 8.939288
_cell_length_b 14.291452
_cell_length_c 14.127869
_cell_angle_alpha 90.000000
_cell_angle_beta 109.223383
_cell_angle_gamma 90.000000
_cell_volume 1704.273509
_symmetry_space_group_name_H-M "C 2/C"
_symmetry_group_IT_number 15
_symmetry_cell_setting 'monoclinic'
loop_
_space_group_symop_operation_xyz
x,y,z
-x,y,1/2-z
-x,-y,-z
x,-y,1/2+z
1/2+x,1/2+y,z
1/2-x,1/2+y,1/2-z
1/2-x,1/2-y,-z
1/2+x,1/2-y,1/2+z
loop_
_atom_site_type_symbol
_atom_site_label
_atom_site_fract_x
_atom_site_fract_y
_atom_site_fract_z
Si Si1 0.927877 0.746574 0.003017
Si Si2 0.128587 0.575560 0.056111
Si Si3 0.853399 0.246125 0.278512
Si Si4 0.813300 0.442545 0.731611
Si Si5 0.313437 0.389165 0.403083
O O1 0.924825 0.717393 0.891802
O O2 0.750000 0.750000 0.000000
O O3 0.032088 0.665817 0.072745
O O4 0.015842 0.843612 0.043576
O O5 0.220054 0.534984 0.165189
O O6 0.232686 0.607865 0.989564
O O7 0.000000 0.500000 0.000000
O O8 0.734656 0.165380 0.287504
O O9 0.776114 0.322977 0.193020
O O10 0.000000 0.203941 0.250000
O O11 0.706792 0.507442 0.642920
O O12 0.000000 0.460539 0.750000
#
# Coordination Sequence:
#
# PCOD9307518 Si02
#       5
#     8   8   8   8   8
#     4  12  27  47  75 109 151 199 252 316 384 451
#     4  12  23  47  79 105 148 203 254 309 385 458
#     4  12  25  48  75 106 148 199 253 309 386 459
#     4  12  25  46  75 109 150 200 253 313 382 458
#     4  12  26  50  75 110 154 202 255 314 382 464
#
# _framework density 23.470412
#
# number of rings (size 3 to 8) (size 9 to 14) (size 15 to 20)
#    0.000    0.000    6.000    4.800    0.000    0.800 
#    7.200    0.000    0.000    0.000    0.000    0.000 
#    0.000    0.000    0.000    0.000    0.000    0.000 
#
# Total GULP energy -111949.894834 kJ/mol
# GULP energy per Si atom -5597.494742 kJ/mol
# Density = 2.341699 g / cm^3
# Si number density = 23.470412 Si / 1000 Ang^3
#
#
#
# Elastic Constant Matrix: (Units=GPa)
#
#
# Indices 1 2 3 4 5 6 
#
# 1 122.2338 36.0504 49.8636 0.0000 -8.7940 0.0000
# 2 36.0504 80.4153 14.2859 0.0000 -3.9169 0.0000
# 3 49.8636 14.2859 126.0822 0.0000 -11.6517 0.0000
# 4 0.0000 0.0000 0.0000 49.9363 0.0000 6.1827
# 5 -8.7940 -3.9169 -11.6517 0.0000 27.2664 0.0000
# 6 0.0000 0.0000 0.0000 6.1827 0.0000 34.5702
#
#
#
# Elastic Compliance Matrix: (Units=1/GPa)
#
#
# Indices 1 2 3 4 5 6 
#
# 1 0.011062 -0.004224 -0.003772 0.000000 0.001349 0.000000
# 2 -0.004224 0.014345 0.000114 0.000000 0.000747 0.000000
# 3 -0.003772 0.000114 0.009682 0.000000 0.002937 0.000000
# 4 0.000000 0.000000 0.000000 0.020479 0.000000 -0.003663
# 5 0.001349 0.000747 0.002937 0.000000 0.038473 0.000000
# 6 0.000000 0.000000 0.000000 -0.003663 0.000000 0.029582
#
#
# Mechanical properties :
#
#
# Convention : Reuss Voigt Hill
#
# Bulk Modulus (GPa) = 51.74272 58.79233 55.26753
# Shear Modulus (GPa) = 34.28718 37.59000 35.93859
#
# Velocity S-wave (km/s) = 3.82628 4.00633 3.91734
# Velocity P-wave (km/s) = 6.45092 6.81945 6.63774
#
# Compressibility (1/GPa) = 0.01932639
#
# Stress axis : x y z
#
# Youngs Moduli (GPa) = 90.39631 69.71070 103.28961
#
# Poissons Ratio (x) = 0.29442 0.38958
# Poissons Ratio (y) = 0.38179 -0.01178
# Poissons Ratio (z) = 0.34095 -0.00795
#
# Static dielectric constant tensor:
#      x y z
#    x 1.837980 0.000000 0.006270 
#    y 0.000000 1.946120 0.000000 
#    z 0.006270 0.000000 1.994470 
# 
# From -- ./inp_files/133098.got.cif
#   From: 2010.05.17/outbox.cif.g08.bks.cpg/sg15_67_cif.got.tgz:133098.got - 2010.06.03 18:47:42.
