data_PCOD9307917
_publ_section_title
;
Structure prediction by ZEFSAII (Michael W. Deem and Ramdas Pophale) SiO2 
 PCOD9307917
Probable space group: C 2/C
;
_chemical_formula_sum "Si O2"
_cell_formula_units_Z 28
_cell_length_a 11.004130
_cell_length_b 20.504766
_cell_length_c 10.471187
_cell_angle_alpha 90.000000
_cell_angle_beta 26.601171
_cell_angle_gamma 90.000000
_cell_volume 1057.958371
_symmetry_space_group_name_H-M "C 2/C"
_symmetry_group_IT_number 15
_symmetry_cell_setting 'monoclinic'
loop_
_space_group_symop_operation_xyz
x,y,z
-x,y,1/2-z
-x,-y,-z
x,-y,1/2+z
1/2+x,1/2+y,z
1/2-x,1/2+y,1/2-z
1/2-x,1/2-y,-z
1/2+x,1/2-y,1/2+z
loop_
_atom_site_type_symbol
_atom_site_label
_atom_site_fract_x
_atom_site_fract_y
_atom_site_fract_z
Si Si1 0.786484 0.854453 0.207802
Si Si2 0.326485 0.014733 0.791458
Si Si3 0.000000 0.905576 0.250000
Si Si4 0.207926 0.191149 0.143106
O O1 0.856496 0.925851 0.084749
O O2 0.492405 0.837117 0.424790
O O3 0.805962 0.863601 0.340758
O O4 0.017985 0.803204 0.947069
O O5 0.500000 0.038710 0.750000
O O6 0.500000 0.000000 0.500000
O O7 0.178015 0.952663 0.992310
O O8 0.000000 0.149282 0.250000
O O9 0.250000 0.250000 0.000000
#
# Coordination Sequence:
#
# PCOD9307917 Si02
#       4
#     8   8   4   8
#     4  12  27  45  80 116 168 220 265 343 425 485
#     4  12  25  45  72 116 178 233 277 331 405 519
#     4  12  28  46  74 124 180 220 272 324 424 530
#     4  12  26  50  80 114 146 203 288 359 411 479
#
# _framework density 26.466069000000001
#
# number of rings (size 3 to 8) (size 9 to 14) (size 15 to 20)
#    0.000    0.000    2.857    7.714    6.000    0.000 
#    0.000    0.000    0.000   17.143    0.000    0.000 
#    0.000    0.000    0.000    0.000    0.000    0.000 
#
# Total GULP energy -78122.588871 kJ/mol
# GULP energy per Si atom -5580.184919 kJ/mol
# Density = 2.640583 g / cm^3
# Si number density = 26.466069 Si / 1000 Ang^3
#
#
#
# Elastic Constant Matrix: (Units=GPa)
#
#
# Indices 1 2 3 4 5 6 
#
# 1 274.4851 64.3392 88.5857 -0.0026 12.7504 0.0129
# 2 64.3392 91.8258 65.6328 0.0006 17.1514 -0.0017
# 3 88.5857 65.6328 203.0319 -0.0030 5.1652 0.0126
# 4 -0.0026 0.0006 -0.0030 53.9352 0.0011 -6.5160
# 5 12.7504 17.1514 5.1652 0.0011 60.4446 -0.0045
# 6 0.0129 -0.0017 0.0126 -6.5160 -0.0045 24.5209
#
#
#
# Elastic Compliance Matrix: (Units=1/GPa)
#
#
# Indices 1 2 3 4 5 6 
#
# 1 0.004594 -0.002276 -0.001263 0.000000 -0.000215 -0.000002
# 2 -0.002276 0.016134 -0.004127 0.000000 -0.003745 0.000004
# 3 -0.001263 -0.004127 0.006789 0.000000 0.000858 -0.000003
# 4 0.000000 0.000000 0.000000 0.019156 0.000000 0.005090
# 5 -0.000215 -0.003745 0.000858 0.000000 0.017579 0.000003
# 6 -0.000002 0.000004 -0.000003 0.005090 0.000003 0.042134
#
#
# Mechanical properties :
#
#
# Convention : Reuss Voigt Hill
#
# Bulk Modulus (GPa) = 82.07156 111.82869 96.95012
# Shear Modulus (GPa) = 39.75141 51.16582 45.45861
#
# Velocity S-wave (km/s) = 3.87974 4.40166 4.14891
# Velocity P-wave (km/s) = 7.15173 8.25700 7.72416
#
# Compressibility (1/GPa) = 0.01218449
#
# Stress axis : x y z
#
# Youngs Moduli (GPa) = 217.65607 61.97914 147.29710
#
# Poissons Ratio (x) = 0.14106 0.18610
# Poissons Ratio (y) = 0.49536 0.60795
# Poissons Ratio (z) = 0.27499 0.25581
#
# Static dielectric constant tensor:
#      x y z
#    x 2.200570 0.000000 -0.076970 
#    y 0.000000 2.293740 0.000000 
#    z -0.076970 0.000000 2.292140 
# 
# From -- ./inp_files/29997.got.cif
#   From: 2010.05.17/outbox.cif.g08.bks.cpg/sg15_15_cif.got.tgz:29997.got - 2010.06.03 18:47:42.
