data_PCOD9307297
_publ_section_title
;
Structure prediction by ZEFSAII (Michael W. Deem and Ramdas Pophale) SiO2 
 PCOD9307297
Probable space group: C 2/C
;
_chemical_formula_sum "Si O2"
_cell_formula_units_Z 64
_cell_length_a 19.457672
_cell_length_b 14.633000
_cell_length_c 11.812014
_cell_angle_alpha 90.000000
_cell_angle_beta 88.126556
_cell_angle_gamma 90.000000
_cell_volume 3361.367532
_symmetry_space_group_name_H-M "C 2/C"
_symmetry_group_IT_number 15
_symmetry_cell_setting 'monoclinic'
loop_
_space_group_symop_operation_xyz
x,y,z
-x,y,1/2-z
-x,-y,-z
x,-y,1/2+z
1/2+x,1/2+y,z
1/2-x,1/2+y,1/2-z
1/2-x,1/2-y,-z
1/2+x,1/2-y,1/2+z
loop_
_atom_site_type_symbol
_atom_site_label
_atom_site_fract_x
_atom_site_fract_y
_atom_site_fract_z
Si Si1 0.102169 0.750980 0.937090
Si Si2 0.669104 0.762531 0.680209
Si Si3 0.781881 0.912685 0.181530
Si Si4 0.570247 0.100253 0.316582
Si Si5 0.874353 0.401986 0.244823
Si Si6 0.447660 0.812700 0.447336
Si Si7 0.194886 0.874826 0.792551
Si Si8 0.184537 0.187817 0.035003
O O1 0.129234 0.664460 0.862838
O O2 0.130456 0.838710 0.868355
O O3 0.020195 0.738732 0.941140
O O4 0.131890 0.749820 0.062023
O O5 0.688147 0.665694 0.736990
O O6 0.619935 0.820389 0.766340
O O7 0.737879 0.823462 0.661267
O O8 0.699410 0.901659 0.190140
O O9 0.798231 0.016625 0.210605
O O10 0.810736 0.893334 0.055091
O O11 0.500000 0.103043 0.250000
O O12 0.553415 0.116558 0.448733
O O13 0.606181 0.003262 0.294362
O O14 0.929727 0.363069 0.331011
O O15 0.385673 0.743068 0.473504
O O16 0.189875 0.841478 0.664022
O O17 0.250000 0.250000 0.000000
#
# Coordination Sequence:
#
# PCOD9307297 Si02
#       8
#     8   8   8   8   8   8   8   8
#     4  12  26  44  68  99 139 181 221 286 341 399
#     4  12  24  45  67  97 138 181 221 277 342 402
#     4  12  26  43  71 105 131 178 235 281 337 406
#     4  12  25  43  67 103 139 182 218 272 354 414
#     4  12  26  41  71 104 137 175 226 284 343 413
#     4  12  24  45  72  94 141 182 230 277 338 413
#     4  12  26  44  70 101 136 179 229 285 335 400
#     4  12  22  46  72  96 131 183 229 276 336 402
#
# _framework density 19.039868999999999
#
# number of rings (size 3 to 8) (size 9 to 14) (size 15 to 20)
#    0.000    0.000    8.750    1.500    3.500    1.000 
#    0.000    0.625    5.500    0.000    0.000    0.000 
#    0.000    0.000    0.000    0.000    0.000    0.000 
#
# Total GULP energy -179046.169327 kJ/mol
# GULP energy per Si atom -5595.192791 kJ/mol
# Density = 1.899653 g / cm^3
# Si number density = 19.039869 Si / 1000 Ang^3
#
#
#
# Elastic Constant Matrix: (Units=GPa)
#
#
# Indices 1 2 3 4 5 6 
#
# 1 105.6965 50.6921 32.2401 0.0000 -3.0560 0.0000
# 2 50.6921 112.6112 19.4052 0.0000 6.4331 0.0000
# 3 32.2401 19.4052 96.7026 0.0000 12.0309 0.0000
# 4 0.0000 0.0000 0.0000 25.2901 0.0000 -10.9475
# 5 -3.0560 6.4331 12.0309 0.0000 33.5196 0.0000
# 6 0.0000 0.0000 0.0000 -10.9475 0.0000 26.4360
#
#
#
# Elastic Compliance Matrix: (Units=1/GPa)
#
#
# Indices 1 2 3 4 5 6 
#
# 1 0.013408 -0.005589 -0.003804 0.000000 0.003660 0.000000
# 2 -0.005589 0.011571 -0.000124 0.000000 -0.002686 0.000000
# 3 -0.003804 -0.000124 0.012220 0.000000 -0.004709 0.000000
# 4 0.000000 0.000000 0.000000 0.048177 0.000000 0.019951
# 5 0.003660 -0.002686 -0.004709 0.000000 0.032373 0.000000
# 6 0.000000 0.000000 0.000000 0.019951 0.000000 0.046089
#
#
# Mechanical properties :
#
#
# Convention : Reuss Voigt Hill
#
# Bulk Modulus (GPa) = 55.05463 57.74277 56.39870
# Shear Modulus (GPa) = 26.46523 31.22734 28.84628
#
# Velocity S-wave (km/s) = 3.73230 4.05421 3.89658
# Velocity P-wave (km/s) = 6.89577 7.23247 7.06613
#
# Compressibility (1/GPa) = 0.01816378
#
# Stress axis : x y z
#
# Youngs Moduli (GPa) = 74.58398 86.42358 81.83314
#
# Poissons Ratio (x) = 0.48303 0.31128
# Poissons Ratio (y) = 0.41686 0.01018
# Poissons Ratio (z) = 0.28371 0.01075
#
# Static dielectric constant tensor:
#      x y z
#    x 1.659500 0.000000 -0.004100 
#    y 0.000000 1.652560 0.000000 
#    z -0.004100 0.000000 1.666010 
# 
# From -- ./inp_files/105730.got.cif
#   From: 2010.05.17/outbox.cif.g08.bks.cpg/sg15_53_cif.got.tgz:105730.got - 2010.06.03 18:47:42.
