data_PCOD9307898
_publ_section_title
;
Structure prediction by ZEFSAII (Michael W. Deem and Ramdas Pophale) SiO2 
 PCOD9307898
Probable space group: C 2/C
;
_chemical_formula_sum "Si O2"
_cell_formula_units_Z 40
_cell_length_a 21.415902
_cell_length_b 9.052812
_cell_length_c 9.287231
_cell_angle_alpha 90.000000
_cell_angle_beta 82.551490
_cell_angle_gamma 90.000000
_cell_volume 1785.360369
_symmetry_space_group_name_H-M "C 2/C"
_symmetry_group_IT_number 15
_symmetry_cell_setting 'monoclinic'
loop_
_space_group_symop_operation_xyz
x,y,z
-x,y,1/2-z
-x,-y,-z
x,-y,1/2+z
1/2+x,1/2+y,z
1/2-x,1/2+y,1/2-z
1/2-x,1/2-y,-z
1/2+x,1/2-y,1/2+z
loop_
_atom_site_type_symbol
_atom_site_label
_atom_site_fract_x
_atom_site_fract_y
_atom_site_fract_z
Si Si1 0.541455 0.596409 0.097731
Si Si2 0.739496 0.403172 0.417970
Si Si3 0.562016 0.909109 0.940163
Si Si4 0.836193 0.093808 0.846706
Si Si5 0.860175 0.570215 0.359405
O O1 0.500000 0.636651 0.250000
O O2 0.558660 0.744432 0.005290
O O3 0.601023 0.501877 0.138733
O O4 0.500000 0.500000 0.000000
O O5 0.750000 0.250000 0.500000
O O6 0.717952 0.517643 0.545078
O O7 0.685076 0.397296 0.313337
O O8 0.801770 0.470469 0.324854
O O9 0.618271 0.989878 0.004298
O O10 0.581269 0.918398 0.768300
O O11 0.500000 0.000000 0.000000
O O12 0.842857 0.261600 0.894163
#
# Coordination Sequence:
#
# PCOD9307898 Si02
#       5
#     8   8   8   8   8
#     4  12  25  45  72 105 142 185 235 290 349 419
#     4  12  26  46  71 103 140 181 233 290 351 420
#     4  12  26  45  68  99 136 181 230 286 348 414
#     4  12  25  44  70 102 138 183 230 286 351 418
#     4  12  25  44  67  97 135 178 227 284 345 413
#
# _framework density 22.404440000000001
#
# number of rings (size 3 to 8) (size 9 to 14) (size 15 to 20)
#    0.000    0.000    0.000   12.000    0.000    3.200 
#    0.000    0.000    0.000    0.000    0.000    0.000 
#    0.000    0.000    0.000    0.000    0.000    0.000 
#
# Total GULP energy -111988.802582 kJ/mol
# GULP energy per Si atom -5599.440129 kJ/mol
# Density = 2.235345 g / cm^3
# Si number density = 22.404440 Si / 1000 Ang^3
#
#
#
# Elastic Constant Matrix: (Units=GPa)
#
#
# Indices 1 2 3 4 5 6 
#
# 1 115.8319 50.9420 21.8752 0.0000 4.6160 0.0000
# 2 50.9420 179.0563 40.9702 0.0000 -2.0666 0.0000
# 3 21.8752 40.9702 107.3964 0.0000 -4.8893 0.0000
# 4 0.0000 0.0000 0.0000 26.8465 0.0000 -2.8540
# 5 4.6160 -2.0666 -4.8893 0.0000 54.0288 0.0000
# 6 0.0000 0.0000 0.0000 -2.8540 0.0000 48.1678
#
#
#
# Elastic Compliance Matrix: (Units=1/GPa)
#
#
# Indices 1 2 3 4 5 6 
#
# 1 0.010032 -0.002616 -0.001093 0.000000 -0.001056 0.000000
# 2 -0.002616 0.006801 -0.002048 0.000000 0.000298 0.000000
# 3 -0.001093 -0.002048 0.010359 0.000000 0.000952 0.000000
# 4 0.000000 0.000000 0.000000 0.037485 0.000000 0.002221
# 5 -0.001056 0.000298 0.000952 0.000000 0.018696 0.000000
# 6 0.000000 0.000000 0.000000 0.002221 0.000000 0.020892
#
#
# Mechanical properties :
#
#
# Convention : Reuss Voigt Hill
#
# Bulk Modulus (GPa) = 63.78896 69.98439 66.88667
# Shear Modulus (GPa) = 41.31980 45.04175 43.18077
#
# Velocity S-wave (km/s) = 4.29915 4.48861 4.39490
# Velocity P-wave (km/s) = 7.29226 7.62680 7.46140
#
# Compressibility (1/GPa) = 0.01567669
#
# Stress axis : x y z
#
# Youngs Moduli (GPa) = 99.67705 147.03212 96.53707
#
# Poissons Ratio (x) = 0.38467 0.10556
# Poissons Ratio (y) = 0.26078 0.19772
# Poissons Ratio (z) = 0.10900 0.30114
#
# Static dielectric constant tensor:
#      x y z
#    x 2.025160 0.000000 -0.053810 
#    y 0.000000 1.884110 0.000000 
#    z -0.053810 0.000000 1.823710 
# 
# From -- ./inp_files/59956.got.cif
#   From: 2010.05.17/outbox.cif.g08.bks.cpg/sg15_30_cif.got.tgz:59956.got - 2010.06.03 18:47:42.
