data_PCOD9307894
_publ_section_title
;
Structure prediction by ZEFSAII (Michael W. Deem and Ramdas Pophale) SiO2 
 PCOD9307894
Probable space group: C 2/C
;
_chemical_formula_sum "Si O2"
_cell_formula_units_Z 48
_cell_length_a 14.579564
_cell_length_b 12.637938
_cell_length_c 26.748623
_cell_angle_alpha 90.000000
_cell_angle_beta 25.564676
_cell_angle_gamma 90.000000
_cell_volume 2126.830339
_symmetry_space_group_name_H-M "C 2/C"
_symmetry_group_IT_number 15
_symmetry_cell_setting 'monoclinic'
loop_
_space_group_symop_operation_xyz
x,y,z
-x,y,1/2-z
-x,-y,-z
x,-y,1/2+z
1/2+x,1/2+y,z
1/2-x,1/2+y,1/2-z
1/2-x,1/2-y,-z
1/2+x,1/2-y,1/2+z
loop_
_atom_site_type_symbol
_atom_site_label
_atom_site_fract_x
_atom_site_fract_y
_atom_site_fract_z
Si Si1 0.290898 0.241601 0.318242
Si Si2 0.754890 0.986755 0.974881
Si Si3 0.023255 0.611204 0.018704
Si Si4 0.920427 0.983271 0.595340
Si Si5 0.843333 0.361939 0.207488
Si Si6 0.943072 0.824502 0.724121
O O1 0.500000 0.235012 0.250000
O O2 0.103610 0.296651 0.442733
O O3 0.310092 0.317861 0.260447
O O4 0.211938 0.126262 0.339248
O O5 0.524430 0.935197 0.095527
O O6 0.699050 0.096007 0.975390
O O7 0.900334 0.920188 0.865256
O O8 0.878782 0.982894 0.965973
O O9 0.798519 0.637592 0.153693
O O10 0.000000 0.500000 0.000000
O O11 0.776568 0.076319 0.689506
O O12 0.000000 0.000000 0.500000
O O13 0.963018 0.261757 0.171755
O O14 0.000000 0.778462 0.750000
#
# Coordination Sequence:
#
# PCOD9307894 Si02
#       6
#     8   8   8   8   8   8
#     4  12  28  48  77 113 151 198 255 309 377 456
#     4  12  26  46  77 105 149 193 256 307 369 450
#     4  12  25  44  75 111 147 195 246 308 375 435
#     4  12  30  49  73 111 155 204 251 312 383 446
#     4  12  27  48  76 109 152 201 247 311 378 447
#     4  12  25  43  75 111 149 192 254 308 372 445
#
# _framework density 22.568795999999999
#
# number of rings (size 3 to 8) (size 9 to 14) (size 15 to 20)
#    0.000    0.000    5.000    3.500    9.333    0.000 
#    0.000    3.333    0.000    0.000    0.000    0.000 
#    0.000    0.000    0.000    0.000    0.000    0.000 
#
# Total GULP energy -134383.201631 kJ/mol
# GULP energy per Si atom -5599.300068 kJ/mol
# Density = 2.251743 g / cm^3
# Si number density = 22.568796 Si / 1000 Ang^3
#
#
#
# Elastic Constant Matrix: (Units=GPa)
#
#
# Indices 1 2 3 4 5 6 
#
# 1 134.9286 -0.0141 8.0409 0.0260 -8.0589 0.0003
# 2 -0.0141 46.4496 9.6893 0.0208 -5.3725 -0.0006
# 3 8.0409 9.6893 84.7517 -0.0368 7.8680 0.0055
# 4 0.0260 0.0208 -0.0368 24.5976 0.0142 9.9738
# 5 -8.0589 -5.3725 7.8680 0.0142 38.4030 0.0021
# 6 0.0003 -0.0006 0.0055 9.9738 0.0021 39.4871
#
#
#
# Elastic Compliance Matrix: (Units=1/GPa)
#
#
# Indices 1 2 3 4 5 6 
#
# 1 0.007577 0.000410 -0.000937 -0.000012 0.001839 0.000003
# 2 0.000410 0.022597 -0.002981 -0.000029 0.003858 0.000008
# 3 -0.000937 -0.002981 0.012524 0.000028 -0.003179 -0.000009
# 4 -0.000012 -0.000029 0.000028 0.045293 -0.000028 -0.011440
# 5 0.001839 0.003858 -0.003179 -0.000028 0.027617 0.000006
# 6 0.000003 0.000008 -0.000009 -0.011440 0.000006 0.028214
#
#
# Mechanical properties :
#
#
# Convention : Reuss Voigt Hill
#
# Bulk Modulus (GPa) = 28.02337 33.50690 30.76513
# Shear Modulus (GPa) = 30.72568 37.05847 33.89207
#
# Velocity S-wave (km/s) = 3.69375 4.05658 3.87941
# Velocity P-wave (km/s) = 5.53494 6.06794 5.80756
#
# Compressibility (1/GPa) = 0.03568450
#
# Stress axis : x y z
#
# Youngs Moduli (GPa) = 131.97759 44.25404 79.84702
#
# Poissons Ratio (x) = -0.01816 0.07478
# Poissons Ratio (y) = -0.05417 0.23798
# Poissons Ratio (z) = 0.12361 0.13190
#
# Static dielectric constant tensor:
#      x y z
#    x 1.869210 0.000000 0.012440 
#    y 0.000000 1.830560 0.000000 
#    z 0.012440 0.000000 1.791900 
# 
# From -- ./inp_files/296025.got.cif
#   From: 2010.05.17/outbox.cif.g08.bks.cpg/sg15_149_cif.got.tgz:296025.got - 2010.06.03 18:47:42.
