data_PCOD9307851
_publ_section_title
;
Structure prediction by ZEFSAII (Michael W. Deem and Ramdas Pophale) SiO2 
 PCOD9307851
Probable space group: C 2/C
;
_chemical_formula_sum "Si O2"
_cell_formula_units_Z 28
_cell_length_a 5.186172
_cell_length_b 22.064758
_cell_length_c 11.739445
_cell_angle_alpha 90.000000
_cell_angle_beta 113.832157
_cell_angle_gamma 90.000000
_cell_volume 1228.819273
_symmetry_space_group_name_H-M "C 2/C"
_symmetry_group_IT_number 15
_symmetry_cell_setting 'monoclinic'
loop_
_space_group_symop_operation_xyz
x,y,z
-x,y,1/2-z
-x,-y,-z
x,-y,1/2+z
1/2+x,1/2+y,z
1/2-x,1/2+y,1/2-z
1/2-x,1/2-y,-z
1/2+x,1/2-y,1/2+z
loop_
_atom_site_type_symbol
_atom_site_label
_atom_site_fract_x
_atom_site_fract_y
_atom_site_fract_z
Si Si1 0.334413 0.114643 0.608509
Si Si2 0.000000 0.605105 0.250000
Si Si3 0.500000 0.500000 0.000000
Si Si4 0.250824 0.322105 0.008341
Si Si5 0.000000 0.017992 0.250000
O O1 0.500000 0.095208 0.750000
O O2 0.540413 0.153603 0.566306
O O3 0.066000 0.155981 0.588685
O O4 0.217752 0.056163 0.522158
O O5 0.145982 0.645711 0.372538
O O6 0.237609 0.560848 0.239987
O O7 0.550684 0.520106 0.873484
O O8 0.250000 0.250000 0.000000
#
# Coordination Sequence:
#
# PCOD9307851 Si02
#       5
#     8   4   4   8   4
#     4  12  29  48  77 114 155 203 260 325 398 469
#     4  12  24  50  75 112 147 210 256 318 394 474
#     4  12  28  50  76 112 156 206 258 324 394 474
#     4  12  27  51  77 113 154 203 262 327 395 472
#     4  12  28  46  77 108 161 198 268 316 394 476
#
# _framework density 22.786100000000001
#
# number of rings (size 3 to 8) (size 9 to 14) (size 15 to 20)
#    0.000    0.000    5.714    1.714   10.000    2.286 
#    0.000    0.000    0.000    0.000    0.000    0.000 
#    0.000    0.000    0.000    0.000    0.000    0.000 
#
# Total GULP energy -77995.198286 kJ/mol
# GULP energy per Si atom -5571.085592 kJ/mol
# Density = 2.273424 g / cm^3
# Si number density = 22.786100 Si / 1000 Ang^3
#
#
#
# Elastic Constant Matrix: (Units=GPa)
#
#
# Indices 1 2 3 4 5 6 
#
# 1 189.3158 72.0617 25.7544 0.0000 -5.4015 0.0000
# 2 72.0617 81.6825 40.7029 0.0000 -5.4903 0.0000
# 3 25.7544 40.7029 35.5824 0.0000 -2.5429 0.0000
# 4 0.0000 0.0000 0.0000 13.5587 0.0000 4.0122
# 5 -5.4015 -5.4903 -2.5429 0.0000 43.6790 0.0000
# 6 0.0000 0.0000 0.0000 4.0122 0.0000 29.2363
#
#
#
# Elastic Compliance Matrix: (Units=1/GPa)
#
#
# Indices 1 2 3 4 5 6 
#
# 1 0.008404 -0.010187 0.005576 0.000000 0.000083 0.000000
# 2 -0.010187 0.040945 -0.039351 0.000000 0.001596 0.000000
# 3 0.005576 -0.039351 0.069064 0.000000 -0.000236 0.000000
# 4 0.000000 0.000000 0.000000 0.076875 0.000000 -0.010550
# 5 0.000083 0.001596 -0.000236 0.000000 0.023092 0.000000
# 6 0.000000 0.000000 0.000000 -0.010550 0.000000 0.035652
#
#
# Mechanical properties :
#
#
# Convention : Reuss Voigt Hill
#
# Bulk Modulus (GPa) = 32.79649 64.84654 48.82151
# Shear Modulus (GPa) = 14.19981 28.49890 21.34936
#
# Velocity S-wave (km/s) = 2.49906 3.54038 3.06428
# Velocity P-wave (km/s) = 4.76986 6.72555 5.83029
#
# Compressibility (1/GPa) = 0.03049107
#
# Stress axis : x y z
#
# Youngs Moduli (GPa) = 118.99800 24.42275 14.47927
#
# Poissons Ratio (x) = 0.24879 -0.08074
# Poissons Ratio (y) = 1.21221 0.56977
# Poissons Ratio (z) = -0.66357 0.96105
#
# Static dielectric constant tensor:
#      x y z
#    x 1.889580 0.000000 0.081410 
#    y 0.000000 1.795370 0.000000 
#    z 0.081410 0.000000 1.968030 
# 
# From -- ./inp_files/71765.got.cif
#   From: 2010.05.17/outbox.cif.g08.bks.cpg/sg15_36_cif.got.tgz:71765.got - 2010.06.03 18:47:42.
