data_PCOD9307970
_publ_section_title
;
Structure prediction by ZEFSAII (Michael W. Deem and Ramdas Pophale) SiO2 
 PCOD9307970
Probable space group: C 2/C
;
_chemical_formula_sum "Si O2"
_cell_formula_units_Z 36
_cell_length_a 4.705739
_cell_length_b 14.068947
_cell_length_c 20.462301
_cell_angle_alpha 90.000000
_cell_angle_beta 84.779920
_cell_angle_gamma 90.000000
_cell_volume 1349.083866
_symmetry_space_group_name_H-M "C 2/C"
_symmetry_group_IT_number 15
_symmetry_cell_setting 'monoclinic'
loop_
_space_group_symop_operation_xyz
x,y,z
-x,y,1/2-z
-x,-y,-z
x,-y,1/2+z
1/2+x,1/2+y,z
1/2-x,1/2+y,1/2-z
1/2-x,1/2-y,-z
1/2+x,1/2-y,1/2+z
loop_
_atom_site_type_symbol
_atom_site_label
_atom_site_fract_x
_atom_site_fract_y
_atom_site_fract_z
Si Si1 0.500000 0.944313 0.250000
Si Si2 0.402131 0.142179 0.885721
Si Si3 0.159219 0.891774 0.686694
Si Si4 0.653985 0.412204 0.031384
Si Si5 0.219885 0.330898 0.605588
O O1 0.716626 0.014347 0.282466
O O2 0.636271 0.883859 0.188902
O O3 0.077114 0.335557 0.850199
O O4 0.601590 0.065874 0.920624
O O5 0.592382 0.236689 0.888313
O O6 0.000000 0.839145 0.750000
O O7 0.921768 0.909588 0.636733
O O8 0.397995 0.354217 0.071036
O O9 0.500000 0.500000 0.000000
O O10 0.804529 0.354453 0.969805
#
# Coordination Sequence:
#
# PCOD9307970 Si02
#       5
#     4   8   8   8   8
#     4  12  28  46  72 104 156 184 258 292 378 450
#     4  12  28  45  74 112 147 193 242 313 367 440
#     4  12  25  47  73 103 143 197 245 299 370 439
#     4  12  25  48  75 109 148 195 249 300 376 442
#     4  12  25  48  77 105 150 190 252 309 374 434
#
# _framework density 26.684771999999999
#
# number of rings (size 3 to 8) (size 9 to 14) (size 15 to 20)
#    0.000    0.000    2.222    7.333    4.667    0.000 
#    4.000    0.000    0.000    0.000    0.000    0.000 
#    0.000    0.000    0.000    0.000    0.000    0.000 
#
# Total GULP energy -101059.241507 kJ/mol
# GULP energy per Si atom -5614.402306 kJ/mol
# Density = 2.662404 g / cm^3
# Si number density = 26.684772 Si / 1000 Ang^3
#
#
#
# Elastic Constant Matrix: (Units=GPa)
#
#
# Indices 1 2 3 4 5 6 
#
# 1 226.0539 30.0173 74.4132 0.0000 -43.9123 0.0000
# 2 30.0173 78.5697 36.9528 0.0000 -29.4696 0.0000
# 3 74.4132 36.9528 204.5574 0.0000 -28.2155 0.0000
# 4 0.0000 0.0000 0.0000 47.6165 0.0000 0.6263
# 5 -43.9123 -29.4696 -28.2155 0.0000 74.9316 0.0000
# 6 0.0000 0.0000 0.0000 0.6263 0.0000 30.8910
#
#
#
# Elastic Compliance Matrix: (Units=1/GPa)
#
#
# Indices 1 2 3 4 5 6 
#
# 1 0.005475 -0.000434 -0.001576 0.000000 0.002445 0.000000
# 2 -0.000434 0.015774 -0.001974 0.000000 0.005207 0.000000
# 3 -0.001576 -0.001974 0.005890 0.000000 0.000518 0.000000
# 4 0.000000 0.000000 0.000000 0.021007 0.000000 -0.000426
# 5 0.002445 0.005207 0.000518 0.000000 0.017021 0.000000
# 6 0.000000 0.000000 0.000000 -0.000426 0.000000 0.032381
#
#
# Mechanical properties :
#
#
# Convention : Reuss Voigt Hill
#
# Bulk Modulus (GPa) = 52.15821 87.99419 70.07620
# Shear Modulus (GPa) = 44.68075 55.20765 49.94420
#
# Velocity S-wave (km/s) = 4.09637 4.55343 4.33094
# Velocity P-wave (km/s) = 6.47782 7.79051 7.16429
#
# Compressibility (1/GPa) = 0.01917244
#
# Stress axis : x y z
#
# Youngs Moduli (GPa) = 182.64832 63.39422 169.78017
#
# Poissons Ratio (x) = 0.02748 0.26760
# Poissons Ratio (y) = 0.07918 0.33510
# Poissons Ratio (z) = 0.28789 0.12512
#
# Static dielectric constant tensor:
#      x y z
#    x 2.041160 0.000000 -0.007760 
#    y 0.000000 2.269300 0.000000 
#    z -0.007760 0.000000 2.080280 
# 
# From -- ./inp_files/262645.got.cif
#   From: 2010.05.17/outbox.cif.g08.bks.cpg/sg15_132_cif.got.tgz:262645.got - 2010.06.03 18:47:42.
