data_PCOD9307095
_publ_section_title
;
Structure prediction by ZEFSAII (Michael W. Deem and Ramdas Pophale) SiO2 
 PCOD9307095
Probable space group: C 2/C
;
_chemical_formula_sum "Si O2"
_cell_formula_units_Z 60
_cell_length_a 20.126211
_cell_length_b 14.641583
_cell_length_c 25.041458
_cell_angle_alpha 90.000000
_cell_angle_beta 21.092273
_cell_angle_gamma 90.000000
_cell_volume 2655.562330
_symmetry_space_group_name_H-M "C 2/C"
_symmetry_group_IT_number 15
_symmetry_cell_setting 'monoclinic'
loop_
_space_group_symop_operation_xyz
x,y,z
-x,y,1/2-z
-x,-y,-z
x,-y,1/2+z
1/2+x,1/2+y,z
1/2-x,1/2+y,1/2-z
1/2-x,1/2-y,-z
1/2+x,1/2-y,1/2+z
loop_
_atom_site_type_symbol
_atom_site_label
_atom_site_fract_x
_atom_site_fract_y
_atom_site_fract_z
Si Si1 0.775396 0.839804 0.696023
Si Si2 0.488414 0.610243 0.139061
Si Si3 0.784638 0.586790 0.059281
Si Si4 0.138955 0.392238 0.485444
Si Si5 0.797007 0.280828 0.905483
Si Si6 0.862888 0.370097 0.132559
Si Si7 0.045022 0.072839 0.536706
Si Si8 0.250000 0.250000 0.000000
O O1 0.830748 0.857522 0.715620
O O2 0.557562 0.850247 0.850672
O O3 0.845587 0.737637 0.632409
O O4 0.873867 0.912200 0.583240
O O5 0.384580 0.587460 0.272063
O O6 0.575022 0.522818 0.044298
O O7 0.633661 0.690166 0.041781
O O8 0.755268 0.659354 0.034796
O O9 0.811443 0.482931 0.019572
O O10 0.969095 0.612552 0.953849
O O11 0.289946 0.313479 0.377567
O O12 0.119388 0.418604 0.437998
O O13 0.000000 0.322332 0.750000
O O14 0.750000 0.250000 0.000000
O O15 0.648330 0.349911 0.993701
O O16 0.672084 0.404725 0.300929
#
# Coordination Sequence:
#
# PCOD9307095 Si02
#       8
#     8   8   8   8   8   8   8   4
#     4  12  23  45  76 117 147 190 246 324 376 435
#     4  12  27  51  73 106 150 198 254 309 375 451
#     4  12  27  49  77 107 145 198 257 305 376 458
#     4  12  24  46  79 107 144 196 253 307 375 448
#     4  12  26  43  68 108 152 192 236 302 374 451
#     4  12  21  46  79 110 147 191 246 323 375 441
#     4  12  26  46  76 109 150 193 253 310 378 444
#     4  12  30  50  72 104 150 204 250 302 372 452
#
# _framework density 22.594085
#
# number of rings (size 3 to 8) (size 9 to 14) (size 15 to 20)
#    0.000    0.000    6.667    3.600    1.867    0.000 
#    7.200    0.000    0.000    0.000    0.000    0.000 
#    0.000    0.000    0.000    0.000    0.000    0.000 
#
# Total GULP energy -167488.062652 kJ/mol
# GULP energy per Si atom -5582.935422 kJ/mol
# Density = 2.254266 g / cm^3
# Si number density = 22.594085 Si / 1000 Ang^3
#
#
#
# Elastic Constant Matrix: (Units=GPa)
#
#
# Indices 1 2 3 4 5 6 
#
# 1 87.5878 9.6535 0.4450 0.0087 -12.5604 -0.0022
# 2 9.6535 141.1881 6.5606 -0.0073 -22.8219 0.0022
# 3 0.4450 6.5606 77.3414 -0.0504 -11.7379 0.0092
# 4 0.0087 -0.0073 -0.0504 17.9418 0.0307 2.3718
# 5 -12.5604 -22.8219 -11.7379 0.0307 19.1138 -0.0024
# 6 -0.0022 0.0022 0.0092 2.3718 -0.0024 43.9800
#
#
#
# Elastic Compliance Matrix: (Units=1/GPa)
#
#
# Indices 1 2 3 4 5 6 
#
# 1 0.012780 0.000691 0.001398 -0.000019 0.010081 0.000002
# 2 0.000691 0.008875 0.001015 -0.000014 0.011675 0.000001
# 3 0.001398 0.001015 0.014511 0.000022 0.011042 -0.000004
# 4 -0.000019 -0.000014 0.000022 0.056136 -0.000106 -0.003027
# 5 0.010081 0.011675 0.011042 -0.000106 0.079663 0.000008
# 6 0.000002 0.000001 -0.000004 -0.003027 0.000008 0.022901
#
#
# Mechanical properties :
#
#
# Convention : Reuss Voigt Hill
#
# Bulk Modulus (GPa) = 23.59961 37.71508 30.65734
# Shear Modulus (GPa) = 24.65677 35.50435 30.08056
#
# Velocity S-wave (km/s) = 3.30706 3.96839 3.65272
# Velocity P-wave (km/s) = 5.00499 6.14216 5.60250
#
# Compressibility (1/GPa) = 0.04237359
#
# Stress axis : x y z
#
# Youngs Moduli (GPa) = 78.25002 112.67041 68.91151
#
# Poissons Ratio (x) = -0.07783 -0.09633
# Poissons Ratio (y) = -0.05406 -0.06994
# Poissons Ratio (z) = -0.10938 -0.11436
#
# Static dielectric constant tensor:
#      x y z
#    x 1.843840 -0.000010 -0.007440 
#    y -0.000010 1.834220 0.000010 
#    z -0.007440 0.000010 1.825660 
# 
# From -- ./inp_files/301170.got.cif
#   From: 2010.05.17/outbox.cif.g08.bks.cpg/sg15_151_cif.got.tgz:301170.got - 2010.06.03 18:47:42.
