data_PCOD9307166
_publ_section_title
;
Structure prediction by ZEFSAII (Michael W. Deem and Ramdas Pophale) SiO2 
 PCOD9307166
Probable space group: C 2/C
;
_chemical_formula_sum "Si O2"
_cell_formula_units_Z 48
_cell_length_a 20.741632
_cell_length_b 17.530235
_cell_length_c 17.922416
_cell_angle_alpha 90.000000
_cell_angle_beta 20.529464
_cell_angle_gamma 90.000000
_cell_volume 2285.332395
_symmetry_space_group_name_H-M "C 2/C"
_symmetry_group_IT_number 15
_symmetry_cell_setting 'monoclinic'
loop_
_space_group_symop_operation_xyz
x,y,z
-x,y,1/2-z
-x,-y,-z
x,-y,1/2+z
1/2+x,1/2+y,z
1/2-x,1/2+y,1/2-z
1/2-x,1/2-y,-z
1/2+x,1/2-y,1/2+z
loop_
_atom_site_type_symbol
_atom_site_label
_atom_site_fract_x
_atom_site_fract_y
_atom_site_fract_z
Si Si1 0.188932 0.849254 0.415745
Si Si2 0.307345 0.850304 0.743964
Si Si3 0.455149 0.917909 0.428582
Si Si4 0.884017 0.828668 0.172881
Si Si5 0.056236 0.411254 0.603357
Si Si6 0.708693 0.297159 0.619118
O O1 0.161779 0.865132 0.358195
O O2 0.289235 0.767193 0.318363
O O3 0.987985 0.837802 0.668452
O O4 0.324303 0.908579 0.308172
O O5 0.386222 0.893425 0.585598
O O6 0.371733 0.762250 0.674990
O O7 0.391565 0.887287 0.726592
O O8 0.087537 0.851086 0.977375
O O9 0.364733 0.857310 0.470361
O O10 0.396590 0.001780 0.468973
O O11 0.728716 0.857522 0.397425
O O12 0.000000 0.405938 0.750000
O O13 0.750000 0.250000 0.500000
#
# Coordination Sequence:
#
# PCOD9307166 Si02
#       6
#     8   8   8   8   8   8
#     4  12  22  40  70 105 144 194 246 296 349 440
#     4  12  23  48  80 107 135 193 251 311 361 446
#     4  12  26  46  73 109 153 192 245 300 375 450
#     4  12  23  47  81 107 137 188 264 303 360 443
#     4  12  31  49  69 110 154 192 240 317 383 430
#     4  12  25  40  68 113 151 197 241 294 364 435
#
# _framework density 21.003509000000001
#
# number of rings (size 3 to 8) (size 9 to 14) (size 15 to 20)
#    0.000    0.000    8.333    1.000    2.333    3.333 
#    0.000    0.000    0.000    0.000    0.000    0.000 
#    0.000    0.000    0.000    0.000    0.000    0.000 
#
# Total GULP energy -134432.310819 kJ/mol
# GULP energy per Si atom -5601.346284 kJ/mol
# Density = 2.095570 g / cm^3
# Si number density = 21.003509 Si / 1000 Ang^3
#
#
#
# Elastic Constant Matrix: (Units=GPa)
#
#
# Indices 1 2 3 4 5 6 
#
# 1 156.2921 40.3573 80.9265 -0.0052 9.7823 -0.0013
# 2 40.3573 46.9285 22.7639 -0.0050 18.0011 0.0036
# 3 80.9265 22.7639 145.8482 -0.0129 2.6403 0.0091
# 4 -0.0052 -0.0050 -0.0129 20.9424 0.0076 2.2164
# 5 9.7823 18.0011 2.6403 0.0076 44.6231 -0.0012
# 6 -0.0013 0.0036 0.0091 2.2164 -0.0012 23.2277
#
#
#
# Elastic Compliance Matrix: (Units=1/GPa)
#
#
# Indices 1 2 3 4 5 6 
#
# 1 0.010702 -0.007180 -0.004833 -0.000003 0.000836 0.000004
# 2 -0.007180 0.032263 -0.000845 0.000010 -0.011391 -0.000007
# 3 -0.004833 -0.000845 0.009655 0.000005 0.000829 -0.000004
# 4 -0.000003 0.000010 0.000005 0.048237 -0.000012 -0.004603
# 5 0.000836 -0.011391 0.000829 -0.000012 0.026773 0.000004
# 6 0.000004 -0.000007 -0.000004 -0.004603 0.000004 0.043491
#
#
# Mechanical properties :
#
#
# Convention : Reuss Voigt Hill
#
# Bulk Modulus (GPa) = 37.16950 70.79603 53.98277
# Shear Modulus (GPa) = 24.29465 31.42673 27.86069
#
# Velocity S-wave (km/s) = 3.40471 3.87235 3.64604
# Velocity P-wave (km/s) = 5.76119 7.33303 6.59411
#
# Compressibility (1/GPa) = 0.02690378
#
# Stress axis : x y z
#
# Youngs Moduli (GPa) = 93.43680 30.99494 103.57359
#
# Poissons Ratio (x) = 0.22255 0.50056
# Poissons Ratio (y) = 0.67090 0.08755
# Poissons Ratio (z) = 0.45157 0.02620
#
# Static dielectric constant tensor:
#      x y z
#    x 1.762810 0.000000 -0.000180 
#    y 0.000000 1.750100 0.000010 
#    z -0.000180 0.000010 1.767730 
# 
# From -- ./inp_files/216259.got.cif
#   From: 2010.05.17/outbox.cif.g08.bks.cpg/sg15_109_cif.got.tgz:216259.got - 2010.06.03 18:47:42.
