data_PCOD9307013
_publ_section_title
;
Structure prediction by ZEFSAII (Michael W. Deem and Ramdas Pophale) SiO2 
 PCOD9307013
Probable space group: C 2/C
;
_chemical_formula_sum "Si O2"
_cell_formula_units_Z 60
_cell_length_a 12.401106
_cell_length_b 19.120843
_cell_length_c 14.398771
_cell_angle_alpha 90.000000
_cell_angle_beta 61.706456
_cell_angle_gamma 90.000000
_cell_volume 3006.335295
_symmetry_space_group_name_H-M "C 2/C"
_symmetry_group_IT_number 15
_symmetry_cell_setting 'monoclinic'
loop_
_space_group_symop_operation_xyz
x,y,z
-x,y,1/2-z
-x,-y,-z
x,-y,1/2+z
1/2+x,1/2+y,z
1/2-x,1/2+y,1/2-z
1/2-x,1/2-y,-z
1/2+x,1/2-y,1/2+z
loop_
_atom_site_type_symbol
_atom_site_label
_atom_site_fract_x
_atom_site_fract_y
_atom_site_fract_z
Si Si1 0.004592 0.116372 0.991500
Si Si2 0.000000 0.283810 0.750000
Si Si3 0.599359 0.446314 0.790027
Si Si4 0.764076 0.688564 0.245323
Si Si5 0.840718 0.810832 0.425933
Si Si6 0.872226 0.258955 0.509715
Si Si7 0.924773 0.312917 0.186029
Si Si8 0.202285 0.903423 0.244688
O O1 0.974577 0.058157 0.081399
O O2 0.058958 0.184624 0.020425
O O3 0.877412 0.137339 0.993424
O O4 0.101274 0.106394 0.867822
O O5 0.874889 0.321683 0.772794
O O6 0.961057 0.233056 0.849390
O O7 0.500000 0.438890 0.750000
O O8 0.689681 0.380905 0.756952
O O9 0.679007 0.515152 0.735515
O O10 0.666067 0.749748 0.306183
O O11 0.827860 0.717424 0.127418
O O12 0.750000 0.750000 0.500000
O O13 0.813608 0.856776 0.343593
O O14 0.750000 0.250000 0.500000
O O15 0.968107 0.315823 0.432965
O O16 0.834716 0.379265 0.228693
O O17 0.000000 0.298168 0.250000
#
# Coordination Sequence:
#
# PCOD9307013 Si02
#       8
#     8   4   8   8   8   8   8   8
#     4  12  21  40  67  99 132 178 232 294 353 416
#     4  12  22  40  68 100 140 170 228 308 352 414
#     4  12  27  45  67  98 144 188 241 292 359 435
#     4  12  23  41  65 101 134 175 232 289 351 423
#     4  12  21  39  70 103 133 174 231 293 357 424
#     4  12  21  36  68 100 130 166 229 292 350 412
#     4  12  22  41  68  99 134 174 229 291 349 418
#     4  12  25  44  66 102 140 181 231 297 359 426
#
# _framework density 19.957853
#
# number of rings (size 3 to 8) (size 9 to 14) (size 15 to 20)
#    0.000    0.000    8.000    4.000    0.000    0.000 
#    1.200    0.667    0.000    0.000    0.000    0.000 
#    0.000    0.000    0.000    0.000    0.000    0.000 
#
# Total GULP energy -167359.670236 kJ/mol
# GULP energy per Si atom -5578.655675 kJ/mol
# Density = 1.991243 g / cm^3
# Si number density = 19.957853 Si / 1000 Ang^3
#
#
#
# Elastic Constant Matrix: (Units=GPa)
#
#
# Indices 1 2 3 4 5 6 
#
# 1 152.6219 64.0379 31.4902 0.0000 -0.7508 0.0000
# 2 64.0379 104.2365 30.0596 0.0000 -0.0535 0.0000
# 3 31.4902 30.0596 103.4120 0.0000 -14.9581 0.0000
# 4 0.0000 0.0000 0.0000 35.5768 0.0000 -4.9692
# 5 -0.7508 -0.0535 -14.9581 0.0000 32.1421 0.0000
# 6 0.0000 0.0000 0.0000 -4.9692 0.0000 21.6147
#
#
#
# Elastic Compliance Matrix: (Units=1/GPa)
#
#
# Indices 1 2 3 4 5 6 
#
# 1 0.008974 -0.005140 -0.001297 0.000000 -0.000403 0.000000
# 2 -0.005140 0.013483 -0.002539 0.000000 -0.001279 0.000000
# 3 -0.001297 -0.002539 0.011577 0.000000 0.005353 0.000000
# 4 0.000000 0.000000 0.000000 0.029041 0.000000 0.006677
# 5 -0.000403 -0.001279 0.005353 0.000000 0.033592 0.000000
# 6 0.000000 0.000000 0.000000 0.006677 0.000000 0.047800
#
#
# Mechanical properties :
#
#
# Convention : Reuss Voigt Hill
#
# Bulk Modulus (GPa) = 62.17762 67.93844 65.05803
# Shear Modulus (GPa) = 29.80119 33.51225 31.65672
#
# Velocity S-wave (km/s) = 3.86839 4.10219 3.98701
# Velocity P-wave (km/s) = 7.15365 7.52012 7.33917
#
# Compressibility (1/GPa) = 0.01608296
#
# Stress axis : x y z
#
# Youngs Moduli (GPa) = 111.43007 74.16968 86.37512
#
# Poissons Ratio (x) = 0.38120 0.11203
# Poissons Ratio (y) = 0.57270 0.21931
# Poissons Ratio (z) = 0.14453 0.18832
#
# Static dielectric constant tensor:
#      x y z
#    x 1.795880 0.000000 0.005030 
#    y 0.000000 1.713980 0.000000 
#    z 0.005030 0.000000 1.851210 
# 
# From -- ./inp_files/147111.got.cif
#   From: 2010.05.17/outbox.cif.g08.bks.cpg/sg15_74_cif.got.tgz:147111.got - 2010.06.03 18:47:42.
