data_PCOD9307400
_publ_section_title
;
Structure prediction by ZEFSAII (Michael W. Deem and Ramdas Pophale) SiO2 
 PCOD9307400
Probable space group: C 2/C
;
_chemical_formula_sum "Si O2"
_cell_formula_units_Z 40
_cell_length_a 8.101062
_cell_length_b 38.908285
_cell_length_c 6.589937
_cell_angle_alpha 90.000000
_cell_angle_beta 68.922292
_cell_angle_gamma 90.000000
_cell_volume 1938.163828
_symmetry_space_group_name_H-M "C 2/C"
_symmetry_group_IT_number 15
_symmetry_cell_setting 'monoclinic'
loop_
_space_group_symop_operation_xyz
x,y,z
-x,y,1/2-z
-x,-y,-z
x,-y,1/2+z
1/2+x,1/2+y,z
1/2-x,1/2+y,1/2-z
1/2-x,1/2-y,-z
1/2+x,1/2-y,1/2+z
loop_
_atom_site_type_symbol
_atom_site_label
_atom_site_fract_x
_atom_site_fract_y
_atom_site_fract_z
Si Si1 0.334465 0.926632 0.180954
Si Si2 0.000000 0.175947 0.250000
Si Si3 0.142353 0.008397 0.816826
Si Si4 0.187416 0.148294 0.781127
Si Si5 0.000000 0.467959 0.750000
Si Si6 0.178116 0.788207 0.043070
O O1 0.500000 0.933102 0.250000
O O2 0.292551 0.886558 0.205190
O O3 0.172553 0.950416 0.324873
O O4 0.393443 0.942171 0.942263
O O5 0.870458 0.155442 0.460784
O O6 0.123833 0.198052 0.345535
O O7 0.342473 0.990880 0.720971
O O8 0.094018 0.002983 0.583873
O O9 0.275179 0.181433 0.629070
O O10 0.000000 0.143303 0.750000
O O11 0.000000 0.784691 0.250000
O O12 0.250000 0.750000 0.000000
#
# Coordination Sequence:
#
# PCOD9307400 Si02
#       6
#     8   4   8   8   4   8
#     4  12  25  43  62  95 134 165 219 280 329 395
#     4   8  18  40  64  83 128 164 206 256 313 398
#     4  12  23  43  70  92 125 178 220 276 345 389
#     4   9  21  40  61  90 125 170 216 254 327 404
#     4  12  26  46  64  95 138 162 232 292 317 408
#     4   9  19  38  62  94 124 160 212 258 313 393
#
# _framework density 20.638088
#
# number of rings (size 3 to 8) (size 9 to 14) (size 15 to 20)
#    0.000    2.000    3.000    2.400    0.000    6.400 
#    9.000    0.000    0.000    0.000    0.000    0.000 
#    0.000    0.000    0.000    0.000    0.000    0.000 
#
# Total GULP energy -111418.844866 kJ/mol
# GULP energy per Si atom -5570.942243 kJ/mol
# Density = 2.059112 g / cm^3
# Si number density = 20.638088 Si / 1000 Ang^3
#
#
#
# Elastic Constant Matrix: (Units=GPa)
#
#
# Indices 1 2 3 4 5 6 
#
# 1 105.0554 51.8745 47.1804 0.0000 13.0253 0.0000
# 2 51.8745 199.5403 71.2303 0.0000 -1.2546 0.0000
# 3 47.1804 71.2303 127.4233 0.0000 7.6141 0.0000
# 4 0.0000 0.0000 0.0000 11.2505 0.0000 -14.8901
# 5 13.0253 -1.2546 7.6141 0.0000 35.1574 0.0000
# 6 0.0000 0.0000 0.0000 -14.8901 0.0000 43.5557
#
#
#
# Elastic Compliance Matrix: (Units=1/GPa)
#
#
# Indices 1 2 3 4 5 6 
#
# 1 0.012507 -0.002135 -0.003197 0.000000 -0.004018 0.000000
# 2 -0.002135 0.006660 -0.003033 0.000000 0.001686 0.000000
# 3 -0.003197 -0.003033 0.010803 0.000000 -0.001263 0.000000
# 4 0.000000 0.000000 0.000000 0.162335 0.000000 0.055496
# 5 -0.004018 0.001686 -0.001263 0.000000 0.030266 0.000000
# 6 0.000000 0.000000 0.000000 0.055496 0.000000 0.041931
#
#
# Mechanical properties :
#
#
# Convention : Reuss Voigt Hill
#
# Bulk Modulus (GPa) = 75.53720 85.84326 80.69023
# Shear Modulus (GPa) = 17.50420 35.44164 26.47292
#
# Velocity S-wave (km/s) = 2.91546 4.14852 3.58540
# Velocity P-wave (km/s) = 6.92918 8.03939 7.50484
#
# Compressibility (1/GPa) = 0.01323851
#
# Stress axis : x y z
#
# Youngs Moduli (GPa) = 79.95391 150.15093 92.57015
#
# Poissons Ratio (x) = 0.32064 0.29596
# Poissons Ratio (y) = 0.17074 0.28077
# Poissons Ratio (z) = 0.25563 0.45541
#
# Static dielectric constant tensor:
#      x y z
#    x 1.823010 0.000000 0.095380 
#    y 0.000000 1.784250 0.000000 
#    z 0.095380 0.000000 2.045190 
# 
# From -- ./inp_files/5724.got.cif
#   From: 2010.05.17/outbox.cif.g08.bks.cpg/sg15_3_cif.got.tgz:5724.got - 2010.06.03 18:47:42.
