data_PCOD9307466
_publ_section_title
;
Structure prediction by ZEFSAII (Michael W. Deem and Ramdas Pophale) SiO2 
 PCOD9307466
Probable space group: C 2/C
;
_chemical_formula_sum "Si O2"
_cell_formula_units_Z 40
_cell_length_a 24.783846
_cell_length_b 14.603265
_cell_length_c 12.767397
_cell_angle_alpha 90.000000
_cell_angle_beta 157.386101
_cell_angle_gamma 90.000000
_cell_volume 1776.802418
_symmetry_space_group_name_H-M "C 2/C"
_symmetry_group_IT_number 15
_symmetry_cell_setting 'monoclinic'
loop_
_space_group_symop_operation_xyz
x,y,z
-x,y,1/2-z
-x,-y,-z
x,-y,1/2+z
1/2+x,1/2+y,z
1/2-x,1/2+y,1/2-z
1/2-x,1/2-y,-z
1/2+x,1/2-y,1/2+z
loop_
_atom_site_type_symbol
_atom_site_label
_atom_site_fract_x
_atom_site_fract_y
_atom_site_fract_z
Si Si1 0.803667 0.568786 0.978815
Si Si2 0.084173 0.650936 0.123307
Si Si3 0.000000 0.000000 0.000000
Si Si4 0.140367 0.800040 0.728898
Si Si5 0.000000 0.422769 0.250000
Si Si6 0.660783 0.273371 0.535244
O O1 0.641639 0.553106 0.713276
O O2 0.828126 0.665604 0.965635
O O3 0.894461 0.574511 0.249273
O O4 0.865994 0.489448 0.019009
O O5 0.242375 0.679469 0.376847
O O6 0.013371 0.628109 0.885093
O O7 0.996223 0.733738 0.016218
O O8 0.907542 0.901990 0.828123
O O9 0.210933 0.797692 0.741040
O O10 0.250000 0.750000 0.000000
O O11 0.500000 0.305863 0.250000
#
# Coordination Sequence:
#
# PCOD9307466 Si02
#       6
#     8   8   4   8   4   8
#     4  12  24  46  73 104 144 191 251 311 375 460
#     4  12  24  46  71  99 150 189 238 309 378 452
#     4  12  26  46  72 112 146 186 260 318 372 464
#     4  12  26  47  73 107 152 198 244 317 386 454
#     4  12  26  44  72 110 140 194 248 300 390 468
#     4  12  23  45  75 101 140 202 244 292 389 458
#
# _framework density 22.512350999999999
#
# number of rings (size 3 to 8) (size 9 to 14) (size 15 to 20)
#    0.000    0.000    5.000    6.000    0.000    1.600 
#    0.000    6.000    0.000    0.000    0.000    0.000 
#    0.000    0.000    0.000    0.000    0.000    0.000 
#
# Total GULP energy -111381.023307 kJ/mol
# GULP energy per Si atom -5569.051165 kJ/mol
# Density = 2.246111 g / cm^3
# Si number density = 22.512351 Si / 1000 Ang^3
#
#
#
# Elastic Constant Matrix: (Units=GPa)
#
#
# Indices 1 2 3 4 5 6 
#
# 1 87.2910 27.4467 14.4242 0.0000 -0.8629 0.0000
# 2 27.4467 91.3043 14.2897 0.0000 -1.1906 0.0000
# 3 14.4242 14.2897 82.0738 0.0000 19.2250 0.0000
# 4 0.0000 0.0000 0.0000 36.1319 0.0000 13.5870
# 5 -0.8629 -1.1906 19.2250 0.0000 41.8796 0.0000
# 6 0.0000 0.0000 0.0000 13.5870 0.0000 38.6726
#
#
#
# Elastic Compliance Matrix: (Units=1/GPa)
#
#
# Indices 1 2 3 4 5 6 
#
# 1 0.012900 -0.003569 -0.001887 0.000000 0.001031 0.000000
# 2 -0.003569 0.012317 -0.001773 0.000000 0.001090 0.000000
# 3 -0.001887 -0.001773 0.014393 0.000000 -0.006696 0.000000
# 4 0.000000 0.000000 0.000000 0.031889 0.000000 -0.011204
# 5 0.001031 0.001090 -0.006696 0.000000 0.027004 0.000000
# 6 0.000000 0.000000 0.000000 -0.011204 0.000000 0.029794
#
#
# Mechanical properties :
#
#
# Convention : Reuss Voigt Hill
#
# Bulk Modulus (GPa) = 39.75767 41.44335 40.60051
# Shear Modulus (GPa) = 33.08189 36.97073 35.02631
#
# Velocity S-wave (km/s) = 3.83756 4.05686 3.94873
# Velocity P-wave (km/s) = 6.11020 6.35557 6.23409
#
# Compressibility (1/GPa) = 0.02515238
#
# Stress axis : x y z
#
# Youngs Moduli (GPa) = 77.51827 81.18915 69.47808
#
# Poissons Ratio (x) = 0.28977 0.13112
# Poissons Ratio (y) = 0.27667 0.12316
# Poissons Ratio (z) = 0.14629 0.14392
#
# Static dielectric constant tensor:
#      x y z
#    x 1.801570 0.000000 -0.039060 
#    y 0.000000 1.805930 0.000000 
#    z -0.039060 0.000000 1.887800 
# 
# From -- ./inp_files/178503.got.cif
#   From: 2010.05.17/outbox.cif.g08.bks.cpg/sg15_90_cif.got.tgz:178503.got - 2010.06.03 18:47:42.
