data_PCOD9307441
_publ_section_title
;
Structure prediction by ZEFSAII (Michael W. Deem and Ramdas Pophale) SiO2 
 PCOD9307441
Probable space group: C 2/C
;
_chemical_formula_sum "Si O2"
_cell_formula_units_Z 36
_cell_length_a 8.629073
_cell_length_b 16.671442
_cell_length_c 12.556583
_cell_angle_alpha 90.000000
_cell_angle_beta 69.602595
_cell_angle_gamma 90.000000
_cell_volume 1693.114648
_symmetry_space_group_name_H-M "C 2/C"
_symmetry_group_IT_number 15
_symmetry_cell_setting 'monoclinic'
loop_
_space_group_symop_operation_xyz
x,y,z
-x,y,1/2-z
-x,-y,-z
x,-y,1/2+z
1/2+x,1/2+y,z
1/2-x,1/2+y,1/2-z
1/2-x,1/2-y,-z
1/2+x,1/2-y,1/2+z
loop_
_atom_site_type_symbol
_atom_site_label
_atom_site_fract_x
_atom_site_fract_y
_atom_site_fract_z
Si Si1 0.321647 0.896139 0.742191
Si Si2 0.834296 0.836246 0.503437
Si Si3 0.638705 0.956040 0.397861
Si Si4 0.816344 0.759555 0.103006
Si Si5 0.000000 0.652251 0.750000
O O1 0.500000 0.915584 0.750000
O O2 0.206264 0.865168 0.866303
O O3 0.354432 0.824971 0.649881
O O4 0.266109 0.976103 0.693724
O O5 0.750000 0.750000 0.500000
O O6 0.757293 0.901838 0.442128
O O7 0.026789 0.818312 0.437065
O O8 0.531715 0.901080 0.345080
O O9 0.500000 0.000000 0.500000
O O10 0.663796 0.795803 0.203016
O O11 0.750000 0.750000 0.000000
#
# Coordination Sequence:
#
# PCOD9307441 Si02
#       5
#     8   8   8   8   4
#     4  12  23  44  74 102 144 190 235 295 368 433
#     4  12  24  44  76 107 140 193 248 297 363 443
#     4  12  23  45  71 103 143 188 236 299 367 431
#     4  12  26  46  71 105 142 187 249 299 353 433
#     4  12  26  44  68 100 142 188 238 298 356 422
#
# _framework density 21.262589999999999
#
# number of rings (size 3 to 8) (size 9 to 14) (size 15 to 20)
#    0.000    0.000    5.556    5.333    0.000    0.000 
#    0.000   16.667    0.000    0.000    0.000    0.000 
#    0.000    0.000    0.000    0.000    0.000    0.000 
#
# Total GULP energy -100761.263583 kJ/mol
# GULP energy per Si atom -5597.847977 kJ/mol
# Density = 2.121420 g / cm^3
# Si number density = 21.262590 Si / 1000 Ang^3
#
#
#
# Elastic Constant Matrix: (Units=GPa)
#
#
# Indices 1 2 3 4 5 6 
#
# 1 129.4136 61.3345 46.5112 0.0000 -4.8612 0.0000
# 2 61.3345 145.6859 64.8800 0.0000 11.2784 0.0000
# 3 46.5112 64.8800 91.7826 0.0000 16.4393 0.0000
# 4 0.0000 0.0000 0.0000 75.8880 0.0000 27.3748
# 5 -4.8612 11.2784 16.4393 0.0000 47.0842 0.0000
# 6 0.0000 0.0000 0.0000 27.3748 0.0000 48.7884
#
#
#
# Elastic Compliance Matrix: (Units=1/GPa)
#
#
# Indices 1 2 3 4 5 6 
#
# 1 0.010656 -0.003027 -0.003826 0.000000 0.003161 0.000000
# 2 -0.003027 0.010878 -0.006009 0.000000 -0.000820 0.000000
# 3 -0.003826 -0.006009 0.018022 0.000000 -0.005248 0.000000
# 4 0.000000 0.000000 0.000000 0.016521 0.000000 -0.009270
# 5 0.003161 -0.000820 -0.005248 0.000000 0.023594 0.000000
# 6 0.000000 0.000000 0.000000 -0.009270 0.000000 0.025698
#
#
# Mechanical properties :
#
#
# Convention : Reuss Voigt Hill
#
# Bulk Modulus (GPa) = 72.29828 79.14816 75.72322
# Shear Modulus (GPa) = 36.84543 47.29589 42.07066
#
# Velocity S-wave (km/s) = 4.16730 4.72144 4.45300
# Velocity P-wave (km/s) = 7.56515 8.18704 7.88223
#
# Compressibility (1/GPa) = 0.01383159
#
# Stress axis : x y z
#
# Youngs Moduli (GPa) = 93.84734 91.93090 55.48845
#
# Poissons Ratio (x) = 0.27825 0.21232
# Poissons Ratio (y) = 0.28405 0.33341
# Poissons Ratio (z) = 0.35910 0.55238
#
# Static dielectric constant tensor:
#      x y z
#    x 1.656560 0.000000 -0.002660 
#    y 0.000000 1.728830 0.000000 
#    z -0.002660 0.000000 1.765120 
# 
# From -- ./inp_files/76569.got.cif
#   From: 2010.05.17/outbox.cif.g08.bks.cpg/sg15_39_cif.got.tgz:76569.got - 2010.06.03 18:47:42.
