data_PCOD9307998
_publ_section_title
;
Structure prediction by ZEFSAII (Michael W. Deem and Ramdas Pophale) SiO2 
 PCOD9307998
Probable space group: C 2/C
;
_chemical_formula_sum "Si O2"
_cell_formula_units_Z 36
_cell_length_a 12.578701
_cell_length_b 13.395661
_cell_length_c 12.333690
_cell_angle_alpha 90.000000
_cell_angle_beta 39.916143
_cell_angle_gamma 90.000000
_cell_volume 1333.527058
_symmetry_space_group_name_H-M "C 2/C"
_symmetry_group_IT_number 15
_symmetry_cell_setting 'monoclinic'
loop_
_space_group_symop_operation_xyz
x,y,z
-x,y,1/2-z
-x,-y,-z
x,-y,1/2+z
1/2+x,1/2+y,z
1/2-x,1/2+y,1/2-z
1/2-x,1/2-y,-z
1/2+x,1/2-y,1/2+z
loop_
_atom_site_type_symbol
_atom_site_label
_atom_site_fract_x
_atom_site_fract_y
_atom_site_fract_z
Si Si1 0.956646 0.150715 0.126462
Si Si2 0.320102 0.133313 0.766652
Si Si3 0.241426 0.659891 0.088944
Si Si4 0.500000 0.960559 0.750000
Si Si5 0.325876 0.547712 0.836626
O O1 0.904019 0.258872 0.207861
O O2 0.888540 0.145503 0.056521
O O3 0.867897 0.061362 0.260365
O O4 0.152677 0.133787 0.969954
O O5 0.444430 0.047182 0.701923
O O6 0.250513 0.111698 0.699899
O O7 0.071880 0.639794 0.280707
O O8 0.250000 0.750000 0.000000
O O9 0.212278 0.559379 0.033532
O O10 0.500000 0.588452 0.750000
#
# Coordination Sequence:
#
# PCOD9307998 Si02
#       5
#     8   8   8   4   8
#     4  12  28  50  79 118 160 209 269 322 402 468
#     4  12  28  50  77 115 162 209 263 326 393 477
#     4  12  27  47  81 115 154 208 269 329 394 469
#     4  12  30  50  74 116 168 202 268 320 398 478
#     4  12  25  47  79 110 157 204 264 325 395 459
#
# _framework density 26.996078000000001
#
# number of rings (size 3 to 8) (size 9 to 14) (size 15 to 20)
#    0.000    0.000    6.667    2.000    9.333    1.778 
#    0.000    0.000    0.000    0.000    0.000    0.000 
#    0.000    0.000    0.000    0.000    0.000    0.000 
#
# Total GULP energy -100680.839944 kJ/mol
# GULP energy per Si atom -5593.379997 kJ/mol
# Density = 2.693463 g / cm^3
# Si number density = 26.996078 Si / 1000 Ang^3
#
#
#
# Elastic Constant Matrix: (Units=GPa)
#
#
# Indices 1 2 3 4 5 6 
#
# 1 173.7250 47.3539 32.7884 -0.0001 -7.4298 0.0000
# 2 47.3539 184.7686 54.1900 -0.0001 -1.3384 0.0000
# 3 32.7884 54.1900 130.9604 -0.0001 -6.6671 0.0001
# 4 -0.0001 -0.0001 -0.0001 55.8316 0.0001 3.5977
# 5 -7.4298 -1.3384 -6.6671 0.0001 56.0426 0.0000
# 6 0.0000 0.0000 0.0001 3.5977 0.0000 54.0622
#
#
#
# Elastic Compliance Matrix: (Units=1/GPa)
#
#
# Indices 1 2 3 4 5 6 
#
# 1 0.006336 -0.001325 -0.001003 0.000000 0.000689 0.000000
# 2 -0.001325 0.006438 -0.002348 0.000000 -0.000301 0.000000
# 3 -0.001003 -0.002348 0.008903 0.000000 0.000870 0.000000
# 4 0.000000 0.000000 0.000000 0.017988 0.000000 -0.001197
# 5 0.000689 -0.000301 0.000870 0.000000 0.018031 0.000000
# 6 0.000000 0.000000 0.000000 -0.001197 0.000000 0.018577
#
#
# Mechanical properties :
#
#
# Convention : Reuss Voigt Hill
#
# Bulk Modulus (GPa) = 81.12963 84.23542 82.68252
# Shear Modulus (GPa) = 55.72101 56.86206 56.29153
#
# Velocity S-wave (km/s) = 4.54810 4.59443 4.57132
# Velocity P-wave (km/s) = 7.59591 7.70815 7.65224
#
# Compressibility (1/GPa) = 0.01232595
#
# Stress axis : x y z
#
# Youngs Moduli (GPa) = 157.82576 155.32721 112.32446
#
# Poissons Ratio (x) = 0.20576 0.11268
# Poissons Ratio (y) = 0.20907 0.26370
# Poissons Ratio (z) = 0.15832 0.36466
#
# Static dielectric constant tensor:
#      x y z
#    x 2.217680 0.000000 -0.013290 
#    y 0.000000 2.083190 0.000000 
#    z -0.013290 0.000000 2.230040 
# 
# From -- ./inp_files/152403.got.cif
#   From: 2010.05.17/outbox.cif.g08.bks.cpg/sg15_77_cif.got.tgz:152403.got - 2010.06.03 18:47:42.
