data_PCOD9307403
_publ_section_title
;
Structure prediction by ZEFSAII (Michael W. Deem and Ramdas Pophale) SiO2 
 PCOD9307403
Probable space group: C 2/C
;
_chemical_formula_sum "Si O2"
_cell_formula_units_Z 32
_cell_length_a 28.404854
_cell_length_b 7.651117
_cell_length_c 9.227282
_cell_angle_alpha 90.000000
_cell_angle_beta 48.467812
_cell_angle_gamma 90.000000
_cell_volume 1501.175135
_symmetry_space_group_name_H-M "C 2/C"
_symmetry_group_IT_number 15
_symmetry_cell_setting 'monoclinic'
loop_
_space_group_symop_operation_xyz
x,y,z
-x,y,1/2-z
-x,-y,-z
x,-y,1/2+z
1/2+x,1/2+y,z
1/2-x,1/2+y,1/2-z
1/2-x,1/2-y,-z
1/2+x,1/2-y,1/2+z
loop_
_atom_site_type_symbol
_atom_site_label
_atom_site_fract_x
_atom_site_fract_y
_atom_site_fract_z
Si Si1 0.261673 0.545150 0.493010
Si Si2 0.425530 0.196556 0.921256
Si Si3 0.132561 0.615635 0.148037
Si Si4 0.654038 0.533730 0.434356
O O1 0.250000 0.750000 0.500000
O O2 0.202916 0.432762 0.558867
O O3 0.279764 0.501939 0.619593
O O4 0.325890 0.515979 0.273150
O O5 0.500000 0.196531 0.750000
O O6 0.395902 0.382312 0.936270
O O7 0.394959 0.049357 0.881473
O O8 0.406597 0.157311 0.126685
O O9 0.133124 0.778165 0.035239
#
# Coordination Sequence:
#
# PCOD9307403 Si02
#       4
#     8   8   8   8
#     4  12  23  43  71 105 140 173 225 288 356 411
#     4  12  28  48  69 100 140 191 239 281 338 412
#     4  12  26  46  73 102 140 182 232 290 351 410
#     4  12  25  44  69 106 140 178 228 289 354 414
#
# _framework density 21.316632999999999
#
# number of rings (size 3 to 8) (size 9 to 14) (size 15 to 20)
#    0.000    0.000    5.000    6.000    0.000    2.000 
#    0.000    0.000    0.000    0.000    0.000    0.000 
#    0.000    0.000    0.000    0.000    0.000    0.000 
#
# Total GULP energy -89572.455943 kJ/mol
# GULP energy per Si atom -5598.278496 kJ/mol
# Density = 2.126812 g / cm^3
# Si number density = 21.316633 Si / 1000 Ang^3
#
#
#
# Elastic Constant Matrix: (Units=GPa)
#
#
# Indices 1 2 3 4 5 6 
#
# 1 46.3052 3.0083 14.1759 0.0000 -12.9105 0.0000
# 2 3.0083 103.3198 8.7538 0.0000 -14.1245 0.0000
# 3 14.1759 8.7538 118.3272 0.0000 -6.3690 0.0000
# 4 0.0000 0.0000 0.0000 26.0290 0.0000 12.2663
# 5 -12.9105 -14.1245 -6.3690 0.0000 26.7808 0.0000
# 6 0.0000 0.0000 0.0000 12.2663 0.0000 26.9372
#
#
#
# Elastic Compliance Matrix: (Units=1/GPa)
#
#
# Indices 1 2 3 4 5 6 
#
# 1 0.025753 0.001162 -0.002502 0.000000 0.012433 0.000000
# 2 0.001162 0.010510 -0.000596 0.000000 0.005962 0.000000
# 3 -0.002502 -0.000596 0.008826 0.000000 0.000579 0.000000
# 4 0.000000 0.000000 0.000000 0.048915 0.000000 -0.022274
# 5 0.012433 0.005962 0.000579 0.000000 0.046616 0.000000
# 6 0.000000 0.000000 0.000000 -0.022274 0.000000 0.047266
#
#
# Mechanical properties :
#
#
# Convention : Reuss Voigt Hill
#
# Bulk Modulus (GPa) = 24.26181 35.53646 29.89914
# Shear Modulus (GPa) = 24.33116 32.08368 28.20742
#
# Velocity S-wave (km/s) = 3.38215 3.88377 3.64161
# Velocity P-wave (km/s) = 5.16316 6.06783 5.63368
#
# Compressibility (1/GPa) = 0.04121705
#
# Stress axis : x y z
#
# Youngs Moduli (GPa) = 38.83085 95.14433 113.30011
#
# Poissons Ratio (x) = -0.11054 0.28348
# Poissons Ratio (y) = -0.04511 0.06751
# Poissons Ratio (z) = 0.09716 0.05669
#
# Static dielectric constant tensor:
#      x y z
#    x 1.723660 0.000000 -0.000750 
#    y 0.000000 1.765000 0.000000 
#    z -0.000750 0.000000 1.754440 
# 
# From -- ./inp_files/53458.got.cif
#   From: 2010.05.17/outbox.cif.g08.bks.cpg/sg15_27_cif.got.tgz:53458.got - 2010.06.03 18:47:42.
