data_PCOD9307865
_publ_section_title
;
Structure prediction by ZEFSAII (Michael W. Deem and Ramdas Pophale) SiO2 
 PCOD9307865
Probable space group: C 2/C
;
_chemical_formula_sum "Si O2"
_cell_formula_units_Z 28
_cell_length_a 21.443934
_cell_length_b 4.766909
_cell_length_c 17.246447
_cell_angle_alpha 90.000000
_cell_angle_beta 37.323219
_cell_angle_gamma 90.000000
_cell_volume 1068.897852
_symmetry_space_group_name_H-M "C 2/C"
_symmetry_group_IT_number 15
_symmetry_cell_setting 'monoclinic'
loop_
_space_group_symop_operation_xyz
x,y,z
-x,y,1/2-z
-x,-y,-z
x,-y,1/2+z
1/2+x,1/2+y,z
1/2-x,1/2+y,1/2-z
1/2-x,1/2-y,-z
1/2+x,1/2-y,1/2+z
loop_
_atom_site_type_symbol
_atom_site_label
_atom_site_fract_x
_atom_site_fract_y
_atom_site_fract_z
Si Si1 0.083246 0.528297 0.269276
Si Si2 0.182656 0.149267 0.814254
Si Si3 0.250000 0.750000 0.500000
Si Si4 0.062027 0.014602 0.083444
O O1 0.124142 0.678015 0.306702
O O2 0.179470 0.485248 0.117954
O O3 0.033353 0.226026 0.331459
O O4 0.986199 0.721694 0.344170
O O5 0.250753 0.395185 0.787200
O O6 0.114997 0.005304 0.947001
O O7 0.144653 0.868438 0.561957
#
# Coordination Sequence:
#
# PCOD9307865 Si02
#       4
#     8   8   4   8
#     4  12  28  51  82 120 164 222 280 343 419 496
#     4  12  24  50  84 122 163 217 275 347 419 489
#     4  12  30  54  80 120 174 216 282 342 418 502
#     4  12  28  51  82 120 164 223 278 341 419 499
#
# _framework density 26.195207
#
# number of rings (size 3 to 8) (size 9 to 14) (size 15 to 20)
#    0.000    0.000    2.857    6.000    0.000    6.857 
#    0.000    0.000    0.000    0.000    0.000    0.000 
#    0.000    0.000    0.000    0.000    0.000    0.000 
#
# Total GULP energy -78064.482503 kJ/mol
# GULP energy per Si atom -5576.034464 kJ/mol
# Density = 2.613559 g / cm^3
# Si number density = 26.195207 Si / 1000 Ang^3
#
#
#
# Elastic Constant Matrix: (Units=GPa)
#
#
# Indices 1 2 3 4 5 6 
#
# 1 103.6794 -3.7774 37.2516 0.1210 -14.7399 -0.0612
# 2 -3.7774 103.2066 38.2615 0.0086 -0.3478 0.0195
# 3 37.2516 38.2615 144.5234 -0.0288 10.3954 0.0363
# 4 0.1210 0.0086 -0.0288 53.6839 0.0403 -1.9345
# 5 -14.7399 -0.3478 10.3954 0.0403 50.9800 -0.0139
# 6 -0.0612 0.0195 0.0363 -1.9345 -0.0139 7.8594
#
#
#
# Elastic Compliance Matrix: (Units=1/GPa)
#
#
# Indices 1 2 3 4 5 6 
#
# 1 0.011668 0.001848 -0.003796 -0.000028 0.004160 0.000104
# 2 0.001848 0.011059 -0.003499 -0.000009 0.001323 0.000003
# 3 -0.003796 -0.003499 0.009037 0.000014 -0.002964 -0.000064
# 4 -0.000028 -0.000009 0.000014 0.018794 -0.000025 0.004626
# 5 0.004160 0.001323 -0.002964 -0.000025 0.021432 0.000075
# 6 0.000104 0.000003 -0.000064 0.004626 0.000075 0.128376
#
#
# Mechanical properties :
#
#
# Convention : Reuss Voigt Hill
#
# Bulk Modulus (GPa) = 47.91574 54.98673 51.45124
# Shear Modulus (GPa) = 22.91300 41.14958 32.03129
#
# Velocity S-wave (km/s) = 2.96074 3.96774 3.50064
# Velocity P-wave (km/s) = 5.47901 6.48284 6.00195
#
# Compressibility (1/GPa) = 0.02086997
#
# Stress axis : x y z
#
# Youngs Moduli (GPa) = 85.70499 90.42641 110.65111
#
# Poissons Ratio (x) = -0.16714 0.42004
# Poissons Ratio (y) = -0.15841 0.38721
# Poissons Ratio (z) = 0.32534 0.31643
#
# Static dielectric constant tensor:
#      x y z
#    x 2.142260 -0.000010 0.000210 
#    y -0.000010 1.976690 0.000050 
#    z 0.000210 0.000050 2.019270 
# 
# From -- ./inp_files/253925.got.cif
#   From: 2010.05.17/outbox.cif.g08.bks.cpg/sg15_127_cif.got.tgz:253925.got - 2010.06.03 18:47:42.
