data_PCOD9307885
_publ_section_title
;
Structure prediction by ZEFSAII (Michael W. Deem and Ramdas Pophale) SiO2 
 PCOD9307885
Probable space group: C 2/C
;
_chemical_formula_sum "Si O2"
_cell_formula_units_Z 36
_cell_length_a 6.503084
_cell_length_b 20.902371
_cell_length_c 10.789898
_cell_angle_alpha 90.000000
_cell_angle_beta 84.528728
_cell_angle_gamma 90.000000
_cell_volume 1459.987525
_symmetry_space_group_name_H-M "C 2/C"
_symmetry_group_IT_number 15
_symmetry_cell_setting 'monoclinic'
loop_
_space_group_symop_operation_xyz
x,y,z
-x,y,1/2-z
-x,-y,-z
x,-y,1/2+z
1/2+x,1/2+y,z
1/2-x,1/2+y,1/2-z
1/2-x,1/2-y,-z
1/2+x,1/2-y,1/2+z
loop_
_atom_site_type_symbol
_atom_site_label
_atom_site_fract_x
_atom_site_fract_y
_atom_site_fract_z
Si Si1 0.102260 0.643573 0.859386
Si Si2 0.665997 0.724492 0.374472
Si Si3 0.029681 0.054050 0.602861
Si Si4 0.261278 0.358015 0.953309
Si Si5 0.000000 0.626897 0.250000
O O1 0.195263 0.709083 0.797176
O O2 0.257714 0.594329 0.913522
O O3 0.000000 0.607788 0.750000
O O4 0.933280 0.671144 0.964325
O O5 0.750000 0.750000 0.500000
O O6 0.440687 0.689445 0.392907
O O7 0.826419 0.671588 0.320451
O O8 0.000000 0.035692 0.750000
O O9 0.865003 0.103906 0.559457
O O10 0.000000 0.000000 0.500000
O O11 0.145432 0.401278 0.852904
#
# Coordination Sequence:
#
# PCOD9307885 Si02
#       5
#     8   8   8   8   4
#     4  12  25  45  76 110 149 199 257 313 391 463
#     4  12  25  41  73 114 162 203 246 315 390 480
#     4  12  29  52  78 110 153 206 272 340 394 468
#     4  12  25  48  73 110 155 204 257 316 395 466
#     4  12  26  42  70 116 160 204 244 308 388 480
#
# _framework density 24.657744000000001
#
# number of rings (size 3 to 8) (size 9 to 14) (size 15 to 20)
#    0.000    0.000    6.667    2.667    4.667    4.444 
#    2.000    0.000    0.000    0.000    0.000    0.000 
#    0.000    0.000    0.000    0.000    0.000    0.000 
#
# Total GULP energy -100223.701034 kJ/mol
# GULP energy per Si atom -5567.983391 kJ/mol
# Density = 2.460162 g / cm^3
# Si number density = 24.657744 Si / 1000 Ang^3
#
#
#
# Elastic Constant Matrix: (Units=GPa)
#
#
# Indices 1 2 3 4 5 6 
#
# 1 189.1959 51.3437 69.3261 0.0000 19.4875 0.0000
# 2 51.3437 75.6285 33.4142 0.0000 -4.2752 0.0000
# 3 69.3261 33.4142 137.8565 0.0000 26.7779 0.0000
# 4 0.0000 0.0000 0.0000 36.8010 0.0000 13.1528
# 5 19.4875 -4.2752 26.7779 0.0000 76.2706 0.0000
# 6 0.0000 0.0000 0.0000 13.1528 0.0000 9.8320
#
#
#
# Elastic Compliance Matrix: (Units=1/GPa)
#
#
# Indices 1 2 3 4 5 6 
#
# 1 0.007421 -0.003992 -0.002525 0.000000 -0.001234 0.000000
# 2 -0.003992 0.017323 -0.002766 0.000000 0.002962 0.000000
# 3 -0.002525 -0.002766 0.009765 0.000000 -0.002938 0.000000
# 4 0.000000 0.000000 0.000000 0.052068 0.000000 -0.069654
# 5 -0.001234 0.002962 -0.002938 0.000000 0.014624 0.000000
# 6 0.000000 0.000000 0.000000 -0.069654 0.000000 0.194889
#
#
# Mechanical properties :
#
#
# Convention : Reuss Voigt Hill
#
# Bulk Modulus (GPa) = 62.72897 78.98319 70.85608
# Shear Modulus (GPa) = 15.62644 41.15386 28.39015
#
# Velocity S-wave (km/s) = 2.52014 4.08978 3.39686
# Velocity P-wave (km/s) = 5.82780 7.37584 6.64704
#
# Compressibility (1/GPa) = 0.01594160
#
# Stress axis : x y z
#
# Youngs Moduli (GPa) = 134.74998 57.72776 102.40832
#
# Poissons Ratio (x) = 0.23048 0.25855
# Poissons Ratio (y) = 0.53798 0.28330
# Poissons Ratio (z) = 0.34020 0.15970
#
# Static dielectric constant tensor:
#      x y z
#    x 2.365390 0.000000 0.082660 
#    y 0.000000 2.090540 0.000000 
#    z 0.082660 0.000000 2.223860 
# 
# From -- ./inp_files/72451.got.cif
#   From: 2010.05.17/outbox.cif.g08.bks.cpg/sg15_37_cif.got.tgz:72451.got - 2010.06.03 18:47:42.
