data_PCOD9307845
_publ_section_title
;
Structure prediction by ZEFSAII (Michael W. Deem and Ramdas Pophale) SiO2 
 PCOD9307845
Probable space group: C 2/C
;
_chemical_formula_sum "Si O2"
_cell_formula_units_Z 48
_cell_length_a 9.090313
_cell_length_b 11.587401
_cell_length_c 21.639001
_cell_angle_alpha 90.000000
_cell_angle_beta 105.004056
_cell_angle_gamma 90.000000
_cell_volume 2201.595962
_symmetry_space_group_name_H-M "C 2/C"
_symmetry_group_IT_number 15
_symmetry_cell_setting 'monoclinic'
loop_
_space_group_symop_operation_xyz
x,y,z
-x,y,1/2-z
-x,-y,-z
x,-y,1/2+z
1/2+x,1/2+y,z
1/2-x,1/2+y,1/2-z
1/2-x,1/2-y,-z
1/2+x,1/2-y,1/2+z
loop_
_atom_site_type_symbol
_atom_site_label
_atom_site_fract_x
_atom_site_fract_y
_atom_site_fract_z
Si Si1 0.397002 0.740066 0.060388
Si Si2 0.572715 0.600422 0.645024
Si Si3 0.641431 0.640582 0.996074
Si Si4 0.151568 0.483245 0.407591
Si Si5 0.069898 0.359467 0.690403
Si Si6 0.103431 0.107063 0.312247
O O1 0.365272 0.678349 0.121891
O O2 0.441402 0.871975 0.080181
O O3 0.250000 0.750000 0.000000
O O4 0.527716 0.670519 0.039686
O O5 0.458981 0.619269 0.574935
O O6 0.731972 0.557212 0.633468
O O7 0.590011 0.723243 0.680177
O O8 0.493943 0.504412 0.678830
O O9 0.750000 0.750000 0.000000
O O10 0.743919 0.531991 0.025979
O O11 0.044466 0.584346 0.371416
O O12 0.233777 0.418322 0.700010
O O13 0.000000 0.377907 0.750000
O O14 0.000000 0.171855 0.250000
#
# Coordination Sequence:
#
# PCOD9307845 Si02
#       6
#     8   8   8   8   8   8
#     4  12  25  47  76 108 148 192 244 305 364 434
#     4  12  24  50  72 105 146 192 240 303 366 433
#     4  12  25  43  74 108 147 189 240 300 366 433
#     4  12  25  45  72 105 144 187 236 299 365 429
#     4  12  28  47  71 105 142 187 252 295 358 446
#     4  12  27  49  74 104 147 197 242 302 376 436
#
# _framework density 21.802365999999999
#
# number of rings (size 3 to 8) (size 9 to 14) (size 15 to 20)
#    0.000    0.000    6.667    3.000    2.333    1.333 
#    3.000    0.000    0.000    0.000    0.000    0.000 
#    0.000    0.000    0.000    0.000    0.000    0.000 
#
# Total GULP energy -134443.454231 kJ/mol
# GULP energy per Si atom -5601.810593 kJ/mol
# Density = 2.175274 g / cm^3
# Si number density = 21.802366 Si / 1000 Ang^3
#
#
#
# Elastic Constant Matrix: (Units=GPa)
#
#
# Indices 1 2 3 4 5 6 
#
# 1 65.5619 -11.9267 31.3185 0.0000 9.7309 0.0000
# 2 -11.9267 77.6377 -2.7958 0.0000 3.9214 0.0000
# 3 31.3185 -2.7958 95.5081 0.0000 -5.6545 0.0000
# 4 0.0000 0.0000 0.0000 24.1215 0.0000 -10.1230
# 5 9.7309 3.9214 -5.6545 0.0000 30.2368 0.0000
# 6 0.0000 0.0000 0.0000 -10.1230 0.0000 29.0121
#
#
#
# Elastic Compliance Matrix: (Units=1/GPa)
#
#
# Indices 1 2 3 4 5 6 
#
# 1 0.020497 0.003315 -0.007119 0.000000 -0.008358 0.000000
# 2 0.003315 0.013509 -0.000868 0.000000 -0.002981 0.000000
# 3 -0.007119 -0.000868 0.013066 0.000000 0.004847 0.000000
# 4 0.000000 0.000000 0.000000 0.048569 0.000000 0.016947
# 5 -0.008358 -0.002981 0.004847 0.000000 0.037055 0.000000
# 6 0.000000 0.000000 0.000000 0.016947 0.000000 0.040382
#
#
# Mechanical properties :
#
#
# Convention : Reuss Voigt Hill
#
# Bulk Modulus (GPa) = 26.50609 30.21106 28.35857
# Shear Modulus (GPa) = 25.64133 31.48154 28.56144
#
# Velocity S-wave (km/s) = 3.43312 3.80406 3.62334
# Velocity P-wave (km/s) = 5.28195 5.76032 5.52631
#
# Compressibility (1/GPa) = 0.03772718
#
# Stress axis : x y z
#
# Youngs Moduli (GPa) = 48.78792 74.02573 76.53273
#
# Poissons Ratio (x) = -0.24536 0.54484
# Poissons Ratio (y) = -0.16171 0.06642
# Poissons Ratio (z) = 0.34732 0.06425
#
# Static dielectric constant tensor:
#      x y z
#    x 1.769200 0.000000 -0.002900 
#    y 0.000000 1.788600 0.000000 
#    z -0.002900 0.000000 1.795030 
# 
# From -- ./inp_files/263072.got.cif
#   From: 2010.05.17/outbox.cif.g08.bks.cpg/sg15_132_cif.got.tgz:263072.got - 2010.06.03 18:47:42.
