data_PCOD9307946
_publ_section_title
;
Structure prediction by ZEFSAII (Michael W. Deem and Ramdas Pophale) SiO2 
 PCOD9307946
Probable space group: C 2/C
;
_chemical_formula_sum "Si O2"
_cell_formula_units_Z 36
_cell_length_a 14.983017
_cell_length_b 12.091288
_cell_length_c 14.790620
_cell_angle_alpha 90.000000
_cell_angle_beta 139.280777
_cell_angle_gamma 90.000000
_cell_volume 1747.997060
_symmetry_space_group_name_H-M "C 2/C"
_symmetry_group_IT_number 15
_symmetry_cell_setting 'monoclinic'
loop_
_space_group_symop_operation_xyz
x,y,z
-x,y,1/2-z
-x,-y,-z
x,-y,1/2+z
1/2+x,1/2+y,z
1/2-x,1/2+y,1/2-z
1/2-x,1/2-y,-z
1/2+x,1/2-y,1/2+z
loop_
_atom_site_type_symbol
_atom_site_label
_atom_site_fract_x
_atom_site_fract_y
_atom_site_fract_z
Si Si1 0.077106 0.458210 0.467585
Si Si2 0.049622 0.248641 0.083816
Si Si3 0.602851 0.543803 0.247151
Si Si4 0.000000 0.375333 0.750000
Si Si5 0.141638 0.209576 0.732835
O O1 0.237492 0.438971 0.607004
O O2 0.057202 0.547204 0.373330
O O3 0.000000 0.500000 0.500000
O O4 0.006085 0.341303 0.390238
O O5 0.063746 0.127678 0.137340
O O6 0.198297 0.287013 0.165006
O O7 0.944035 0.247884 0.919944
O O8 0.500000 0.567014 0.250000
O O9 0.593115 0.414363 0.216135
O O10 0.889168 0.293813 0.709524
#
# Coordination Sequence:
#
# PCOD9307946 Si02
#       5
#     8   8   8   4   8
#     4  12  25  49  71 105 148 191 234 295 367 424
#     4  12  26  48  72 102 150 190 235 290 368 421
#     4  12  27  45  71 109 142 184 247 297 350 423
#     4  12  26  44  78 106 144 186 240 294 360 426
#     4  12  25  46  74 104 142 190 239 293 349 432
#
# _framework density 20.594999999999999
#
# number of rings (size 3 to 8) (size 9 to 14) (size 15 to 20)
#    0.000    0.000    7.778    0.667    4.667    4.444 
#    0.000    0.000    0.000    0.000    0.000    0.000 
#    0.000    0.000    0.000    0.000    0.000    0.000 
#
# Total GULP energy -100721.014596 kJ/mol
# GULP energy per Si atom -5595.611922 kJ/mol
# Density = 2.054812 g / cm^3
# Si number density = 20.595000 Si / 1000 Ang^3
#
#
#
# Elastic Constant Matrix: (Units=GPa)
#
#
# Indices 1 2 3 4 5 6 
#
# 1 117.2786 46.5047 49.6120 0.0000 11.4097 0.0000
# 2 46.5047 133.7271 34.8814 0.0000 -8.6236 0.0000
# 3 49.6120 34.8814 80.0144 0.0000 14.8803 0.0000
# 4 0.0000 0.0000 0.0000 39.6652 0.0000 -11.6402
# 5 11.4097 -8.6236 14.8803 0.0000 37.0383 0.0000
# 6 0.0000 0.0000 0.0000 -11.6402 0.0000 51.2649
#
#
#
# Elastic Compliance Matrix: (Units=1/GPa)
#
#
# Indices 1 2 3 4 5 6 
#
# 1 0.012436 -0.002873 -0.006076 0.000000 -0.002059 0.000000
# 2 -0.002873 0.009603 -0.003227 0.000000 0.004417 0.000000
# 3 -0.006076 -0.003227 0.018873 0.000000 -0.006462 0.000000
# 4 0.000000 0.000000 0.000000 0.027011 0.000000 0.006133
# 5 -0.002059 0.004417 -0.006462 0.000000 0.031258 0.000000
# 6 0.000000 0.000000 0.000000 0.006133 0.000000 0.020899
#
#
# Mechanical properties :
#
#
# Convention : Reuss Voigt Hill
#
# Bulk Modulus (GPa) = 60.37709 65.89069 63.13389
# Shear Modulus (GPa) = 33.34386 38.92850 36.13618
#
# Velocity S-wave (km/s) = 4.02808 4.35235 4.19335
# Velocity P-wave (km/s) = 7.14240 7.57101 7.35983
#
# Compressibility (1/GPa) = 0.01656257
#
# Stress axis : x y z
#
# Youngs Moduli (GPa) = 80.40918 104.12873 52.98471
#
# Poissons Ratio (x) = 0.29915 0.32192
# Poissons Ratio (y) = 0.23100 0.17097
# Poissons Ratio (z) = 0.48855 0.33600
#
# Static dielectric constant tensor:
#      x y z
#    x 1.711850 0.000000 -0.020900 
#    y 0.000000 1.773590 0.000000 
#    z -0.020900 0.000000 1.702520 
# 
# From -- ./inp_files/94444.got.cif
#   From: 2010.05.17/outbox.cif.g08.bks.cpg/sg15_48_cif.got.tgz:94444.got - 2010.06.03 18:47:42.
