data_PCOD9307106
_publ_section_title
;
Structure prediction by ZEFSAII (Michael W. Deem and Ramdas Pophale) SiO2 
 PCOD9307106
Probable space group: C 2/C
;
_chemical_formula_sum "Si O2"
_cell_formula_units_Z 40
_cell_length_a 18.295547
_cell_length_b 13.762427
_cell_length_c 14.647354
_cell_angle_alpha 90.000000
_cell_angle_beta 31.391903
_cell_angle_gamma 90.000000
_cell_volume 1921.077094
_symmetry_space_group_name_H-M "C 2/C"
_symmetry_group_IT_number 15
_symmetry_cell_setting 'monoclinic'
loop_
_space_group_symop_operation_xyz
x,y,z
-x,y,1/2-z
-x,-y,-z
x,-y,1/2+z
1/2+x,1/2+y,z
1/2-x,1/2+y,1/2-z
1/2-x,1/2-y,-z
1/2+x,1/2-y,1/2+z
loop_
_atom_site_type_symbol
_atom_site_label
_atom_site_fract_x
_atom_site_fract_y
_atom_site_fract_z
Si Si1 0.188455 0.945164 0.422592
Si Si2 0.958129 0.376967 0.200329
Si Si3 0.738151 0.981939 0.853966
Si Si4 0.961349 0.810574 0.585850
Si Si5 0.469648 0.616817 0.685090
O O1 0.307319 0.926864 0.369501
O O2 0.096243 0.851685 0.495951
O O3 0.259349 0.979442 0.252619
O O4 0.080147 0.027983 0.566231
O O5 0.000000 0.325962 0.250000
O O6 0.939406 0.298381 0.141010
O O7 0.082077 0.452493 0.047915
O O8 0.834616 0.883928 0.747088
O O9 0.820134 0.064095 0.825395
O O10 0.993885 0.820869 0.443635
O O11 0.500000 0.666494 0.750000
#
# Coordination Sequence:
#
# PCOD9307106 Si02
#       5
#     8   8   8   8   8
#     4   9  19  35  53  74 103 137 171 209 253 303
#     4  12  22  31  51  82 110 133 163 213 266 301
#     4   9  19  35  53  74 103 137 171 209 253 303
#     4   9  20  34  50  76 107 139 168 204 256 306
#     4   9  17  35  59  76  96 134 180 211 241 301
#
# _framework density 20.821653000000001
#
# number of rings (size 3 to 8) (size 9 to 14) (size 15 to 20)
#    0.000    2.400    0.000    5.400    0.000    6.400 
#    0.000    0.000    0.000   24.000    0.000    0.000 
#    0.000    0.000    0.000    0.000    0.000    0.000 
#
# Total GULP energy -111642.577448 kJ/mol
# GULP energy per Si atom -5582.128872 kJ/mol
# Density = 2.077426 g / cm^3
# Si number density = 20.821653 Si / 1000 Ang^3
#
#
#
# Elastic Constant Matrix: (Units=GPa)
#
#
# Indices 1 2 3 4 5 6 
#
# 1 93.7300 4.2132 8.8913 0.0000 -12.6495 0.0000
# 2 4.2132 34.5704 -0.7161 0.0000 -5.4093 0.0000
# 3 8.8913 -0.7161 37.2273 0.0000 -13.6881 0.0000
# 4 0.0000 0.0000 0.0000 11.2307 0.0000 1.2610
# 5 -12.6495 -5.4093 -13.6881 0.0000 30.3205 0.0000
# 6 0.0000 0.0000 0.0000 1.2610 0.0000 4.4751
#
#
#
# Elastic Compliance Matrix: (Units=1/GPa)
#
#
# Indices 1 2 3 4 5 6 
#
# 1 0.011367 -0.000779 -0.001244 0.000000 0.004042 0.000000
# 2 -0.000779 0.030098 0.003141 0.000000 0.006463 0.000000
# 3 -0.001244 0.003141 0.032655 0.000000 0.014784 0.000000
# 4 0.000000 0.000000 0.000000 0.091951 0.000000 -0.025909
# 5 0.004042 0.006463 0.014784 0.000000 0.042494 0.000000
# 6 0.000000 0.000000 0.000000 -0.025909 0.000000 0.230759
#
#
# Mechanical properties :
#
#
# Convention : Reuss Voigt Hill
#
# Bulk Modulus (GPa) = 13.09620 21.14495 17.12057
# Shear Modulus (GPa) = 10.80989 19.41454 15.11222
#
# Velocity S-wave (km/s) = 2.28099 3.05687 2.69698
# Velocity P-wave (km/s) = 3.63876 4.75779 4.23540
#
# Compressibility (1/GPa) = 0.07635803
#
# Stress axis : x y z
#
# Youngs Moduli (GPa) = 87.97065 33.22508 30.62289
#
# Poissons Ratio (x) = 0.02587 0.03809
# Poissons Ratio (y) = 0.06850 -0.09619
# Poissons Ratio (z) = 0.10942 -0.10437
#
# Static dielectric constant tensor:
#      x y z
#    x 1.764530 0.000000 0.018200 
#    y 0.000000 1.706540 0.000000 
#    z 0.018200 0.000000 1.767520 
# 
# From -- ./inp_files/38074.got.cif
#   From: 2010.05.17/outbox.cif.g08.bks.cpg/sg15_20_cif.got.tgz:38074.got - 2010.06.03 18:47:42.
