data_PCOD9307756
_publ_section_title
;
Structure prediction by ZEFSAII (Michael W. Deem and Ramdas Pophale) SiO2 
 PCOD9307756
Probable space group: C 2/C
;
_chemical_formula_sum "Si O2"
_cell_formula_units_Z 28
_cell_length_a 9.834593
_cell_length_b 24.470073
_cell_length_c 5.220197
_cell_angle_alpha 90.000000
_cell_angle_beta 72.912223
_cell_angle_gamma 90.000000
_cell_volume 1200.800591
_symmetry_space_group_name_H-M "C 2/C"
_symmetry_group_IT_number 15
_symmetry_cell_setting 'monoclinic'
loop_
_space_group_symop_operation_xyz
x,y,z
-x,y,1/2-z
-x,-y,-z
x,-y,1/2+z
1/2+x,1/2+y,z
1/2-x,1/2+y,1/2-z
1/2-x,1/2-y,-z
1/2+x,1/2-y,1/2+z
loop_
_atom_site_type_symbol
_atom_site_label
_atom_site_fract_x
_atom_site_fract_y
_atom_site_fract_z
Si Si1 0.257913 0.212325 0.242266
Si Si2 0.684363 0.966336 0.505161
Si Si3 0.000000 0.366782 0.750000
Si Si4 0.500000 0.364181 0.750000
Si Si5 0.500000 0.568509 0.750000
O O1 0.250000 0.250000 0.500000
O O2 0.397016 0.174118 0.155097
O O3 0.123834 0.172509 0.299392
O O4 0.250000 0.250000 0.000000
O O5 0.606415 0.907605 0.539707
O O6 0.855941 0.961194 0.414006
O O7 0.645177 0.004188 0.290103
O O8 0.549415 0.398960 0.477749
#
# Coordination Sequence:
#
# PCOD9307756 Si02
#       5
#     8   8   4   4   4
#     4  12  27  48  76 109 148 198 255 313 383 449
#     4  12  27  48  77 114 152 201 254 305 381 456
#     4  12  28  51  80 111 161 194 249 330 374 436
#     4  12  24  47  74 105 147 198 252 297 384 456
#     4  12  24  48  76 106 154 200 243 307 370 456
#
# _framework density 23.317779000000002
#
# number of rings (size 3 to 8) (size 9 to 14) (size 15 to 20)
#    0.000    0.000    2.857    6.857    0.000    2.286 
#    0.000    0.000    0.000    0.000    0.000    0.000 
#    0.000    0.000    0.000    0.000    0.000    0.000 
#
# Total GULP energy -78446.020364 kJ/mol
# GULP energy per Si atom -5603.287169 kJ/mol
# Density = 2.326471 g / cm^3
# Si number density = 23.317779 Si / 1000 Ang^3
#
#
#
# Elastic Constant Matrix: (Units=GPa)
#
#
# Indices 1 2 3 4 5 6 
#
# 1 165.3473 58.4416 27.7777 0.0000 -3.3373 0.0000
# 2 58.4416 124.4127 64.2920 0.0000 12.1326 0.0000
# 3 27.7777 64.2920 165.2564 0.0000 21.1130 0.0000
# 4 0.0000 0.0000 0.0000 -220.4844 0.0000 -108.0476
# 5 -3.3373 12.1326 21.1130 0.0000 43.9594 0.0000
# 6 0.0000 0.0000 0.0000 -108.0476 0.0000 -20.2926
#
#
#
# Elastic Compliance Matrix: (Units=1/GPa)
#
#
# Indices 1 2 3 4 5 6 
#
# 1 0.007354 -0.003586 -0.000041 0.000000 0.001568 0.000000
# 2 -0.003586 0.011847 -0.003786 0.000000 -0.001724 0.000000
# 3 -0.000041 -0.003786 0.007882 0.000000 -0.002744 0.000000
# 4 0.000000 0.000000 0.000000 0.002818 0.000000 -0.015006
# 5 0.001568 -0.001724 -0.002744 0.000000 0.024661 0.000000
# 6 0.000000 0.000000 0.000000 -0.015006 0.000000 0.030622
#
#
# Mechanical properties :
#
#
# Convention : Reuss Voigt Hill
#
# Bulk Modulus (GPa) = 81.59417 84.00432 82.79924
# Shear Modulus (GPa) = 48.03281 -19.06318 14.48481
#
# Velocity S-wave (km/s) = 4.54356 -2.86236 2.49508
# Velocity P-wave (km/s) = 7.91160 5.01796 6.62470
#
# Compressibility (1/GPa) = 0.01225578
#
# Stress axis : x y z
#
# Youngs Moduli (GPa) = 135.98203 84.41133 126.87821
#
# Poissons Ratio (x) = 0.30270 0.00524
# Poissons Ratio (y) = 0.48763 0.48035
# Poissons Ratio (z) = 0.00562 0.31958
#
# Static dielectric constant tensor:
#      x y z
#    x 1.882170 0.000000 0.010530 
#    y 0.000000 1.881170 0.000000 
#    z 0.010530 0.000000 1.788140 
# 
# From -- ./inp_files/1979.got.cif
#   From: 2010.05.17/outbox.cif.g08.bks.cpg/sg15_1_cif.got.tgz:1979.got - 2010.06.03 18:47:42.
