data_PCOD9307120
_publ_section_title
;
Structure prediction by ZEFSAII (Michael W. Deem and Ramdas Pophale) SiO2 
 PCOD9307120
Probable space group: C 2/C
;
_chemical_formula_sum "Si O2"
_cell_formula_units_Z 40
_cell_length_a 27.959057
_cell_length_b 7.177395
_cell_length_c 16.600552
_cell_angle_alpha 90.000000
_cell_angle_beta 150.023163
_cell_angle_gamma 90.000000
_cell_volume 1664.476464
_symmetry_space_group_name_H-M "C 2/C"
_symmetry_group_IT_number 15
_symmetry_cell_setting 'monoclinic'
loop_
_space_group_symop_operation_xyz
x,y,z
-x,y,1/2-z
-x,-y,-z
x,-y,1/2+z
1/2+x,1/2+y,z
1/2-x,1/2+y,1/2-z
1/2-x,1/2-y,-z
1/2+x,1/2-y,1/2+z
loop_
_atom_site_type_symbol
_atom_site_label
_atom_site_fract_x
_atom_site_fract_y
_atom_site_fract_z
Si Si1 0.911664 0.553907 0.314816
Si Si2 0.761518 0.209027 0.357894
Si Si3 0.378680 0.510879 0.916729
Si Si4 0.445649 0.718287 0.254629
Si Si5 0.658569 0.549353 0.810525
O O1 0.813376 0.551223 0.222874
O O2 0.915775 0.414758 0.246617
O O3 0.912112 0.771766 0.290030
O O4 0.000000 0.500000 0.500000
O O5 0.704340 0.330239 0.207513
O O6 0.758719 0.350778 0.430541
O O7 0.855266 0.131872 0.453465
O O8 0.368694 0.435665 0.810911
O O9 0.475804 0.618934 0.073910
O O10 0.500000 0.732334 0.250000
O O11 0.355428 0.578044 0.132744
#
# Coordination Sequence:
#
# PCOD9307120 Si02
#       5
#     8   8   8   8   8
#     4   9  18  36  59  81 105 148 195 230 268 328
#     4   8  19  31  60  79 110 137 197 234 269 313
#     4   9  19  35  56  88 104 146 189 236 273 328
#     4  12  22  36  58  86 117 150 184 231 286 338
#     4   8  21  34  59  80 109 149 189 229 275 322
#
# _framework density 24.031582
#
# number of rings (size 3 to 8) (size 9 to 14) (size 15 to 20)
#    2.400    0.000    4.000    0.600    2.800    0.800 
#    0.000    2.000    0.000    0.000    0.000    0.000 
#    0.000    0.000    0.000    0.000    0.000    0.000 
#
# Total GULP energy -111382.889734 kJ/mol
# GULP energy per Si atom -5569.144487 kJ/mol
# Density = 2.397688 g / cm^3
# Si number density = 24.031582 Si / 1000 Ang^3
#
#
#
# Elastic Constant Matrix: (Units=GPa)
#
#
# Indices 1 2 3 4 5 6 
#
# 1 177.4938 76.9271 5.1816 0.0000 12.3242 0.0000
# 2 76.9271 110.0280 9.2439 0.0000 4.8972 0.0000
# 3 5.1816 9.2439 55.6831 0.0000 -3.1663 0.0000
# 4 0.0000 0.0000 0.0000 14.2295 0.0000 16.6143
# 5 12.3242 4.8972 -3.1663 0.0000 21.8119 0.0000
# 6 0.0000 0.0000 0.0000 16.6143 0.0000 38.4880
#
#
#
# Elastic Compliance Matrix: (Units=1/GPa)
#
#
# Indices 1 2 3 4 5 6 
#
# 1 0.008331 -0.005669 -0.000030 0.000000 -0.003438 0.000000
# 2 -0.005669 0.013192 -0.001662 0.000000 0.000000 0.000000
# 3 -0.000030 -0.001662 0.018412 0.000000 0.003063 0.000000
# 4 0.000000 0.000000 0.000000 0.141694 0.000000 -0.061166
# 5 -0.003438 0.000000 0.003063 0.000000 0.048234 0.000000
# 6 0.000000 0.000000 0.000000 -0.061166 0.000000 0.052386
#
#
# Mechanical properties :
#
#
# Convention : Reuss Voigt Hill
#
# Bulk Modulus (GPa) = 39.66354 58.43446 49.04900
# Shear Modulus (GPa) = 16.37341 31.69603 24.03472
#
# Velocity S-wave (km/s) = 2.61306 3.63565 3.16592
# Velocity P-wave (km/s) = 5.06406 6.48016 5.81537
#
# Compressibility (1/GPa) = 0.02521207
#
# Stress axis : x y z
#
# Youngs Moduli (GPa) = 120.04041 75.80533 54.31335
#
# Poissons Ratio (x) = 0.42973 0.00161
# Poissons Ratio (y) = 0.68049 0.09029
# Poissons Ratio (z) = 0.00356 0.12602
#
# Static dielectric constant tensor:
#      x y z
#    x 1.955880 0.000000 0.021220 
#    y 0.000000 1.968980 0.000000 
#    z 0.021220 0.000000 2.065720 
# 
# From -- ./inp_files/218411.got.cif
#   From: 2010.05.17/outbox.cif.g08.bks.cpg/sg15_110_cif.got.tgz:218411.got - 2010.06.03 18:47:42.
