data_PCOD9307006
_publ_section_title
;
Structure prediction by ZEFSAII (Michael W. Deem and Ramdas Pophale) SiO2 
 PCOD9307006
Probable space group: C 2/C
;
_chemical_formula_sum "Si O2"
_cell_formula_units_Z 60
_cell_length_a 24.236215
_cell_length_b 12.994672
_cell_length_c 27.856687
_cell_angle_alpha 90.000000
_cell_angle_beta 17.609737
_cell_angle_gamma 90.000000
_cell_volume 2654.182129
_symmetry_space_group_name_H-M "C 2/C"
_symmetry_group_IT_number 15
_symmetry_cell_setting 'monoclinic'
loop_
_space_group_symop_operation_xyz
x,y,z
-x,y,1/2-z
-x,-y,-z
x,-y,1/2+z
1/2+x,1/2+y,z
1/2-x,1/2+y,1/2-z
1/2-x,1/2-y,-z
1/2+x,1/2-y,1/2+z
loop_
_atom_site_type_symbol
_atom_site_label
_atom_site_fract_x
_atom_site_fract_y
_atom_site_fract_z
Si Si1 0.500000 0.011102 0.250000
Si Si2 0.722927 0.248653 0.285679
Si Si3 0.184378 0.193063 0.389962
Si Si4 0.700962 0.917902 0.416380
Si Si5 0.213477 0.864571 0.050752
Si Si6 0.763563 0.522609 0.863027
Si Si7 0.122528 0.928686 0.789163
Si Si8 0.351919 0.957665 0.178988
O O1 0.317669 0.069427 0.422512
O O2 0.575011 0.953523 0.234475
O O3 0.716073 0.178796 0.243323
O O4 0.528410 0.303608 0.446877
O O5 0.777575 0.179734 0.285480
O O6 0.870677 0.336908 0.151889
O O7 0.241636 0.305204 0.361622
O O8 0.225385 0.101253 0.392428
O O9 0.673001 0.895680 0.495499
O O10 0.854671 0.002980 0.277521
O O11 0.535076 0.975335 0.526749
O O12 0.000000 0.871518 0.250000
O O13 0.250000 0.750000 0.000000
O O14 0.793854 0.546382 0.782432
O O15 0.588129 0.583414 0.025795
O O16 0.204463 0.998620 0.764382
#
# Coordination Sequence:
#
# PCOD9307006 Si02
#       8
#     4   8   8   8   8   8   8   8
#     4  12  26  48  68 102 140 194 256 296 356 434
#     4  12  24  36  65  98 138 176 230 279 363 442
#     4  12  21  36  60  96 137 180 217 278 351 435
#     4  12  24  40  66  96 144 183 229 290 362 439
#     4  12  26  46  70 103 145 193 241 291 356 430
#     4  12  24  42  68  93 139 186 237 294 359 429
#     4  12  23  42  64 101 137 181 230 294 362 444
#     4  12  22  42  63  99 140 185 226 298 369 440
#
# _framework density 22.605834000000002
#
# number of rings (size 3 to 8) (size 9 to 14) (size 15 to 20)
#    0.000    0.000    7.333    4.000    0.000    0.000 
#    0.000    0.000    0.000    0.800    3.467    0.000 
#    0.000    0.000    0.000    0.000    0.000    0.000 
#
# Total GULP energy -167410.821061 kJ/mol
# GULP energy per Si atom -5580.360702 kJ/mol
# Density = 2.255438 g / cm^3
# Si number density = 22.605834 Si / 1000 Ang^3
#
#
#
# Elastic Constant Matrix: (Units=GPa)
#
#
# Indices 1 2 3 4 5 6 
#
# 1 106.8579 11.4018 8.4141 0.0030 6.1101 -0.0075
# 2 11.4018 57.7332 -12.5304 -0.1015 -5.7956 -0.0205
# 3 8.4141 -12.5304 92.6363 -0.0856 -5.1731 -0.0148
# 4 0.0030 -0.1015 -0.0856 30.3617 -0.0202 6.3175
# 5 6.1101 -5.7956 -5.1731 -0.0202 35.3051 0.0037
# 6 -0.0075 -0.0205 -0.0148 6.3175 0.0037 25.6073
#
#
#
# Elastic Compliance Matrix: (Units=1/GPa)
#
#
# Indices 1 2 3 4 5 6 
#
# 1 0.009862 -0.002475 -0.001360 -0.000016 -0.002312 0.000004
# 2 -0.002475 0.018858 0.002997 0.000075 0.003963 -0.000003
# 3 -0.001360 0.002997 0.011458 0.000045 0.002406 -0.000003
# 4 -0.000016 0.000075 0.000045 0.034719 0.000042 -0.008565
# 5 -0.002312 0.003963 0.002406 0.000042 0.029728 -0.000011
# 6 0.000004 -0.000003 -0.000003 -0.008565 -0.000011 0.041164
#
#
# Mechanical properties :
#
#
# Convention : Reuss Voigt Hill
#
# Bulk Modulus (GPa) = 25.97182 30.19982 28.08582
# Shear Modulus (GPa) = 31.19185 34.91762 33.05473
#
# Velocity S-wave (km/s) = 3.71861 3.93444 3.82805
# Velocity P-wave (km/s) = 5.47279 5.83336 5.65595
#
# Compressibility (1/GPa) = 0.03850327
#
# Stress axis : x y z
#
# Youngs Moduli (GPa) = 101.40395 53.02715 87.27373
#
# Poissons Ratio (x) = 0.13123 0.11866
# Poissons Ratio (y) = 0.25095 -0.26156
# Poissons Ratio (z) = 0.13787 -0.15892
#
# Static dielectric constant tensor:
#      x y z
#    x 1.844440 0.000010 -0.012920 
#    y 0.000010 1.889160 0.000060 
#    z -0.012920 0.000060 1.976270 
# 
# From -- ./inp_files/302342.got.cif
#   From: 2010.05.17/outbox.cif.g08.bks.cpg/sg15_152_cif.got.tgz:302342.got - 2010.06.03 18:47:42.
