data_PCOD9307564
_publ_section_title
;
Structure prediction by ZEFSAII (Michael W. Deem and Ramdas Pophale) SiO2 
 PCOD9307564
Probable space group: C 2/C
;
_chemical_formula_sum "Si O2"
_cell_formula_units_Z 52
_cell_length_a 16.039605
_cell_length_b 8.366006
_cell_length_c 25.499791
_cell_angle_alpha 90.000000
_cell_angle_beta 134.744887
_cell_angle_gamma 90.000000
_cell_volume 2430.292811
_symmetry_space_group_name_H-M "C 2/C"
_symmetry_group_IT_number 15
_symmetry_cell_setting 'monoclinic'
loop_
_space_group_symop_operation_xyz
x,y,z
-x,y,1/2-z
-x,-y,-z
x,-y,1/2+z
1/2+x,1/2+y,z
1/2-x,1/2+y,1/2-z
1/2-x,1/2-y,-z
1/2+x,1/2-y,1/2+z
loop_
_atom_site_type_symbol
_atom_site_label
_atom_site_fract_x
_atom_site_fract_y
_atom_site_fract_z
Si Si1 0.474050 0.322043 0.082973
Si Si2 0.373641 0.966511 0.044782
Si Si3 0.777158 0.077309 0.423959
Si Si4 0.500000 0.630039 0.250000
Si Si5 0.580336 0.780653 0.177806
Si Si6 0.213410 0.976774 0.189369
Si Si7 0.179218 0.065016 0.887397
O O1 0.436602 0.137829 0.065638
O O2 0.611816 0.343947 0.147449
O O3 0.414408 0.402721 0.107575
O O4 0.409290 0.406523 0.005105
O O5 0.298967 0.987789 0.065256
O O6 0.471867 0.832925 0.093551
O O7 0.281167 0.954087 0.956653
O O8 0.762124 0.999332 0.361203
O O9 0.731201 0.260297 0.398900
O O10 0.526331 0.731184 0.209954
O O11 0.387985 0.517924 0.189397
O O12 0.653250 0.635868 0.185370
O O13 0.671026 0.924159 0.228695
#
# Coordination Sequence:
#
# PCOD9307564 Si02
#       7
#     8   8   8   4   8   8   8
#     4   9  18  42  66  93 121 161 201 255 304 370
#     4   9  20  44  66  91 117 162 212 252 298 362
#     4   9  20  38  70  91 121 159 208 247 315 356
#     4  12  24  42  60  92 122 164 212 244 308 362
#     4  12  27  40  61  89 127 167 206 254 306 363
#     4  12  24  41  58  93 130 162 200 257 312 362
#     4   9  20  40  69  93 119 160 208 255 298 368
#
# _framework density 21.396598999999998
#
# number of rings (size 3 to 8) (size 9 to 14) (size 15 to 20)
#    0.000    1.846    1.538    4.154    2.154    3.077 
#    5.538    1.538    0.000    0.000    0.000    0.000 
#    0.000    0.000    0.000    0.000    0.000    0.000 
#
# Total GULP energy -145395.079929 kJ/mol
# GULP energy per Si atom -5592.118459 kJ/mol
# Density = 2.134790 g / cm^3
# Si number density = 21.396599 Si / 1000 Ang^3
#
#
#
# Elastic Constant Matrix: (Units=GPa)
#
#
# Indices 1 2 3 4 5 6 
#
# 1 14.4163 -8.2093 -9.9144 0.0000 3.6581 0.0000
# 2 -8.2093 27.6732 3.3600 0.0000 2.3690 0.0000
# 3 -9.9144 3.3600 89.3120 0.0000 8.1164 0.0000
# 4 0.0000 0.0000 0.0000 36.1745 0.0000 0.3470
# 5 3.6581 2.3690 8.1164 0.0000 21.1783 0.0000
# 6 0.0000 0.0000 0.0000 0.3470 0.0000 20.2213
#
#
#
# Elastic Compliance Matrix: (Units=1/GPa)
#
#
# Indices 1 2 3 4 5 6 
#
# 1 0.102239 0.031027 0.012539 0.000000 -0.025936 0.000000
# 2 0.031027 0.045995 0.002765 0.000000 -0.011564 0.000000
# 3 0.012539 0.002765 0.013168 0.000000 -0.007522 0.000000
# 4 0.000000 0.000000 0.000000 0.027648 0.000000 -0.000474
# 5 -0.025936 -0.011564 -0.007522 0.000000 0.055874 0.000000
# 6 0.000000 0.000000 0.000000 -0.000474 0.000000 0.049461
#
#
# Mechanical properties :
#
#
# Convention : Reuss Voigt Hill
#
# Bulk Modulus (GPa) = 3.93603 11.31933 7.62768
# Shear Modulus (GPa) = 17.45745 25.25916 21.35831
#
# Velocity S-wave (km/s) = 2.85949 3.43960 3.16287
# Velocity P-wave (km/s) = 3.57013 4.59088 4.11230
#
# Compressibility (1/GPa) = 0.25406330
#
# Stress axis : x y z
#
# Youngs Moduli (GPa) = 9.78104 21.74172 75.94056
#
# Poissons Ratio (x) = -0.67458 -0.95223
# Poissons Ratio (y) = -0.30348 -0.20996
# Poissons Ratio (z) = -0.12265 -0.06011
#
# Static dielectric constant tensor:
#      x y z
#    x 1.749550 0.000000 0.010300 
#    y 0.000000 1.781140 0.000000 
#    z 0.010300 0.000000 1.754620 
# 
# From -- ./inp_files/209143.got.cif
#   From: 2010.05.17/outbox.cif.g08.bks.cpg/sg15_105_cif.got.tgz:209143.got - 2010.06.03 18:47:42.
