data_PCOD9307620
_publ_section_title
;
Structure prediction by ZEFSAII (Michael W. Deem and Ramdas Pophale) SiO2 
 PCOD9307620
Probable space group: C 2/C
;
_chemical_formula_sum "Si O2"
_cell_formula_units_Z 28
_cell_length_a 23.007193
_cell_length_b 7.394459
_cell_length_c 15.695867
_cell_angle_alpha 90.000000
_cell_angle_beta 30.403087
_cell_angle_gamma 90.000000
_cell_volume 1351.371410
_symmetry_space_group_name_H-M "C 2/C"
_symmetry_group_IT_number 15
_symmetry_cell_setting 'monoclinic'
loop_
_space_group_symop_operation_xyz
x,y,z
-x,y,1/2-z
-x,-y,-z
x,-y,1/2+z
1/2+x,1/2+y,z
1/2-x,1/2+y,1/2-z
1/2-x,1/2-y,-z
1/2+x,1/2-y,1/2+z
loop_
_atom_site_type_symbol
_atom_site_label
_atom_site_fract_x
_atom_site_fract_y
_atom_site_fract_z
Si Si1 0.281729 0.728499 0.101963
Si Si2 0.371638 0.578309 0.168993
Si Si3 0.917484 0.451003 0.184244
Si Si4 0.500000 0.116675 0.250000
O O1 0.330909 0.662891 0.130743
O O2 0.192502 0.579912 0.182807
O O3 0.213873 0.917042 0.198739
O O4 0.388156 0.761120 0.905219
O O5 0.378198 0.744492 0.226052
O O6 0.500000 0.500000 0.000000
O O7 0.984245 0.495879 0.186111
O O8 0.000000 0.500000 0.000000
#
# Coordination Sequence:
#
# PCOD9307620 Si02
#       4
#     8   8   8   4
#     4  12  24  45  71 105 145 184 236 292 351 421
#     4  12  24  43  77 103 138 193 234 287 358 416
#     4  12  24  47  72 102 144 183 238 293 351 418
#     4  12  26  44  72 108 142 190 234 288 358 422
#
# _framework density 20.719691999999998
#
# number of rings (size 3 to 8) (size 9 to 14) (size 15 to 20)
#    0.000    0.000    8.571    0.857    0.000    1.143 
#    0.000    7.143    0.000    0.000    0.000    0.000 
#    0.000    0.000    0.000    0.000    0.000    0.000 
#
# Total GULP energy -78424.702793 kJ/mol
# GULP energy per Si atom -5601.764485 kJ/mol
# Density = 2.067253 g / cm^3
# Si number density = 20.719692 Si / 1000 Ang^3
#
#
#
# Elastic Constant Matrix: (Units=GPa)
#
#
# Indices 1 2 3 4 5 6 
#
# 1 128.1058 40.5178 37.0466 0.0006 -6.8156 -0.0002
# 2 40.5178 167.2941 71.5582 0.0017 -16.3849 -0.0003
# 3 37.0466 71.5582 156.9579 0.0005 -16.4621 -0.0001
# 4 0.0006 0.0017 0.0005 32.9745 -0.0001 -20.2796
# 5 -6.8156 -16.3849 -16.4621 -0.0001 31.3272 0.0000
# 6 -0.0002 -0.0003 -0.0001 -20.2796 0.0000 33.4500
#
#
#
# Elastic Compliance Matrix: (Units=1/GPa)
#
#
# Indices 1 2 3 4 5 6 
#
# 1 0.008684 -0.001497 -0.001324 0.000000 0.000411 0.000000
# 2 -0.001497 0.007833 -0.002987 0.000000 0.002202 0.000000
# 3 -0.001324 -0.002987 0.008309 0.000000 0.002516 0.000000
# 4 0.000000 0.000000 0.000000 0.048357 0.000000 0.029317
# 5 0.000411 0.002202 0.002516 0.000000 0.034484 0.000000
# 6 0.000000 0.000000 0.000000 0.029317 0.000000 0.047669
#
#
# Mechanical properties :
#
#
# Convention : Reuss Voigt Hill
#
# Bulk Modulus (GPa) = 75.69499 83.40033 79.54766
# Shear Modulus (GPa) = 29.17890 39.76604 34.47247
#
# Velocity S-wave (km/s) = 3.75676 4.38566 4.08334
# Velocity P-wave (km/s) = 7.44512 8.12309 7.79148
#
# Compressibility (1/GPa) = 0.01321091
#
# Stress axis : x y z
#
# Youngs Moduli (GPa) = 115.15128 127.66027 120.34495
#
# Poissons Ratio (x) = 0.19105 0.15938
# Poissons Ratio (y) = 0.17233 0.35948
# Poissons Ratio (z) = 0.15250 0.38133
#
# Static dielectric constant tensor:
#      x y z
#    x 1.742260 0.000000 0.005530 
#    y 0.000000 1.713170 0.000000 
#    z 0.005530 0.000000 1.725420 
# 
# From -- ./inp_files/93025.got.cif
#   From: 2010.05.17/outbox.cif.g08.bks.cpg/sg15_47_cif.got.tgz:93025.got - 2010.06.03 18:47:42.
