data_PCOD9307544
_publ_section_title
;
Structure prediction by ZEFSAII (Michael W. Deem and Ramdas Pophale) SiO2 
 PCOD9307544
Probable space group: C 2/C
;
_chemical_formula_sum "Si O2"
_cell_formula_units_Z 56
_cell_length_a 15.191901
_cell_length_b 11.251996
_cell_length_c 13.643717
_cell_angle_alpha 90.000000
_cell_angle_beta 94.150364
_cell_angle_gamma 90.000000
_cell_volume 2326.129997
_symmetry_space_group_name_H-M "C 2/C"
_symmetry_group_IT_number 15
_symmetry_cell_setting 'monoclinic'
loop_
_space_group_symop_operation_xyz
x,y,z
-x,y,1/2-z
-x,-y,-z
x,-y,1/2+z
1/2+x,1/2+y,z
1/2-x,1/2+y,1/2-z
1/2-x,1/2-y,-z
1/2+x,1/2-y,1/2+z
loop_
_atom_site_type_symbol
_atom_site_label
_atom_site_fract_x
_atom_site_fract_y
_atom_site_fract_z
Si Si1 0.631129 0.509946 0.716406
Si Si2 0.012705 0.879724 0.565799
Si Si3 0.181044 0.843414 0.896141
Si Si4 0.695573 0.756458 0.751477
Si Si5 0.161088 0.683564 0.584205
Si Si6 0.601753 0.991707 0.252935
Si Si7 0.217489 0.515923 0.935730
O O1 0.549419 0.436897 0.668837
O O2 0.664046 0.453698 0.820034
O O3 0.625884 0.650520 0.732034
O O4 0.704062 0.494376 0.636289
O O5 0.088562 0.782518 0.545616
O O6 0.916757 0.819322 0.569834
O O7 0.000000 0.000000 0.500000
O O8 0.232594 0.753179 0.830134
O O9 0.246209 0.887089 0.985803
O O10 0.752229 0.736318 0.854539
O O11 0.650752 0.883599 0.740004
O O12 0.120832 0.601403 0.668028
O O13 0.309227 0.902883 0.500419
O O14 0.500000 0.015042 0.250000
O O15 0.634321 0.951106 0.362497
#
# Coordination Sequence:
#
# PCOD9307544 Si02
#       7
#     8   8   8   8   8   8   8
#     4  12  25  46  76 113 154 196 259 315 393 444
#     4  12  28  48  77 120 149 200 261 322 385 456
#     4  12  25  49  78 111 153 199 260 315 380 467
#     4  12  24  50  75 108 153 208 248 319 390 455
#     4  12  27  50  80 110 159 205 257 327 390 451
#     4  12  29  50  73 113 155 204 258 321 398 458
#     4  12  23  51  79 111 151 204 264 311 387 475
#
# _framework density 24.074321999999999
#
# number of rings (size 3 to 8) (size 9 to 14) (size 15 to 20)
#    0.000    0.000    8.571    0.429    2.000    6.857 
#    2.571    0.000    0.000    0.000    0.000    0.000 
#    0.000    0.000    0.000    0.000    0.000    0.000 
#
# Total GULP energy -156749.590029 kJ/mol
# GULP energy per Si atom -5598.199644 kJ/mol
# Density = 2.401953 g / cm^3
# Si number density = 24.074322 Si / 1000 Ang^3
#
#
#
# Elastic Constant Matrix: (Units=GPa)
#
#
# Indices 1 2 3 4 5 6 
#
# 1 123.2590 29.6884 42.6069 0.0000 17.4832 0.0000
# 2 29.6884 129.8661 28.4738 0.0000 6.3404 0.0000
# 3 42.6069 28.4738 123.1978 0.0000 1.5976 0.0000
# 4 0.0000 0.0000 0.0000 46.6037 0.0000 -0.3031
# 5 17.4832 6.3404 1.5976 0.0000 35.5322 0.0000
# 6 0.0000 0.0000 0.0000 -0.3031 0.0000 18.9333
#
#
#
# Elastic Compliance Matrix: (Units=1/GPa)
#
#
# Indices 1 2 3 4 5 6 
#
# 1 0.010195 -0.001417 -0.003138 0.000000 -0.004622 0.000000
# 2 -0.001417 0.008375 -0.001436 0.000000 -0.000733 0.000000
# 3 -0.003138 -0.001436 0.009517 0.000000 0.001373 0.000000
# 4 0.000000 0.000000 0.000000 0.021460 0.000000 0.000344
# 5 -0.004622 -0.000733 0.001373 0.000000 0.030487 0.000000
# 6 0.000000 0.000000 0.000000 0.000344 0.000000 0.052822
#
#
# Mechanical properties :
#
#
# Convention : Reuss Voigt Hill
#
# Bulk Modulus (GPa) = 62.09845 64.20677 63.15261
# Shear Modulus (GPa) = 33.28774 38.58410 35.93592
#
# Velocity S-wave (km/s) = 3.72251 4.00773 3.86775
# Velocity P-wave (km/s) = 6.65782 6.93858 6.79965
#
# Compressibility (1/GPa) = 0.01610346
#
# Stress axis : x y z
#
# Youngs Moduli (GPa) = 98.09003 119.40609 105.08051
#
# Poissons Ratio (x) = 0.16918 0.32978
# Poissons Ratio (y) = 0.13898 0.15091
# Poissons Ratio (z) = 0.30784 0.17148
#
# Static dielectric constant tensor:
#      x y z
#    x 2.001430 0.000000 0.016520 
#    y 0.000000 2.045230 0.000000 
#    z 0.016520 0.000000 1.919350 
# 
# From -- ./inp_files/161019.got.cif
#   From: 2010.05.17/outbox.cif.g08.bks.cpg/sg15_81_cif.got.tgz:161019.got - 2010.06.03 18:47:42.
