data_PCOD9307534
_publ_section_title
;
Structure prediction by ZEFSAII (Michael W. Deem and Ramdas Pophale) SiO2 
 PCOD9307534
Probable space group: C 2/C
;
_chemical_formula_sum "Si O2"
_cell_formula_units_Z 44
_cell_length_a 14.025133
_cell_length_b 25.861901
_cell_length_c 14.910834
_cell_angle_alpha 90.000000
_cell_angle_beta 159.445375
_cell_angle_gamma 90.000000
_cell_volume 1898.892964
_symmetry_space_group_name_H-M "C 2/C"
_symmetry_group_IT_number 15
_symmetry_cell_setting 'monoclinic'
loop_
_space_group_symop_operation_xyz
x,y,z
-x,y,1/2-z
-x,-y,-z
x,-y,1/2+z
1/2+x,1/2+y,z
1/2-x,1/2+y,1/2-z
1/2-x,1/2-y,-z
1/2+x,1/2-y,1/2+z
loop_
_atom_site_type_symbol
_atom_site_label
_atom_site_fract_x
_atom_site_fract_y
_atom_site_fract_z
Si Si1 0.500000 0.076264 0.750000
Si Si2 0.500000 0.495274 0.750000
Si Si3 0.855086 0.051710 0.445493
Si Si4 0.351125 0.890686 0.309173
Si Si5 0.500000 0.309828 0.250000
Si Si6 0.500000 0.000000 0.000000
Si Si7 0.000000 0.380057 0.750000
Si Si8 0.723845 0.221516 0.687157
O O1 0.259714 0.039508 0.500843
O O2 0.602787 0.109497 0.756637
O O3 0.533419 0.528954 0.688095
O O4 0.598181 0.081535 0.259651
O O5 0.045638 0.092496 0.564970
O O6 0.729791 0.004115 0.281191
O O7 0.534322 0.937048 0.510841
O O8 0.387207 0.835134 0.386576
O O9 0.641343 0.279362 0.293617
O O10 0.740661 0.345806 0.499054
O O11 0.474000 0.261019 0.469015
#
# Coordination Sequence:
#
# PCOD9307534 Si02
#       8
#     4   4   8   8   4   4   4   8
#     4  12  29  48  76 106 152 206 266 327 382 464
#     4  12  27  48  68 116 162 206 256 309 396 476
#     4  12  27  43  73 114 165 204 253 312 389 478
#     4  12  28  49  76 112 157 202 264 322 392 459
#     4  12  23  49  74 115 152 195 256 314 382 472
#     4  12  26  46  78 116 160 210 252 322 394 462
#     4  12  25  41  74 111 160 203 238 310 384 470
#     4  12  28  50  78 109 151 202 259 321 387 465
#
# _framework density 23.171396000000001
#
# number of rings (size 3 to 8) (size 9 to 14) (size 15 to 20)
#    0.000    0.000    3.636    5.455    7.636    0.000 
#    0.000    0.909    0.000    0.000    0.000    0.000 
#    0.000    0.000    0.000    0.000    0.000    0.000 
#
# Total GULP energy -122874.952507 kJ/mol
# GULP energy per Si atom -5585.225114 kJ/mol
# Density = 2.311866 g / cm^3
# Si number density = 23.171396 Si / 1000 Ang^3
#
#
#
# Elastic Constant Matrix: (Units=GPa)
#
#
# Indices 1 2 3 4 5 6 
#
# 1 123.6348 13.0339 1.0119 -0.0024 -8.8640 -0.0024
# 2 13.0339 96.9915 25.2316 -0.0005 3.5972 -0.0054
# 3 1.0119 25.2316 134.9870 -0.0014 -5.9093 -0.0028
# 4 -0.0024 -0.0005 -0.0014 44.6170 -0.0024 -1.8657
# 5 -8.8640 3.5972 -5.9093 -0.0024 26.7668 -0.0018
# 6 -0.0024 -0.0054 -0.0028 -1.8657 -0.0018 15.5533
#
#
#
# Elastic Compliance Matrix: (Units=1/GPa)
#
#
# Indices 1 2 3 4 5 6 
#
# 1 0.008444 -0.001331 0.000319 0.000001 0.003046 0.000001
# 2 -0.001331 0.011146 -0.002179 0.000000 -0.002420 0.000003
# 3 0.000319 -0.002179 0.007907 0.000000 0.002144 0.000001
# 4 0.000001 0.000000 0.000000 0.022526 0.000003 0.002702
# 5 0.003046 -0.002420 0.002144 0.000003 0.039167 0.000005
# 6 0.000001 0.000003 0.000001 0.002702 0.000005 0.064619
#
#
# Mechanical properties :
#
#
# Convention : Reuss Voigt Hill
#
# Bulk Modulus (GPa) = 47.36057 48.24089 47.80073
# Shear Modulus (GPa) = 29.89905 38.47648 34.18776
#
# Velocity S-wave (km/s) = 3.59603 4.07936 3.84530
# Velocity P-wave (km/s) = 6.14211 6.56145 6.35524
#
# Compressibility (1/GPa) = 0.02111461
#
# Stress axis : x y z
#
# Youngs Moduli (GPa) = 118.42215 89.72095 126.47112
#
# Poissons Ratio (x) = 0.11939 -0.04031
# Poissons Ratio (y) = 0.15758 0.27562
# Poissons Ratio (z) = -0.03775 0.19553
#
# Static dielectric constant tensor:
#      x y z
#    x 1.894130 0.000000 -0.070650 
#    y 0.000000 1.891470 0.000010 
#    z -0.070650 0.000010 1.905250 
# 
# From -- ./inp_files/157588.got.cif
#   From: 2010.05.17/outbox.cif.g08.bks.cpg/sg15_79_cif.got.tgz:157588.got - 2010.06.03 18:47:42.
