data_PCOD9307583
_publ_section_title
;
Structure prediction by ZEFSAII (Michael W. Deem and Ramdas Pophale) SiO2 
 PCOD9307583
Probable space group: C 2/C
;
_chemical_formula_sum "Si O2"
_cell_formula_units_Z 32
_cell_length_a 4.977960
_cell_length_b 23.840813
_cell_length_c 12.395592
_cell_angle_alpha 90.000000
_cell_angle_beta 108.243367
_cell_angle_gamma 90.000000
_cell_volume 1397.147799
_symmetry_space_group_name_H-M "C 2/C"
_symmetry_group_IT_number 15
_symmetry_cell_setting 'monoclinic'
loop_
_space_group_symop_operation_xyz
x,y,z
-x,y,1/2-z
-x,-y,-z
x,-y,1/2+z
1/2+x,1/2+y,z
1/2-x,1/2+y,1/2-z
1/2-x,1/2-y,-z
1/2+x,1/2-y,1/2+z
loop_
_atom_site_type_symbol
_atom_site_label
_atom_site_fract_x
_atom_site_fract_y
_atom_site_fract_z
Si Si1 0.029008 0.891477 0.379627
Si Si2 0.626125 0.061865 0.008721
Si Si3 0.938858 0.236330 0.922638
Si Si4 0.500000 0.394960 0.750000
Si Si5 0.500000 0.823977 0.750000
O O1 0.356255 0.897389 0.456556
O O2 0.000000 0.907394 0.250000
O O3 0.836615 0.929087 0.434311
O O4 0.923649 0.827377 0.380462
O O5 0.795750 0.073867 0.140190
O O6 0.500000 0.000000 0.000000
O O7 0.883565 0.281968 0.825122
O O8 0.750000 0.250000 0.000000
O O9 0.250000 0.250000 0.000000
O O10 0.721366 0.361859 0.699715
#
# Coordination Sequence:
#
# PCOD9307583 Si02
#       5
#     8   8   8   4   4
#     4  12  26  50  76 114 154 195 252 309 378 454
#     4  12  28  50  80 108 147 203 254 322 376 434
#     4  12  24  42  73 107 151 194 239 294 364 445
#     4  12  26  48  77 110 153 192 258 306 372 456
#     4  12  24  44  71 112 147 196 236 296 372 442
#
# _framework density 22.903805999999999
#
# number of rings (size 3 to 8) (size 9 to 14) (size 15 to 20)
#    0.000    0.000    1.250   10.500    1.750    0.000 
#    4.500    0.000    0.000    0.000    0.000    0.000 
#    0.000    0.000    0.000    0.000    0.000    0.000 
#
# Total GULP energy -89606.276462 kJ/mol
# GULP energy per Si atom -5600.392279 kJ/mol
# Density = 2.285168 g / cm^3
# Si number density = 22.903806 Si / 1000 Ang^3
#
#
#
# Elastic Constant Matrix: (Units=GPa)
#
#
# Indices 1 2 3 4 5 6 
#
# 1 178.5656 44.4905 76.8125 0.0000 -17.3143 0.0000
# 2 44.4905 105.7678 60.6279 0.0000 4.1378 0.0000
# 3 76.8125 60.6279 182.9323 0.0000 -14.7777 0.0000
# 4 0.0000 0.0000 0.0000 11.1302 0.0000 -1.6855
# 5 -17.3143 4.1378 -14.7777 0.0000 56.7043 0.0000
# 6 0.0000 0.0000 0.0000 -1.6855 0.0000 41.0539
#
#
#
# Elastic Compliance Matrix: (Units=1/GPa)
#
#
# Indices 1 2 3 4 5 6 
#
# 1 0.007198 -0.001782 -0.002292 0.000000 0.001730 0.000000
# 2 -0.001782 0.012317 -0.003525 0.000000 -0.002361 0.000000
# 3 -0.002292 -0.003525 0.007724 0.000000 0.001570 0.000000
# 4 0.000000 0.000000 0.000000 0.090408 0.000000 0.003712
# 5 0.001730 -0.002361 0.001570 0.000000 0.018745 0.000000
# 6 0.000000 0.000000 0.000000 0.003712 0.000000 0.024511
#
#
# Mechanical properties :
#
#
# Convention : Reuss Voigt Hill
#
# Bulk Modulus (GPa) = 83.04365 92.34748 87.69557
# Shear Modulus (GPa) = 27.76034 40.80000 34.28017
#
# Velocity S-wave (km/s) = 3.48521 4.22520 3.87292
# Velocity P-wave (km/s) = 7.24789 8.01313 7.64010
#
# Compressibility (1/GPa) = 0.01204186
#
# Stress axis : x y z
#
# Youngs Moduli (GPa) = 138.93056 81.18911 129.46663
#
# Poissons Ratio (x) = 0.14464 0.29675
# Poissons Ratio (y) = 0.24751 0.45634
# Poissons Ratio (z) = 0.31844 0.28618
#
# Static dielectric constant tensor:
#      x y z
#    x 1.778440 0.000000 -0.026570 
#    y 0.000000 2.005850 0.000000 
#    z -0.026570 0.000000 1.767200 
# 
# From -- ./inp_files/72293.got.cif
#   From: 2010.05.17/outbox.cif.g08.bks.cpg/sg15_37_cif.got.tgz:72293.got - 2010.06.03 18:47:42.
