data_PCOD9307021
_publ_section_title
;
Structure prediction by ZEFSAII (Michael W. Deem and Ramdas Pophale) SiO2 
 PCOD9307021
Probable space group: C 2/C
;
_chemical_formula_sum "Si O2"
_cell_formula_units_Z 48
_cell_length_a 20.546274
_cell_length_b 11.801753
_cell_length_c 25.187126
_cell_angle_alpha 90.000000
_cell_angle_beta 158.149001
_cell_angle_gamma 90.000000
_cell_volume 2273.148119
_symmetry_space_group_name_H-M "C 2/C"
_symmetry_group_IT_number 15
_symmetry_cell_setting 'monoclinic'
loop_
_space_group_symop_operation_xyz
x,y,z
-x,y,1/2-z
-x,-y,-z
x,-y,1/2+z
1/2+x,1/2+y,z
1/2-x,1/2+y,1/2-z
1/2-x,1/2-y,-z
1/2+x,1/2-y,1/2+z
loop_
_atom_site_type_symbol
_atom_site_label
_atom_site_fract_x
_atom_site_fract_y
_atom_site_fract_z
Si Si1 0.144788 0.243084 0.702746
Si Si2 0.585367 0.024544 0.212967
Si Si3 0.576781 0.175032 0.866800
Si Si4 0.473179 0.901271 0.437988
Si Si5 0.184642 0.835569 0.770890
Si Si6 0.540279 0.515588 0.966897
O O1 0.083896 0.342368 0.696346
O O2 0.337922 0.189860 0.859602
O O3 0.182333 0.295377 0.673711
O O4 0.014553 0.138927 0.595859
O O5 0.751088 0.002258 0.376281
O O6 0.421911 0.957139 0.114370
O O7 0.615797 0.960393 0.179965
O O8 0.500000 0.180531 0.750000
O O9 0.440092 0.238782 0.801996
O O10 0.750000 0.250000 0.000000
O O11 0.673002 0.866032 0.576124
O O12 0.500000 0.000000 0.500000
O O13 0.064231 0.928400 0.650086
O O14 0.500000 0.500000 0.000000
#
# Coordination Sequence:
#
# PCOD9307021 Si02
#       6
#     8   8   8   8   8   8
#     4  12  22  36  66 104 145 168 216 287 369 416
#     4  12  25  39  66  99 138 179 233 284 353 415
#     4  12  27  49  70  93 135 194 247 288 328 417
#     4  12  21  38  58 104 144 171 208 274 365 433
#     4  12  24  38  67  97 136 179 236 281 342 419
#     4  12  21  38  60 102 146 181 211 274 366 430
#
# _framework density 21.116091000000001
#
# number of rings (size 3 to 8) (size 9 to 14) (size 15 to 20)
#    0.000    0.000    8.333    3.000    2.333    0.000 
#    0.000    0.000    0.000    5.000    0.000    0.000 
#    0.000    0.000    0.000    0.000    0.000    0.000 
#
# Total GULP energy -133941.436645 kJ/mol
# GULP energy per Si atom -5580.893194 kJ/mol
# Density = 2.106803 g / cm^3
# Si number density = 21.116091 Si / 1000 Ang^3
#
#
#
# Elastic Constant Matrix: (Units=GPa)
#
#
# Indices 1 2 3 4 5 6 
#
# 1 47.8806 43.3498 23.0066 0.0004 -12.1074 -0.0006
# 2 43.3498 158.1988 64.2520 -0.0054 -10.2419 0.0004
# 3 23.0066 64.2520 135.5889 -0.0044 -19.7787 -0.0012
# 4 0.0004 -0.0054 -0.0044 42.6920 0.0016 4.4672
# 5 -12.1074 -10.2419 -19.7787 0.0016 24.0494 -0.0007
# 6 -0.0006 0.0004 -0.0012 4.4672 -0.0007 32.3187
#
#
#
# Elastic Compliance Matrix: (Units=1/GPa)
#
#
# Indices 1 2 3 4 5 6 
#
# 1 0.030963 -0.007779 0.000254 -0.000002 0.012484 0.000001
# 2 -0.007779 0.009784 -0.003727 0.000001 -0.002815 -0.000001
# 3 0.000254 -0.003727 0.010097 0.000000 0.006844 0.000001
# 4 -0.000002 0.000001 0.000000 0.023767 -0.000002 -0.003285
# 5 0.012484 -0.002815 0.006844 -0.000002 0.052296 0.000002
# 6 0.000001 -0.000001 0.000001 -0.003285 0.000002 0.031396
#
#
# Mechanical properties :
#
#
# Convention : Reuss Voigt Hill
#
# Bulk Modulus (GPa) = 35.28742 66.98724 51.13733
# Shear Modulus (GPa) = 26.28039 33.88270 30.08154
#
# Velocity S-wave (km/s) = 3.53167 4.01008 3.77845
# Velocity P-wave (km/s) = 5.77734 7.29611 6.58069
#
# Compressibility (1/GPa) = 0.02833871
#
# Stress axis : x y z
#
# Youngs Moduli (GPa) = 32.29617 102.20301 99.04133
#
# Poissons Ratio (x) = 0.79508 -0.02512
# Poissons Ratio (y) = 0.25125 0.36915
# Poissons Ratio (z) = -0.00819 0.38093
#
# Static dielectric constant tensor:
#      x y z
#    x 1.790100 0.000000 -0.075840 
#    y 0.000000 1.849620 0.000000 
#    z -0.075840 0.000000 2.115100 
# 
# From -- ./inp_files/300984.got.cif
#   From: 2010.05.17/outbox.cif.g08.bks.cpg/sg15_151_cif.got.tgz:300984.got - 2010.06.03 18:47:42.
