data_PCOD9307702
_publ_section_title
;
Structure prediction by ZEFSAII (Michael W. Deem and Ramdas Pophale) SiO2 
 PCOD9307702
Probable space group: C 2/C
;
_chemical_formula_sum "Si O2"
_cell_formula_units_Z 44
_cell_length_a 16.633879
_cell_length_b 5.424394
_cell_length_c 18.819132
_cell_angle_alpha 90.000000
_cell_angle_beta 76.219741
_cell_angle_gamma 90.000000
_cell_volume 1649.150779
_symmetry_space_group_name_H-M "C 2/C"
_symmetry_group_IT_number 15
_symmetry_cell_setting 'monoclinic'
loop_
_space_group_symop_operation_xyz
x,y,z
-x,y,1/2-z
-x,-y,-z
x,-y,1/2+z
1/2+x,1/2+y,z
1/2-x,1/2+y,1/2-z
1/2-x,1/2-y,-z
1/2+x,1/2-y,1/2+z
loop_
_atom_site_type_symbol
_atom_site_label
_atom_site_fract_x
_atom_site_fract_y
_atom_site_fract_z
Si Si1 0.410440 0.998364 0.553273
Si Si2 0.750000 0.250000 0.000000
Si Si3 0.802746 0.004102 0.738590
Si Si4 0.112588 0.014536 0.628351
Si Si5 0.826420 0.001152 0.574399
Si Si6 0.511331 0.984679 0.162487
O O1 0.371332 0.741909 0.541368
O O2 0.500000 0.000000 0.500000
O O3 0.352636 0.225095 0.538875
O O4 0.426652 0.016318 0.634176
O O5 0.807224 0.048304 0.938421
O O6 0.765561 0.469161 0.933073
O O7 0.751717 0.257556 0.746124
O O8 0.859149 0.011444 0.795501
O O9 0.844173 0.990220 0.653251
O O10 0.054907 0.257250 0.632318
O O11 0.059976 0.763731 0.629652
O O12 0.500000 0.980204 0.250000
#
# Coordination Sequence:
#
# PCOD9307702 Si02
#       6
#     8   4   8   8   8   8
#     4  12  25  46  70 103 142 193 242 294 367 432
#     4  12  28  48  72 114 152 192 246 302 388 442
#     4  12  24  46  68 106 144 188 238 291 368 439
#     4  12  26  45  75 108 150 190 244 314 371 447
#     4  12  26  45  73 102 147 191 239 305 360 442
#     4  12  25  47  74 106 142 194 255 308 361 434
#
# _framework density 26.680401
#
# number of rings (size 3 to 8) (size 9 to 14) (size 15 to 20)
#    0.000    0.000    1.818    8.727    0.000    1.455 
#    0.000    0.000    0.000    0.000    0.000    0.000 
#    0.000    0.000    0.000    0.000    0.000    0.000 
#
# Total GULP energy -122995.043826 kJ/mol
# GULP energy per Si atom -5590.683810 kJ/mol
# Density = 2.661968 g / cm^3
# Si number density = 26.680401 Si / 1000 Ang^3
#
#
#
# Elastic Constant Matrix: (Units=GPa)
#
#
# Indices 1 2 3 4 5 6 
#
# 1 93.7363 91.9720 21.0103 0.0000 21.2226 0.0000
# 2 91.9720 266.0745 29.0836 0.0000 -12.8659 -0.0001
# 3 21.0103 29.0836 129.0390 0.0000 30.5321 0.0000
# 4 0.0000 0.0000 0.0000 32.5172 0.0000 -0.5348
# 5 21.2226 -12.8659 30.5321 0.0000 60.5994 0.0000
# 6 0.0000 -0.0001 0.0000 -0.5348 0.0000 79.5019
#
#
#
# Elastic Compliance Matrix: (Units=1/GPa)
#
#
# Indices 1 2 3 4 5 6 
#
# 1 0.019650 -0.007265 0.000490 0.000000 -0.008671 0.000000
# 2 -0.007265 0.006651 -0.001422 0.000000 0.004673 0.000000
# 3 0.000490 -0.001422 0.009199 0.000000 -0.005108 0.000000
# 4 0.000000 0.000000 0.000000 0.030756 0.000000 0.000207
# 5 -0.008671 0.004673 -0.005108 0.000000 0.023104 0.000000
# 6 0.000000 0.000000 0.000000 0.000207 0.000000 0.012580
#
#
# Mechanical properties :
#
#
# Convention : Reuss Voigt Hill
#
# Bulk Modulus (GPa) = 52.34103 85.88686 69.11394
# Shear Modulus (GPa) = 40.09537 57.64263 48.86900
#
# Velocity S-wave (km/s) = 3.88081 4.65315 4.28441
# Velocity P-wave (km/s) = 6.30407 7.81856 7.10180
#
# Compressibility (1/GPa) = 0.01910547
#
# Stress axis : x y z
#
# Youngs Moduli (GPa) = 50.89091 150.35470 108.70812
#
# Poissons Ratio (x) = 1.09233 -0.05322
# Poissons Ratio (y) = 0.36972 0.15455
# Poissons Ratio (z) = -0.02492 0.21377
#
# Static dielectric constant tensor:
#      x y z
#    x -1.431390 0.000000 -1.390220 
#    y 0.000000 2.088000 0.000000 
#    z -1.390220 0.000000 1.635480 
# 
# From -- ./inp_files/246434.got.cif
#   From: 2010.05.17/outbox.cif.g08.bks.cpg/sg15_124_cif.got.tgz:246434.got - 2010.06.03 18:47:42.
