data_PCOD9307991
_publ_section_title
;
Structure prediction by ZEFSAII (Michael W. Deem and Ramdas Pophale) SiO2 
 PCOD9307991
Probable space group: C 2/C
;
_chemical_formula_sum "Si O2"
_cell_formula_units_Z 40
_cell_length_a 18.215510
_cell_length_b 8.296493
_cell_length_c 11.648125
_cell_angle_alpha 90.000000
_cell_angle_beta 101.765552
_cell_angle_gamma 90.000000
_cell_volume 1723.337094
_symmetry_space_group_name_H-M "C 2/C"
_symmetry_group_IT_number 15
_symmetry_cell_setting 'monoclinic'
loop_
_space_group_symop_operation_xyz
x,y,z
-x,y,1/2-z
-x,-y,-z
x,-y,1/2+z
1/2+x,1/2+y,z
1/2-x,1/2+y,1/2-z
1/2-x,1/2-y,-z
1/2+x,1/2-y,1/2+z
loop_
_atom_site_type_symbol
_atom_site_label
_atom_site_fract_x
_atom_site_fract_y
_atom_site_fract_z
Si Si1 0.401747 0.802521 0.417698
Si Si2 0.662413 0.851182 0.653976
Si Si3 0.320008 0.734636 0.607338
Si Si4 0.449805 0.343823 0.518730
Si Si5 0.827905 0.879340 0.681504
O O1 0.388705 0.736335 0.541871
O O2 0.489667 0.789495 0.423208
O O3 0.359193 0.693898 0.309615
O O4 0.367709 0.980259 0.403599
O O5 0.672990 0.870058 0.794242
O O6 0.599699 0.720063 0.602693
O O7 0.744928 0.808267 0.632792
O O8 0.250000 0.750000 0.500000
O O9 0.313532 0.570761 0.676964
O O10 0.500000 0.500000 0.500000
O O11 0.389836 0.359670 0.602219
#
# Coordination Sequence:
#
# PCOD9307991 Si02
#       5
#     8   8   8   8   8
#     4  12  27  49  74 113 149 196 248 312 376 444
#     4  12  27  46  79 108 148 199 250 310 372 446
#     4  12  25  47  78 109 150 190 258 311 368 446
#     4  12  27  49  74 110 151 196 246 311 382 443
#     4  12  25  48  78 105 149 198 255 300 377 446
#
# _framework density 23.210781000000001
#
# number of rings (size 3 to 8) (size 9 to 14) (size 15 to 20)
#    0.000    0.000    6.000    3.000    2.800    2.400 
#    3.600    0.000    0.000    0.000    0.000    0.000 
#    0.000    0.000    0.000    0.000    0.000    0.000 
#
# Total GULP energy -111881.793464 kJ/mol
# GULP energy per Si atom -5594.089673 kJ/mol
# Density = 2.315795 g / cm^3
# Si number density = 23.210781 Si / 1000 Ang^3
#
#
#
# Elastic Constant Matrix: (Units=GPa)
#
#
# Indices 1 2 3 4 5 6 
#
# 1 187.3623 51.9076 48.6354 0.0000 13.9189 0.0000
# 2 51.9076 37.6343 35.9867 0.0000 -4.3659 0.0000
# 3 48.6354 35.9867 112.3105 0.0000 3.0762 0.0000
# 4 0.0000 0.0000 0.0000 40.9096 0.0000 6.9991
# 5 13.9189 -4.3659 3.0762 0.0000 39.2650 0.0000
# 6 0.0000 0.0000 0.0000 6.9991 0.0000 40.5532
#
#
#
# Elastic Compliance Matrix: (Units=1/GPa)
#
#
# Indices 1 2 3 4 5 6 
#
# 1 0.009504 -0.014250 0.000587 0.000000 -0.005000 0.000000
# 2 -0.014250 0.060780 -0.013657 0.000000 0.012880 0.000000
# 3 0.000587 -0.013657 0.013101 0.000000 -0.002753 0.000000
# 4 0.000000 0.000000 0.000000 0.025188 0.000000 -0.004347
# 5 -0.005000 0.012880 -0.002753 0.000000 0.028888 0.000000
# 6 0.000000 0.000000 0.000000 -0.004347 0.000000 0.025409
#
#
# Mechanical properties :
#
#
# Convention : Reuss Voigt Hill
#
# Bulk Modulus (GPa) = 34.78874 67.81850 51.30362
# Shear Modulus (GPa) = 22.01757 37.53073 29.77415
#
# Velocity S-wave (km/s) = 3.08326 4.02550 3.58547
# Velocity P-wave (km/s) = 5.26271 7.13359 6.26834
#
# Compressibility (1/GPa) = 0.02874493
#
# Stress axis : x y z
#
# Youngs Moduli (GPa) = 105.21675 16.45288 76.33064
#
# Poissons Ratio (x) = 0.23446 -0.04483
# Poissons Ratio (y) = 1.49938 1.04244
# Poissons Ratio (z) = -0.06180 0.22469
#
# Static dielectric constant tensor:
#      x y z
#    x 1.903080 0.000000 -0.025790 
#    y 0.000000 2.512480 0.000000 
#    z -0.025790 0.000000 1.862210 
# 
# From -- ./inp_files/102851.got.cif
#   From: 2010.05.17/outbox.cif.g08.bks.cpg/sg15_52_cif.got.tgz:102851.got - 2010.06.03 18:47:42.
