data_PCOD9307458
_publ_section_title
;
Structure prediction by ZEFSAII (Michael W. Deem and Ramdas Pophale) SiO2 
 PCOD9307458
Probable space group: C 2/C
;
_chemical_formula_sum "Si O2"
_cell_formula_units_Z 56
_cell_length_a 5.124003
_cell_length_b 31.553197
_cell_length_c 19.225474
_cell_angle_alpha 90.000000
_cell_angle_beta 120.917406
_cell_angle_gamma 90.000000
_cell_volume 2666.680293
_symmetry_space_group_name_H-M "C 2/C"
_symmetry_group_IT_number 15
_symmetry_cell_setting 'monoclinic'
loop_
_space_group_symop_operation_xyz
x,y,z
-x,y,1/2-z
-x,-y,-z
x,-y,1/2+z
1/2+x,1/2+y,z
1/2-x,1/2+y,1/2-z
1/2-x,1/2-y,-z
1/2+x,1/2-y,1/2+z
loop_
_atom_site_type_symbol
_atom_site_label
_atom_site_fract_x
_atom_site_fract_y
_atom_site_fract_z
Si Si1 0.885348 0.123923 0.415086
Si Si2 0.355895 0.349387 0.399816
Si Si3 0.388046 0.746387 0.941879
Si Si4 0.128925 0.485785 0.091781
Si Si5 0.247904 0.530976 0.343617
Si Si6 0.743638 0.605632 0.841355
Si Si7 0.751417 0.167861 0.155535
O O1 0.824540 0.074644 0.393164
O O2 0.571869 0.149982 0.363103
O O3 0.004849 0.134258 0.508231
O O4 0.131005 0.139544 0.392636
O O5 0.306646 0.299326 0.399842
O O6 0.588668 0.360185 0.370538
O O7 0.041922 0.374500 0.347660
O O8 0.281642 0.784819 0.878787
O O9 0.250000 0.750000 0.000000
O O10 0.750000 0.750000 0.000000
O O11 0.447993 0.510122 0.145484
O O12 0.175645 0.435623 0.102714
O O13 0.897848 0.499185 0.120538
O O14 0.000000 0.500000 0.000000
O O15 0.000000 0.539311 0.250000
O O16 0.500000 0.592662 0.750000
O O17 0.000000 0.165602 0.250000
#
# Coordination Sequence:
#
# PCOD9307458 Si02
#       7
#     8   8   8   8   8   8   8
#     4  12  24  43  68  99 134 174 223 270 336 404
#     4  12  24  44  72  96 132 179 228 271 332 406
#     4  12  23  45  69  98 132 176 227 271 331 405
#     4  12  25  46  69  97 134 178 232 273 332 398
#     4  12  24  41  67  99 134 174 217 276 335 391
#     4  12  26  44  67 101 139 179 225 285 338 391
#     4  12  24  41  66 100 137 173 217 281 340 394
#
# _framework density 20.999891999999999
#
# number of rings (size 3 to 8) (size 9 to 14) (size 15 to 20)
#    0.000    0.000    2.857    8.571    0.000    1.143 
#    0.000    0.000    0.000    0.000    0.000    0.000 
#    0.000    0.000    0.000    0.000    0.000    0.000 
#
# Total GULP energy -156947.147319 kJ/mol
# GULP energy per Si atom -5605.255261 kJ/mol
# Density = 2.095210 g / cm^3
# Si number density = 20.999892 Si / 1000 Ang^3
#
#
#
# Elastic Constant Matrix: (Units=GPa)
#
#
# Indices 1 2 3 4 5 6 
#
# 1 48.1335 17.1592 4.4337 0.0000 7.0004 0.0000
# 2 17.1592 106.9732 -25.5188 0.0000 3.3749 0.0000
# 3 4.4337 -25.5188 47.1304 0.0000 6.5230 0.0000
# 4 0.0000 0.0000 0.0000 4.0642 0.0000 6.3802
# 5 7.0004 3.3749 6.5230 0.0000 40.0590 0.0000
# 6 0.0000 0.0000 0.0000 6.3802 0.0000 26.1680
#
#
#
# Elastic Compliance Matrix: (Units=1/GPa)
#
#
# Indices 1 2 3 4 5 6 
#
# 1 0.023267 -0.004665 -0.004303 0.000000 -0.002972 0.000000
# 2 -0.004665 0.011812 0.007018 0.000000 -0.001323 0.000000
# 3 -0.004303 0.007018 0.025986 0.000000 -0.004071 0.000000
# 4 0.000000 0.000000 0.000000 0.398635 0.000000 -0.097194
# 5 -0.002972 -0.001323 -0.004071 0.000000 0.026257 0.000000
# 6 0.000000 0.000000 0.000000 -0.097194 0.000000 0.061912
#
#
# Mechanical properties :
#
#
# Convention : Reuss Voigt Hill
#
# Bulk Modulus (GPa) = 17.49358 21.59835 19.54596
# Shear Modulus (GPa) = 8.75926 27.80245 18.28085
#
# Velocity S-wave (km/s) = 2.04454 3.64254 2.95366
# Velocity P-wave (km/s) = 3.73121 5.29132 4.57821
#
# Compressibility (1/GPa) = 0.05716384
#
# Stress axis : x y z
#
# Youngs Moduli (GPa) = 42.97882 84.65787 38.48273
#
# Poissons Ratio (x) = 0.39493 0.16560
# Poissons Ratio (y) = 0.20050 -0.27006
# Poissons Ratio (z) = 0.18495 -0.59410
#
# Static dielectric constant tensor:
#      x y z
#    x 1.711790 0.000000 0.017590 
#    y 0.000000 1.725280 0.000000 
#    z 0.017590 0.000000 1.725500 
# 
# From -- ./inp_files/186806.got.cif
#   From: 2010.05.17/outbox.cif.g08.bks.cpg/sg15_94_cif.got.tgz:186806.got - 2010.06.03 18:47:42.
