data_PCOD9307862
_publ_section_title
;
Structure prediction by ZEFSAII (Michael W. Deem and Ramdas Pophale) SiO2 
 PCOD9307862
Probable space group: C 2/C
;
_chemical_formula_sum "Si O2"
_cell_formula_units_Z 24
_cell_length_a 8.354520
_cell_length_b 12.348689
_cell_length_c 8.523520
_cell_angle_alpha 90.000000
_cell_angle_beta 105.838589
_cell_angle_gamma 90.000000
_cell_volume 845.964111
_symmetry_space_group_name_H-M "C 2/C"
_symmetry_group_IT_number 15
_symmetry_cell_setting 'monoclinic'
loop_
_space_group_symop_operation_xyz
x,y,z
-x,y,1/2-z
-x,-y,-z
x,-y,1/2+z
1/2+x,1/2+y,z
1/2-x,1/2+y,1/2-z
1/2-x,1/2-y,-z
1/2+x,1/2-y,1/2+z
loop_
_atom_site_type_symbol
_atom_site_label
_atom_site_fract_x
_atom_site_fract_y
_atom_site_fract_z
Si Si1 0.871171 0.051216 0.083403
Si Si2 0.595212 0.873767 0.113886
Si Si3 0.371183 0.265461 0.341286
O O1 0.000000 0.084418 0.250000
O O2 0.723090 0.969256 0.094873
O O3 0.821942 0.156467 0.971045
O O4 0.000000 0.000000 0.000000
O O5 0.500000 0.906120 0.250000
O O6 0.704763 0.767366 0.191173
O O7 0.474422 0.835318 0.940313
O O8 0.500000 0.316213 0.250000
#
# Coordination Sequence:
#
# PCOD9307862 Si02
#       3
#     8   8   8
#     4  12  24  50  80 115 167 217 270 340 412 488
#     4  12  27  50  82 122 163 218 277 337 416 490
#     4  12  26  52  83 118 167 218 272 340 412 490
#
# _framework density 28.369996
#
# number of rings (size 3 to 8) (size 9 to 14) (size 15 to 20)
#    0.000    0.000    6.667    3.000    0.000    1.333 
#    0.000    1.667    0.000    2.000    0.000    0.000 
#    0.000    0.000    0.000    0.000    0.000    0.000 
#
# Total GULP energy -67115.038894 kJ/mol
# GULP energy per Si atom -5592.919908 kJ/mol
# Density = 2.830542 g / cm^3
# Si number density = 28.369996 Si / 1000 Ang^3
#
#
#
# Elastic Constant Matrix: (Units=GPa)
#
#
# Indices 1 2 3 4 5 6 
#
# 1 214.5582 120.7943 58.7891 0.0000 -37.1847 0.0000
# 2 120.7943 164.1586 61.5932 0.0000 3.2745 0.0000
# 3 58.7891 61.5932 147.9748 0.0000 -5.8358 0.0000
# 4 0.0000 0.0000 0.0000 24.9354 0.0000 -24.6082
# 5 -37.1847 3.2745 -5.8358 0.0000 51.1735 0.0000
# 6 0.0000 0.0000 0.0000 -24.6082 0.0000 53.5463
#
#
#
# Elastic Compliance Matrix: (Units=1/GPa)
#
#
# Indices 1 2 3 4 5 6 
#
# 1 0.010584 -0.007693 -0.000683 0.000000 0.008105 0.000000
# 2 -0.007693 0.012845 -0.002554 0.000000 -0.006704 0.000000
# 3 -0.000683 -0.002554 0.008116 0.000000 0.000593 0.000000
# 4 0.000000 0.000000 0.000000 0.073388 0.000000 0.033727
# 5 0.008105 -0.006704 0.000593 0.000000 0.025927 0.000000
# 6 0.000000 0.000000 0.000000 0.033727 0.000000 0.034175
#
#
# Mechanical properties :
#
#
# Convention : Reuss Voigt Hill
#
# Bulk Modulus (GPa) = 103.27269 112.11611 107.69440
# Shear Modulus (GPa) = 26.29853 44.96537 35.63195
#
# Velocity S-wave (km/s) = 3.04794 3.98548 3.54782
# Velocity P-wave (km/s) = 6.99055 7.79639 7.40444
#
# Compressibility (1/GPa) = 0.00968310
#
# Stress axis : x y z
#
# Youngs Moduli (GPa) = 94.48321 77.85131 123.21557
#
# Poissons Ratio (x) = 0.59895 0.08414
# Poissons Ratio (y) = 0.72691 0.31475
# Poissons Ratio (z) = 0.06452 0.19887
#
# Static dielectric constant tensor:
#      x y z
#    x 2.266570 0.000000 -0.002260 
#    y 0.000000 1.186740 0.000000 
#    z -0.002260 0.000000 2.270190 
# 
# From -- ./inp_files/21149.got.cif
#   From: 2010.05.17/outbox.cif.g08.bks.cpg/sg15_11_cif.got.tgz:21149.got - 2010.06.03 18:47:42.
