data_PCOD9307337
_publ_section_title
;
Structure prediction by ZEFSAII (Michael W. Deem and Ramdas Pophale) SiO2 
 PCOD9307337
Probable space group: C 2/C
;
_chemical_formula_sum "Si O2"
_cell_formula_units_Z 52
_cell_length_a 21.061878
_cell_length_b 12.251745
_cell_length_c 12.377658
_cell_angle_alpha 90.000000
_cell_angle_beta 50.023685
_cell_angle_gamma 90.000000
_cell_volume 2447.586600
_symmetry_space_group_name_H-M "C 2/C"
_symmetry_group_IT_number 15
_symmetry_cell_setting 'monoclinic'
loop_
_space_group_symop_operation_xyz
x,y,z
-x,y,1/2-z
-x,-y,-z
x,-y,1/2+z
1/2+x,1/2+y,z
1/2-x,1/2+y,1/2-z
1/2-x,1/2-y,-z
1/2+x,1/2-y,1/2+z
loop_
_atom_site_type_symbol
_atom_site_label
_atom_site_fract_x
_atom_site_fract_y
_atom_site_fract_z
Si Si1 0.681588 0.710596 0.275204
Si Si2 0.122923 0.725954 0.498135
Si Si3 0.329512 0.319115 0.456752
Si Si4 0.500000 0.788447 0.750000
Si Si5 0.046599 0.595508 0.390175
Si Si6 0.336653 0.575166 0.409161
Si Si7 0.355080 0.090215 0.821100
O O1 0.780268 0.717607 0.142665
O O2 0.670572 0.687930 0.412896
O O3 0.638350 0.822583 0.283186
O O4 0.647988 0.618973 0.228785
O O5 0.074778 0.686588 0.444749
O O6 0.112966 0.846645 0.562213
O O7 0.102812 0.640338 0.617375
O O8 0.250000 0.250000 0.500000
O O9 0.415118 0.271490 0.317649
O O10 0.338456 0.445872 0.416345
O O11 0.516557 0.859326 0.627762
O O12 0.118933 0.530207 0.245316
O O13 0.000000 0.500000 0.500000
O O14 0.240906 0.597101 0.542337
#
# Coordination Sequence:
#
# PCOD9307337 Si02
#       7
#     8   8   8   4   8   8   8
#     4   9  19  37  63  93 123 159 208 260 316 382
#     4   9  19  37  61  90 120 162 215 260 316 388
#     4  12  25  43  66  91 126 169 208 263 325 377
#     4  12  28  42  56 100 130 150 218 266 302 384
#     4  12  23  38  59  86 128 169 202 266 330 378
#     4   9  20  39  64  90 122 165 214 259 312 386
#     4   9  18  36  61  92 120 153 209 264 315 384
#
# _framework density 21.245418000000001
#
# number of rings (size 3 to 8) (size 9 to 14) (size 15 to 20)
#    0.000    1.846    0.000    6.462    0.000    7.385 
#    0.000    6.154    0.000    0.000    0.000    0.000 
#    0.000    0.000    0.000    0.000    0.000    0.000 
#
# Total GULP energy -145003.933022 kJ/mol
# GULP energy per Si atom -5577.074347 kJ/mol
# Density = 2.119706 g / cm^3
# Si number density = 21.245418 Si / 1000 Ang^3
#
#
#
# Elastic Constant Matrix: (Units=GPa)
#
#
# Indices 1 2 3 4 5 6 
#
# 1 65.1303 41.6868 18.9723 0.0000 21.2919 0.0000
# 2 41.6868 136.6261 27.3431 0.0000 27.5214 0.0000
# 3 18.9723 27.3431 82.3035 0.0000 22.8244 0.0000
# 4 0.0000 0.0000 0.0000 31.7404 0.0000 0.0789
# 5 21.2919 27.5214 22.8244 0.0000 42.7320 0.0000
# 6 0.0000 0.0000 0.0000 0.0789 0.0000 14.5444
#
#
#
# Elastic Compliance Matrix: (Units=1/GPa)
#
#
# Indices 1 2 3 4 5 6 
#
# 1 0.020996 -0.004789 -0.001412 0.000000 -0.006622 0.000000
# 2 -0.004789 0.009667 -0.001224 0.000000 -0.003186 0.000000
# 3 -0.001412 -0.001224 0.014637 0.000000 -0.006326 0.000000
# 4 0.000000 0.000000 0.000000 0.031506 0.000000 -0.000171
# 5 -0.006622 -0.003186 -0.006326 0.000000 0.032132 0.000000
# 6 0.000000 0.000000 0.000000 -0.000171 0.000000 0.068756
#
#
# Mechanical properties :
#
#
# Convention : Reuss Voigt Hill
#
# Bulk Modulus (GPa) = 32.84270 51.11825 41.98047
# Shear Modulus (GPa) = 24.66768 30.87389 27.77078
#
# Velocity S-wave (km/s) = 3.41116 3.81622 3.61936
# Velocity P-wave (km/s) = 5.56839 6.59782 6.10484
#
# Compressibility (1/GPa) = 0.03044817
#
# Stress axis : x y z
#
# Youngs Moduli (GPa) = 47.62889 103.44106 68.32174
#
# Poissons Ratio (x) = 0.49543 0.09648
# Poissons Ratio (y) = 0.22812 0.08363
# Poissons Ratio (z) = 0.06726 0.12663
#
# Static dielectric constant tensor:
#      x y z
#    x 1.837360 0.000000 -0.055310 
#    y 0.000000 1.935330 0.000000 
#    z -0.055310 0.000000 1.849370 
# 
# From -- ./inp_files/110948.got.cif
#   From: 2010.05.17/outbox.cif.g08.bks.cpg/sg15_56_cif.got.tgz:110948.got - 2010.06.03 18:47:42.
