data_PCOD9307113
_publ_section_title
;
Structure prediction by ZEFSAII (Michael W. Deem and Ramdas Pophale) SiO2 
 PCOD9307113
Probable space group: C 2/C
;
_chemical_formula_sum "Si O2"
_cell_formula_units_Z 52
_cell_length_a 29.766335
_cell_length_b 15.181266
_cell_length_c 9.378182
_cell_angle_alpha 90.000000
_cell_angle_beta 38.099479
_cell_angle_gamma 90.000000
_cell_volume 2614.913880
_symmetry_space_group_name_H-M "C 2/C"
_symmetry_group_IT_number 15
_symmetry_cell_setting 'monoclinic'
loop_
_space_group_symop_operation_xyz
x,y,z
-x,y,1/2-z
-x,-y,-z
x,-y,1/2+z
1/2+x,1/2+y,z
1/2-x,1/2+y,1/2-z
1/2-x,1/2-y,-z
1/2+x,1/2-y,1/2+z
loop_
_atom_site_type_symbol
_atom_site_label
_atom_site_fract_x
_atom_site_fract_y
_atom_site_fract_z
Si Si1 0.559835 0.182034 0.711403
Si Si2 0.603441 0.075475 0.026089
Si Si3 0.184869 0.509404 0.092650
Si Si4 0.573651 0.734649 0.481797
Si Si5 0.777916 0.676160 0.324431
Si Si6 0.500000 0.000000 0.000000
Si Si7 0.219882 0.165829 0.162240
O O1 0.500000 0.213994 0.750000
O O2 0.639397 0.184905 0.440217
O O3 0.538369 0.082297 0.807692
O O4 0.560342 0.240196 0.851757
O O5 0.666325 0.042072 0.979584
O O6 0.608396 0.176216 0.964669
O O7 0.534252 0.070797 0.300654
O O8 0.608653 0.014001 0.868871
O O9 0.222790 0.585560 0.086286
O O10 0.231205 0.420673 0.986349
O O11 0.500000 0.714299 0.750000
O O12 0.635139 0.659970 0.336910
O O13 0.750000 0.750000 0.500000
O O14 0.728355 0.679819 0.309147
O O15 0.250000 0.250000 0.000000
#
# Coordination Sequence:
#
# PCOD9307113 Si02
#       7
#     8   8   8   8   8   4   8
#     4  12  26  40  61 103 143 186 225 280 359 436
#     4  12  23  37  62  99 136 179 220 277 351 425
#     4  12  24  42  65 100 136 177 235 286 346 416
#     4  12  26  42  68  99 141 186 225 289 353 421
#     4  12  26  43  69 102 138 187 236 296 351 416
#     4  12  22  34  58  94 148 176 210 264 358 440
#     4  12  24  45  67  96 140 185 237 283 348 419
#
# _framework density 19.885932
#
# number of rings (size 3 to 8) (size 9 to 14) (size 15 to 20)
#    0.000    0.000    7.692    2.769    4.308    0.000 
#    0.000    0.000    0.000    1.846    0.000    0.000 
#    0.000    0.000    0.000    0.000    0.000    0.000 
#
# Total GULP energy -145091.179844 kJ/mol
# GULP energy per Si atom -5580.429994 kJ/mol
# Density = 1.984067 g / cm^3
# Si number density = 19.885932 Si / 1000 Ang^3
#
#
#
# Elastic Constant Matrix: (Units=GPa)
#
#
# Indices 1 2 3 4 5 6 
#
# 1 136.8884 31.9809 43.1306 0.0000 18.2121 0.0000
# 2 31.9809 70.1844 42.8871 0.0000 5.4280 0.0000
# 3 43.1306 42.8871 134.4309 0.0000 4.7672 0.0000
# 4 0.0000 0.0000 0.0000 29.7073 0.0000 -8.4549
# 5 18.2121 5.4280 4.7672 0.0000 43.6808 0.0000
# 6 0.0000 0.0000 0.0000 -8.4549 0.0000 35.5654
#
#
#
# Elastic Compliance Matrix: (Units=1/GPa)
#
#
# Indices 1 2 3 4 5 6 
#
# 1 0.008955 -0.002667 -0.001909 0.000000 -0.003194 0.000000
# 2 -0.002667 0.018603 -0.005056 0.000000 -0.000648 0.000000
# 3 -0.001909 -0.005056 0.009651 0.000000 0.000371 0.000000
# 4 0.000000 0.000000 0.000000 0.036104 0.000000 0.008583
# 5 -0.003194 -0.000648 0.000371 0.000000 0.024265 0.000000
# 6 0.000000 0.000000 0.000000 0.008583 0.000000 0.030158
#
#
# Mechanical properties :
#
#
# Convention : Reuss Voigt Hill
#
# Bulk Modulus (GPa) = 55.72646 64.16676 59.94661
# Shear Modulus (GPa) = 32.68358 36.69105 34.68731
#
# Velocity S-wave (km/s) = 4.05847 4.30009 4.18103
# Velocity P-wave (km/s) = 7.07428 7.54930 7.31565
#
# Compressibility (1/GPa) = 0.01794480
#
# Stress axis : x y z
#
# Youngs Moduli (GPa) = 111.67379 53.75409 103.61437
#
# Poissons Ratio (x) = 0.14336 0.19779
# Poissons Ratio (y) = 0.29782 0.52391
# Poissons Ratio (z) = 0.21318 0.27180
#
# Static dielectric constant tensor:
#      x y z
#    x 1.723000 0.000000 0.064010 
#    y 0.000000 1.691460 0.000000 
#    z 0.064010 0.000000 1.572970 
# 
# From -- ./inp_files/70063.got.cif
#   From: 2010.05.17/outbox.cif.g08.bks.cpg/sg15_36_cif.got.tgz:70063.got - 2010.06.03 18:47:42.
