data_PCOD9307267
_publ_section_title
;
Structure prediction by ZEFSAII (Michael W. Deem and Ramdas Pophale) SiO2 
 PCOD9307267
Probable space group: C 2/C
;
_chemical_formula_sum "Si O2"
_cell_formula_units_Z 52
_cell_length_a 16.363057
_cell_length_b 19.102348
_cell_length_c 8.103858
_cell_angle_alpha 90.000000
_cell_angle_beta 62.624784
_cell_angle_gamma 90.000000
_cell_volume 2249.380939
_symmetry_space_group_name_H-M "C 2/C"
_symmetry_group_IT_number 15
_symmetry_cell_setting 'monoclinic'
loop_
_space_group_symop_operation_xyz
x,y,z
-x,y,1/2-z
-x,-y,-z
x,-y,1/2+z
1/2+x,1/2+y,z
1/2-x,1/2+y,1/2-z
1/2-x,1/2-y,-z
1/2+x,1/2-y,1/2+z
loop_
_atom_site_type_symbol
_atom_site_label
_atom_site_fract_x
_atom_site_fract_y
_atom_site_fract_z
Si Si1 0.034944 0.709206 0.398118
Si Si2 0.043237 0.429976 0.389729
Si Si3 0.000000 0.066717 0.750000
Si Si4 0.349945 0.446852 0.919213
Si Si5 0.063608 0.161468 0.396253
Si Si6 0.757404 0.446019 0.160110
Si Si7 0.260244 0.821017 0.888847
O O1 0.143411 0.690799 0.297230
O O2 0.000000 0.734004 0.250000
O O3 0.983411 0.637146 0.479626
O O4 0.996305 0.768035 0.557893
O O5 0.150972 0.441127 0.316103
O O6 0.000000 0.418828 0.250000
O O7 0.000000 0.500000 0.500000
O O8 0.008890 0.113761 0.579223
O O9 0.913934 0.015155 0.848608
O O10 0.406641 0.383687 0.789008
O O11 0.263433 0.476077 0.891616
O O12 0.320212 0.430574 0.131699
O O13 0.165653 0.175651 0.375557
O O14 0.763765 0.389115 0.006394
O O15 0.250000 0.750000 0.000000
#
# Coordination Sequence:
#
# PCOD9307267 Si02
#       7
#     8   8   4   8   8   8   8
#     4  12  25  48  72 105 142 195 248 294 378 435
#     4  12  28  47  74 104 145 189 245 311 363 439
#     4  12  22  44  72 108 148 192 244 292 370 436
#     4  12  27  43  73 110 152 189 245 305 373 441
#     4  12  25  47  74 106 150 195 245 308 366 447
#     4  12  25  46  70 111 144 191 246 302 373 433
#     4  12  24  46  77 100 141 196 241 300 364 445
#
# _framework density 23.117470999999998
#
# number of rings (size 3 to 8) (size 9 to 14) (size 15 to 20)
#    0.000    0.000    6.923    1.846    6.462    0.000 
#    4.154    1.538    0.000    0.000    0.000    0.000 
#    0.000    0.000    0.000    0.000    0.000    0.000 
#
# Total GULP energy -145492.161732 kJ/mol
# GULP energy per Si atom -5595.852374 kJ/mol
# Density = 2.306485 g / cm^3
# Si number density = 23.117471 Si / 1000 Ang^3
#
#
#
# Elastic Constant Matrix: (Units=GPa)
#
#
# Indices 1 2 3 4 5 6 
#
# 1 145.4410 22.8949 42.6995 0.0000 -29.5275 0.0000
# 2 22.8949 139.3216 62.3801 0.0000 -19.2453 0.0000
# 3 42.6995 62.3801 132.8063 0.0000 -24.3391 0.0000
# 4 0.0000 0.0000 0.0000 42.2760 0.0000 -13.4127
# 5 -29.5275 -19.2453 -24.3391 0.0000 40.9964 0.0000
# 6 0.0000 0.0000 0.0000 -13.4127 0.0000 35.8863
#
#
#
# Elastic Compliance Matrix: (Units=1/GPa)
#
#
# Indices 1 2 3 4 5 6 
#
# 1 0.008418 0.000140 -0.001850 0.000000 0.005030 0.000000
# 2 0.000140 0.009232 -0.004004 0.000000 0.002057 0.000000
# 3 -0.001850 -0.004004 0.010566 0.000000 0.003061 0.000000
# 4 0.000000 0.000000 0.000000 0.026836 0.000000 0.010030
# 5 0.005030 0.002057 0.003061 0.000000 0.030798 0.000000
# 6 0.000000 0.000000 0.000000 0.010030 0.000000 0.031615
#
#
# Mechanical properties :
#
#
# Convention : Reuss Voigt Hill
#
# Bulk Modulus (GPa) = 59.56988 74.83532 67.20260
# Shear Modulus (GPa) = 37.17738 43.13801 40.15770
#
# Velocity S-wave (km/s) = 4.01458 4.32445 4.17239
# Velocity P-wave (km/s) = 6.87847 7.57473 7.23498
#
# Compressibility (1/GPa) = 0.01678701
#
# Stress axis : x y z
#
# Youngs Moduli (GPa) = 118.79153 108.32315 94.63944
#
# Poissons Ratio (x) = -0.01517 0.17513
# Poissons Ratio (y) = -0.01663 0.37895
# Poissons Ratio (z) = 0.21982 0.43374
#
# Static dielectric constant tensor:
#      x y z
#    x 2.495290 0.000000 0.184650 
#    y 0.000000 1.784890 0.000000 
#    z 0.184650 0.000000 1.913920 
# 
# From -- ./inp_files/48940.got.cif
#   From: 2010.05.17/outbox.cif.g08.bks.cpg/sg15_25_cif.got.tgz:48940.got - 2010.06.03 18:47:42.
