data_PCOD9307434
_publ_section_title
;
Structure prediction by ZEFSAII (Michael W. Deem and Ramdas Pophale) SiO2 
 PCOD9307434
Probable space group: C 2/C
;
_chemical_formula_sum "Si O2"
_cell_formula_units_Z 60
_cell_length_a 15.874466
_cell_length_b 13.142736
_cell_length_c 18.944486
_cell_angle_alpha 90.000000
_cell_angle_beta 43.496962
_cell_angle_gamma 90.000000
_cell_volume 2720.543485
_symmetry_space_group_name_H-M "C 2/C"
_symmetry_group_IT_number 15
_symmetry_cell_setting 'monoclinic'
loop_
_space_group_symop_operation_xyz
x,y,z
-x,y,1/2-z
-x,-y,-z
x,-y,1/2+z
1/2+x,1/2+y,z
1/2-x,1/2+y,1/2-z
1/2-x,1/2-y,-z
1/2+x,1/2-y,1/2+z
loop_
_atom_site_type_symbol
_atom_site_label
_atom_site_fract_x
_atom_site_fract_y
_atom_site_fract_z
Si Si1 0.465882 0.486670 0.437939
Si Si2 0.000000 0.644678 0.250000
Si Si3 0.890916 0.881878 0.761196
Si Si4 0.463046 0.116686 0.536776
Si Si5 0.182615 0.340966 0.996657
Si Si6 0.984521 0.761305 0.115328
Si Si7 0.689736 0.966291 0.119396
Si Si8 0.790421 0.321752 0.257846
O O1 0.500000 0.500000 0.500000
O O2 0.564539 0.535363 0.323799
O O3 0.449640 0.368591 0.430818
O O4 0.331506 0.532571 0.509870
O O5 0.983235 0.716110 0.193379
O O6 0.881056 0.571195 0.326389
O O7 0.775420 0.894910 0.884617
O O8 0.862406 0.780252 0.734931
O O9 0.000000 0.866133 0.750000
O O10 0.566709 0.180087 0.517392
O O11 0.452203 0.176270 0.470889
O O12 0.342442 0.125166 0.656726
O O13 0.500000 0.000000 0.500000
O O14 0.250000 0.250000 0.000000
O O15 0.126680 0.411431 0.091735
O O16 0.848194 0.787153 0.170749
O O17 0.691468 0.899267 0.188735
#
# Coordination Sequence:
#
# PCOD9307434 Si02
#       8
#     8   4   8   8   8   8   8   8
#     4  12  28  47  75 108 150 196 258 306 374 448
#     4  12  32  50  76 106 156 204 250 310 394 448
#     4  12  25  43  76 111 143 191 246 315 371 440
#     4  12  27  47  74 109 148 196 247 305 384 451
#     4  12  23  44  72 110 147 182 247 308 372 437
#     4  12  28  52  72 111 146 202 252 310 375 463
#     4  12  25  49  73 111 151 198 244 314 374 456
#     4  12  26  45  81 107 154 193 248 312 377 452
#
# _framework density 22.054417000000001
#
# number of rings (size 3 to 8) (size 9 to 14) (size 15 to 20)
#    0.000    0.000    5.333    4.000    7.467    0.533 
#    0.000    0.000    0.000    0.000    0.000    0.000 
#    0.000    0.000    0.000    0.000    0.000    0.000 
#
# Total GULP energy -167786.032779 kJ/mol
# GULP energy per Si atom -5592.867759 kJ/mol
# Density = 2.200422 g / cm^3
# Si number density = 22.054417 Si / 1000 Ang^3
#
#
#
# Elastic Constant Matrix: (Units=GPa)
#
#
# Indices 1 2 3 4 5 6 
#
# 1 62.1543 -4.0459 11.2826 0.0000 18.4112 0.0000
# 2 -4.0459 103.3728 28.0909 0.0000 18.9388 0.0000
# 3 11.2826 28.0909 129.5263 0.0000 22.2325 0.0000
# 4 0.0000 0.0000 0.0000 45.6908 0.0000 8.7993
# 5 18.4112 18.9388 22.2325 0.0000 35.8248 0.0000
# 6 0.0000 0.0000 0.0000 8.7993 0.0000 25.2610
#
#
#
# Elastic Compliance Matrix: (Units=1/GPa)
#
#
# Indices 1 2 3 4 5 6 
#
# 1 0.019758 0.002985 -0.000397 0.000000 -0.011486 0.000000
# 2 0.002985 0.011434 -0.001610 0.000000 -0.006579 0.000000
# 3 -0.000397 -0.001610 0.008868 0.000000 -0.004448 0.000000
# 4 0.000000 0.000000 0.000000 0.023460 0.000000 -0.008172
# 5 -0.011486 -0.006579 -0.004448 0.000000 0.040055 0.000000
# 6 0.000000 0.000000 0.000000 -0.008172 0.000000 0.042433
#
#
# Mechanical properties :
#
#
# Convention : Reuss Voigt Hill
#
# Bulk Modulus (GPa) = 23.80095 40.63431 32.21763
# Shear Modulus (GPa) = 31.63431 38.67035 35.15233
#
# Velocity S-wave (km/s) = 3.79142 4.19191 3.99669
# Velocity P-wave (km/s) = 5.47557 6.47256 5.99483
#
# Compressibility (1/GPa) = 0.04201514
#
# Stress axis : x y z
#
# Youngs Moduli (GPa) = 50.61314 87.46169 112.76848
#
# Poissons Ratio (x) = -0.26112 0.04477
# Poissons Ratio (y) = -0.15111 0.18160
# Poissons Ratio (z) = 0.02009 0.14085
#
# Static dielectric constant tensor:
#      x y z
#    x 1.883180 0.000000 -0.035620 
#    y 0.000000 1.748090 0.000000 
#    z -0.035620 0.000000 1.822590 
# 
# From -- ./inp_files/248753.got.cif
#   From: 2010.05.17/outbox.cif.g08.bks.cpg/sg15_125_cif.got.tgz:248753.got - 2010.06.03 18:47:42.
