data_PCOD9307563
_publ_section_title
;
Structure prediction by ZEFSAII (Michael W. Deem and Ramdas Pophale) SiO2 
 PCOD9307563
Probable space group: C 2/C
;
_chemical_formula_sum "Si O2"
_cell_formula_units_Z 36
_cell_length_a 4.835910
_cell_length_b 19.770660
_cell_length_c 16.531301
_cell_angle_alpha 90.000000
_cell_angle_beta 94.445434
_cell_angle_gamma 90.000000
_cell_volume 1575.788444
_symmetry_space_group_name_H-M "C 2/C"
_symmetry_group_IT_number 15
_symmetry_cell_setting 'monoclinic'
loop_
_space_group_symop_operation_xyz
x,y,z
-x,y,1/2-z
-x,-y,-z
x,-y,1/2+z
1/2+x,1/2+y,z
1/2-x,1/2+y,1/2-z
1/2-x,1/2-y,-z
1/2+x,1/2-y,1/2+z
loop_
_atom_site_type_symbol
_atom_site_label
_atom_site_fract_x
_atom_site_fract_y
_atom_site_fract_z
Si Si1 0.615776 0.941525 0.667907
Si Si2 0.933470 0.932469 0.948369
Si Si3 0.000000 0.943270 0.250000
Si Si4 0.823328 0.675462 0.671026
Si Si5 0.683295 0.309318 0.437374
O O1 0.500000 0.911184 0.750000
O O2 0.844188 0.908754 0.614337
O O3 0.559207 0.714247 0.629318
O O4 0.781894 0.009368 0.698342
O O5 0.651890 0.948984 0.894018
O O6 0.911121 0.872954 0.012401
O O7 0.000000 0.000000 0.000000
O O8 0.816911 0.894266 0.301918
O O9 0.000000 0.704426 0.750000
O O10 0.047861 0.668161 0.606223
O O11 0.750000 0.250000 0.500000
#
# Coordination Sequence:
#
# PCOD9307563 Si02
#       5
#     8   8   4   8   8
#     4  12  25  43  68 107 149 194 233 311 370 445
#     4  12  27  43  71 112 146 192 243 305 386 436
#     4  12  24  40  80 106 148 182 264 298 364 428
#     4  12  25  45  79 110 135 199 257 306 353 445
#     4  12  28  51  75 107 154 197 249 311 375 447
#
# _framework density 22.845707000000001
#
# number of rings (size 3 to 8) (size 9 to 14) (size 15 to 20)
#    0.000    0.000    4.444    4.667    6.222    0.000 
#    0.000    4.444    4.889    0.000    0.000    0.000 
#    0.000    0.000    0.000    0.000    0.000    0.000 
#
# Total GULP energy -100721.029445 kJ/mol
# GULP energy per Si atom -5595.612747 kJ/mol
# Density = 2.279371 g / cm^3
# Si number density = 22.845707 Si / 1000 Ang^3
#
#
#
# Elastic Constant Matrix: (Units=GPa)
#
#
# Indices 1 2 3 4 5 6 
#
# 1 185.7038 6.0156 44.8174 0.0000 8.4677 0.0000
# 2 6.0156 57.3438 31.0725 0.0000 -0.5570 0.0000
# 3 44.8174 31.0725 140.5380 0.0000 -40.8015 0.0000
# 4 0.0000 0.0000 0.0000 -7.8909 0.0000 19.9524
# 5 8.4677 -0.5570 -40.8015 0.0000 73.1455 0.0000
# 6 0.0000 0.0000 0.0000 19.9524 0.0000 13.6089
#
#
#
# Elastic Compliance Matrix: (Units=1/GPa)
#
#
# Indices 1 2 3 4 5 6 
#
# 1 0.006138 0.000854 -0.002805 0.000000 -0.002268 0.000000
# 2 0.000854 0.020401 -0.005687 0.000000 -0.003116 0.000000
# 3 -0.002805 -0.005687 0.011156 0.000000 0.006504 0.000000
# 4 0.000000 0.000000 0.000000 -0.026923 0.000000 0.039472
# 5 -0.002268 -0.003116 0.006504 0.000000 0.017538 0.000000
# 6 0.000000 0.000000 0.000000 0.039472 0.000000 0.015611
#
#
# Mechanical properties :
#
#
# Convention : Reuss Voigt Hill
#
# Bulk Modulus (GPa) = 44.60821 60.82186 52.71503
# Shear Modulus (GPa) = 74.99699 35.88471 55.44085
#
# Velocity S-wave (km/s) = 5.73575 3.96756 4.93155
# Velocity P-wave (km/s) = 7.96451 6.90430 7.45328
#
# Compressibility (1/GPa) = 0.02241740
#
# Stress axis : x y z
#
# Youngs Moduli (GPa) = 162.93105 49.01797 89.64024
#
# Poissons Ratio (x) = -0.04185 0.25141
# Poissons Ratio (y) = -0.13912 0.50983
# Poissons Ratio (z) = 0.45696 0.27879
#
# Static dielectric constant tensor:
#      x y z
#    x 1.816710 0.000000 0.071420 
#    y 0.000000 1.821300 0.000000 
#    z 0.071420 0.000000 1.748740 
# 
# From -- ./inp_files/260061.got.cif
#   From: 2010.05.17/outbox.cif.g08.bks.cpg/sg15_131_cif.got.tgz:260061.got - 2010.06.03 18:47:42.
