data_PCOD9307877
_publ_section_title
;
Structure prediction by ZEFSAII (Michael W. Deem and Ramdas Pophale) SiO2 
 PCOD9307877
Probable space group: C 2/C
;
_chemical_formula_sum "Si O2"
_cell_formula_units_Z 48
_cell_length_a 9.320775
_cell_length_b 31.581627
_cell_length_c 8.236451
_cell_angle_alpha 90.000000
_cell_angle_beta 102.089179
_cell_angle_gamma 90.000000
_cell_volume 2370.755718
_symmetry_space_group_name_H-M "C 2/C"
_symmetry_group_IT_number 15
_symmetry_cell_setting 'monoclinic'
loop_
_space_group_symop_operation_xyz
x,y,z
-x,y,1/2-z
-x,-y,-z
x,-y,1/2+z
1/2+x,1/2+y,z
1/2-x,1/2+y,1/2-z
1/2-x,1/2-y,-z
1/2+x,1/2-y,1/2+z
loop_
_atom_site_type_symbol
_atom_site_label
_atom_site_fract_x
_atom_site_fract_y
_atom_site_fract_z
Si Si1 0.953826 0.453773 0.550659
Si Si2 0.655597 0.882556 0.498510
Si Si3 0.060902 0.858919 0.084587
Si Si4 0.229780 0.113030 0.101151
Si Si5 0.941294 0.315701 0.553560
Si Si6 0.576028 0.735133 0.445384
O O1 0.797992 0.428629 0.529857
O O2 0.000000 0.452461 0.750000
O O3 0.000000 0.500000 0.500000
O O4 0.051741 0.422582 0.465903
O O5 0.721931 0.884218 0.698444
O O6 0.554136 0.841205 0.466902
O O7 0.781956 0.880249 0.398178
O O8 0.000000 0.858798 0.250000
O O9 0.943210 0.884470 0.951151
O O10 0.073717 0.811351 0.021144
O O11 0.294537 0.155802 0.028352
O O12 0.964340 0.267278 0.510336
O O13 0.000000 0.318954 0.750000
O O14 0.500000 0.732543 0.250000
O O15 0.750000 0.750000 0.500000
#
# Coordination Sequence:
#
# PCOD9307877 Si02
#       6
#     8   8   8   8   8   8
#     4   9  19  37  64  94 119 152 195 244 307 376
#     4   9  18  39  60  84 118 157 198 246 306 373
#     4  12  25  38  58  88 122 159 209 257 313 363
#     4   9  20  37  62  86 115 161 200 248 307 370
#     4   9  19  37  62  82 112 156 210 252 304 357
#     4  12  26  41  62  87 125 169 214 260 320 366
#
# _framework density 20.24671
#
# number of rings (size 3 to 8) (size 9 to 14) (size 15 to 20)
#    0.000    2.000    1.667    4.000    4.667    2.000 
#    0.000    4.167    0.000    0.000    0.000    0.000 
#    0.000    0.000    0.000    0.000    0.000    0.000 
#
# Total GULP energy -133750.654958 kJ/mol
# GULP energy per Si atom -5572.943957 kJ/mol
# Density = 2.020063 g / cm^3
# Si number density = 20.246710 Si / 1000 Ang^3
#
#
#
# Elastic Constant Matrix: (Units=GPa)
#
#
# Indices 1 2 3 4 5 6 
#
# 1 65.4667 10.9148 16.3611 0.0000 -28.4496 0.0000
# 2 10.9148 91.2222 -3.1376 0.0000 -13.5632 0.0000
# 3 16.3611 -3.1376 56.9014 0.0000 -12.2773 0.0000
# 4 0.0000 0.0000 0.0000 26.0195 0.0000 -10.0813
# 5 -28.4496 -13.5632 -12.2773 0.0000 25.9599 0.0000
# 6 0.0000 0.0000 0.0000 -10.0813 0.0000 19.7685
#
#
#
# Elastic Compliance Matrix: (Units=1/GPa)
#
#
# Indices 1 2 3 4 5 6 
#
# 1 0.029427 0.001217 -0.001446 0.000000 0.032201 0.000000
# 2 0.001217 0.012194 0.002210 0.000000 0.008750 0.000000
# 3 -0.001446 0.002210 0.020067 0.000000 0.009060 0.000000
# 4 0.000000 0.000000 0.000000 0.047896 0.000000 0.024426
# 5 0.032201 0.008750 0.009060 0.000000 0.082667 0.000000
# 6 0.000000 0.000000 0.000000 0.024426 0.000000 0.063042
#
#
# Mechanical properties :
#
#
# Convention : Reuss Voigt Hill
#
# Bulk Modulus (GPa) = 15.23233 29.09632 22.16433
# Shear Modulus (GPa) = 18.30070 26.97970 22.64020
#
# Velocity S-wave (km/s) = 3.00973 3.65437 3.34760
# Velocity P-wave (km/s) = 4.42918 5.67521 5.09046
#
# Compressibility (1/GPa) = 0.06564983
#
# Stress axis : x y z
#
# Youngs Moduli (GPa) = 33.98237 82.01010 49.83341
#
# Poissons Ratio (x) = -0.09981 0.07207
# Poissons Ratio (y) = -0.04136 -0.11015
# Poissons Ratio (z) = 0.04915 -0.18127
#
# Static dielectric constant tensor:
#      x y z
#    x 1.731020 0.000000 -0.004160 
#    y 0.000000 1.783690 0.000000 
#    z -0.004160 0.000000 1.717040 
# 
# From -- ./inp_files/26088.got.cif
#   From: 2010.05.17/outbox.cif.g08.bks.cpg/sg15_14_cif.got.tgz:26088.got - 2010.06.03 18:47:42.
