data_PCOD9307614
_publ_section_title
;
Structure prediction by ZEFSAII (Michael W. Deem and Ramdas Pophale) SiO2 
 PCOD9307614
Probable space group: C 2/C
;
_chemical_formula_sum "Si O2"
_cell_formula_units_Z 60
_cell_length_a 15.360597
_cell_length_b 12.253945
_cell_length_c 17.755293
_cell_angle_alpha 90.000000
_cell_angle_beta 66.149386
_cell_angle_gamma 90.000000
_cell_volume 3056.640792
_symmetry_space_group_name_H-M "C 2/C"
_symmetry_group_IT_number 15
_symmetry_cell_setting 'monoclinic'
loop_
_space_group_symop_operation_xyz
x,y,z
-x,y,1/2-z
-x,-y,-z
x,-y,1/2+z
1/2+x,1/2+y,z
1/2-x,1/2+y,1/2-z
1/2-x,1/2-y,-z
1/2+x,1/2-y,1/2+z
loop_
_atom_site_type_symbol
_atom_site_label
_atom_site_fract_x
_atom_site_fract_y
_atom_site_fract_z
Si Si1 0.000000 0.185815 0.250000
Si Si2 0.462782 0.753732 0.557312
Si Si3 0.658827 0.955200 0.843117
Si Si4 0.254176 0.363564 0.658987
Si Si5 0.389767 0.463802 0.028423
Si Si6 0.652609 0.480000 0.633360
Si Si7 0.920011 0.304215 0.134085
Si Si8 0.916485 0.775743 0.338466
O O1 0.088024 0.106786 0.200097
O O2 0.025588 0.259428 0.312257
O O3 0.410662 0.859409 0.607118
O O4 0.389243 0.655183 0.567297
O O5 0.516661 0.779594 0.461260
O O6 0.539234 0.720637 0.593875
O O7 0.709342 0.920279 0.747892
O O8 0.739245 0.967940 0.878749
O O9 0.604563 0.068901 0.852160
O O10 0.319308 0.450869 0.592539
O O11 0.323139 0.265108 0.659594
O O12 0.168949 0.310454 0.640210
O O13 0.500000 0.500000 0.000000
O O14 0.364466 0.460218 0.949207
O O15 0.620335 0.602449 0.665414
O O16 0.000000 0.748273 0.250000
#
# Coordination Sequence:
#
# PCOD9307614 Si02
#       8
#     4   8   8   8   8   8   8   8
#     4  12  24  44  74 104 138 192 234 296 360 428
#     4  12  27  49  73 103 145 190 239 296 362 431
#     4  12  29  46  71 105 146 189 238 297 360 433
#     4  12  26  45  73 110 142 185 245 304 355 424
#     4  12  25  45  74 108 142 182 241 305 352 425
#     4  12  24  43  74 105 137 187 240 287 361 432
#     4  12  26  48  70 102 149 187 235 297 363 428
#     4  12  25  43  75 104 140 188 239 291 357 432
#
# _framework density 19.629393
#
# number of rings (size 3 to 8) (size 9 to 14) (size 15 to 20)
#    0.000    0.000    8.667    0.400    5.600    2.667 
#    2.400    0.000    0.000    0.000    0.000    0.000 
#    0.000    0.000    0.000    0.000    0.000    0.000 
#
# Total GULP energy -167940.611710 kJ/mol
# GULP energy per Si atom -5598.020390 kJ/mol
# Density = 1.958472 g / cm^3
# Si number density = 19.629393 Si / 1000 Ang^3
#
#
#
# Elastic Constant Matrix: (Units=GPa)
#
#
# Indices 1 2 3 4 5 6 
#
# 1 77.6331 29.5562 18.0879 0.0000 5.7184 0.0000
# 2 29.5562 145.1932 28.6079 0.0000 -9.7204 0.0000
# 3 18.0879 28.6079 97.5872 0.0000 13.9803 0.0000
# 4 0.0000 0.0000 0.0000 41.8212 0.0000 36.9055
# 5 5.7184 -9.7204 13.9803 0.0000 22.6249 0.0000
# 6 0.0000 0.0000 0.0000 36.9055 0.0000 61.6891
#
#
#
# Elastic Compliance Matrix: (Units=1/GPa)
#
#
# Indices 1 2 3 4 5 6 
#
# 1 0.014628 -0.003022 -0.001218 0.000000 -0.004243 0.000000
# 2 -0.003022 0.008465 -0.002800 0.000000 0.006130 0.000000
# 3 -0.001218 -0.002800 0.012531 0.000000 -0.008638 0.000000
# 4 0.000000 0.000000 0.000000 0.050652 0.000000 -0.030303
# 5 -0.004243 0.006130 -0.008638 0.000000 0.053243 0.000000
# 6 0.000000 0.000000 0.000000 -0.030303 0.000000 0.034339
#
#
# Mechanical properties :
#
#
# Convention : Reuss Voigt Hill
#
# Bulk Modulus (GPa) = 46.41319 52.54637 49.47978
# Shear Modulus (GPa) = 25.62563 41.50447 33.56505
#
# Velocity S-wave (km/s) = 3.61705 4.60325 4.13963
# Velocity P-wave (km/s) = 6.41406 7.42163 6.93616
#
# Compressibility (1/GPa) = 0.02154560
#
# Stress axis : x y z
#
# Youngs Moduli (GPa) = 68.36295 118.14012 79.80136
#
# Poissons Ratio (x) = 0.35700 0.09716
# Poissons Ratio (y) = 0.20658 0.22340
# Poissons Ratio (z) = 0.08323 0.33073
#
# Static dielectric constant tensor:
#      x y z
#    x 1.670210 0.000000 0.001240 
#    y 0.000000 1.680570 0.000000 
#    z 0.001240 0.000000 1.663140 
# 
# From -- ./inp_files/204423.got.cif
#   From: 2010.05.17/outbox.cif.g08.bks.cpg/sg15_103_cif.got.tgz:204423.got - 2010.06.03 18:47:42.
