data_PCOD9307385
_publ_section_title
;
Structure prediction by ZEFSAII (Michael W. Deem and Ramdas Pophale) SiO2 
 PCOD9307385
Probable space group: C 2/C
;
_chemical_formula_sum "Si O2"
_cell_formula_units_Z 48
_cell_length_a 25.730470
_cell_length_b 4.889422
_cell_length_c 17.060955
_cell_angle_alpha 90.000000
_cell_angle_beta 109.511267
_cell_angle_gamma 90.000000
_cell_volume 2023.135071
_symmetry_space_group_name_H-M "C 2/C"
_symmetry_group_IT_number 15
_symmetry_cell_setting 'monoclinic'
loop_
_space_group_symop_operation_xyz
x,y,z
-x,y,1/2-z
-x,-y,-z
x,-y,1/2+z
1/2+x,1/2+y,z
1/2-x,1/2+y,1/2-z
1/2-x,1/2-y,-z
1/2+x,1/2-y,1/2+z
loop_
_atom_site_type_symbol
_atom_site_label
_atom_site_fract_x
_atom_site_fract_y
_atom_site_fract_z
Si Si1 0.650581 0.489629 0.812873
Si Si2 0.769349 0.372043 0.427490
Si Si3 0.573326 0.357035 0.919758
Si Si4 0.119209 0.521566 0.202778
Si Si5 0.003747 0.359724 0.846197
Si Si6 0.336889 0.353444 0.417930
O O1 0.715764 0.509930 0.857074
O O2 0.617883 0.396864 0.873222
O O3 0.629165 0.792889 0.784173
O O4 0.634747 0.284557 0.734410
O O5 0.750000 0.250000 0.500000
O O6 0.809484 0.627632 0.461180
O O7 0.799368 0.123098 0.397293
O O8 0.521755 0.552331 0.874218
O O9 0.550694 0.051677 0.905580
O O10 0.604159 0.429564 0.015620
O O11 0.155751 0.674975 0.156490
O O12 0.055274 0.553848 0.149657
O O13 0.000000 0.397931 0.750000
#
# Coordination Sequence:
#
# PCOD9307385 Si02
#       6
#     8   8   8   8   8   8
#     4  12  24  44  74 102 138 192 241 290 356 429
#     4  12  26  46  77 103 138 189 246 294 359 432
#     4  12  24  42  74 103 137 187 247 288 350 432
#     4  12  27  45  70 105 150 184 232 303 359 419
#     4  12  23  42  72 106 138 189 241 288 351 434
#     4  12  28  47  69 109 146 183 239 306 360 419
#
# _framework density 23.725553000000001
#
# number of rings (size 3 to 8) (size 9 to 14) (size 15 to 20)
#    0.000    0.000    5.000    5.000    2.333    4.000 
#    0.000    0.000    0.000    0.000    0.000    0.000 
#    0.000    0.000    0.000    0.000    0.000    0.000 
#
# Total GULP energy -134472.517028 kJ/mol
# GULP energy per Si atom -5603.021543 kJ/mol
# Density = 2.367155 g / cm^3
# Si number density = 23.725553 Si / 1000 Ang^3
#
#
#
# Elastic Constant Matrix: (Units=GPa)
#
#
# Indices 1 2 3 4 5 6 
#
# 1 70.1777 13.6429 19.5595 0.0000 14.0350 0.0000
# 2 13.6429 91.8724 -3.5880 0.0001 -0.1765 0.0000
# 3 19.5595 -3.5880 39.8842 0.0000 10.1135 0.0000
# 4 0.0000 0.0001 0.0000 -5.3919 0.0000 6.1079
# 5 14.0350 -0.1765 10.1135 0.0000 31.1180 0.0000
# 6 0.0000 0.0000 0.0000 6.1079 0.0000 45.6482
#
#
#
# Elastic Compliance Matrix: (Units=1/GPa)
#
#
# Indices 1 2 3 4 5 6 
#
# 1 0.018120 -0.003003 -0.007716 0.000000 -0.005682 0.000000
# 2 -0.003003 0.011423 0.002333 0.000000 0.000661 0.000000
# 3 -0.007716 0.002333 0.030711 0.000000 -0.006488 0.000000
# 4 0.000000 0.000000 0.000000 -0.161052 0.000000 0.021549
# 5 -0.005682 0.000661 -0.006488 0.000000 0.036811 0.000000
# 6 0.000000 0.000000 0.000000 0.021549 0.000000 0.019023
#
#
# Mechanical properties :
#
#
# Convention : Reuss Voigt Hill
#
# Bulk Modulus (GPa) = 22.99767 29.01811 26.00789
# Shear Modulus (GPa) = -365.04736 25.76285 -169.64225
#
# Velocity S-wave (km/s) = -12.41759 3.29883 -8.46505
# Velocity P-wave (km/s) = 13.99575 5.17368 9.19549
#
# Compressibility (1/GPa) = 0.04348267
#
# Stress axis : x y z
#
# Youngs Moduli (GPa) = 55.18719 87.54286 32.56117
#
# Poissons Ratio (x) = 0.26290 0.25123
# Poissons Ratio (y) = 0.16573 -0.07596
# Poissons Ratio (z) = 0.42580 -0.20421
#
# Static dielectric constant tensor:
#      x y z
#    x 1.981400 0.000000 -0.014060 
#    y 0.000000 1.814810 0.000000 
#    z -0.014060 0.000000 1.907930 
# 
# From -- ./inp_files/217795.got.cif
#   From: 2010.05.17/outbox.cif.g08.bks.cpg/sg15_109_cif.got.tgz:217795.got - 2010.06.03 18:47:42.
