data_PCOD9307895
_publ_section_title
;
Structure prediction by ZEFSAII (Michael W. Deem and Ramdas Pophale) SiO2 
 PCOD9307895
Probable space group: C 2/C
;
_chemical_formula_sum "Si O2"
_cell_formula_units_Z 48
_cell_length_a 20.169241
_cell_length_b 11.838262
_cell_length_c 8.906170
_cell_angle_alpha 90.000000
_cell_angle_beta 79.727483
_cell_angle_gamma 90.000000
_cell_volume 2092.428592
_symmetry_space_group_name_H-M "C 2/C"
_symmetry_group_IT_number 15
_symmetry_cell_setting 'monoclinic'
loop_
_space_group_symop_operation_xyz
x,y,z
-x,y,1/2-z
-x,-y,-z
x,-y,1/2+z
1/2+x,1/2+y,z
1/2-x,1/2+y,1/2-z
1/2-x,1/2-y,-z
1/2+x,1/2-y,1/2+z
loop_
_atom_site_type_symbol
_atom_site_label
_atom_site_fract_x
_atom_site_fract_y
_atom_site_fract_z
Si Si1 0.000000 0.662064 0.250000
Si Si2 0.696727 0.342918 0.362695
Si Si3 0.652420 0.110806 0.719543
Si Si4 0.858996 0.972332 0.398592
Si Si5 0.877808 0.396233 0.604355
Si Si6 0.925048 0.213791 0.043551
Si Si7 0.500000 0.425564 0.750000
O O1 0.949344 0.597517 0.159853
O O2 0.953958 0.736432 0.378589
O O3 0.776754 0.328116 0.340657
O O4 0.681176 0.416951 0.220972
O O5 0.672120 0.415970 0.515246
O O6 0.655729 0.226714 0.363918
O O7 0.617545 0.084724 0.575020
O O8 0.606355 0.189319 0.841198
O O9 0.665712 0.994201 0.801263
O O10 0.868971 0.878667 0.523895
O O11 0.933999 0.002108 0.310638
O O12 0.983470 0.151656 0.113301
#
# Coordination Sequence:
#
# PCOD9307895 Si02
#       7
#     4   8   8   8   8   8   4
#     4  12  25  47  76 110 148 185 253 302 368 444
#     4  12  27  48  78 108 155 191 253 304 368 447
#     4  12  29  50  75 107 148 204 249 299 374 442
#     4  12  25  43  75 113 145 197 237 312 368 434
#     4  12  28  49  76 106 150 196 249 312 365 442
#     4  12  25  44  74 108 149 194 241 304 371 437
#     4  12  25  45  74 114 156 187 251 302 384 438
#
# _framework density 22.939851999999998
#
# number of rings (size 3 to 8) (size 9 to 14) (size 15 to 20)
#    0.000    0.000    3.333    6.500    2.333    4.000 
#    0.000    0.000    0.000    0.000    0.000    0.000 
#    0.000    0.000    0.000    0.000    0.000    0.000 
#
# Total GULP energy -134561.311739 kJ/mol
# GULP energy per Si atom -5606.721322 kJ/mol
# Density = 2.288764 g / cm^3
# Si number density = 22.939852 Si / 1000 Ang^3
#
#
#
# Elastic Constant Matrix: (Units=GPa)
#
#
# Indices 1 2 3 4 5 6 
#
# 1 93.0787 20.6796 42.5626 0.0000 11.9018 0.0000
# 2 20.6796 101.4377 49.8155 0.0000 1.5622 0.0000
# 3 42.5626 49.8155 138.7300 0.0000 19.5418 0.0000
# 4 0.0000 0.0000 0.0000 23.1340 0.0000 22.5950
# 5 11.9018 1.5622 19.5418 0.0000 34.2038 0.0000
# 6 0.0000 0.0000 0.0000 22.5950 0.0000 8.6601
#
#
#
# Elastic Compliance Matrix: (Units=1/GPa)
#
#
# Indices 1 2 3 4 5 6 
#
# 1 0.012753 -0.000991 -0.003195 0.000000 -0.002567 0.000000
# 2 -0.000991 0.012183 -0.004394 0.000000 0.002299 0.000000
# 3 -0.003195 -0.004394 0.010420 0.000000 -0.004641 0.000000
# 4 0.000000 0.000000 0.000000 -0.027919 0.000000 0.072842
# 5 -0.002567 0.002299 -0.004641 0.000000 0.032676 0.000000
# 6 0.000000 0.000000 0.000000 0.072842 0.000000 -0.074580
#
#
# Mechanical properties :
#
#
# Convention : Reuss Voigt Hill
#
# Bulk Modulus (GPa) = 54.96126 62.15130 58.55628
# Shear Modulus (GPa) = -444.86371 27.87882 -208.49244
#
# Velocity S-wave (km/s) = -13.94084 3.48990 -9.54379
# Velocity P-wave (km/s) = 15.33358 6.58720 9.79100
#
# Compressibility (1/GPa) = 0.01819463
#
# Stress axis : x y z
#
# Youngs Moduli (GPa) = 78.41219 82.08130 95.96717
#
# Poissons Ratio (x) = 0.08136 0.30663
# Poissons Ratio (y) = 0.07773 0.42172
# Poissons Ratio (z) = 0.25054 0.36070
#
# Static dielectric constant tensor:
#      x y z
#    x 1.836240 0.000000 0.011420 
#    y 0.000000 1.860500 0.000000 
#    z 0.011420 0.000000 1.827250 
# 
# From -- ./inp_files/60567.got.cif
#   From: 2010.05.17/outbox.cif.g08.bks.cpg/sg15_31_cif.got.tgz:60567.got - 2010.06.03 18:47:42.
