data_PCOD9307127
_publ_section_title
;
Structure prediction by ZEFSAII (Michael W. Deem and Ramdas Pophale) SiO2 
 PCOD9307127
Probable space group: C 2/C
;
_chemical_formula_sum "Si O2"
_cell_formula_units_Z 56
_cell_length_a 23.196313
_cell_length_b 14.624613
_cell_length_c 8.729188
_cell_angle_alpha 90.000000
_cell_angle_beta 76.008240
_cell_angle_gamma 90.000000
_cell_volume 2873.405218
_symmetry_space_group_name_H-M "C 2/C"
_symmetry_group_IT_number 15
_symmetry_cell_setting 'monoclinic'
loop_
_space_group_symop_operation_xyz
x,y,z
-x,y,1/2-z
-x,-y,-z
x,-y,1/2+z
1/2+x,1/2+y,z
1/2-x,1/2+y,1/2-z
1/2-x,1/2-y,-z
1/2+x,1/2-y,1/2+z
loop_
_atom_site_type_symbol
_atom_site_label
_atom_site_fract_x
_atom_site_fract_y
_atom_site_fract_z
Si Si1 0.374545 0.246968 0.814302
Si Si2 0.150631 0.909997 0.889396
Si Si3 0.810127 0.785891 0.174784
Si Si4 0.894415 0.929415 0.270122
Si Si5 0.308542 0.905430 0.207236
Si Si6 0.500000 0.337483 0.750000
Si Si7 0.284536 0.901499 0.870524
Si Si8 0.500000 0.500000 0.000000
O O1 0.356017 0.313446 0.686579
O O2 0.361057 0.145937 0.763049
O O3 0.441853 0.274954 0.804791
O O4 0.334525 0.268592 0.988587
O O5 0.213358 0.912420 0.934142
O O6 0.146095 0.985904 0.761250
O O7 0.100771 0.933974 0.049062
O O8 0.860906 0.838896 0.237426
O O9 0.751785 0.850058 0.209128
O O10 0.795735 0.691081 0.269020
O O11 0.955619 0.944767 0.147621
O O12 0.304495 0.009830 0.263172
O O13 0.312693 0.898528 0.020921
O O14 0.505498 0.406414 0.888230
#
# Coordination Sequence:
#
# PCOD9307127 Si02
#       8
#     8   8   8   8   8   4   8   4
#     4  12  26  42  63  95 133 180 221 277 333 401
#     4  12  22  37  63  93 139 174 216 267 332 400
#     4  12  23  40  65  97 137 174 220 272 339 406
#     4  12  23  38  61  97 137 176 218 271 326 404
#     4  12  25  41  66  96 136 173 218 276 336 407
#     4  12  26  44  64  98 130 178 224 274 332 398
#     4  12  24  41  66 101 133 176 218 269 344 405
#     4  12  24  42  64  94 132 180 224 268 332 394
#
# _framework density 19.489070999999999
#
# number of rings (size 3 to 8) (size 9 to 14) (size 15 to 20)
#    0.000    0.000    7.143    4.286    2.000    0.000 
#    0.000    0.000    0.000    3.429    0.000    0.000 
#    0.000    0.000    0.000    0.000    0.000    0.000 
#
# Total GULP energy -156262.647832 kJ/mol
# GULP energy per Si atom -5580.808851 kJ/mol
# Density = 1.944471 g / cm^3
# Si number density = 19.489071 Si / 1000 Ang^3
#
#
#
# Elastic Constant Matrix: (Units=GPa)
#
#
# Indices 1 2 3 4 5 6 
#
# 1 69.9118 32.4934 28.6861 0.0000 -1.5395 0.0000
# 2 32.4934 105.6139 11.1562 0.0000 -9.0716 0.0000
# 3 28.6861 11.1562 97.2007 0.0000 -5.2326 0.0000
# 4 0.0000 0.0000 0.0000 35.3084 0.0000 6.8313
# 5 -1.5395 -9.0716 -5.2326 0.0000 31.5007 0.0000
# 6 0.0000 0.0000 0.0000 6.8313 0.0000 32.2699
#
#
#
# Elastic Compliance Matrix: (Units=1/GPa)
#
#
# Indices 1 2 3 4 5 6 
#
# 1 0.018837 -0.005391 -0.005019 0.000000 -0.001466 0.000000
# 2 -0.005391 0.011343 0.000455 0.000000 0.003079 0.000000
# 3 -0.005019 0.000455 0.011817 0.000000 0.001849 0.000000
# 4 0.000000 0.000000 0.000000 0.029531 0.000000 -0.006252
# 5 -0.001466 0.003079 0.001849 0.000000 0.032867 0.000000
# 6 0.000000 0.000000 0.000000 -0.006252 0.000000 0.032312
#
#
# Mechanical properties :
#
#
# Convention : Reuss Voigt Hill
#
# Bulk Modulus (GPa) = 45.27807 46.37752 45.82780
# Shear Modulus (GPa) = 30.49148 33.17519 31.83333
#
# Velocity S-wave (km/s) = 3.95972 4.13030 4.04591
# Velocity P-wave (km/s) = 6.64747 6.82600 6.73732
#
# Compressibility (1/GPa) = 0.02208575
#
# Stress axis : x y z
#
# Youngs Moduli (GPa) = 53.08822 88.15650 84.62676
#
# Poissons Ratio (x) = 0.47525 0.42476
# Poissons Ratio (y) = 0.28620 -0.03849
# Poissons Ratio (z) = 0.26646 -0.04009
#
# Static dielectric constant tensor:
#      x y z
#    x 1.854320 0.000000 -0.077980 
#    y 0.000000 1.646520 0.000000 
#    z -0.077980 0.000000 1.682450 
# 
# From -- ./inp_files/61500.got.cif
#   From: 2010.05.17/outbox.cif.g08.bks.cpg/sg15_31_cif.got.tgz:61500.got - 2010.06.03 18:47:42.
