data_PCOD9307545
_publ_section_title
;
Structure prediction by ZEFSAII (Michael W. Deem and Ramdas Pophale) SiO2 
 PCOD9307545
Probable space group: C 2/C
;
_chemical_formula_sum "Si O2"
_cell_formula_units_Z 24
_cell_length_a 21.479307
_cell_length_b 7.478969
_cell_length_c 15.309931
_cell_angle_alpha 90.000000
_cell_angle_beta 157.700973
_cell_angle_gamma 90.000000
_cell_volume 933.208865
_symmetry_space_group_name_H-M "C 2/C"
_symmetry_group_IT_number 15
_symmetry_cell_setting 'monoclinic'
loop_
_space_group_symop_operation_xyz
x,y,z
-x,y,1/2-z
-x,-y,-z
x,-y,1/2+z
1/2+x,1/2+y,z
1/2-x,1/2+y,1/2-z
1/2-x,1/2-y,-z
1/2+x,1/2-y,1/2+z
loop_
_atom_site_type_symbol
_atom_site_label
_atom_site_fract_x
_atom_site_fract_y
_atom_site_fract_z
Si Si1 0.679046 0.634675 0.022559
Si Si2 0.115352 0.868160 0.095192
Si Si3 0.101331 0.609501 0.792705
O O1 0.737562 0.805289 0.152530
O O2 0.671967 0.471986 0.082898
O O3 0.814885 0.573805 0.129005
O O4 0.500000 0.647959 0.750000
O O5 0.014485 0.695568 0.931739
O O6 0.000000 0.000000 0.000000
O O7 0.000000 0.595996 0.750000
O O8 0.250000 0.750000 0.000000
#
# Coordination Sequence:
#
# PCOD9307545 Si02
#       3
#     8   8   8
#     4  12  27  53  81 119 161 211 270 335 404 478
#     4  12  27  50  80 116 160 209 272 332 405 478
#     4  12  23  51  82 114 165 212 260 332 402 477
#
# _framework density 25.717714000000001
#
# number of rings (size 3 to 8) (size 9 to 14) (size 15 to 20)
#    0.000    0.000    6.667    3.000    0.000    1.333 
#    6.000    1.667    0.000    0.000    0.000    0.000 
#    0.000    0.000    0.000    0.000    0.000    0.000 
#
# Total GULP energy -67521.929509 kJ/mol
# GULP energy per Si atom -5626.827459 kJ/mol
# Density = 2.565918 g / cm^3
# Si number density = 25.717714 Si / 1000 Ang^3
#
#
#
# Elastic Constant Matrix: (Units=GPa)
#
#
# Indices 1 2 3 4 5 6 
#
# 1 183.5391 55.7335 100.0377 0.0000 19.4975 0.0000
# 2 55.7335 113.6141 79.8333 0.0000 -7.4721 0.0000
# 3 100.0377 79.8333 208.0024 0.0000 -22.8484 0.0000
# 4 0.0000 0.0000 0.0000 64.2598 0.0000 -4.0525
# 5 19.4975 -7.4721 -22.8484 0.0000 50.4885 0.0000
# 6 0.0000 0.0000 0.0000 -4.0525 0.0000 56.6174
#
#
#
# Elastic Compliance Matrix: (Units=1/GPa)
#
#
# Indices 1 2 3 4 5 6 
#
# 1 0.008868 -0.001766 -0.004201 0.000000 -0.005587 0.000000
# 2 -0.001766 0.012409 -0.003827 0.000000 0.000786 0.000000
# 3 -0.004201 -0.003827 0.008853 0.000000 0.005062 0.000000
# 4 0.000000 0.000000 0.000000 0.015632 0.000000 0.001119
# 5 -0.005587 0.000786 0.005062 0.000000 0.024371 0.000000
# 6 0.000000 0.000000 0.000000 0.001119 0.000000 0.017743
#
#
# Mechanical properties :
#
#
# Convention : Reuss Voigt Hill
#
# Bulk Modulus (GPa) = 94.85641 108.48494 101.67068
# Shear Modulus (GPa) = 45.05428 52.24322 48.64875
#
# Velocity S-wave (km/s) = 4.19008 4.51201 4.35402
# Velocity P-wave (km/s) = 7.77000 8.33179 8.05579
#
# Compressibility (1/GPa) = 0.01054225
#
# Stress axis : x y z
#
# Youngs Moduli (GPa) = 112.76697 80.58851 112.95608
#
# Poissons Ratio (x) = 0.14229 0.47453
# Poissons Ratio (y) = 0.19911 0.43228
# Poissons Ratio (z) = 0.47373 0.30841
#
# Static dielectric constant tensor:
#      x y z
#    x 2.028040 0.000000 -0.009950 
#    y 0.000000 2.024420 0.000000 
#    z -0.009950 0.000000 1.976730 
# 
# From -- ./inp_files/202905.got.cif
#   From: 2010.05.17/outbox.cif.g08.bks.cpg/sg15_102_cif.got.tgz:202905.got - 2010.06.03 18:47:42.
