data_PCOD9307344
_publ_section_title
;
Structure prediction by ZEFSAII (Michael W. Deem and Ramdas Pophale) SiO2 
 PCOD9307344
Probable space group: C 2/C
;
_chemical_formula_sum "Si O2"
_cell_formula_units_Z 48
_cell_length_a 10.154000
_cell_length_b 30.061477
_cell_length_c 17.880066
_cell_angle_alpha 90.000000
_cell_angle_beta 30.055911
_cell_angle_gamma 90.000000
_cell_volume 2733.504602
_symmetry_space_group_name_H-M "C 2/C"
_symmetry_group_IT_number 15
_symmetry_cell_setting 'monoclinic'
loop_
_space_group_symop_operation_xyz
x,y,z
-x,y,1/2-z
-x,-y,-z
x,-y,1/2+z
1/2+x,1/2+y,z
1/2-x,1/2+y,1/2-z
1/2-x,1/2-y,-z
1/2+x,1/2-y,1/2+z
loop_
_atom_site_type_symbol
_atom_site_label
_atom_site_fract_x
_atom_site_fract_y
_atom_site_fract_z
Si Si1 0.925567 0.285594 0.511862
Si Si2 0.070218 0.387114 0.994047
Si Si3 0.771952 0.977537 0.660411
Si Si4 0.384144 0.388301 0.685893
Si Si5 0.870048 0.786611 0.693793
Si Si6 0.226400 0.475184 0.342290
O O1 0.025058 0.336188 0.455999
O O2 0.647156 0.285275 0.603434
O O3 0.849936 0.276746 0.635309
O O4 0.106669 0.249111 0.383407
O O5 0.188892 0.394989 0.852650
O O6 0.320983 0.391996 0.925798
O O7 0.855432 0.423599 0.119246
O O8 0.500000 0.979699 0.750000
O O9 0.837612 0.926551 0.648935
O O10 0.745523 0.003850 0.751200
O O11 0.000000 0.000000 0.500000
O O12 0.342936 0.337501 0.680076
O O13 0.500000 0.481617 0.250000
O O14 0.000000 0.500000 0.500000
#
# Coordination Sequence:
#
# PCOD9307344 Si02
#       6
#     8   8   8   8   8   8
#     4   8  14  26  46  75 107 135 174 224 267 314
#     4   9  17  32  57  82 103 141 195 231 257 320
#     4  12  25  39  55  83 118 146 180 235 288 331
#     4   9  17  33  56  78 108 148 184 222 275 332
#     4   8  14  26  47  74 104 139 176 219 268 317
#     4  12  23  39  63  83 106 150 195 230 271 336
#
# _framework density 17.559875000000002
#
# number of rings (size 3 to 8) (size 9 to 14) (size 15 to 20)
#    0.000    2.333    1.667    5.000    0.000    0.000 
#    3.000    0.000    0.000    1.000    0.000    4.667 
#    0.000    0.000    0.000    0.000    0.000    0.000 
#
# Total GULP energy -133889.915471 kJ/mol
# GULP energy per Si atom -5578.746478 kJ/mol
# Density = 1.751991 g / cm^3
# Si number density = 17.559875 Si / 1000 Ang^3
#
#
#
# Elastic Constant Matrix: (Units=GPa)
#
#
# Indices 1 2 3 4 5 6 
#
# 1 91.1411 73.3906 59.4301 0.0000 10.7039 0.0000
# 2 73.3906 163.1466 82.3753 0.0000 25.1256 0.0000
# 3 59.4301 82.3753 96.4849 0.0000 16.0406 0.0000
# 4 0.0000 0.0000 0.0000 29.3655 0.0000 1.8782
# 5 10.7039 25.1256 16.0406 0.0000 25.8301 0.0000
# 6 0.0000 0.0000 0.0000 1.8782 0.0000 22.3124
#
#
#
# Elastic Compliance Matrix: (Units=1/GPa)
#
#
# Indices 1 2 3 4 5 6 
#
# 1 0.020479 -0.005226 -0.008460 0.000000 0.001851 0.000000
# 2 -0.005226 0.012804 -0.006694 0.000000 -0.006133 0.000000
# 3 -0.008460 -0.006694 0.021884 0.000000 -0.003573 0.000000
# 4 0.000000 0.000000 0.000000 0.034238 0.000000 -0.002882
# 5 0.001851 -0.006133 -0.003573 0.000000 0.046132 0.000000
# 6 0.000000 0.000000 0.000000 -0.002882 0.000000 0.045061
#
#
# Mechanical properties :
#
#
# Convention : Reuss Voigt Hill
#
# Bulk Modulus (GPa) = 69.40265 86.79609 78.09937
# Shear Modulus (GPa) = 22.10809 24.54003 23.32406
#
# Velocity S-wave (km/s) = 3.55211 3.74238 3.64848
# Velocity P-wave (km/s) = 7.51216 8.25892 7.89438
#
# Compressibility (1/GPa) = 0.01440867
#
# Stress axis : x y z
#
# Youngs Moduli (GPa) = 48.82947 78.09810 45.69479
#
# Poissons Ratio (x) = 0.40812 0.38660
# Poissons Ratio (y) = 0.25517 0.30586
# Poissons Ratio (z) = 0.41312 0.52275
#
# Static dielectric constant tensor:
#      x y z
#    x 1.582690 0.000000 -0.003020 
#    y 0.000000 1.611840 0.000000 
#    z -0.003020 0.000000 1.578170 
# 
# From -- ./inp_files/139373.got.cif
#   From: 2010.05.17/outbox.cif.g08.bks.cpg/sg15_70_cif.got.tgz:139373.got - 2010.06.03 18:47:42.
