data_PCOD9307667
_publ_section_title
;
Structure prediction by ZEFSAII (Michael W. Deem and Ramdas Pophale) SiO2 
 PCOD9307667
Probable space group: C 2/C
;
_chemical_formula_sum "Si O2"
_cell_formula_units_Z 36
_cell_length_a 16.764803
_cell_length_b 14.492326
_cell_length_c 7.064381
_cell_angle_alpha 90.000000
_cell_angle_beta 53.008112
_cell_angle_gamma 90.000000
_cell_volume 1370.899466
_symmetry_space_group_name_H-M "C 2/C"
_symmetry_group_IT_number 15
_symmetry_cell_setting 'monoclinic'
loop_
_space_group_symop_operation_xyz
x,y,z
-x,y,1/2-z
-x,-y,-z
x,-y,1/2+z
1/2+x,1/2+y,z
1/2-x,1/2+y,1/2-z
1/2-x,1/2-y,-z
1/2+x,1/2-y,1/2+z
loop_
_atom_site_type_symbol
_atom_site_label
_atom_site_fract_x
_atom_site_fract_y
_atom_site_fract_z
Si Si1 0.309317 0.666934 0.516124
Si Si2 0.923592 0.925120 0.503586
Si Si3 0.474141 0.895527 0.577677
Si Si4 0.000000 0.259583 0.250000
Si Si5 0.245553 0.363044 0.504094
O O1 0.250000 0.750000 0.500000
O O2 0.364370 0.615173 0.266471
O O3 0.411114 0.703936 0.470308
O O4 0.250181 0.617358 0.770227
O O5 0.829989 0.924204 0.487546
O O6 0.000000 0.000000 0.500000
O O7 0.000000 0.873887 0.250000
O O8 0.500000 0.868686 0.750000
O O9 0.537859 0.829492 0.353267
O O10 0.500000 0.000000 0.500000
O O11 0.355341 0.885651 0.739054
O O12 0.250000 0.250000 0.500000
#
# Coordination Sequence:
#
# PCOD9307667 Si02
#       5
#     8   8   8   4   8
#     4  12  25  49  84 117 157 216 283 348 416 513
#     4  12  31  52  78 123 172 220 275 359 442 513
#     4  12  27  48  75 114 159 205 265 343 418 493
#     4  12  24  44  78 110 150 204 274 326 410 494
#     4  12  26  51  83 121 159 218 285 344 420 521
#
# _framework density 26.26013
#
# number of rings (size 3 to 8) (size 9 to 14) (size 15 to 20)
#    0.000    0.000    5.556    2.667    4.667    1.778 
#    4.000    0.000    0.000    0.000    0.000    0.000 
#    0.000    0.000    0.000    0.000    0.000    0.000 
#
# Total GULP energy -100350.219669 kJ/mol
# GULP energy per Si atom -5575.012204 kJ/mol
# Density = 2.620036 g / cm^3
# Si number density = 26.260130 Si / 1000 Ang^3
#
#
#
# Elastic Constant Matrix: (Units=GPa)
#
#
# Indices 1 2 3 4 5 6 
#
# 1 116.3625 25.1461 25.1046 0.0000 3.3500 0.0000
# 2 25.1461 101.6984 54.6840 0.0000 -1.9277 0.0000
# 3 25.1046 54.6840 182.6142 0.0000 11.1841 0.0000
# 4 0.0000 0.0000 0.0000 45.0511 0.0000 -0.8799
# 5 3.3500 -1.9277 11.1841 0.0000 76.5103 0.0000
# 6 0.0000 0.0000 0.0000 -0.8799 0.0000 37.1877
#
#
#
# Elastic Compliance Matrix: (Units=1/GPa)
#
#
# Indices 1 2 3 4 5 6 
#
# 1 0.009161 -0.001915 -0.000665 0.000000 -0.000352 0.000000
# 2 -0.001915 0.012171 -0.003436 0.000000 0.000893 0.000000
# 3 -0.000665 -0.003436 0.006659 0.000000 -0.001031 0.000000
# 4 0.000000 0.000000 0.000000 0.022207 0.000000 0.000525
# 5 -0.000352 0.000893 -0.001031 0.000000 0.013259 0.000000
# 6 0.000000 0.000000 0.000000 0.000525 0.000000 0.026903
#
#
# Mechanical properties :
#
#
# Convention : Reuss Voigt Hill
#
# Bulk Modulus (GPa) = 62.65201 67.83827 65.24514
# Shear Modulus (GPa) = 46.42041 51.46583 48.94312
#
# Velocity S-wave (km/s) = 4.20898 4.43182 4.32184
# Velocity P-wave (km/s) = 6.89425 7.21646 7.05719
#
# Compressibility (1/GPa) = 0.01596118
#
# Stress axis : x y z
#
# Youngs Moduli (GPa) = 109.15744 82.16308 150.16246
#
# Poissons Ratio (x) = 0.15730 0.09979
# Poissons Ratio (y) = 0.20899 0.51597
# Poissons Ratio (z) = 0.07254 0.28232
#
# Static dielectric constant tensor:
#      x y z
#    x 2.357560 0.000000 -0.113050 
#    y 0.000000 2.355670 0.000000 
#    z -0.113050 0.000000 2.152970 
# 
# From -- ./inp_files/55578.got.cif
#   From: 2010.05.17/outbox.cif.g08.bks.cpg/sg15_28_cif.got.tgz:55578.got - 2010.06.03 18:47:42.
