data_PCOD9307822
_publ_section_title
;
Structure prediction by ZEFSAII (Michael W. Deem and Ramdas Pophale) SiO2 
 PCOD9307822
Probable space group: C 2/C
;
_chemical_formula_sum "Si O2"
_cell_formula_units_Z 36
_cell_length_a 22.031491
_cell_length_b 5.642870
_cell_length_c 14.657916
_cell_angle_alpha 90.000000
_cell_angle_beta 127.002784
_cell_angle_gamma 90.000000
_cell_volume 1455.287761
_symmetry_space_group_name_H-M "C 2/C"
_symmetry_group_IT_number 15
_symmetry_cell_setting 'monoclinic'
loop_
_space_group_symop_operation_xyz
x,y,z
-x,y,1/2-z
-x,-y,-z
x,-y,1/2+z
1/2+x,1/2+y,z
1/2-x,1/2+y,1/2-z
1/2-x,1/2-y,-z
1/2+x,1/2-y,1/2+z
loop_
_atom_site_type_symbol
_atom_site_label
_atom_site_fract_x
_atom_site_fract_y
_atom_site_fract_z
Si Si1 0.272880 0.845806 0.223865
Si Si2 0.094126 0.756614 0.762081
Si Si3 0.500000 0.912255 0.750000
Si Si4 0.191203 0.053148 0.985050
Si Si5 0.468186 0.447076 0.070844
O O1 0.256275 0.098631 0.258213
O O2 0.362656 0.818598 0.289565
O O3 0.240565 0.872977 0.091326
O O4 0.081653 0.541164 0.819356
O O5 0.143067 0.957531 0.855664
O O6 0.008602 0.836872 0.661713
O O7 0.497384 0.771120 0.842322
O O8 0.121301 0.090755 0.994209
O O9 0.250000 0.250000 0.000000
O O10 0.500000 0.500000 0.000000
#
# Coordination Sequence:
#
# PCOD9307822 Si02
#       5
#     8   8   4   8   8
#     4  12  29  49  77 119 164 209 279 347 414 503
#     4  12  26  50  77 111 158 219 269 335 420 497
#     4  12  24  48  80 110 162 204 278 336 410 490
#     4  12  25  51  80 114 163 219 274 340 428 499
#     4  12  27  48  79 116 161 212 276 340 414 497
#
# _framework density 24.737373000000002
#
# number of rings (size 3 to 8) (size 9 to 14) (size 15 to 20)
#    0.000    0.000    4.444    4.667    6.222    4.444 
#    0.000    0.000    0.000    0.000    0.000    0.000 
#    0.000    0.000    0.000    0.000    0.000    0.000 
#
# Total GULP energy -100348.803836 kJ/mol
# GULP energy per Si atom -5574.933546 kJ/mol
# Density = 2.468107 g / cm^3
# Si number density = 24.737373 Si / 1000 Ang^3
#
#
#
# Elastic Constant Matrix: (Units=GPa)
#
#
# Indices 1 2 3 4 5 6 
#
# 1 224.0760 94.3484 49.9788 0.0000 -17.9331 0.0000
# 2 94.3484 118.7245 23.3912 0.0002 -14.1249 -0.0001
# 3 49.9788 23.3912 87.0562 0.0000 -15.8948 0.0000
# 4 0.0000 0.0002 0.0000 11.2701 0.0001 -8.3481
# 5 -17.9331 -14.1249 -15.8948 0.0001 50.8491 0.0000
# 6 0.0000 -0.0001 0.0000 -8.3481 0.0000 62.0888
#
#
#
# Elastic Compliance Matrix: (Units=1/GPa)
#
#
# Indices 1 2 3 4 5 6 
#
# 1 0.007295 -0.005227 -0.002735 0.000000 0.000266 0.000000
# 2 -0.005227 0.012801 -0.000134 0.000000 0.001671 0.000000
# 3 -0.002735 -0.000134 0.013692 0.000000 0.003278 0.000000
# 4 0.000000 0.000000 0.000000 0.098545 0.000000 0.013250
# 5 0.000266 0.001671 0.003278 0.000000 0.021249 0.000000
# 6 0.000000 0.000000 0.000000 0.013250 0.000000 0.017887
#
#
# Mechanical properties :
#
#
# Convention : Reuss Voigt Hill
#
# Bulk Modulus (GPa) = 56.82926 85.03262 70.93094
# Shear Modulus (GPa) = 25.83642 42.31749 34.07696
#
# Velocity S-wave (km/s) = 3.23527 4.14051 3.71556
# Velocity P-wave (km/s) = 6.08102 7.57015 6.86608
#
# Compressibility (1/GPa) = 0.01759657
#
# Stress axis : x y z
#
# Youngs Moduli (GPa) = 137.08522 78.11603 73.03783
#
# Poissons Ratio (x) = 0.40827 0.19976
# Poissons Ratio (y) = 0.71648 0.00979
# Poissons Ratio (z) = 0.37493 0.01047
#
# Static dielectric constant tensor:
#      x y z
#    x 2.038320 0.000000 0.019570 
#    y 0.000000 2.174310 0.000000 
#    z 0.019570 0.000000 2.004050 
# 
# From -- ./inp_files/170665.got.cif
#   From: 2010.05.17/outbox.cif.g08.bks.cpg/sg15_86_cif.got.tgz:170665.got - 2010.06.03 18:47:42.
