data_PCOD9307730
_publ_section_title
;
Structure prediction by ZEFSAII (Michael W. Deem and Ramdas Pophale) SiO2 
 PCOD9307730
Probable space group: C 2/C
;
_chemical_formula_sum "Si O2"
_cell_formula_units_Z 24
_cell_length_a 10.544575
_cell_length_b 18.181299
_cell_length_c 7.450490
_cell_angle_alpha 90.000000
_cell_angle_beta 131.507971
_cell_angle_gamma 90.000000
_cell_volume 1069.649533
_symmetry_space_group_name_H-M "C 2/C"
_symmetry_group_IT_number 15
_symmetry_cell_setting 'monoclinic'
loop_
_space_group_symop_operation_xyz
x,y,z
-x,y,1/2-z
-x,-y,-z
x,-y,1/2+z
1/2+x,1/2+y,z
1/2-x,1/2+y,1/2-z
1/2-x,1/2-y,-z
1/2+x,1/2-y,1/2+z
loop_
_atom_site_type_symbol
_atom_site_label
_atom_site_fract_x
_atom_site_fract_y
_atom_site_fract_z
Si Si1 0.301327 0.666618 0.512710
Si Si2 0.331981 0.950246 0.341289
Si Si3 0.681044 0.409439 0.835884
O O1 0.250000 0.750000 0.500000
O O2 0.188540 0.611672 0.527508
O O3 0.274993 0.646677 0.279946
O O4 0.500000 0.655302 0.750000
O O5 0.695454 0.914862 0.378334
O O6 0.500000 0.000000 0.500000
O O7 0.186902 0.010365 0.248228
O O8 0.500000 0.392444 0.750000
#
# Coordination Sequence:
#
# PCOD9307730 Si02
#       3
#     8   8   8
#     4  12  29  50  74 110 160 205 258 326 391 457
#     4  12  26  45  78 116 147 198 263 321 387 468
#     4  12  24  46  76 106 149 199 255 316 384 461
#
# _framework density 22.437255
#
# number of rings (size 3 to 8) (size 9 to 14) (size 15 to 20)
#    0.000    0.000    6.667    3.000    4.667    1.333 
#    0.000    0.000    0.000    0.000    0.000    0.000 
#    0.000    0.000    0.000    0.000    0.000    0.000 
#
# Total GULP energy -67233.999326 kJ/mol
# GULP energy per Si atom -5602.833277 kJ/mol
# Density = 2.238619 g / cm^3
# Si number density = 22.437255 Si / 1000 Ang^3
#
#
#
# Elastic Constant Matrix: (Units=GPa)
#
#
# Indices 1 2 3 4 5 6 
#
# 1 193.3986 106.6528 102.7790 0.0000 -33.6475 0.0000
# 2 106.6528 172.0103 40.9003 0.0000 -16.0574 0.0000
# 3 102.7790 40.9003 154.8927 0.0000 -17.7464 0.0000
# 4 0.0000 0.0000 0.0000 27.2596 0.0000 -8.1207
# 5 -33.6475 -16.0574 -17.7464 0.0000 51.2388 0.0000
# 6 0.0000 0.0000 0.0000 -8.1207 0.0000 40.2224
#
#
#
# Elastic Compliance Matrix: (Units=1/GPa)
#
#
# Indices 1 2 3 4 5 6 
#
# 1 0.012420 -0.005831 -0.006223 0.000000 0.004173 0.000000
# 2 -0.005831 0.009044 0.001424 0.000000 -0.000502 0.000000
# 3 -0.006223 0.001424 0.010197 0.000000 -0.000109 0.000000
# 4 0.000000 0.000000 0.000000 0.039032 0.000000 0.007880
# 5 0.004173 -0.000502 -0.000109 0.000000 0.022062 0.000000
# 6 0.000000 0.000000 0.000000 0.007880 0.000000 0.026453
#
#
# Mechanical properties :
#
#
# Convention : Reuss Voigt Hill
#
# Bulk Modulus (GPa) = 96.16210 113.44066 104.80138
# Shear Modulus (GPa) = 34.73791 41.74214 38.24002
#
# Velocity S-wave (km/s) = 3.93902 4.31791 4.13281
# Velocity P-wave (km/s) = 7.97741 8.69068 8.34167
#
# Compressibility (1/GPa) = 0.01039911
#
# Stress axis : x y z
#
# Youngs Moduli (GPa) = 80.51707 110.57209 98.06759
#
# Poissons Ratio (x) = 0.64479 0.61029
# Poissons Ratio (y) = 0.46953 -0.13963
# Poissons Ratio (z) = 0.50107 -0.15743
#
# Static dielectric constant tensor:
#      x y z
#    x 1.853100 0.000000 0.035490 
#    y 0.000000 1.771960 0.000000 
#    z 0.035490 0.000000 1.898700 
# 
# From -- ./inp_files/21407.got.cif
#   From: 2010.05.17/outbox.cif.g08.bks.cpg/sg15_11_cif.got.tgz:21407.got - 2010.06.03 18:47:42.
