data_PCOD9307591
_publ_section_title
;
Structure prediction by ZEFSAII (Michael W. Deem and Ramdas Pophale) SiO2 
 PCOD9307591
Probable space group: C 2/C
;
_chemical_formula_sum "Si O2"
_cell_formula_units_Z 20
_cell_length_a 5.284492
_cell_length_b 37.960055
_cell_length_c 4.791314
_cell_angle_alpha 90.000000
_cell_angle_beta 120.081902
_cell_angle_gamma 90.000000
_cell_volume 831.680135
_symmetry_space_group_name_H-M "C 2/C"
_symmetry_group_IT_number 15
_symmetry_cell_setting 'monoclinic'
loop_
_space_group_symop_operation_xyz
x,y,z
-x,y,1/2-z
-x,-y,-z
x,-y,1/2+z
1/2+x,1/2+y,z
1/2-x,1/2+y,1/2-z
1/2-x,1/2-y,-z
1/2+x,1/2-y,1/2+z
loop_
_atom_site_type_symbol
_atom_site_label
_atom_site_fract_x
_atom_site_fract_y
_atom_site_fract_z
Si Si1 0.000000 0.575156 0.750000
Si Si2 0.500000 0.670172 0.750000
Si Si3 0.000000 0.224248 0.250000
Si Si4 0.500000 0.472308 0.250000
Si Si5 0.500000 0.120897 0.250000
O O1 0.768252 0.552479 0.801598
O O2 0.855150 0.597916 0.418837
O O3 0.447567 0.697243 0.469929
O O4 0.225729 0.644361 0.553424
O O5 0.250000 0.250000 0.500000
O O6 0.500000 0.500000 0.500000
#
# Coordination Sequence:
#
# PCOD9307591 Si02
#       5
#     4   4   4   4   4
#     4  12  26  46  74 108 148 197 249 310 375 447
#     4  12  25  45  70 104 144 192 244 304 368 440
#     4  12  24  43  69 102 142 190 242 302 366 438
#     4  12  25  46  73 108 147 194 247 308 373 446
#     4  12  26  46  72 106 147 195 248 308 372 445
#
# _framework density 24.047704
#
# number of rings (size 3 to 8) (size 9 to 14) (size 15 to 20)
#    0.000    0.000    0.000   10.800    0.000    3.200 
#    0.000    0.000    0.000    0.000    0.000    0.000 
#    0.000    0.000    0.000    0.000    0.000    0.000 
#
# Total GULP energy -55821.368640 kJ/mol
# GULP energy per Si atom -5582.136864 kJ/mol
# Density = 2.399297 g / cm^3
# Si number density = 24.047704 Si / 1000 Ang^3
#
#
#
# Elastic Constant Matrix: (Units=GPa)
#
#
# Indices 1 2 3 4 5 6 
#
# 1 152.7450 86.3657 71.4542 0.0000 -6.1178 0.0000
# 2 86.3657 142.3930 69.9365 0.0000 -1.1195 0.0000
# 3 71.4542 69.9365 168.9164 0.0000 -19.0574 0.0000
# 4 0.0000 0.0000 0.0000 32.7502 0.0000 8.2654
# 5 -6.1178 -1.1195 -19.0574 0.0000 67.3664 0.0000
# 6 0.0000 0.0000 0.0000 8.2654 0.0000 41.2724
#
#
#
# Elastic Compliance Matrix: (Units=1/GPa)
#
#
# Indices 1 2 3 4 5 6 
#
# 1 0.010631 -0.005336 -0.002261 0.000000 0.000237 0.000000
# 2 -0.005336 0.011548 -0.002642 0.000000 -0.001040 0.000000
# 3 -0.002261 -0.002642 0.008204 0.000000 0.002072 0.000000
# 4 0.000000 0.000000 0.000000 0.032160 0.000000 -0.006440
# 5 0.000237 -0.001040 0.002072 0.000000 0.015434 0.000000
# 6 0.000000 0.000000 0.000000 -0.006440 0.000000 0.025519
#
#
# Mechanical properties :
#
#
# Convention : Reuss Voigt Hill
#
# Bulk Modulus (GPa) = 100.94419 102.17414 101.55916
# Shear Modulus (GPa) = 39.28484 44.03100 41.65792
#
# Velocity S-wave (km/s) = 4.04619 4.28364 4.16661
# Velocity P-wave (km/s) = 7.99354 8.18819 8.09145
#
# Compressibility (1/GPa) = 0.00990646
#
# Stress axis : x y z
#
# Youngs Moduli (GPa) = 94.06429 86.59303 121.89060
#
# Poissons Ratio (x) = 0.46202 0.27563
# Poissons Ratio (y) = 0.50189 0.32199
# Poissons Ratio (z) = 0.21270 0.22875
#
# Static dielectric constant tensor:
#      x y z
#    x 1.963680 0.000000 0.051000 
#    y 0.000000 2.086030 0.000000 
#    z 0.051000 0.000000 1.879370 
# 
# From -- ./inp_files/620.got.cif
#   From: 2010.05.17/outbox.cif.g08.bks.cpg/sg15_1_cif.got.tgz:620.got - 2010.06.03 18:47:42.
