data_PCOD9307602
_publ_section_title
;
Structure prediction by ZEFSAII (Michael W. Deem and Ramdas Pophale) SiO2 
 PCOD9307602
Probable space group: C 2/C
;
_chemical_formula_sum "Si O2"
_cell_formula_units_Z 28
_cell_length_a 11.767406
_cell_length_b 23.100010
_cell_length_c 4.874216
_cell_angle_alpha 90.000000
_cell_angle_beta 129.731654
_cell_angle_gamma 90.000000
_cell_volume 1018.943960
_symmetry_space_group_name_H-M "C 2/C"
_symmetry_group_IT_number 15
_symmetry_cell_setting 'monoclinic'
loop_
_space_group_symop_operation_xyz
x,y,z
-x,y,1/2-z
-x,-y,-z
x,-y,1/2+z
1/2+x,1/2+y,z
1/2-x,1/2+y,1/2-z
1/2-x,1/2-y,-z
1/2+x,1/2-y,1/2+z
loop_
_atom_site_type_symbol
_atom_site_label
_atom_site_fract_x
_atom_site_fract_y
_atom_site_fract_z
Si Si1 0.336604 0.732596 0.861022
Si Si2 0.500000 0.375038 0.750000
Si Si3 0.500000 0.901879 0.250000
Si Si4 0.500000 0.183263 0.250000
Si Si5 0.809660 0.961410 0.809297
O O1 0.356544 0.776639 0.619380
O O2 0.500000 0.750024 0.250000
O O3 0.250000 0.750000 0.000000
O O4 0.381921 0.664855 0.901489
O O5 0.406849 0.411201 0.825672
O O6 0.464645 0.860296 0.450393
O O7 0.641223 0.940840 0.529724
O O8 0.835849 0.017551 0.657617
#
# Coordination Sequence:
#
# PCOD9307602 Si02
#       5
#     8   4   4   4   8
#     4  12  26  45  71 109 153 197 245 306 387 473
#     4  12  27  48  77 110 153 202 251 324 388 450
#     4  12  25  47  76 106 150 203 253 320 390 454
#     4  12  24  43  71 106 143 191 250 304 372 470
#     4  12  27  48  73 107 147 199 262 321 380 451
#
# _framework density 27.479431999999999
#
# number of rings (size 3 to 8) (size 9 to 14) (size 15 to 20)
#    0.000    0.000    0.000   11.143    0.000    6.857 
#    0.000    0.000    0.000    0.000    0.000    0.000 
#    0.000    0.000    0.000    0.000    0.000    0.000 
#
# Total GULP energy -78503.013643 kJ/mol
# GULP energy per Si atom -5607.358117 kJ/mol
# Density = 2.741689 g / cm^3
# Si number density = 27.479432 Si / 1000 Ang^3
#
#
#
# Elastic Constant Matrix: (Units=GPa)
#
#
# Indices 1 2 3 4 5 6 
#
# 1 226.9605 58.4826 44.5763 0.0000 30.1515 0.0000
# 2 58.4826 117.5426 32.9341 0.0000 17.1785 0.0000
# 3 44.5763 32.9341 157.9291 0.0000 -9.3838 0.0000
# 4 0.0000 0.0000 0.0000 67.6760 0.0000 21.2659
# 5 30.1515 17.1785 -9.3838 0.0000 52.6349 0.0000
# 6 0.0000 0.0000 0.0000 21.2659 0.0000 48.9939
#
#
#
# Elastic Compliance Matrix: (Units=1/GPa)
#
#
# Indices 1 2 3 4 5 6 
#
# 1 0.005543 -0.001986 -0.001314 0.000000 -0.002761 0.000000
# 2 -0.001986 0.010360 -0.001752 0.000000 -0.002556 0.000000
# 3 -0.001314 -0.001752 0.007223 0.000000 0.002612 0.000000
# 4 0.000000 0.000000 0.000000 0.017110 0.000000 -0.007427
# 5 -0.002761 -0.002556 0.002612 0.000000 0.021881 0.000000
# 6 0.000000 0.000000 0.000000 -0.007427 0.000000 0.023634
#
#
# Mechanical properties :
#
#
# Convention : Reuss Voigt Hill
#
# Bulk Modulus (GPa) = 76.79284 86.04647 81.41966
# Shear Modulus (GPa) = 49.90223 58.29025 54.09624
#
# Velocity S-wave (km/s) = 4.26606 4.61068 4.44171
# Velocity P-wave (km/s) = 7.22993 7.72823 7.48323
#
# Compressibility (1/GPa) = 0.01302205
#
# Stress axis : x y z
#
# Youngs Moduli (GPa) = 180.41496 96.52510 138.43717
#
# Poissons Ratio (x) = 0.19169 0.18196
# Poissons Ratio (y) = 0.35829 0.24251
# Poissons Ratio (z) = 0.23714 0.16909
#
# Static dielectric constant tensor:
#      x y z
#    x 2.321910 0.000000 0.128660 
#    y 0.000000 2.165120 0.000000 
#    z 0.128660 0.000000 2.709610 
# 
# From -- ./inp_files/3748.got.cif
#   From: 2010.05.17/outbox.cif.g08.bks.cpg/sg15_2_cif.got.tgz:3748.got - 2010.06.03 18:47:42.
