data_PCOD9307286
_publ_section_title
;
Structure prediction by ZEFSAII (Michael W. Deem and Ramdas Pophale) SiO2 
 PCOD9307286
Probable space group: C 2/C
;
_chemical_formula_sum "Si O2"
_cell_formula_units_Z 40
_cell_length_a 12.425314
_cell_length_b 29.114117
_cell_length_c 9.062619
_cell_angle_alpha 90.000000
_cell_angle_beta 143.717088
_cell_angle_gamma 90.000000
_cell_volume 1940.080322
_symmetry_space_group_name_H-M "C 2/C"
_symmetry_group_IT_number 15
_symmetry_cell_setting 'monoclinic'
loop_
_space_group_symop_operation_xyz
x,y,z
-x,y,1/2-z
-x,-y,-z
x,-y,1/2+z
1/2+x,1/2+y,z
1/2-x,1/2+y,1/2-z
1/2-x,1/2-y,-z
1/2+x,1/2-y,1/2+z
loop_
_atom_site_type_symbol
_atom_site_label
_atom_site_fract_x
_atom_site_fract_y
_atom_site_fract_z
Si Si1 0.812197 0.725386 0.222893
Si Si2 0.193836 0.098243 0.762381
Si Si3 0.509764 0.688580 0.436601
Si Si4 0.000000 0.347235 0.750000
Si Si5 0.128507 0.528770 0.752406
Si Si6 0.500000 0.474081 0.250000
O O1 0.664679 0.697937 0.153529
O O2 0.962251 0.687732 0.342868
O O3 0.871402 0.767276 0.389469
O O4 0.750000 0.750000 0.000000
O O5 0.314507 0.074320 0.770917
O O6 0.087273 0.140467 0.576579
O O7 0.064750 0.059491 0.689912
O O8 0.327221 0.120557 0.031507
O O9 0.500000 0.687351 0.250000
O O10 0.000000 0.537379 0.750000
O O11 0.000000 0.500000 0.500000
O O12 0.318841 0.503204 0.006763
#
# Coordination Sequence:
#
# PCOD9307286 Si02
#       6
#     8   8   8   4   8   4
#     4  12  22  45  71  97 143 195 238 281 362 445
#     4  12  26  43  73 109 140 185 247 302 359 437
#     4  12  26  42  68 107 144 182 234 306 365 419
#     4  12  24  43  74 104 138 188 248 295 346 444
#     4  12  27  50  75 106 144 195 244 302 379 443
#     4  12  26  49  78 102 152 196 244 305 372 448
#
# _framework density 20.617704
#
# number of rings (size 3 to 8) (size 9 to 14) (size 15 to 20)
#    0.000    0.000    6.000    3.600    1.400    1.600 
#    0.000    1.000    0.000    0.000    0.000    0.000 
#    0.000    0.000    0.000    0.000    0.000    0.000 
#
# Total GULP energy -111786.274163 kJ/mol
# GULP energy per Si atom -5589.313708 kJ/mol
# Density = 2.057078 g / cm^3
# Si number density = 20.617704 Si / 1000 Ang^3
#
#
#
# Elastic Constant Matrix: (Units=GPa)
#
#
# Indices 1 2 3 4 5 6 
#
# 1 136.3284 29.5985 19.1532 0.0000 6.7546 0.0000
# 2 29.5985 99.6058 19.9856 0.0000 12.6479 0.0000
# 3 19.1532 19.9856 75.5753 0.0000 5.4468 0.0000
# 4 0.0000 0.0000 0.0000 -65.7144 0.0000 -41.4895
# 5 6.7546 12.6479 5.4468 0.0000 33.9905 0.0000
# 6 0.0000 0.0000 0.0000 -41.4895 0.0000 -27.0999
#
#
#
# Elastic Compliance Matrix: (Units=1/GPa)
#
#
# Indices 1 2 3 4 5 6 
#
# 1 0.008006 -0.002010 -0.001453 0.000000 -0.000610 0.000000
# 2 -0.002010 0.011544 -0.002289 0.000000 -0.003529 0.000000
# 3 -0.001453 -0.002289 0.014288 0.000000 -0.001149 0.000000
# 4 0.000000 0.000000 0.000000 -0.455672 0.000000 0.697626
# 5 -0.000610 -0.003529 -0.001149 0.000000 0.031039 0.000000
# 6 0.000000 0.000000 0.000000 0.697626 0.000000 -1.104955
#
#
# Mechanical properties :
#
#
# Convention : Reuss Voigt Hill
#
# Bulk Modulus (GPa) = 44.77547 49.88712 47.33129
# Shear Modulus (GPa) = -3.38570 4.42005 0.51718
#
# Velocity S-wave (km/s) = -1.28285 1.46577 0.50138
# Velocity P-wave (km/s) = 4.42379 5.20705 4.83132
#
# Compressibility (1/GPa) = 0.02233366
#
# Stress axis : x y z
#
# Youngs Moduli (GPa) = 124.90558 86.62276 69.98712
#
# Poissons Ratio (x) = 0.17411 0.10173
# Poissons Ratio (y) = 0.25105 0.16021
# Poissons Ratio (z) = 0.18155 0.19829
#
# Static dielectric constant tensor:
#      x y z
#    x 1.831240 0.000000 0.238840 
#    y 0.000000 1.618450 0.000000 
#    z 0.238840 0.000000 2.103390 
# 
# From -- ./inp_files/35505.got.cif
#   From: 2010.05.17/outbox.cif.g08.bks.cpg/sg15_18_cif.got.tgz:35505.got - 2010.06.03 18:47:42.
