data_PCOD9307168
_publ_section_title
;
Structure prediction by ZEFSAII (Michael W. Deem and Ramdas Pophale) SiO2 
 PCOD9307168
Probable space group: C 2/C
;
_chemical_formula_sum "Si O2"
_cell_formula_units_Z 44
_cell_length_a 11.345190
_cell_length_b 20.591325
_cell_length_c 12.310758
_cell_angle_alpha 90.000000
_cell_angle_beta 45.235115
_cell_angle_gamma 90.000000
_cell_volume 2041.929346
_symmetry_space_group_name_H-M "C 2/C"
_symmetry_group_IT_number 15
_symmetry_cell_setting 'monoclinic'
loop_
_space_group_symop_operation_xyz
x,y,z
-x,y,1/2-z
-x,-y,-z
x,-y,1/2+z
1/2+x,1/2+y,z
1/2-x,1/2+y,1/2-z
1/2-x,1/2-y,-z
1/2+x,1/2-y,1/2+z
loop_
_atom_site_type_symbol
_atom_site_label
_atom_site_fract_x
_atom_site_fract_y
_atom_site_fract_z
Si Si1 0.197616 0.412808 0.602567
Si Si2 0.670604 0.453803 0.429165
Si Si3 0.500000 0.242130 0.750000
Si Si4 0.630970 0.061898 0.905228
Si Si5 0.857440 0.628391 0.964088
Si Si6 0.624149 0.355481 0.818396
O O1 0.327932 0.471133 0.540364
O O2 0.197263 0.408454 0.473531
O O3 0.259160 0.358650 0.649679
O O4 0.000000 0.426735 0.750000
O O5 0.718967 0.455416 0.271757
O O6 0.824143 0.428180 0.400985
O O7 0.528961 0.403662 0.557560
O O8 0.362640 0.194125 0.891246
O O9 0.560692 0.286998 0.810939
O O10 0.531824 0.118452 0.908632
O O11 0.500000 0.000000 0.000000
O O12 0.728231 0.620973 0.146237
#
# Coordination Sequence:
#
# PCOD9307168 Si02
#       6
#     8   8   4   8   8   8
#     4  12  24  43  70 105 148 192 227 291 369 433
#     4  12  23  42  70 109 140 185 238 299 361 419
#     4  12  26  46  78 104 140 190 254 296 346 424
#     4  12  22  40  72 103 143 189 236 282 360 439
#     4  12  22  44  74 103 134 190 242 290 350 423
#     4  12  27  43  69 108 144 183 241 301 352 415
#
# _framework density 21.548248000000001
#
# number of rings (size 3 to 8) (size 9 to 14) (size 15 to 20)
#    0.000    0.000    9.091    1.091    0.000    0.727 
#    3.273    0.909    0.000    0.000    0.000    0.000 
#    0.000    0.000    0.000    0.000    0.000    0.000 
#
# Total GULP energy -122632.419707 kJ/mol
# GULP energy per Si atom -5574.200896 kJ/mol
# Density = 2.149920 g / cm^3
# Si number density = 21.548248 Si / 1000 Ang^3
#
#
#
# Elastic Constant Matrix: (Units=GPa)
#
#
# Indices 1 2 3 4 5 6 
#
# 1 108.8984 36.5737 55.9213 0.0000 36.2648 0.0000
# 2 36.5737 88.1308 20.7286 0.0000 12.7688 0.0000
# 3 55.9213 20.7286 137.6176 0.0000 15.4497 0.0000
# 4 0.0000 0.0000 0.0000 27.8250 0.0000 2.5870
# 5 36.2648 12.7688 15.4497 0.0000 50.8101 0.0000
# 6 0.0000 0.0000 0.0000 2.5870 0.0000 33.3936
#
#
#
# Elastic Compliance Matrix: (Units=1/GPa)
#
#
# Indices 1 2 3 4 5 6 
#
# 1 0.016096 -0.004233 -0.004900 0.000000 -0.008935 0.000000
# 2 -0.004233 0.013192 -0.000242 0.000000 -0.000221 0.000000
# 3 -0.004900 -0.000242 0.009209 0.000000 0.000758 0.000000
# 4 0.000000 0.000000 0.000000 0.036200 0.000000 -0.002804
# 5 -0.008935 -0.000221 0.000758 0.000000 0.025883 0.000000
# 6 0.000000 0.000000 0.000000 -0.002804 0.000000 0.030163
#
#
# Mechanical properties :
#
#
# Convention : Reuss Voigt Hill
#
# Bulk Modulus (GPa) = 50.64038 62.34378 56.49208
# Shear Modulus (GPa) = 32.03570 37.16730 34.60150
#
# Velocity S-wave (km/s) = 3.85995 4.15763 4.01155
# Velocity P-wave (km/s) = 6.58920 7.21407 6.90870
#
# Compressibility (1/GPa) = 0.01974709
#
# Stress axis : x y z
#
# Youngs Moduli (GPa) = 62.12686 75.80184 108.58855
#
# Poissons Ratio (x) = 0.32085 0.53209
# Poissons Ratio (y) = 0.26297 0.02631
# Poissons Ratio (z) = 0.30443 0.01837
#
# Static dielectric constant tensor:
#      x y z
#    x 1.858250 0.000000 -0.055160 
#    y 0.000000 1.811590 0.000000 
#    z -0.055160 0.000000 1.851960 
# 
# From -- ./inp_files/90232.got.cif
#   From: 2010.05.17/outbox.cif.g08.bks.cpg/sg15_46_cif.got.tgz:90232.got - 2010.06.03 18:47:42.
