data_PCOD9307630
_publ_section_title
;
Structure prediction by ZEFSAII (Michael W. Deem and Ramdas Pophale) SiO2 
 PCOD9307630
Probable space group: C 2/C
;
_chemical_formula_sum "Si O2"
_cell_formula_units_Z 32
_cell_length_a 17.335284
_cell_length_b 4.795425
_cell_length_c 15.171622
_cell_angle_alpha 90.000000
_cell_angle_beta 98.306001
_cell_angle_gamma 90.000000
_cell_volume 1247.988424
_symmetry_space_group_name_H-M "C 2/C"
_symmetry_group_IT_number 15
_symmetry_cell_setting 'monoclinic'
loop_
_space_group_symop_operation_xyz
x,y,z
-x,y,1/2-z
-x,-y,-z
x,-y,1/2+z
1/2+x,1/2+y,z
1/2-x,1/2+y,1/2-z
1/2-x,1/2-y,-z
1/2+x,1/2-y,1/2+z
loop_
_atom_site_type_symbol
_atom_site_label
_atom_site_fract_x
_atom_site_fract_y
_atom_site_fract_z
Si Si1 0.518212 0.060257 0.901488
Si Si2 0.825153 0.645376 0.153865
Si Si3 0.584512 0.599690 0.670525
Si Si4 0.229705 0.674816 0.096827
O O1 0.462472 0.317502 0.860996
O O2 0.610292 0.007024 0.898486
O O3 0.484767 0.813316 0.839550
O O4 0.500000 0.000000 0.000000
O O5 0.868598 0.838761 0.232185
O O6 0.778794 0.367546 0.174221
O O7 0.757130 0.854338 0.108532
O O8 0.642805 0.720535 0.604722
O O9 0.250000 0.750000 0.000000
#
# Coordination Sequence:
#
# PCOD9307630 Si02
#       4
#     8   8   8   8
#     4  12  25  45  69 101 139 186 238 294 360 440
#     4  12  25  43  68 100 138 183 234 296 361 428
#     4  12  25  44  69 101 139 184 236 298 363 434
#     4  12  24  44  69 100 137 183 235 296 362 434
#
# _framework density 25.641264
#
# number of rings (size 3 to 8) (size 9 to 14) (size 15 to 20)
#    0.000    0.000    0.000   11.250    0.000    2.000 
#    0.000    0.000    0.000    0.000    0.000    0.000 
#    0.000    0.000    0.000    0.000    0.000    0.000 
#
# Total GULP energy -89143.106642 kJ/mol
# GULP energy per Si atom -5571.444165 kJ/mol
# Density = 2.558290 g / cm^3
# Si number density = 25.641264 Si / 1000 Ang^3
#
#
#
# Elastic Constant Matrix: (Units=GPa)
#
#
# Indices 1 2 3 4 5 6 
#
# 1 195.4217 103.0777 37.0779 0.0000 -38.9066 0.0000
# 2 103.0777 221.9439 55.2331 0.0000 7.7679 0.0000
# 3 37.0779 55.2331 118.6834 0.0000 -23.5466 0.0000
# 4 0.0000 0.0000 0.0000 36.8392 0.0000 17.7476
# 5 -38.9066 7.7679 -23.5466 0.0000 53.2318 0.0000
# 6 0.0000 0.0000 0.0000 17.7476 0.0000 80.6482
#
#
#
# Elastic Compliance Matrix: (Units=1/GPa)
#
#
# Indices 1 2 3 4 5 6 
#
# 1 0.008886 -0.004606 0.000866 0.000000 0.007550 0.000000
# 2 -0.004606 0.007679 -0.003316 0.000000 -0.005954 0.000000
# 3 0.000866 -0.003316 0.010874 0.000000 0.005927 0.000000
# 4 0.000000 0.000000 0.000000 0.030364 0.000000 -0.006682
# 5 0.007550 -0.005954 0.005927 0.000000 0.027794 0.000000
# 6 0.000000 0.000000 0.000000 -0.006682 0.000000 0.013870
#
#
# Mechanical properties :
#
#
# Convention : Reuss Voigt Hill
#
# Bulk Modulus (GPa) = 75.04396 102.98072 89.01234
# Shear Modulus (GPa) = 42.36525 56.85453 49.60989
#
# Velocity S-wave (km/s) = 4.06917 4.71394 4.40337
# Velocity P-wave (km/s) = 7.16993 8.35928 7.78735
#
# Compressibility (1/GPa) = 0.01332552
#
# Stress axis : x y z
#
# Youngs Moduli (GPa) = 112.54083 130.23352 91.96074
#
# Poissons Ratio (x) = 0.59991 -0.07960
# Poissons Ratio (y) = 0.51841 0.30490
# Poissons Ratio (z) = -0.09741 0.43180
#
# Static dielectric constant tensor:
#      x y z
#    x 2.066100 0.000000 -0.060340 
#    y 0.000000 1.943150 0.000000 
#    z -0.060340 0.000000 2.081450 
# 
# From -- ./inp_files/158227.got.cif
#   From: 2010.05.17/outbox.cif.g08.bks.cpg/sg15_80_cif.got.tgz:158227.got - 2010.06.03 18:47:42.
