data_PCOD9307552
_publ_section_title
;
Structure prediction by ZEFSAII (Michael W. Deem and Ramdas Pophale) SiO2 
 PCOD9307552
Probable space group: C 2/C
;
_chemical_formula_sum "Si O2"
_cell_formula_units_Z 48
_cell_length_a 6.258932
_cell_length_b 14.208390
_cell_length_c 24.421993
_cell_angle_alpha 90.000000
_cell_angle_beta 118.397883
_cell_angle_gamma 90.000000
_cell_volume 1910.486985
_symmetry_space_group_name_H-M "C 2/C"
_symmetry_group_IT_number 15
_symmetry_cell_setting 'monoclinic'
loop_
_space_group_symop_operation_xyz
x,y,z
-x,y,1/2-z
-x,-y,-z
x,-y,1/2+z
1/2+x,1/2+y,z
1/2-x,1/2+y,1/2-z
1/2-x,1/2-y,-z
1/2+x,1/2-y,1/2+z
loop_
_atom_site_type_symbol
_atom_site_label
_atom_site_fract_x
_atom_site_fract_y
_atom_site_fract_z
Si Si1 0.896558 0.702068 0.374859
Si Si2 0.160114 0.065728 0.429532
Si Si3 0.250000 0.250000 0.500000
Si Si4 0.763507 0.141938 0.574443
Si Si5 0.129959 0.426401 0.824306
Si Si6 0.500000 0.217025 0.750000
Si Si7 0.753829 0.921109 0.197764
O O1 0.842179 0.621267 0.411333
O O2 0.651829 0.724610 0.312360
O O3 0.005978 0.794922 0.416139
O O4 0.084439 0.667379 0.352846
O O5 0.128336 0.143045 0.472699
O O6 0.911815 0.052215 0.364195
O O7 0.239951 0.960520 0.454067
O O8 0.516819 0.199391 0.538219
O O9 0.794224 0.121606 0.643147
O O10 0.000000 0.415879 0.750000
O O11 0.973216 0.509162 0.832673
O O12 0.318969 0.153845 0.764297
O O13 0.000000 0.968730 0.250000
#
# Coordination Sequence:
#
# PCOD9307552 Si02
#       7
#     8   8   4   8   8   4   8
#     4  12  26  45  73 111 157 199 248 309 378 459
#     4  12  27  53  75 110 148 198 258 316 384 444
#     4  12  28  52  80 106 144 202 270 318 370 450
#     4  12  26  51  75 110 151 198 255 315 381 447
#     4  12  25  44  74 115 155 195 249 305 379 470
#     4  12  24  38  70 112 156 202 236 300 374 468
#     4  12  24  45  72 114 156 199 246 303 388 465
#
# _framework density 25.124486999999998
#
# number of rings (size 3 to 8) (size 9 to 14) (size 15 to 20)
#    0.000    0.000    5.833    4.500    3.500    0.667 
#    0.000    4.167    0.000    0.000    0.000    0.000 
#    0.000    0.000    0.000    0.000    0.000    0.000 
#
# Total GULP energy -133970.113602 kJ/mol
# GULP energy per Si atom -5582.088067 kJ/mol
# Density = 2.506730 g / cm^3
# Si number density = 25.124487 Si / 1000 Ang^3
#
#
#
# Elastic Constant Matrix: (Units=GPa)
#
#
# Indices 1 2 3 4 5 6 
#
# 1 58.5264 44.0689 39.0633 0.0000 19.0513 0.0000
# 2 44.0689 200.0878 41.0125 0.0000 21.6762 0.0000
# 3 39.0633 41.0125 111.7216 0.0000 33.9845 0.0000
# 4 0.0000 0.0000 0.0000 35.0043 0.0000 15.6061
# 5 19.0513 21.6762 33.9845 0.0000 48.9873 0.0000
# 6 0.0000 0.0000 0.0000 15.6061 0.0000 40.5620
#
#
#
# Elastic Compliance Matrix: (Units=1/GPa)
#
#
# Indices 1 2 3 4 5 6 
#
# 1 0.025482 -0.003905 -0.006321 0.000000 -0.003797 0.000000
# 2 -0.003905 0.006068 -0.000643 0.000000 -0.000720 0.000000
# 3 -0.006321 -0.000643 0.013388 0.000000 -0.006545 0.000000
# 4 0.000000 0.000000 0.000000 0.034483 0.000000 -0.013267
# 5 -0.003797 -0.000720 -0.006545 0.000000 0.026749 0.000000
# 6 0.000000 0.000000 0.000000 -0.013267 0.000000 0.029758
#
#
# Mechanical properties :
#
#
# Convention : Reuss Voigt Hill
#
# Bulk Modulus (GPa) = 43.10587 68.73612 55.92100
# Shear Modulus (GPa) = 30.22989 41.32348 35.77669
#
# Velocity S-wave (km/s) = 3.47249 4.05995 3.77766
# Velocity P-wave (km/s) = 5.76816 7.02817 6.42911
#
# Compressibility (1/GPa) = 0.02319870
#
# Stress axis : x y z
#
# Youngs Moduli (GPa) = 39.24364 164.80611 74.69425
#
# Poissons Ratio (x) = 0.64363 0.47215
# Poissons Ratio (y) = 0.15326 0.04802
# Poissons Ratio (z) = 0.24806 0.10595
#
# Static dielectric constant tensor:
#      x y z
#    x 2.028420 0.000000 -0.047180 
#    y 0.000000 2.012840 0.000000 
#    z -0.047180 0.000000 2.037520 
# 
# From -- ./inp_files/305507.got.cif
#   From: 2010.05.17/outbox.cif.g08.bks.cpg/sg15_153_cif.got.tgz:305507.got - 2010.06.03 18:47:42.
