data_PCOD9307250
_publ_section_title
;
Structure prediction by ZEFSAII (Michael W. Deem and Ramdas Pophale) SiO2 
 PCOD9307250
Probable space group: C 2/C
;
_chemical_formula_sum "Si O2"
_cell_formula_units_Z 40
_cell_length_a 12.905441
_cell_length_b 22.942516
_cell_length_c 7.940638
_cell_angle_alpha 90.000000
_cell_angle_beta 47.275728
_cell_angle_gamma 90.000000
_cell_volume 1727.174909
_symmetry_space_group_name_H-M "C 2/C"
_symmetry_group_IT_number 15
_symmetry_cell_setting 'monoclinic'
loop_
_space_group_symop_operation_xyz
x,y,z
-x,y,1/2-z
-x,-y,-z
x,-y,1/2+z
1/2+x,1/2+y,z
1/2-x,1/2+y,1/2-z
1/2-x,1/2-y,-z
1/2+x,1/2-y,1/2+z
loop_
_atom_site_type_symbol
_atom_site_label
_atom_site_fract_x
_atom_site_fract_y
_atom_site_fract_z
Si Si1 0.000000 0.737463 0.750000
Si Si2 0.170140 0.652732 0.373193
Si Si3 0.742040 0.419548 0.210660
Si Si4 0.000000 0.647580 0.250000
Si Si5 0.991615 0.173260 0.951365
Si Si6 0.156685 0.466494 0.047060
O O1 0.006309 0.779513 0.582669
O O2 0.130380 0.692480 0.578269
O O3 0.129582 0.585419 0.444885
O O4 0.080648 0.677675 0.315815
O O5 0.333113 0.651283 0.151709
O O6 0.605789 0.378495 0.345923
O O7 0.780986 0.434448 0.359352
O O8 0.738514 0.482895 0.126353
O O9 0.872592 0.386801 0.979544
O O10 0.000000 0.195589 0.750000
O O11 0.000000 0.491911 0.250000
#
# Coordination Sequence:
#
# PCOD9307250 Si02
#       6
#     4   8   8   4   8   8
#     4  12  28  53  82 110 152 219 266 318 378 472
#     4  12  26  49  80 113 154 201 270 323 387 462
#     4  12  25  45  74 114 156 203 260 316 392 467
#     4  12  22  43  76 110 150 207 256 314 386 470
#     4  12  29  51  76 116 162 202 258 329 397 456
#     4  12  23  44  77 114 151 206 259 320 380 469
#
# _framework density 23.159206000000001
#
# number of rings (size 3 to 8) (size 9 to 14) (size 15 to 20)
#    0.000    0.000    6.000    3.600    1.400    3.200 
#    0.000    0.000    0.000    0.000    0.000    0.000 
#    0.000    0.000    0.000    0.000    0.000    0.000 
#
# Total GULP energy -111868.738792 kJ/mol
# GULP energy per Si atom -5593.436940 kJ/mol
# Density = 2.310649 g / cm^3
# Si number density = 23.159206 Si / 1000 Ang^3
#
#
#
# Elastic Constant Matrix: (Units=GPa)
#
#
# Indices 1 2 3 4 5 6 
#
# 1 121.3636 78.6672 70.5765 0.0000 9.1571 0.0000
# 2 78.6672 122.1928 79.4404 0.0000 -15.0017 0.0000
# 3 70.5765 79.4404 151.9422 0.0000 -12.3134 0.0000
# 4 0.0000 0.0000 0.0000 46.2856 0.0000 -15.2327
# 5 9.1571 -15.0017 -12.3134 0.0000 35.7997 0.0000
# 6 0.0000 0.0000 0.0000 -15.2327 0.0000 47.2596
#
#
#
# Elastic Compliance Matrix: (Units=1/GPa)
#
#
# Indices 1 2 3 4 5 6 
#
# 1 0.017873 -0.010337 -0.003723 0.000000 -0.010184 0.000000
# 2 -0.010337 0.018708 -0.004249 0.000000 0.009022 0.000000
# 3 -0.003723 -0.004249 0.010765 0.000000 0.002875 0.000000
# 4 0.000000 0.000000 0.000000 0.024169 0.000000 0.007790
# 5 -0.010184 0.009022 0.002875 0.000000 0.035307 0.000000
# 6 0.000000 0.000000 0.000000 0.007790 0.000000 0.023671
#
#
# Mechanical properties :
#
#
# Convention : Reuss Voigt Hill
#
# Bulk Modulus (GPa) = 93.19824 94.76298 93.98061
# Shear Modulus (GPa) = 29.29334 36.98995 33.14164
#
# Velocity S-wave (km/s) = 3.56036 4.00084 3.78701
# Velocity P-wave (km/s) = 7.56514 7.89615 7.73241
#
# Compressibility (1/GPa) = 0.01072982
#
# Stress axis : x y z
#
# Youngs Moduli (GPa) = 55.94958 53.45191 92.89167
#
# Poissons Ratio (x) = 0.55251 0.34584
# Poissons Ratio (y) = 0.57833 0.39469
# Poissons Ratio (z) = 0.20830 0.22711
#
# Static dielectric constant tensor:
#      x y z
#    x 2.037030 0.000000 0.035120 
#    y 0.000000 1.886530 0.000000 
#    z 0.035120 0.000000 1.872100 
# 
# From -- ./inp_files/41969.got.cif
#   From: 2010.05.17/outbox.cif.g08.bks.cpg/sg15_21_cif.got.tgz:41969.got - 2010.06.03 18:47:42.
