data_PCOD9307423
_publ_section_title
;
Structure prediction by ZEFSAII (Michael W. Deem and Ramdas Pophale) SiO2 
 PCOD9307423
Probable space group: C 2/C
;
_chemical_formula_sum "Si O2"
_cell_formula_units_Z 36
_cell_length_a 14.440796
_cell_length_b 19.437291
_cell_length_c 7.635391
_cell_angle_alpha 90.000000
_cell_angle_beta 141.795535
_cell_angle_gamma 90.000000
_cell_volume 1325.490236
_symmetry_space_group_name_H-M "C 2/C"
_symmetry_group_IT_number 15
_symmetry_cell_setting 'monoclinic'
loop_
_space_group_symop_operation_xyz
x,y,z
-x,y,1/2-z
-x,-y,-z
x,-y,1/2+z
1/2+x,1/2+y,z
1/2-x,1/2+y,1/2-z
1/2-x,1/2-y,-z
1/2+x,1/2-y,1/2+z
loop_
_atom_site_type_symbol
_atom_site_label
_atom_site_fract_x
_atom_site_fract_y
_atom_site_fract_z
Si Si1 0.500000 0.666239 0.750000
Si Si2 0.000000 0.492706 0.750000
Si Si3 0.500000 0.347028 0.750000
Si Si4 0.511060 0.229098 0.524424
Si Si5 0.291431 0.110977 0.107011
Si Si6 0.698972 0.106095 0.961232
O O1 0.408354 0.719086 0.491198
O O2 0.383782 0.621135 0.683362
O O3 0.862932 0.438469 0.568567
O O4 0.922605 0.547862 0.773170
O O5 0.431420 0.288363 0.519426
O O6 0.636208 0.391231 0.875049
O O7 0.390855 0.179870 0.254779
O O8 0.620798 0.178158 0.792133
O O9 0.290486 0.091706 0.314198
#
# Coordination Sequence:
#
# PCOD9307423 Si02
#       6
#     4   4   4   8   8   8
#     4  12  27  45  74 119 151 180 242 308 376 422
#     4  12  28  50  76  98 146 204 260 288 358 428
#     4  12  23  43  80 111 145 180 240 306 370 426
#     4  12  23  47  78 111 149 188 237 299 377 439
#     4  12  25  49  73 110 149 195 241 305 357 439
#     4  12  25  48  78 107 146 198 244 299 358 443
#
# _framework density 27.159763999999999
#
# number of rings (size 3 to 8) (size 9 to 14) (size 15 to 20)
#    0.000    0.000    6.667    4.000    0.000    2.667 
#    0.000    2.222    0.000    0.000    0.000    0.000 
#    0.000    0.000    0.000    0.000    0.000    0.000 
#
# Total GULP energy -100341.930917 kJ/mol
# GULP energy per Si atom -5574.551718 kJ/mol
# Density = 2.709795 g / cm^3
# Si number density = 27.159764 Si / 1000 Ang^3
#
#
#
# Elastic Constant Matrix: (Units=GPa)
#
#
# Indices 1 2 3 4 5 6 
#
# 1 215.5412 99.7927 58.1231 0.0000 64.5386 0.0000
# 2 99.7927 130.1989 43.4621 0.0000 30.6645 0.0000
# 3 58.1231 43.4621 97.7107 0.0000 36.0359 0.0000
# 4 0.0000 0.0000 0.0000 12.9546 0.0000 6.0921
# 5 64.5386 30.6645 36.0359 0.0000 62.9505 0.0000
# 6 0.0000 0.0000 0.0000 6.0921 0.0000 46.6302
#
#
#
# Elastic Compliance Matrix: (Units=1/GPa)
#
#
# Indices 1 2 3 4 5 6 
#
# 1 0.009228 -0.005303 -0.000753 0.000000 -0.006447 0.000000
# 2 -0.005303 0.012433 -0.002722 0.000000 0.000939 0.000000
# 3 -0.000753 -0.002722 0.014095 0.000000 -0.005971 0.000000
# 4 0.000000 0.000000 0.000000 0.082246 0.000000 -0.010745
# 5 -0.006447 0.000939 -0.005971 0.000000 0.025455 0.000000
# 6 0.000000 0.000000 0.000000 -0.010745 0.000000 0.022849
#
#
# Mechanical properties :
#
#
# Convention : Reuss Voigt Hill
#
# Bulk Modulus (GPa) = 54.94566 94.02295 74.48431
# Shear Modulus (GPa) = 26.32566 40.64527 33.48546
#
# Velocity S-wave (km/s) = 3.11672 3.87269 3.51509
# Velocity P-wave (km/s) = 5.76423 7.39531 6.63012
#
# Compressibility (1/GPa) = 0.01819980
#
# Stress axis : x y z
#
# Youngs Moduli (GPa) = 108.36314 80.43191 70.94787
#
# Poissons Ratio (x) = 0.42657 0.05341
# Poissons Ratio (y) = 0.57470 0.19310
# Poissons Ratio (z) = 0.08158 0.21891
#
# Static dielectric constant tensor:
#      x y z
#    x 2.357440 0.000000 -0.450300 
#    y 0.000000 2.085970 0.000000 
#    z -0.450300 0.000000 2.722420 
# 
# From -- ./inp_files/30614.got.cif
#   From: 2010.05.17/outbox.cif.g08.bks.cpg/sg15_16_cif.got.tgz:30614.got - 2010.06.03 18:47:42.
