data_PCOD9307007
_publ_section_title
;
Structure prediction by ZEFSAII (Michael W. Deem and Ramdas Pophale) SiO2 
 PCOD9307007
Probable space group: C 2/C
;
_chemical_formula_sum "Si O2"
_cell_formula_units_Z 56
_cell_length_a 27.034686
_cell_length_b 24.261864
_cell_length_c 8.919266
_cell_angle_alpha 90.000000
_cell_angle_beta 148.736220
_cell_angle_gamma 90.000000
_cell_volume 3036.157336
_symmetry_space_group_name_H-M "C 2/C"
_symmetry_group_IT_number 15
_symmetry_cell_setting 'monoclinic'
loop_
_space_group_symop_operation_xyz
x,y,z
-x,y,1/2-z
-x,-y,-z
x,-y,1/2+z
1/2+x,1/2+y,z
1/2-x,1/2+y,1/2-z
1/2-x,1/2-y,-z
1/2+x,1/2-y,1/2+z
loop_
_atom_site_type_symbol
_atom_site_label
_atom_site_fract_x
_atom_site_fract_y
_atom_site_fract_z
Si Si1 0.500000 0.234144 0.250000
Si Si2 0.668966 0.382393 0.394579
Si Si3 0.008109 0.814581 0.525477
Si Si4 0.690334 0.197224 0.400059
Si Si5 0.699614 0.803258 0.286223
Si Si6 0.157620 0.112544 0.223516
Si Si7 0.423868 0.508861 0.932029
Si Si8 0.000000 0.734505 0.750000
O O1 0.462446 0.274171 0.283252
O O2 0.588590 0.200528 0.540829
O O3 0.757793 0.354590 0.543667
O O4 0.666221 0.377853 0.567920
O O5 0.652814 0.445161 0.306067
O O6 0.573111 0.349284 0.103606
O O7 0.077241 0.853385 0.608219
O O8 0.052324 0.774126 0.763651
O O9 0.750000 0.250000 0.500000
O O10 0.700600 0.196602 0.607158
O O11 0.582448 0.202790 0.055515
O O12 0.750000 0.750000 0.500000
O O13 0.747763 0.859858 0.464222
O O14 0.127893 0.048786 0.165037
O O15 0.500000 0.529564 0.250000
O O16 0.500000 0.500000 0.000000
#
# Coordination Sequence:
#
# PCOD9307007 Si02
#       8
#     4   8   8   8   8   8   8   4
#     4  12  22  40  62  90 130 172 208 254 314 386
#     4  12  25  40  61  91 130 166 209 263 313 378
#     4  12  21  36  61  89 127 167 207 254 316 381
#     4  12  25  40  60  95 127 169 213 261 319 373
#     4  12  25  39  64  91 128 171 212 259 316 383
#     4  12  24  41  60  91 127 170 209 256 318 381
#     4  12  25  41  65  92 125 168 210 259 321 378
#     4  12  26  40  60  94 132 168 210 270 316 380
#
# _framework density 18.444367
#
# number of rings (size 3 to 8) (size 9 to 14) (size 15 to 20)
#    0.000    0.000    8.571    1.714    5.000    0.000 
#    0.000    0.000    0.000    0.857    0.000    4.000 
#    0.000    0.000    0.000    0.000    0.000    0.000 
#
# Total GULP energy -156218.489862 kJ/mol
# GULP energy per Si atom -5579.231781 kJ/mol
# Density = 1.840239 g / cm^3
# Si number density = 18.444367 Si / 1000 Ang^3
#
#
#
# Elastic Constant Matrix: (Units=GPa)
#
#
# Indices 1 2 3 4 5 6 
#
# 1 93.0602 48.8656 43.4818 0.0000 -13.0160 0.0000
# 2 48.8656 102.6037 54.7473 0.0000 3.6541 0.0000
# 3 43.4818 54.7473 125.2276 0.0000 0.7688 0.0000
# 4 0.0000 0.0000 0.0000 32.8178 0.0000 3.4441
# 5 -13.0160 3.6541 0.7688 0.0000 41.8009 0.0000
# 6 0.0000 0.0000 0.0000 3.4441 0.0000 24.4288
#
#
#
# Elastic Compliance Matrix: (Units=1/GPa)
#
#
# Indices 1 2 3 4 5 6 
#
# 1 0.016246 -0.006405 -0.002876 0.000000 0.005671 0.000000
# 2 -0.006405 0.015279 -0.004436 0.000000 -0.003248 0.000000
# 3 -0.002876 -0.004436 0.010928 0.000000 -0.000709 0.000000
# 4 0.000000 0.000000 0.000000 0.030929 0.000000 -0.004361
# 5 0.005671 -0.003248 -0.000709 0.000000 0.025986 0.000000
# 6 0.000000 0.000000 0.000000 -0.004361 0.000000 0.041550
#
#
# Mechanical properties :
#
#
# Convention : Reuss Voigt Hill
#
# Bulk Modulus (GPa) = 66.57877 68.34234 67.46055
# Shear Modulus (GPa) = 28.84227 31.39595 30.11911
#
# Velocity S-wave (km/s) = 3.95871 4.13025 4.04539
# Velocity P-wave (km/s) = 7.55451 7.73815 7.64688
#
# Compressibility (1/GPa) = 0.01501980
#
# Stress axis : x y z
#
# Youngs Moduli (GPa) = 61.55475 65.44867 91.51111
#
# Poissons Ratio (x) = 0.41918 0.26315
# Poissons Ratio (y) = 0.39424 0.40594
# Poissons Ratio (z) = 0.17701 0.29033
#
# Static dielectric constant tensor:
#      x y z
#    x 1.659240 0.000000 -0.012770 
#    y 0.000000 1.639440 0.000000 
#    z -0.012770 0.000000 1.657610 
# 
# From -- ./inp_files/51613.got.cif
#   From: 2010.05.17/outbox.cif.g08.bks.cpg/sg15_26_cif.got.tgz:51613.got - 2010.06.03 18:47:42.
