data_PCOD9307304
_publ_section_title
;
Structure prediction by ZEFSAII (Michael W. Deem and Ramdas Pophale) SiO2 
 PCOD9307304
Probable space group: C 2/C
;
_chemical_formula_sum "Si O2"
_cell_formula_units_Z 52
_cell_length_a 24.577776
_cell_length_b 9.716105
_cell_length_c 11.819387
_cell_angle_alpha 90.000000
_cell_angle_beta 128.635688
_cell_angle_gamma 90.000000
_cell_volume 2204.722883
_symmetry_space_group_name_H-M "C 2/C"
_symmetry_group_IT_number 15
_symmetry_cell_setting 'monoclinic'
loop_
_space_group_symop_operation_xyz
x,y,z
-x,y,1/2-z
-x,-y,-z
x,-y,1/2+z
1/2+x,1/2+y,z
1/2-x,1/2+y,1/2-z
1/2-x,1/2-y,-z
1/2+x,1/2-y,1/2+z
loop_
_atom_site_type_symbol
_atom_site_label
_atom_site_fract_x
_atom_site_fract_y
_atom_site_fract_z
Si Si1 0.000000 0.081155 0.250000
Si Si2 0.615476 0.702611 0.062643
Si Si3 0.738835 0.170839 0.868217
Si Si4 0.905520 0.049117 0.810397
Si Si5 0.387158 0.755893 0.965490
Si Si6 0.463845 0.973992 0.578376
Si Si7 0.783757 0.108567 0.504093
O O1 0.059064 0.178917 0.380778
O O2 0.040399 0.984883 0.215857
O O3 0.670518 0.775600 0.217880
O O4 0.584674 0.570872 0.085566
O O5 0.561230 0.817545 0.956462
O O6 0.659087 0.648153 0.014078
O O7 0.750000 0.250000 0.000000
O O8 0.808862 0.205407 0.888132
O O9 0.734605 0.007879 0.887698
O O10 0.827031 0.038296 0.661042
O O11 0.909347 0.197951 0.872045
O O12 0.399787 0.917164 0.994640
O O13 0.500000 0.997283 0.750000
O O14 0.500000 0.000000 0.500000
O O15 0.750000 0.250000 0.500000
#
# Coordination Sequence:
#
# PCOD9307304 Si02
#       7
#     4   8   8   8   8   8   8
#     4  12  22  46  76 108 150 198 262 320 386 476
#     4  12  28  50  78 116 156 204 267 330 403 478
#     4  12  26  48  80 110 154 207 260 329 403 475
#     4  12  25  49  74 115 148 204 261 324 394 475
#     4  12  26  48  77 110 156 203 263 322 398 474
#     4  12  32  55  82 118 163 216 270 331 409 483
#     4  12  28  47  74 114 154 197 258 324 401 475
#
# _framework density 23.585729000000001
#
# number of rings (size 3 to 8) (size 9 to 14) (size 15 to 20)
#    0.000    0.000    5.385    2.308   10.769    1.231 
#    1.385    0.000    0.000    0.000    0.000    0.000 
#    0.000    0.000    0.000    0.000    0.000    0.000 
#
# Total GULP energy -145656.351912 kJ/mol
# GULP energy per Si atom -5602.167381 kJ/mol
# Density = 2.353205 g / cm^3
# Si number density = 23.585729 Si / 1000 Ang^3
#
#
#
# Elastic Constant Matrix: (Units=GPa)
#
#
# Indices 1 2 3 4 5 6 
#
# 1 83.4370 13.7428 -4.3482 0.0000 -26.8770 0.0000
# 2 13.7428 124.5560 1.9585 0.0000 -7.1106 0.0000
# 3 -4.3482 1.9585 81.8584 0.0000 3.8420 0.0000
# 4 0.0000 0.0000 0.0000 40.8078 0.0000 12.9305
# 5 -26.8770 -7.1106 3.8420 0.0000 41.9227 0.0000
# 6 0.0000 0.0000 0.0000 12.9305 0.0000 37.8601
#
#
#
# Elastic Compliance Matrix: (Units=1/GPa)
#
#
# Indices 1 2 3 4 5 6 
#
# 1 0.015274 -0.001146 0.000390 0.000000 0.009563 0.000000
# 2 -0.001146 0.008198 -0.000289 0.000000 0.000683 0.000000
# 3 0.000390 -0.000289 0.012287 0.000000 -0.000925 0.000000
# 4 0.000000 0.000000 0.000000 0.027479 0.000000 -0.009385
# 5 0.009563 0.000683 -0.000925 0.000000 0.030185 0.000000
# 6 0.000000 0.000000 0.000000 -0.009385 0.000000 0.029618
#
#
# Mechanical properties :
#
#
# Convention : Reuss Voigt Hill
#
# Bulk Modulus (GPa) = 29.69926 34.72862 32.21394
# Shear Modulus (GPa) = 36.66910 42.68469 39.67689
#
# Velocity S-wave (km/s) = 3.94727 4.25875 4.10596
# Velocity P-wave (km/s) = 5.77875 6.24011 6.01386
#
# Compressibility (1/GPa) = 0.03367087
#
# Stress axis : x y z
#
# Youngs Moduli (GPa) = 65.46910 121.97467 81.38513
#
# Poissons Ratio (x) = 0.13972 -0.03174
# Poissons Ratio (y) = 0.07500 0.02352
# Poissons Ratio (z) = -0.02553 0.03526
#
# Static dielectric constant tensor:
#      x y z
#    x 1.867480 0.000000 0.008850 
#    y 0.000000 1.834860 0.000000 
#    z 0.008850 0.000000 1.959330 
# 
# From -- ./inp_files/122071.got.cif
#   From: 2010.05.17/outbox.cif.g08.bks.cpg/sg15_62_cif.got.tgz:122071.got - 2010.06.03 18:47:42.
