data_PCOD9307327
_publ_section_title
;
Structure prediction by ZEFSAII (Michael W. Deem and Ramdas Pophale) SiO2 
 PCOD9307327
Probable space group: C 2/C
;
_chemical_formula_sum "Si O2"
_cell_formula_units_Z 52
_cell_length_a 18.760714
_cell_length_b 19.695780
_cell_length_c 14.302432
_cell_angle_alpha 90.000000
_cell_angle_beta 155.131057
_cell_angle_gamma 90.000000
_cell_volume 2222.511283
_symmetry_space_group_name_H-M "C 2/C"
_symmetry_group_IT_number 15
_symmetry_cell_setting 'monoclinic'
loop_
_space_group_symop_operation_xyz
x,y,z
-x,y,1/2-z
-x,-y,-z
x,-y,1/2+z
1/2+x,1/2+y,z
1/2-x,1/2+y,1/2-z
1/2-x,1/2-y,-z
1/2+x,1/2-y,1/2+z
loop_
_atom_site_type_symbol
_atom_site_label
_atom_site_fract_x
_atom_site_fract_y
_atom_site_fract_z
Si Si1 0.000000 0.505472 0.250000
Si Si2 0.787115 0.388649 0.934103
Si Si3 0.832774 0.477124 0.740509
Si Si4 0.670038 0.830368 0.705484
Si Si5 0.920136 0.066082 0.953000
Si Si6 0.699853 0.683734 0.497887
Si Si7 0.198452 0.684945 0.665243
O O1 0.882319 0.536006 0.191389
O O2 0.126464 0.461331 0.465813
O O3 0.859501 0.337988 0.941982
O O4 0.586129 0.391695 0.678812
O O5 0.806762 0.370674 0.066324
O O6 0.756745 0.405099 0.685828
O O7 0.695145 0.535691 0.599955
O O8 0.000000 0.500000 0.000000
O O9 0.763187 0.758820 0.831976
O O10 0.499816 0.828011 0.563417
O O11 0.801848 0.118609 0.753770
O O12 0.000000 0.000000 0.000000
O O13 0.500000 0.673269 0.250000
O O14 0.750000 0.750000 0.500000
O O15 0.745509 0.689015 0.659579
#
# Coordination Sequence:
#
# PCOD9307327 Si02
#       7
#     4   8   8   8   8   8   8
#     4  12  26  42  68  92 136 176 222 284 330 394
#     4  12  23  39  62  96 132 175 213 269 334 407
#     4  12  24  46  67  99 131 178 227 276 334 397
#     4  12  24  42  64  95 133 172 223 266 341 400
#     4  12  23  41  68  97 135 174 228 273 330 408
#     4  12  23  33  51  85 130 167 204 248 321 402
#     4  12  24  39  60  94 131 174 215 274 329 405
#
# _framework density 23.396957
#
# number of rings (size 3 to 8) (size 9 to 14) (size 15 to 20)
#    0.000    0.000    7.692    3.692    1.077    0.000 
#    0.000    0.000    0.000    0.923    0.000    0.000 
#    0.000    0.000    0.000    0.000    0.000    0.000 
#
# Total GULP energy -145156.201887 kJ/mol
# GULP energy per Si atom -5582.930842 kJ/mol
# Density = 2.334370 g / cm^3
# Si number density = 23.396957 Si / 1000 Ang^3
#
#
#
# Elastic Constant Matrix: (Units=GPa)
#
#
# Indices 1 2 3 4 5 6 
#
# 1 105.7311 31.6854 0.9813 0.0000 15.9767 0.0000
# 2 31.6854 135.0218 1.8710 0.0000 18.2219 0.0000
# 3 0.9813 1.8710 47.1280 0.0000 28.7879 0.0000
# 4 0.0000 0.0000 0.0000 27.1240 0.0000 17.7511
# 5 15.9767 18.2219 28.7879 0.0000 25.1025 0.0000
# 6 0.0000 0.0000 0.0000 17.7511 0.0000 52.7863
#
#
#
# Elastic Compliance Matrix: (Units=1/GPa)
#
#
# Indices 1 2 3 4 5 6 
#
# 1 0.013487 0.000461 0.017193 0.000000 -0.028636 0.000000
# 2 0.000461 0.010417 0.014609 0.000000 -0.024609 0.000000
# 3 0.017193 0.014609 0.111672 0.000000 -0.149614 0.000000
# 4 0.000000 0.000000 0.000000 0.047271 0.000000 -0.015896
# 5 -0.028636 -0.024609 -0.149614 0.000000 0.247505 0.000000
# 6 0.000000 0.000000 0.000000 -0.015896 0.000000 0.024290
#
#
# Mechanical properties :
#
#
# Convention : Reuss Voigt Hill
#
# Bulk Modulus (GPa) = 4.99743 39.66180 22.32962
# Shear Modulus (GPa) = 10.94535 37.89212 24.41874
#
# Velocity S-wave (km/s) = 2.16524 4.02871 3.23410
# Velocity P-wave (km/s) = 2.89682 6.21523 4.84875
#
# Compressibility (1/GPa) = 0.20010277
#
# Stress axis : x y z
#
# Youngs Moduli (GPa) = 74.14396 96.00034 8.95483
#
# Poissons Ratio (x) = -0.04429 -0.15396
# Poissons Ratio (y) = -0.03421 -0.13082
# Poissons Ratio (z) = -1.27477 -1.40248
#
# Static dielectric constant tensor:
#      x y z
#    x 1.984310 0.000000 0.015800 
#    y 0.000000 1.983050 0.000000 
#    z 0.015800 0.000000 1.905790 
# 
# From -- ./inp_files/163647.got.cif
#   From: 2010.05.17/outbox.cif.g08.bks.cpg/sg15_82_cif.got.tgz:163647.got - 2010.06.03 18:47:42.
