data_PCOD9307234
_publ_section_title
;
Structure prediction by ZEFSAII (Michael W. Deem and Ramdas Pophale) SiO2 
 PCOD9307234
Probable space group: C 2/C
;
_chemical_formula_sum "Si O2"
_cell_formula_units_Z 32
_cell_length_a 20.845928
_cell_length_b 6.621590
_cell_length_c 21.835949
_cell_angle_alpha 90.000000
_cell_angle_beta 26.914479
_cell_angle_gamma 90.000000
_cell_volume 1364.356189
_symmetry_space_group_name_H-M "C 2/C"
_symmetry_group_IT_number 15
_symmetry_cell_setting 'monoclinic'
loop_
_space_group_symop_operation_xyz
x,y,z
-x,y,1/2-z
-x,-y,-z
x,-y,1/2+z
1/2+x,1/2+y,z
1/2-x,1/2+y,1/2-z
1/2-x,1/2-y,-z
1/2+x,1/2-y,1/2+z
loop_
_atom_site_type_symbol
_atom_site_label
_atom_site_fract_x
_atom_site_fract_y
_atom_site_fract_z
Si Si1 0.070720 0.393857 0.079162
Si Si2 0.351035 0.211208 0.235654
Si Si3 0.632053 0.374045 0.410608
Si Si4 0.884374 0.057648 0.303846
O O1 0.002308 0.608818 0.121002
O O2 0.966214 0.257768 0.209821
O O3 0.085028 0.278176 0.002670
O O4 0.232156 0.409267 0.965131
O O5 0.317205 0.259219 0.193553
O O6 0.347344 0.413656 0.278200
O O7 0.241740 0.033845 0.344997
O O8 0.500000 0.500000 0.500000
O O9 0.000000 0.957016 0.250000
#
# Coordination Sequence:
#
# PCOD9307234 Si02
#       4
#     8   8   8   8
#     4  12  25  49  72 106 144 182 241 299 353 422
#     4  12  25  45  73 106 146 184 234 293 358 423
#     4  12  22  43  71 104 142 182 230 288 359 422
#     4  12  28  48  73 104 142 194 242 290 350 420
#
# _framework density 23.454284999999999
#
# number of rings (size 3 to 8) (size 9 to 14) (size 15 to 20)
#    0.000    0.000    5.000    6.000    0.000    2.000 
#    0.000    0.000    0.000    0.000    0.000    0.000 
#    0.000    0.000    0.000    0.000    0.000    0.000 
#
# Total GULP energy -89559.337826 kJ/mol
# GULP energy per Si atom -5597.458614 kJ/mol
# Density = 2.340090 g / cm^3
# Si number density = 23.454285 Si / 1000 Ang^3
#
#
#
# Elastic Constant Matrix: (Units=GPa)
#
#
# Indices 1 2 3 4 5 6 
#
# 1 77.7105 3.9937 11.3656 -0.0008 -17.9928 0.0002
# 2 3.9937 69.2788 34.4298 -0.0027 -3.3382 0.0012
# 3 11.3656 34.4298 100.7112 -0.0021 -48.4365 0.0006
# 4 -0.0008 -0.0027 -0.0021 43.2289 -0.0006 -8.4158
# 5 -17.9928 -3.3382 -48.4365 -0.0006 41.0391 0.0011
# 6 0.0002 0.0012 0.0006 -8.4158 0.0011 28.4970
#
#
#
# Elastic Compliance Matrix: (Units=1/GPa)
#
#
# Indices 1 2 3 4 5 6 
#
# 1 0.015217 -0.003015 0.005560 0.000000 0.012989 0.000000
# 2 -0.003015 0.021580 -0.015794 0.000000 -0.018207 0.000000
# 3 0.005560 -0.015794 0.035285 0.000001 0.042798 -0.000001
# 4 0.000000 0.000000 0.000001 0.024544 0.000002 0.007248
# 5 0.012989 -0.018207 0.042798 0.000002 0.079094 -0.000003
# 6 0.000000 0.000000 -0.000001 0.007248 -0.000003 0.037232
#
#
# Mechanical properties :
#
#
# Convention : Reuss Voigt Hill
#
# Bulk Modulus (GPa) = 21.93662 38.58651 30.26156
# Shear Modulus (GPa) = 19.63525 35.74709 27.69117
#
# Velocity S-wave (km/s) = 2.89653 3.90823 3.43978
# Velocity P-wave (km/s) = 4.53429 6.07068 5.35784
#
# Compressibility (1/GPa) = 0.04558588
#
# Stress axis : x y z
#
# Youngs Moduli (GPa) = 65.71404 46.33895 28.34068
#
# Poissons Ratio (x) = 0.13970 -0.15759
# Poissons Ratio (y) = 0.19811 0.44761
# Poissons Ratio (z) = -0.36540 0.73188
#
# Static dielectric constant tensor:
#      x y z
#    x 1.954150 0.000000 0.023010 
#    y 0.000000 1.887220 0.000000 
#    z 0.023010 0.000000 1.965270 
# 
# From -- ./inp_files/109019.got.cif
#   From: 2010.05.17/outbox.cif.g08.bks.cpg/sg15_55_cif.got.tgz:109019.got - 2010.06.03 18:47:42.
