data_PCOD9307467
_publ_section_title
;
Structure prediction by ZEFSAII (Michael W. Deem and Ramdas Pophale) SiO2 
 PCOD9307467
Probable space group: C 2/C
;
_chemical_formula_sum "Si O2"
_cell_formula_units_Z 44
_cell_length_a 20.334272
_cell_length_b 6.435664
_cell_length_c 15.276290
_cell_angle_alpha 90.000000
_cell_angle_beta 74.759975
_cell_angle_gamma 90.000000
_cell_volume 1928.821684
_symmetry_space_group_name_H-M "C 2/C"
_symmetry_group_IT_number 15
_symmetry_cell_setting 'monoclinic'
loop_
_space_group_symop_operation_xyz
x,y,z
-x,y,1/2-z
-x,-y,-z
x,-y,1/2+z
1/2+x,1/2+y,z
1/2-x,1/2+y,1/2-z
1/2-x,1/2-y,-z
1/2+x,1/2-y,1/2+z
loop_
_atom_site_type_symbol
_atom_site_label
_atom_site_fract_x
_atom_site_fract_y
_atom_site_fract_z
Si Si1 0.500000 0.692147 0.250000
Si Si2 0.645576 0.766990 0.511452
Si Si3 0.507227 0.399263 0.091062
Si Si4 0.391154 0.900465 0.619251
Si Si5 0.360436 0.056115 0.818164
Si Si6 0.724563 0.625858 0.924193
O O1 0.478845 0.544927 0.176894
O O2 0.567663 0.821907 0.200032
O O3 0.587201 0.625872 0.575261
O O4 0.654001 0.931891 0.586914
O O5 0.703833 0.610119 0.458004
O O6 0.618143 0.893996 0.436499
O O7 0.468343 0.180620 0.099660
O O8 0.500000 0.500000 0.000000
O O9 0.368096 0.927593 0.726877
O O10 0.344228 0.727673 0.589609
O O11 0.286792 0.166054 0.834989
O O12 0.750000 0.750000 0.000000
#
# Coordination Sequence:
#
# PCOD9307467 Si02
#       6
#     4   8   8   8   8   8
#     4  12  26  48  74 112 146 196 244 316 370 440
#     4  12  25  50  72 107 149 191 242 311 368 443
#     4  12  23  45  75 103 144 186 243 300 370 442
#     4  12  27  45  74 112 140 197 249 297 380 443
#     4  12  27  45  75 103 150 190 249 301 370 449
#     4  12  27  48  72 106 146 199 242 308 372 437
#
# _framework density 22.811855000000001
#
# number of rings (size 3 to 8) (size 9 to 14) (size 15 to 20)
#    0.000    0.000    3.636    6.545    2.545    0.000 
#    0.000    0.000    0.000    0.000    0.000    0.000 
#    0.000    0.000    0.000    0.000    0.000    0.000 
#
# Total GULP energy -122897.627483 kJ/mol
# GULP energy per Si atom -5586.255795 kJ/mol
# Density = 2.275993 g / cm^3
# Si number density = 22.811855 Si / 1000 Ang^3
#
#
#
# Elastic Constant Matrix: (Units=GPa)
#
#
# Indices 1 2 3 4 5 6 
#
# 1 88.1980 34.2954 30.7823 0.0000 -25.5945 0.0000
# 2 34.2954 95.0707 45.1859 0.0000 -3.9883 0.0000
# 3 30.7823 45.1859 115.5842 0.0000 -1.5829 0.0000
# 4 0.0000 0.0000 0.0000 51.2818 0.0000 -1.0943
# 5 -25.5945 -3.9883 -1.5829 0.0000 54.6599 0.0000
# 6 0.0000 0.0000 0.0000 -1.0943 0.0000 49.1642
#
#
#
# Elastic Compliance Matrix: (Units=1/GPa)
#
#
# Indices 1 2 3 4 5 6 
#
# 1 0.015912 -0.004268 -0.002472 0.000000 0.007068 0.000000
# 2 -0.004268 0.014099 -0.004390 0.000000 -0.001097 0.000000
# 3 -0.002472 -0.004390 0.011010 0.000000 -0.001159 0.000000
# 4 0.000000 0.000000 0.000000 0.019509 0.000000 0.000434
# 5 0.007068 -0.001097 -0.001159 0.000000 0.021491 0.000000
# 6 0.000000 0.000000 0.000000 0.000434 0.000000 0.020350
#
#
# Mechanical properties :
#
#
# Convention : Reuss Voigt Hill
#
# Bulk Modulus (GPa) = 53.30556 57.70891 55.50723
# Shear Modulus (GPa) = 38.20155 43.59380 40.89767
#
# Velocity S-wave (km/s) = 4.09667 4.37626 4.23877
# Velocity P-wave (km/s) = 6.76721 7.13360 6.95282
#
# Compressibility (1/GPa) = 0.01875977
#
# Stress axis : x y z
#
# Youngs Moduli (GPa) = 62.84703 70.92846 90.82340
#
# Poissons Ratio (x) = 0.30275 0.22453
# Poissons Ratio (y) = 0.26826 0.39871
# Poissons Ratio (z) = 0.15537 0.31137
#
# Static dielectric constant tensor:
#      x y z
#    x 2.615740 0.000000 -0.560920 
#    y 0.000000 2.039170 0.000000 
#    z -0.560920 0.000000 2.239680 
# 
# From -- ./inp_files/212823.got.cif
#   From: 2010.05.17/outbox.cif.g08.bks.cpg/sg15_107_cif.got.tgz:212823.got - 2010.06.03 18:47:42.
