data_PCOD9307419
_publ_section_title
;
Structure prediction by ZEFSAII (Michael W. Deem and Ramdas Pophale) SiO2 
 PCOD9307419
Probable space group: C 2/C
;
_chemical_formula_sum "Si O2"
_cell_formula_units_Z 64
_cell_length_a 27.041074
_cell_length_b 17.008239
_cell_length_c 12.805150
_cell_angle_alpha 90.000000
_cell_angle_beta 28.153455
_cell_angle_gamma 90.000000
_cell_volume 2778.803302
_symmetry_space_group_name_H-M "C 2/C"
_symmetry_group_IT_number 15
_symmetry_cell_setting 'monoclinic'
loop_
_space_group_symop_operation_xyz
x,y,z
-x,y,1/2-z
-x,-y,-z
x,-y,1/2+z
1/2+x,1/2+y,z
1/2-x,1/2+y,1/2-z
1/2-x,1/2-y,-z
1/2+x,1/2-y,1/2+z
loop_
_atom_site_type_symbol
_atom_site_label
_atom_site_fract_x
_atom_site_fract_y
_atom_site_fract_z
Si Si1 0.203418 0.199452 0.489497
Si Si2 0.931841 0.920321 0.974512
Si Si3 0.202077 0.208432 0.874210
Si Si4 0.287477 0.558684 0.304836
Si Si5 0.556585 0.808421 0.299385
Si Si6 0.137022 0.415160 0.898151
Si Si7 0.678388 0.925267 0.217918
Si Si8 0.016918 0.843729 0.012915
O O1 0.250000 0.250000 0.500000
O O2 0.222383 0.249622 0.349065
O O3 0.275115 0.123291 0.339457
O O4 0.084951 0.170737 0.726885
O O5 0.000000 0.948655 0.750000
O O6 0.888516 0.834966 0.022866
O O7 0.992348 0.908882 0.969835
O O8 0.838396 0.980255 0.165015
O O9 0.261009 0.137815 0.823475
O O10 0.144474 0.267325 0.061728
O O11 0.187041 0.576854 0.420046
O O12 0.258226 0.545566 0.479736
O O13 0.375706 0.627075 0.134375
O O14 0.599395 0.874743 0.296607
O O15 0.528720 0.736928 0.428088
O O16 0.542114 0.852953 0.069003
O O17 0.122661 0.503607 0.882396
#
# Coordination Sequence:
#
# PCOD9307419 Si02
#       8
#     8   8   8   8   8   8   8   8
#     4  12  26  46  76 109 154 197 255 319 394 463
#     4  12  23  43  76 112 155 198 260 323 396 467
#     4  12  25  49  81 118 151 213 266 324 396 487
#     4  12  28  46  75 113 161 202 261 330 402 471
#     4  12  26  52  80 112 155 212 268 317 398 491
#     4  12  28  50  76 114 158 204 254 328 401 467
#     4  12  27  50  80 115 156 206 268 331 394 486
#     4  12  26  46  75 113 149 203 263 328 389 471
#
# _framework density 23.031497000000002
#
# number of rings (size 3 to 8) (size 9 to 14) (size 15 to 20)
#    0.000    0.000    6.250    2.625    3.500    2.500 
#    0.000    0.000    0.000    0.000    0.000    0.000 
#    0.000    0.000    0.000    0.000    0.000    0.000 
#
# Total GULP energy -179150.275990 kJ/mol
# GULP energy per Si atom -5598.446125 kJ/mol
# Density = 2.297908 g / cm^3
# Si number density = 23.031497 Si / 1000 Ang^3
#
#
#
# Elastic Constant Matrix: (Units=GPa)
#
#
# Indices 1 2 3 4 5 6 
#
# 1 99.7490 42.0731 19.7517 0.0000 9.0662 0.0000
# 2 42.0731 142.0324 31.4716 0.0000 13.1962 0.0000
# 3 19.7517 31.4716 114.2795 0.0000 18.6063 0.0000
# 4 0.0000 0.0000 0.0000 13.9723 0.0000 -19.8218
# 5 9.0662 13.1962 18.6063 0.0000 25.4616 0.0000
# 6 0.0000 0.0000 0.0000 -19.8218 0.0000 43.1370
#
#
#
# Elastic Compliance Matrix: (Units=1/GPa)
#
#
# Indices 1 2 3 4 5 6 
#
# 1 0.011673 -0.003089 -0.000852 0.000000 -0.001933 0.000000
# 2 -0.003089 0.008483 -0.001436 0.000000 -0.002247 0.000000
# 3 -0.000852 -0.001436 0.010355 0.000000 -0.006519 0.000000
# 4 0.000000 0.000000 0.000000 0.205589 0.000000 0.094470
# 5 -0.001933 -0.002247 -0.006519 0.000000 0.045891 0.000000
# 6 0.000000 0.000000 0.000000 0.094470 0.000000 0.066591
#
#
# Mechanical properties :
#
#
# Convention : Reuss Voigt Hill
#
# Bulk Modulus (GPa) = 50.62098 60.29486 55.45792
# Shear Modulus (GPa) = 13.66411 34.03182 23.84796
#
# Velocity S-wave (km/s) = 2.43838 3.84815 3.22133
# Velocity P-wave (km/s) = 5.47305 6.78089 6.16177
#
# Compressibility (1/GPa) = 0.01975466
#
# Stress axis : x y z
#
# Youngs Moduli (GPa) = 85.67090 117.88576 96.57478
#
# Poissons Ratio (x) = 0.36419 0.08228
# Poissons Ratio (y) = 0.26467 0.13871
# Poissons Ratio (z) = 0.07299 0.16932
#
# Static dielectric constant tensor:
#      x y z
#    x 1.927100 0.000000 -0.028290 
#    y 0.000000 1.920970 0.000000 
#    z -0.028290 0.000000 1.870700 
# 
# From -- ./inp_files/127288.got.cif
#   From: 2010.05.17/outbox.cif.g08.bks.cpg/sg15_64_cif.got.tgz:127288.got - 2010.06.03 18:47:42.
