data_PCOD9307788
_publ_section_title
;
Structure prediction by ZEFSAII (Michael W. Deem and Ramdas Pophale) SiO2 
 PCOD9307788
Probable space group: C 2/C
;
_chemical_formula_sum "Si O2"
_cell_formula_units_Z 32
_cell_length_a 10.388814
_cell_length_b 15.356227
_cell_length_c 8.935715
_cell_angle_alpha 90.000000
_cell_angle_beta 87.657411
_cell_angle_gamma 90.000000
_cell_volume 1424.349955
_symmetry_space_group_name_H-M "C 2/C"
_symmetry_group_IT_number 15
_symmetry_cell_setting 'monoclinic'
loop_
_space_group_symop_operation_xyz
x,y,z
-x,y,1/2-z
-x,-y,-z
x,-y,1/2+z
1/2+x,1/2+y,z
1/2-x,1/2+y,1/2-z
1/2-x,1/2-y,-z
1/2+x,1/2-y,1/2+z
loop_
_atom_site_type_symbol
_atom_site_label
_atom_site_fract_x
_atom_site_fract_y
_atom_site_fract_z
Si Si1 0.395060 0.786599 0.530515
Si Si2 0.500000 0.900408 0.250000
Si Si3 0.866858 0.016998 0.591614
Si Si4 0.197880 0.445599 0.816404
Si Si5 0.000000 0.157320 0.750000
O O1 0.250000 0.750000 0.500000
O O2 0.454256 0.837648 0.386520
O O3 0.379479 0.857479 0.662212
O O4 0.488820 0.713978 0.599450
O O5 0.388454 0.969046 0.207756
O O6 0.767392 0.045651 0.471890
O O7 0.885050 0.089436 0.720897
O O8 0.805317 0.937189 0.683059
O O9 0.000000 0.000000 0.500000
#
# Coordination Sequence:
#
# PCOD9307788 Si02
#       5
#     8   4   8   8   4
#     4  12  27  47  69 110 148 182 238 304 365 427
#     4  12  27  48  73 108 142 198 240 294 369 436
#     4  12  25  46  75 104 143 195 243 291 356 439
#     4  12  24  48  74 105 142 190 250 288 359 442
#     4  12  25  46  67 104 144 178 238 294 359 416
#
# _framework density 22.466390000000001
#
# number of rings (size 3 to 8) (size 9 to 14) (size 15 to 20)
#    0.000    0.000    7.500    1.500    3.500    2.000 
#    0.000    3.750    0.000    0.000    0.000    0.000 
#    0.000    0.000    0.000    0.000    0.000    0.000 
#
# Total GULP energy -89295.833836 kJ/mol
# GULP energy per Si atom -5580.989615 kJ/mol
# Density = 2.241526 g / cm^3
# Si number density = 22.466390 Si / 1000 Ang^3
#
#
#
# Elastic Constant Matrix: (Units=GPa)
#
#
# Indices 1 2 3 4 5 6 
#
# 1 124.9433 50.7668 75.2470 0.0000 10.6952 0.0000
# 2 50.7668 98.0242 40.3863 0.0000 -8.7550 0.0000
# 3 75.2470 40.3863 90.0609 0.0000 -0.6307 0.0000
# 4 0.0000 0.0000 0.0000 53.2324 0.0000 18.5659
# 5 10.6952 -8.7550 -0.6307 0.0000 65.3938 0.0000
# 6 0.0000 0.0000 0.0000 18.5659 0.0000 33.2804
#
#
#
# Elastic Compliance Matrix: (Units=1/GPa)
#
#
# Indices 1 2 3 4 5 6 
#
# 1 0.017916 -0.004200 -0.013111 0.000000 -0.003619 0.000000
# 2 -0.004200 0.013673 -0.002604 0.000000 0.002492 0.000000
# 3 -0.013111 -0.002604 0.023240 0.000000 0.002020 0.000000
# 4 0.000000 0.000000 0.000000 0.023324 0.000000 -0.013011
# 5 -0.003619 0.002492 0.002020 0.000000 0.016237 0.000000
# 6 0.000000 0.000000 0.000000 -0.013011 0.000000 0.037306
#
#
# Mechanical properties :
#
#
# Convention : Reuss Voigt Hill
#
# Bulk Modulus (GPa) = 66.67806 71.75874 69.21840
# Shear Modulus (GPa) = 28.32445 40.15653 34.24049
#
# Velocity S-wave (km/s) = 3.55455 4.23236 3.90818
# Velocity P-wave (km/s) = 6.82568 7.47620 7.15834
#
# Compressibility (1/GPa) = 0.01499744
#
# Stress axis : x y z
#
# Youngs Moduli (GPa) = 55.81560 73.13951 43.02917
#
# Poissons Ratio (x) = 0.30720 0.56415
# Poissons Ratio (y) = 0.23444 0.11207
# Poissons Ratio (z) = 0.73180 0.19048
#
# Static dielectric constant tensor:
#      x y z
#    x 1.920680 0.000000 -0.016730 
#    y 0.000000 1.897520 0.000000 
#    z -0.016730 0.000000 1.852310 
# 
# From -- ./inp_files/27678.got.cif
#   From: 2010.05.17/outbox.cif.g08.bks.cpg/sg15_14_cif.got.tgz:27678.got - 2010.06.03 18:47:42.
