data_PCOD9307741
_publ_section_title
;
Structure prediction by ZEFSAII (Michael W. Deem and Ramdas Pophale) SiO2 
 PCOD9307741
Probable space group: C 2/C
;
_chemical_formula_sum "Si O2"
_cell_formula_units_Z 40
_cell_length_a 19.872307
_cell_length_b 14.745651
_cell_length_c 15.122027
_cell_angle_alpha 90.000000
_cell_angle_beta 20.443105
_cell_angle_gamma 90.000000
_cell_volume 1547.719826
_symmetry_space_group_name_H-M "C 2/C"
_symmetry_group_IT_number 15
_symmetry_cell_setting 'monoclinic'
loop_
_space_group_symop_operation_xyz
x,y,z
-x,y,1/2-z
-x,-y,-z
x,-y,1/2+z
1/2+x,1/2+y,z
1/2-x,1/2+y,1/2-z
1/2-x,1/2-y,-z
1/2+x,1/2-y,1/2+z
loop_
_atom_site_type_symbol
_atom_site_label
_atom_site_fract_x
_atom_site_fract_y
_atom_site_fract_z
Si Si1 0.162023 0.937406 0.842996
Si Si2 0.997188 0.324610 0.354013
Si Si3 0.225229 0.979513 0.449953
Si Si4 0.966034 0.647053 0.194646
Si Si5 0.626271 0.289995 0.328302
O O1 0.328080 0.899897 0.574920
O O2 0.248706 0.987328 0.820346
O O3 0.037389 0.848287 0.018942
O O4 0.000000 0.000000 0.000000
O O5 0.954907 0.248202 0.479193
O O6 0.000000 0.292490 0.250000
O O7 0.190207 0.380126 0.138439
O O8 0.353820 0.052809 0.344621
O O9 0.000000 0.984911 0.750000
O O10 0.847003 0.706208 0.271377
O O11 0.000000 0.686630 0.250000
O O12 0.184531 0.649656 0.889055
#
# Coordination Sequence:
#
# PCOD9307741 Si02
#       5
#     8   8   8   8   8
#     4  12  26  47  77 108 151 202 259 323 378 459
#     4  12  27  50  75 110 160 208 260 312 382 469
#     4  12  26  50  77 114 151 205 262 317 388 457
#     4  12  24  46  79 112 158 194 254 325 389 460
#     4  12  26  47  73 119 154 198 255 314 397 451
#
# _framework density 25.844470999999999
#
# number of rings (size 3 to 8) (size 9 to 14) (size 15 to 20)
#    0.000    0.000    4.000    5.400    2.800    2.400 
#    0.000    2.000    0.000    0.000    0.000    0.000 
#    0.000    0.000    0.000    0.000    0.000    0.000 
#
# Total GULP energy -112173.014096 kJ/mol
# GULP energy per Si atom -5608.650705 kJ/mol
# Density = 2.578565 g / cm^3
# Si number density = 25.844471 Si / 1000 Ang^3
#
#
#
# Elastic Constant Matrix: (Units=GPa)
#
#
# Indices 1 2 3 4 5 6 
#
# 1 153.3865 34.1320 43.5169 -0.0016 5.8594 0.0015
# 2 34.1320 73.8131 57.1430 -0.0015 -4.8698 0.0018
# 3 43.5169 57.1430 153.3293 -0.0020 -22.3391 0.0036
# 4 -0.0016 -0.0015 -0.0020 36.3267 0.0010 -24.6405
# 5 5.8594 -4.8698 -22.3391 0.0010 52.8005 -0.0017
# 6 0.0015 0.0018 0.0036 -24.6405 -0.0017 -17.9441
#
#
#
# Elastic Compliance Matrix: (Units=1/GPa)
#
#
# Indices 1 2 3 4 5 6 
#
# 1 0.007549 -0.002464 -0.001470 0.000000 -0.001687 0.000000
# 2 -0.002464 0.019934 -0.006844 0.000000 -0.000784 0.000000
# 3 -0.001470 -0.006844 0.010040 0.000000 0.003780 0.000000
# 4 0.000000 0.000000 0.000000 0.014253 -0.000001 -0.019571
# 5 -0.001687 -0.000784 0.003780 -0.000001 0.020653 0.000000
# 6 0.000000 0.000000 0.000000 -0.019571 0.000000 -0.028853
#
#
# Mechanical properties :
#
#
# Convention : Reuss Voigt Hill
#
# Bulk Modulus (GPa) = 62.62714 72.23474 67.43094
# Shear Modulus (GPa) = 70.96837 30.61907 50.79372
#
# Velocity S-wave (km/s) = 5.24589 3.44574 4.43805
# Velocity P-wave (km/s) = 7.80881 6.62128 7.23943
#
# Compressibility (1/GPa) = 0.01596752
#
# Stress axis : x y z
#
# Youngs Moduli (GPa) = 132.46244 50.16660 99.59823
#
# Poissons Ratio (x) = 0.12362 0.14641
# Poissons Ratio (y) = 0.32641 0.68162
# Poissons Ratio (z) = 0.19472 0.34332
#
# Static dielectric constant tensor:
#      x y z
#    x 1.979260 0.000000 -0.001660 
#    y 0.000000 2.100880 0.000000 
#    z -0.001660 0.000000 2.041910 
# 
# From -- ./inp_files/29251.got.cif
#   From: 2010.05.17/outbox.cif.g08.bks.cpg/sg15_15_cif.got.tgz:29251.got - 2010.06.03 18:47:42.
