data_PCOD9307343
_publ_section_title
;
Structure prediction by ZEFSAII (Michael W. Deem and Ramdas Pophale) SiO2 
 PCOD9307343
Probable space group: C 2/C
;
_chemical_formula_sum "Si O2"
_cell_formula_units_Z 48
_cell_length_a 8.372310
_cell_length_b 23.233430
_cell_length_c 10.640390
_cell_angle_alpha 90.000000
_cell_angle_beta 92.104464
_cell_angle_gamma 90.000000
_cell_volume 2068.345864
_symmetry_space_group_name_H-M "C 2/C"
_symmetry_group_IT_number 15
_symmetry_cell_setting 'monoclinic'
loop_
_space_group_symop_operation_xyz
x,y,z
-x,y,1/2-z
-x,-y,-z
x,-y,1/2+z
1/2+x,1/2+y,z
1/2-x,1/2+y,1/2-z
1/2-x,1/2-y,-z
1/2+x,1/2-y,1/2+z
loop_
_atom_site_type_symbol
_atom_site_label
_atom_site_fract_x
_atom_site_fract_y
_atom_site_fract_z
Si Si1 0.320719 0.986047 0.689728
Si Si2 0.169532 0.316490 0.214320
Si Si3 0.318516 0.200992 0.199177
Si Si4 0.777595 0.108915 0.116018
Si Si5 0.087926 0.394665 0.992072
Si Si6 0.628125 0.397729 0.141308
O O1 0.500000 0.993840 0.750000
O O2 0.229127 0.942697 0.782357
O O3 0.343629 0.954668 0.555668
O O4 0.229420 0.044861 0.668375
O O5 0.257374 0.262831 0.155808
O O6 0.271979 0.339443 0.333117
O O7 0.000000 0.293097 0.250000
O O8 0.131652 0.372976 0.130528
O O9 0.500000 0.208508 0.250000
O O10 0.220468 0.169128 0.308119
O O11 0.330963 0.154005 0.091335
O O12 0.601084 0.105930 0.044613
O O13 0.907850 0.102283 0.009241
O O14 0.500000 0.396212 0.250000
#
# Coordination Sequence:
#
# PCOD9307343 Si02
#       6
#     8   8   8   8   8   8
#     4   9  21  40  69  88 115 161 205 252 300 360
#     4  12  23  39  61  94 121 159 206 249 297 364
#     4   9  20  42  66  88 121 160 198 253 309 354
#     4   9  20  42  64  88 121 163 202 245 308 363
#     4   9  19  41  66  91 118 155 207 253 299 360
#     4  12  26  40  57  90 128 165 199 250 306 356
#
# _framework density 23.206952000000001
#
# number of rings (size 3 to 8) (size 9 to 14) (size 15 to 20)
#    0.000    2.000    1.667    3.500    2.333    2.667 
#    6.000    1.667    0.000    0.000    0.000    0.000 
#    0.000    0.000    0.000    0.000    0.000    0.000 
#
# Total GULP energy -134100.398455 kJ/mol
# GULP energy per Si atom -5587.516602 kJ/mol
# Density = 2.315413 g / cm^3
# Si number density = 23.206952 Si / 1000 Ang^3
#
#
#
# Elastic Constant Matrix: (Units=GPa)
#
#
# Indices 1 2 3 4 5 6 
#
# 1 22.1579 21.4934 7.3822 0.0000 -12.9303 0.0000
# 2 21.4934 94.2215 8.1151 0.0000 -6.7896 0.0000
# 3 7.3822 8.1151 92.5109 0.0000 -21.3308 0.0000
# 4 0.0000 0.0000 0.0000 28.2425 0.0000 -4.1742
# 5 -12.9303 -6.7896 -21.3308 0.0000 26.5748 0.0000
# 6 0.0000 0.0000 0.0000 -4.1742 0.0000 12.6836
#
#
#
# Elastic Compliance Matrix: (Units=1/GPa)
#
#
# Indices 1 2 3 4 5 6 
#
# 1 0.082478 -0.016332 0.003856 0.000000 0.039053 0.000000
# 2 -0.016332 0.014058 -0.001146 0.000000 -0.005275 0.000000
# 3 0.003856 -0.001146 0.013458 0.000000 0.012386 0.000000
# 4 0.000000 0.000000 0.000000 0.037218 0.000000 0.012248
# 5 0.039053 -0.005275 0.012386 0.000000 0.065225 0.000000
# 6 0.000000 0.000000 0.000000 0.012248 0.000000 0.082873
#
#
# Mechanical properties :
#
#
# Convention : Reuss Voigt Hill
#
# Bulk Modulus (GPa) = 12.08488 31.43019 21.75753
# Shear Modulus (GPa) = 14.28007 24.96015 19.62011
#
# Velocity S-wave (km/s) = 2.48329 3.28311 2.91080
# Velocity P-wave (km/s) = 3.66620 5.28626 4.54894
#
# Compressibility (1/GPa) = 0.08274802
#
# Stress axis : x y z
#
# Youngs Moduli (GPa) = 12.12446 71.13613 74.30381
#
# Poissons Ratio (x) = 1.16183 -0.28650
# Poissons Ratio (y) = 0.19802 0.08516
# Poissons Ratio (z) = -0.04675 0.08153
#
# Static dielectric constant tensor:
#      x y z
#    x 1.901940 0.000000 -0.014250 
#    y 0.000000 1.791000 0.000000 
#    z -0.014250 0.000000 1.955960 
# 
# From -- ./inp_files/79148.got.cif
#   From: 2010.05.17/outbox.cif.g08.bks.cpg/sg15_40_cif.got.tgz:79148.got - 2010.06.03 18:47:42.
