data_PCOD9307931
_publ_section_title
;
Structure prediction by ZEFSAII (Michael W. Deem and Ramdas Pophale) SiO2 
 PCOD9307931
Probable space group: C 2/C
;
_chemical_formula_sum "Si O2"
_cell_formula_units_Z 52
_cell_length_a 13.434559
_cell_length_b 12.103715
_cell_length_c 15.090079
_cell_angle_alpha 90.000000
_cell_angle_beta 105.178365
_cell_angle_gamma 90.000000
_cell_volume 2368.170004
_symmetry_space_group_name_H-M "C 2/C"
_symmetry_group_IT_number 15
_symmetry_cell_setting 'monoclinic'
loop_
_space_group_symop_operation_xyz
x,y,z
-x,y,1/2-z
-x,-y,-z
x,-y,1/2+z
1/2+x,1/2+y,z
1/2-x,1/2+y,1/2-z
1/2-x,1/2-y,-z
1/2+x,1/2-y,1/2+z
loop_
_atom_site_type_symbol
_atom_site_label
_atom_site_fract_x
_atom_site_fract_y
_atom_site_fract_z
Si Si1 0.596663 0.973846 0.463398
Si Si2 0.000000 0.177446 0.750000
Si Si3 0.889398 0.300310 0.183051
Si Si4 0.696146 0.441103 0.206132
Si Si5 0.632166 0.773375 0.943056
Si Si6 0.393347 0.439098 0.983153
Si Si7 0.710375 0.572431 0.386654
O O1 0.630023 0.096002 0.445134
O O2 0.500000 0.000000 0.500000
O O3 0.579353 0.897541 0.376097
O O4 0.680417 0.911701 0.542109
O O5 0.085775 0.111421 0.711203
O O6 0.074030 0.241306 0.837723
O O7 0.789911 0.352912 0.213176
O O8 0.848537 0.187667 0.130052
O O9 0.000000 0.269396 0.250000
O O10 0.676405 0.513366 0.112922
O O11 0.724591 0.522811 0.292662
O O12 0.750000 0.750000 0.000000
O O13 0.582077 0.691415 0.004798
O O14 0.500000 0.500000 0.000000
O O15 0.345947 0.480700 0.065524
#
# Coordination Sequence:
#
# PCOD9307931 Si02
#       7
#     8   4   8   8   8   8   8
#     4  12  28  49  75 110 161 200 255 323 403 469
#     4  12  26  44  82 112 156 206 258 328 404 456
#     4  12  30  48  78 115 159 208 264 325 402 483
#     4  12  25  49  75 119 152 202 264 325 392 475
#     4  12  25  48  75 110 154 201 257 323 388 472
#     4  12  25  45  81 112 150 198 263 322 389 460
#     4  12  27  51  76 112 155 201 263 321 393 472
#
# _framework density 21.957882999999999
#
# number of rings (size 3 to 8) (size 9 to 14) (size 15 to 20)
#    0.000    0.000    6.154    1.385    8.615    3.692 
#    0.000    0.000    0.000    0.000    0.000    0.000 
#    0.000    0.000    0.000    0.000    0.000    0.000 
#
# Total GULP energy -145086.659952 kJ/mol
# GULP energy per Si atom -5580.256152 kJ/mol
# Density = 2.190791 g / cm^3
# Si number density = 21.957883 Si / 1000 Ang^3
#
#
#
# Elastic Constant Matrix: (Units=GPa)
#
#
# Indices 1 2 3 4 5 6 
#
# 1 94.0108 3.5659 10.2286 0.0000 0.9557 0.0000
# 2 3.5659 100.6883 20.9282 0.0000 -3.3608 0.0000
# 3 10.2286 20.9282 80.0807 0.0000 3.4213 0.0000
# 4 0.0000 0.0000 0.0000 34.3654 0.0000 11.9523
# 5 0.9557 -3.3608 3.4213 0.0000 36.2106 0.0000
# 6 0.0000 0.0000 0.0000 11.9523 0.0000 36.5350
#
#
#
# Elastic Compliance Matrix: (Units=1/GPa)
#
#
# Indices 1 2 3 4 5 6 
#
# 1 0.010789 -0.000109 -0.001342 0.000000 -0.000168 0.000000
# 2 -0.000109 0.010559 -0.002799 0.000000 0.001247 0.000000
# 3 -0.001342 -0.002799 0.013454 0.000000 -0.001496 0.000000
# 4 0.000000 0.000000 0.000000 0.032835 0.000000 -0.010742
# 5 -0.000168 0.001247 -0.001496 0.000000 0.027878 0.000000
# 6 0.000000 0.000000 0.000000 -0.010742 0.000000 0.030885
#
#
# Mechanical properties :
#
#
# Convention : Reuss Voigt Hill
#
# Bulk Modulus (GPa) = 38.01984 38.24724 38.13354
# Shear Modulus (GPa) = 34.80263 37.42602 36.11433
#
# Velocity S-wave (km/s) = 3.98549 4.13297 4.05990
# Velocity P-wave (km/s) = 6.20736 6.34283 6.27546
#
# Compressibility (1/GPa) = 0.02630205
#
# Stress axis : x y z
#
# Youngs Moduli (GPa) = 92.68725 94.70718 74.32617
#
# Poissons Ratio (x) = 0.01029 0.09978
# Poissons Ratio (y) = 0.01007 0.20803
# Poissons Ratio (z) = 0.12443 0.26507
#
# Static dielectric constant tensor:
#      x y z
#    x 1.825470 0.000000 0.041330 
#    y 0.000000 2.896480 0.000000 
#    z 0.041330 0.000000 1.494910 
# 
# From -- ./inp_files/152714.got.cif
#   From: 2010.05.17/outbox.cif.g08.bks.cpg/sg15_77_cif.got.tgz:152714.got - 2010.06.03 18:47:42.
