data_PCOD9307675
_publ_section_title
;
Structure prediction by ZEFSAII (Michael W. Deem and Ramdas Pophale) SiO2 
 PCOD9307675
Probable space group: C 2/C
;
_chemical_formula_sum "Si O2"
_cell_formula_units_Z 44
_cell_length_a 29.127732
_cell_length_b 5.167826
_cell_length_c 11.192235
_cell_angle_alpha 90.000000
_cell_angle_beta 87.784580
_cell_angle_gamma 90.000000
_cell_volume 1683.474870
_symmetry_space_group_name_H-M "C 2/C"
_symmetry_group_IT_number 15
_symmetry_cell_setting 'monoclinic'
loop_
_space_group_symop_operation_xyz
x,y,z
-x,y,1/2-z
-x,-y,-z
x,-y,1/2+z
1/2+x,1/2+y,z
1/2-x,1/2+y,1/2-z
1/2-x,1/2-y,-z
1/2+x,1/2-y,1/2+z
loop_
_atom_site_type_symbol
_atom_site_label
_atom_site_fract_x
_atom_site_fract_y
_atom_site_fract_z
Si Si1 0.276471 0.547545 0.699387
Si Si2 0.750000 0.750000 0.500000
Si Si3 0.630905 0.505507 0.162898
Si Si4 0.000000 0.295099 0.750000
Si Si5 0.000000 0.000000 0.000000
Si Si6 0.352708 0.012953 0.493894
Si Si7 0.427891 0.184531 0.662195
O O1 0.256238 0.810270 0.754566
O O2 0.274908 0.501587 0.559585
O O3 0.324721 0.505527 0.756092
O O4 0.701054 0.916609 0.486478
O O5 0.628879 0.233967 0.097346
O O6 0.589347 0.586230 0.251143
O O7 0.637707 0.735844 0.066271
O O8 0.043186 0.485003 0.763197
O O9 0.002838 0.126506 0.631619
O O10 0.960361 0.207881 0.054848
O O11 0.382631 0.047506 0.610556
#
# Coordination Sequence:
#
# PCOD9307675 Si02
#       7
#     8   4   8   4   4   8   8
#     4  12  24  45  70 106 158 210 270 339 407 500
#     4  12  24  48  74 120 160 224 280 348 428 526
#     4  12  27  49  73 118 161 218 283 358 434 527
#     4  12  30  58  88 128 172 226 300 372 456 550
#     4  12  30  56  90 124 172 234 294 378 460 540
#     4  12  29  46  82 117 168 219 287 354 442 525
#     4  12  30  52  82 120 168 224 292 369 446 535
#
# _framework density 26.136417999999999
#
# number of rings (size 3 to 8) (size 9 to 14) (size 15 to 20)
#    0.000    0.000    5.455    2.182   10.182    2.909 
#    0.000    0.000    0.000    0.000    0.000    0.000 
#    0.000    0.000    0.000    0.000    0.000    0.000 
#
# Total GULP energy -122561.425202 kJ/mol
# GULP energy per Si atom -5570.973873 kJ/mol
# Density = 2.607693 g / cm^3
# Si number density = 26.136418 Si / 1000 Ang^3
#
#
#
# Elastic Constant Matrix: (Units=GPa)
#
#
# Indices 1 2 3 4 5 6 
#
# 1 123.0764 22.6954 61.5724 0.0000 27.7030 0.0000
# 2 22.6954 61.7064 142.3092 0.0000 7.2410 0.0000
# 3 61.5724 142.3092 -88.4159 0.0000 -54.9396 0.0000
# 4 0.0000 0.0000 0.0000 103.9459 0.0000 6.5307
# 5 27.7030 7.2410 -54.9396 0.0000 42.9431 0.0000
# 6 0.0000 0.0000 0.0000 6.5307 0.0000 37.7600
#
#
#
# Elastic Compliance Matrix: (Units=1/GPa)
#
#
# Indices 1 2 3 4 5 6 
#
# 1 0.009540 -0.005144 0.000918 0.000000 -0.004112 0.000000
# 2 -0.005144 0.007646 0.004158 0.000000 0.007349 0.000000
# 3 0.000918 0.004158 -0.001768 0.000000 -0.003556 0.000000
# 4 0.000000 0.000000 0.000000 0.009726 0.000000 -0.001682
# 5 -0.004112 0.007349 -0.003556 0.000000 0.020150 0.000000
# 6 0.000000 0.000000 0.000000 -0.001682 0.000000 0.026774
#
#
# Mechanical properties :
#
#
# Convention : Reuss Voigt Hill
#
# Bulk Modulus (GPa) = 65.43776 61.05786 63.24781
# Shear Modulus (GPa) = 64.68518 28.24913 46.46716
#
# Velocity S-wave (km/s) = 4.98024 3.29117 4.22105
# Velocity P-wave (km/s) = 7.62638 6.15259 6.92878
#
# Compressibility (1/GPa) = 0.01528170
#
# Stress axis : x y z
#
# Youngs Moduli (GPa) = 104.82545 130.78437 -565.46216
#
# Poissons Ratio (x) = 0.67279 0.51933
# Poissons Ratio (y) = 0.53925 2.35119
# Poissons Ratio (z) = -0.09627 -0.54380
#
# Static dielectric constant tensor:
#      x y z
#    x 2.027570 0.000000 -0.034160 
#    y 0.000000 2.032880 0.000000 
#    z -0.034160 0.000000 1.966920 
# 
# From -- ./inp_files/125028.got.cif
#   From: 2010.05.17/outbox.cif.g08.bks.cpg/sg15_63_cif.got.tgz:125028.got - 2010.06.03 18:47:42.
