data_PCOD9307048
_publ_section_title
;
Structure prediction by ZEFSAII (Michael W. Deem and Ramdas Pophale) SiO2 
 PCOD9307048
Probable space group: C 2/C
;
_chemical_formula_sum "Si O2"
_cell_formula_units_Z 48
_cell_length_a 19.845460
_cell_length_b 14.204921
_cell_length_c 13.738343
_cell_angle_alpha 90.000000
_cell_angle_beta 144.182823
_cell_angle_gamma 90.000000
_cell_volume 2266.414083
_symmetry_space_group_name_H-M "C 2/C"
_symmetry_group_IT_number 15
_symmetry_cell_setting 'monoclinic'
loop_
_space_group_symop_operation_xyz
x,y,z
-x,y,1/2-z
-x,-y,-z
x,-y,1/2+z
1/2+x,1/2+y,z
1/2-x,1/2+y,1/2-z
1/2-x,1/2-y,-z
1/2+x,1/2-y,1/2+z
loop_
_atom_site_type_symbol
_atom_site_label
_atom_site_fract_x
_atom_site_fract_y
_atom_site_fract_z
Si Si1 0.182014 0.566636 0.784770
Si Si2 0.026292 0.283830 0.169550
Si Si3 0.763807 0.890064 0.793805
Si Si4 0.317961 0.604045 0.143804
Si Si5 0.828044 0.190230 0.809516
Si Si6 0.520692 0.425095 0.162640
O O1 0.063906 0.622768 0.657459
O O2 0.182099 0.456963 0.760891
O O3 0.253167 0.615152 0.780958
O O4 0.248946 0.583838 0.964722
O O5 0.131081 0.209020 0.294178
O O6 0.000000 0.305833 0.250000
O O7 0.924023 0.230823 0.995458
O O8 0.743695 0.903938 0.655046
O O9 0.748060 0.781592 0.804215
O O10 0.895694 0.921786 0.966508
O O11 0.422576 0.528908 0.270378
O O12 0.892575 0.141829 0.794956
O O13 0.500000 0.396490 0.250000
#
# Coordination Sequence:
#
# PCOD9307048 Si02
#       6
#     8   8   8   8   8   8
#     4  12  24  42  66  99 131 168 215 265 319 380
#     4  12  23  39  68 100 132 162 213 270 327 371
#     4  12  25  42  65  98 129 169 220 258 324 381
#     4  12  21  40  70  99 124 159 214 279 310 366
#     4  12  24  42  66  93 134 173 209 266 316 388
#     4  12  24  42  66  95 128 169 217 267 315 378
#
# _framework density 21.178830000000001
#
# number of rings (size 3 to 8) (size 9 to 14) (size 15 to 20)
#    0.000    0.000    8.333    3.500    0.000    1.333 
#    0.000    0.833    0.000    0.000    0.000    0.000 
#    0.000    0.000    0.000    0.000    0.000    0.000 
#
# Total GULP energy -134386.526928 kJ/mol
# GULP energy per Si atom -5599.438622 kJ/mol
# Density = 2.113063 g / cm^3
# Si number density = 21.178830 Si / 1000 Ang^3
#
#
#
# Elastic Constant Matrix: (Units=GPa)
#
#
# Indices 1 2 3 4 5 6 
#
# 1 116.4266 23.9762 1.7594 0.0000 -25.5181 0.0000
# 2 23.9762 92.7333 8.4873 0.0000 -3.8763 0.0000
# 3 1.7594 8.4873 28.3171 0.0000 -5.1001 0.0000
# 4 0.0000 0.0000 0.0000 29.0584 0.0000 -0.0837
# 5 -25.5181 -3.8763 -5.1001 0.0000 23.5950 0.0000
# 6 0.0000 0.0000 0.0000 -0.0837 0.0000 35.0400
#
#
#
# Elastic Compliance Matrix: (Units=1/GPa)
#
#
# Indices 1 2 3 4 5 6 
#
# 1 0.011979 -0.002775 0.002433 0.000000 0.013025 0.000000
# 2 -0.002775 0.011761 -0.003689 0.000000 -0.001867 0.000000
# 3 0.002433 -0.003689 0.038117 0.000000 0.010265 0.000000
# 4 0.000000 0.000000 0.000000 0.034414 0.000000 0.000082
# 5 0.013025 -0.001867 0.010265 0.000000 0.058381 0.000000
# 6 0.000000 0.000000 0.000000 0.000082 0.000000 0.028539
#
#
# Mechanical properties :
#
#
# Convention : Reuss Voigt Hill
#
# Bulk Modulus (GPa) = 18.58888 33.99142 26.29015
# Shear Modulus (GPa) = 23.90248 31.08896 27.49572
#
# Velocity S-wave (km/s) = 3.36311 3.83551 3.60705
# Velocity P-wave (km/s) = 4.88640 5.97490 5.45785
#
# Compressibility (1/GPa) = 0.05379562
#
# Stress axis : x y z
#
# Youngs Moduli (GPa) = 83.48173 85.02851 26.23470
#
# Poissons Ratio (x) = 0.23598 -0.06384
# Poissons Ratio (y) = 0.23169 0.09677
# Poissons Ratio (z) = -0.20315 0.31365
#
# Static dielectric constant tensor:
#      x y z
#    x 1.763100 0.000000 0.022050 
#    y 0.000000 1.753110 0.000000 
#    z 0.022050 0.000000 1.787810 
# 
# From -- ./inp_files/96824.got.cif
#   From: 2010.05.17/outbox.cif.g08.bks.cpg/sg15_49_cif.got.tgz:96824.got - 2010.06.03 18:47:42.
