data_PCOD9307211
_publ_section_title
;
Structure prediction by ZEFSAII (Michael W. Deem and Ramdas Pophale) SiO2 
 PCOD9307211
Probable space group: C 2/C
;
_chemical_formula_sum "Si O2"
_cell_formula_units_Z 44
_cell_length_a 12.244271
_cell_length_b 7.362471
_cell_length_c 23.609113
_cell_angle_alpha 90.000000
_cell_angle_beta 62.489603
_cell_angle_gamma 90.000000
_cell_volume 1887.661383
_symmetry_space_group_name_H-M "C 2/C"
_symmetry_group_IT_number 15
_symmetry_cell_setting 'monoclinic'
loop_
_space_group_symop_operation_xyz
x,y,z
-x,y,1/2-z
-x,-y,-z
x,-y,1/2+z
1/2+x,1/2+y,z
1/2-x,1/2+y,1/2-z
1/2-x,1/2-y,-z
1/2+x,1/2-y,1/2+z
loop_
_atom_site_type_symbol
_atom_site_label
_atom_site_fract_x
_atom_site_fract_y
_atom_site_fract_z
Si Si1 0.045283 0.441860 0.858907
Si Si2 0.500000 0.010004 0.750000
Si Si3 0.284719 0.638905 0.436323
Si Si4 0.626332 0.188622 0.998031
Si Si5 0.943378 0.854531 0.601586
Si Si6 0.249460 0.166111 0.828888
O O1 0.172906 0.334165 0.822936
O O2 0.977347 0.409157 0.814882
O O3 0.059352 0.655205 0.869251
O O4 0.662021 0.490219 0.852225
O O5 0.377445 0.125016 0.768178
O O6 0.250000 0.750000 0.500000
O O7 0.178274 0.490830 0.454009
O O8 0.422309 0.565868 0.414655
O O9 0.284040 0.774053 0.384079
O O10 0.574358 0.318972 0.961589
O O11 0.750000 0.250000 0.000000
O O12 0.529937 0.139951 0.070019
#
# Coordination Sequence:
#
# PCOD9307211 Si02
#       6
#     8   4   8   8   8   8
#     4  12  26  49  72 107 146 190 240 298 354 433
#     4  12  28  52  72 100 148 190 256 298 346 430
#     4  12  22  42  71 107 148 180 229 291 356 429
#     4  12  24  44  75 112 150 187 231 296 372 435
#     4  12  25  46  75 108 146 187 237 301 366 429
#     4  12  28  48  73 106 141 194 243 297 362 421
#
# _framework density 23.309266000000001
#
# number of rings (size 3 to 8) (size 9 to 14) (size 15 to 20)
#    0.000    0.000    5.455    4.909    2.545    2.182 
#    0.000    1.818    0.000    0.000    0.000    0.000 
#    0.000    0.000    0.000    0.000    0.000    0.000 
#
# Total GULP energy -123211.661544 kJ/mol
# GULP energy per Si atom -5600.530070 kJ/mol
# Density = 2.325621 g / cm^3
# Si number density = 23.309266 Si / 1000 Ang^3
#
#
#
# Elastic Constant Matrix: (Units=GPa)
#
#
# Indices 1 2 3 4 5 6 
#
# 1 138.1117 24.8086 29.7129 0.0000 -9.8564 0.0000
# 2 24.8086 77.5052 11.6299 0.0000 -9.2043 0.0000
# 3 29.7129 11.6299 93.2490 0.0000 5.5519 0.0000
# 4 0.0000 0.0000 0.0000 15.6137 0.0000 1.1721
# 5 -9.8564 -9.2043 5.5519 0.0000 54.1905 0.0000
# 6 0.0000 0.0000 0.0000 1.1721 0.0000 50.8805
#
#
#
# Elastic Compliance Matrix: (Units=1/GPa)
#
#
# Indices 1 2 3 4 5 6 
#
# 1 0.008245 -0.002106 -0.002447 0.000000 0.001393 0.000000
# 2 -0.002106 0.014009 -0.001202 0.000000 0.002119 0.000000
# 3 -0.002447 -0.001202 0.011764 0.000000 -0.001855 0.000000
# 4 0.000000 0.000000 0.000000 0.064157 0.000000 -0.001478
# 5 0.001393 0.002119 -0.001855 0.000000 0.019257 0.000000
# 6 0.000000 0.000000 0.000000 -0.001478 0.000000 0.019688
#
#
# Mechanical properties :
#
#
# Convention : Reuss Voigt Hill
#
# Bulk Modulus (GPa) = 44.43300 49.01874 46.72587
# Shear Modulus (GPa) = 32.02394 40.31791 36.17093
#
# Velocity S-wave (km/s) = 3.71060 4.16347 3.94354
# Velocity P-wave (km/s) = 6.12061 6.64741 6.38944
#
# Compressibility (1/GPa) = 0.02250580
#
# Stress axis : x y z
#
# Youngs Moduli (GPa) = 121.28880 71.38422 85.00411
#
# Poissons Ratio (x) = 0.15037 0.20803
# Poissons Ratio (y) = 0.25549 0.10219
# Poissons Ratio (z) = 0.29683 0.08581
#
# Static dielectric constant tensor:
#      x y z
#    x 1.747380 0.000000 0.395380 
#    y 0.000000 1.913270 0.000000 
#    z 0.395380 0.000000 1.061430 
# 
# From -- ./inp_files/309528.got.cif
#   From: 2010.05.17/outbox.cif.g08.bks.cpg/sg15_155_cif.got.tgz:309528.got - 2010.06.03 18:47:42.
