data_PCOD9307578
_publ_section_title
;
Structure prediction by ZEFSAII (Michael W. Deem and Ramdas Pophale) SiO2 
 PCOD9307578
Probable space group: C 2/C
;
_chemical_formula_sum "Si O2"
_cell_formula_units_Z 36
_cell_length_a 28.283372
_cell_length_b 7.922047
_cell_length_c 7.517057
_cell_angle_alpha 90.000000
_cell_angle_beta 120.394388
_cell_angle_gamma 90.000000
_cell_volume 1452.805196
_symmetry_space_group_name_H-M "C 2/C"
_symmetry_group_IT_number 15
_symmetry_cell_setting 'monoclinic'
loop_
_space_group_symop_operation_xyz
x,y,z
-x,y,1/2-z
-x,-y,-z
x,-y,1/2+z
1/2+x,1/2+y,z
1/2-x,1/2+y,1/2-z
1/2-x,1/2-y,-z
1/2+x,1/2-y,1/2+z
loop_
_atom_site_type_symbol
_atom_site_label
_atom_site_fract_x
_atom_site_fract_y
_atom_site_fract_z
Si Si1 0.189771 0.317354 0.432274
Si Si2 0.187171 0.708928 0.340203
Si Si3 0.500000 0.807939 0.250000
Si Si4 0.425749 0.729250 0.389177
Si Si5 0.072456 0.849034 0.210239
O O1 0.250000 0.250000 0.500000
O O2 0.182911 0.516246 0.392872
O O3 0.179975 0.275860 0.617077
O O4 0.139717 0.239847 0.229633
O O5 0.250000 0.750000 0.500000
O O6 0.137793 0.818965 0.322562
O O7 0.453559 0.866460 0.309179
O O8 0.541346 0.731201 0.481492
O O9 0.439212 0.548691 0.324389
O O10 0.443787 0.724354 0.628043
#
# Coordination Sequence:
#
# PCOD9307578 Si02
#       5
#     8   8   4   8   8
#     4  12  25  46  71 103 139 178 226 284 347 412
#     4  12  25  46  71 103 139 178 226 284 347 412
#     4  12  24  44  68 100 144 178 244 272 344 392
#     4  12  24  42  70 103 139 183 233 282 339 401
#     4  12  24  42  70 103 139 183 233 282 339 401
#
# _framework density 24.779647000000001
#
# number of rings (size 3 to 8) (size 9 to 14) (size 15 to 20)
#    0.000    0.000    4.444    6.667    0.000    0.000 
#    0.000    1.111    0.000    0.000    0.000    0.000 
#    0.000    0.000    0.000    0.000    0.000    0.000 
#
# Total GULP energy -100576.648955 kJ/mol
# GULP energy per Si atom -5587.591609 kJ/mol
# Density = 2.472325 g / cm^3
# Si number density = 24.779647 Si / 1000 Ang^3
#
#
#
# Elastic Constant Matrix: (Units=GPa)
#
#
# Indices 1 2 3 4 5 6 
#
# 1 176.2690 12.7966 74.3758 0.0000 3.2509 0.0000
# 2 12.7966 46.9341 17.9069 0.0000 4.5512 0.0000
# 3 74.3758 17.9069 197.8371 0.0000 1.2724 0.0000
# 4 0.0000 0.0000 0.0000 25.4892 0.0000 -6.4454
# 5 3.2509 4.5512 1.2724 0.0000 86.4550 0.0000
# 6 0.0000 0.0000 0.0000 -6.4454 0.0000 -26.1586
#
#
#
# Elastic Compliance Matrix: (Units=1/GPa)
#
#
# Indices 1 2 3 4 5 6 
#
# 1 0.006782 -0.000891 -0.002468 0.000000 -0.000172 0.000000
# 2 -0.000891 0.022297 -0.001676 0.000000 -0.001116 0.000000
# 3 -0.002468 -0.001676 0.006134 0.000000 0.000091 0.000000
# 4 0.000000 0.000000 0.000000 0.036931 0.000000 -0.009100
# 5 -0.000172 -0.001116 0.000091 0.000000 0.011631 0.000000
# 6 0.000000 0.000000 0.000000 -0.009100 0.000000 -0.035986
#
#
# Mechanical properties :
#
#
# Convention : Reuss Voigt Hill
#
# Bulk Modulus (GPa) = 39.77253 70.13319 54.95286
# Shear Modulus (GPa) = 75.48332 38.22118 56.85225
#
# Velocity S-wave (km/s) = 5.52521 3.93165 4.79509
# Velocity P-wave (km/s) = 7.53587 6.99819 7.27200
#
# Compressibility (1/GPa) = 0.02514298
#
# Stress axis : x y z
#
# Youngs Moduli (GPa) = 147.44095 44.84897 163.03537
#
# Poissons Ratio (x) = 0.03996 0.40238
# Poissons Ratio (y) = 0.13136 0.27326
# Poissons Ratio (z) = 0.36389 0.07517
#
# Static dielectric constant tensor:
#      x y z
#    x 2.037660 0.000000 0.064650 
#    y 0.000000 1.975320 0.000000 
#    z 0.064650 0.000000 1.956120 
# 
# From -- ./inp_files/68464.got.cif
#   From: 2010.05.17/outbox.cif.g08.bks.cpg/sg15_35_cif.got.tgz:68464.got - 2010.06.03 18:47:42.
