data_PCOD9307810
_publ_section_title
;
Structure prediction by ZEFSAII (Michael W. Deem and Ramdas Pophale) SiO2 
 PCOD9307810
Probable space group: C 2/C
;
_chemical_formula_sum "Si O2"
_cell_formula_units_Z 36
_cell_length_a 8.071276
_cell_length_b 18.260183
_cell_length_c 11.372863
_cell_angle_alpha 90.000000
_cell_angle_beta 114.924839
_cell_angle_gamma 90.000000
_cell_volume 1520.050613
_symmetry_space_group_name_H-M "C 2/C"
_symmetry_group_IT_number 15
_symmetry_cell_setting 'monoclinic'
loop_
_space_group_symop_operation_xyz
x,y,z
-x,y,1/2-z
-x,-y,-z
x,-y,1/2+z
1/2+x,1/2+y,z
1/2-x,1/2+y,1/2-z
1/2-x,1/2-y,-z
1/2+x,1/2-y,1/2+z
loop_
_atom_site_type_symbol
_atom_site_label
_atom_site_fract_x
_atom_site_fract_y
_atom_site_fract_z
Si Si1 0.637895 0.371138 0.943571
Si Si2 0.500000 0.506220 0.250000
Si Si3 0.572176 0.823928 0.660065
Si Si4 0.625327 0.767240 0.114344
Si Si5 0.319476 0.084276 0.740516
O O1 0.517134 0.439276 0.865447
O O2 0.797549 0.363715 0.894265
O O3 0.527239 0.294986 0.907430
O O4 0.707230 0.388298 0.093842
O O5 0.320174 0.457776 0.216397
O O6 0.500000 0.869625 0.750000
O O7 0.412059 0.788373 0.533259
O O8 0.695381 0.764176 0.766403
O O9 0.602042 0.844993 0.169747
O O10 0.500000 0.042286 0.750000
#
# Coordination Sequence:
#
# PCOD9307810 Si02
#       5
#     8   4   8   8   8
#     4  12  25  51  75 105 160 205 251 325 393 457
#     4  12  30  50  74 114 158 208 258 320 392 470
#     4  12  25  41  76 116 148 194 267 320 385 456
#     4  12  24  48  78 111 153 201 260 325 384 458
#     4  12  27  50  80 112 154 205 261 322 390 460
#
# _framework density 23.683422
#
# number of rings (size 3 to 8) (size 9 to 14) (size 15 to 20)
#    0.000    0.000    6.667    3.333    1.556    3.556 
#    4.000    0.000    0.000    0.000    0.000    0.000 
#    0.000    0.000    0.000    0.000    0.000    0.000 
#
# Total GULP energy -100605.146967 kJ/mol
# GULP energy per Si atom -5589.174831 kJ/mol
# Density = 2.362952 g / cm^3
# Si number density = 23.683422 Si / 1000 Ang^3
#
#
#
# Elastic Constant Matrix: (Units=GPa)
#
#
# Indices 1 2 3 4 5 6 
#
# 1 56.7175 37.3869 9.6584 0.0000 2.6493 0.0000
# 2 37.3869 112.7618 25.7955 0.0000 -0.5425 0.0000
# 3 9.6584 25.7955 177.9805 0.0000 -1.4003 0.0000
# 4 0.0000 0.0000 0.0000 -14.9551 0.0000 -17.2301
# 5 2.6493 -0.5425 -1.4003 0.0000 45.9613 0.0000
# 6 0.0000 0.0000 0.0000 -17.2301 0.0000 2.2645
#
#
#
# Elastic Compliance Matrix: (Units=1/GPa)
#
#
# Indices 1 2 3 4 5 6 
#
# 1 0.022656 -0.007483 -0.000156 0.000000 -0.001399 0.000000
# 2 -0.007483 0.011644 -0.001277 0.000000 0.000530 0.000000
# 3 -0.000156 -0.001277 0.005814 0.000000 0.000171 0.000000
# 4 0.000000 0.000000 0.000000 -0.006847 0.000000 -0.052095
# 5 -0.001399 0.000530 0.000171 0.000000 0.021850 0.000000
# 6 0.000000 0.000000 0.000000 -0.052095 0.000000 0.045217
#
#
# Mechanical properties :
#
#
# Convention : Reuss Voigt Hill
#
# Bulk Modulus (GPa) = 44.88117 54.79350 49.83733
# Shear Modulus (GPa) = 39.81148 24.96206 32.38677
#
# Velocity S-wave (km/s) = 4.10443 3.25004 3.70197
# Velocity P-wave (km/s) = 6.43843 6.10489 6.27388
#
# Compressibility (1/GPa) = 0.02228106
#
# Stress axis : x y z
#
# Youngs Moduli (GPa) = 44.13929 85.88163 172.01231
#
# Poissons Ratio (x) = 0.64262 0.02683
# Poissons Ratio (y) = 0.33028 0.21973
# Poissons Ratio (z) = 0.00688 0.10970
#
# Static dielectric constant tensor:
#      x y z
#    x 2.077000 0.000000 -0.006860 
#    y 0.000000 1.872900 0.000000 
#    z -0.006860 0.000000 1.875230 
# 
# From -- ./inp_files/77991.got.cif
#   From: 2010.05.17/outbox.cif.g08.bks.cpg/sg15_39_cif.got.tgz:77991.got - 2010.06.03 18:47:42.
