data_PCOD9307500
_publ_section_title
;
Structure prediction by ZEFSAII (Michael W. Deem and Ramdas Pophale) SiO2 
 PCOD9307500
Probable space group: C 2/C
;
_chemical_formula_sum "Si O2"
_cell_formula_units_Z 40
_cell_length_a 21.674180
_cell_length_b 19.818613
_cell_length_c 7.679475
_cell_angle_alpha 90.000000
_cell_angle_beta 146.060530
_cell_angle_gamma 90.000000
_cell_volume 1841.739177
_symmetry_space_group_name_H-M "C 2/C"
_symmetry_group_IT_number 15
_symmetry_cell_setting 'monoclinic'
loop_
_space_group_symop_operation_xyz
x,y,z
-x,y,1/2-z
-x,-y,-z
x,-y,1/2+z
1/2+x,1/2+y,z
1/2-x,1/2+y,1/2-z
1/2-x,1/2-y,-z
1/2+x,1/2-y,1/2+z
loop_
_atom_site_type_symbol
_atom_site_label
_atom_site_fract_x
_atom_site_fract_y
_atom_site_fract_z
Si Si1 0.500000 0.388656 0.750000
Si Si2 0.500000 0.853810 0.250000
Si Si3 0.911011 0.151801 0.679458
Si Si4 0.738103 0.421163 0.190078
Si Si5 0.342297 0.212164 0.102792
Si Si6 0.708344 0.068537 0.088599
O O1 0.462178 0.347535 0.491966
O O2 0.390858 0.427830 0.558486
O O3 0.560549 0.810803 0.540933
O O4 0.593765 0.898313 0.376559
O O5 0.879598 0.228730 0.558860
O O6 0.804760 0.103415 0.428975
O O7 0.000000 0.125713 0.750000
O O8 0.789518 0.353539 0.391668
O O9 0.796089 0.488680 0.393684
O O10 0.756702 0.417305 0.027482
O O11 0.250000 0.250000 0.000000
#
# Coordination Sequence:
#
# PCOD9307500 Si02
#       6
#     4   4   8   8   8   8
#     4  12  23  46  78 106 155 190 248 320 365 434
#     4  12  27  50  76 104 155 200 244 314 367 450
#     4  12  26  46  74 115 147 199 249 312 376 443
#     4  12  28  47  74 111 146 201 253 309 375 447
#     4  12  26  47  73 110 150 194 251 301 375 449
#     4  12  28  49  75 109 150 197 257 304 379 446
#
# _framework density 21.718603000000002
#
# number of rings (size 3 to 8) (size 9 to 14) (size 15 to 20)
#    0.000    0.000    6.000    3.000    4.200    5.600 
#    0.000    0.000    0.000    0.000    0.000    0.000 
#    0.000    0.000    0.000    0.000    0.000    0.000 
#
# Total GULP energy -111961.807844 kJ/mol
# GULP energy per Si atom -5598.090392 kJ/mol
# Density = 2.166917 g / cm^3
# Si number density = 21.718603 Si / 1000 Ang^3
#
#
#
# Elastic Constant Matrix: (Units=GPa)
#
#
# Indices 1 2 3 4 5 6 
#
# 1 112.6582 9.1984 32.4857 0.0000 9.1097 0.0000
# 2 9.1984 119.7240 31.7865 0.0000 -4.9478 0.0000
# 3 32.4857 31.7865 95.0735 0.0000 2.5077 0.0000
# 4 0.0000 0.0000 0.0000 29.3214 0.0000 2.4415
# 5 9.1097 -4.9478 2.5077 0.0000 51.6725 0.0000
# 6 0.0000 0.0000 0.0000 2.4415 0.0000 29.3388
#
#
#
# Elastic Compliance Matrix: (Units=1/GPa)
#
#
# Indices 1 2 3 4 5 6 
#
# 1 0.009977 0.000068 -0.003390 0.000000 -0.001588 0.000000
# 2 0.000068 0.009221 -0.003133 0.000000 0.001023 0.000000
# 3 -0.003390 -0.003133 0.012732 0.000000 -0.000320 0.000000
# 4 0.000000 0.000000 0.000000 0.034343 0.000000 -0.002858
# 5 -0.001588 0.001023 -0.000320 0.000000 0.019746 0.000000
# 6 0.000000 0.000000 0.000000 -0.002858 0.000000 0.034322
#
#
# Mechanical properties :
#
#
# Convention : Reuss Voigt Hill
#
# Bulk Modulus (GPa) = 52.57531 52.71075 52.64303
# Shear Modulus (GPa) = 35.81861 38.99889 37.40875
#
# Velocity S-wave (km/s) = 4.06546 4.24210 4.15472
# Velocity P-wave (km/s) = 6.80421 6.95100 6.87800
#
# Compressibility (1/GPa) = 0.01902034
#
# Stress axis : x y z
#
# Youngs Moduli (GPa) = 100.23339 108.44246 78.53966
#
# Poissons Ratio (x) = -0.00736 0.26623
# Poissons Ratio (y) = -0.00680 0.24608
# Poissons Ratio (z) = 0.33977 0.33978
#
# Static dielectric constant tensor:
#      x y z
#    x 1.825620 0.000000 0.022680 
#    y 0.000000 1.784380 0.000000 
#    z 0.022680 0.000000 1.801780 
# 
# From -- ./inp_files/62889.got.cif
#   From: 2010.05.17/outbox.cif.g08.bks.cpg/sg15_32_cif.got.tgz:62889.got - 2010.06.03 18:47:42.
