data_PCOD9307398
_publ_section_title
;
Structure prediction by ZEFSAII (Michael W. Deem and Ramdas Pophale) SiO2 
 PCOD9307398
Probable space group: C 2/C
;
_chemical_formula_sum "Si O2"
_cell_formula_units_Z 56
_cell_length_a 6.534148
_cell_length_b 15.028131
_cell_length_c 24.429524
_cell_angle_alpha 90.000000
_cell_angle_beta 66.346490
_cell_angle_gamma 90.000000
_cell_volume 2197.348462
_symmetry_space_group_name_H-M "C 2/C"
_symmetry_group_IT_number 15
_symmetry_cell_setting 'monoclinic'
loop_
_space_group_symop_operation_xyz
x,y,z
-x,y,1/2-z
-x,-y,-z
x,-y,1/2+z
1/2+x,1/2+y,z
1/2-x,1/2+y,1/2-z
1/2-x,1/2-y,-z
1/2+x,1/2-y,1/2+z
loop_
_atom_site_type_symbol
_atom_site_label
_atom_site_fract_x
_atom_site_fract_y
_atom_site_fract_z
Si Si1 0.185461 0.054369 0.039621
Si Si2 0.313268 0.706199 0.811694
Si Si3 0.001652 0.543801 0.811694
Si Si4 0.398657 0.303808 0.573001
Si Si5 0.554323 0.195631 0.460379
Si Si6 0.632341 0.053808 0.073001
Si Si7 0.968667 0.875000 0.104222
O O1 0.422374 0.076794 0.049628
O O2 0.133396 0.952426 0.065973
O O3 0.904557 0.080654 0.066425
O O4 0.275964 0.034736 0.968642
O O5 0.500000 0.741014 0.750000
O O6 0.162094 0.780617 0.857205
O O7 0.434347 0.666393 0.851224
O O8 0.176090 0.625000 0.799273
O O9 0.016292 0.469383 0.857205
O O10 0.761980 0.583607 0.851224
O O11 0.000000 0.508986 0.750000
O O12 0.431891 0.215264 0.531358
O O13 0.678743 0.326794 0.549628
O O14 0.146168 0.330654 0.566425
O O15 0.581316 0.297574 0.434027
#
# Coordination Sequence:
#
# PCOD9307398 Si02
#       7
#     8   8   8   8   8   8   8
#     4  12  24  43  72 109 144 185 233 296 368 439
#     4  12  26  47  72 101 141 194 243 295 358 427
#     4  12  26  47  72 101 141 194 243 295 358 427
#     4  12  23  43  69 102 145 184 232 296 362 425
#     4  12  24  43  72 109 144 185 233 296 368 439
#     4  12  23  43  69 102 145 184 232 296 362 425
#     4  12  24  48  76 104 149 184 240 300 360 434
#
# _framework density 25.485261999999999
#
# number of rings (size 3 to 8) (size 9 to 14) (size 15 to 20)
#    0.000    0.000    5.714    6.000    0.000    0.571 
#    0.000    0.000    0.000    0.000    0.000    0.000 
#    0.000    0.000    0.000    0.000    0.000    0.000 
#
# Total GULP energy -156499.427299 kJ/mol
# GULP energy per Si atom -5589.265261 kJ/mol
# Density = 2.542726 g / cm^3
# Si number density = 25.485262 Si / 1000 Ang^3
#
#
#
# Elastic Constant Matrix: (Units=GPa)
#
#
# Indices 1 2 3 4 5 6 
#
# 1 162.5365 79.5209 42.3773 0.0000 1.9954 0.0000
# 2 79.5209 196.2727 82.5338 0.0000 -0.1361 0.0000
# 3 42.3773 82.5338 221.0252 0.0000 -4.6397 0.0000
# 4 0.0000 0.0000 0.0000 106.1304 0.0000 -0.6512
# 5 1.9954 -0.1361 -4.6397 0.0000 38.3144 0.0000
# 6 0.0000 0.0000 0.0000 -0.6512 0.0000 91.7369
#
#
#
# Elastic Compliance Matrix: (Units=1/GPa)
#
#
# Indices 1 2 3 4 5 6 
#
# 1 0.007707 -0.002963 -0.000381 0.000000 -0.000458 0.000000
# 2 -0.002963 0.007185 -0.002117 0.000000 -0.000077 0.000000
# 3 -0.000381 -0.002117 0.005402 0.000000 0.000666 0.000000
# 4 0.000000 0.000000 0.000000 0.009423 0.000000 0.000067
# 5 -0.000458 -0.000077 0.000666 0.000000 0.026204 0.000000
# 6 0.000000 0.000000 0.000000 0.000067 0.000000 0.010901
#
#
# Mechanical properties :
#
#
# Convention : Reuss Voigt Hill
#
# Bulk Modulus (GPa) = 106.68418 109.85536 108.26977
# Shear Modulus (GPa) = 61.82991 72.26317 67.04654
#
# Velocity S-wave (km/s) = 4.93089 5.33071 5.13469
# Velocity P-wave (km/s) = 8.62382 9.00487 8.81640
#
# Compressibility (1/GPa) = 0.00937346
#
# Stress axis : x y z
#
# Youngs Moduli (GPa) = 129.75452 139.17357 185.12348
#
# Poissons Ratio (x) = 0.41231 0.07053
# Poissons Ratio (y) = 0.38441 0.39184
# Poissons Ratio (z) = 0.04943 0.29458
#
# Static dielectric constant tensor:
#      x y z
#    x 2.146180 0.000000 0.009920 
#    y 0.000000 2.045390 0.000000 
#    z 0.009920 0.000000 1.926730 
# 
# From -- ./inp_files/228704.got.cif
#   From: 2010.05.17/outbox.cif.g08.bks.cpg/sg15_115_cif.got.tgz:228704.got - 2010.06.03 18:47:42.
