data_PCOD9307762
_publ_section_title
;
Structure prediction by ZEFSAII (Michael W. Deem and Ramdas Pophale) SiO2 
 PCOD9307762
Probable space group: C 2/C
;
_chemical_formula_sum "Si O2"
_cell_formula_units_Z 32
_cell_length_a 22.225951
_cell_length_b 7.189733
_cell_length_c 21.210470
_cell_angle_alpha 90.000000
_cell_angle_beta 21.977911
_cell_angle_gamma 90.000000
_cell_volume 1268.481642
_symmetry_space_group_name_H-M "C 2/C"
_symmetry_group_IT_number 15
_symmetry_cell_setting 'monoclinic'
loop_
_space_group_symop_operation_xyz
x,y,z
-x,y,1/2-z
-x,-y,-z
x,-y,1/2+z
1/2+x,1/2+y,z
1/2-x,1/2+y,1/2-z
1/2-x,1/2-y,-z
1/2+x,1/2-y,1/2+z
loop_
_atom_site_type_symbol
_atom_site_label
_atom_site_fract_x
_atom_site_fract_y
_atom_site_fract_z
Si Si1 0.461352 0.471587 0.357407
Si Si2 0.271839 0.216121 0.091691
Si Si3 0.641703 0.346570 0.355212
Si Si4 0.928264 0.619448 0.481332
O O1 0.500000 0.403403 0.250000
O O2 0.312525 0.614948 0.505438
O O3 0.385327 0.595830 0.270445
O O4 0.430060 0.298707 0.434022
O O5 0.279409 0.306916 0.154170
O O6 0.420807 0.067993 0.948440
O O7 0.500000 0.500000 0.500000
O O8 0.564677 0.161935 0.399659
O O9 0.769450 0.394954 0.178079
#
# Coordination Sequence:
#
# PCOD9307762 Si02
#       4
#     8   8   8   8
#     4  12  29  50  73 109 153 206 257 297 368 451
#     4  12  26  46  75 107 148 197 251 316 373 437
#     4  12  24  47  75 113 150 184 246 314 384 440
#     4  12  25  46  75 111 150 195 247 313 378 441
#
# _framework density 25.22701
#
# number of rings (size 3 to 8) (size 9 to 14) (size 15 to 20)
#    0.000    0.000    5.000    4.500    3.500    2.000 
#    0.000    0.000    0.000    0.000    0.000    0.000 
#    0.000    0.000    0.000    0.000    0.000    0.000 
#
# Total GULP energy -89663.983966 kJ/mol
# GULP energy per Si atom -5603.998998 kJ/mol
# Density = 2.516959 g / cm^3
# Si number density = 25.227010 Si / 1000 Ang^3
#
#
#
# Elastic Constant Matrix: (Units=GPa)
#
#
# Indices 1 2 3 4 5 6 
#
# 1 70.7976 31.6299 50.8187 -0.0004 11.5010 0.0002
# 2 31.6299 141.5659 49.4924 0.0000 26.5128 0.0000
# 3 50.8187 49.4924 113.5124 -0.0003 28.9148 0.0006
# 4 -0.0004 0.0000 -0.0003 50.6597 0.0007 -4.4893
# 5 11.5010 26.5128 28.9148 0.0007 37.8167 -0.0005
# 6 0.0002 0.0000 0.0006 -4.4893 -0.0005 39.2783
#
#
#
# Elastic Compliance Matrix: (Units=1/GPa)
#
#
# Indices 1 2 3 4 5 6 
#
# 1 0.021243 -0.001894 -0.009161 0.000000 0.001872 0.000000
# 2 -0.001894 0.008969 -0.001996 0.000000 -0.004185 0.000000
# 3 -0.009161 -0.001996 0.015791 0.000000 -0.007888 0.000000
# 4 0.000000 0.000000 0.000000 0.019942 0.000000 0.002279
# 5 0.001872 -0.004185 -0.007888 0.000000 0.034839 0.000001
# 6 0.000000 0.000000 0.000000 0.002279 0.000001 0.025720
#
#
# Mechanical properties :
#
#
# Convention : Reuss Voigt Hill
#
# Bulk Modulus (GPa) = 50.25400 65.52867 57.89134
# Shear Modulus (GPa) = 31.39916 38.47993 34.93954
#
# Velocity S-wave (km/s) = 3.53181 3.90981 3.72560
# Velocity P-wave (km/s) = 6.04942 6.81279 6.44242
#
# Compressibility (1/GPa) = 0.01989891
#
# Stress axis : x y z
#
# Youngs Moduli (GPa) = 47.07464 111.49707 63.32801
#
# Poissons Ratio (x) = 0.21118 0.58017
# Poissons Ratio (y) = 0.08916 0.12643
# Poissons Ratio (z) = 0.43127 0.22259
#
# Static dielectric constant tensor:
#      x y z
#    x 2.027650 0.000000 -0.067010 
#    y 0.000000 2.024250 0.000000 
#    z -0.067010 0.000000 2.042700 
# 
# From -- ./inp_files/213631.got.cif
#   From: 2010.05.17/outbox.cif.g08.bks.cpg/sg15_107_cif.got.tgz:213631.got - 2010.06.03 18:47:42.
