data_PCOD9307270
_publ_section_title
;
Structure prediction by ZEFSAII (Michael W. Deem and Ramdas Pophale) SiO2 
 PCOD9307270
Probable space group: C 2/C
;
_chemical_formula_sum "Si O2"
_cell_formula_units_Z 36
_cell_length_a 12.501280
_cell_length_b 4.787989
_cell_length_c 23.249213
_cell_angle_alpha 90.000000
_cell_angle_beta 78.617853
_cell_angle_gamma 90.000000
_cell_volume 1364.235602
_symmetry_space_group_name_H-M "C 2/C"
_symmetry_group_IT_number 15
_symmetry_cell_setting 'monoclinic'
loop_
_space_group_symop_operation_xyz
x,y,z
-x,y,1/2-z
-x,-y,-z
x,-y,1/2+z
1/2+x,1/2+y,z
1/2-x,1/2+y,1/2-z
1/2-x,1/2-y,-z
1/2+x,1/2-y,1/2+z
loop_
_atom_site_type_symbol
_atom_site_label
_atom_site_fract_x
_atom_site_fract_y
_atom_site_fract_z
Si Si1 0.500000 0.620143 0.750000
Si Si2 0.302642 0.533296 0.468850
Si Si3 0.049982 0.219936 0.968499
Si Si4 0.793165 0.109956 0.839580
Si Si5 0.644033 0.615419 0.838802
O O1 0.397430 0.743535 0.796186
O O2 0.569502 0.494055 0.795429
O O3 0.250000 0.250000 0.500000
O O4 0.185673 0.735042 0.474576
O O5 0.435599 0.487046 0.475492
O O6 0.324884 0.514938 0.397664
O O7 0.072672 0.243893 0.897485
O O8 0.000000 0.500000 0.000000
O O9 0.708647 0.357548 0.858618
O O10 0.730311 0.859460 0.812364
#
# Coordination Sequence:
#
# PCOD9307270 Si02
#       5
#     4   8   8   8   8
#     4  12  30  50  78 110 150 204 272 308 382 462
#     4  12  22  44  73 104 146 192 241 307 394 457
#     4  12  24  42  72 110 147 192 250 314 383 466
#     4  12  26  50  77 111 152 201 255 319 385 461
#     4  12  27  50  75 109 156 200 254 321 384 460
#
# _framework density 26.388403
#
# number of rings (size 3 to 8) (size 9 to 14) (size 15 to 20)
#    0.000    0.000    4.444    5.333    0.000    5.333 
#    0.000    0.000    0.000    0.000    0.000    0.000 
#    0.000    0.000    0.000    0.000    0.000    0.000 
#
# Total GULP energy -100573.391343 kJ/mol
# GULP energy per Si atom -5587.410630 kJ/mol
# Density = 2.632834 g / cm^3
# Si number density = 26.388403 Si / 1000 Ang^3
#
#
#
# Elastic Constant Matrix: (Units=GPa)
#
#
# Indices 1 2 3 4 5 6 
#
# 1 152.6490 11.6092 76.1403 0.0000 37.8118 0.0000
# 2 11.6092 126.2549 17.2473 0.0001 3.7190 0.0001
# 3 76.1403 17.2473 165.1944 0.0001 0.9058 0.0001
# 4 0.0000 0.0001 0.0001 10.4542 0.0001 -4.8167
# 5 37.8118 3.7190 0.9058 0.0001 60.6818 0.0000
# 6 0.0000 0.0001 0.0001 -4.8167 0.0000 48.3357
#
#
#
# Elastic Compliance Matrix: (Units=1/GPa)
#
#
# Indices 1 2 3 4 5 6 
#
# 1 0.010583 -0.000121 -0.004829 0.000000 -0.006515 0.000000
# 2 -0.000121 0.008050 -0.000782 0.000000 -0.000406 0.000000
# 3 -0.004829 -0.000782 0.008345 0.000000 0.002933 0.000000
# 4 0.000000 0.000000 0.000000 0.100259 0.000000 0.009991
# 5 -0.006515 -0.000406 0.002933 0.000000 0.020520 0.000000
# 6 0.000000 0.000000 0.000000 0.009991 0.000000 0.021684
#
#
# Mechanical properties :
#
#
# Convention : Reuss Voigt Hill
#
# Bulk Modulus (GPa) = 64.46615 72.67688 68.57151
# Shear Modulus (GPa) = 26.87043 46.50110 36.68577
#
# Velocity S-wave (km/s) = 3.19449 4.20239 3.73261
# Velocity P-wave (km/s) = 6.17164 7.15176 6.67970
#
# Compressibility (1/GPa) = 0.01551202
#
# Stress axis : x y z
#
# Youngs Moduli (GPa) = 94.49293 124.21614 119.83245
#
# Poissons Ratio (x) = 0.01509 0.57871
# Poissons Ratio (y) = 0.01148 0.09375
# Poissons Ratio (z) = 0.45634 0.09718
#
# Static dielectric constant tensor:
#      x y z
#    x -4.123520 0.000080 11.269990 
#    y 0.000080 3.509860 -0.000140 
#    z 11.269990 -0.000140 -18.136850 
# 
# From -- ./inp_files/290435.got.cif
#   From: 2010.05.17/outbox.cif.g08.bks.cpg/sg15_146_cif.got.tgz:290435.got - 2010.06.03 18:47:42.
