data_PCOD9307431
_publ_section_title
;
Structure prediction by ZEFSAII (Michael W. Deem and Ramdas Pophale) SiO2 
 PCOD9307431
Probable space group: C 2/C
;
_chemical_formula_sum "Si O2"
_cell_formula_units_Z 52
_cell_length_a 17.397796
_cell_length_b 18.044283
_cell_length_c 9.575046
_cell_angle_alpha 90.000000
_cell_angle_beta 121.755803
_cell_angle_gamma 90.000000
_cell_volume 2555.914743
_symmetry_space_group_name_H-M "C 2/C"
_symmetry_group_IT_number 15
_symmetry_cell_setting 'monoclinic'
loop_
_space_group_symop_operation_xyz
x,y,z
-x,y,1/2-z
-x,-y,-z
x,-y,1/2+z
1/2+x,1/2+y,z
1/2-x,1/2+y,1/2-z
1/2-x,1/2-y,-z
1/2+x,1/2-y,1/2+z
loop_
_atom_site_type_symbol
_atom_site_label
_atom_site_fract_x
_atom_site_fract_y
_atom_site_fract_z
Si Si1 0.893076 0.065810 0.126095
Si Si2 0.386646 0.941163 0.815316
Si Si3 0.753886 0.817812 0.397142
Si Si4 0.672959 0.743161 0.043825
Si Si5 0.000000 0.324455 0.750000
Si Si6 0.092159 0.417352 0.343434
Si Si7 0.673830 0.427387 0.618664
O O1 0.847480 0.060390 0.237018
O O2 0.000000 0.076678 0.250000
O O3 0.846437 0.135093 0.999531
O O4 0.875005 0.990719 0.020087
O O5 0.446345 0.875062 0.810201
O O6 0.280219 0.933204 0.684706
O O7 0.420076 0.014904 0.773050
O O8 0.393209 0.944937 0.986919
O O9 0.750000 0.750000 0.500000
O O10 0.720034 0.785869 0.217929
O O11 0.678244 0.874171 0.376009
O O12 0.651501 0.657836 0.061545
O O13 0.750000 0.750000 0.000000
O O14 0.579033 0.779268 0.903284
O O15 0.000000 0.370490 0.250000
#
# Coordination Sequence:
#
# PCOD9307431 Si02
#       7
#     8   8   8   8   4   8   8
#     4  12  28  49  79 108 147 198 257 310 373 456
#     4  12  23  44  70 106 143 188 250 298 371 457
#     4  12  26  50  72 107 150 190 247 309 379 441
#     4  12  28  47  75 107 156 203 245 316 377 447
#     4  12  28  44  74 114 150 198 258 308 384 450
#     4  12  25  41  72 105 144 189 238 306 372 448
#     4  12  25  51  71 108 145 198 249 303 378 436
#
# _framework density 20.344967
#
# number of rings (size 3 to 8) (size 9 to 14) (size 15 to 20)
#    0.000    0.000    6.923    1.846    5.385    1.846 
#    0.000    0.000    0.000    0.000    0.000    0.000 
#    0.000    0.000    0.000    0.000    0.000    0.000 
#
# Total GULP energy -145375.031152 kJ/mol
# GULP energy per Si atom -5591.347352 kJ/mol
# Density = 2.029866 g / cm^3
# Si number density = 20.344967 Si / 1000 Ang^3
#
#
#
# Elastic Constant Matrix: (Units=GPa)
#
#
# Indices 1 2 3 4 5 6 
#
# 1 117.0236 42.0951 67.2398 0.0000 20.2054 0.0000
# 2 42.0951 142.3472 86.4414 0.0000 5.5756 0.0000
# 3 67.2398 86.4414 161.8498 0.0000 0.2922 0.0000
# 4 0.0000 0.0000 0.0000 41.0794 0.0000 -4.3765
# 5 20.2054 5.5756 0.2922 0.0000 62.1662 0.0000
# 6 0.0000 0.0000 0.0000 -4.3765 0.0000 24.6557
#
#
#
# Elastic Compliance Matrix: (Units=1/GPa)
#
#
# Indices 1 2 3 4 5 6 
#
# 1 0.012137 -0.000562 -0.004735 0.000000 -0.003872 0.000000
# 2 -0.000562 0.010475 -0.005359 0.000000 -0.000732 0.000000
# 3 -0.004735 -0.005359 0.011005 0.000000 0.001968 0.000000
# 4 0.000000 0.000000 0.000000 0.024812 0.000000 0.004404
# 5 -0.003872 -0.000732 0.001968 0.000000 0.017401 0.000000
# 6 0.000000 0.000000 0.000000 0.004404 0.000000 0.041340
#
#
# Mechanical properties :
#
#
# Convention : Reuss Voigt Hill
#
# Bulk Modulus (GPa) = 81.28248 90.30812 85.79530
# Shear Modulus (GPa) = 35.06730 40.60987 37.83858
#
# Velocity S-wave (km/s) = 4.15617 4.47258 4.31728
# Velocity P-wave (km/s) = 7.94170 8.43545 8.19229
#
# Compressibility (1/GPa) = 0.01230277
#
# Stress axis : x y z
#
# Youngs Moduli (GPa) = 82.39522 95.46987 90.87181
#
# Poissons Ratio (x) = 0.05366 0.43027
# Poissons Ratio (y) = 0.04631 0.48702
# Poissons Ratio (z) = 0.39014 0.51166
#
# Static dielectric constant tensor:
#      x y z
#    x 1.723850 0.000000 0.024780 
#    y 0.000000 1.703040 0.000000 
#    z 0.024780 0.000000 1.730060 
# 
# From -- ./inp_files/49219.got.cif
#   From: 2010.05.17/outbox.cif.g08.bks.cpg/sg15_25_cif.got.tgz:49219.got - 2010.06.03 18:47:42.
