data_PCOD9307565
_publ_section_title
;
Structure prediction by ZEFSAII (Michael W. Deem and Ramdas Pophale) SiO2 
 PCOD9307565
Probable space group: C 2/C
;
_chemical_formula_sum "Si O2"
_cell_formula_units_Z 60
_cell_length_a 11.693715
_cell_length_b 19.468294
_cell_length_c 17.537500
_cell_angle_alpha 90.000000
_cell_angle_beta 143.729437
_cell_angle_gamma 90.000000
_cell_volume 2361.976342
_symmetry_space_group_name_H-M "C 2/C"
_symmetry_group_IT_number 15
_symmetry_cell_setting 'monoclinic'
loop_
_space_group_symop_operation_xyz
x,y,z
-x,y,1/2-z
-x,-y,-z
x,-y,1/2+z
1/2+x,1/2+y,z
1/2-x,1/2+y,1/2-z
1/2-x,1/2-y,-z
1/2+x,1/2-y,1/2+z
loop_
_atom_site_type_symbol
_atom_site_label
_atom_site_fract_x
_atom_site_fract_y
_atom_site_fract_z
Si Si1 0.912569 0.777937 0.428397
Si Si2 0.946087 0.919718 0.974548
Si Si3 0.274283 0.408398 0.181276
Si Si4 0.841910 0.247463 0.723536
Si Si5 0.750000 0.750000 0.500000
Si Si6 0.670020 0.049516 0.457752
Si Si7 0.827262 0.400064 0.990820
Si Si8 0.275118 0.441063 0.731172
O O1 0.907547 0.861084 0.418290
O O2 0.128636 0.762060 0.576504
O O3 0.874420 0.736047 0.330022
O O4 0.768524 0.754218 0.415997
O O5 0.762251 0.916925 0.932926
O O6 0.894182 0.902212 0.859260
O O7 0.000000 0.000000 0.000000
O O8 0.368021 0.334802 0.241096
O O9 0.341255 0.479219 0.256753
O O10 0.267801 0.422915 0.087460
O O11 0.053888 0.399531 0.091156
O O12 0.000000 0.276150 0.750000
O O13 0.775782 0.667258 0.508066
O O14 0.442362 0.058324 0.351518
O O15 0.706476 0.967971 0.477474
O O16 0.725771 0.410489 0.853983
#
# Coordination Sequence:
#
# PCOD9307565 Si02
#       8
#     8   8   8   8   4   8   8   8
#     4  12  30  46  73 106 144 202 237 303 370 434
#     4  12  24  41  61 102 139 172 238 300 366 417
#     4   9  18  40  67  99 132 183 235 292 360 433
#     4  12  26  49  72 105 145 189 251 299 368 438
#     4  12  24  48  70 100 152 188 250 300 350 458
#     4   9  19  38  68  97 132 180 230 300 361 434
#     4   9  19  39  67 101 133 189 236 288 363 433
#     4   9  20  37  68  97 135 174 239 288 365 437
#
# _framework density 25.402453999999999
#
# number of rings (size 3 to 8) (size 9 to 14) (size 15 to 20)
#    0.000    1.600    1.333    4.800    1.867    1.600 
#    0.000    6.000    0.000    0.000    0.000    0.000 
#    0.000    0.000    0.000    0.000    0.000    0.000 
#
# Total GULP energy -167523.119577 kJ/mol
# GULP energy per Si atom -5584.103986 kJ/mol
# Density = 2.534464 g / cm^3
# Si number density = 25.402454 Si / 1000 Ang^3
#
#
#
# Elastic Constant Matrix: (Units=GPa)
#
#
# Indices 1 2 3 4 5 6 
#
# 1 131.9103 10.7045 31.8818 0.0009 -13.4930 0.0000
# 2 10.7045 98.4769 -1.5555 0.0005 1.3014 0.0000
# 3 31.8818 -1.5555 72.1773 0.0022 -23.7522 0.0002
# 4 0.0009 0.0005 0.0022 22.9349 0.0010 -4.6849
# 5 -13.4930 1.3014 -23.7522 0.0010 35.5517 0.0000
# 6 0.0000 0.0000 0.0002 -4.6849 0.0000 20.6415
#
#
#
# Elastic Compliance Matrix: (Units=1/GPa)
#
#
# Indices 1 2 3 4 5 6 
#
# 1 0.008608 -0.001004 -0.003508 0.000000 0.000960 0.000000
# 2 -0.001004 0.010278 0.000533 0.000000 -0.000401 0.000000
# 3 -0.003508 0.000533 0.019191 -0.000002 0.011470 -0.000001
# 4 0.000000 0.000000 -0.000002 0.045721 -0.000003 0.010377
# 5 0.000960 -0.000401 0.011470 -0.000003 0.036170 -0.000001
# 6 0.000000 0.000000 -0.000001 0.010377 -0.000001 0.050801
#
#
# Mechanical properties :
#
#
# Convention : Reuss Voigt Hill
#
# Bulk Modulus (GPa) = 33.20249 42.73624 37.96937
# Shear Modulus (GPa) = 26.48763 33.26120 29.87442
#
# Velocity S-wave (km/s) = 3.23262 3.62245 3.43307
# Velocity P-wave (km/s) = 5.19924 5.86143 5.54024
#
# Compressibility (1/GPa) = 0.03011822
#
# Stress axis : x y z
#
# Youngs Moduli (GPa) = 116.16448 97.29986 52.10911
#
# Poissons Ratio (x) = 0.09767 0.18281
# Poissons Ratio (y) = 0.11661 -0.02777
# Poissons Ratio (z) = 0.40752 -0.05185
#
# Static dielectric constant tensor:
#      x y z
#    x 1.983480 0.000000 0.038170 
#    y 0.000000 1.965830 0.000000 
#    z 0.038170 0.000000 2.049780 
# 
# From -- ./inp_files/200545.got.cif
#   From: 2010.05.17/outbox.cif.g08.bks.cpg/sg15_101_cif.got.tgz:200545.got - 2010.06.03 18:47:42.
