data_PCOD9307249
_publ_section_title
;
Structure prediction by ZEFSAII (Michael W. Deem and Ramdas Pophale) SiO2 
 PCOD9307249
Probable space group: C 2/C
;
_chemical_formula_sum "Si O2"
_cell_formula_units_Z 44
_cell_length_a 27.019630
_cell_length_b 8.961185
_cell_length_c 8.942463
_cell_angle_alpha 90.000000
_cell_angle_beta 111.953626
_cell_angle_gamma 90.000000
_cell_volume 2008.212688
_symmetry_space_group_name_H-M "C 2/C"
_symmetry_group_IT_number 15
_symmetry_cell_setting 'monoclinic'
loop_
_space_group_symop_operation_xyz
x,y,z
-x,y,1/2-z
-x,-y,-z
x,-y,1/2+z
1/2+x,1/2+y,z
1/2-x,1/2+y,1/2-z
1/2-x,1/2-y,-z
1/2+x,1/2-y,1/2+z
loop_
_atom_site_type_symbol
_atom_site_label
_atom_site_fract_x
_atom_site_fract_y
_atom_site_fract_z
Si Si1 0.000000 0.249837 0.750000
Si Si2 0.159788 0.086952 0.251327
Si Si3 0.095255 0.593164 0.214114
Si Si4 0.396883 0.204998 0.606139
Si Si5 0.553560 0.506299 0.467134
Si Si6 0.189751 0.795832 0.462088
O O1 0.034922 0.344998 0.673888
O O2 0.046165 0.139267 0.858747
O O3 0.152097 0.206499 0.375023
O O4 0.184600 0.942809 0.354243
O O5 0.103028 0.023617 0.129487
O O6 0.183991 0.159538 0.130056
O O7 0.090136 0.421529 0.258414
O O8 0.142834 0.678118 0.360536
O O9 0.110381 0.620763 0.058963
O O10 0.437664 0.340375 0.612534
O O11 0.500000 0.500000 0.500000
O O12 0.250000 0.750000 0.500000
#
# Coordination Sequence:
#
# PCOD9307249 Si02
#       6
#     4   8   8   8   8   8
#     4  12  24  44  76 106 152 192 256 310 372 460
#     4  12  24  49  76 108 145 201 259 309 379 468
#     4  12  26  47  67 116 148 197 251 316 390 441
#     4  12  26  46  75 103 160 190 253 320 377 463
#     4  12  22  43  76 108 145 201 254 300 377 457
#     4  12  26  49  77 110 152 197 262 320 377 462
#
# _framework density 21.910031
#
# number of rings (size 3 to 8) (size 9 to 14) (size 15 to 20)
#    0.000    0.000    7.273    2.182    0.000    5.818 
#    0.000    2.727    0.000    0.000    0.000    0.000 
#    0.000    0.000    0.000    0.000    0.000    0.000 
#
# Total GULP energy -122866.526186 kJ/mol
# GULP energy per Si atom -5584.842099 kJ/mol
# Density = 2.186016 g / cm^3
# Si number density = 21.910031 Si / 1000 Ang^3
#
#
#
# Elastic Constant Matrix: (Units=GPa)
#
#
# Indices 1 2 3 4 5 6 
#
# 1 145.6887 49.6054 55.1555 0.0000 -24.6700 0.0000
# 2 49.6054 111.1336 27.9471 0.0000 8.8515 0.0000
# 3 55.1555 27.9471 83.3019 0.0000 -13.4226 0.0000
# 4 0.0000 0.0000 0.0000 40.9340 0.0000 -14.7901
# 5 -24.6700 8.8515 -13.4226 0.0000 16.6634 0.0000
# 6 0.0000 0.0000 0.0000 -14.7901 0.0000 1.8357
#
#
#
# Elastic Compliance Matrix: (Units=1/GPa)
#
#
# Indices 1 2 3 4 5 6 
#
# 1 0.014554 -0.007425 -0.003491 0.000000 0.022678 0.000000
# 2 -0.007425 0.014966 -0.003628 0.000000 -0.021864 0.000000
# 3 -0.003491 -0.003628 0.017250 0.000000 0.010654 0.000000
# 4 0.000000 0.000000 0.000000 -0.012783 0.000000 -0.102991
# 5 0.022678 -0.021864 0.010654 0.000000 0.113783 0.000000
# 6 0.000000 0.000000 0.000000 -0.102991 0.000000 -0.285044
#
#
# Mechanical properties :
#
#
# Convention : Reuss Voigt Hill
#
# Bulk Modulus (GPa) = 56.55454 67.28225 61.91839
# Shear Modulus (GPa) = -48.87937 25.71437 -11.58250
#
# Velocity S-wave (km/s) = -4.72838 3.42955 -2.30171
# Velocity P-wave (km/s) = 1.98542 6.81598 4.61062
#
# Compressibility (1/GPa) = 0.01768205
#
# Stress axis : x y z
#
# Youngs Moduli (GPa) = 68.71014 66.81806 57.97113
#
# Poissons Ratio (x) = 0.49610 0.20239
# Poissons Ratio (y) = 0.51014 0.21032
# Poissons Ratio (z) = 0.23988 0.24242
#
# Static dielectric constant tensor:
#      x y z
#    x 1.785890 0.000000 -0.011580 
#    y 0.000000 1.900780 0.000000 
#    z -0.011580 0.000000 2.623400 
# 
# From -- ./inp_files/68412.got.cif
#   From: 2010.05.17/outbox.cif.g08.bks.cpg/sg15_35_cif.got.tgz:68412.got - 2010.06.03 18:47:42.
