data_PCOD9307629
_publ_section_title
;
Structure prediction by ZEFSAII (Michael W. Deem and Ramdas Pophale) SiO2 
 PCOD9307629
Probable space group: C 2/C
;
_chemical_formula_sum "Si O2"
_cell_formula_units_Z 60
_cell_length_a 22.950306
_cell_length_b 8.565905
_cell_length_c 26.892939
_cell_angle_alpha 90.000000
_cell_angle_beta 31.148058
_cell_angle_gamma 90.000000
_cell_volume 2734.649311
_symmetry_space_group_name_H-M "C 2/C"
_symmetry_group_IT_number 15
_symmetry_cell_setting 'monoclinic'
loop_
_space_group_symop_operation_xyz
x,y,z
-x,y,1/2-z
-x,-y,-z
x,-y,1/2+z
1/2+x,1/2+y,z
1/2-x,1/2+y,1/2-z
1/2-x,1/2-y,-z
1/2+x,1/2-y,1/2+z
loop_
_atom_site_type_symbol
_atom_site_label
_atom_site_fract_x
_atom_site_fract_y
_atom_site_fract_z
Si Si1 0.165579 0.153093 0.176927
Si Si2 0.167764 0.785352 0.513359
Si Si3 0.121308 0.295339 0.584113
Si Si4 0.000000 0.918252 0.250000
Si Si5 0.104344 0.902920 0.008562
Si Si6 0.346378 0.471313 0.211624
Si Si7 0.777709 0.619719 0.290807
Si Si8 0.478699 0.918572 0.190554
O O1 0.287224 0.189995 0.066868
O O2 0.098470 0.315289 0.217046
O O3 0.104458 0.024160 0.188640
O O4 0.162931 0.089290 0.234775
O O5 0.250000 0.750000 0.500000
O O6 0.044874 0.718303 0.614089
O O7 0.158161 0.966212 0.505874
O O8 0.250000 0.250000 0.500000
O O9 0.104632 0.260527 0.538092
O O10 0.038484 0.183040 0.675379
O O11 0.079206 0.464699 0.631907
O O12 0.974493 0.953975 0.097885
O O13 0.181779 0.892457 0.903538
O O14 0.269360 0.536844 0.223929
O O15 0.307190 0.299962 0.258439
O O16 0.888808 0.526976 0.227777
#
# Coordination Sequence:
#
# PCOD9307629 Si02
#       8
#     8   8   8   4   8   8   8   8
#     4  12  24  45  73 105 147 191 242 298 365 434
#     4  12  26  44  71 109 152 193 241 294 361 448
#     4  12  27  42  70 106 151 190 245 293 361 435
#     4  12  24  44  68 102 150 202 228 304 356 422
#     4  12  25  50  71 108 147 188 241 303 364 437
#     4  12  27  52  74 107 145 185 251 306 375 435
#     4  12  28  49  79 103 140 192 246 313 368 436
#     4  12  24  47  72 107 144 191 247 298 362 436
#
# _framework density 21.940656000000001
#
# number of rings (size 3 to 8) (size 9 to 14) (size 15 to 20)
#    0.000    0.000    5.333    4.400    5.600    1.600 
#    0.000    1.333    0.000    0.000    0.000    0.000 
#    0.000    0.000    0.000    0.000    0.000    0.000 
#
# Total GULP energy -167835.898693 kJ/mol
# GULP energy per Si atom -5594.529956 kJ/mol
# Density = 2.189072 g / cm^3
# Si number density = 21.940656 Si / 1000 Ang^3
#
#
#
# Elastic Constant Matrix: (Units=GPa)
#
#
# Indices 1 2 3 4 5 6 
#
# 1 75.0101 37.7533 35.3948 -0.0007 -1.1954 0.0007
# 2 37.7533 112.4013 17.8599 0.0000 8.8029 -0.0018
# 3 35.3948 17.8599 105.6165 0.0007 1.4281 -0.0008
# 4 -0.0007 0.0000 0.0007 26.4564 -0.0003 -12.0268
# 5 -1.1954 8.8029 1.4281 -0.0003 34.0844 0.0001
# 6 0.0007 -0.0018 -0.0008 -12.0268 0.0001 35.7668
#
#
#
# Elastic Compliance Matrix: (Units=1/GPa)
#
#
# Indices 1 2 3 4 5 6 
#
# 1 0.018725 -0.005621 -0.005356 0.000000 0.002333 -0.000001
# 2 -0.005621 0.011013 0.000063 0.000000 -0.003044 0.000001
# 3 -0.005356 0.000063 0.011262 0.000000 -0.000676 0.000000
# 4 0.000000 0.000000 0.000000 0.044618 0.000000 0.015003
# 5 0.002333 -0.003044 -0.000676 0.000000 0.030235 0.000000
# 6 -0.000001 0.000001 0.000000 0.015003 0.000000 0.033004
#
#
# Mechanical properties :
#
#
# Convention : Reuss Voigt Hill
#
# Bulk Modulus (GPa) = 52.16310 52.78266 52.47288
# Shear Modulus (GPa) = 28.23622 32.72951 30.48286
#
# Velocity S-wave (km/s) = 3.59128 3.86648 3.73142
# Velocity P-wave (km/s) = 6.40489 6.63642 6.52169
#
# Compressibility (1/GPa) = 0.01917064
#
# Stress axis : x y z
#
# Youngs Moduli (GPa) = 53.40351 90.80055 88.79550
#
# Poissons Ratio (x) = 0.51040 0.47562
# Poissons Ratio (y) = 0.30018 -0.00556
# Poissons Ratio (z) = 0.28605 -0.00568
#
# Static dielectric constant tensor:
#      x y z
#    x 1.803610 0.000000 0.010680 
#    y 0.000000 1.823080 0.000000 
#    z 0.010680 0.000000 1.783710 
# 
# From -- ./inp_files/302064.got.cif
#   From: 2010.05.17/outbox.cif.g08.bks.cpg/sg15_152_cif.got.tgz:302064.got - 2010.06.03 18:47:42.
