data_PCOD9307463
_publ_section_title
;
Structure prediction by ZEFSAII (Michael W. Deem and Ramdas Pophale) SiO2 
 PCOD9307463
Probable space group: C 2/C
;
_chemical_formula_sum "Si O2"
_cell_formula_units_Z 40
_cell_length_a 14.625313
_cell_length_b 11.982917
_cell_length_c 10.402807
_cell_angle_alpha 90.000000
_cell_angle_beta 85.525475
_cell_angle_gamma 90.000000
_cell_volume 1817.575931
_symmetry_space_group_name_H-M "C 2/C"
_symmetry_group_IT_number 15
_symmetry_cell_setting 'monoclinic'
loop_
_space_group_symop_operation_xyz
x,y,z
-x,y,1/2-z
-x,-y,-z
x,-y,1/2+z
1/2+x,1/2+y,z
1/2-x,1/2+y,1/2-z
1/2-x,1/2-y,-z
1/2+x,1/2-y,1/2+z
loop_
_atom_site_type_symbol
_atom_site_label
_atom_site_fract_x
_atom_site_fract_y
_atom_site_fract_z
Si Si1 0.143140 0.293292 0.011455
Si Si2 0.451291 0.572883 0.393840
Si Si3 0.898078 0.262567 0.765053
Si Si4 0.725618 0.452685 0.183500
Si Si5 0.332663 0.031723 0.414461
O O1 0.072042 0.197614 0.058982
O O2 0.128206 0.406222 0.092099
O O3 0.250000 0.250000 0.000000
O O4 0.121632 0.320470 0.867388
O O5 0.500000 0.571164 0.250000
O O6 0.500000 0.500000 0.500000
O O7 0.352472 0.521754 0.378800
O O8 0.820938 0.167592 0.786910
O O9 0.891712 0.361578 0.868055
O O10 0.000000 0.211197 0.750000
O O11 0.754090 0.515261 0.312226
O O12 0.801359 0.444997 0.063914
#
# Coordination Sequence:
#
# PCOD9307463 Si02
#       5
#     8   8   8   8   8
#     4  12  23  47  71  98 144 187 229 288 349 420
#     4  12  25  44  73 108 140 179 236 296 352 403
#     4  12  26  45  69 104 142 176 234 297 349 407
#     4  12  23  45  73 100 135 187 236 282 342 426
#     4  12  25  45  74  99 139 186 238 278 352 425
#
# _framework density 22.007332999999999
#
# number of rings (size 3 to 8) (size 9 to 14) (size 15 to 20)
#    0.000    0.000    6.000    4.800    0.000    1.600 
#    7.200    0.000    0.000    0.000    0.000    0.000 
#    0.000    0.000    0.000    0.000    0.000    0.000 
#
# Total GULP energy -111724.226992 kJ/mol
# GULP energy per Si atom -5586.211350 kJ/mol
# Density = 2.195724 g / cm^3
# Si number density = 22.007333 Si / 1000 Ang^3
#
#
#
# Elastic Constant Matrix: (Units=GPa)
#
#
# Indices 1 2 3 4 5 6 
#
# 1 36.2122 11.3948 13.7133 0.0000 -2.2554 0.0000
# 2 11.3948 107.4157 -2.2142 0.0000 -20.1612 0.0000
# 3 13.7133 -2.2142 85.0950 0.0000 -12.1717 0.0000
# 4 0.0000 0.0000 0.0000 51.1255 0.0000 0.7617
# 5 -2.2554 -20.1612 -12.1717 0.0000 33.9991 0.0000
# 6 0.0000 0.0000 0.0000 0.7617 0.0000 39.3558
#
#
#
# Elastic Compliance Matrix: (Units=1/GPa)
#
#
# Indices 1 2 3 4 5 6 
#
# 1 0.030692 -0.003762 -0.005345 0.000000 -0.002108 0.000000
# 2 -0.003762 0.011059 0.001893 0.000000 0.006986 0.000000
# 3 -0.005345 0.001893 0.013461 0.000000 0.005587 0.000000
# 4 0.000000 0.000000 0.000000 0.019565 0.000000 -0.000379
# 5 -0.002108 0.006986 0.005587 0.000000 0.035416 0.000000
# 6 0.000000 0.000000 0.000000 -0.000379 0.000000 0.025417
#
#
# Mechanical properties :
#
#
# Convention : Reuss Voigt Hill
#
# Bulk Modulus (GPa) = 24.51935 30.50118 27.51027
# Shear Modulus (GPa) = 30.55632 38.61801 34.58716
#
# Velocity S-wave (km/s) = 3.73025 4.19355 3.96867
# Velocity P-wave (km/s) = 5.45148 6.11044 5.79034
#
# Compressibility (1/GPa) = 0.04078411
#
# Stress axis : x y z
#
# Youngs Moduli (GPa) = 32.58216 90.42456 74.28610
#
# Poissons Ratio (x) = 0.34015 0.39710
# Poissons Ratio (y) = 0.12256 -0.14064
# Poissons Ratio (z) = 0.17417 -0.17120
#
# Static dielectric constant tensor:
#      x y z
#    x 1.968420 0.000000 -0.428290 
#    y 0.000000 2.050980 0.000000 
#    z -0.428290 0.000000 3.252600 
# 
# From -- ./inp_files/46048.got.cif
#   From: 2010.05.17/outbox.cif.g08.bks.cpg/sg15_24_cif.got.tgz:46048.got - 2010.06.03 18:47:42.
