data_PCOD9307432
_publ_section_title
;
Structure prediction by ZEFSAII (Michael W. Deem and Ramdas Pophale) SiO2 
 PCOD9307432
Probable space group: C 2/C
;
_chemical_formula_sum "Si O2"
_cell_formula_units_Z 40
_cell_length_a 11.573247
_cell_length_b 24.437522
_cell_length_c 11.508496
_cell_angle_alpha 90.000000
_cell_angle_beta 150.183870
_cell_angle_gamma 90.000000
_cell_volume 1618.370701
_symmetry_space_group_name_H-M "C 2/C"
_symmetry_group_IT_number 15
_symmetry_cell_setting 'monoclinic'
loop_
_space_group_symop_operation_xyz
x,y,z
-x,y,1/2-z
-x,-y,-z
x,-y,1/2+z
1/2+x,1/2+y,z
1/2-x,1/2+y,1/2-z
1/2-x,1/2-y,-z
1/2+x,1/2-y,1/2+z
loop_
_atom_site_type_symbol
_atom_site_label
_atom_site_fract_x
_atom_site_fract_y
_atom_site_fract_z
Si Si1 0.854070 0.301248 0.021339
Si Si2 0.500000 0.019632 0.250000
Si Si3 0.500000 0.387524 0.750000
Si Si4 0.265142 0.387570 0.098742
Si Si5 0.309970 0.545269 0.870263
Si Si6 0.948140 0.724678 0.052280
O O1 0.000000 0.330672 0.250000
O O2 0.990368 0.278069 0.031317
O O3 0.750000 0.250000 0.000000
O O4 0.665087 0.346015 0.822660
O O5 0.703184 0.060613 0.465092
O O6 0.426389 0.985011 0.297746
O O7 0.383721 0.425486 0.553314
O O8 0.500000 0.364025 0.250000
O O9 0.286672 0.410920 0.247515
O O10 0.082677 0.338639 0.940776
O O11 0.500000 0.500000 0.000000
O O12 0.684866 0.751883 0.821341
#
# Coordination Sequence:
#
# PCOD9307432 Si02
#       6
#     8   4   4   8   8   8
#     4  12  23  44  70 110 157 201 260 327 404 474
#     4  12  28  54  79 110 155 206 270 344 394 474
#     4  12  28  44  79 114 157 206 256 332 410 474
#     4  12  29  51  82 113 156 212 263 328 406 482
#     4  12  27  51  78 114 156 204 272 332 407 479
#     4  12  29  48  79 116 161 211 266 332 398 487
#
# _framework density 24.716215999999999
#
# number of rings (size 3 to 8) (size 9 to 14) (size 15 to 20)
#    0.000    0.000    5.000    3.000   12.600    0.800 
#    0.000    0.000    0.000    0.000    0.000    0.000 
#    0.000    0.000    0.000    0.000    0.000    0.000 
#
# Total GULP energy -111974.526541 kJ/mol
# GULP energy per Si atom -5598.726327 kJ/mol
# Density = 2.465996 g / cm^3
# Si number density = 24.716216 Si / 1000 Ang^3
#
#
#
# Elastic Constant Matrix: (Units=GPa)
#
#
# Indices 1 2 3 4 5 6 
#
# 1 133.5367 49.1768 40.2738 0.0000 6.4131 0.0000
# 2 49.1768 126.2162 37.6915 0.0000 6.9206 0.0000
# 3 40.2738 37.6915 99.5258 0.0000 -7.7393 0.0000
# 4 0.0000 0.0000 0.0000 23.2111 0.0000 13.2768
# 5 6.4131 6.9206 -7.7393 0.0000 52.9632 0.0000
# 6 0.0000 0.0000 0.0000 13.2768 0.0000 19.5651
#
#
#
# Elastic Compliance Matrix: (Units=1/GPa)
#
#
# Indices 1 2 3 4 5 6 
#
# 1 0.009423 -0.002750 -0.002865 0.000000 -0.001200 0.000000
# 2 -0.002750 0.009886 -0.002737 0.000000 -0.001359 0.000000
# 3 -0.002865 -0.002737 0.012440 0.000000 0.002522 0.000000
# 4 0.000000 0.000000 0.000000 0.070415 0.000000 -0.047784
# 5 -0.001200 -0.001359 0.002522 0.000000 0.019572 0.000000
# 6 0.000000 0.000000 0.000000 -0.047784 0.000000 0.083538
#
#
# Mechanical properties :
#
#
# Convention : Reuss Voigt Hill
#
# Bulk Modulus (GPa) = 66.46688 68.17367 67.32028
# Shear Modulus (GPa) = 22.02712 34.62364 28.32538
#
# Velocity S-wave (km/s) = 2.98854 3.74685 3.38897
# Velocity P-wave (km/s) = 6.23369 6.80889 6.52763
#
# Compressibility (1/GPa) = 0.01504509
#
# Stress axis : x y z
#
# Youngs Moduli (GPa) = 106.12303 101.15116 80.38864
#
# Poissons Ratio (x) = 0.27817 0.23031
# Poissons Ratio (y) = 0.29185 0.22001
# Poissons Ratio (z) = 0.30404 0.27683
#
# Static dielectric constant tensor:
#      x y z
#    x 1.908600 0.000000 0.126300 
#    y 0.000000 1.883820 0.000000 
#    z 0.126300 0.000000 1.901730 
# 
# From -- ./inp_files/92255.got.cif
#   From: 2010.05.17/outbox.cif.g08.bks.cpg/sg15_47_cif.got.tgz:92255.got - 2010.06.03 18:47:42.
