data_PCOD9307863
_publ_section_title
;
Structure prediction by ZEFSAII (Michael W. Deem and Ramdas Pophale) SiO2 
 PCOD9307863
Probable space group: C 2/C
;
_chemical_formula_sum "Si O2"
_cell_formula_units_Z 32
_cell_length_a 11.469081
_cell_length_b 8.988659
_cell_length_c 12.509438
_cell_angle_alpha 90.000000
_cell_angle_beta 47.043308
_cell_angle_gamma 90.000000
_cell_volume 943.831943
_symmetry_space_group_name_H-M "C 2/C"
_symmetry_group_IT_number 15
_symmetry_cell_setting 'monoclinic'
loop_
_space_group_symop_operation_xyz
x,y,z
-x,y,1/2-z
-x,-y,-z
x,-y,1/2+z
1/2+x,1/2+y,z
1/2-x,1/2+y,1/2-z
1/2-x,1/2-y,-z
1/2+x,1/2-y,1/2+z
loop_
_atom_site_type_symbol
_atom_site_label
_atom_site_fract_x
_atom_site_fract_y
_atom_site_fract_z
Si Si1 0.258049 0.294966 0.810929
Si Si2 0.287554 0.452496 0.445486
Si Si3 0.448750 0.776932 0.042796
Si Si4 0.000000 0.570989 0.750000
Si Si5 0.000000 0.000000 0.000000
O O1 0.315639 0.385652 0.878456
O O2 0.365254 0.380429 0.647137
O O3 0.082657 0.377231 0.902292
O O4 0.125993 0.159315 0.935923
O O5 0.221872 0.339955 0.396945
O O6 0.139315 0.476457 0.615645
O O7 0.437642 0.406954 0.422102
O O8 0.425023 0.829438 0.195069
#
# Coordination Sequence:
#
# PCOD9307863 Si02
#       5
#     8   8   8   4   4
#     4  12  26  52  81 120 166 220 293 354 437 519
#     4  12  28  52  83 124 170 230 288 358 443 515
#     4  12  29  50  84 122 167 223 288 363 431 521
#     4  12  24  50  80 124 168 232 286 358 436 532
#     4  12  28  54  76 122 172 224 292 352 434 532
#
# _framework density 33.904341000000002
#
# number of rings (size 3 to 8) (size 9 to 14) (size 15 to 20)
#    0.000    0.000    5.000    3.750    7.000    0.000 
#    0.000    0.000    0.000    0.000    0.000    0.000 
#    0.000    0.000    0.000    0.000    0.000    0.000 
#
# Total GULP energy -89288.636997 kJ/mol
# GULP energy per Si atom -5580.539812 kJ/mol
# Density = 3.382717 g / cm^3
# Si number density = 33.904341 Si / 1000 Ang^3
#
#
#
# Elastic Constant Matrix: (Units=GPa)
#
#
# Indices 1 2 3 4 5 6 
#
# 1 302.4316 81.1011 77.7687 0.0000 -16.8969 0.0000
# 2 81.1011 235.6314 54.1259 0.0000 -1.0858 0.0000
# 3 77.7687 54.1259 381.4123 0.0000 -67.6251 0.0000
# 4 0.0000 0.0000 0.0000 56.1207 0.0000 22.4071
# 5 -16.8969 -1.0858 -67.6251 0.0000 78.3197 0.0000
# 6 0.0000 0.0000 0.0000 22.4071 0.0000 14.6837
#
#
#
# Elastic Compliance Matrix: (Units=1/GPa)
#
#
# Indices 1 2 3 4 5 6 
#
# 1 0.003780 -0.001174 -0.000546 0.000000 0.000328 0.000000
# 2 -0.001174 0.004773 -0.000556 0.000000 -0.000667 0.000000
# 3 -0.000546 -0.000556 0.003294 0.000000 0.002719 0.000000
# 4 0.000000 0.000000 0.000000 0.045604 0.000000 -0.069591
# 5 0.000328 -0.000667 0.002719 0.000000 0.015177 0.000000
# 6 0.000000 0.000000 0.000000 -0.069591 0.000000 0.174297
#
#
# Mechanical properties :
#
#
# Convention : Reuss Voigt Hill
#
# Bulk Modulus (GPa) = 137.09427 149.49630 143.29529
# Shear Modulus (GPa) = 19.69205 76.92346 48.30775
#
# Velocity S-wave (km/s) = 2.41262 4.76840 3.77878
# Velocity P-wave (km/s) = 6.94870 8.63169 7.83551
#
# Compressibility (1/GPa) = 0.00729425
#
# Stress axis : x y z
#
# Youngs Moduli (GPa) = 264.54264 209.52378 303.56838
#
# Poissons Ratio (x) = 0.24601 0.16575
# Poissons Ratio (y) = 0.31061 0.16885
# Poissons Ratio (z) = 0.14444 0.11654
#
# Static dielectric constant tensor:
#      x y z
#    x 2.924650 0.000000 0.535070 
#    y 0.000000 3.429430 0.000000 
#    z 0.535070 0.000000 3.368010 
# 
# From -- ./inp_files/141580.got.cif
#   From: 2010.05.17/outbox.cif.g08.bks.cpg/sg15_71_cif.got.tgz:141580.got - 2010.06.03 18:47:42.
