data_PCOD9307039
_publ_section_title
;
Structure prediction by ZEFSAII (Michael W. Deem and Ramdas Pophale) SiO2 
 PCOD9307039
Probable space group: C 2/C
;
_chemical_formula_sum "Si O2"
_cell_formula_units_Z 52
_cell_length_a 5.069311
_cell_length_b 23.243358
_cell_length_c 19.158244
_cell_angle_alpha 90.000000
_cell_angle_beta 74.269569
_cell_angle_gamma 90.000000
_cell_volume 2172.830522
_symmetry_space_group_name_H-M "C 2/C"
_symmetry_group_IT_number 15
_symmetry_cell_setting 'monoclinic'
loop_
_space_group_symop_operation_xyz
x,y,z
-x,y,1/2-z
-x,-y,-z
x,-y,1/2+z
1/2+x,1/2+y,z
1/2-x,1/2+y,1/2-z
1/2-x,1/2-y,-z
1/2+x,1/2-y,1/2+z
loop_
_atom_site_type_symbol
_atom_site_label
_atom_site_fract_x
_atom_site_fract_y
_atom_site_fract_z
Si Si1 0.337513 0.269239 0.913875
Si Si2 0.227783 0.039857 0.338626
Si Si3 0.101220 0.113724 0.551165
Si Si4 0.169136 0.502519 0.417234
Si Si5 0.982387 0.648401 0.875456
Si Si6 0.357740 0.848340 0.891554
Si Si7 0.000000 0.443935 0.250000
O O1 0.376713 0.211851 0.864742
O O2 0.624518 0.301292 0.897792
O O3 0.126645 0.313590 0.894102
O O4 0.250000 0.250000 0.000000
O O5 0.351454 0.104424 0.330329
O O6 0.432972 0.008709 0.377961
O O7 0.256036 0.991852 0.275625
O O8 0.912573 0.047317 0.384998
O O9 0.151989 0.055028 0.588459
O O10 0.256771 0.156971 0.592660
O O11 0.260998 0.116291 0.467352
O O12 0.780420 0.123366 0.563501
O O13 0.000000 0.500000 0.500000
O O14 0.033489 0.602198 0.810842
#
# Coordination Sequence:
#
# PCOD9307039 Si02
#       7
#     8   8   8   8   8   8   4
#     4  12  23  43  70 106 140 178 222 297 359 423
#     4  12  27  43  68  98 145 187 229 291 342 432
#     4  12  21  39  67 105 135 174 222 294 356 415
#     4  12  23  39  66 105 139 174 224 291 364 410
#     4  12  26  42  71 100 140 184 239 283 346 421
#     4  12  24  41  69 107 140 173 224 289 378 416
#     4  12  28  52  66 100 140 200 246 282 344 428
#
# _framework density 23.931916000000001
#
# number of rings (size 3 to 8) (size 9 to 14) (size 15 to 20)
#    0.000    0.000    7.692    2.769    2.154    2.462 
#    0.000    1.538    0.000    0.000    0.000    0.000 
#    0.000    0.000    0.000    0.000    0.000    0.000 
#
# Total GULP energy -145102.063348 kJ/mol
# GULP energy per Si atom -5580.848590 kJ/mol
# Density = 2.387745 g / cm^3
# Si number density = 23.931916 Si / 1000 Ang^3
#
#
#
# Elastic Constant Matrix: (Units=GPa)
#
#
# Indices 1 2 3 4 5 6 
#
# 1 133.0218 9.3939 22.8879 0.0000 -7.8671 0.0000
# 2 9.3939 140.6103 30.0518 0.0000 0.7868 0.0000
# 3 22.8879 30.0518 97.5000 0.0000 -2.7855 0.0000
# 4 0.0000 0.0000 0.0000 35.9470 0.0000 -3.5766
# 5 -7.8671 0.7868 -2.7855 0.0000 16.6046 0.0000
# 6 0.0000 0.0000 0.0000 -3.5766 0.0000 40.1226
#
#
#
# Elastic Compliance Matrix: (Units=1/GPa)
#
#
# Indices 1 2 3 4 5 6 
#
# 1 0.008037 -0.000187 -0.001728 0.000000 0.003527 0.000000
# 2 -0.000187 0.007627 -0.002331 0.000000 -0.000841 0.000000
# 3 -0.001728 -0.002331 0.011415 0.000000 0.001207 0.000000
# 4 0.000000 0.000000 0.000000 0.028068 0.000000 0.002502
# 5 0.003527 -0.000841 0.001207 0.000000 0.062137 0.000000
# 6 0.000000 0.000000 0.000000 0.002502 0.000000 0.025147
#
#
# Mechanical properties :
#
#
# Convention : Reuss Voigt Hill
#
# Bulk Modulus (GPa) = 53.80335 55.08882 54.44609
# Shear Modulus (GPa) = 31.82306 39.12142 35.47224
#
# Velocity S-wave (km/s) = 3.65051 4.04752 3.85413
# Velocity P-wave (km/s) = 6.34814 6.70166 6.52729
#
# Compressibility (1/GPa) = 0.01858620
#
# Stress axis : x y z
#
# Youngs Moduli (GPa) = 124.42908 131.10868 87.60397
#
# Poissons Ratio (x) = 0.02456 0.15139
# Poissons Ratio (y) = 0.02331 0.20420
# Poissons Ratio (z) = 0.21503 0.30561
#
# Static dielectric constant tensor:
#      x y z
#    x 1.926350 0.000000 -0.018450 
#    y 0.000000 2.029030 0.000000 
#    z -0.018450 0.000000 2.103490 
# 
# From -- ./inp_files/261321.got.cif
#   From: 2010.05.17/outbox.cif.g08.bks.cpg/sg15_131_cif.got.tgz:261321.got - 2010.06.03 18:47:42.
