data_PCOD9307668
_publ_section_title
;
Structure prediction by ZEFSAII (Michael W. Deem and Ramdas Pophale) SiO2 
 PCOD9307668
Probable space group: C 2/C
;
_chemical_formula_sum "Si O2"
_cell_formula_units_Z 64
_cell_length_a 26.589379
_cell_length_b 11.862823
_cell_length_c 15.147495
_cell_angle_alpha 90.000000
_cell_angle_beta 140.555487
_cell_angle_gamma 90.000000
_cell_volume 3035.546395
_symmetry_space_group_name_H-M "C 2/C"
_symmetry_group_IT_number 15
_symmetry_cell_setting 'monoclinic'
loop_
_space_group_symop_operation_xyz
x,y,z
-x,y,1/2-z
-x,-y,-z
x,-y,1/2+z
1/2+x,1/2+y,z
1/2-x,1/2+y,1/2-z
1/2-x,1/2-y,-z
1/2+x,1/2-y,1/2+z
loop_
_atom_site_type_symbol
_atom_site_label
_atom_site_fract_x
_atom_site_fract_y
_atom_site_fract_z
Si Si1 0.219377 0.479698 0.793422
Si Si2 0.952263 0.114945 0.428414
Si Si3 0.019885 0.709112 0.682216
Si Si4 0.756229 0.260890 0.404326
Si Si5 0.711654 0.490952 0.795447
Si Si6 0.947387 0.488995 0.516431
Si Si7 0.940048 0.253594 0.592509
Si Si8 0.701880 0.133216 0.939250
O O1 0.212513 0.348109 0.806171
O O2 0.284820 0.485623 0.805827
O O3 0.141491 0.523841 0.638707
O O4 0.229738 0.551640 0.896556
O O5 0.988248 0.201975 0.407263
O O6 0.946114 0.176533 0.514118
O O7 0.865492 0.076624 0.279195
O O8 0.000000 0.000000 0.500000
O O9 0.109455 0.661245 0.802109
O O10 0.000000 0.761350 0.750000
O O11 0.962487 0.602806 0.590337
O O12 0.750000 0.250000 0.500000
O O13 0.715837 0.377692 0.323190
O O14 0.848632 0.258826 0.500489
O O15 0.781460 0.430212 0.945537
O O16 0.966739 0.378927 0.599147
O O17 0.000000 0.500000 0.500000
O O18 0.000000 0.214212 0.750000
O O19 0.750000 0.250000 0.000000
#
# Coordination Sequence:
#
# PCOD9307668 Si02
#       8
#     8   8   8   8   8   8   8   8
#     4  12  26  46  75 106 144 193 242 295 365 423
#     4  12  29  51  70 104 148 195 239 289 358 436
#     4  12  27  48  74 108 144 187 241 296 363 422
#     4  12  28  47  73 108 145 192 243 292 360 431
#     4  12  27  48  74 105 144 189 242 297 356 429
#     4  12  24  44  79 107 144 187 238 303 363 419
#     4  12  28  49  75 106 147 186 241 304 358 427
#     4  12  26  47  75 105 146 185 239 304 356 424
#
# _framework density 21.08352
#
# number of rings (size 3 to 8) (size 9 to 14) (size 15 to 20)
#    0.000    0.000    7.500    1.125    8.750    1.500 
#    0.000    0.000    0.000    0.000    0.000    0.000 
#    0.000    0.000    0.000    0.000    0.000    0.000 
#
# Total GULP energy -179067.619446 kJ/mol
# GULP energy per Si atom -5595.863108 kJ/mol
# Density = 2.103553 g / cm^3
# Si number density = 21.083520 Si / 1000 Ang^3
#
#
#
# Elastic Constant Matrix: (Units=GPa)
#
#
# Indices 1 2 3 4 5 6 
#
# 1 105.3726 37.2827 10.4598 0.0000 -32.4118 0.0000
# 2 37.2827 149.2246 31.4849 0.0000 -24.6413 0.0000
# 3 10.4598 31.4849 69.5515 0.0000 -17.4555 0.0000
# 4 0.0000 0.0000 0.0000 -25.2860 0.0000 24.1721
# 5 -32.4118 -24.6413 -17.4555 0.0000 33.5773 0.0000
# 6 0.0000 0.0000 0.0000 24.1721 0.0000 16.2945
#
#
#
# Elastic Compliance Matrix: (Units=1/GPa)
#
#
# Indices 1 2 3 4 5 6 
#
# 1 0.013986 -0.001726 0.002011 0.000000 0.013279 0.000000
# 2 -0.001726 0.008189 -0.002711 0.000000 0.002935 0.000000
# 3 0.002011 -0.002711 0.017585 0.000000 0.009093 0.000000
# 4 0.000000 0.000000 0.000000 -0.016355 0.000000 0.024262
# 5 0.013279 0.002935 0.009093 0.000000 0.049481 0.000000
# 6 0.000000 0.000000 0.000000 0.024262 0.000000 0.025380
#
#
# Mechanical properties :
#
#
# Convention : Reuss Voigt Hill
#
# Bulk Modulus (GPa) = 28.64750 53.62261 41.13505
# Shear Modulus (GPa) = 43.57195 21.24526 32.40861
#
# Velocity S-wave (km/s) = 4.55096 3.17783 3.92491
# Velocity P-wave (km/s) = 6.42122 6.24127 6.33188
#
# Compressibility (1/GPa) = 0.03490707
#
# Stress axis : x y z
#
# Youngs Moduli (GPa) = 71.50194 122.11453 56.86742
#
# Poissons Ratio (x) = 0.21073 -0.11433
# Poissons Ratio (y) = 0.12339 0.15417
# Poissons Ratio (z) = -0.14376 0.33106
#
# Static dielectric constant tensor:
#      x y z
#    x 1.769200 0.000000 -0.029350 
#    y 0.000000 1.661270 0.000000 
#    z -0.029350 0.000000 1.639770 
# 
# From -- ./inp_files/177853.got.cif
#   From: 2010.05.17/outbox.cif.g08.bks.cpg/sg15_89_cif.got.tgz:177853.got - 2010.06.03 18:47:42.
