data_PCOD9307318
_publ_section_title
;
Structure prediction by ZEFSAII (Michael W. Deem and Ramdas Pophale) SiO2 
 PCOD9307318
Probable space group: C 2/C
;
_chemical_formula_sum "Si O2"
_cell_formula_units_Z 44
_cell_length_a 5.876940
_cell_length_b 26.673135
_cell_length_c 11.851284
_cell_angle_alpha 90.000000
_cell_angle_beta 104.355973
_cell_angle_gamma 90.000000
_cell_volume 1799.754167
_symmetry_space_group_name_H-M "C 2/C"
_symmetry_group_IT_number 15
_symmetry_cell_setting 'monoclinic'
loop_
_space_group_symop_operation_xyz
x,y,z
-x,y,1/2-z
-x,-y,-z
x,-y,1/2+z
1/2+x,1/2+y,z
1/2-x,1/2+y,1/2-z
1/2-x,1/2-y,-z
1/2+x,1/2-y,1/2+z
loop_
_atom_site_type_symbol
_atom_site_label
_atom_site_fract_x
_atom_site_fract_y
_atom_site_fract_z
Si Si1 0.916275 0.575735 0.858825
Si Si2 0.779766 0.925311 0.578215
Si Si3 0.500000 0.875000 0.750000
Si Si4 0.500000 0.500639 0.750000
Si Si5 0.048450 0.824690 0.578215
Si Si6 0.500000 0.750639 0.250000
Si Si7 0.807450 0.174266 0.641175
O O1 0.722064 0.535742 0.799707
O O2 0.832534 0.625000 0.915067
O O3 0.000000 0.597290 0.750000
O O4 0.119190 0.552419 0.960037
O O5 0.625524 0.909161 0.669000
O O6 0.983978 0.962945 0.642295
O O7 0.898417 0.875000 0.546832
O O8 0.293476 0.840839 0.669000
O O9 0.908317 0.787056 0.642295
O O10 0.090847 0.802419 0.460037
O O11 0.327641 0.785742 0.299706
O O12 0.000000 0.152710 0.750000
#
# Coordination Sequence:
#
# PCOD9307318 Si02
#       7
#     8   8   4   4   8   4   8
#     4  12  27  48  74 107 158 203 249 312 382 446
#     4  12  26  49  79 110 152 199 255 315 378 456
#     4  12  22  48  78 102 152 194 246 306 392 422
#     4  12  27  48  75 120 146 199 261 310 374 454
#     4  12  26  49  79 110 152 199 255 315 378 456
#     4  12  27  48  75 120 146 199 261 310 374 454
#     4  12  27  48  74 107 158 203 249 312 382 446
#
# _framework density 24.447780999999999
#
# number of rings (size 3 to 8) (size 9 to 14) (size 15 to 20)
#    0.000    0.000    7.273    2.182    2.545    1.455 
#    0.000    0.000    0.000    0.000    0.000    0.000 
#    0.000    0.000    0.000    0.000    0.000    0.000 
#
# Total GULP energy -123114.904434 kJ/mol
# GULP energy per Si atom -5596.132020 kJ/mol
# Density = 2.439214 g / cm^3
# Si number density = 24.447781 Si / 1000 Ang^3
#
#
#
# Elastic Constant Matrix: (Units=GPa)
#
#
# Indices 1 2 3 4 5 6 
#
# 1 82.7450 30.7366 58.9902 0.0000 4.6120 0.0000
# 2 30.7366 108.9378 33.3819 0.0000 0.1031 0.0000
# 3 58.9902 33.3819 171.7808 0.0000 -1.1411 0.0000
# 4 0.0000 0.0000 0.0000 2.1386 0.0000 -1.2050
# 5 4.6120 0.1031 -1.1411 0.0000 70.8066 0.0000
# 6 0.0000 0.0000 0.0000 -1.2050 0.0000 33.0465
#
#
#
# Elastic Compliance Matrix: (Units=1/GPa)
#
#
# Indices 1 2 3 4 5 6 
#
# 1 0.017089 -0.003211 -0.005252 0.000000 -0.001193 0.000000
# 2 -0.003211 0.010364 -0.000910 0.000000 0.000179 0.000000
# 3 -0.005252 -0.000910 0.007805 0.000000 0.000469 0.000000
# 4 0.000000 0.000000 0.000000 0.477408 0.000000 0.017407
# 5 -0.001193 0.000179 0.000469 0.000000 0.014208 0.000000
# 6 0.000000 0.000000 0.000000 0.017407 0.000000 0.030895
#
#
# Mechanical properties :
#
#
# Convention : Reuss Voigt Hill
#
# Bulk Modulus (GPa) = 60.56500 67.74234 64.15367
# Shear Modulus (GPa) = 8.59077 37.22199 22.90638
#
# Velocity S-wave (km/s) = 1.87658 3.90617 3.06429
# Velocity P-wave (km/s) = 5.43345 6.93638 6.23040
#
# Compressibility (1/GPa) = 0.01651119
#
# Stress axis : x y z
#
# Youngs Moduli (GPa) = 58.51671 96.48522 128.12189
#
# Poissons Ratio (x) = 0.30982 0.67295
# Poissons Ratio (y) = 0.18790 0.11662
# Poissons Ratio (z) = 0.30735 0.08782
#
# Static dielectric constant tensor:
#      x y z
#    x 2.043420 0.000000 -0.005220 
#    y 0.000000 1.966570 0.000000 
#    z -0.005220 0.000000 1.909500 
# 
# From -- ./inp_files/74022.got.cif
#   From: 2010.05.17/outbox.cif.g08.bks.cpg/sg15_38_cif.got.tgz:74022.got - 2010.06.03 18:47:42.
