data_PCOD9307065
_publ_section_title
;
Structure prediction by ZEFSAII (Michael W. Deem and Ramdas Pophale) SiO2 
 PCOD9307065
Probable space group: C 2/C
;
_chemical_formula_sum "Si O2"
_cell_formula_units_Z 60
_cell_length_a 17.464746
_cell_length_b 8.079120
_cell_length_c 22.309328
_cell_angle_alpha 90.000000
_cell_angle_beta 49.831380
_cell_angle_gamma 90.000000
_cell_volume 2405.421064
_symmetry_space_group_name_H-M "C 2/C"
_symmetry_group_IT_number 15
_symmetry_cell_setting 'monoclinic'
loop_
_space_group_symop_operation_xyz
x,y,z
-x,y,1/2-z
-x,-y,-z
x,-y,1/2+z
1/2+x,1/2+y,z
1/2-x,1/2+y,1/2-z
1/2-x,1/2-y,-z
1/2+x,1/2-y,1/2+z
loop_
_atom_site_type_symbol
_atom_site_label
_atom_site_fract_x
_atom_site_fract_y
_atom_site_fract_z
Si Si1 0.849404 0.349354 0.059701
Si Si2 0.555985 0.436739 0.629454
Si Si3 0.263389 0.952484 0.987420
Si Si4 0.706054 0.859108 0.839252
Si Si5 0.470872 0.616392 0.568246
Si Si6 0.500000 0.307070 0.250000
Si Si7 0.186334 0.372996 0.710476
Si Si8 0.639231 0.821595 0.164318
O O1 0.855113 0.474003 0.112942
O O2 0.769437 0.210256 0.123817
O O3 0.816996 0.476009 0.023549
O O4 0.943686 0.257452 0.981763
O O5 0.658193 0.451050 0.540550
O O6 0.472150 0.499988 0.626335
O O7 0.564243 0.581606 0.673505
O O8 0.552460 0.268300 0.668872
O O9 0.322389 0.042616 0.904560
O O10 0.250000 0.750000 0.000000
O O11 0.634599 0.702639 0.886328
O O12 0.725827 0.860203 0.758229
O O13 0.798804 0.832096 0.837765
O O14 0.500000 0.500000 0.500000
O O15 0.419266 0.218006 0.249114
O O16 0.148728 0.558068 0.716176
#
# Coordination Sequence:
#
# PCOD9307065 Si02
#       8
#     8   8   8   8   8   4   8   8
#     4  12  25  45  73 103 141 195 237 294 372 434
#     4  12  24  45  70 103 140 186 238 298 360 433
#     4  12  21  42  75 100 138 184 239 294 355 438
#     4  12  26  47  72 107 145 188 247 305 366 440
#     4  12  27  47  69 107 147 184 238 308 368 430
#     4  12  24  48  68 100 146 190 238 298 360 432
#     4  12  25  48  72 101 150 194 242 295 370 443
#     4  12  26  44  77 108 138 193 249 299 368 452
#
# _framework density 24.943657000000002
#
# number of rings (size 3 to 8) (size 9 to 14) (size 15 to 20)
#    0.000    0.000    6.667    3.200    1.867    0.533 
#    7.200    0.000    0.000    0.000    0.000    0.000 
#    0.000    0.000    0.000    0.000    0.000    0.000 
#
# Total GULP energy -167311.677616 kJ/mol
# GULP energy per Si atom -5577.055921 kJ/mol
# Density = 2.488688 g / cm^3
# Si number density = 24.943657 Si / 1000 Ang^3
#
#
#
# Elastic Constant Matrix: (Units=GPa)
#
#
# Indices 1 2 3 4 5 6 
#
# 1 87.6859 21.0857 17.8909 0.0004 13.1290 0.0001
# 2 21.0857 88.1968 11.5101 0.0010 15.1249 0.0001
# 3 17.8909 11.5101 61.0681 0.0001 26.0911 0.0000
# 4 0.0004 0.0010 0.0001 -74.4147 0.0002 52.0466
# 5 13.1290 15.1249 26.0911 0.0002 41.1267 -0.0001
# 6 0.0001 0.0001 0.0000 52.0466 -0.0001 33.1002
#
#
#
# Elastic Compliance Matrix: (Units=1/GPa)
#
#
# Indices 1 2 3 4 5 6 
#
# 1 0.012755 -0.002448 -0.002634 0.000000 -0.001500 0.000000
# 2 -0.002448 0.012584 -0.000015 0.000000 -0.003836 0.000000
# 3 -0.002634 -0.000015 0.023031 0.000000 -0.013764 0.000000
# 4 0.000000 0.000000 0.000000 -0.006400 0.000000 0.010063
# 5 -0.001500 -0.003836 -0.013764 0.000000 0.034937 0.000000
# 6 0.000000 0.000000 0.000000 0.010063 0.000000 0.014388
#
#
# Mechanical properties :
#
#
# Convention : Reuss Voigt Hill
#
# Bulk Modulus (GPa) = 26.19659 37.54712 31.87185
# Shear Modulus (GPa) = 43.77709 12.39339 28.08524
#
# Velocity S-wave (km/s) = 4.19386 2.23144 3.35915
# Velocity P-wave (km/s) = 5.82893 4.66096 5.27736
#
# Compressibility (1/GPa) = 0.03817291
#
# Stress axis : x y z
#
# Youngs Moduli (GPa) = 78.39922 79.46888 43.42066
#
# Poissons Ratio (x) = 0.19457 0.11439
# Poissons Ratio (y) = 0.19195 0.00067
# Poissons Ratio (z) = 0.20654 0.00122
#
# Static dielectric constant tensor:
#      x y z
#    x 2.083280 0.000000 0.015360 
#    y 0.000000 2.115660 0.000000 
#    z 0.015360 0.000000 2.168900 
# 
# From -- ./inp_files/247822.got.cif
#   From: 2010.05.17/outbox.cif.g08.bks.cpg/sg15_124_cif.got.tgz:247822.got - 2010.06.03 18:47:42.
