data_PCOD9307090
_publ_section_title
;
Structure prediction by ZEFSAII (Michael W. Deem and Ramdas Pophale) SiO2 
 PCOD9307090
Probable space group: C 2/C
;
_chemical_formula_sum "Si O2"
_cell_formula_units_Z 48
_cell_length_a 33.099485
_cell_length_b 14.806318
_cell_length_c 15.079530
_cell_angle_alpha 90.000000
_cell_angle_beta 19.453632
_cell_angle_gamma 90.000000
_cell_volume 2461.260553
_symmetry_space_group_name_H-M "C 2/C"
_symmetry_group_IT_number 15
_symmetry_cell_setting 'monoclinic'
loop_
_space_group_symop_operation_xyz
x,y,z
-x,y,1/2-z
-x,-y,-z
x,-y,1/2+z
1/2+x,1/2+y,z
1/2-x,1/2+y,1/2-z
1/2-x,1/2-y,-z
1/2+x,1/2-y,1/2+z
loop_
_atom_site_type_symbol
_atom_site_label
_atom_site_fract_x
_atom_site_fract_y
_atom_site_fract_z
Si Si1 0.017053 0.335704 0.815122
Si Si2 0.947972 0.713840 0.758610
Si Si3 0.894043 0.484850 0.293618
Si Si4 0.246445 0.818068 0.422707
Si Si5 0.877064 0.207104 0.758747
Si Si6 0.853386 0.999848 0.805884
O O1 0.000000 0.307923 0.750000
O O2 0.091560 0.428270 0.672403
O O3 0.069674 0.256735 0.766224
O O4 0.881849 0.350850 0.129559
O O5 0.032504 0.767325 0.511018
O O6 0.000000 0.717809 0.750000
O O7 0.927998 0.610448 0.768440
O O8 0.816516 0.761205 0.024433
O O9 0.755087 0.485761 0.543850
O O10 0.000000 0.500000 0.000000
O O11 0.250000 0.750000 0.500000
O O12 0.172087 0.910270 0.585394
O O13 0.841218 0.104500 0.855302
O O14 0.750000 0.250000 0.000000
O O15 0.000000 0.000000 0.500000
#
# Coordination Sequence:
#
# PCOD9307090 Si02
#       6
#     8   8   8   8   8   8
#     4  12  26  44  69 101 134 182 232 285 335 412
#     4  12  26  43  70 100 133 184 231 281 344 413
#     4  12  21  45  71  95 134 185 233 277 336 409
#     4  12  22  46  70  94 139 183 223 280 351 409
#     4  12  24  43  67  98 139 173 221 282 341 404
#     4  12  22  39  74  99 129 178 223 277 348 401
#
# _framework density 19.502200999999999
#
# number of rings (size 3 to 8) (size 9 to 14) (size 15 to 20)
#    0.000    0.000   10.000    0.500    2.333    0.000 
#    0.000    0.833    0.000    0.000    0.000    0.000 
#    0.000    0.000    0.000    0.000    0.000    0.000 
#
# Total GULP energy -133639.339954 kJ/mol
# GULP energy per Si atom -5568.305831 kJ/mol
# Density = 1.945781 g / cm^3
# Si number density = 19.502201 Si / 1000 Ang^3
#
#
#
# Elastic Constant Matrix: (Units=GPa)
#
#
# Indices 1 2 3 4 5 6 
#
# 1 138.6048 52.7750 23.3101 0.0000 -29.2450 0.0000
# 2 52.7750 171.6721 18.0187 0.0000 -12.7497 0.0000
# 3 23.3101 18.0187 85.6257 0.0000 -31.3066 0.0000
# 4 0.0000 0.0000 0.0000 43.0178 0.0000 -19.2858
# 5 -29.2450 -12.7497 -31.3066 0.0000 33.3646 0.0000
# 6 0.0000 0.0000 0.0000 -19.2858 0.0000 14.4475
#
#
#
# Elastic Compliance Matrix: (Units=1/GPa)
#
#
# Indices 1 2 3 4 5 6 
#
# 1 0.009801 -0.002480 0.000987 0.000000 0.008569 0.000000
# 2 -0.002480 0.006646 -0.000898 0.000000 -0.000476 0.000000
# 3 0.000987 -0.000898 0.017947 0.000000 0.017362 0.000000
# 4 0.000000 0.000000 0.000000 0.057893 0.000000 0.077280
# 5 0.008569 -0.000476 0.017362 0.000000 0.053592 0.000000
# 6 0.000000 0.000000 0.000000 0.077280 0.000000 0.172376
#
#
# Mechanical properties :
#
#
# Convention : Reuss Voigt Hill
#
# Bulk Modulus (GPa) = 33.76974 64.90115 49.33545
# Shear Modulus (GPa) = 15.01916 38.28590 26.65253
#
# Velocity S-wave (km/s) = 2.77813 4.43556 3.70082
# Velocity P-wave (km/s) = 5.25777 7.71903 6.60407
#
# Compressibility (1/GPa) = 0.02961231
#
# Stress axis : x y z
#
# Youngs Moduli (GPa) = 102.02779 150.45842 55.72013
#
# Poissons Ratio (x) = 0.37317 -0.05499
# Poissons Ratio (y) = 0.25305 0.05002
# Poissons Ratio (z) = -0.10068 0.13506
#
# Static dielectric constant tensor:
#      x y z
#    x 1.651420 0.000000 0.065660 
#    y 0.000000 1.635320 0.000000 
#    z 0.065660 0.000000 1.636670 
# 
# From -- ./inp_files/182417.got.cif
#   From: 2010.05.17/outbox.cif.g08.bks.cpg/sg15_92_cif.got.tgz:182417.got - 2010.06.03 18:47:42.
