data_PCOD9307904
_publ_section_title
;
Structure prediction by ZEFSAII (Michael W. Deem and Ramdas Pophale) SiO2 
 PCOD9307904
Probable space group: C 2/C
;
_chemical_formula_sum "Si O2"
_cell_formula_units_Z 40
_cell_length_a 13.597784
_cell_length_b 8.270452
_cell_length_c 15.919960
_cell_angle_alpha 90.000000
_cell_angle_beta 87.093496
_cell_angle_gamma 90.000000
_cell_volume 1788.052734
_symmetry_space_group_name_H-M "C 2/C"
_symmetry_group_IT_number 15
_symmetry_cell_setting 'monoclinic'
loop_
_space_group_symop_operation_xyz
x,y,z
-x,y,1/2-z
-x,-y,-z
x,-y,1/2+z
1/2+x,1/2+y,z
1/2-x,1/2+y,1/2-z
1/2-x,1/2-y,-z
1/2+x,1/2-y,1/2+z
loop_
_atom_site_type_symbol
_atom_site_label
_atom_site_fract_x
_atom_site_fract_y
_atom_site_fract_z
Si Si1 0.507642 0.329440 0.045471
Si Si2 0.668412 0.184763 0.935505
Si Si3 0.206545 0.692777 0.413881
Si Si4 0.607705 0.691128 0.710990
Si Si5 0.786611 0.864856 0.739345
O O1 0.401552 0.275076 0.085271
O O2 0.587169 0.347588 0.115659
O O3 0.500000 0.500000 0.000000
O O4 0.559965 0.206131 0.979530
O O5 0.670153 0.277768 0.845430
O O6 0.690658 0.998839 0.917227
O O7 0.750000 0.250000 0.000000
O O8 0.250000 0.750000 0.500000
O O9 0.280792 0.720674 0.331905
O O10 0.500000 0.712186 0.750000
O O11 0.670789 0.852850 0.721573
O O12 0.663081 0.537053 0.748712
#
# Coordination Sequence:
#
# PCOD9307904 Si02
#       5
#     8   8   8   8   8
#     4  12  25  47  74 107 151 195 252 311 380 453
#     4  12  25  44  72 107 149 191 248 311 370 450
#     4  12  27  46  75 108 146 199 249 311 377 446
#     4  12  25  47  75 108 151 203 248 316 378 445
#     4  12  25  46  74 106 151 193 252 309 373 449
#
# _framework density 22.370705000000001
#
# number of rings (size 3 to 8) (size 9 to 14) (size 15 to 20)
#    0.000    0.000    6.000    4.200    2.800    0.000 
#    0.000    3.000    0.000    0.000    0.000    0.000 
#    0.000    0.000    0.000    0.000    0.000    0.000 
#
# Total GULP energy -111694.831576 kJ/mol
# GULP energy per Si atom -5584.741579 kJ/mol
# Density = 2.231979 g / cm^3
# Si number density = 22.370705 Si / 1000 Ang^3
#
#
#
# Elastic Constant Matrix: (Units=GPa)
#
#
# Indices 1 2 3 4 5 6 
#
# 1 102.1817 16.4450 14.8351 0.0000 2.6437 0.0000
# 2 16.4450 67.3198 17.8246 0.0000 18.7163 0.0000
# 3 14.8351 17.8246 137.4107 0.0000 9.2935 0.0000
# 4 0.0000 0.0000 0.0000 31.0905 0.0000 3.0577
# 5 2.6437 18.7163 9.2935 0.0000 47.9800 0.0000
# 6 0.0000 0.0000 0.0000 3.0577 0.0000 45.4618
#
#
#
# Elastic Compliance Matrix: (Units=1/GPa)
#
#
# Indices 1 2 3 4 5 6 
#
# 1 0.010286 -0.002445 -0.000830 0.000000 0.000548 0.000000
# 2 -0.002445 0.017666 -0.001591 0.000000 -0.006448 0.000000
# 3 -0.000830 -0.001591 0.007628 0.000000 -0.000811 0.000000
# 4 0.000000 0.000000 0.000000 0.032378 0.000000 -0.002178
# 5 0.000548 -0.006448 -0.000811 0.000000 0.023484 0.000000
# 6 0.000000 0.000000 0.000000 -0.002178 0.000000 0.022143
#
#
# Mechanical properties :
#
#
# Convention : Reuss Voigt Hill
#
# Bulk Modulus (GPa) = 38.68998 45.01353 41.85176
# Shear Modulus (GPa) = 37.89714 42.09362 39.99538
#
# Velocity S-wave (km/s) = 4.12035 4.34249 4.23288
# Velocity P-wave (km/s) = 6.32209 6.73115 6.52982
#
# Compressibility (1/GPa) = 0.02584648
#
# Stress axis : x y z
#
# Youngs Moduli (GPa) = 97.21567 56.60611 131.08913
#
# Poissons Ratio (x) = 0.13842 0.10886
# Poissons Ratio (y) = 0.23772 0.20862
# Poissons Ratio (z) = 0.08073 0.09009
#
# Static dielectric constant tensor:
#      x y z
#    x 1.822680 0.000000 -0.035740 
#    y 0.000000 1.843920 0.000000 
#    z -0.035740 0.000000 1.955390 
# 
# From -- ./inp_files/150702.got.cif
#   From: 2010.05.17/outbox.cif.g08.bks.cpg/sg15_76_cif.got.tgz:150702.got - 2010.06.03 18:47:42.
