data_PCOD9307764
_publ_section_title
;
Structure prediction by ZEFSAII (Michael W. Deem and Ramdas Pophale) SiO2 
 PCOD9307764
Probable space group: C 2/C
;
_chemical_formula_sum "Si O2"
_cell_formula_units_Z 44
_cell_length_a 6.682110
_cell_length_b 12.818146
_cell_length_c 23.664981
_cell_angle_alpha 90.000000
_cell_angle_beta 101.921345
_cell_angle_gamma 90.000000
_cell_volume 1983.241886
_symmetry_space_group_name_H-M "C 2/C"
_symmetry_group_IT_number 15
_symmetry_cell_setting 'monoclinic'
loop_
_space_group_symop_operation_xyz
x,y,z
-x,y,1/2-z
-x,-y,-z
x,-y,1/2+z
1/2+x,1/2+y,z
1/2-x,1/2+y,1/2-z
1/2-x,1/2-y,-z
1/2+x,1/2-y,1/2+z
loop_
_atom_site_type_symbol
_atom_site_label
_atom_site_fract_x
_atom_site_fract_y
_atom_site_fract_z
Si Si1 0.283014 0.275207 0.836722
Si Si2 0.989787 0.840625 0.101775
Si Si3 0.688727 0.296291 0.935117
Si Si4 0.000000 0.668372 0.750000
Si Si5 0.850919 0.510903 0.645540
Si Si6 0.341564 0.018504 0.941533
O O1 0.110565 0.192107 0.844916
O O2 0.478871 0.264260 0.891231
O O3 0.357578 0.243831 0.779016
O O4 0.197335 0.392704 0.838397
O O5 0.117490 0.741804 0.089741
O O6 0.149183 0.934981 0.108437
O O7 0.792557 0.878558 0.055535
O O8 0.692351 0.420048 0.935542
O O9 0.750000 0.250000 0.000000
O O10 0.102225 0.589082 0.800217
O O11 0.033823 0.517146 0.610268
O O12 0.500000 0.000000 0.000000
#
# Coordination Sequence:
#
# PCOD9307764 Si02
#       6
#     8   8   8   4   8   8
#     4  12  27  48  74 109 145 193 248 302 371 439
#     4  12  24  47  76 106 152 190 239 302 368 433
#     4  12  26  45  76 114 150 192 243 301 371 445
#     4  12  28  50  72 110 146 188 258 306 364 448
#     4  12  27  48  74 109 145 193 248 302 371 439
#     4  12  26  45  76 114 150 192 243 301 371 445
#
# _framework density 22.185896
#
# number of rings (size 3 to 8) (size 9 to 14) (size 15 to 20)
#    0.000    0.000    7.273    2.182    2.545    8.000 
#    0.000    0.000    0.000    0.000    0.000    0.000 
#    0.000    0.000    0.000    0.000    0.000    0.000 
#
# Total GULP energy -122886.374345 kJ/mol
# GULP energy per Si atom -5585.744288 kJ/mol
# Density = 2.213540 g / cm^3
# Si number density = 22.185896 Si / 1000 Ang^3
#
#
#
# Elastic Constant Matrix: (Units=GPa)
#
#
# Indices 1 2 3 4 5 6 
#
# 1 49.4471 -12.2282 10.9696 0.0000 -4.5303 0.0000
# 2 -12.2282 61.7286 -14.6244 0.0000 5.6650 0.0000
# 3 10.9696 -14.6244 66.9657 0.0000 -4.7469 0.0000
# 4 0.0000 0.0000 0.0000 34.0073 0.0000 3.2362
# 5 -4.5303 5.6650 -4.7469 0.0000 36.2717 0.0000
# 6 0.0000 0.0000 0.0000 3.2362 0.0000 54.6182
#
#
#
# Elastic Compliance Matrix: (Units=1/GPa)
#
#
# Indices 1 2 3 4 5 6 
#
# 1 0.021858 0.003527 -0.002681 0.000000 0.001828 0.000000
# 2 0.003527 0.017829 0.003179 0.000000 -0.001928 0.000000
# 3 -0.002681 0.003179 0.016157 0.000000 0.001283 0.000000
# 4 0.000000 0.000000 0.000000 0.029572 0.000000 -0.001752
# 5 0.001828 -0.001928 0.001283 0.000000 0.028267 0.000000
# 6 0.000000 0.000000 0.000000 -0.001752 0.000000 0.018413
#
#
# Mechanical properties :
#
#
# Convention : Reuss Voigt Hill
#
# Bulk Modulus (GPa) = 15.65056 16.26391 15.95723
# Shear Modulus (GPa) = 34.40124 37.91441 36.15783
#
# Velocity S-wave (km/s) = 3.94203 4.13842 4.04142
# Velocity P-wave (km/s) = 5.27153 5.49382 5.38382
#
# Compressibility (1/GPa) = 0.06389548
#
# Stress axis : x y z
#
# Youngs Moduli (GPa) = 45.74961 56.08905 61.89125
#
# Poissons Ratio (x) = -0.19783 0.16591
# Poissons Ratio (y) = -0.16137 -0.19676
# Poissons Ratio (z) = 0.12264 -0.17831
#
# Static dielectric constant tensor:
#      x y z
#    x 1.946920 0.000000 0.044640 
#    y 0.000000 1.837670 0.000000 
#    z 0.044640 0.000000 1.851910 
# 
# From -- ./inp_files/260425.got.cif
#   From: 2010.05.17/outbox.cif.g08.bks.cpg/sg15_131_cif.got.tgz:260425.got - 2010.06.03 18:47:42.
