data_PCOD9307598
_publ_section_title
;
Structure prediction by ZEFSAII (Michael W. Deem and Ramdas Pophale) SiO2 
 PCOD9307598
Probable space group: C 2/C
;
_chemical_formula_sum "Si O2"
_cell_formula_units_Z 40
_cell_length_a 27.736995
_cell_length_b 4.998735
_cell_length_c 13.080435
_cell_angle_alpha 90.000000
_cell_angle_beta 77.803366
_cell_angle_gamma 90.000000
_cell_volume 1772.664803
_symmetry_space_group_name_H-M "C 2/C"
_symmetry_group_IT_number 15
_symmetry_cell_setting 'monoclinic'
loop_
_space_group_symop_operation_xyz
x,y,z
-x,y,1/2-z
-x,-y,-z
x,-y,1/2+z
1/2+x,1/2+y,z
1/2-x,1/2+y,1/2-z
1/2-x,1/2-y,-z
1/2+x,1/2-y,1/2+z
loop_
_atom_site_type_symbol
_atom_site_label
_atom_site_fract_x
_atom_site_fract_y
_atom_site_fract_z
Si Si1 0.847825 0.979368 0.389048
Si Si2 0.947614 0.012940 0.224153
Si Si3 0.153133 0.530539 0.480428
Si Si4 0.051856 0.507894 0.418994
Si Si5 0.217423 0.742522 0.264379
O O1 0.841879 0.772829 0.484926
O O2 0.816397 0.863944 0.309650
O O3 0.904226 0.997216 0.326008
O O4 0.832776 0.271945 0.433609
O O5 0.935841 0.229559 0.142152
O O6 0.000000 0.085053 0.250000
O O7 0.951420 0.728609 0.167546
O O8 0.096146 0.576642 0.475682
O O9 0.185062 0.612211 0.368607
O O10 0.000000 0.500000 0.500000
O O11 0.251307 0.497525 0.211097
#
# Coordination Sequence:
#
# PCOD9307598 Si02
#       5
#     8   8   8   8   8
#     4  12  26  46  74 106 144 188 238 299 359 427
#     4  12  24  43  70 105 147 189 235 292 354 428
#     4  12  26  46  74 106 144 187 240 297 360 428
#     4  12  24  43  70 105 147 188 237 294 353 428
#     4  12  28  48  74 105 144 192 243 305 361 425
#
# _framework density 22.564897999999999
#
# number of rings (size 3 to 8) (size 9 to 14) (size 15 to 20)
#    0.000    0.000    2.000    8.400    2.800    4.800 
#    0.000    0.000    0.000    0.000    0.000    0.000 
#    0.000    0.000    0.000    0.000    0.000    0.000 
#
# Total GULP energy -112134.471552 kJ/mol
# GULP energy per Si atom -5606.723578 kJ/mol
# Density = 2.251354 g / cm^3
# Si number density = 22.564898 Si / 1000 Ang^3
#
#
#
# Elastic Constant Matrix: (Units=GPa)
#
#
# Indices 1 2 3 4 5 6 
#
# 1 122.1856 -6.0399 7.8969 0.0000 -3.5027 0.0000
# 2 -6.0399 157.4407 78.9355 0.0000 -3.4919 0.0000
# 3 7.8969 78.9355 142.8070 0.0000 2.4472 0.0000
# 4 0.0000 0.0000 0.0000 92.3219 0.0000 -47.7422
# 5 -3.5027 -3.4919 2.4472 0.0000 29.4639 0.0000
# 6 0.0000 0.0000 0.0000 -47.7422 0.0000 82.2821
#
#
#
# Elastic Compliance Matrix: (Units=1/GPa)
#
#
# Indices 1 2 3 4 5 6 
#
# 1 0.008318 0.000810 -0.000927 0.000000 0.001162 0.000000
# 2 0.000810 0.008927 -0.005006 0.000000 0.001570 0.000000
# 3 -0.000927 -0.005006 0.009847 0.000000 -0.001521 0.000000
# 4 0.000000 0.000000 0.000000 0.015475 0.000000 0.008979
# 5 0.001162 0.001570 -0.001521 0.000000 0.034390 0.000000
# 6 0.000000 0.000000 0.000000 0.008979 0.000000 0.017363
#
#
# Mechanical properties :
#
#
# Convention : Reuss Voigt Hill
#
# Bulk Modulus (GPa) = 59.36760 64.89093 62.12926
# Shear Modulus (GPa) = 45.37904 63.58965 54.48434
#
# Velocity S-wave (km/s) = 4.48933 5.31432 4.91915
# Velocity P-wave (km/s) = 7.29650 8.15327 7.73676
#
# Compressibility (1/GPa) = 0.01684421
#
# Stress axis : x y z
#
# Youngs Moduli (GPa) = 120.22763 112.01380 101.55375
#
# Poissons Ratio (x) = -0.09072 0.09419
# Poissons Ratio (y) = -0.09737 0.50841
# Poissons Ratio (z) = 0.11151 0.56077
#
# Static dielectric constant tensor:
#      x y z
#    x 1.837630 0.000000 0.016220 
#    y 0.000000 1.750110 0.000000 
#    z 0.016220 0.000000 1.835010 
# 
# From -- ./inp_files/124909.got.cif
#   From: 2010.05.17/outbox.cif.g08.bks.cpg/sg15_63_cif.got.tgz:124909.got - 2010.06.03 18:47:42.
