data_PCOD9307683
_publ_section_title
;
Structure prediction by ZEFSAII (Michael W. Deem and Ramdas Pophale) SiO2 
 PCOD9307683
Probable space group: C 2/C
;
_chemical_formula_sum "Si O2"
_cell_formula_units_Z 36
_cell_length_a 15.340761
_cell_length_b 11.111012
_cell_length_c 19.086766
_cell_angle_alpha 90.000000
_cell_angle_beta 151.107505
_cell_angle_gamma 90.000000
_cell_volume 1571.921187
_symmetry_space_group_name_H-M "C 2/C"
_symmetry_group_IT_number 15
_symmetry_cell_setting 'monoclinic'
loop_
_space_group_symop_operation_xyz
x,y,z
-x,y,1/2-z
-x,-y,-z
x,-y,1/2+z
1/2+x,1/2+y,z
1/2-x,1/2+y,1/2-z
1/2-x,1/2-y,-z
1/2+x,1/2-y,1/2+z
loop_
_atom_site_type_symbol
_atom_site_label
_atom_site_fract_x
_atom_site_fract_y
_atom_site_fract_z
Si Si1 0.715864 0.855673 0.685764
Si Si2 0.295191 0.801892 0.108055
Si Si3 0.000000 0.126923 0.750000
Si Si4 0.660412 0.240948 0.585604
Si Si5 0.967370 0.980220 0.081217
O O1 0.776393 0.799864 0.654246
O O2 0.499742 0.855814 0.534581
O O3 0.824336 0.978541 0.774873
O O4 0.419195 0.635548 0.502187
O O5 0.500000 0.847320 0.250000
O O6 0.250000 0.750000 0.000000
O O7 0.156087 0.907915 0.027529
O O8 0.163139 0.204668 0.833543
O O9 0.071634 0.049013 0.865068
O O10 0.716733 0.267861 0.704688
#
# Coordination Sequence:
#
# PCOD9307683 Si02
#       5
#     8   8   4   8   8
#     4  12  25  47  77 107 148 191 255 308 359 450
#     4  12  24  45  73 111 150 192 252 310 368 444
#     4  12  28  50  74 112 156 194 250 308 366 456
#     4  12  27  49  73 111 153 193 251 306 369 444
#     4  12  26  46  76 107 147 203 243 302 385 427
#
# _framework density 22.901910999999998
#
# number of rings (size 3 to 8) (size 9 to 14) (size 15 to 20)
#    0.000    0.000    6.667    2.667    1.556    0.889 
#    0.000    0.000    0.000    0.000    0.000    0.000 
#    0.000    0.000    0.000    0.000    0.000    0.000 
#
# Total GULP energy -100902.286059 kJ/mol
# GULP energy per Si atom -5605.682559 kJ/mol
# Density = 2.284979 g / cm^3
# Si number density = 22.901911 Si / 1000 Ang^3
#
#
#
# Elastic Constant Matrix: (Units=GPa)
#
#
# Indices 1 2 3 4 5 6 
#
# 1 126.9360 17.9294 53.1493 -0.0003 2.8468 -0.0001
# 2 17.9294 68.5693 21.2012 -0.0010 9.6598 0.0001
# 3 53.1493 21.2012 132.6392 -0.0009 6.0826 0.0000
# 4 -0.0003 -0.0010 -0.0009 33.3956 -0.0001 0.6447
# 5 2.8468 9.6598 6.0826 -0.0001 62.2425 -0.0001
# 6 -0.0001 0.0001 0.0000 0.6447 -0.0001 28.1767
#
#
#
# Elastic Compliance Matrix: (Units=1/GPa)
#
#
# Indices 1 2 3 4 5 6 
#
# 1 0.009591 -0.001406 -0.003625 0.000000 0.000134 0.000000
# 2 -0.001406 0.015840 -0.001867 0.000000 -0.002212 0.000000
# 3 -0.003625 -0.001867 0.009311 0.000000 -0.000454 0.000000
# 4 0.000000 0.000000 0.000000 0.029957 0.000000 -0.000685
# 5 0.000134 -0.002212 -0.000454 0.000000 0.016448 0.000000
# 6 0.000000 0.000000 0.000000 -0.000685 0.000000 0.035506
#
#
# Mechanical properties :
#
#
# Convention : Reuss Voigt Hill
#
# Bulk Modulus (GPa) = 47.73976 56.96714 52.35345
# Shear Modulus (GPa) = 36.38178 40.48726 38.43452
#
# Velocity S-wave (km/s) = 3.99004 4.20915 4.10106
# Velocity P-wave (km/s) = 6.48982 6.96785 6.73308
#
# Compressibility (1/GPa) = 0.02094690
#
# Stress axis : x y z
#
# Youngs Moduli (GPa) = 104.26145 63.13020 107.40040
#
# Poissons Ratio (x) = 0.08876 0.38929
# Poissons Ratio (y) = 0.14659 0.20053
# Poissons Ratio (z) = 0.37791 0.11787
#
# Static dielectric constant tensor:
#      x y z
#    x 1.821530 0.000000 0.013480 
#    y 0.000000 1.855830 0.000000 
#    z 0.013480 0.000000 1.841820 
# 
# From -- ./inp_files/46869.got.cif
#   From: 2010.05.17/outbox.cif.g08.bks.cpg/sg15_24_cif.got.tgz:46869.got - 2010.06.03 18:47:42.
