data_PCOD9307803
_publ_section_title
;
Structure prediction by ZEFSAII (Michael W. Deem and Ramdas Pophale) SiO2 
 PCOD9307803
Probable space group: C 2/C
;
_chemical_formula_sum "Si O2"
_cell_formula_units_Z 36
_cell_length_a 10.774681
_cell_length_b 21.542626
_cell_length_c 11.167642
_cell_angle_alpha 90.000000
_cell_angle_beta 34.159292
_cell_angle_gamma 90.000000
_cell_volume 1455.495635
_symmetry_space_group_name_H-M "C 2/C"
_symmetry_group_IT_number 15
_symmetry_cell_setting 'monoclinic'
loop_
_space_group_symop_operation_xyz
x,y,z
-x,y,1/2-z
-x,-y,-z
x,-y,1/2+z
1/2+x,1/2+y,z
1/2-x,1/2+y,1/2-z
1/2-x,1/2-y,-z
1/2+x,1/2-y,1/2+z
loop_
_atom_site_type_symbol
_atom_site_label
_atom_site_fract_x
_atom_site_fract_y
_atom_site_fract_z
Si Si1 0.000000 0.512021 0.750000
Si Si2 0.694083 0.232497 0.660627
Si Si3 0.912144 0.920746 0.450139
Si Si4 0.856199 0.603996 0.688895
Si Si5 0.389638 0.815960 0.711949
O O1 0.027093 0.557033 0.613760
O O2 0.215187 0.469736 0.594197
O O3 0.706314 0.158076 0.667250
O O4 0.786463 0.262883 0.711863
O O5 0.917357 0.254460 0.401388
O O6 0.809230 0.860929 0.593747
O O7 0.000000 0.903764 0.250000
O O8 0.138229 0.936173 0.337253
O O9 0.951472 0.640377 0.497500
O O10 0.500000 0.795960 0.750000
#
# Coordination Sequence:
#
# PCOD9307803 Si02
#       5
#     4   8   8   8   8
#     4  12  26  50  78 112 162 202 268 326 376 472
#     4  12  24  48  77 114 156 204 256 320 397 474
#     4  12  26  48  76 115 152 207 266 318 395 454
#     4  12  26  48  78 113 157 201 263 319 394 466
#     4  12  26  49  77 115 160 205 260 325 396 473
#
# _framework density 24.733844000000001
#
# number of rings (size 3 to 8) (size 9 to 14) (size 15 to 20)
#    0.000    0.000    6.667    2.000    0.000    7.111 
#    0.000    1.111    0.000    0.000    0.000    0.000 
#    0.000    0.000    0.000    0.000    0.000    0.000 
#
# Total GULP energy -100682.697770 kJ/mol
# GULP energy per Si atom -5593.483209 kJ/mol
# Density = 2.467755 g / cm^3
# Si number density = 24.733844 Si / 1000 Ang^3
#
#
#
# Elastic Constant Matrix: (Units=GPa)
#
#
# Indices 1 2 3 4 5 6 
#
# 1 194.0345 50.4021 56.1056 0.0000 -17.7761 0.0000
# 2 50.4021 87.1113 33.1863 0.0000 -2.0176 0.0000
# 3 56.1056 33.1863 116.8665 0.0000 0.4655 -0.0001
# 4 0.0000 0.0000 0.0000 81.3591 0.0000 21.6177
# 5 -17.7761 -2.0176 0.4655 0.0000 56.1045 0.0000
# 6 0.0000 0.0000 -0.0001 21.6177 0.0000 58.3032
#
#
#
# Elastic Compliance Matrix: (Units=1/GPa)
#
#
# Indices 1 2 3 4 5 6 
#
# 1 0.006820 -0.002969 -0.002440 0.000000 0.002074 0.000000
# 2 -0.002969 0.014178 -0.002599 0.000000 -0.000409 0.000000
# 3 -0.002440 -0.002599 0.010470 0.000000 -0.000953 0.000000
# 4 0.000000 0.000000 0.000000 0.013634 0.000000 -0.005055
# 5 0.002074 -0.000409 -0.000953 0.000000 0.018474 0.000000
# 6 0.000000 0.000000 0.000000 -0.005055 0.000000 0.019026
#
#
# Mechanical properties :
#
#
# Convention : Reuss Voigt Hill
#
# Bulk Modulus (GPa) = 64.71185 75.26670 69.98928
# Shear Modulus (GPa) = 48.18383 56.37458 52.27921
#
# Velocity S-wave (km/s) = 4.41851 4.77933 4.60246
# Velocity P-wave (km/s) = 7.22849 7.80722 7.52342
#
# Compressibility (1/GPa) = 0.01545312
#
# Stress axis : x y z
#
# Youngs Moduli (GPa) = 146.62039 70.53173 95.51236
#
# Poissons Ratio (x) = 0.20939 0.23301
# Poissons Ratio (y) = 0.43528 0.24826
# Poissons Ratio (z) = 0.35769 0.18333
#
# Static dielectric constant tensor:
#      x y z
#    x 2.065660 0.000000 0.000960 
#    y 0.000000 1.868690 0.000000 
#    z 0.000960 0.000000 1.943680 
# 
# From -- ./inp_files/4252.got.cif
#   From: 2010.05.17/outbox.cif.g08.bks.cpg/sg15_3_cif.got.tgz:4252.got - 2010.06.03 18:47:42.
