data_PCOD9307154
_publ_section_title
;
Structure prediction by ZEFSAII (Michael W. Deem and Ramdas Pophale) SiO2 
 PCOD9307154
Probable space group: C 2/C
;
_chemical_formula_sum "Si O2"
_cell_formula_units_Z 32
_cell_length_a 14.526356
_cell_length_b 18.335842
_cell_length_c 10.371986
_cell_angle_alpha 90.000000
_cell_angle_beta 149.685898
_cell_angle_gamma 90.000000
_cell_volume 1394.399710
_symmetry_space_group_name_H-M "C 2/C"
_symmetry_group_IT_number 15
_symmetry_cell_setting 'monoclinic'
loop_
_space_group_symop_operation_xyz
x,y,z
-x,y,1/2-z
-x,-y,-z
x,-y,1/2+z
1/2+x,1/2+y,z
1/2-x,1/2+y,1/2-z
1/2-x,1/2-y,-z
1/2+x,1/2-y,1/2+z
loop_
_atom_site_type_symbol
_atom_site_label
_atom_site_fract_x
_atom_site_fract_y
_atom_site_fract_z
Si Si1 0.000000 0.606407 0.250000
Si Si2 0.149959 0.845098 0.683935
Si Si3 0.000000 0.906808 0.750000
Si Si4 0.701967 0.979958 0.794207
Si Si5 0.734684 0.714958 0.839159
O O1 0.842617 0.558090 0.122677
O O2 0.095894 0.659638 0.469138
O O3 0.224444 0.918859 0.712886
O O4 0.263546 0.776311 0.768767
O O5 0.118822 0.857814 0.796861
O O6 0.950034 0.829487 0.386422
O O7 0.853545 0.957733 0.497350
O O8 0.500000 0.000000 0.500000
O O9 0.750000 0.750000 0.000000
#
# Coordination Sequence:
#
# PCOD9307154 Si02
#       5
#     4   8   4   8   8
#     4  12  22  39  72  99 136 178 252 288 354 410
#     4  12  25  45  70 104 145 182 246 296 364 427
#     4  12  28  45  70 105 150 196 234 290 376 436
#     4  12  25  46  71 104 146 192 238 297 355 435
#     4  12  22  42  72 106 135 189 240 310 349 420
#
# _framework density 22.948944999999998
#
# number of rings (size 3 to 8) (size 9 to 14) (size 15 to 20)
#    0.000    0.000    5.000    5.250    0.000    1.000 
#    0.000    0.000    0.000    0.000    0.000    0.000 
#    0.000    0.000    0.000    0.000    0.000    0.000 
#
# Total GULP energy -89563.196788 kJ/mol
# GULP energy per Si atom -5597.699799 kJ/mol
# Density = 2.289671 g / cm^3
# Si number density = 22.948945 Si / 1000 Ang^3
#
#
#
# Elastic Constant Matrix: (Units=GPa)
#
#
# Indices 1 2 3 4 5 6 
#
# 1 142.1374 52.3118 -7.2784 0.0000 11.6805 0.0000
# 2 52.3118 93.3253 41.9749 0.0000 2.4015 0.0000
# 3 -7.2784 41.9749 114.5555 0.0000 20.3218 0.0000
# 4 0.0000 0.0000 0.0000 27.9957 0.0000 -6.1363
# 5 11.6805 2.4015 20.3218 0.0000 30.0633 0.0000
# 6 0.0000 0.0000 0.0000 -6.1363 0.0000 -10.0771
#
#
#
# Elastic Compliance Matrix: (Units=1/GPa)
#
#
# Indices 1 2 3 4 5 6 
#
# 1 0.010818 -0.008073 0.004859 0.000000 -0.006843 0.000000
# 2 -0.008073 0.019015 -0.008826 0.000000 0.007584 0.000000
# 3 0.004859 -0.008826 0.014183 0.000000 -0.010770 0.000000
# 4 0.000000 0.000000 0.000000 0.031514 0.000000 -0.019190
# 5 -0.006843 0.007584 -0.010770 0.000000 0.042596 0.000000
# 6 0.000000 0.000000 0.000000 -0.019190 0.000000 -0.087549
#
#
# Mechanical properties :
#
#
# Convention : Reuss Voigt Hill
#
# Bulk Modulus (GPa) = 50.15959 58.22609 54.19284
# Shear Modulus (GPa) = 81.56571 27.13036 54.34804
#
# Velocity S-wave (km/s) = 5.96820 3.44205 4.87171
# Velocity P-wave (km/s) = 8.33049 6.42060 7.43711
#
# Compressibility (1/GPa) = 0.01993637
#
# Stress axis : x y z
#
# Youngs Moduli (GPa) = 92.43949 52.59032 70.50921
#
# Poissons Ratio (x) = 0.42458 -0.34263
# Poissons Ratio (y) = 0.74629 0.62229
# Poissons Ratio (z) = -0.44920 0.46414
#
# Static dielectric constant tensor:
#      x y z
#    x 1.999100 0.000000 0.005700 
#    y 0.000000 1.904600 0.000000 
#    z 0.005700 0.000000 1.845470 
# 
# From -- ./inp_files/28652.got.cif
#   From: 2010.05.17/outbox.cif.g08.bks.cpg/sg15_15_cif.got.tgz:28652.got - 2010.06.03 18:47:42.
