data_PCOD9307686
_publ_section_title
;
Structure prediction by ZEFSAII (Michael W. Deem and Ramdas Pophale) SiO2 
 PCOD9307686
Probable space group: C 2/C
;
_chemical_formula_sum "Si O2"
_cell_formula_units_Z 24
_cell_length_a 18.831973
_cell_length_b 6.511665
_cell_length_c 9.690850
_cell_angle_alpha 90.000000
_cell_angle_beta 59.798822
_cell_angle_gamma 90.000000
_cell_volume 1027.061378
_symmetry_space_group_name_H-M "C 2/C"
_symmetry_group_IT_number 15
_symmetry_cell_setting 'monoclinic'
loop_
_space_group_symop_operation_xyz
x,y,z
-x,y,1/2-z
-x,-y,-z
x,-y,1/2+z
1/2+x,1/2+y,z
1/2-x,1/2+y,1/2-z
1/2-x,1/2-y,-z
1/2+x,1/2-y,1/2+z
loop_
_atom_site_type_symbol
_atom_site_label
_atom_site_fract_x
_atom_site_fract_y
_atom_site_fract_z
Si Si1 0.702343 0.115027 0.434067
Si Si2 0.632844 0.531162 0.842037
Si Si3 0.414016 0.753501 0.880999
O O1 0.750000 0.250000 0.500000
O O2 0.635823 0.255480 0.421963
O O3 0.772259 0.041125 0.259557
O O4 0.657691 0.920404 0.544274
O O5 0.604981 0.580219 0.714920
O O6 0.583460 0.359505 0.973766
O O7 0.500000 0.848618 0.750000
#
# Coordination Sequence:
#
# PCOD9307686 Si02
#       3
#     8   8   8
#     4  12  24  45  74 103 139 186 240 285 345 422
#     4  12  24  46  74 101 142 188 236 286 346 423
#     4  12  28  45  71 108 144 182 233 294 353 410
#
# _framework density 23.367639
#
# number of rings (size 3 to 8) (size 9 to 14) (size 15 to 20)
#    0.000    0.000    6.667    4.000    0.000    2.667 
#    0.000    0.000    0.000    0.000    0.000    0.000 
#    0.000    0.000    0.000    0.000    0.000    0.000 
#
# Total GULP energy -67219.812926 kJ/mol
# GULP energy per Si atom -5601.651077 kJ/mol
# Density = 2.331445 g / cm^3
# Si number density = 23.367639 Si / 1000 Ang^3
#
#
#
# Elastic Constant Matrix: (Units=GPa)
#
#
# Indices 1 2 3 4 5 6 
#
# 1 23.4724 8.7703 15.6869 0.0000 3.8262 0.0000
# 2 8.7703 77.7900 52.8111 0.0000 5.0290 0.0000
# 3 15.6869 52.8111 133.3125 0.0000 -14.9936 0.0000
# 4 0.0000 0.0000 0.0000 20.8240 0.0000 8.2093
# 5 3.8262 5.0290 -14.9936 0.0000 43.2905 0.0000
# 6 0.0000 0.0000 0.0000 8.2093 0.0000 35.3296
#
#
#
# Elastic Compliance Matrix: (Units=1/GPa)
#
#
# Indices 1 2 3 4 5 6 
#
# 1 0.047953 -0.000961 -0.005958 0.000000 -0.006190 0.000000
# 2 -0.000961 0.018546 -0.007769 0.000000 -0.004760 0.000000
# 3 -0.005958 -0.007769 0.011904 0.000000 0.005552 0.000000
# 4 0.000000 0.000000 0.000000 0.052864 0.000000 -0.012284
# 5 -0.006190 -0.004760 0.005552 0.000000 0.026123 0.000000
# 6 0.000000 0.000000 0.000000 -0.012284 0.000000 0.031159
#
#
# Mechanical properties :
#
#
# Convention : Reuss Voigt Hill
#
# Bulk Modulus (GPa) = 20.39712 43.23461 31.81587
# Shear Modulus (GPa) = 21.34302 30.37591 25.85946
#
# Velocity S-wave (km/s) = 3.02546 3.60934 3.33022
# Velocity P-wave (km/s) = 4.57737 5.99265 5.33217
#
# Compressibility (1/GPa) = 0.04902653
#
# Stress axis : x y z
#
# Youngs Moduli (GPa) = 20.85354 53.92125 84.00278
#
# Poissons Ratio (x) = 0.05184 0.50050
# Poissons Ratio (y) = 0.02005 0.65262
# Poissons Ratio (z) = 0.12425 0.41891
#
# Static dielectric constant tensor:
#      x y z
#    x 1.911150 0.000000 0.001170 
#    y 0.000000 1.867770 0.000000 
#    z 0.001170 0.000000 1.889790 
# 
# From -- ./inp_files/45286.got.cif
#   From: 2010.05.17/outbox.cif.g08.bks.cpg/sg15_23_cif.got.tgz:45286.got - 2010.06.03 18:47:42.
