data_PCOD9307091
_publ_section_title
;
Structure prediction by ZEFSAII (Michael W. Deem and Ramdas Pophale) SiO2 
 PCOD9307091
Probable space group: C 2/C
;
_chemical_formula_sum "Si O2"
_cell_formula_units_Z 52
_cell_length_a 13.383816
_cell_length_b 5.402406
_cell_length_c 34.154344
_cell_angle_alpha 90.000000
_cell_angle_beta 117.808972
_cell_angle_gamma 90.000000
_cell_volume 2184.312931
_symmetry_space_group_name_H-M "C 2/C"
_symmetry_group_IT_number 15
_symmetry_cell_setting 'monoclinic'
loop_
_space_group_symop_operation_xyz
x,y,z
-x,y,1/2-z
-x,-y,-z
x,-y,1/2+z
1/2+x,1/2+y,z
1/2-x,1/2+y,1/2-z
1/2-x,1/2-y,-z
1/2+x,1/2-y,1/2+z
loop_
_atom_site_type_symbol
_atom_site_label
_atom_site_fract_x
_atom_site_fract_y
_atom_site_fract_z
Si Si1 0.266284 0.000659 0.527484
Si Si2 0.331139 0.571944 0.908545
Si Si3 0.000000 0.453555 0.750000
Si Si4 0.280595 0.809970 0.683859
Si Si5 0.022487 0.294813 0.900698
Si Si6 0.086052 0.562796 0.686374
Si Si7 0.624356 0.564067 0.355569
O O1 0.250000 0.750000 0.500000
O O2 0.394368 0.999736 0.567312
O O3 0.250000 0.250000 0.500000
O O4 0.186129 0.981614 0.550716
O O5 0.296657 0.387790 0.866950
O O6 0.457883 0.654723 0.923015
O O7 0.237931 0.789027 0.886768
O O8 0.127000 0.521835 0.789807
O O9 0.056370 0.389083 0.717786
O O10 0.202235 0.713716 0.704591
O O11 0.355914 0.584818 0.681098
O O12 0.925572 0.403777 0.854966
O O13 0.097529 0.126104 0.885816
O O14 0.984917 0.761783 0.666970
#
# Coordination Sequence:
#
# PCOD9307091 Si02
#       7
#     8   8   4   8   8   8   8
#     4  12  28  48  76 116 156 189 241 314 385 447
#     4  12  25  46  77 105 141 195 249 292 366 454
#     4  12  26  46  60 112 154 180 242 318 382 420
#     4  12  26  43  74 103 138 195 250 298 368 445
#     4  12  25  46  77 105 141 195 249 292 366 454
#     4  12  26  43  74 103 138 195 250 298 368 445
#     4  12  21  45  74 100 136 190 248 300 350 442
#
# _framework density 23.806113
#
# number of rings (size 3 to 8) (size 9 to 14) (size 15 to 20)
#    0.000    0.000    9.231    0.923    0.000    5.538 
#    0.000    0.000    0.000    0.000    0.000    0.000 
#    0.000    0.000    0.000    0.000    0.000    0.000 
#
# Total GULP energy -145056.822367 kJ/mol
# GULP energy per Si atom -5579.108553 kJ/mol
# Density = 2.375193 g / cm^3
# Si number density = 23.806113 Si / 1000 Ang^3
#
#
#
# Elastic Constant Matrix: (Units=GPa)
#
#
# Indices 1 2 3 4 5 6 
#
# 1 150.3535 17.7998 34.5765 0.0000 -31.5447 0.0000
# 2 17.7998 69.2146 7.3054 0.0001 -5.9886 0.0001
# 3 34.5765 7.3054 82.7590 0.0001 -18.6383 0.0000
# 4 0.0000 0.0001 0.0001 511.7818 0.0000 152.0483
# 5 -31.5447 -5.9886 -18.6383 0.0000 24.8200 0.0000
# 6 0.0000 0.0001 0.0000 152.0483 0.0000 89.6712
#
#
#
# Elastic Compliance Matrix: (Units=1/GPa)
#
#
# Indices 1 2 3 4 5 6 
#
# 1 0.009334 -0.001344 -0.001423 0.000000 0.010470 0.000000
# 2 -0.001344 0.014974 -0.000399 0.000000 0.001605 0.000000
# 3 -0.001423 -0.000399 0.014784 0.000000 0.009197 0.000000
# 4 0.000000 0.000000 0.000000 0.003938 0.000000 -0.006677
# 5 0.010470 0.001605 0.009197 0.000000 0.060891 0.000000
# 6 0.000000 0.000000 0.000000 -0.006677 0.000000 0.022473
#
#
# Mechanical properties :
#
#
# Convention : Reuss Voigt Hill
#
# Bulk Modulus (GPa) = 30.52442 46.85452 38.68947
# Shear Modulus (GPa) = 34.80766 141.43095 88.11931
#
# Velocity S-wave (km/s) = 3.82793 7.71612 6.09063
# Velocity P-wave (km/s) = 5.69099 9.95535 8.10853
#
# Compressibility (1/GPa) = 0.03276065
#
# Stress axis : x y z
#
# Youngs Moduli (GPa) = 107.13456 66.78022 67.63889
#
# Poissons Ratio (x) = 0.08977 0.09626
# Poissons Ratio (y) = 0.14402 0.02697
# Poissons Ratio (z) = 0.15246 0.02663
#
# Static dielectric constant tensor:
#      x y z
#    x 1.848030 0.000000 0.032580 
#    y 0.000000 1.986240 0.000000 
#    z 0.032580 0.000000 1.958770 
# 
# From -- ./inp_files/312428.got.cif
#   From: 2010.05.17/outbox.cif.g08.bks.cpg/sg15_157_cif.got.tgz:312428.got - 2010.06.03 18:47:42.
