data_PCOD9307219
_publ_section_title
;
Structure prediction by ZEFSAII (Michael W. Deem and Ramdas Pophale) SiO2 
 PCOD9307219
Probable space group: C 2/C
;
_chemical_formula_sum "Si O2"
_cell_formula_units_Z 44
_cell_length_a 10.220093
_cell_length_b 23.104537
_cell_length_c 10.532348
_cell_angle_alpha 90.000000
_cell_angle_beta 129.427710
_cell_angle_gamma 90.000000
_cell_volume 1921.031505
_symmetry_space_group_name_H-M "C 2/C"
_symmetry_group_IT_number 15
_symmetry_cell_setting 'monoclinic'
loop_
_space_group_symop_operation_xyz
x,y,z
-x,y,1/2-z
-x,-y,-z
x,-y,1/2+z
1/2+x,1/2+y,z
1/2-x,1/2+y,1/2-z
1/2-x,1/2-y,-z
1/2+x,1/2-y,1/2+z
loop_
_atom_site_type_symbol
_atom_site_label
_atom_site_fract_x
_atom_site_fract_y
_atom_site_fract_z
Si Si1 0.500000 0.098944 0.250000
Si Si2 0.092518 0.238628 0.999533
Si Si3 0.500000 0.356327 0.250000
Si Si4 0.299112 0.171234 0.302282
Si Si5 0.796550 0.945704 0.621281
Si Si6 0.000000 0.568753 0.750000
Si Si7 0.177449 0.434269 0.107846
O O1 0.345610 0.138712 0.199541
O O2 0.555045 0.066322 0.409984
O O3 0.998746 0.186118 0.870586
O O4 0.969369 0.293299 0.938257
O O5 0.250000 0.250000 0.000000
O O6 0.158544 0.217458 0.176032
O O7 0.338554 0.397171 0.166897
O O8 0.239248 0.120046 0.356055
O O9 0.680646 0.954343 0.423213
O O10 0.000000 0.951934 0.750000
O O11 0.731565 0.999561 0.666720
O O12 0.080825 0.592420 0.668778
#
# Coordination Sequence:
#
# PCOD9307219 Si02
#       7
#     4   8   4   8   8   4   8
#     4  12  22  44  80 118 150 207 256 335 398 482
#     4  12  22  42  73 114 145 196 273 341 383 453
#     4  12  23  42  79 116 147 205 268 336 386 488
#     4  12  25  44  76 112 155 194 272 340 390 463
#     4  12  30  52  74 114 166 219 267 329 412 491
#     4  12  29  46  77 114 161 216 260 329 406 488
#     4  12  27  48  79 118 163 208 269 328 410 488
#
# _framework density 22.904361000000002
#
# number of rings (size 3 to 8) (size 9 to 14) (size 15 to 20)
#    0.000    0.000    8.182    1.091    5.091    0.727 
#    0.000    0.909    2.000    0.000    0.000    0.000 
#    0.000    0.000    0.000    0.000    0.000    0.000 
#
# Total GULP energy -122647.616644 kJ/mol
# GULP energy per Si atom -5574.891666 kJ/mol
# Density = 2.285223 g / cm^3
# Si number density = 22.904361 Si / 1000 Ang^3
#
#
#
# Elastic Constant Matrix: (Units=GPa)
#
#
# Indices 1 2 3 4 5 6 
#
# 1 92.8876 41.7291 49.1144 0.0000 6.0475 0.0000
# 2 41.7291 140.0252 47.6261 0.0000 10.3093 0.0000
# 3 49.1144 47.6261 119.4230 0.0000 14.1759 0.0000
# 4 0.0000 0.0000 0.0000 24.5847 0.0000 -20.1062
# 5 6.0475 10.3093 14.1759 0.0000 37.1610 0.0000
# 6 0.0000 0.0000 0.0000 -20.1062 0.0000 -0.2561
#
#
#
# Elastic Compliance Matrix: (Units=1/GPa)
#
#
# Indices 1 2 3 4 5 6 
#
# 1 0.014572 -0.002676 -0.004957 0.000000 0.000262 0.000000
# 2 -0.002676 0.008796 -0.002272 0.000000 -0.001138 0.000000
# 3 -0.004957 -0.002272 0.011676 0.000000 -0.003017 0.000000
# 4 0.000000 0.000000 0.000000 0.000624 0.000000 -0.048973
# 5 0.000262 -0.001138 -0.003017 0.000000 0.028334 0.000000
# 6 0.000000 0.000000 0.000000 -0.048973 0.000000 -0.059882
#
#
# Mechanical properties :
#
#
# Convention : Reuss Voigt Hill
#
# Bulk Modulus (GPa) = 65.64198 69.91945 67.78072
# Shear Modulus (GPa) = 172.37037 26.55567 99.46302
#
# Velocity S-wave (km/s) = 8.68447 3.40871 6.59694
# Velocity P-wave (km/s) = 11.37019 6.78862 9.36394
#
# Compressibility (1/GPa) = 0.01523415
#
# Stress axis : x y z
#
# Youngs Moduli (GPa) = 68.62646 113.69319 85.64287
#
# Poissons Ratio (x) = 0.30423 0.42451
# Poissons Ratio (y) = 0.18364 0.19459
# Poissons Ratio (z) = 0.34016 0.25833
#
# Static dielectric constant tensor:
#      x y z
#    x 1.845600 0.000000 0.006760 
#    y 0.000000 1.900990 0.000000 
#    z 0.006760 0.000000 1.921100 
# 
# From -- ./inp_files/147296.got.cif
#   From: 2010.05.17/outbox.cif.g08.bks.cpg/sg15_74_cif.got.tgz:147296.got - 2010.06.03 18:47:42.
