data_PCOD9307075
_publ_section_title
;
Structure prediction by ZEFSAII (Michael W. Deem and Ramdas Pophale) SiO2 
 PCOD9307075
Probable space group: C 2/C
;
_chemical_formula_sum "Si O2"
_cell_formula_units_Z 32
_cell_length_a 10.723997
_cell_length_b 17.019608
_cell_length_c 7.483651
_cell_angle_alpha 90.000000
_cell_angle_beta 93.821860
_cell_angle_gamma 90.000000
_cell_volume 1362.865081
_symmetry_space_group_name_H-M "C 2/C"
_symmetry_group_IT_number 15
_symmetry_cell_setting 'monoclinic'
loop_
_space_group_symop_operation_xyz
x,y,z
-x,y,1/2-z
-x,-y,-z
x,-y,1/2+z
1/2+x,1/2+y,z
1/2-x,1/2+y,1/2-z
1/2-x,1/2-y,-z
1/2+x,1/2-y,1/2+z
loop_
_atom_site_type_symbol
_atom_site_label
_atom_site_fract_x
_atom_site_fract_y
_atom_site_fract_z
Si Si1 0.987973 0.592298 0.036788
Si Si2 0.722813 0.334557 0.418435
Si Si3 0.634400 0.554014 0.193000
Si Si4 0.747917 0.607616 0.566363
O O1 0.000000 0.606661 0.250000
O O2 0.855239 0.620770 0.954022
O O3 0.106908 0.627571 0.946329
O O4 0.000000 0.500000 0.000000
O O5 0.750000 0.250000 0.500000
O O6 0.627451 0.386648 0.525788
O O7 0.689642 0.334358 0.206516
O O8 0.500000 0.526390 0.250000
O O9 0.693226 0.601655 0.363130
O O10 0.718850 0.479386 0.146452
#
# Coordination Sequence:
#
# PCOD9307075 Si02
#       4
#     8   8   8   8
#     4  12  21  43  76 106 136 185 252 301 348 439
#     4  12  28  46  69 112 148 183 241 313 377 418
#     4  12  25  44  71 107 142 191 248 299 361 444
#     4  12  23  44  76 100 138 192 250 295 353 443
#
# _framework density 23.479946999999999
#
# number of rings (size 3 to 8) (size 9 to 14) (size 15 to 20)
#    0.000    0.000    7.500    3.000    0.000    3.000 
#    4.500    0.000    0.000    0.000    0.000    0.000 
#    0.000    0.000    0.000    0.000    0.000    0.000 
#
# Total GULP energy -89603.647427 kJ/mol
# GULP energy per Si atom -5600.227964 kJ/mol
# Density = 2.342651 g / cm^3
# Si number density = 23.479947 Si / 1000 Ang^3
#
#
#
# Elastic Constant Matrix: (Units=GPa)
#
#
# Indices 1 2 3 4 5 6 
#
# 1 75.4394 -12.3981 0.2725 0.0000 -24.0964 0.0000
# 2 -12.3981 69.4704 1.1459 0.0000 -20.2552 0.0000
# 3 0.2725 1.1459 152.0703 0.0000 -20.7527 0.0000
# 4 0.0000 0.0000 0.0000 11.9945 0.0000 -4.7716
# 5 -24.0964 -20.2552 -20.7527 0.0000 40.8274 0.0000
# 6 0.0000 0.0000 0.0000 -4.7716 0.0000 9.9961
#
#
#
# Elastic Compliance Matrix: (Units=1/GPa)
#
#
# Indices 1 2 3 4 5 6 
#
# 1 0.020213 0.008633 0.002269 0.000000 0.017366 0.000000
# 2 0.008633 0.020686 0.002068 0.000000 0.016409 0.000000
# 3 0.002269 0.002068 0.007392 0.000000 0.006122 0.000000
# 4 0.000000 0.000000 0.000000 0.102915 0.000000 0.049126
# 5 0.017366 0.016409 0.006122 0.000000 0.045996 0.000000
# 6 0.000000 0.000000 0.000000 0.049126 0.000000 0.123489
#
#
# Mechanical properties :
#
#
# Convention : Reuss Voigt Hill
#
# Bulk Modulus (GPa) = 13.47147 30.55786 22.01467
# Shear Modulus (GPa) = 15.64976 33.09424 24.37200
#
# Velocity S-wave (km/s) = 2.58450 3.75836 3.22528
# Velocity P-wave (km/s) = 3.82832 5.64592 4.82351
#
# Compressibility (1/GPa) = 0.07423096
#
# Stress axis : x y z
#
# Youngs Moduli (GPa) = 49.47210 48.34274 135.28616
#
# Poissons Ratio (x) = -0.41736 -0.30692
# Poissons Ratio (y) = -0.42711 -0.27977
# Poissons Ratio (z) = -0.11224 -0.09997
#
# Static dielectric constant tensor:
#      x y z
#    x 1.935830 0.000000 0.030020 
#    y 0.000000 1.859340 0.000000 
#    z 0.030020 0.000000 1.949140 
# 
# From -- ./inp_files/27848.got.cif
#   From: 2010.05.17/outbox.cif.g08.bks.cpg/sg15_14_cif.got.tgz:27848.got - 2010.06.03 18:47:42.
