data_PCOD9307795
_publ_section_title
;
Structure prediction by ZEFSAII (Michael W. Deem and Ramdas Pophale) SiO2 
 PCOD9307795
Probable space group: C 2/C
;
_chemical_formula_sum "Si O2"
_cell_formula_units_Z 32
_cell_length_a 8.032318
_cell_length_b 18.318420
_cell_length_c 10.492122
_cell_angle_alpha 90.000000
_cell_angle_beta 125.900132
_cell_angle_gamma 90.000000
_cell_volume 1250.543658
_symmetry_space_group_name_H-M "C 2/C"
_symmetry_group_IT_number 15
_symmetry_cell_setting 'monoclinic'
loop_
_space_group_symop_operation_xyz
x,y,z
-x,y,1/2-z
-x,-y,-z
x,-y,1/2+z
1/2+x,1/2+y,z
1/2-x,1/2+y,1/2-z
1/2-x,1/2-y,-z
1/2+x,1/2-y,1/2+z
loop_
_atom_site_type_symbol
_atom_site_label
_atom_site_fract_x
_atom_site_fract_y
_atom_site_fract_z
Si Si1 0.271006 0.578656 0.171991
Si Si2 0.775002 0.521345 0.612588
Si Si3 0.611896 0.340292 0.169903
Si Si4 0.039761 0.284011 0.468140
O O1 0.500000 0.607793 0.250000
O O2 0.251146 0.546007 0.303451
O O3 0.241749 0.516791 0.047636
O O4 0.111981 0.642379 0.070978
O O5 0.632324 0.586859 0.596332
O O6 0.000000 0.548626 0.750000
O O7 0.500000 0.358584 0.250000
O O8 0.839176 0.305740 0.297086
O O9 0.480182 0.279614 0.038363
O O10 0.250000 0.250000 0.500000
#
# Coordination Sequence:
#
# PCOD9307795 Si02
#       4
#     8   8   8   8
#     4  12  26  46  76 107 145 190 245 297 366 435
#     4  12  25  49  73 105 149 192 240 303 365 434
#     4  12  26  46  72 107 147 185 245 305 360 431
#     4  12  24  48  75 102 142 194 242 294 366 435
#
# _framework density 25.588871999999999
#
# number of rings (size 3 to 8) (size 9 to 14) (size 15 to 20)
#    0.000    0.000    5.000    5.250    0.000    1.000 
#    0.000    0.000    0.000    0.000    0.000    0.000 
#    0.000    0.000    0.000    0.000    0.000    0.000 
#
# Total GULP energy -89651.854667 kJ/mol
# GULP energy per Si atom -5603.240917 kJ/mol
# Density = 2.553063 g / cm^3
# Si number density = 25.588872 Si / 1000 Ang^3
#
#
#
# Elastic Constant Matrix: (Units=GPa)
#
#
# Indices 1 2 3 4 5 6 
#
# 1 82.0146 2.1110 12.3040 0.0000 -13.7694 0.0000
# 2 2.1110 96.7264 21.5654 0.0000 -17.4619 0.0000
# 3 12.3040 21.5654 109.9291 0.0000 5.1939 0.0000
# 4 0.0000 0.0000 0.0000 26.6654 0.0000 -11.2771
# 5 -13.7694 -17.4619 5.1939 0.0000 22.9222 0.0000
# 6 0.0000 0.0000 0.0000 -11.2771 0.0000 29.1911
#
#
#
# Elastic Compliance Matrix: (Units=1/GPa)
#
#
# Indices 1 2 3 4 5 6 
#
# 1 0.014348 0.002223 -0.002557 0.000000 0.010892 0.000000
# 2 0.002223 0.013259 -0.003427 0.000000 0.012212 0.000000
# 3 -0.002557 -0.003427 0.010362 0.000000 -0.006494 0.000000
# 4 0.000000 0.000000 0.000000 0.044825 0.000000 0.017317
# 5 0.010892 0.012212 -0.006494 0.000000 0.060943 0.000000
# 6 0.000000 0.000000 0.000000 0.017317 0.000000 0.040947
#
#
# Mechanical properties :
#
#
# Convention : Reuss Voigt Hill
#
# Bulk Modulus (GPa) = 32.84308 40.07010 36.45659
# Shear Modulus (GPa) = 24.70919 32.60170 28.65544
#
# Velocity S-wave (km/s) = 3.11082 3.57327 3.35003
# Velocity P-wave (km/s) = 5.07599 5.71992 5.40755
#
# Compressibility (1/GPa) = 0.03044782
#
# Stress axis : x y z
#
# Youngs Moduli (GPa) = 69.69671 75.42275 96.50621
#
# Poissons Ratio (x) = -0.16767 0.24673
# Poissons Ratio (y) = -0.15495 0.33071
# Poissons Ratio (z) = 0.17819 0.25846
#
# Static dielectric constant tensor:
#      x y z
#    x 2.045750 0.000000 -0.011290 
#    y 0.000000 1.959790 0.000000 
#    z -0.011290 0.000000 2.020300 
# 
# From -- ./inp_files/76516.got.cif
#   From: 2010.05.17/outbox.cif.g08.bks.cpg/sg15_39_cif.got.tgz:76516.got - 2010.06.03 18:47:42.
