data_PCOD9307137
_publ_section_title
;
Structure prediction by ZEFSAII (Michael W. Deem and Ramdas Pophale) SiO2 
 PCOD9307137
Probable space group: C 2/C
;
_chemical_formula_sum "Si O2"
_cell_formula_units_Z 60
_cell_length_a 16.930172
_cell_length_b 19.849733
_cell_length_c 17.283996
_cell_angle_alpha 90.000000
_cell_angle_beta 30.143693
_cell_angle_gamma 90.000000
_cell_volume 2916.830944
_symmetry_space_group_name_H-M "C 2/C"
_symmetry_group_IT_number 15
_symmetry_cell_setting 'monoclinic'
loop_
_space_group_symop_operation_xyz
x,y,z
-x,y,1/2-z
-x,-y,-z
x,-y,1/2+z
1/2+x,1/2+y,z
1/2-x,1/2+y,1/2-z
1/2-x,1/2-y,-z
1/2+x,1/2-y,1/2+z
loop_
_atom_site_type_symbol
_atom_site_label
_atom_site_fract_x
_atom_site_fract_y
_atom_site_fract_z
Si Si1 0.637712 0.806313 0.983474
Si Si2 0.496053 0.677839 0.166971
Si Si3 0.092496 0.071911 0.595925
Si Si4 0.685374 0.435752 0.443709
Si Si5 0.653786 0.181321 0.066712
Si Si6 0.109156 0.716332 0.929329
Si Si7 0.077229 0.153355 0.889616
Si Si8 0.000000 0.619074 0.750000
O O1 0.609731 0.726816 0.022559
O O2 0.510727 0.822205 0.025661
O O3 0.592976 0.840932 0.103017
O O4 0.811576 0.820819 0.806065
O O5 0.500000 0.704748 0.250000
O O6 0.570452 0.604945 0.098787
O O7 0.234421 0.118874 0.506009
O O8 0.000000 0.046017 0.750000
O O9 0.974510 0.116859 0.644910
O O10 0.152166 0.013618 0.487825
O O11 0.633587 0.401893 0.405498
O O12 0.863978 0.420229 0.318184
O O13 0.500000 0.180527 0.250000
O O14 0.750000 0.250000 0.000000
O O15 0.605268 0.185597 0.018153
O O16 0.280029 0.703489 0.749689
O O17 0.064466 0.795595 0.968656
#
# Coordination Sequence:
#
# PCOD9307137 Si02
#       8
#     8   8   8   8   8   8   8   4
#     4  12  23  37  66  99 142 179 233 301 362 416
#     4  12  22  38  62  97 134 187 239 289 354 432
#     4  12  27  49  72  99 145 197 242 298 363 436
#     4  12  27  45  69  98 144 200 240 288 357 442
#     4  12  25  46  78 107 136 180 240 307 370 427
#     4  12  24  42  71 110 142 174 232 312 367 412
#     4  12  25  45  72 110 143 183 239 303 371 434
#     4  12  24  44  66  98 144 190 238 294 354 434
#
# _framework density 20.570270000000001
#
# number of rings (size 3 to 8) (size 9 to 14) (size 15 to 20)
#    0.000    0.000    7.333    4.000    0.933    0.000 
#    0.000    0.000    0.000    3.200    0.000    0.000 
#    0.000    0.000    0.000    0.000    0.000    0.000 
#
# Total GULP energy -167619.978693 kJ/mol
# GULP energy per Si atom -5587.332623 kJ/mol
# Density = 2.052345 g / cm^3
# Si number density = 20.570270 Si / 1000 Ang^3
#
#
#
# Elastic Constant Matrix: (Units=GPa)
#
#
# Indices 1 2 3 4 5 6 
#
# 1 140.1426 22.6207 22.9590 0.0016 5.2075 0.0059
# 2 22.6207 79.4671 27.0839 0.0028 -8.2497 0.0048
# 3 22.9590 27.0839 97.3672 0.0131 -3.3494 0.0022
# 4 0.0016 0.0028 0.0131 18.5095 -0.0030 4.2230
# 5 5.2075 -8.2497 -3.3494 -0.0030 41.6734 -0.0038
# 6 0.0059 0.0048 0.0022 4.2230 -0.0038 23.0980
#
#
#
# Elastic Compliance Matrix: (Units=1/GPa)
#
#
# Indices 1 2 3 4 5 6 
#
# 1 0.007714 -0.001888 -0.001344 0.000001 -0.001446 -0.000002
# 2 -0.001888 0.014617 -0.003523 0.000001 0.002846 -0.000002
# 3 -0.001344 -0.003523 0.011581 -0.000008 0.000401 0.000002
# 4 0.000001 0.000001 -0.000008 0.056378 0.000003 -0.010308
# 5 -0.001446 0.002846 0.000401 0.000003 0.024773 0.000003
# 6 -0.000002 -0.000002 0.000002 -0.010308 0.000003 0.045178
#
#
# Mechanical properties :
#
#
# Convention : Reuss Voigt Hill
#
# Bulk Modulus (GPa) = 49.01102 51.36712 50.18907
# Shear Modulus (GPa) = 27.69291 32.94373 30.31832
#
# Velocity S-wave (km/s) = 3.67312 4.00624 3.84329
# Velocity P-wave (km/s) = 6.47047 6.81364 6.64427
#
# Compressibility (1/GPa) = 0.02040357
#
# Stress axis : x y z
#
# Youngs Moduli (GPa) = 129.63154 68.41141 86.34878
#
# Poissons Ratio (x) = 0.12917 0.11601
# Poissons Ratio (y) = 0.24475 0.30420
# Poissons Ratio (z) = 0.17416 0.24101
#
# Static dielectric constant tensor:
#      x y z
#    x 1.797610 0.000000 0.028740 
#    y 0.000000 1.723430 0.000010 
#    z 0.028740 0.000010 1.765770 
# 
# From -- ./inp_files/67549.got.cif
#   From: 2010.05.17/outbox.cif.g08.bks.cpg/sg15_34_cif.got.tgz:67549.got - 2010.06.03 18:47:42.
