data_PCOD9307190
_publ_section_title
;
Structure prediction by ZEFSAII (Michael W. Deem and Ramdas Pophale) SiO2 
 PCOD9307190
Probable space group: C 2/C
;
_chemical_formula_sum "Si O2"
_cell_formula_units_Z 60
_cell_length_a 9.127965
_cell_length_b 19.876084
_cell_length_c 17.394906
_cell_angle_alpha 90.000000
_cell_angle_beta 61.599656
_cell_angle_gamma 90.000000
_cell_volume 2776.097202
_symmetry_space_group_name_H-M "C 2/C"
_symmetry_group_IT_number 15
_symmetry_cell_setting 'monoclinic'
loop_
_space_group_symop_operation_xyz
x,y,z
-x,y,1/2-z
-x,-y,-z
x,-y,1/2+z
1/2+x,1/2+y,z
1/2-x,1/2+y,1/2-z
1/2-x,1/2-y,-z
1/2+x,1/2-y,1/2+z
loop_
_atom_site_type_symbol
_atom_site_label
_atom_site_fract_x
_atom_site_fract_y
_atom_site_fract_z
Si Si1 0.037107 0.917849 0.151712
Si Si2 0.749407 0.416267 0.393867
Si Si3 0.500000 0.179078 0.750000
Si Si4 0.625534 0.262286 0.102180
Si Si5 0.831824 0.178548 0.457380
Si Si6 0.640359 0.968393 0.519852
Si Si7 0.893690 0.646333 0.124425
Si Si8 0.185629 0.208182 0.295759
O O1 0.080976 0.838897 0.130706
O O2 0.000000 0.932941 0.250000
O O3 0.868076 0.933696 0.147859
O O4 0.196774 0.953136 0.072416
O O5 0.906333 0.369955 0.332074
O O6 0.642703 0.368415 0.476100
O O7 0.808440 0.480705 0.425919
O O8 0.362976 0.227492 0.745154
O O9 0.464586 0.221243 0.116896
O O10 0.700113 0.230713 0.161704
O O11 0.750000 0.250000 0.000000
O O12 0.750000 0.250000 0.500000
O O13 0.707014 0.142239 0.429468
O O14 0.006487 0.188726 0.373241
O O15 0.549852 0.903540 0.580519
O O16 0.500000 0.000000 0.500000
O O17 0.766537 0.646710 0.227749
#
# Coordination Sequence:
#
# PCOD9307190 Si02
#       8
#     8   8   4   8   8   8   8   8
#     4  12  27  51  79 109 144 191 257 317 369 445
#     4  12  27  48  74 108 146 199 251 304 374 451
#     4  12  24  44  82 108 146 188 250 310 376 442
#     4  12  24  43  76 109 148 184 237 312 385 434
#     4  12  22  41  74 106 150 186 240 303 377 430
#     4  12  29  52  73 102 152 205 249 297 374 456
#     4  12  24  47  68 108 148 191 238 305 371 442
#     4  12  24  43  72 117 146 183 244 312 380 452
#
# _framework density 21.613074999999998
#
# number of rings (size 3 to 8) (size 9 to 14) (size 15 to 20)
#    0.000    0.000    5.333    5.600    3.733    0.000 
#    4.800    0.000    0.000    0.000    0.000    0.000 
#    0.000    0.000    0.000    0.000    0.000    0.000 
#
# Total GULP energy -167910.286376 kJ/mol
# GULP energy per Si atom -5597.009546 kJ/mol
# Density = 2.156388 g / cm^3
# Si number density = 21.613075 Si / 1000 Ang^3
#
#
#
# Elastic Constant Matrix: (Units=GPa)
#
#
# Indices 1 2 3 4 5 6 
#
# 1 112.8984 29.0970 41.6720 0.0000 19.1628 0.0000
# 2 29.0970 73.8414 51.9780 0.0000 0.6969 0.0000
# 3 41.6720 51.9780 146.5812 0.0000 -3.4443 0.0000
# 4 0.0000 0.0000 0.0000 33.0020 0.0000 -0.0956
# 5 19.1628 0.6969 -3.4443 0.0000 52.0776 0.0000
# 6 0.0000 0.0000 0.0000 -0.0956 0.0000 32.5737
#
#
#
# Elastic Compliance Matrix: (Units=1/GPa)
#
#
# Indices 1 2 3 4 5 6 
#
# 1 0.011121 -0.002729 -0.002293 0.000000 -0.004207 0.000000
# 2 -0.002729 0.018740 -0.005861 0.000000 0.000366 0.000000
# 3 -0.002293 -0.005861 0.009589 0.000000 0.001556 0.000000
# 4 0.000000 0.000000 0.000000 0.030301 0.000000 0.000089
# 5 -0.004207 0.000366 0.001556 0.000000 0.020848 0.000000
# 6 0.000000 0.000000 0.000000 0.000089 0.000000 0.030700
#
#
# Mechanical properties :
#
#
# Convention : Reuss Voigt Hill
#
# Bulk Modulus (GPa) = 56.54466 64.31277 60.42872
# Shear Modulus (GPa) = 33.56618 37.56893 35.56755
#
# Velocity S-wave (km/s) = 3.94515 4.17376 4.06106
# Velocity P-wave (km/s) = 6.85356 7.28341 7.07175
#
# Compressibility (1/GPa) = 0.01768514
#
# Stress axis : x y z
#
# Youngs Moduli (GPa) = 89.91791 53.36231 104.28731
#
# Poissons Ratio (x) = 0.14560 0.23913
# Poissons Ratio (y) = 0.24534 0.61122
# Poissons Ratio (z) = 0.20618 0.31275
#
# Static dielectric constant tensor:
#      x y z
#    x 1.787110 0.000000 -0.188370 
#    y 0.000000 1.783780 0.000000 
#    z -0.188370 0.000000 2.969180 
# 
# From -- ./inp_files/192524.got.cif
#   From: 2010.05.17/outbox.cif.g08.bks.cpg/sg15_97_cif.got.tgz:192524.got - 2010.06.03 18:47:42.
