data_PCOD9307426
_publ_section_title
;
Structure prediction by ZEFSAII (Michael W. Deem and Ramdas Pophale) SiO2 
 PCOD9307426
Probable space group: C 2/C
;
_chemical_formula_sum "Si O2"
_cell_formula_units_Z 40
_cell_length_a 15.122579
_cell_length_b 22.032353
_cell_length_c 14.741644
_cell_angle_alpha 90.000000
_cell_angle_beta 160.773442
_cell_angle_gamma 90.000000
_cell_volume 1617.447280
_symmetry_space_group_name_H-M "C 2/C"
_symmetry_group_IT_number 15
_symmetry_cell_setting 'monoclinic'
loop_
_space_group_symop_operation_xyz
x,y,z
-x,y,1/2-z
-x,-y,-z
x,-y,1/2+z
1/2+x,1/2+y,z
1/2-x,1/2+y,1/2-z
1/2-x,1/2-y,-z
1/2+x,1/2-y,1/2+z
loop_
_atom_site_type_symbol
_atom_site_label
_atom_site_fract_x
_atom_site_fract_y
_atom_site_fract_z
Si Si1 0.115863 0.227821 0.602248
Si Si2 0.724449 0.815890 0.537680
Si Si3 0.044735 0.087457 0.552679
Si Si4 0.251503 0.954379 0.559176
Si Si5 0.569052 0.057706 0.976336
O O1 0.053232 0.157397 0.528371
O O2 0.882283 0.266827 0.419944
O O3 0.728135 0.231763 0.125182
O O4 0.605812 0.879012 0.459506
O O5 0.000000 0.828399 0.750000
O O6 0.500000 0.793201 0.250000
O O7 0.353383 0.067090 0.848161
O O8 0.895364 0.082025 0.502952
O O9 0.863323 0.049317 0.305210
O O10 0.500000 0.920583 0.750000
O O11 0.421172 0.009973 0.768507
O O12 0.000000 0.972737 0.250000
#
# Coordination Sequence:
#
# PCOD9307426 Si02
#       5
#     8   8   8   8   8
#     4  12  23  44  64 101 143 196 233 281 342 423
#     4  12  25  40  63 104 153 187 226 279 353 431
#     4  12  24  47  73 100 143 192 242 286 352 430
#     4  12  27  48  74 106 140 183 244 310 359 404
#     4  12  24  45  69 106 142 194 230 287 353 446
#
# _framework density 24.730326999999999
#
# number of rings (size 3 to 8) (size 9 to 14) (size 15 to 20)
#    0.000    0.000    4.000    6.600    0.000    4.000 
#    0.000    0.000    0.000    3.600    0.000    0.000 
#    0.000    0.000    0.000    0.000    0.000    0.000 
#
# Total GULP energy -111845.763278 kJ/mol
# GULP energy per Si atom -5592.288164 kJ/mol
# Density = 2.467404 g / cm^3
# Si number density = 24.730327 Si / 1000 Ang^3
#
#
#
# Elastic Constant Matrix: (Units=GPa)
#
#
# Indices 1 2 3 4 5 6 
#
# 1 117.4226 34.3116 46.6197 0.0017 28.3411 -0.0003
# 2 34.3116 104.5217 27.5367 0.0017 11.7986 -0.0005
# 3 46.6197 27.5367 173.6903 0.0068 30.1182 0.0004
# 4 0.0017 0.0017 0.0068 26.5185 0.0009 11.7866
# 5 28.3411 11.7986 30.1182 0.0009 54.1437 0.0004
# 6 -0.0003 -0.0005 0.0004 11.7866 0.0004 28.3094
#
#
#
# Elastic Compliance Matrix: (Units=1/GPa)
#
#
# Indices 1 2 3 4 5 6 
#
# 1 0.011025 -0.002670 -0.001811 0.000000 -0.004182 0.000000
# 2 -0.002670 0.010733 -0.000909 0.000000 -0.000435 0.000000
# 3 -0.001811 -0.000909 0.006850 -0.000002 -0.002664 0.000001
# 4 0.000000 0.000000 -0.000002 0.046272 0.000000 -0.019266
# 5 -0.004182 -0.000435 -0.002664 0.000000 0.022235 -0.000001
# 6 0.000000 0.000000 0.000001 -0.019266 -0.000001 0.043345
#
#
# Mechanical properties :
#
#
# Convention : Reuss Voigt Hill
#
# Bulk Modulus (GPa) = 56.09601 68.06341 62.07971
# Shear Modulus (GPa) = 31.81032 40.93876 36.37454
#
# Velocity S-wave (km/s) = 3.59038 4.07308 3.83932
# Velocity P-wave (km/s) = 6.31823 7.04997 6.69410
#
# Compressibility (1/GPa) = 0.01782658
#
# Stress axis : x y z
#
# Youngs Moduli (GPa) = 90.70609 93.17395 145.99549
#
# Poissons Ratio (x) = 0.24878 0.26435
# Poissons Ratio (y) = 0.24219 0.13277
# Poissons Ratio (z) = 0.16424 0.08473
#
# Static dielectric constant tensor:
#      x y z
#    x 2.035980 0.000000 -0.083300 
#    y 0.000000 2.046530 0.000000 
#    z -0.083300 0.000000 2.372700 
# 
# From -- ./inp_files/157271.got.cif
#   From: 2010.05.17/outbox.cif.g08.bks.cpg/sg15_79_cif.got.tgz:157271.got - 2010.06.03 18:47:42.
