data_PCOD9307124
_publ_section_title
;
Structure prediction by ZEFSAII (Michael W. Deem and Ramdas Pophale) SiO2 
 PCOD9307124
Probable space group: C 2/C
;
_chemical_formula_sum "Si O2"
_cell_formula_units_Z 44
_cell_length_a 15.667479
_cell_length_b 9.148577
_cell_length_c 18.700069
_cell_angle_alpha 90.000000
_cell_angle_beta 55.345980
_cell_angle_gamma 90.000000
_cell_volume 2204.879770
_symmetry_space_group_name_H-M "C 2/C"
_symmetry_group_IT_number 15
_symmetry_cell_setting 'monoclinic'
loop_
_space_group_symop_operation_xyz
x,y,z
-x,y,1/2-z
-x,-y,-z
x,-y,1/2+z
1/2+x,1/2+y,z
1/2-x,1/2+y,1/2-z
1/2-x,1/2-y,-z
1/2+x,1/2-y,1/2+z
loop_
_atom_site_type_symbol
_atom_site_label
_atom_site_fract_x
_atom_site_fract_y
_atom_site_fract_z
Si Si1 0.337589 0.632869 0.076215
Si Si2 0.000000 0.710418 0.750000
Si Si3 0.448344 0.659237 0.882337
Si Si4 0.241521 0.541904 0.903479
Si Si5 0.133084 0.515022 0.095990
Si Si6 0.626807 0.446761 0.778153
O O1 0.309654 0.804003 0.090973
O O2 0.237720 0.554502 0.089096
O O3 0.356274 0.578807 0.146626
O O4 0.430200 0.621383 0.974572
O O5 0.928214 0.607761 0.832783
O O6 0.936169 0.814847 0.727553
O O7 0.352474 0.578974 0.887909
O O8 0.431387 0.832462 0.879062
O O9 0.556498 0.593182 0.804873
O O10 0.268563 0.459634 0.817969
O O11 0.169859 0.470427 0.998565
#
# Coordination Sequence:
#
# PCOD9307124 Si02
#       6
#     8   4   8   8   8   8
#     4   9  21  38  64  87 113 150 205 237 286 347
#     4  12  26  36  56  90 124 150 196 248 298 340
#     4   9  18  41  64  83 111 161 198 231 286 365
#     4   9  19  40  61  83 118 157 194 232 293 357
#     4   9  22  42  62  81 112 164 198 232 288 360
#     4  12  22  37  60  95 121 146 194 251 294 333
#
# _framework density 19.955738
#
# number of rings (size 3 to 8) (size 9 to 14) (size 15 to 20)
#    0.000    2.182    1.818    2.727    7.636    0.727 
#    0.000    5.455    0.000    0.000    0.000    0.000 
#    0.000    0.000    0.000    0.000    0.000    0.000 
#
# Total GULP energy -122832.865613 kJ/mol
# GULP energy per Si atom -5583.312073 kJ/mol
# Density = 1.991032 g / cm^3
# Si number density = 19.955738 Si / 1000 Ang^3
#
#
#
# Elastic Constant Matrix: (Units=GPa)
#
#
# Indices 1 2 3 4 5 6 
#
# 1 30.6163 16.2134 45.0692 0.0000 12.2536 0.0000
# 2 16.2134 49.8226 57.0513 0.0000 -3.1182 0.0000
# 3 45.0692 57.0513 171.3140 0.0000 12.3418 0.0000
# 4 0.0000 0.0000 0.0000 27.5490 0.0000 4.2119
# 5 12.2536 -3.1182 12.3418 0.0000 32.1058 0.0000
# 6 0.0000 0.0000 0.0000 4.2119 0.0000 12.7366
#
#
#
# Elastic Compliance Matrix: (Units=1/GPa)
#
#
# Indices 1 2 3 4 5 6 
#
# 1 0.063333 -0.007148 -0.012846 0.000000 -0.019928 0.000000
# 2 -0.007148 0.035113 -0.010547 0.000000 0.010193 0.000000
# 3 -0.012846 -0.010547 0.012804 0.000000 -0.001044 0.000000
# 4 0.000000 0.000000 0.000000 0.038232 0.000000 -0.012643
# 5 -0.019928 0.010193 -0.001044 0.000000 0.040144 0.000000
# 6 0.000000 0.000000 0.000000 -0.012643 0.000000 0.082695
#
#
# Mechanical properties :
#
#
# Convention : Reuss Voigt Hill
#
# Bulk Modulus (GPa) = 19.93270 54.26898 37.10084
# Shear Modulus (GPa) = 14.28059 23.37286 18.82672
#
# Velocity S-wave (km/s) = 2.67800 3.42604 3.07485
# Velocity P-wave (km/s) = 4.42407 6.55012 5.58912
#
# Compressibility (1/GPa) = 0.05016881
#
# Stress axis : x y z
#
# Youngs Moduli (GPa) = 15.78949 28.47976 78.09902
#
# Poissons Ratio (x) = 0.20357 1.00323
# Poissons Ratio (y) = 0.11286 0.82372
# Poissons Ratio (z) = 0.20283 0.30038
#
# Static dielectric constant tensor:
#      x y z
#    x 1.692430 0.000000 0.002920 
#    y 0.000000 1.680710 0.000000 
#    z 0.002920 0.000000 1.734310 
# 
# From -- ./inp_files/159204.got.cif
#   From: 2010.05.17/outbox.cif.g08.bks.cpg/sg15_80_cif.got.tgz:159204.got - 2010.06.03 18:47:42.
