data_PCOD9307462
_publ_section_title
;
Structure prediction by ZEFSAII (Michael W. Deem and Ramdas Pophale) SiO2 
 PCOD9307462
Probable space group: C 2/C
;
_chemical_formula_sum "Si O2"
_cell_formula_units_Z 40
_cell_length_a 22.564771
_cell_length_b 4.877185
_cell_length_c 22.807313
_cell_angle_alpha 90.000000
_cell_angle_beta 137.296675
_cell_angle_gamma 90.000000
_cell_volume 1702.290016
_symmetry_space_group_name_H-M "C 2/C"
_symmetry_group_IT_number 15
_symmetry_cell_setting 'monoclinic'
loop_
_space_group_symop_operation_xyz
x,y,z
-x,y,1/2-z
-x,-y,-z
x,-y,1/2+z
1/2+x,1/2+y,z
1/2-x,1/2+y,1/2-z
1/2-x,1/2-y,-z
1/2+x,1/2-y,1/2+z
loop_
_atom_site_type_symbol
_atom_site_label
_atom_site_fract_x
_atom_site_fract_y
_atom_site_fract_z
Si Si1 0.083902 0.869461 0.737376
Si Si2 0.146143 0.878269 0.534440
Si Si3 0.337787 0.139599 0.143474
Si Si4 0.904863 0.408780 0.073098
Si Si5 0.687064 0.593111 0.196933
O O1 0.146543 0.631379 0.807021
O O2 0.118293 0.956317 0.698597
O O3 0.990027 0.728690 0.663691
O O4 0.093959 0.128151 0.787361
O O5 0.241753 0.754082 0.589468
O O6 0.077897 0.656278 0.459864
O O7 0.143197 0.928312 0.601408
O O8 0.139785 0.160538 0.494142
O O9 0.350468 0.046573 0.086081
O O10 0.768425 0.388404 0.263183
#
# Coordination Sequence:
#
# PCOD9307462 Si02
#       5
#     8   8   8   8   8
#     4  12  25  45  72 104 138 190 233 288 346 414
#     4  12  24  44  71 101 143 184 231 293 347 406
#     4  12  24  46  72  99 142 192 235 274 345 434
#     4  12  27  42  67 109 145 176 230 295 356 401
#     4  12  23  45  73 100 135 184 246 282 338 427
#
# _framework density 23.49776
#
# number of rings (size 3 to 8) (size 9 to 14) (size 15 to 20)
#    0.000    0.000    4.000    6.600    0.000    3.200 
#    0.000    0.000    0.000    0.000    0.000    0.000 
#    0.000    0.000    0.000    0.000    0.000    0.000 
#
# Total GULP energy -112108.113977 kJ/mol
# GULP energy per Si atom -5605.405699 kJ/mol
# Density = 2.344428 g / cm^3
# Si number density = 23.497760 Si / 1000 Ang^3
#
#
#
# Elastic Constant Matrix: (Units=GPa)
#
#
# Indices 1 2 3 4 5 6 
#
# 1 37.7147 17.4894 14.9566 0.0107 -17.0717 -0.0132
# 2 17.4894 121.1151 54.7497 0.0055 -21.8051 0.0334
# 3 14.9566 54.7497 105.6625 -0.0059 -38.7055 -0.0061
# 4 0.0107 0.0055 -0.0059 34.4862 -0.0361 13.3231
# 5 -17.0717 -21.8051 -38.7055 -0.0361 27.4711 0.0104
# 6 -0.0132 0.0334 -0.0061 13.3231 0.0104 18.8644
#
#
#
# Elastic Compliance Matrix: (Units=1/GPa)
#
#
# Indices 1 2 3 4 5 6 
#
# 1 0.040391 -0.003586 0.008872 0.000026 0.034754 0.000000
# 2 -0.003586 0.011127 -0.005867 0.000008 -0.001663 -0.000029
# 3 0.008872 -0.005867 0.023894 0.000050 0.034522 -0.000030
# 4 0.000026 0.000008 0.000050 0.039878 0.000156 -0.028164
# 5 0.034754 -0.001663 0.034522 0.000156 0.105320 -0.000129
# 6 0.000000 -0.000029 -0.000030 -0.028164 -0.000129 0.072901
#
#
# Mechanical properties :
#
#
# Convention : Reuss Voigt Hill
#
# Bulk Modulus (GPa) = 13.46807 48.76486 31.11646
# Shear Modulus (GPa) = 15.65312 27.98412 21.81862
#
# Velocity S-wave (km/s) = 2.58380 3.45472 3.05050
# Velocity P-wave (km/s) = 3.82693 6.05900 5.06739
#
# Compressibility (1/GPa) = 0.07424971
#
# Stress axis : x y z
#
# Youngs Moduli (GPa) = 24.75791 89.86885 41.85079
#
# Poissons Ratio (x) = 0.32227 -0.37128
# Poissons Ratio (y) = 0.08878 0.24555
# Poissons Ratio (z) = -0.21964 0.52728
#
# Static dielectric constant tensor:
#      x y z
#    x 1.880920 -0.000020 0.015420 
#    y -0.000020 1.859920 0.000000 
#    z 0.015420 0.000000 1.911590 
# 
# From -- ./inp_files/251151.got.cif
#   From: 2010.05.17/outbox.cif.g08.bks.cpg/sg15_126_cif.got.tgz:251151.got - 2010.06.03 18:47:42.
