data_PCOD9307809
_publ_section_title
;
Structure prediction by ZEFSAII (Michael W. Deem and Ramdas Pophale) SiO2 
 PCOD9307809
Probable space group: C 2/C
;
_chemical_formula_sum "Si O2"
_cell_formula_units_Z 36
_cell_length_a 18.441177
_cell_length_b 4.977647
_cell_length_c 24.597956
_cell_angle_alpha 90.000000
_cell_angle_beta 141.875326
_cell_angle_gamma 90.000000
_cell_volume 1393.992969
_symmetry_space_group_name_H-M "C 2/C"
_symmetry_group_IT_number 15
_symmetry_cell_setting 'monoclinic'
loop_
_space_group_symop_operation_xyz
x,y,z
-x,y,1/2-z
-x,-y,-z
x,-y,1/2+z
1/2+x,1/2+y,z
1/2-x,1/2+y,1/2-z
1/2-x,1/2-y,-z
1/2+x,1/2-y,1/2+z
loop_
_atom_site_type_symbol
_atom_site_label
_atom_site_fract_x
_atom_site_fract_y
_atom_site_fract_z
Si Si1 0.000000 0.934458 0.250000
Si Si2 0.488298 0.149221 0.874384
Si Si3 0.173171 0.428874 0.915268
Si Si4 0.946830 0.834561 0.418527
Si Si5 0.198499 0.678858 0.818411
O O1 0.896233 0.107114 0.215535
O O2 0.936113 0.748159 0.169172
O O3 0.448504 0.436406 0.873206
O O4 0.379408 0.037396 0.774145
O O5 0.608445 0.166033 0.910392
O O6 0.512192 0.929995 0.935413
O O7 0.231322 0.518797 0.892934
O O8 0.250000 0.250000 0.000000
O O9 0.818045 0.735788 0.360678
O O10 0.000000 0.000000 0.500000
#
# Coordination Sequence:
#
# PCOD9307809 Si02
#       5
#     4   8   8   8   8
#     4  12  24  48  78 108 166 200 276 318 416 470
#     4  12  25  50  72 112 150 206 259 322 401 469
#     4  12  27  46  79 114 159 210 268 336 398 486
#     4  12  29  47  75 111 153 202 263 329 400 475
#     4  12  26  47  74 109 150 210 259 326 396 484
#
# _framework density 25.825092000000001
#
# number of rings (size 3 to 8) (size 9 to 14) (size 15 to 20)
#    0.000    0.000    4.444    4.667    6.222    0.889 
#    0.000    0.000    0.000    0.000    0.000    0.000 
#    0.000    0.000    0.000    0.000    0.000    0.000 
#
# Total GULP energy -100880.505300 kJ/mol
# GULP energy per Si atom -5604.472517 kJ/mol
# Density = 2.576631 g / cm^3
# Si number density = 25.825092 Si / 1000 Ang^3
#
#
#
# Elastic Constant Matrix: (Units=GPa)
#
#
# Indices 1 2 3 4 5 6 
#
# 1 149.8345 38.3711 13.4189 -0.0002 9.6493 0.0074
# 2 38.3711 99.0404 -6.9220 0.0029 -1.4868 0.0292
# 3 13.4189 -6.9220 84.6262 0.0003 -14.3570 0.0021
# 4 -0.0002 0.0029 0.0003 21.3314 -0.0017 -30.4242
# 5 9.6493 -1.4868 -14.3570 -0.0017 48.0525 -0.0019
# 6 0.0074 0.0292 0.0021 -30.4242 -0.0019 -23.7958
#
#
#
# Elastic Compliance Matrix: (Units=1/GPa)
#
#
# Indices 1 2 3 4 5 6 
#
# 1 0.007801 -0.003187 -0.001875 -0.000001 -0.002225 -0.000001
# 2 -0.003187 0.011473 0.001699 0.000006 0.001502 0.000005
# 3 -0.001875 0.001699 0.012984 0.000001 0.004308 0.000001
# 4 -0.000001 0.000006 0.000001 0.016603 0.000000 -0.021228
# 5 -0.002225 0.001502 0.004308 0.000000 0.022591 -0.000001
# 6 -0.000001 0.000005 0.000001 -0.021228 -0.000001 -0.014883
#
#
# Mechanical properties :
#
#
# Convention : Reuss Voigt Hill
#
# Bulk Modulus (GPa) = 39.16797 47.02633 43.09715
# Shear Modulus (GPa) = 69.63164 28.35985 48.99574
#
# Velocity S-wave (km/s) = 5.19820 3.31743 4.36043
# Velocity P-wave (km/s) = 7.15737 5.73785 6.48656
#
# Compressibility (1/GPa) = 0.02553106
#
# Stress axis : x y z
#
# Youngs Moduli (GPa) = 128.18127 87.16200 77.01843
#
# Poissons Ratio (x) = 0.27778 0.14443
# Poissons Ratio (y) = 0.40851 -0.13083
# Poissons Ratio (z) = 0.24038 -0.14806
#
# Static dielectric constant tensor:
#      x y z
#    x 2.057690 0.000000 -0.117270 
#    y 0.000000 2.044130 -0.000010 
#    z -0.117270 -0.000010 1.987740 
# 
# From -- ./inp_files/297600.got.cif
#   From: 2010.05.17/outbox.cif.g08.bks.cpg/sg15_149_cif.got.tgz:297600.got - 2010.06.03 18:47:42.
