data_PCOD9307838
_publ_section_title
;
Structure prediction by ZEFSAII (Michael W. Deem and Ramdas Pophale) SiO2 
 PCOD9307838
Probable space group: C 2/C
;
_chemical_formula_sum "Si O2"
_cell_formula_units_Z 28
_cell_length_a 5.418764
_cell_length_b 18.922155
_cell_length_c 11.533622
_cell_angle_alpha 90.000000
_cell_angle_beta 120.809128
_cell_angle_gamma 90.000000
_cell_volume 1015.706384
_symmetry_space_group_name_H-M "C 2/C"
_symmetry_group_IT_number 15
_symmetry_cell_setting 'monoclinic'
loop_
_space_group_symop_operation_xyz
x,y,z
-x,y,1/2-z
-x,-y,-z
x,-y,1/2+z
1/2+x,1/2+y,z
1/2-x,1/2+y,1/2-z
1/2-x,1/2-y,-z
1/2+x,1/2-y,1/2+z
loop_
_atom_site_type_symbol
_atom_site_label
_atom_site_fract_x
_atom_site_fract_y
_atom_site_fract_z
Si Si1 0.633593 0.911233 0.586183
Si Si2 0.500000 0.500000 0.000000
Si Si3 0.000000 0.791636 0.750000
Si Si4 0.500000 0.979903 0.250000
Si Si5 0.213223 0.702990 0.606454
O O1 0.480812 0.968744 0.630345
O O2 0.405105 0.874912 0.447759
O O3 0.893406 0.946549 0.579234
O O4 0.737383 0.846058 0.688282
O O5 0.311256 0.550830 0.853143
O O6 0.992774 0.743554 0.636835
O O7 0.500000 0.701249 0.750000
O O8 0.250000 0.750000 0.500000
#
# Coordination Sequence:
#
# PCOD9307838 Si02
#       5
#     8   4   4   4   8
#     4  12  26  47  79 110 162 208 273 336 408 498
#     4  12  28  48  76 110 150 224 270 336 402 480
#     4  12  24  49  78 116 159 212 254 336 416 488
#     4  12  26  51  76 106 151 216 276 340 408 476
#     4  12  27  46  81 124 162 211 267 336 426 495
#
# _framework density 27.567021
#
# number of rings (size 3 to 8) (size 9 to 14) (size 15 to 20)
#    0.000    0.000    5.714    3.429    0.000    3.429 
#    0.000    0.000    0.000    0.000    0.000    0.000 
#    0.000    0.000    0.000    0.000    0.000    0.000 
#
# Total GULP energy -77989.177707 kJ/mol
# GULP energy per Si atom -5570.655550 kJ/mol
# Density = 2.750428 g / cm^3
# Si number density = 27.567021 Si / 1000 Ang^3
#
#
#
# Elastic Constant Matrix: (Units=GPa)
#
#
# Indices 1 2 3 4 5 6 
#
# 1 86.9962 52.4776 11.1291 0.0000 -34.5246 0.0000
# 2 52.4776 86.6479 21.4592 0.0000 -15.8456 0.0000
# 3 11.1291 21.4592 157.4579 0.0000 0.7797 0.0000
# 4 0.0000 0.0000 0.0000 11.3600 0.0000 -4.4891
# 5 -34.5246 -15.8456 0.7797 0.0000 66.5159 0.0000
# 6 0.0000 0.0000 0.0000 -4.4891 0.0000 39.9885
#
#
#
# Elastic Compliance Matrix: (Units=1/GPa)
#
#
# Indices 1 2 3 4 5 6 
#
# 1 0.022004 -0.011751 0.000004 0.000000 0.008622 0.000000
# 2 -0.011751 0.018791 -0.001722 0.000000 -0.001602 0.000000
# 3 0.000004 -0.001722 0.006588 0.000000 -0.000486 0.000000
# 4 0.000000 0.000000 0.000000 0.092115 0.000000 0.010341
# 5 0.008622 -0.001602 -0.000486 0.000000 0.019133 0.000000
# 6 0.000000 0.000000 0.000000 0.010341 0.000000 0.026168
#
#
# Mechanical properties :
#
#
# Convention : Reuss Voigt Hill
#
# Bulk Modulus (GPa) = 48.91488 55.69262 52.30375
# Shear Modulus (GPa) = 22.87772 39.97529 31.42650
#
# Velocity S-wave (km/s) = 2.88391 3.81217 3.38006
# Velocity P-wave (km/s) = 5.37325 6.29470 5.85214
#
# Compressibility (1/GPa) = 0.02044368
#
# Stress axis : x y z
#
# Youngs Moduli (GPa) = 45.44599 53.21615 151.79549
#
# Poissons Ratio (x) = 0.62533 -0.00053
# Poissons Ratio (y) = 0.53403 0.26147
# Poissons Ratio (z) = -0.00016 0.09166
#
# Static dielectric constant tensor:
#      x y z
#    x 1.635680 0.000000 -0.399850 
#    y 0.000000 1.906000 0.000000 
#    z -0.399850 0.000000 1.935190 
# 
# From -- ./inp_files/72018.got.cif
#   From: 2010.05.17/outbox.cif.g08.bks.cpg/sg15_37_cif.got.tgz:72018.got - 2010.06.03 18:47:42.
