data_PCOD9307356
_publ_section_title
;
Structure prediction by ZEFSAII (Michael W. Deem and Ramdas Pophale) SiO2 
 PCOD9307356
Probable space group: C 2/C
;
_chemical_formula_sum "Si O2"
_cell_formula_units_Z 48
_cell_length_a 14.600827
_cell_length_b 12.822015
_cell_length_c 14.935765
_cell_angle_alpha 90.000000
_cell_angle_beta 123.966717
_cell_angle_gamma 90.000000
_cell_volume 2319.025264
_symmetry_space_group_name_H-M "C 2/C"
_symmetry_group_IT_number 15
_symmetry_cell_setting 'monoclinic'
loop_
_space_group_symop_operation_xyz
x,y,z
-x,y,1/2-z
-x,-y,-z
x,-y,1/2+z
1/2+x,1/2+y,z
1/2-x,1/2+y,1/2-z
1/2-x,1/2-y,-z
1/2+x,1/2-y,1/2+z
loop_
_atom_site_type_symbol
_atom_site_label
_atom_site_fract_x
_atom_site_fract_y
_atom_site_fract_z
Si Si1 0.167679 0.254460 0.038250
Si Si2 0.660347 0.251264 0.218241
Si Si3 0.404224 0.478880 0.020658
Si Si4 0.490205 0.933445 0.904248
Si Si5 0.743379 0.828841 0.411998
Si Si6 0.500000 0.905097 0.250000
Si Si7 0.000000 0.102567 0.750000
O O1 0.229699 0.272144 0.164900
O O2 0.250000 0.250000 0.000000
O O3 0.124936 0.138319 0.020515
O O4 0.078621 0.341246 0.965785
O O5 0.618613 0.131836 0.185860
O O6 0.683658 0.286107 0.130299
O O7 0.573592 0.320668 0.227937
O O8 0.441037 0.470294 0.144625
O O9 0.500000 0.500000 0.000000
O O10 0.302005 0.559357 0.961953
O O11 0.511175 0.017896 0.839908
O O12 0.500000 0.000000 0.000000
O O13 0.750000 0.750000 0.500000
O O14 0.615128 0.841556 0.312829
#
# Coordination Sequence:
#
# PCOD9307356 Si02
#       7
#     8   8   8   8   8   4   4
#     4  12  23  40  71 102 143 186 243 302 367 449
#     4  12  24  45  74 106 141 195 250 304 376 458
#     4  12  25  46  75 111 147 194 253 320 381 458
#     4  12  24  44  70 105 141 187 239 308 372 440
#     4  12  28  50  72 108 155 199 248 317 390 460
#     4  12  27  47  70 104 150 192 245 303 384 460
#     4  12  23  45  78 104 144 188 259 311 374 456
#
# _framework density 20.698352
#
# number of rings (size 3 to 8) (size 9 to 14) (size 15 to 20)
#    0.000    0.000    5.000    5.500    0.000    3.333 
#    3.000    0.000    0.000    0.000    0.000    0.000 
#    0.000    0.000    0.000    0.000    0.000    0.000 
#
# Total GULP energy -134001.923172 kJ/mol
# GULP energy per Si atom -5583.413465 kJ/mol
# Density = 2.065124 g / cm^3
# Si number density = 20.698352 Si / 1000 Ang^3
#
#
#
# Elastic Constant Matrix: (Units=GPa)
#
#
# Indices 1 2 3 4 5 6 
#
# 1 119.3529 58.2028 34.6920 0.0000 -16.6745 0.0000
# 2 58.2028 87.8556 9.2534 0.0000 -2.4066 0.0000
# 3 34.6920 9.2534 95.5277 0.0000 -19.1547 0.0000
# 4 0.0000 0.0000 0.0000 43.4330 0.0000 -0.5226
# 5 -16.6745 -2.4066 -19.1547 0.0000 47.9298 0.0000
# 6 0.0000 0.0000 0.0000 -0.5226 0.0000 41.6290
#
#
#
# Elastic Compliance Matrix: (Units=1/GPa)
#
#
# Indices 1 2 3 4 5 6 
#
# 1 0.014250 -0.008968 -0.003699 0.000000 0.003029 0.000000
# 2 -0.008968 0.017144 0.001243 0.000000 -0.001762 0.000000
# 3 -0.003699 0.001243 0.012443 0.000000 0.003748 0.000000
# 4 0.000000 0.000000 0.000000 0.023027 0.000000 0.000289
# 5 0.003029 -0.001762 0.003748 0.000000 0.023327 0.000000
# 6 0.000000 0.000000 0.000000 0.000289 0.000000 0.024025
#
#
# Mechanical properties :
#
#
# Convention : Reuss Voigt Hill
#
# Bulk Modulus (GPa) = 47.64498 56.33693 51.99095
# Shear Modulus (GPa) = 34.70742 39.97091 37.33916
#
# Velocity S-wave (km/s) = 4.09934 4.39921 4.25192
# Velocity P-wave (km/s) = 6.74350 7.28569 7.01983
#
# Compressibility (1/GPa) = 0.02098857
#
# Stress axis : x y z
#
# Youngs Moduli (GPa) = 70.17496 58.32869 80.36839
#
# Poissons Ratio (x) = 0.52308 0.29729
# Poissons Ratio (y) = 0.62932 -0.09987
# Poissons Ratio (z) = 0.25958 -0.07249
#
# Static dielectric constant tensor:
#      x y z
#    x 1.734960 0.000000 0.065020 
#    y 0.000000 1.698950 0.000000 
#    z 0.065020 0.000000 1.706960 
# 
# From -- ./inp_files/152494.got.cif
#   From: 2010.05.17/outbox.cif.g08.bks.cpg/sg15_77_cif.got.tgz:152494.got - 2010.06.03 18:47:42.
