data_PCOD9307044
_publ_section_title
;
Structure prediction by ZEFSAII (Michael W. Deem and Ramdas Pophale) SiO2 
 PCOD9307044
Probable space group: C 2/C
;
_chemical_formula_sum "Si O2"
_cell_formula_units_Z 60
_cell_length_a 27.153140
_cell_length_b 14.304464
_cell_length_c 21.987294
_cell_angle_alpha 90.000000
_cell_angle_beta 160.682435
_cell_angle_gamma 90.000000
_cell_volume 2825.099903
_symmetry_space_group_name_H-M "C 2/C"
_symmetry_group_IT_number 15
_symmetry_cell_setting 'monoclinic'
loop_
_space_group_symop_operation_xyz
x,y,z
-x,y,1/2-z
-x,-y,-z
x,-y,1/2+z
1/2+x,1/2+y,z
1/2-x,1/2+y,1/2-z
1/2-x,1/2-y,-z
1/2+x,1/2-y,1/2+z
loop_
_atom_site_type_symbol
_atom_site_label
_atom_site_fract_x
_atom_site_fract_y
_atom_site_fract_z
Si Si1 0.559847 0.305753 0.138501
Si Si2 0.654984 0.226286 0.448790
Si Si3 0.124526 0.090609 0.990517
Si Si4 0.500000 0.451431 0.750000
Si Si5 0.645394 0.303914 0.831559
Si Si6 0.840188 0.301390 0.941921
Si Si7 0.220603 0.328363 0.207656
Si Si8 0.652811 0.961862 0.652719
O O1 0.715145 0.310360 0.356613
O O2 0.627308 0.300753 0.150205
O O3 0.481929 0.398329 0.074645
O O4 0.431682 0.223741 0.994406
O O5 0.500000 0.175280 0.250000
O O6 0.750000 0.250000 0.500000
O O7 0.601194 0.316757 0.423518
O O8 0.276868 0.082161 0.204106
O O9 0.102042 0.012034 0.914113
O O10 0.589368 0.390469 0.805939
O O11 0.745307 0.331615 0.890115
O O12 0.502051 0.240469 0.647024
O O13 0.750000 0.250000 0.000000
O O14 0.744957 0.216208 0.802055
O O15 0.849817 0.384603 0.903433
O O16 0.222914 0.440466 0.211074
O O17 0.500000 0.000000 0.500000
#
# Coordination Sequence:
#
# PCOD9307044 Si02
#       8
#     8   8   8   4   8   8   8   8
#     4  12  23  45  70 103 145 188 238 293 371 439
#     4  12  21  40  67  96 133 188 233 283 348 426
#     4  12  25  45  70 105 146 187 245 296 365 443
#     4  12  26  46  72 102 142 198 246 296 366 448
#     4  12  26  49  74 102 142 200 241 305 371 443
#     4  12  25  48  75 107 146 186 254 305 374 444
#     4  12  25  45  72 105 143 189 234 308 376 436
#     4  12  27  44  75 110 147 191 237 316 373 438
#
# _framework density 21.238187
#
# number of rings (size 3 to 8) (size 9 to 14) (size 15 to 20)
#    0.000    0.000    6.000    4.000    3.733    0.533 
#    0.000    0.000    0.000    0.000    0.000    0.000 
#    0.000    0.000    0.000    0.000    0.000    0.000 
#
# Total GULP energy -167184.484669 kJ/mol
# GULP energy per Si atom -5572.816156 kJ/mol
# Density = 2.118985 g / cm^3
# Si number density = 21.238187 Si / 1000 Ang^3
#
#
#
# Elastic Constant Matrix: (Units=GPa)
#
#
# Indices 1 2 3 4 5 6 
#
# 1 132.4093 22.9868 20.9417 0.0004 1.6768 0.0004
# 2 22.9868 82.5219 21.1191 0.0001 -10.6822 0.0006
# 3 20.9417 21.1191 132.0407 0.0015 -10.6897 0.0004
# 4 0.0004 0.0001 0.0015 62.2294 0.0005 -32.0399
# 5 1.6768 -10.6822 -10.6897 0.0005 40.0401 0.0005
# 6 0.0004 0.0006 0.0004 -32.0399 0.0005 24.7683
#
#
#
# Elastic Compliance Matrix: (Units=1/GPa)
#
#
# Indices 1 2 3 4 5 6 
#
# 1 0.008104 -0.002146 -0.001038 0.000000 -0.001189 0.000000
# 2 -0.002146 0.013540 -0.001559 -0.000001 0.003286 -0.000001
# 3 -0.001038 -0.001559 0.008133 -0.000001 0.001799 -0.000001
# 4 0.000000 -0.000001 -0.000001 0.048116 -0.000002 0.062242
# 5 -0.001189 0.003286 0.001799 -0.000002 0.026382 -0.000003
# 6 0.000000 -0.000001 -0.000001 0.062242 -0.000003 0.120890
#
#
# Mechanical properties :
#
#
# Convention : Reuss Voigt Hill
#
# Bulk Modulus (GPa) = 49.28377 53.00745 51.14561
# Shear Modulus (GPa) = 20.71118 44.20249 32.45684
#
# Velocity S-wave (km/s) = 3.12618 4.56705 3.91350
# Velocity P-wave (km/s) = 6.02381 7.26796 6.67494
#
# Compressibility (1/GPa) = 0.02029066
#
# Stress axis : x y z
#
# Youngs Moduli (GPa) = 123.39411 73.85478 122.95364
#
# Poissons Ratio (x) = 0.15846 0.12768
# Poissons Ratio (y) = 0.26475 0.19173
# Poissons Ratio (z) = 0.12813 0.11516
#
# Static dielectric constant tensor:
#      x y z
#    x 0.187840 -0.000020 -1.103010 
#    y -0.000020 1.904980 -0.000010 
#    z -1.103010 -0.000010 1.153250 
# 
# From -- ./inp_files/257894.got.cif
#   From: 2010.05.17/outbox.cif.g08.bks.cpg/sg15_129_cif.got.tgz:257894.got - 2010.06.03 18:47:42.
