data_PCOD9307023
_publ_section_title
;
Structure prediction by ZEFSAII (Michael W. Deem and Ramdas Pophale) SiO2 
 PCOD9307023
Probable space group: C 2/C
;
_chemical_formula_sum "Si O2"
_cell_formula_units_Z 36
_cell_length_a 13.009970
_cell_length_b 26.717151
_cell_length_c 5.158599
_cell_angle_alpha 90.000000
_cell_angle_beta 106.345675
_cell_angle_gamma 90.000000
_cell_volume 1720.600168
_symmetry_space_group_name_H-M "C 2/C"
_symmetry_group_IT_number 15
_symmetry_cell_setting 'monoclinic'
loop_
_space_group_symop_operation_xyz
x,y,z
-x,y,1/2-z
-x,-y,-z
x,-y,1/2+z
1/2+x,1/2+y,z
1/2-x,1/2+y,1/2-z
1/2-x,1/2-y,-z
1/2+x,1/2-y,1/2+z
loop_
_atom_site_type_symbol
_atom_site_label
_atom_site_fract_x
_atom_site_fract_y
_atom_site_fract_z
Si Si1 0.000000 0.534811 0.750000
Si Si2 0.571791 0.633160 0.557761
Si Si3 0.698123 0.889262 0.391450
Si Si4 0.615199 0.843601 0.829078
Si Si5 0.824759 0.757460 0.304129
O O1 0.892123 0.568288 0.684776
O O2 0.000000 0.500000 0.500000
O O3 0.500000 0.617955 0.750000
O O4 0.679453 0.600541 0.596903
O O5 0.613814 0.690203 0.635672
O O6 0.500000 0.632765 0.250000
O O7 0.695455 0.869627 0.684447
O O8 0.658994 0.847886 0.151121
O O9 0.500000 0.870056 0.750000
O O10 0.597739 0.789921 0.681103
O O11 0.750000 0.750000 0.500000
O O12 0.750000 0.750000 0.000000
#
# Coordination Sequence:
#
# PCOD9307023 Si02
#       5
#     4   8   8   8   8
#     4  12  26  48  78 108 132 158 214 302 374 426
#     4  12  25  42  64  94 142 193 232 273 325 397
#     4  12  24  44  69  99 134 174 222 275 360 416
#     4  12  21  38  63  92 133 179 224 279 334 389
#     4  12  22  38  58  90 136 190 240 284 309 362
#
# _framework density 20.922933
#
# number of rings (size 3 to 8) (size 9 to 14) (size 15 to 20)
#    0.000    0.000    6.667    4.667    0.000    1.778 
#    0.000    0.000    0.000    4.000    0.000    0.000 
#    0.000    0.000    0.000    0.000    0.000    0.000 
#
# Total GULP energy -100577.578799 kJ/mol
# GULP energy per Si atom -5587.643267 kJ/mol
# Density = 2.087531 g / cm^3
# Si number density = 20.922933 Si / 1000 Ang^3
#
#
#
# Elastic Constant Matrix: (Units=GPa)
#
#
# Indices 1 2 3 4 5 6 
#
# 1 199.1434 42.6832 54.4027 0.0000 -15.9390 0.0000
# 2 42.6832 79.0855 18.8110 0.0000 -6.6624 0.0000
# 3 54.4027 18.8110 142.8018 0.0000 -17.7135 0.0000
# 4 0.0000 0.0000 0.0000 15.3706 0.0000 -5.9622
# 5 -15.9390 -6.6624 -17.7135 0.0000 47.6374 0.0000
# 6 0.0000 0.0000 0.0000 -5.9622 0.0000 28.1927
#
#
#
# Elastic Compliance Matrix: (Units=1/GPa)
#
#
# Indices 1 2 3 4 5 6 
#
# 1 0.006219 -0.002827 -0.001874 0.000000 0.000988 0.000000
# 2 -0.002827 0.014410 -0.000722 0.000000 0.000801 0.000000
# 3 -0.001874 -0.000722 0.008095 0.000000 0.002282 0.000000
# 4 0.000000 0.000000 0.000000 0.070873 0.000000 0.014988
# 5 0.000988 0.000801 0.002282 0.000000 0.022283 0.000000
# 6 0.000000 0.000000 0.000000 0.014988 0.000000 0.038640
#
#
# Mechanical properties :
#
#
# Convention : Reuss Voigt Hill
#
# Bulk Modulus (GPa) = 55.93783 72.53607 64.23695
# Shear Modulus (GPa) = 28.19699 38.58240 33.38969
#
# Velocity S-wave (km/s) = 3.67503 4.29887 3.99913
# Velocity P-wave (km/s) = 6.69336 7.70609 7.21751
#
# Compressibility (1/GPa) = 0.01787699
#
# Stress axis : x y z
#
# Youngs Moduli (GPa) = 160.80963 69.39848 123.53620
#
# Poissons Ratio (x) = 0.19620 0.23151
# Poissons Ratio (y) = 0.45464 0.08916
# Poissons Ratio (z) = 0.30136 0.05009
#
# Static dielectric constant tensor:
#      x y z
#    x 1.738610 0.000000 0.005600 
#    y 0.000000 1.648370 0.000000 
#    z 0.005600 0.000000 1.729870 
# 
# From -- ./inp_files/5133.got.cif
#   From: 2010.05.17/outbox.cif.g08.bks.cpg/sg15_3_cif.got.tgz:5133.got - 2010.06.03 18:47:42.
