data_PCOD9307311
_publ_section_title
;
Structure prediction by ZEFSAII (Michael W. Deem and Ramdas Pophale) SiO2 
 PCOD9307311
Probable space group: C 2/C
;
_chemical_formula_sum "Si O2"
_cell_formula_units_Z 44
_cell_length_a 23.145085
_cell_length_b 6.932930
_cell_length_c 13.049223
_cell_angle_alpha 90.000000
_cell_angle_beta 109.672813
_cell_angle_gamma 90.000000
_cell_volume 1971.699450
_symmetry_space_group_name_H-M "C 2/C"
_symmetry_group_IT_number 15
_symmetry_cell_setting 'monoclinic'
loop_
_space_group_symop_operation_xyz
x,y,z
-x,y,1/2-z
-x,-y,-z
x,-y,1/2+z
1/2+x,1/2+y,z
1/2-x,1/2+y,1/2-z
1/2-x,1/2-y,-z
1/2+x,1/2-y,1/2+z
loop_
_atom_site_type_symbol
_atom_site_label
_atom_site_fract_x
_atom_site_fract_y
_atom_site_fract_z
Si Si1 0.507604 0.947832 0.620315
Si Si2 0.368426 0.850433 0.571824
Si Si3 0.000000 0.814474 0.750000
Si Si4 0.682002 0.646740 0.154608
Si Si5 0.720346 0.861341 0.386443
Si Si6 0.099027 0.891773 0.240190
O O1 0.441946 0.864240 0.615670
O O2 0.559346 0.789014 0.673944
O O3 0.500000 0.000000 0.500000
O O4 0.515839 0.158988 0.672875
O O5 0.344481 0.797302 0.444729
O O6 0.352689 0.688729 0.647800
O O7 0.340459 0.044491 0.601190
O O8 0.057243 0.959007 0.779201
O O9 0.705760 0.740711 0.274890
O O10 0.734336 0.528663 0.126533
O O11 0.630109 0.498482 0.163282
O O12 0.750000 0.750000 0.500000
#
# Coordination Sequence:
#
# PCOD9307311 Si02
#       6
#     8   8   4   8   8   8
#     4  12  27  43  73 106 149 193 238 292 362 444
#     4  12  25  47  71 108 145 191 241 303 362 433
#     4  12  22  48  66 104 150 194 234 292 358 422
#     4  12  27  45  77 104 145 193 244 309 370 430
#     4  12  27  50  74 106 143 193 251 309 366 434
#     4  12  26  47  72 112 150 190 245 297 365 445
#
# _framework density 22.315774999999999
#
# number of rings (size 3 to 8) (size 9 to 14) (size 15 to 20)
#    0.000    0.000    3.636    6.000    7.636    1.455 
#    0.000    0.000    0.000    0.000    0.000    0.000 
#    0.000    0.000    0.000    0.000    0.000    0.000 
#
# Total GULP energy -122960.579000 kJ/mol
# GULP energy per Si atom -5589.117227 kJ/mol
# Density = 2.226498 g / cm^3
# Si number density = 22.315775 Si / 1000 Ang^3
#
#
#
# Elastic Constant Matrix: (Units=GPa)
#
#
# Indices 1 2 3 4 5 6 
#
# 1 64.8186 17.1795 11.2772 0.0000 -4.3703 0.0000
# 2 17.1795 112.7305 68.5775 0.0000 0.8645 0.0000
# 3 11.2772 68.5775 152.7331 0.0000 -3.5553 0.0000
# 4 0.0000 0.0000 0.0000 49.1893 0.0000 4.6755
# 5 -4.3703 0.8645 -3.5553 0.0000 26.1650 0.0000
# 6 0.0000 0.0000 0.0000 4.6755 0.0000 46.0047
#
#
#
# Elastic Compliance Matrix: (Units=1/GPa)
#
#
# Indices 1 2 3 4 5 6 
#
# 1 0.016280 -0.002491 -0.000018 0.000000 0.002799 0.000000
# 2 -0.002491 0.012620 -0.005519 0.000000 -0.001583 0.000000
# 3 -0.000018 -0.005519 0.009060 0.000000 0.001410 0.000000
# 4 0.000000 0.000000 0.000000 0.020528 0.000000 -0.002086
# 5 0.002799 -0.001583 0.001410 0.000000 0.038930 0.000000
# 6 0.000000 0.000000 0.000000 -0.002086 0.000000 0.021949
#
#
# Mechanical properties :
#
#
# Convention : Reuss Voigt Hill
#
# Bulk Modulus (GPa) = 45.65828 58.26118 51.95973
# Shear Modulus (GPa) = 35.03228 39.82168 37.42698
#
# Velocity S-wave (km/s) = 3.96642 4.22887 4.09975
# Velocity P-wave (km/s) = 6.44059 7.07169 6.76350
#
# Compressibility (1/GPa) = 0.02190183
#
# Stress axis : x y z
#
# Youngs Moduli (GPa) = 61.42556 79.23858 110.37830
#
# Poissons Ratio (x) = 0.19741 0.00202
# Poissons Ratio (y) = 0.15303 0.60922
# Poissons Ratio (z) = 0.00112 0.43735
#
# Static dielectric constant tensor:
#      x y z
#    x 1.878790 0.000000 -0.015670 
#    y 0.000000 1.896460 0.000000 
#    z -0.015670 0.000000 1.822830 
# 
# From -- ./inp_files/175515.got.cif
#   From: 2010.05.17/outbox.cif.g08.bks.cpg/sg15_88_cif.got.tgz:175515.got - 2010.06.03 18:47:42.
