data_PCOD9307140
_publ_section_title
;
Structure prediction by ZEFSAII (Michael W. Deem and Ramdas Pophale) SiO2 
 PCOD9307140
Probable space group: C 2/C
;
_chemical_formula_sum "Si O2"
_cell_formula_units_Z 48
_cell_length_a 13.625334
_cell_length_b 6.627018
_cell_length_c 19.610397
_cell_angle_alpha 90.000000
_cell_angle_beta 91.930192
_cell_angle_gamma 90.000000
_cell_volume 1769.722641
_symmetry_space_group_name_H-M "C 2/C"
_symmetry_group_IT_number 15
_symmetry_cell_setting 'monoclinic'
loop_
_space_group_symop_operation_xyz
x,y,z
-x,y,1/2-z
-x,-y,-z
x,-y,1/2+z
1/2+x,1/2+y,z
1/2-x,1/2+y,1/2-z
1/2-x,1/2-y,-z
1/2+x,1/2-y,1/2+z
loop_
_atom_site_type_symbol
_atom_site_label
_atom_site_fract_x
_atom_site_fract_y
_atom_site_fract_z
Si Si1 0.934253 0.838123 0.129592
Si Si2 0.718913 0.647850 0.334432
Si Si3 0.500000 0.000000 0.500000
Si Si4 0.704006 0.995572 0.942105
Si Si5 0.000000 0.562562 0.250000
Si Si6 0.583239 0.602365 0.070776
Si Si7 0.835494 0.296284 0.300624
O O1 0.884758 0.030505 0.163317
O O2 0.006573 0.916942 0.072111
O O3 0.851869 0.688542 0.097695
O O4 0.993016 0.702991 0.184155
O O5 0.794493 0.467868 0.349272
O O6 0.719754 0.824777 0.388367
O O7 0.740498 0.712792 0.256748
O O8 0.620158 0.946944 0.493647
O O9 0.529561 0.191080 0.550287
O O10 0.814533 0.936140 0.966954
O O11 0.910377 0.411280 0.253941
O O12 0.618222 0.627815 0.150617
#
# Coordination Sequence:
#
# PCOD9307140 Si02
#       7
#     8   8   4   8   4   8   8
#     4  12  24  47  73 109 155 196 246 308 373 455
#     4  12  23  46  72 113 156 191 243 305 376 464
#     4  12  28  52  78 104 148 198 264 320 366 442
#     4  12  26  52  75 110 147 196 257 309 381 441
#     4  12  22  38  68 112 154 196 234 292 374 458
#     4  12  26  49  76 110 146 199 253 308 379 441
#     4  12  23  42  75 114 153 196 240 299 382 459
#
# _framework density 27.122893999999999
#
# number of rings (size 3 to 8) (size 9 to 14) (size 15 to 20)
#    0.000    0.000    5.000    6.500    0.000    0.667 
#    0.000    4.167    0.000    0.000    0.000    0.000 
#    0.000    0.000    0.000    0.000    0.000    0.000 
#
# Total GULP energy -134092.887875 kJ/mol
# GULP energy per Si atom -5587.203661 kJ/mol
# Density = 2.706116 g / cm^3
# Si number density = 27.122894 Si / 1000 Ang^3
#
#
#
# Elastic Constant Matrix: (Units=GPa)
#
#
# Indices 1 2 3 4 5 6 
#
# 1 138.4869 33.1246 -8.0628 0.0000 -14.1512 0.0000
# 2 33.1246 101.6148 27.6193 0.0000 1.7429 0.0000
# 3 -8.0628 27.6193 64.1733 0.0000 -0.4287 0.0000
# 4 0.0000 0.0000 0.0000 58.7481 0.0000 -4.1975
# 5 -14.1512 1.7429 -0.4287 0.0000 38.1354 0.0000
# 6 0.0000 0.0000 0.0000 -4.1975 0.0000 54.4695
#
#
#
# Elastic Compliance Matrix: (Units=1/GPa)
#
#
# Indices 1 2 3 4 5 6 
#
# 1 0.008573 -0.003569 0.002636 0.000000 0.003374 0.000000
# 2 -0.003569 0.012643 -0.005903 0.000000 -0.001968 0.000000
# 3 0.002636 -0.005903 0.018464 0.000000 0.001455 0.000000
# 4 0.000000 0.000000 0.000000 0.017116 0.000000 0.001319
# 5 0.003374 -0.001968 0.001455 0.000000 0.027581 0.000000
# 6 0.000000 0.000000 0.000000 0.001319 0.000000 0.018461
#
#
# Mechanical properties :
#
#
# Convention : Reuss Voigt Hill
#
# Bulk Modulus (GPa) = 38.45036 45.51523 41.98279
# Shear Modulus (GPa) = 39.94322 47.04353 43.49338
#
# Velocity S-wave (km/s) = 3.84171 4.16920 4.00880
# Velocity P-wave (km/s) = 5.82112 6.32407 6.07780
#
# Compressibility (1/GPa) = 0.02600756
#
# Stress axis : x y z
#
# Youngs Moduli (GPa) = 116.64919 79.09772 54.15911
#
# Poissons Ratio (x) = 0.28228 -0.14274
# Poissons Ratio (y) = 0.41629 0.31969
# Poissons Ratio (z) = -0.30744 0.46689
#
# Static dielectric constant tensor:
#      x y z
#    x 2.162370 0.000000 -0.120260 
#    y 0.000000 -1.181690 0.000000 
#    z -0.120260 0.000000 2.195810 
# 
# From -- ./inp_files/294443.got.cif
#   From: 2010.05.17/outbox.cif.g08.bks.cpg/sg15_148_cif.got.tgz:294443.got - 2010.06.03 18:47:42.
