data_PCOD9307940
_publ_section_title
;
Structure prediction by ZEFSAII (Michael W. Deem and Ramdas Pophale) SiO2 
 PCOD9307940
Probable space group: C 2/C
;
_chemical_formula_sum "Si O2"
_cell_formula_units_Z 48
_cell_length_a 14.443828
_cell_length_b 26.185386
_cell_length_c 8.219119
_cell_angle_alpha 90.000000
_cell_angle_beta 139.238966
_cell_angle_gamma 90.000000
_cell_volume 2029.630458
_symmetry_space_group_name_H-M "C 2/C"
_symmetry_group_IT_number 15
_symmetry_cell_setting 'monoclinic'
loop_
_space_group_symop_operation_xyz
x,y,z
-x,y,1/2-z
-x,-y,-z
x,-y,1/2+z
1/2+x,1/2+y,z
1/2-x,1/2+y,1/2-z
1/2-x,1/2-y,-z
1/2+x,1/2-y,1/2+z
loop_
_atom_site_type_symbol
_atom_site_label
_atom_site_fract_x
_atom_site_fract_y
_atom_site_fract_z
Si Si1 0.508961 0.418819 0.570441
Si Si2 0.500000 0.848122 0.750000
Si Si3 0.306426 0.063787 0.968046
Si Si4 0.000000 0.626930 0.750000
Si Si5 0.939437 0.806476 0.985890
Si Si6 0.883421 0.711328 0.365703
Si Si7 0.798265 0.453913 0.839385
O O1 0.500000 0.428919 0.750000
O O2 0.356946 0.427371 0.288864
O O3 0.552859 0.360463 0.593167
O O4 0.631054 0.452878 0.652602
O O5 0.397184 0.888780 0.524112
O O6 0.610004 0.810163 0.808893
O O7 0.352483 0.010464 0.950077
O O8 0.322870 0.061009 0.185229
O O9 0.977425 0.667588 0.576286
O O10 0.869501 0.587822 0.553153
O O11 0.775594 0.788832 0.779606
O O12 0.000000 0.812675 0.250000
O O13 0.036412 0.764789 0.025196
#
# Coordination Sequence:
#
# PCOD9307940 Si02
#       7
#     8   4   8   4   8   8   8
#     4  12  27  46  75 108 148 192 247 304 368 441
#     4  12  25  46  72 110 142 198 243 298 370 440
#     4  12  27  45  77 105 147 195 244 304 371 445
#     4  12  27  48  72 102 152 184 245 310 366 436
#     4  12  26  49  76 111 148 198 243 309 373 441
#     4  12  28  46  76 109 150 195 247 307 369 448
#     4  12  26  49  71 108 146 194 244 310 367 438
#
# _framework density 23.649625
#
# number of rings (size 3 to 8) (size 9 to 14) (size 15 to 20)
#    0.000    0.000    4.167    5.000    8.167    2.000 
#    0.000    0.000    0.000    0.000    0.000    0.000 
#    0.000    0.000    0.000    0.000    0.000    0.000 
#
# Total GULP energy -134396.938419 kJ/mol
# GULP energy per Si atom -5599.872434 kJ/mol
# Density = 2.359580 g / cm^3
# Si number density = 23.649625 Si / 1000 Ang^3
#
#
#
# Elastic Constant Matrix: (Units=GPa)
#
#
# Indices 1 2 3 4 5 6 
#
# 1 86.3150 7.5896 30.8121 0.0000 16.6335 0.0000
# 2 7.5896 98.6347 1.6202 0.0000 13.1704 0.0000
# 3 30.8121 1.6202 102.2232 0.0000 24.7409 0.0000
# 4 0.0000 0.0000 0.0000 35.6437 0.0000 9.7979
# 5 16.6335 13.1704 24.7409 0.0000 28.1758 0.0000
# 6 0.0000 0.0000 0.0000 9.7979 0.0000 36.8316
#
#
#
# Elastic Compliance Matrix: (Units=1/GPa)
#
#
# Indices 1 2 3 4 5 6 
#
# 1 0.013662 -0.000272 -0.002784 0.000000 -0.005493 0.000000
# 2 -0.000272 0.010964 0.001409 0.000000 -0.006202 0.000000
# 3 -0.002784 0.001409 0.013157 0.000000 -0.010568 0.000000
# 4 0.000000 0.000000 0.000000 0.030269 0.000000 -0.008052
# 5 -0.005493 -0.006202 -0.010568 0.000000 0.050914 0.000000
# 6 0.000000 0.000000 0.000000 -0.008052 0.000000 0.029293
#
#
# Mechanical properties :
#
#
# Convention : Reuss Voigt Hill
#
# Bulk Modulus (GPa) = 28.99407 40.80187 34.89797
# Shear Modulus (GPa) = 30.66570 36.60695 33.63632
#
# Velocity S-wave (km/s) = 3.60483 3.93859 3.77540
# Velocity P-wave (km/s) = 5.44177 6.16226 5.81319
#
# Compressibility (1/GPa) = 0.03448981
#
# Stress axis : x y z
#
# Youngs Moduli (GPa) = 73.19664 91.20477 76.00397
#
# Poissons Ratio (x) = 0.02481 0.21160
# Poissons Ratio (y) = 0.01991 -0.10711
# Poissons Ratio (z) = 0.20378 -0.12853
#
# Static dielectric constant tensor:
#      x y z
#    x 1.936680 0.000000 -0.048420 
#    y 0.000000 1.862510 0.000000 
#    z -0.048420 0.000000 1.916210 
# 
# From -- ./inp_files/43994.got.cif
#   From: 2010.05.17/outbox.cif.g08.bks.cpg/sg15_22_cif.got.tgz:43994.got - 2010.06.03 18:47:42.
