data_PCOD9307105
_publ_section_title
;
Structure prediction by ZEFSAII (Michael W. Deem and Ramdas Pophale) SiO2 
 PCOD9307105
Probable space group: C 2/C
;
_chemical_formula_sum "Si O2"
_cell_formula_units_Z 28
_cell_length_a 15.608907
_cell_length_b 12.297654
_cell_length_c 13.018979
_cell_angle_alpha 90.000000
_cell_angle_beta 153.157959
_cell_angle_gamma 90.000000
_cell_volume 1128.393478
_symmetry_space_group_name_H-M "C 2/C"
_symmetry_group_IT_number 15
_symmetry_cell_setting 'monoclinic'
loop_
_space_group_symop_operation_xyz
x,y,z
-x,y,1/2-z
-x,-y,-z
x,-y,1/2+z
1/2+x,1/2+y,z
1/2-x,1/2+y,1/2-z
1/2-x,1/2-y,-z
1/2+x,1/2-y,1/2+z
loop_
_atom_site_type_symbol
_atom_site_label
_atom_site_fract_x
_atom_site_fract_y
_atom_site_fract_z
Si Si1 0.283780 0.166619 0.357775
Si Si2 0.819584 0.398585 0.190959
Si Si3 0.500000 0.546020 0.750000
Si Si4 0.608802 0.641816 0.652145
O O1 0.241113 0.271800 0.382546
O O2 0.456278 0.097934 0.586035
O O3 0.354592 0.229333 0.329578
O O4 0.082330 0.115177 0.117219
O O5 0.775069 0.416076 0.265300
O O6 0.678095 0.472711 0.976157
O O7 0.572227 0.614586 0.729865
#
# Coordination Sequence:
#
# PCOD9307105 Si02
#       4
#     8   8   4   8
#     4   8  18  40  60  66 108 146 182 196 268 310
#     4   9  19  38  55  78 104 143 171 223 249 320
#     4  12  22  30  58  84 112 126 178 220 278 286
#     4   9  19  38  55  78 104 143 171 223 249 320
#
# _framework density 24.814039000000001
#
# number of rings (size 3 to 8) (size 9 to 14) (size 15 to 20)
#    1.714    1.143    0.000    0.857    0.000    3.429 
#    0.000    2.857    0.000    0.000    0.000    0.000 
#    0.000    0.000    0.000    0.000    0.000    0.000 
#
# Total GULP energy -78178.265460 kJ/mol
# GULP energy per Si atom -5584.161819 kJ/mol
# Density = 2.475756 g / cm^3
# Si number density = 24.814039 Si / 1000 Ang^3
#
#
#
# Elastic Constant Matrix: (Units=GPa)
#
#
# Indices 1 2 3 4 5 6 
#
# 1 123.5110 16.0413 42.2710 0.0001 -23.1440 0.0001
# 2 16.0413 43.1183 24.5955 0.0001 -6.9509 0.0001
# 3 42.2710 24.5955 106.7428 0.0002 16.1113 0.0001
# 4 0.0001 0.0001 0.0002 19.3229 0.0001 -3.9174
# 5 -23.1440 -6.9509 16.1113 0.0001 45.4728 0.0001
# 6 0.0001 0.0001 0.0001 -3.9174 0.0001 20.5336
#
#
#
# Elastic Compliance Matrix: (Units=1/GPa)
#
#
# Indices 1 2 3 4 5 6 
#
# 1 0.011562 0.000337 -0.005866 0.000000 0.008014 0.000000
# 2 0.000337 0.028738 -0.007864 0.000000 0.007351 0.000000
# 3 -0.005866 -0.007864 0.014934 0.000000 -0.009479 0.000000
# 4 0.000000 0.000000 0.000000 0.053834 0.000000 0.010271
# 5 0.008014 0.007351 -0.009479 0.000000 0.030552 0.000000
# 6 0.000000 0.000000 0.000000 0.010271 0.000000 0.050660
#
#
# Mechanical properties :
#
#
# Convention : Reuss Voigt Hill
#
# Bulk Modulus (GPa) = 35.15385 48.79861 41.97623
# Shear Modulus (GPa) = 22.07017 29.76348 25.91683
#
# Velocity S-wave (km/s) = 2.98555 3.46708 3.23529
# Velocity P-wave (km/s) = 5.10709 5.97796 5.55960
#
# Compressibility (1/GPa) = 0.02844638
#
# Stress axis : x y z
#
# Youngs Moduli (GPa) = 86.48960 34.79738 66.96104
#
# Poissons Ratio (x) = -0.01171 0.39279
# Poissons Ratio (y) = -0.02911 0.52661
# Poissons Ratio (z) = 0.50734 0.27366
#
# Static dielectric constant tensor:
#      x y z
#    x 2.016080 0.000000 -0.011480 
#    y 0.000000 2.069860 0.000000 
#    z -0.011480 0.000000 1.918830 
# 
# From -- ./inp_files/160609.got.cif
#   From: 2010.05.17/outbox.cif.g08.bks.cpg/sg15_81_cif.got.tgz:160609.got - 2010.06.03 18:47:42.
