data_PCOD9307180
_publ_section_title
;
Structure prediction by ZEFSAII (Michael W. Deem and Ramdas Pophale) SiO2 
 PCOD9307180
Probable space group: C 2/C
;
_chemical_formula_sum "Si O2"
_cell_formula_units_Z 60
_cell_length_a 26.892197
_cell_length_b 19.178299
_cell_length_c 11.060350
_cell_angle_alpha 90.000000
_cell_angle_beta 148.997915
_cell_angle_gamma 90.000000
_cell_volume 2938.129115
_symmetry_space_group_name_H-M "C 2/C"
_symmetry_group_IT_number 15
_symmetry_cell_setting 'monoclinic'
loop_
_space_group_symop_operation_xyz
x,y,z
-x,y,1/2-z
-x,-y,-z
x,-y,1/2+z
1/2+x,1/2+y,z
1/2-x,1/2+y,1/2-z
1/2-x,1/2-y,-z
1/2+x,1/2-y,1/2+z
loop_
_atom_site_type_symbol
_atom_site_label
_atom_site_fract_x
_atom_site_fract_y
_atom_site_fract_z
Si Si1 0.221275 0.297781 0.087739
Si Si2 0.204948 0.079589 0.330134
Si Si3 0.521913 0.761952 0.566341
Si Si4 0.811757 0.310632 0.197294
Si Si5 0.705239 0.855686 0.716642
Si Si6 0.989591 0.893583 0.370664
Si Si7 0.300702 0.426056 0.121402
Si Si8 0.000000 0.297785 0.250000
O O1 0.207159 0.306344 0.200712
O O2 0.260006 0.218704 0.157220
O O3 0.292903 0.357250 0.188106
O O4 0.118098 0.302787 0.805625
O O5 0.275909 0.115676 0.572604
O O6 0.226257 0.120743 0.250426
O O7 0.217831 0.997065 0.346330
O O8 0.095413 0.092196 0.143481
O O9 0.423767 0.798112 0.404347
O O10 0.528991 0.688394 0.649289
O O11 0.511681 0.755382 0.399455
O O12 0.750000 0.250000 0.000000
O O13 0.596981 0.843901 0.445008
O O14 0.720252 0.912930 0.850879
O O15 0.902506 0.929330 0.261817
O O16 0.000000 0.911609 0.250000
#
# Coordination Sequence:
#
# PCOD9307180 Si02
#       8
#     8   8   8   8   8   8   8   4
#     4  12  24  45  72 102 139 188 240 286 344 417
#     4  12  26  45  68 101 146 186 228 293 359 412
#     4  12  22  41  71 109 133 182 244 287 341 414
#     4  12  23  42  68 102 137 185 238 286 341 410
#     4  12  23  48  69  99 141 186 235 294 345 410
#     4  12  23  43  73 100 142 186 231 286 355 423
#     4  12  27  44  70 104 141 186 234 286 355 426
#     4  12  24  40  70 106 138 176 242 296 338 398
#
# _framework density 20.421157999999998
#
# number of rings (size 3 to 8) (size 9 to 14) (size 15 to 20)
#    0.000    0.000    8.000    2.800    1.867    0.000 
#    0.000    2.667    0.000    0.000    0.000    0.000 
#    0.000    0.000    0.000    0.000    0.000    0.000 
#
# Total GULP energy -167740.743461 kJ/mol
# GULP energy per Si atom -5591.358115 kJ/mol
# Density = 2.037468 g / cm^3
# Si number density = 20.421158 Si / 1000 Ang^3
#
#
#
# Elastic Constant Matrix: (Units=GPa)
#
#
# Indices 1 2 3 4 5 6 
#
# 1 120.4785 28.7829 26.7852 0.0000 -0.8924 0.0000
# 2 28.7829 97.7292 11.8341 0.0000 19.9627 0.0000
# 3 26.7852 11.8341 92.1064 0.0000 27.9403 0.0000
# 4 0.0000 0.0000 0.0000 13.1053 0.0000 -7.7791
# 5 -0.8924 19.9627 27.9403 0.0000 35.1460 0.0000
# 6 0.0000 0.0000 0.0000 -7.7791 0.0000 16.0355
#
#
#
# Elastic Compliance Matrix: (Units=1/GPa)
#
#
# Indices 1 2 3 4 5 6 
#
# 1 0.010145 -0.003636 -0.004201 0.000000 0.005662 0.000000
# 2 -0.003636 0.012910 0.002176 0.000000 -0.009154 0.000000
# 3 -0.004201 0.002176 0.016085 0.000000 -0.014130 0.000000
# 4 0.000000 0.000000 0.000000 0.107164 0.000000 0.051987
# 5 0.005662 -0.009154 -0.014130 0.000000 0.045029 0.000000
# 6 0.000000 0.000000 0.000000 0.051987 0.000000 0.087582
#
#
# Mechanical properties :
#
#
# Convention : Reuss Voigt Hill
#
# Bulk Modulus (GPa) = 35.94758 49.45762 42.70260
# Shear Modulus (GPa) = 16.69401 29.05149 22.87275
#
# Velocity S-wave (km/s) = 2.86227 3.77585 3.35035
# Velocity P-wave (km/s) = 5.34460 6.57881 5.99356
#
# Compressibility (1/GPa) = 0.02781829
#
# Stress axis : x y z
#
# Youngs Moduli (GPa) = 98.57428 77.46166 62.16859
#
# Poissons Ratio (x) = 0.28162 0.26114
# Poissons Ratio (y) = 0.35838 -0.13525
# Poissons Ratio (z) = 0.41407 -0.16853
#
# Static dielectric constant tensor:
#      x y z
#    x 1.769970 0.000000 -0.011190 
#    y 0.000000 1.706760 0.000000 
#    z -0.011190 0.000000 1.732600 
# 
# From -- ./inp_files/124026.got.cif
#   From: 2010.05.17/outbox.cif.g08.bks.cpg/sg15_63_cif.got.tgz:124026.got - 2010.06.03 18:47:42.
