data_PCOD9307131
_publ_section_title
;
Structure prediction by ZEFSAII (Michael W. Deem and Ramdas Pophale) SiO2 
 PCOD9307131
Probable space group: C 2/C
;
_chemical_formula_sum "Si O2"
_cell_formula_units_Z 40
_cell_length_a 28.947784
_cell_length_b 5.100469
_cell_length_c 19.580644
_cell_angle_alpha 90.000000
_cell_angle_beta 37.566880
_cell_angle_gamma 90.000000
_cell_volume 1762.622853
_symmetry_space_group_name_H-M "C 2/C"
_symmetry_group_IT_number 15
_symmetry_cell_setting 'monoclinic'
loop_
_space_group_symop_operation_xyz
x,y,z
-x,y,1/2-z
-x,-y,-z
x,-y,1/2+z
1/2+x,1/2+y,z
1/2-x,1/2+y,1/2-z
1/2-x,1/2-y,-z
1/2+x,1/2-y,1/2+z
loop_
_atom_site_type_symbol
_atom_site_label
_atom_site_fract_x
_atom_site_fract_y
_atom_site_fract_z
Si Si1 0.763722 0.546761 0.776545
Si Si2 0.527817 0.946230 0.637031
Si Si3 0.380392 0.547846 0.463566
Si Si4 0.880075 0.326873 0.738651
Si Si5 0.669534 0.668285 0.123769
O O1 0.772470 0.821000 0.728112
O O2 0.842278 0.425439 0.712869
O O3 0.702579 0.598266 0.908189
O O4 0.500000 0.936845 0.750000
O O5 0.598590 0.751403 0.548410
O O6 0.469239 0.822608 0.650298
O O7 0.557464 0.238501 0.585307
O O8 0.378718 0.577133 0.384122
O O9 0.861093 0.563658 0.811506
O O10 0.838009 0.062242 0.812030
O O11 0.750000 0.750000 0.000000
#
# Coordination Sequence:
#
# PCOD9307131 Si02
#       5
#     8   8   8   8   8
#     4  12  28  49  67  92 131 190 242 277 311 383
#     4  12  23  41  66 110 142 167 204 274 367 417
#     4  12  24  42  69 100 141 172 218 278 339 410
#     4  12  25  41  69 100 142 169 220 280 340 405
#     4  12  22  37  68 108 133 166 215 285 351 399
#
# _framework density 22.693452000000001
#
# number of rings (size 3 to 8) (size 9 to 14) (size 15 to 20)
#    0.000    0.000    6.000    4.800    2.800    0.000 
#    0.000    6.000    0.000    0.000    0.000    0.000 
#    0.000    0.000    0.000    0.000    0.000    0.000 
#
# Total GULP energy -111736.765767 kJ/mol
# GULP energy per Si atom -5586.838288 kJ/mol
# Density = 2.264180 g / cm^3
# Si number density = 22.693452 Si / 1000 Ang^3
#
#
#
# Elastic Constant Matrix: (Units=GPa)
#
#
# Indices 1 2 3 4 5 6 
#
# 1 89.3329 4.0897 -8.5473 -0.0544 1.9859 -0.0398
# 2 4.0897 122.7225 -6.6851 -0.0176 22.8651 -0.0190
# 3 -8.5473 -6.6851 23.6231 0.0255 -3.9466 0.0105
# 4 -0.0544 -0.0176 0.0255 42.0532 -0.0070 -3.7725
# 5 1.9859 22.8651 -3.9466 -0.0070 33.0533 0.0086
# 6 -0.0398 -0.0190 0.0105 -3.7725 0.0086 35.9117
#
#
#
# Elastic Compliance Matrix: (Units=1/GPa)
#
#
# Indices 1 2 3 4 5 6 
#
# 1 0.011599 -0.000142 0.004139 0.000014 -0.000105 0.000013
# 2 -0.000142 0.009415 0.001558 0.000002 -0.006319 0.000006
# 3 0.004139 0.001558 0.044945 -0.000022 0.004040 -0.000011
# 4 0.000014 0.000002 -0.000022 0.024006 -0.000001 0.002522
# 5 -0.000105 -0.006319 0.004040 -0.000001 0.035114 -0.000013
# 6 0.000013 0.000006 -0.000011 0.002522 -0.000013 0.028111
#
#
# Mechanical properties :
#
#
# Convention : Reuss Voigt Hill
#
# Bulk Modulus (GPa) = 12.97533 23.71037 18.34285
# Shear Modulus (GPa) = 29.80288 38.65839 34.23063
#
# Velocity S-wave (km/s) = 3.62785 4.13183 3.88802
# Velocity P-wave (km/s) = 4.82478 5.76485 5.31564
#
# Compressibility (1/GPa) = 0.07706935
#
# Stress axis : x y z
#
# Youngs Moduli (GPa) = 86.21485 106.21014 22.24951
#
# Poissons Ratio (x) = 0.01503 -0.09209
# Poissons Ratio (y) = 0.01220 -0.03466
# Poissons Ratio (z) = -0.35685 -0.16543
#
# Static dielectric constant tensor:
#      x y z
#    x 2.017710 -0.000030 -0.048340 
#    y -0.000030 1.778790 0.000010 
#    z -0.048340 0.000010 1.803160 
# 
# From -- ./inp_files/223740.got.cif
#   From: 2010.05.17/outbox.cif.g08.bks.cpg/sg15_112_cif.got.tgz:223740.got - 2010.06.03 18:47:42.
