data_PCOD9307508
_publ_section_title
;
Structure prediction by ZEFSAII (Michael W. Deem and Ramdas Pophale) SiO2 
 PCOD9307508
Probable space group: C 2/C
;
_chemical_formula_sum "Si O2"
_cell_formula_units_Z 44
_cell_length_a 8.308293
_cell_length_b 12.095939
_cell_length_c 24.334102
_cell_angle_alpha 90.000000
_cell_angle_beta 55.531767
_cell_angle_gamma 90.000000
_cell_volume 2016.163848
_symmetry_space_group_name_H-M "C 2/C"
_symmetry_group_IT_number 15
_symmetry_cell_setting 'monoclinic'
loop_
_space_group_symop_operation_xyz
x,y,z
-x,y,1/2-z
-x,-y,-z
x,-y,1/2+z
1/2+x,1/2+y,z
1/2-x,1/2+y,1/2-z
1/2-x,1/2-y,-z
1/2+x,1/2-y,1/2+z
loop_
_atom_site_type_symbol
_atom_site_label
_atom_site_fract_x
_atom_site_fract_y
_atom_site_fract_z
Si Si1 0.795022 0.184856 0.849061
Si Si2 0.653830 0.536503 0.923923
Si Si3 0.035209 0.263015 0.572709
Si Si4 0.500000 0.485905 0.750000
Si Si5 0.269692 0.096895 0.293722
Si Si6 0.519308 0.009079 0.931278
O O1 0.917036 0.243654 0.872586
O O2 0.765288 0.272471 0.807055
O O3 0.602170 0.134218 0.911670
O O4 0.886247 0.069856 0.811642
O O5 0.598948 0.661864 0.920423
O O6 0.663589 0.465938 0.865413
O O7 0.853017 0.517977 0.917512
O O8 0.500000 0.500000 0.000000
O O9 0.250000 0.250000 0.500000
O O10 0.922420 0.379535 0.590081
O O11 0.344901 0.425397 0.740719
O O12 0.500000 0.062928 0.250000
O O13 0.500000 0.000000 0.000000
#
# Coordination Sequence:
#
# PCOD9307508 Si02
#       6
#     8   8   8   4   8   8
#     4  12  25  50  73 109 149 199 250 317 378 461
#     4  12  24  46  79 110 149 200 252 318 393 454
#     4  12  23  47  73 104 155 195 239 315 385 450
#     4  12  28  48  80 108 148 208 264 304 396 458
#     4  12  27  53  78 111 157 201 262 322 384 463
#     4  12  26  43  75 113 150 192 252 309 387 461
#
# _framework density 21.823623000000001
#
# number of rings (size 3 to 8) (size 9 to 14) (size 15 to 20)
#    0.000    0.000    8.182    1.091    0.000    2.182 
#    4.909    0.000    0.000    0.000    0.000    0.000 
#    0.000    0.000    0.000    0.000    0.000    0.000 
#
# Total GULP energy -122571.365150 kJ/mol
# GULP energy per Si atom -5571.425689 kJ/mol
# Density = 2.177395 g / cm^3
# Si number density = 21.823623 Si / 1000 Ang^3
#
#
#
# Elastic Constant Matrix: (Units=GPa)
#
#
# Indices 1 2 3 4 5 6 
#
# 1 96.1654 54.4033 33.0379 0.0000 42.5359 0.0000
# 2 54.4033 153.0946 20.9608 0.0000 11.6550 0.0000
# 3 33.0379 20.9608 73.8654 0.0000 27.7601 0.0000
# 4 0.0000 0.0000 0.0000 50.8555 0.0000 12.2590
# 5 42.5359 11.6550 27.7601 0.0000 27.9906 0.0000
# 6 0.0000 0.0000 0.0000 12.2590 0.0000 51.9067
#
#
#
# Elastic Compliance Matrix: (Units=1/GPa)
#
#
# Indices 1 2 3 4 5 6 
#
# 1 0.051112 -0.013464 0.012823 0.000000 -0.084784 0.000000
# 2 -0.013464 0.010381 -0.004765 0.000000 0.020864 0.000000
# 3 0.012823 -0.004765 0.025081 0.000000 -0.042378 0.000000
# 4 0.000000 0.000000 0.000000 0.020851 0.000000 -0.004924
# 5 -0.084784 0.020864 -0.042378 0.000000 0.197910 0.000000
# 6 0.000000 0.000000 0.000000 -0.004924 0.000000 0.020428
#
#
# Mechanical properties :
#
#
# Convention : Reuss Voigt Hill
#
# Bulk Modulus (GPa) = 13.19910 59.99214 36.59562
# Shear Modulus (GPa) = 13.81872 40.46545 27.14208
#
# Velocity S-wave (km/s) = 2.51908 4.31072 3.53044
# Velocity P-wave (km/s) = 3.81080 7.23364 5.78134
#
# Compressibility (1/GPa) = 0.07576275
#
# Stress axis : x y z
#
# Youngs Moduli (GPa) = 19.56484 96.33447 39.87063
#
# Poissons Ratio (x) = 1.29707 -0.51128
# Poissons Ratio (y) = 0.26343 0.18997
# Poissons Ratio (z) = -0.25089 0.45900
#
# Static dielectric constant tensor:
#      x y z
#    x 1.760470 0.000000 -0.038020 
#    y 0.000000 1.773840 0.000000 
#    z -0.038020 0.000000 1.852750 
# 
# From -- ./inp_files/230138.got.cif
#   From: 2010.05.17/outbox.cif.g08.bks.cpg/sg15_116_cif.got.tgz:230138.got - 2010.06.03 18:47:42.
