data_PCOD9307596
_publ_section_title
;
Structure prediction by ZEFSAII (Michael W. Deem and Ramdas Pophale) SiO2 
 PCOD9307596
Probable space group: C 2/C
;
_chemical_formula_sum "Si O2"
_cell_formula_units_Z 32
_cell_length_a 12.371058
_cell_length_b 23.414573
_cell_length_c 5.122738
_cell_angle_alpha 90.000000
_cell_angle_beta 102.413108
_cell_angle_gamma 90.000000
_cell_volume 1449.179673
_symmetry_space_group_name_H-M "C 2/C"
_symmetry_group_IT_number 15
_symmetry_cell_setting 'monoclinic'
loop_
_space_group_symop_operation_xyz
x,y,z
-x,y,1/2-z
-x,-y,-z
x,-y,1/2+z
1/2+x,1/2+y,z
1/2-x,1/2+y,1/2-z
1/2-x,1/2-y,-z
1/2+x,1/2-y,1/2+z
loop_
_atom_site_type_symbol
_atom_site_label
_atom_site_fract_x
_atom_site_fract_y
_atom_site_fract_z
Si Si1 0.000000 0.157328 0.250000
Si Si2 0.572725 0.124054 0.550299
Si Si3 0.500000 0.417045 0.250000
Si Si4 0.173045 0.253149 0.209482
Si Si5 0.239349 0.035114 0.991267
O O1 0.093408 0.198938 0.185934
O O2 0.036253 0.119494 0.515243
O O3 0.500000 0.098688 0.750000
O O4 0.607628 0.187554 0.655987
O O5 0.682611 0.087744 0.546850
O O6 0.500000 0.126776 0.250000
O O7 0.390806 0.450900 0.105589
O O8 0.250000 0.250000 0.500000
O O9 0.250000 0.250000 0.000000
O O10 0.263185 0.984875 0.796810
#
# Coordination Sequence:
#
# PCOD9307596 Si02
#       5
#     4   8   4   8   8
#     4  12  24  43  70 104 138 181 226 276 368 416
#     4  12  26  45  70 103 148 183 236 293 351 428
#     4  12  26  47  72 106 140 179 244 302 354 428
#     4  12  25  43  69 101 142 186 231 282 344 425
#     4  12  26  47  73 101 137 188 241 299 359 409
#
# _framework density 22.081455999999999
#
# number of rings (size 3 to 8) (size 9 to 14) (size 15 to 20)
#    0.000    0.000    1.250    9.750    1.750    3.000 
#    0.000    0.000    0.000    0.000    0.000    0.000 
#    0.000    0.000    0.000    0.000    0.000    0.000 
#
# Total GULP energy -89672.864061 kJ/mol
# GULP energy per Si atom -5604.554004 kJ/mol
# Density = 2.203120 g / cm^3
# Si number density = 22.081456 Si / 1000 Ang^3
#
#
#
# Elastic Constant Matrix: (Units=GPa)
#
#
# Indices 1 2 3 4 5 6 
#
# 1 115.6608 16.6388 35.1608 0.0000 -17.5743 0.0000
# 2 16.6388 54.1407 9.2325 0.0000 -3.3298 0.0000
# 3 35.1608 9.2325 129.5368 0.0000 -4.1505 0.0000
# 4 0.0000 0.0000 0.0000 39.5113 0.0000 -6.3396
# 5 -17.5743 -3.3298 -4.1505 0.0000 45.8729 0.0000
# 6 0.0000 0.0000 0.0000 -6.3396 0.0000 27.4886
#
#
#
# Elastic Compliance Matrix: (Units=1/GPa)
#
#
# Indices 1 2 3 4 5 6 
#
# 1 0.010308 -0.002523 -0.002505 0.000000 0.003539 0.000000
# 2 -0.002523 0.019386 -0.000685 0.000000 0.000379 0.000000
# 3 -0.002505 -0.000685 0.008441 0.000000 -0.000246 0.000000
# 4 0.000000 0.000000 0.000000 0.026282 0.000000 0.006061
# 5 0.003539 0.000379 -0.000246 0.000000 0.023161 0.000000
# 6 0.000000 0.000000 0.000000 0.006061 0.000000 0.037777
#
#
# Mechanical properties :
#
#
# Convention : Reuss Voigt Hill
#
# Bulk Modulus (GPa) = 37.43990 46.82249 42.13120
# Shear Modulus (GPa) = 34.32134 38.46164 36.39149
#
# Velocity S-wave (km/s) = 3.94675 4.17802 4.06403
# Velocity P-wave (km/s) = 6.14502 6.67270 6.41429
#
# Compressibility (1/GPa) = 0.02670947
#
# Stress axis : x y z
#
# Youngs Moduli (GPa) = 97.01026 51.58399 118.47460
#
# Poissons Ratio (x) = 0.13015 0.29675
# Poissons Ratio (y) = 0.24477 0.08112
# Poissons Ratio (z) = 0.24299 0.03532
#
# Static dielectric constant tensor:
#      x y z
#    x 1.730820 0.000000 -0.072260 
#    y 0.000000 1.802900 0.000000 
#    z -0.072260 0.000000 1.701920 
# 
# From -- ./inp_files/3718.got.cif
#   From: 2010.05.17/outbox.cif.g08.bks.cpg/sg15_2_cif.got.tgz:3718.got - 2010.06.03 18:47:42.
