data_PCOD9307407
_publ_section_title
;
Structure prediction by ZEFSAII (Michael W. Deem and Ramdas Pophale) SiO2 
 PCOD9307407
Probable space group: C 2/C
;
_chemical_formula_sum "Si O2"
_cell_formula_units_Z 44
_cell_length_a 11.839428
_cell_length_b 15.695131
_cell_length_c 11.281666
_cell_angle_alpha 90.000000
_cell_angle_beta 87.196508
_cell_angle_gamma 90.000000
_cell_volume 2093.865642
_symmetry_space_group_name_H-M "C 2/C"
_symmetry_group_IT_number 15
_symmetry_cell_setting 'monoclinic'
loop_
_space_group_symop_operation_xyz
x,y,z
-x,y,1/2-z
-x,-y,-z
x,-y,1/2+z
1/2+x,1/2+y,z
1/2-x,1/2+y,1/2-z
1/2-x,1/2-y,-z
1/2+x,1/2-y,1/2+z
loop_
_atom_site_type_symbol
_atom_site_label
_atom_site_fract_x
_atom_site_fract_y
_atom_site_fract_z
Si Si1 0.379109 0.877277 0.753124
Si Si2 0.996883 0.928849 0.604776
Si Si3 0.500000 0.182392 0.750000
Si Si4 0.096931 0.541890 0.907851
Si Si5 0.763980 0.147722 0.021116
Si Si6 0.186958 0.793498 0.612346
O O1 0.500000 0.833589 0.750000
O O2 0.336692 0.881569 0.887531
O O3 0.287104 0.824856 0.689055
O O4 0.388402 0.968234 0.690667
O O5 0.882973 0.874992 0.577534
O O6 0.000000 0.949909 0.750000
O O7 0.107108 0.871160 0.577930
O O8 0.000000 0.000000 0.500000
O O9 0.537026 0.123887 0.856413
O O10 0.604173 0.236036 0.695325
O O11 0.226022 0.579736 0.922200
O O12 0.000000 0.500000 0.000000
O O13 0.750000 0.250000 0.000000
O O14 0.250000 0.750000 0.500000
#
# Coordination Sequence:
#
# PCOD9307407 Si02
#       6
#     8   8   4   8   8   8
#     4  12  24  44  69 103 142 180 250 300 363 446
#     4  12  27  54  76 110 157 204 255 315 386 466
#     4  12  24  48  72 108 146 192 246 316 390 446
#     4  12  23  43  72 106 144 191 244 307 374 452
#     4  12  26  46  74 106 146 195 247 316 375 443
#     4  12  26  48  74 103 146 198 245 310 384 454
#
# _framework density 21.013764999999999
#
# number of rings (size 3 to 8) (size 9 to 14) (size 15 to 20)
#    0.000    0.000    5.455    4.364    2.545    1.455 
#    3.273    0.000    0.000    0.000    0.000    0.000 
#    0.000    0.000    0.000    0.000    0.000    0.000 
#
# Total GULP energy -122595.557504 kJ/mol
# GULP energy per Si atom -5572.525341 kJ/mol
# Density = 2.096594 g / cm^3
# Si number density = 21.013765 Si / 1000 Ang^3
#
#
#
# Elastic Constant Matrix: (Units=GPa)
#
#
# Indices 1 2 3 4 5 6 
#
# 1 166.8600 52.8608 39.1032 0.0000 5.8240 0.0000
# 2 52.8608 120.5749 72.6926 0.0000 -11.7920 0.0000
# 3 39.1032 72.6926 68.3080 0.0000 -9.2168 0.0000
# 4 0.0000 0.0000 0.0000 44.4999 0.0000 6.2430
# 5 5.8240 -11.7920 -9.2168 0.0000 41.1846 0.0000
# 6 0.0000 0.0000 0.0000 6.2430 0.0000 41.5825
#
#
#
# Elastic Compliance Matrix: (Units=1/GPa)
#
#
# Indices 1 2 3 4 5 6 
#
# 1 0.007238 -0.001981 -0.002320 0.000000 -0.002110 0.000000
# 2 -0.001981 0.023734 -0.023891 0.000000 0.001729 0.000000
# 3 -0.002320 -0.023891 0.041775 0.000000 0.002837 0.000000
# 4 0.000000 0.000000 0.000000 0.022955 0.000000 -0.003446
# 5 -0.002110 0.001729 0.002837 0.000000 0.025709 0.000000
# 6 0.000000 0.000000 0.000000 -0.003446 0.000000 0.024566
#
#
# Mechanical properties :
#
#
# Convention : Reuss Voigt Hill
#
# Bulk Modulus (GPa) = 61.11053 76.11735 68.61394
# Shear Modulus (GPa) = 24.05987 38.19248 31.12617
#
# Velocity S-wave (km/s) = 3.38739 4.26784 3.85285
# Velocity P-wave (km/s) = 6.66660 7.78378 7.24675
#
# Compressibility (1/GPa) = 0.01636379
#
# Stress axis : x y z
#
# Youngs Moduli (GPa) = 138.16156 42.13324 23.93799
#
# Poissons Ratio (x) = 0.08345 0.05554
# Poissons Ratio (y) = 0.27364 0.57189
# Poissons Ratio (z) = 0.32058 1.00659
#
# Static dielectric constant tensor:
#      x y z
#    x 2.063110 0.000000 -0.289590 
#    y 0.000000 1.599310 0.000000 
#    z -0.289590 0.000000 1.437870 
# 
# From -- ./inp_files/86064.got.cif
#   From: 2010.05.17/outbox.cif.g08.bks.cpg/sg15_44_cif.got.tgz:86064.got - 2010.06.03 18:47:42.
