data_PCOD9307143
_publ_section_title
;
Structure prediction by ZEFSAII (Michael W. Deem and Ramdas Pophale) SiO2 
 PCOD9307143
Probable space group: C 2/C
;
_chemical_formula_sum "Si O2"
_cell_formula_units_Z 64
_cell_length_a 12.522468
_cell_length_b 15.691033
_cell_length_c 21.596481
_cell_angle_alpha 90.000000
_cell_angle_beta 40.245117
_cell_angle_gamma 90.000000
_cell_volume 2741.552662
_symmetry_space_group_name_H-M "C 2/C"
_symmetry_group_IT_number 15
_symmetry_cell_setting 'monoclinic'
loop_
_space_group_symop_operation_xyz
x,y,z
-x,y,1/2-z
-x,-y,-z
x,-y,1/2+z
1/2+x,1/2+y,z
1/2-x,1/2+y,1/2-z
1/2-x,1/2-y,-z
1/2+x,1/2-y,1/2+z
loop_
_atom_site_type_symbol
_atom_site_label
_atom_site_fract_x
_atom_site_fract_y
_atom_site_fract_z
Si Si1 0.618165 0.620811 0.812703
Si Si2 0.294271 0.938104 0.565529
Si Si3 0.057630 0.835212 0.587917
Si Si4 0.744202 0.135592 0.959444
Si Si5 0.765177 0.940316 0.764636
Si Si6 0.332826 0.444299 0.074479
Si Si7 0.562831 0.085593 0.160207
Si Si8 0.085748 0.671933 0.904472
O O1 0.436214 0.657963 0.884026
O O2 0.618993 0.522989 0.789069
O O3 0.670208 0.610386 0.861311
O O4 0.757031 0.663430 0.709373
O O5 0.286200 0.926246 0.642483
O O6 0.474191 0.912450 0.460428
O O7 0.163037 0.868652 0.598848
O O8 0.258860 0.035127 0.560427
O O9 0.872105 0.867494 0.684556
O O10 0.034089 0.740140 0.574498
O O11 0.146723 0.883556 0.492563
O O12 0.653628 0.186942 0.944358
O O13 0.653795 0.137927 0.065878
O O14 0.599742 0.953502 0.799134
O O15 0.184133 0.510011 0.128984
O O16 0.500000 0.500000 0.000000
O O17 0.500000 0.132990 0.250000
#
# Coordination Sequence:
#
# PCOD9307143 Si02
#       8
#     8   8   8   8   8   8   8   8
#     4  12  24  43  75 107 144 196 259 315 371 456
#     4  12  23  45  75 104 143 199 257 313 372 464
#     4  12  27  46  69 105 157 195 243 325 401 450
#     4  12  23  44  76 107 144 197 258 313 372 449
#     4  12  23  42  76 108 141 194 263 314 370 463
#     4  12  22  43  71 102 139 196 252 309 379 457
#     4  12  22  38  73 115 143 185 257 325 366 440
#     4  12  28  45  67 111 154 194 255 321 392 457
#
# _framework density 23.344436000000002
#
# number of rings (size 3 to 8) (size 9 to 14) (size 15 to 20)
#    0.000    0.000    8.750    2.250    0.000    1.000 
#    0.000    5.625    0.000    0.000    0.000    0.000 
#    0.000    0.000    0.000    0.000    0.000    0.000 
#
# Total GULP energy -179124.763232 kJ/mol
# GULP energy per Si atom -5597.648851 kJ/mol
# Density = 2.329130 g / cm^3
# Si number density = 23.344436 Si / 1000 Ang^3
#
#
#
# Elastic Constant Matrix: (Units=GPa)
#
#
# Indices 1 2 3 4 5 6 
#
# 1 151.9552 16.8452 54.3760 0.0000 11.6960 0.0000
# 2 16.8452 47.5149 7.4636 0.0001 8.3637 0.0000
# 3 54.3760 7.4636 142.3731 0.0004 17.1132 -0.0001
# 4 0.0000 0.0001 0.0004 16.3825 -0.0001 -5.2576
# 5 11.6960 8.3637 17.1132 -0.0001 55.5085 0.0000
# 6 0.0000 0.0000 -0.0001 -5.2576 0.0000 26.4502
#
#
#
# Elastic Compliance Matrix: (Units=1/GPa)
#
#
# Indices 1 2 3 4 5 6 
#
# 1 0.007882 -0.002271 -0.002838 0.000000 -0.000444 0.000000
# 2 -0.002271 0.022355 0.000044 0.000000 -0.002904 0.000000
# 3 -0.002838 0.000044 0.008344 0.000000 -0.001981 0.000000
# 4 0.000000 0.000000 0.000000 0.065200 0.000000 0.012960
# 5 -0.000444 -0.002904 -0.001981 0.000000 0.019157 0.000000
# 6 0.000000 0.000000 0.000000 0.012960 0.000000 0.040383
#
#
# Mechanical properties :
#
#
# Convention : Reuss Voigt Hill
#
# Bulk Modulus (GPa) = 35.14660 55.46809 45.30735
# Shear Modulus (GPa) = 27.33226 37.21213 32.27220
#
# Velocity S-wave (km/s) = 3.42544 3.99688 3.72215
# Velocity P-wave (km/s) = 5.54376 6.71658 6.15815
#
# Compressibility (1/GPa) = 0.02845225
#
# Stress axis : x y z
#
# Youngs Moduli (GPa) = 126.86586 44.73242 119.85332
#
# Poissons Ratio (x) = 0.10157 0.34016
# Poissons Ratio (y) = 0.28806 -0.00531
# Poissons Ratio (z) = 0.36006 -0.00198
#
# Static dielectric constant tensor:
#      x y z
#    x 1.927130 0.000000 0.016770 
#    y 0.000000 2.679460 0.000000 
#    z 0.016770 0.000000 1.776440 
# 
# From -- ./inp_files/240405.got.cif
#   From: 2010.05.17/outbox.cif.g08.bks.cpg/sg15_121_cif.got.tgz:240405.got - 2010.06.03 18:47:42.
