data_PCOD9307903
_publ_section_title
;
Structure prediction by ZEFSAII (Michael W. Deem and Ramdas Pophale) SiO2 
 PCOD9307903
Probable space group: C 2/C
;
_chemical_formula_sum "Si O2"
_cell_formula_units_Z 24
_cell_length_a 25.021989
_cell_length_b 4.747771
_cell_length_c 8.350798
_cell_angle_alpha 90.000000
_cell_angle_beta 100.491139
_cell_angle_gamma 90.000000
_cell_volume 975.479476
_symmetry_space_group_name_H-M "C 2/C"
_symmetry_group_IT_number 15
_symmetry_cell_setting 'monoclinic'
loop_
_space_group_symop_operation_xyz
x,y,z
-x,y,1/2-z
-x,-y,-z
x,-y,1/2+z
1/2+x,1/2+y,z
1/2-x,1/2+y,1/2-z
1/2-x,1/2-y,-z
1/2+x,1/2-y,1/2+z
loop_
_atom_site_type_symbol
_atom_site_label
_atom_site_fract_x
_atom_site_fract_y
_atom_site_fract_z
Si Si1 0.438785 0.404582 0.434883
Si Si2 0.270885 0.086667 0.667255
Si Si3 0.396472 0.911500 0.225024
O O1 0.500000 0.500000 0.500000
O O2 0.404831 0.678907 0.368120
O O3 0.567051 0.819826 0.712203
O O4 0.415077 0.242879 0.574508
O O5 0.263572 0.312646 0.806494
O O6 0.250000 0.250000 0.500000
O O7 0.333645 0.004607 0.683637
#
# Coordination Sequence:
#
# PCOD9307903 Si02
#       3
#     8   8   8
#     4  12  27  47  72 102 139 186 235 289 349 413
#     4  12  25  44  71 105 142 185 232 285 346 415
#     4  12  25  47  71 103 142 185 232 288 347 414
#
# _framework density 24.603283999999999
#
# number of rings (size 3 to 8) (size 9 to 14) (size 15 to 20)
#    0.000    0.000    0.000   11.000    0.000    2.667 
#    0.000    0.000    0.000    0.000    0.000    0.000 
#    0.000    0.000    0.000    0.000    0.000    0.000 
#
# Total GULP energy -67409.063246 kJ/mol
# GULP energy per Si atom -5617.421937 kJ/mol
# Density = 2.454729 g / cm^3
# Si number density = 24.603284 Si / 1000 Ang^3
#
#
#
# Elastic Constant Matrix: (Units=GPa)
#
#
# Indices 1 2 3 4 5 6 
#
# 1 104.3833 -11.8152 12.6386 0.0000 3.0814 0.0000
# 2 -11.8152 107.9456 4.0625 0.0000 1.1635 0.0000
# 3 12.6386 4.0625 76.7781 0.0000 4.8659 0.0000
# 4 0.0000 0.0000 0.0000 52.8308 0.0000 8.5025
# 5 3.0814 1.1635 4.8659 0.0000 38.7154 0.0000
# 6 0.0000 0.0000 0.0000 8.5025 0.0000 36.6085
#
#
#
# Elastic Compliance Matrix: (Units=1/GPa)
#
#
# Indices 1 2 3 4 5 6 
#
# 1 0.009930 0.001156 -0.001657 0.000000 -0.000617 0.000000
# 2 0.001156 0.009419 -0.000670 0.000000 -0.000291 0.000000
# 3 -0.001657 -0.000670 0.013430 0.000000 -0.001536 0.000000
# 4 0.000000 0.000000 0.000000 0.019663 0.000000 -0.004567
# 5 -0.000617 -0.000291 -0.001536 0.000000 0.026080 0.000000
# 6 0.000000 0.000000 0.000000 -0.004567 0.000000 0.028377
#
#
# Mechanical properties :
#
#
# Convention : Reuss Voigt Hill
#
# Bulk Modulus (GPa) = 32.85519 33.20878 33.03198
# Shear Modulus (GPa) = 41.88078 44.57902 43.22990
#
# Velocity S-wave (km/s) = 4.13030 4.26128 4.19630
# Velocity P-wave (km/s) = 6.01073 6.14315 6.07730
#
# Compressibility (1/GPa) = 0.03043660
#
# Stress axis : x y z
#
# Youngs Moduli (GPa) = 100.70801 106.17071 74.45983
#
# Poissons Ratio (x) = -0.12272 0.12335
# Poissons Ratio (y) = -0.11640 0.04990
# Poissons Ratio (z) = 0.16683 0.07116
#
# Static dielectric constant tensor:
#      x y z
#    x 1.869360 0.000000 -0.031060 
#    y 0.000000 1.917580 0.000000 
#    z -0.031060 0.000000 2.084300 
# 
# From -- ./inp_files/59461.got.cif
#   From: 2010.05.17/outbox.cif.g08.bks.cpg/sg15_30_cif.got.tgz:59461.got - 2010.06.03 18:47:42.
