data_PCOD9307246
_publ_section_title
;
Structure prediction by ZEFSAII (Michael W. Deem and Ramdas Pophale) SiO2 
 PCOD9307246
Probable space group: C 2/C
;
_chemical_formula_sum "Si O2"
_cell_formula_units_Z 40
_cell_length_a 13.536548
_cell_length_b 12.837713
_cell_length_c 13.005169
_cell_angle_alpha 90.000000
_cell_angle_beta 124.564157
_cell_angle_gamma 90.000000
_cell_volume 1861.104153
_symmetry_space_group_name_H-M "C 2/C"
_symmetry_group_IT_number 15
_symmetry_cell_setting 'monoclinic'
loop_
_space_group_symop_operation_xyz
x,y,z
-x,y,1/2-z
-x,-y,-z
x,-y,1/2+z
1/2+x,1/2+y,z
1/2-x,1/2+y,1/2-z
1/2-x,1/2-y,-z
1/2+x,1/2-y,1/2+z
loop_
_atom_site_type_symbol
_atom_site_label
_atom_site_fract_x
_atom_site_fract_y
_atom_site_fract_z
Si Si1 0.000000 0.308517 0.750000
Si Si2 0.827174 0.633763 0.747800
Si Si3 0.794073 0.833248 0.109275
Si Si4 0.000000 0.804985 0.750000
Si Si5 0.956401 0.500532 0.089869
Si Si6 0.194251 0.943318 0.982043
O O1 0.899342 0.229934 0.729516
O O2 0.946054 0.384731 0.631577
O O3 0.792394 0.638961 0.846801
O O4 0.903585 0.734823 0.756846
O O5 0.715142 0.597784 0.610933
O O6 0.924975 0.544576 0.786547
O O7 0.831047 0.936809 0.066919
O O8 0.750000 0.750000 0.000000
O O9 0.911502 0.875190 0.628811
O O10 0.833177 0.434353 0.023104
O O11 0.000000 0.500000 0.000000
#
# Coordination Sequence:
#
# PCOD9307246 Si02
#       6
#     4   8   8   4   8   8
#     4  12  24  46  70 104 138 188 248 286 362 434
#     4  12  25  45  75 104 143 195 235 301 361 434
#     4  12  26  46  72 105 143 188 241 294 360 431
#     4  12  28  44  70 112 146 186 242 302 366 426
#     4  12  22  43  76 100 140 189 241 295 357 435
#     4  12  25  47  69 105 147 182 243 296 367 425
#
# _framework density 21.492618
#
# number of rings (size 3 to 8) (size 9 to 14) (size 15 to 20)
#    0.000    0.000    8.000    1.200    2.800    3.200 
#    0.000    3.000    0.000    0.000    0.000    0.000 
#    0.000    0.000    0.000    0.000    0.000    0.000 
#
# Total GULP energy -111382.908788 kJ/mol
# GULP energy per Si atom -5569.145439 kJ/mol
# Density = 2.144370 g / cm^3
# Si number density = 21.492618 Si / 1000 Ang^3
#
#
#
# Elastic Constant Matrix: (Units=GPa)
#
#
# Indices 1 2 3 4 5 6 
#
# 1 80.1850 38.6973 35.9219 0.0000 -15.2493 0.0000
# 2 38.6973 145.2322 63.3750 0.0000 1.6785 0.0000
# 3 35.9219 63.3750 152.3346 0.0000 2.3015 0.0000
# 4 0.0000 0.0000 0.0000 30.7538 0.0000 11.2265
# 5 -15.2493 1.6785 2.3015 0.0000 40.8353 0.0000
# 6 0.0000 0.0000 0.0000 11.2265 0.0000 29.8110
#
#
#
# Elastic Compliance Matrix: (Units=1/GPa)
#
#
# Indices 1 2 3 4 5 6 
#
# 1 0.016463 -0.003329 -0.002594 0.000000 0.006431 0.000000
# 2 -0.003329 0.009087 -0.002973 0.000000 -0.001449 0.000000
# 3 -0.002594 -0.002973 0.008433 0.000000 -0.001322 0.000000
# 4 0.000000 0.000000 0.000000 0.037699 0.000000 -0.014197
# 5 0.006431 -0.001449 -0.001322 0.000000 0.027024 0.000000
# 6 0.000000 0.000000 0.000000 -0.014197 0.000000 0.038891
#
#
# Mechanical properties :
#
#
# Convention : Reuss Voigt Hill
#
# Bulk Modulus (GPa) = 61.76788 72.63779 67.20283
# Shear Modulus (GPa) = 31.09705 36.26385 33.68045
#
# Velocity S-wave (km/s) = 3.80790 4.11210 3.96292
# Velocity P-wave (km/s) = 6.93794 7.51104 7.23017
#
# Compressibility (1/GPa) = 0.01618965
#
# Stress axis : x y z
#
# Youngs Moduli (GPa) = 60.74274 110.05023 118.57765
#
# Poissons Ratio (x) = 0.36633 0.30764
# Poissons Ratio (y) = 0.20220 0.35259
# Poissons Ratio (z) = 0.15759 0.32723
#
# Static dielectric constant tensor:
#      x y z
#    x 1.805900 0.000000 0.071250 
#    y 0.000000 1.785820 0.000000 
#    z 0.071250 0.000000 1.965050 
# 
# From -- ./inp_files/152325.got.cif
#   From: 2010.05.17/outbox.cif.g08.bks.cpg/sg15_77_cif.got.tgz:152325.got - 2010.06.03 18:47:42.
