data_PCOD9307633
_publ_section_title
;
Structure prediction by ZEFSAII (Michael W. Deem and Ramdas Pophale) SiO2 
 PCOD9307633
Probable space group: C 2/C
;
_chemical_formula_sum "Si O2"
_cell_formula_units_Z 28
_cell_length_a 7.810943
_cell_length_b 5.398570
_cell_length_c 28.501525
_cell_angle_alpha 90.000000
_cell_angle_beta 59.911789
_cell_angle_gamma 90.000000
_cell_volume 1039.906316
_symmetry_space_group_name_H-M "C 2/C"
_symmetry_group_IT_number 15
_symmetry_cell_setting 'monoclinic'
loop_
_space_group_symop_operation_xyz
x,y,z
-x,y,1/2-z
-x,-y,-z
x,-y,1/2+z
1/2+x,1/2+y,z
1/2-x,1/2+y,1/2-z
1/2-x,1/2-y,-z
1/2+x,1/2-y,1/2+z
loop_
_atom_site_type_symbol
_atom_site_label
_atom_site_fract_x
_atom_site_fract_y
_atom_site_fract_z
Si Si1 0.245657 0.297667 0.892639
Si Si2 0.330248 0.485463 0.679107
Si Si3 0.000000 0.868286 0.250000
Si Si4 0.675062 0.000878 0.035177
O O1 0.461266 0.407747 0.871920
O O2 0.227571 0.233267 0.840277
O O3 0.244158 0.044017 0.923191
O O4 0.061614 0.467077 0.931647
O O5 0.369435 0.495398 0.729215
O O6 0.147942 0.300216 0.698832
O O7 0.750000 0.750000 0.000000
O O8 0.750000 0.250000 0.000000
#
# Coordination Sequence:
#
# PCOD9307633 Si02
#       4
#     8   8   4   8
#     4  12  26  47  73 108 148 196 249 309 372 444
#     4  12  25  45  72 106 146 192 244 305 369 444
#     4  12  24  44  70 104 144 192 242 302 372 444
#     4  12  27  49  76 110 152 200 252 311 375 446
#
# _framework density 26.925505000000001
#
# number of rings (size 3 to 8) (size 9 to 14) (size 15 to 20)
#    0.000    0.000    0.000   10.286    0.000    4.571 
#    0.000    0.000    0.000    0.000    0.000    0.000 
#    0.000    0.000    0.000    0.000    0.000    0.000 
#
# Total GULP energy -78581.180113 kJ/mol
# GULP energy per Si atom -5612.941437 kJ/mol
# Density = 2.686422 g / cm^3
# Si number density = 26.925505 Si / 1000 Ang^3
#
#
#
# Elastic Constant Matrix: (Units=GPa)
#
#
# Indices 1 2 3 4 5 6 
#
# 1 145.5121 47.3647 38.8963 0.0000 -17.7244 0.0000
# 2 47.3647 120.2842 37.4189 0.0000 -16.8007 0.0000
# 3 38.8963 37.4189 103.4107 0.0000 -1.1546 0.0000
# 4 0.0000 0.0000 0.0000 47.2257 0.0000 4.7130
# 5 -17.7244 -16.8007 -1.1546 0.0000 65.6244 0.0000
# 6 0.0000 0.0000 0.0000 4.7130 0.0000 54.6836
#
#
#
# Elastic Compliance Matrix: (Units=1/GPa)
#
#
# Indices 1 2 3 4 5 6 
#
# 1 0.008464 -0.002389 -0.002301 0.000000 0.001634 0.000000
# 2 -0.002389 0.010416 -0.002848 0.000000 0.001971 0.000000
# 3 -0.002301 -0.002848 0.011554 0.000000 -0.001147 0.000000
# 4 0.000000 0.000000 0.000000 0.021359 0.000000 -0.001841
# 5 0.001634 0.001971 -0.001147 0.000000 0.016164 0.000000
# 6 0.000000 0.000000 0.000000 -0.001841 0.000000 0.018446
#
#
# Mechanical properties :
#
#
# Convention : Reuss Voigt Hill
#
# Bulk Modulus (GPa) = 65.11742 68.50739 66.81241
# Shear Modulus (GPa) = 46.90572 49.87520 48.39046
#
# Velocity S-wave (km/s) = 4.17832 4.30855 4.24394
# Velocity P-wave (km/s) = 6.89308 7.08873 6.99159
#
# Compressibility (1/GPa) = 0.01535687
#
# Stress axis : x y z
#
# Youngs Moduli (GPa) = 118.14822 96.00854 86.55382
#
# Poissons Ratio (x) = 0.22935 0.19915
# Poissons Ratio (y) = 0.28224 0.24654
# Poissons Ratio (z) = 0.27185 0.27347
#
# Static dielectric constant tensor:
#      x y z
#    x 1.993420 0.000000 0.048490 
#    y 0.000000 2.087150 0.000000 
#    z 0.048490 0.000000 2.214060 
# 
# From -- ./inp_files/284963.got.cif
#   From: 2010.05.17/outbox.cif.g08.bks.cpg/sg15_143_cif.got.tgz:284963.got - 2010.06.03 18:47:42.
