data_PCOD9307152
_publ_section_title
;
Structure prediction by ZEFSAII (Michael W. Deem and Ramdas Pophale) SiO2 
 PCOD9307152
Probable space group: C 2/C
;
_chemical_formula_sum "Si O2"
_cell_formula_units_Z 44
_cell_length_a 14.487339
_cell_length_b 5.822264
_cell_length_c 24.082068
_cell_angle_alpha 90.000000
_cell_angle_beta 63.055294
_cell_angle_gamma 90.000000
_cell_volume 1810.791625
_symmetry_space_group_name_H-M "C 2/C"
_symmetry_group_IT_number 15
_symmetry_cell_setting 'monoclinic'
loop_
_space_group_symop_operation_xyz
x,y,z
-x,y,1/2-z
-x,-y,-z
x,-y,1/2+z
1/2+x,1/2+y,z
1/2-x,1/2+y,1/2-z
1/2-x,1/2-y,-z
1/2+x,1/2-y,1/2+z
loop_
_atom_site_type_symbol
_atom_site_label
_atom_site_fract_x
_atom_site_fract_y
_atom_site_fract_z
Si Si1 0.745575 0.419681 0.605113
Si Si2 0.036217 0.047748 0.619651
Si Si3 0.682202 0.071012 0.711137
Si Si4 0.040138 0.251011 0.967740
Si Si5 0.864561 0.743562 0.654740
Si Si6 0.000000 0.777784 0.250000
O O1 0.659806 0.524695 0.588174
O O2 0.680699 0.285727 0.670407
O O3 0.835411 0.256445 0.556970
O O4 0.812439 0.609985 0.618838
O O5 0.994114 0.235638 0.588005
O O6 0.993762 0.088598 0.693735
O O7 0.983435 0.808720 0.615704
O O8 0.654505 0.119638 0.782057
O O9 0.798313 0.976807 0.677401
O O10 0.600914 0.880081 0.714504
O O11 0.000000 0.500000 0.000000
O O12 0.000000 0.000000 0.000000
#
# Coordination Sequence:
#
# PCOD9307152 Si02
#       6
#     8   8   8   8   8   4
#     4  12  26  47  76 108 149 206 266 326 402 466
#     4  12  26  49  79 113 157 202 258 328 400 483
#     4  12  22  39  70 107 165 203 244 314 390 486
#     4  12  30  55  81 112 154 211 280 342 394 462
#     4  12  22  44  68 112 163 202 249 312 392 484
#     4  12  24  42  74 122 160 196 252 316 402 488
#
# _framework density 24.298763999999998
#
# number of rings (size 3 to 8) (size 9 to 14) (size 15 to 20)
#    0.000    0.000    5.455    5.455    0.000    2.909 
#    0.000    0.000    0.000    0.000    0.000    0.000 
#    0.000    0.000    0.000    0.000    0.000    0.000 
#
# Total GULP energy -123119.325231 kJ/mol
# GULP energy per Si atom -5596.332965 kJ/mol
# Density = 2.424346 g / cm^3
# Si number density = 24.298764 Si / 1000 Ang^3
#
#
#
# Elastic Constant Matrix: (Units=GPa)
#
#
# Indices 1 2 3 4 5 6 
#
# 1 155.7903 48.7427 30.0198 0.0001 -18.8661 0.0005
# 2 48.7427 104.8233 40.8212 0.0005 2.6597 0.0005
# 3 30.0198 40.8212 84.2699 0.0002 -5.5670 0.0001
# 4 0.0001 0.0005 0.0002 49.9110 0.0001 -2.5145
# 5 -18.8661 2.6597 -5.5670 0.0001 32.0168 0.0001
# 6 0.0005 0.0005 0.0001 -2.5145 0.0001 56.2123
#
#
#
# Elastic Compliance Matrix: (Units=1/GPa)
#
#
# Indices 1 2 3 4 5 6 
#
# 1 0.008349 -0.003677 -0.000858 0.000000 0.005076 0.000000
# 2 -0.003677 0.013504 -0.005512 0.000000 -0.004247 0.000000
# 3 -0.000858 -0.005512 0.015012 0.000000 0.002563 0.000000
# 4 0.000000 0.000000 0.000000 0.020081 0.000000 0.000898
# 5 0.005076 -0.004247 0.002563 0.000000 0.035023 0.000000
# 6 0.000000 0.000000 0.000000 0.000898 0.000000 0.017830
#
#
# Mechanical properties :
#
#
# Convention : Reuss Voigt Hill
#
# Bulk Modulus (GPa) = 59.62687 64.89452 62.26070
# Shear Modulus (GPa) = 36.90480 42.64800 39.77640
#
# Velocity S-wave (km/s) = 3.90140 4.19400 4.05034
# Velocity P-wave (km/s) = 6.69977 7.08645 6.89582
#
# Compressibility (1/GPa) = 0.01677096
#
# Stress axis : x y z
#
# Youngs Moduli (GPa) = 119.76888 74.05143 66.61517
#
# Poissons Ratio (x) = 0.27231 0.05714
# Poissons Ratio (y) = 0.44042 0.36719
# Poissons Ratio (z) = 0.10273 0.40818
#
# Static dielectric constant tensor:
#      x y z
#    x 1.934440 0.000000 0.005380 
#    y 0.000000 2.000320 0.000000 
#    z 0.005380 0.000000 2.052560 
# 
# From -- ./inp_files/271914.got.cif
#   From: 2010.05.17/outbox.cif.g08.bks.cpg/sg15_136_cif.got.tgz:271914.got - 2010.06.03 18:47:42.
