data_PCOD9307805
_publ_section_title
;
Structure prediction by ZEFSAII (Michael W. Deem and Ramdas Pophale) SiO2 
 PCOD9307805
Probable space group: C 2/C
;
_chemical_formula_sum "Si O2"
_cell_formula_units_Z 52
_cell_length_a 12.100921
_cell_length_b 12.171876
_cell_length_c 23.926334
_cell_angle_alpha 90.000000
_cell_angle_beta 43.349001
_cell_angle_gamma 90.000000
_cell_volume 2419.106643
_symmetry_space_group_name_H-M "C 2/C"
_symmetry_group_IT_number 15
_symmetry_cell_setting 'monoclinic'
loop_
_space_group_symop_operation_xyz
x,y,z
-x,y,1/2-z
-x,-y,-z
x,-y,1/2+z
1/2+x,1/2+y,z
1/2-x,1/2+y,1/2-z
1/2-x,1/2-y,-z
1/2+x,1/2-y,1/2+z
loop_
_atom_site_type_symbol
_atom_site_label
_atom_site_fract_x
_atom_site_fract_y
_atom_site_fract_z
Si Si1 0.177068 0.682201 0.865971
Si Si2 0.657829 0.102160 0.229656
Si Si3 0.500000 0.689597 0.250000
Si Si4 0.363160 0.808482 0.411317
Si Si5 0.369249 0.563755 0.583023
Si Si6 0.672646 0.059747 0.350866
Si Si7 0.911740 0.734834 0.478105
O O1 0.282744 0.770919 0.793417
O O2 0.230578 0.557031 0.854445
O O3 0.012537 0.658678 0.893993
O O4 0.146128 0.739009 0.936679
O O5 0.500000 0.095549 0.250000
O O6 0.626105 0.058842 0.302984
O O7 0.788779 0.019665 0.155605
O O8 0.444174 0.747066 0.328434
O O9 0.335920 0.628940 0.294510
O O10 0.250000 0.750000 0.500000
O O11 0.257302 0.896235 0.417036
O O12 0.500000 0.500000 0.500000
O O13 0.458987 0.667214 0.578771
O O14 0.519010 0.123137 0.434115
O O15 0.750000 0.750000 0.500000
#
# Coordination Sequence:
#
# PCOD9307805 Si02
#       7
#     8   8   4   8   8   8   8
#     4  12  26  49  72 107 144 197 247 302 374 448
#     4  12  27  47  71 108 146 194 247 303 372 446
#     4  12  26  48  72 112 146 194 248 306 372 442
#     4  12  24  48  78 105 149 189 253 312 364 447
#     4  12  26  47  76 107 141 196 247 306 368 447
#     4  12  28  45  74 107 150 193 242 311 375 442
#     4  12  27  50  74 109 152 192 249 307 380 451
#
# _framework density 21.495539000000001
#
# number of rings (size 3 to 8) (size 9 to 14) (size 15 to 20)
#    0.000    0.000    6.154    2.308    8.615    1.231 
#    0.000    0.000    0.000    0.000    0.000    0.000 
#    0.000    0.000    0.000    0.000    0.000    0.000 
#
# Total GULP energy -145113.132424 kJ/mol
# GULP energy per Si atom -5581.274324 kJ/mol
# Density = 2.144661 g / cm^3
# Si number density = 21.495539 Si / 1000 Ang^3
#
#
#
# Elastic Constant Matrix: (Units=GPa)
#
#
# Indices 1 2 3 4 5 6 
#
# 1 119.9970 1.2098 -7.0699 0.0000 -9.8645 0.0000
# 2 1.2098 94.6742 18.9753 0.0000 -7.2428 0.0000
# 3 -7.0699 18.9753 74.9990 0.0000 2.1818 0.0000
# 4 0.0000 0.0000 0.0000 33.6962 0.0000 -0.7085
# 5 -9.8645 -7.2428 2.1818 0.0000 31.9257 0.0000
# 6 0.0000 0.0000 0.0000 -0.7085 0.0000 17.3786
#
#
#
# Elastic Compliance Matrix: (Units=1/GPa)
#
#
# Indices 1 2 3 4 5 6 
#
# 1 0.008591 -0.000062 0.000750 0.000000 0.002589 0.000000
# 2 -0.000062 0.011368 -0.002963 0.000000 0.002762 0.000000
# 3 0.000750 -0.002963 0.014195 0.000000 -0.001410 0.000000
# 4 0.000000 0.000000 0.000000 0.029702 0.000000 0.001211
# 5 0.002589 0.002762 -0.001410 0.000000 0.032846 0.000000
# 6 0.000000 0.000000 0.000000 0.001211 0.000000 0.057592
#
#
# Mechanical properties :
#
#
# Convention : Reuss Voigt Hill
#
# Bulk Modulus (GPa) = 33.77722 35.10009 34.43865
# Shear Modulus (GPa) = 29.63640 35.03709 32.33674
#
# Velocity S-wave (km/s) = 3.71714 4.04167 3.88280
# Velocity P-wave (km/s) = 5.84556 6.17613 6.01312
#
# Compressibility (1/GPa) = 0.02960576
#
# Stress axis : x y z
#
# Youngs Moduli (GPa) = 116.39791 87.96291 70.44834
#
# Poissons Ratio (x) = 0.00546 -0.05285
# Poissons Ratio (y) = 0.00723 0.20870
# Poissons Ratio (z) = -0.08733 0.26059
#
# Static dielectric constant tensor:
#      x y z
#    x 2.154870 0.000000 -0.738600 
#    y 0.000000 1.616860 0.000000 
#    z -0.738600 0.000000 2.936940 
# 
# From -- ./inp_files/269182.got.cif
#   From: 2010.05.17/outbox.cif.g08.bks.cpg/sg15_135_cif.got.tgz:269182.got - 2010.06.03 18:47:42.
