data_PCOD9307346
_publ_section_title
;
Structure prediction by ZEFSAII (Michael W. Deem and Ramdas Pophale) SiO2 
 PCOD9307346
Probable space group: C 2/C
;
_chemical_formula_sum "Si O2"
_cell_formula_units_Z 52
_cell_length_a 20.206027
_cell_length_b 17.199082
_cell_length_c 8.952196
_cell_angle_alpha 90.000000
_cell_angle_beta 53.025470
_cell_angle_gamma 90.000000
_cell_volume 2485.477340
_symmetry_space_group_name_H-M "C 2/C"
_symmetry_group_IT_number 15
_symmetry_cell_setting 'monoclinic'
loop_
_space_group_symop_operation_xyz
x,y,z
-x,y,1/2-z
-x,-y,-z
x,-y,1/2+z
1/2+x,1/2+y,z
1/2-x,1/2+y,1/2-z
1/2-x,1/2-y,-z
1/2+x,1/2-y,1/2+z
loop_
_atom_site_type_symbol
_atom_site_label
_atom_site_fract_x
_atom_site_fract_y
_atom_site_fract_z
Si Si1 0.936209 0.562530 0.145163
Si Si2 0.500000 0.808655 0.750000
Si Si3 0.826702 0.463661 0.519348
Si Si4 0.677551 0.258748 0.975092
Si Si5 0.838135 0.053594 0.646849
Si Si6 0.596288 0.590079 0.615820
Si Si7 0.240443 0.670611 0.605585
O O1 0.884867 0.525719 0.353154
O O2 0.991691 0.634706 0.119523
O O3 0.872927 0.575995 0.095998
O O4 0.000000 0.500000 0.000000
O O5 0.414702 0.763102 0.848829
O O6 0.748412 0.511218 0.690353
O O7 0.802813 0.396183 0.434594
O O8 0.661631 0.348711 0.954710
O O9 0.750000 0.250000 0.000000
O O10 0.695457 0.200555 0.815868
O O11 0.876522 0.080540 0.749947
O O12 0.820904 0.126207 0.561166
O O13 0.892796 0.990208 0.487401
O O14 0.500000 0.612289 0.750000
O O15 0.250000 0.750000 0.500000
#
# Coordination Sequence:
#
# PCOD9307346 Si02
#       7
#     8   4   8   8   8   8   8
#     4  12  23  39  69 103 143 186 231 297 354 443
#     4  12  26  44  72 108 140 186 246 292 376 438
#     4  12  23  43  69 106 140 190 242 293 365 438
#     4  12  27  47  74 103 147 191 236 302 374 436
#     4  12  24  45  76 102 135 193 246 301 357 438
#     4  12  26  48  73 105 142 191 252 305 361 437
#     4  12  26  43  71 109 141 185 246 304 363 431
#
# _framework density 20.921534000000001
#
# number of rings (size 3 to 8) (size 9 to 14) (size 15 to 20)
#    0.000    0.000    6.923    3.231    4.308    0.000 
#    0.000    0.000    0.000    0.000    0.000    0.000 
#    0.000    0.000    0.000    0.000    0.000    0.000 
#
# Total GULP energy -145266.186135 kJ/mol
# GULP energy per Si atom -5587.161005 kJ/mol
# Density = 2.087392 g / cm^3
# Si number density = 20.921534 Si / 1000 Ang^3
#
#
#
# Elastic Constant Matrix: (Units=GPa)
#
#
# Indices 1 2 3 4 5 6 
#
# 1 152.0361 26.8470 24.8071 0.0000 6.3326 0.0000
# 2 26.8470 91.2852 12.9187 0.0000 -1.6251 0.0000
# 3 24.8071 12.9187 59.1138 0.0000 -8.5359 0.0000
# 4 0.0000 0.0000 0.0000 44.8015 0.0000 3.0667
# 5 6.3326 -1.6251 -8.5359 0.0000 38.5475 0.0000
# 6 0.0000 0.0000 0.0000 3.0667 0.0000 35.4909
#
#
#
# Elastic Compliance Matrix: (Units=1/GPa)
#
#
# Indices 1 2 3 4 5 6 
#
# 1 0.007472 -0.001804 -0.003026 0.000000 -0.001974 0.000000
# 2 -0.001804 0.011740 -0.001750 0.000000 0.000404 0.000000
# 3 -0.003026 -0.001750 0.019246 0.000000 0.004685 0.000000
# 4 0.000000 0.000000 0.000000 0.022453 0.000000 -0.001940
# 5 -0.001974 0.000404 0.004685 0.000000 0.027321 0.000000
# 6 0.000000 0.000000 0.000000 -0.001940 0.000000 0.028344
#
#
# Mechanical properties :
#
#
# Convention : Reuss Voigt Hill
#
# Bulk Modulus (GPa) = 39.53190 47.95339 43.74264
# Shear Modulus (GPa) = 36.18741 39.62546 37.90644
#
# Velocity S-wave (km/s) = 4.16345 4.35674 4.26119
# Velocity P-wave (km/s) = 6.48450 6.94828 6.72039
#
# Compressibility (1/GPa) = 0.02529603
#
# Stress axis : x y z
#
# Youngs Moduli (GPa) = 133.83292 85.17724 51.96016
#
# Poissons Ratio (x) = 0.15369 0.15725
# Poissons Ratio (y) = 0.24148 0.09094
# Poissons Ratio (z) = 0.40502 0.14908
#
# Static dielectric constant tensor:
#      x y z
#    x 1.715120 0.000000 0.004490 
#    y 0.000000 1.947340 0.000000 
#    z 0.004490 0.000000 1.749650 
# 
# From -- ./inp_files/56968.got.cif
#   From: 2010.05.17/outbox.cif.g08.bks.cpg/sg15_29_cif.got.tgz:56968.got - 2010.06.03 18:47:42.
