data_PCOD9307892
_publ_section_title
;
Structure prediction by ZEFSAII (Michael W. Deem and Ramdas Pophale) SiO2 
 PCOD9307892
Probable space group: C 2/C
;
_chemical_formula_sum "Si O2"
_cell_formula_units_Z 28
_cell_length_a 14.572507
_cell_length_b 17.878753
_cell_length_c 4.814794
_cell_angle_alpha 90.000000
_cell_angle_beta 121.219868
_cell_angle_gamma 90.000000
_cell_volume 1072.776046
_symmetry_space_group_name_H-M "C 2/C"
_symmetry_group_IT_number 15
_symmetry_cell_setting 'monoclinic'
loop_
_space_group_symop_operation_xyz
x,y,z
-x,y,1/2-z
-x,-y,-z
x,-y,1/2+z
1/2+x,1/2+y,z
1/2-x,1/2+y,1/2-z
1/2-x,1/2-y,-z
1/2+x,1/2-y,1/2+z
loop_
_atom_site_type_symbol
_atom_site_label
_atom_site_fract_x
_atom_site_fract_y
_atom_site_fract_z
Si Si1 0.135226 0.716111 0.269424
Si Si2 0.658332 0.545963 0.337561
Si Si3 0.500000 0.348194 0.250000
Si Si4 0.893290 0.609872 0.751870
O O1 0.250000 0.750000 0.500000
O O2 0.109110 0.645593 0.438761
O O3 0.062086 0.788499 0.161783
O O4 0.128461 0.683870 0.955196
O O5 0.633727 0.528579 0.618272
O O6 0.786359 0.561100 0.533625
O O7 0.585179 0.607025 0.073442
O O8 0.000000 0.577834 0.750000
#
# Coordination Sequence:
#
# PCOD9307892 Si02
#       4
#     8   8   4   8
#     4  12  25  43  74 112 143 181 230 312 372 418
#     4  12  29  48  70 103 148 199 242 284 347 440
#     4  12  26  46  80 104 148 180 244 300 372 416
#     4  12  25  46  73 108 143 185 244 297 366 420
#
# _framework density 26.10051
#
# number of rings (size 3 to 8) (size 9 to 14) (size 15 to 20)
#    0.000    0.000    5.714    3.429    0.000    3.429 
#    0.000    0.000    0.000    0.000    0.000    0.000 
#    0.000    0.000    0.000    0.000    0.000    0.000 
#
# Total GULP energy -78240.354026 kJ/mol
# GULP energy per Si atom -5588.596716 kJ/mol
# Density = 2.604110 g / cm^3
# Si number density = 26.100510 Si / 1000 Ang^3
#
#
#
# Elastic Constant Matrix: (Units=GPa)
#
#
# Indices 1 2 3 4 5 6 
#
# 1 71.4836 -5.1283 32.9556 0.0000 -7.3813 0.0000
# 2 -5.1283 59.7405 22.8733 0.0000 -9.2187 0.0000
# 3 32.9556 22.8733 94.5379 0.0000 6.4309 0.0000
# 4 0.0000 0.0000 0.0000 -8.7714 0.0000 47.3439
# 5 -7.3813 -9.2187 6.4309 0.0000 29.5583 0.0000
# 6 0.0000 0.0000 0.0000 47.3439 0.0000 1.4470
#
#
#
# Elastic Compliance Matrix: (Units=1/GPa)
#
#
# Indices 1 2 3 4 5 6 
#
# 1 0.019498 0.006469 -0.008963 0.000000 0.008837 0.000000
# 2 0.006469 0.022059 -0.008293 0.000000 0.010300 0.000000
# 3 -0.008963 -0.008293 0.016278 0.000000 -0.008366 0.000000
# 4 0.000000 0.000000 0.000000 -0.000642 0.000000 0.021003
# 5 0.008837 0.010300 -0.008366 0.000000 0.041071 0.000000
# 6 0.000000 0.000000 0.000000 0.021003 0.000000 0.003891
#
#
# Mechanical properties :
#
#
# Convention : Reuss Voigt Hill
#
# Bulk Modulus (GPa) = 27.57780 36.35146 31.96463
# Shear Modulus (GPa) = 36.81450 16.11753 26.46602
#
# Velocity S-wave (km/s) = 3.75972 2.48769 3.18780
# Velocity P-wave (km/s) = 5.42552 4.71266 5.08161
#
# Compressibility (1/GPa) = 0.03626105
#
# Stress axis : x y z
#
# Youngs Moduli (GPa) = 51.28699 45.33305 61.43282
#
# Poissons Ratio (x) = -0.29327 0.55064
# Poissons Ratio (y) = -0.33179 0.50946
# Poissons Ratio (z) = 0.45970 0.37594
#
# Static dielectric constant tensor:
#      x y z
#    x 1.356080 0.000000 -0.024090 
#    y 0.000000 2.034280 0.000000 
#    z -0.024090 0.000000 1.950800 
# 
# From -- ./inp_files/6372.got.cif
#   From: 2010.05.17/outbox.cif.g08.bks.cpg/sg15_4_cif.got.tgz:6372.got - 2010.06.03 18:47:42.
