data_PCOD9307860
_publ_section_title
;
Structure prediction by ZEFSAII (Michael W. Deem and Ramdas Pophale) SiO2 
 PCOD9307860
Probable space group: C 2/C
;
_chemical_formula_sum "Si O2"
_cell_formula_units_Z 36
_cell_length_a 5.298757
_cell_length_b 27.890887
_cell_length_c 11.040156
_cell_angle_alpha 90.000000
_cell_angle_beta 117.924507
_cell_angle_gamma 90.000000
_cell_volume 1441.618151
_symmetry_space_group_name_H-M "C 2/C"
_symmetry_group_IT_number 15
_symmetry_cell_setting 'monoclinic'
loop_
_space_group_symop_operation_xyz
x,y,z
-x,y,1/2-z
-x,-y,-z
x,-y,1/2+z
1/2+x,1/2+y,z
1/2-x,1/2+y,1/2-z
1/2-x,1/2-y,-z
1/2+x,1/2-y,1/2+z
loop_
_atom_site_type_symbol
_atom_site_label
_atom_site_fract_x
_atom_site_fract_y
_atom_site_fract_z
Si Si1 0.500000 0.675932 0.750000
Si Si2 0.000000 0.556376 0.750000
Si Si3 0.883142 0.909260 0.550631
Si Si4 0.000000 0.005001 0.250000
Si Si5 0.379933 0.146370 0.044605
Si Si6 0.208040 0.260645 0.631538
O O1 0.275316 0.646681 0.621202
O O2 0.650666 0.711475 0.688735
O O3 0.788150 0.584789 0.613637
O O4 0.783998 0.525456 0.785595
O O5 0.672324 0.882002 0.593970
O O6 0.952268 0.960582 0.623765
O O7 0.165852 0.879017 0.587449
O O8 0.454566 0.201315 0.091883
O O9 0.500000 0.281476 0.750000
O O10 0.250000 0.250000 0.500000
#
# Coordination Sequence:
#
# PCOD9307860 Si02
#       6
#     4   4   8   4   8   8
#     4  12  26  47  73 102 150 204 262 296 369 445
#     4  12  24  50  79 102 145 196 235 290 369 478
#     4  12  27  47  73 112 145 188 242 302 381 432
#     4  12  26  47  76 112 145 184 241 300 372 457
#     4  12  27  46  73 107 151 192 246 314 364 432
#     4  12  27  48  73 106 146 204 261 308 370 437
#
# _framework density 24.971937
#
# number of rings (size 3 to 8) (size 9 to 14) (size 15 to 20)
#    0.000    0.000    2.222    7.333    4.667    0.000 
#    0.000    0.000    0.000    0.000    0.000    0.000 
#    0.000    0.000    0.000    0.000    0.000    0.000 
#
# Total GULP energy -101114.459928 kJ/mol
# GULP energy per Si atom -5617.469996 kJ/mol
# Density = 2.491510 g / cm^3
# Si number density = 24.971937 Si / 1000 Ang^3
#
#
#
# Elastic Constant Matrix: (Units=GPa)
#
#
# Indices 1 2 3 4 5 6 
#
# 1 215.3505 72.5874 35.5805 0.0000 -0.4273 0.0000
# 2 72.5874 79.6263 8.4708 0.0000 -2.2718 0.0000
# 3 35.5805 8.4708 126.9194 0.0000 -15.9021 0.0000
# 4 0.0000 0.0000 0.0000 44.6561 0.0000 -1.0153
# 5 -0.4273 -2.2718 -15.9021 0.0000 34.1860 0.0000
# 6 0.0000 0.0000 0.0000 -1.0153 0.0000 50.6963
#
#
#
# Elastic Compliance Matrix: (Units=1/GPa)
#
#
# Indices 1 2 3 4 5 6 
#
# 1 0.007032 -0.006262 -0.001693 0.000000 -0.001116 0.000000
# 2 -0.006262 0.018232 0.000723 0.000000 0.001470 0.000000
# 3 -0.001693 0.000723 0.008823 0.000000 0.004131 0.000000
# 4 0.000000 0.000000 0.000000 0.022404 0.000000 0.000449
# 5 -0.001116 0.001470 0.004131 0.000000 0.031257 0.000000
# 6 0.000000 0.000000 0.000000 0.000449 0.000000 0.019734
#
#
# Mechanical properties :
#
#
# Convention : Reuss Voigt Hill
#
# Bulk Modulus (GPa) = 50.96257 72.79707 61.87982
# Shear Modulus (GPa) = 38.91434 46.25816 42.58625
#
# Velocity S-wave (km/s) = 3.95184 4.30863 4.13409
# Velocity P-wave (km/s) = 6.42456 7.34624 6.90080
#
# Compressibility (1/GPa) = 0.01962224
#
# Stress axis : x y z
#
# Youngs Moduli (GPa) = 142.21081 54.84834 113.33975
#
# Poissons Ratio (x) = 0.34346 0.19190
# Poissons Ratio (y) = 0.89051 -0.08192
# Poissons Ratio (z) = 0.24079 -0.03964
#
# Static dielectric constant tensor:
#      x y z
#    x 2.023100 0.000000 0.018750 
#    y 0.000000 1.937430 0.000000 
#    z 0.018750 0.000000 1.978960 
# 
# From -- ./inp_files/73739.got.cif
#   From: 2010.05.17/outbox.cif.g08.bks.cpg/sg15_37_cif.got.tgz:73739.got - 2010.06.03 18:47:42.
