data_PCOD9307522
_publ_section_title
;
Structure prediction by ZEFSAII (Michael W. Deem and Ramdas Pophale) SiO2 
 PCOD9307522
Probable space group: C 2/C
;
_chemical_formula_sum "Si O2"
_cell_formula_units_Z 52
_cell_length_a 28.176211
_cell_length_b 5.391562
_cell_length_c 16.637521
_cell_angle_alpha 90.000000
_cell_angle_beta 112.828866
_cell_angle_gamma 90.000000
_cell_volume 2329.486656
_symmetry_space_group_name_H-M "C 2/C"
_symmetry_group_IT_number 15
_symmetry_cell_setting 'monoclinic'
loop_
_space_group_symop_operation_xyz
x,y,z
-x,y,1/2-z
-x,-y,-z
x,-y,1/2+z
1/2+x,1/2+y,z
1/2-x,1/2+y,1/2-z
1/2-x,1/2-y,-z
1/2+x,1/2-y,1/2+z
loop_
_atom_site_type_symbol
_atom_site_label
_atom_site_fract_x
_atom_site_fract_y
_atom_site_fract_z
Si Si1 0.500000 0.732129 0.250000
Si Si2 0.570485 0.658467 0.833738
Si Si3 0.718629 0.049220 0.254781
Si Si4 0.024339 0.611986 0.154568
Si Si5 0.111462 0.454223 0.586602
Si Si6 0.749101 0.498301 0.553070
Si Si7 0.134115 0.038187 0.015268
O O1 0.446743 0.586227 0.223125
O O2 0.495315 0.865341 0.161269
O O3 0.522730 0.696242 0.865616
O O4 0.561868 0.854846 0.757544
O O5 0.621393 0.624448 0.916337
O O6 0.750875 0.303920 0.258226
O O7 0.663202 0.071834 0.174681
O O8 0.711465 0.011399 0.346377
O O9 0.059383 0.596806 0.101375
O O10 0.113054 0.735080 0.554829
O O11 0.113424 0.235077 0.521900
O O12 0.750000 0.750000 0.500000
O O13 0.694786 0.486758 0.563229
O O14 0.750000 0.250000 0.500000
#
# Coordination Sequence:
#
# PCOD9307522 Si02
#       7
#     4   8   8   8   8   8   8
#     4   8  18  42  64  88 132 168 226 264 330 380
#     4   9  22  42  65  93 138 168 225 275 324 390
#     4  12  23  48  68  94 140 177 211 279 340 402
#     4   9  22  41  66  97 124 184 219 267 331 402
#     4  12  26  43  68  98 134 175 223 262 344 400
#     4  12  26  45  70 101 131 174 228 276 334 396
#     4  12  27  44  65 101 136 170 218 285 328 389
#
# _framework density 22.322517000000001
#
# number of rings (size 3 to 8) (size 9 to 14) (size 15 to 20)
#    0.000    1.538    3.077    1.846   10.769    2.462 
#    0.000    0.000    0.000    0.000    0.000    0.000 
#    0.000    0.000    0.000    0.000    0.000    0.000 
#
# Total GULP energy -144836.160192 kJ/mol
# GULP energy per Si atom -5570.621546 kJ/mol
# Density = 2.227171 g / cm^3
# Si number density = 22.322517 Si / 1000 Ang^3
#
#
#
# Elastic Constant Matrix: (Units=GPa)
#
#
# Indices 1 2 3 4 5 6 
#
# 1 27.3059 4.3109 -15.7985 0.0000 -9.3011 0.0000
# 2 4.3109 127.2572 12.7557 0.0000 -9.6251 0.0003
# 3 -15.7985 12.7557 84.9562 0.0000 13.3566 0.0000
# 4 0.0000 0.0000 0.0000 21.5857 0.0000 -8.6188
# 5 -9.3011 -9.6251 13.3566 0.0000 36.4657 0.0000
# 6 0.0000 0.0003 0.0000 -8.6188 0.0000 3.8982
#
#
#
# Elastic Compliance Matrix: (Units=1/GPa)
#
#
# Indices 1 2 3 4 5 6 
#
# 1 0.043748 -0.001577 0.007092 0.000001 0.008145 0.000002
# 2 -0.001577 0.008294 -0.001931 -0.000002 0.002494 -0.000005
# 3 0.007092 -0.001931 0.013980 0.000001 -0.003821 0.000001
# 4 0.000001 -0.000002 0.000001 0.395253 0.000000 0.873886
# 5 0.008145 0.002494 -0.003821 0.000000 0.031558 -0.000001
# 6 0.000002 -0.000005 0.000001 0.873886 -0.000001 2.188649
#
#
# Mechanical properties :
#
#
# Convention : Reuss Voigt Hill
#
# Bulk Modulus (GPa) = 13.66287 26.89505 20.27896
# Shear Modulus (GPa) = 1.85274 28.27336 15.06305
#
# Velocity S-wave (km/s) = 0.91202 3.56277 2.60049
# Velocity P-wave (km/s) = 2.69128 5.38507 4.25688
#
# Compressibility (1/GPa) = 0.07319104
#
# Stress axis : x y z
#
# Youngs Moduli (GPa) = 22.85793 120.57395 71.52979
#
# Poissons Ratio (x) = 0.19012 -0.50727
# Poissons Ratio (y) = 0.03604 0.13809
# Poissons Ratio (z) = -0.16210 0.23278
#
# Static dielectric constant tensor:
#      x y z
#    x 1.819760 0.000000 0.011650 
#    y 0.000000 1.948740 0.000000 
#    z 0.011650 0.000000 1.866460 
# 
# From -- ./inp_files/180169.got.cif
#   From: 2010.05.17/outbox.cif.g08.bks.cpg/sg15_91_cif.got.tgz:180169.got - 2010.06.03 18:47:42.
