data_PCOD9307266
_publ_section_title
;
Structure prediction by ZEFSAII (Michael W. Deem and Ramdas Pophale) SiO2 
 PCOD9307266
Probable space group: C 2/C
;
_chemical_formula_sum "Si O2"
_cell_formula_units_Z 44
_cell_length_a 15.630408
_cell_length_b 15.675132
_cell_length_c 8.571107
_cell_angle_alpha 90.000000
_cell_angle_beta 78.488836
_cell_angle_gamma 90.000000
_cell_volume 2057.756204
_symmetry_space_group_name_H-M "C 2/C"
_symmetry_group_IT_number 15
_symmetry_cell_setting 'monoclinic'
loop_
_space_group_symop_operation_xyz
x,y,z
-x,y,1/2-z
-x,-y,-z
x,-y,1/2+z
1/2+x,1/2+y,z
1/2-x,1/2+y,1/2-z
1/2-x,1/2-y,-z
1/2+x,1/2-y,1/2+z
loop_
_atom_site_type_symbol
_atom_site_label
_atom_site_fract_x
_atom_site_fract_y
_atom_site_fract_z
Si Si1 0.711977 0.914383 0.669869
Si Si2 0.329283 0.800511 0.552897
Si Si3 0.451687 0.648462 0.436824
Si Si4 0.000000 0.906560 0.250000
Si Si5 0.328819 0.496925 0.382174
Si Si6 0.433380 0.037965 0.897234
O O1 0.695170 0.823694 0.758962
O O2 0.780373 0.926276 0.504637
O O3 0.758232 0.970771 0.785756
O O4 0.621946 0.959228 0.652771
O O5 0.250000 0.750000 0.500000
O O6 0.409619 0.738405 0.494529
O O7 0.362815 0.891052 0.472370
O O8 0.500000 0.648335 0.250000
O O9 0.509467 0.631302 0.570935
O O10 0.372671 0.579059 0.450857
O O11 0.088140 0.959089 0.234748
O O12 0.500000 0.078340 0.750000
O O13 0.500000 0.000000 0.000000
#
# Coordination Sequence:
#
# PCOD9307266 Si02
#       6
#     8   8   8   4   8   8
#     4  12  23  43  75 103 143 194 252 304 375 459
#     4  12  26  45  70 105 152 191 242 319 391 438
#     4  12  25  45  70 107 148 192 238 311 382 445
#     4  12  26  42  76 108 146 194 248 312 372 472
#     4  12  22  44  72 107 143 191 255 303 375 460
#     4  12  24  46  75 103 137 194 258 308 365 454
#
# _framework density 21.382514
#
# number of rings (size 3 to 8) (size 9 to 14) (size 15 to 20)
#    0.000    0.000    8.182    2.182    0.000    1.455 
#    0.000    2.727    0.000    0.000    0.000    0.000 
#    0.000    0.000    0.000    0.000    0.000    0.000 
#
# Total GULP energy -122619.569020 kJ/mol
# GULP energy per Si atom -5573.616774 kJ/mol
# Density = 2.133385 g / cm^3
# Si number density = 21.382514 Si / 1000 Ang^3
#
#
#
# Elastic Constant Matrix: (Units=GPa)
#
#
# Indices 1 2 3 4 5 6 
#
# 1 135.6254 37.3756 53.5719 0.0000 11.0673 0.0000
# 2 37.3756 63.0274 31.3074 0.0000 9.5433 0.0000
# 3 53.5719 31.3074 113.1516 0.0000 9.1826 0.0000
# 4 0.0000 0.0000 0.0000 90.5282 0.0000 -10.0791
# 5 11.0673 9.5433 9.1826 0.0000 58.4917 0.0000
# 6 0.0000 0.0000 0.0000 -10.0791 0.0000 35.3966
#
#
#
# Elastic Compliance Matrix: (Units=1/GPa)
#
#
# Indices 1 2 3 4 5 6 
#
# 1 0.009935 -0.004036 -0.003533 0.000000 -0.000667 0.000000
# 2 -0.004036 0.020325 -0.003551 0.000000 -0.001995 0.000000
# 3 -0.003533 -0.003551 0.011539 0.000000 -0.000564 0.000000
# 4 0.000000 0.000000 0.000000 0.011408 0.000000 0.003248
# 5 -0.000667 -0.001995 -0.000564 0.000000 0.017637 0.000000
# 6 0.000000 0.000000 0.000000 0.003248 0.000000 0.029176
#
#
# Mechanical properties :
#
#
# Convention : Reuss Voigt Hill
#
# Bulk Modulus (GPa) = 51.12619 61.81270 56.46944
# Shear Modulus (GPa) = 38.82578 49.51990 44.17284
#
# Velocity S-wave (km/s) = 4.26581 4.81761 4.55008
# Velocity P-wave (km/s) = 6.94443 7.74058 7.35329
#
# Compressibility (1/GPa) = 0.01955945
#
# Stress axis : x y z
#
# Youngs Moduli (GPa) = 100.64959 49.19962 86.66423
#
# Poissons Ratio (x) = 0.19856 0.30620
# Poissons Ratio (y) = 0.40620 0.30775
# Poissons Ratio (z) = 0.35562 0.17471
#
# Static dielectric constant tensor:
#      x y z
#    x 1.835860 0.000000 -0.058230 
#    y 0.000000 1.867380 0.000000 
#    z -0.058230 0.000000 1.951330 
# 
# From -- ./inp_files/39221.got.cif
#   From: 2010.05.17/outbox.cif.g08.bks.cpg/sg15_20_cif.got.tgz:39221.got - 2010.06.03 18:47:42.
