data_PCOD9307655
_publ_section_title
;
Structure prediction by ZEFSAII (Michael W. Deem and Ramdas Pophale) SiO2 
 PCOD9307655
Probable space group: C 2/C
;
_chemical_formula_sum "Si O2"
_cell_formula_units_Z 44
_cell_length_a 20.677716
_cell_length_b 6.888843
_cell_length_c 14.110639
_cell_angle_alpha 90.000000
_cell_angle_beta 101.131877
_cell_angle_gamma 90.000000
_cell_volume 1972.180281
_symmetry_space_group_name_H-M "C 2/C"
_symmetry_group_IT_number 15
_symmetry_cell_setting 'monoclinic'
loop_
_space_group_symop_operation_xyz
x,y,z
-x,y,1/2-z
-x,-y,-z
x,-y,1/2+z
1/2+x,1/2+y,z
1/2-x,1/2+y,1/2-z
1/2-x,1/2-y,-z
1/2+x,1/2-y,1/2+z
loop_
_atom_site_type_symbol
_atom_site_label
_atom_site_fract_x
_atom_site_fract_y
_atom_site_fract_z
Si Si1 0.197472 0.132656 0.044154
Si Si2 0.955345 0.661491 0.434633
Si Si3 0.288142 0.198859 0.634656
Si Si4 0.908311 0.923121 0.585813
Si Si5 0.316166 0.014833 0.831608
Si Si6 0.500000 0.362457 0.250000
O O1 0.186173 0.264341 0.131866
O O2 0.230969 0.925017 0.068722
O O3 0.250000 0.250000 0.000000
O O4 0.130144 0.105545 0.969167
O O5 0.949977 0.831112 0.511989
O O6 0.881657 0.582445 0.391822
O O7 0.979989 0.737353 0.338004
O O8 0.000000 0.500000 0.500000
O O9 0.352631 0.267718 0.598512
O O10 0.248384 0.389281 0.659410
O O11 0.314528 0.045377 0.719441
O O12 0.944764 0.995236 0.690241
#
# Coordination Sequence:
#
# PCOD9307655 Si02
#       6
#     8   8   8   8   8   4
#     4  12  24  44  75 112 154 189 239 318 387 451
#     4  12  30  53  76 109 155 205 262 312 377 455
#     4  12  26  45  75 119 150 195 248 315 388 453
#     4  12  28  50  77 110 154 197 261 317 382 454
#     4  12  26  45  77 111 154 197 252 311 386 453
#     4  12  32  50  80 106 150 212 260 314 376 450
#
# _framework density 22.310333
#
# number of rings (size 3 to 8) (size 9 to 14) (size 15 to 20)
#    0.000    0.000    5.455    3.273   12.727    0.000 
#    0.000    0.000    0.000    0.000    0.000    0.000 
#    0.000    0.000    0.000    0.000    0.000    0.000 
#
# Total GULP energy -122928.538480 kJ/mol
# GULP energy per Si atom -5587.660840 kJ/mol
# Density = 2.225955 g / cm^3
# Si number density = 22.310333 Si / 1000 Ang^3
#
#
#
# Elastic Constant Matrix: (Units=GPa)
#
#
# Indices 1 2 3 4 5 6 
#
# 1 90.4331 42.1636 54.1660 0.0000 4.2703 0.0000
# 2 42.1636 93.7616 47.7644 0.0000 -0.3996 0.0000
# 3 54.1660 47.7644 146.2342 0.0000 11.8722 0.0000
# 4 0.0000 0.0000 0.0000 55.2144 0.0000 0.8379
# 5 4.2703 -0.3996 11.8722 0.0000 50.8776 0.0000
# 6 0.0000 0.0000 0.0000 0.8379 0.0000 51.5897
#
#
#
# Elastic Compliance Matrix: (Units=1/GPa)
#
#
# Indices 1 2 3 4 5 6 
#
# 1 0.015954 -0.005017 -0.004239 0.000000 -0.000389 0.000000
# 2 -0.005017 0.014432 -0.002955 0.000000 0.001224 0.000000
# 3 -0.004239 -0.002955 0.009527 0.000000 -0.001891 0.000000
# 4 0.000000 0.000000 0.000000 0.018116 0.000000 -0.000294
# 5 -0.000389 0.001224 -0.001891 0.000000 0.020138 0.000000
# 6 0.000000 0.000000 0.000000 -0.000294 0.000000 0.019388
#
#
# Mechanical properties :
#
#
# Convention : Reuss Voigt Hill
#
# Bulk Modulus (GPa) = 64.55149 68.73520 66.64334
# Shear Modulus (GPa) = 39.32602 43.95869 41.64235
#
# Velocity S-wave (km/s) = 4.20299 4.44365 4.32499
# Velocity P-wave (km/s) = 7.24912 7.56331 7.40788
#
# Compressibility (1/GPa) = 0.01549151
#
# Stress axis : x y z
#
# Youngs Moduli (GPa) = 62.67838 69.29127 104.96068
#
# Poissons Ratio (x) = 0.34760 0.44498
# Poissons Ratio (y) = 0.31443 0.31017
# Poissons Ratio (z) = 0.26572 0.20476
#
# Static dielectric constant tensor:
#      x y z
#    x 1.807770 0.000000 -0.031720 
#    y 0.000000 1.884780 0.000000 
#    z -0.031720 0.000000 1.945000 
# 
# From -- ./inp_files/170803.got.cif
#   From: 2010.05.17/outbox.cif.g08.bks.cpg/sg15_86_cif.got.tgz:170803.got - 2010.06.03 18:47:42.
