data_PCOD9307928
_publ_section_title
;
Structure prediction by ZEFSAII (Michael W. Deem and Ramdas Pophale) SiO2 
 PCOD9307928
Probable space group: C 2/C
;
_chemical_formula_sum "Si O2"
_cell_formula_units_Z 48
_cell_length_a 42.557467
_cell_length_b 7.423167
_cell_length_c 27.708854
_cell_angle_alpha 90.000000
_cell_angle_beta 167.683279
_cell_angle_gamma 90.000000
_cell_volume 1867.265228
_symmetry_space_group_name_H-M "C 2/C"
_symmetry_group_IT_number 15
_symmetry_cell_setting 'monoclinic'
loop_
_space_group_symop_operation_xyz
x,y,z
-x,y,1/2-z
-x,-y,-z
x,-y,1/2+z
1/2+x,1/2+y,z
1/2-x,1/2+y,1/2-z
1/2-x,1/2-y,-z
1/2+x,1/2-y,1/2+z
loop_
_atom_site_type_symbol
_atom_site_label
_atom_site_fract_x
_atom_site_fract_y
_atom_site_fract_z
Si Si1 0.120198 0.877815 0.788778
Si Si2 0.618268 0.108864 0.082286
Si Si3 0.871494 0.049874 0.095694
Si Si4 0.300064 0.932603 0.386706
Si Si5 0.795957 0.812747 0.158913
Si Si6 0.131277 0.734912 0.670680
O O1 0.011509 0.743537 0.599276
O O2 0.048272 0.921273 0.732693
O O3 0.177586 0.044723 0.843893
O O4 0.250000 0.750000 0.000000
O O5 0.591317 0.027336 0.988298
O O6 0.754908 0.245677 0.293390
O O7 0.539940 0.273284 0.074615
O O8 0.633605 0.944147 0.141678
O O9 0.000000 0.020596 0.250000
O O10 0.770900 0.877145 0.956179
O O11 0.757868 0.196167 0.901230
O O12 0.178201 0.090574 0.209972
O O13 0.314115 0.883198 0.464216
#
# Coordination Sequence:
#
# PCOD9307928 Si02
#       6
#     8   8   8   8   8   8
#     4  12  28  49  74 118 160 204 258 326 394 460
#     4  12  26  47  79 111 154 201 264 318 383 469
#     4  12  28  48  76 115 162 200 257 330 399 455
#     4  12  25  45  79 114 145 197 269 315 374 452
#     4  12  27  48  81 110 157 214 266 310 391 481
#     4  12  25  49  82 111 154 206 263 322 379 476
#
# _framework density 25.706042
#
# number of rings (size 3 to 8) (size 9 to 14) (size 15 to 20)
#    0.000    0.000    5.000    4.500    2.333    2.667 
#    0.000    0.833    0.000    0.000    0.000    0.000 
#    0.000    0.000    0.000    0.000    0.000    0.000 
#
# Total GULP energy -134173.948384 kJ/mol
# GULP energy per Si atom -5590.581183 kJ/mol
# Density = 2.564753 g / cm^3
# Si number density = 25.706042 Si / 1000 Ang^3
#
#
#
# Elastic Constant Matrix: (Units=GPa)
#
#
# Indices 1 2 3 4 5 6 
#
# 1 141.3071 40.7394 13.7535 0.0001 -1.9257 -0.0001
# 2 40.7394 148.5345 18.9394 0.0003 -5.0165 -0.0004
# 3 13.7535 18.9394 67.5125 0.0000 2.9327 -0.0002
# 4 0.0001 0.0003 0.0000 36.5542 -0.0001 13.1811
# 5 -1.9257 -5.0165 2.9327 -0.0001 27.6563 0.0000
# 6 -0.0001 -0.0004 -0.0002 13.1811 0.0000 38.8148
#
#
#
# Elastic Compliance Matrix: (Units=1/GPa)
#
#
# Indices 1 2 3 4 5 6 
#
# 1 0.007754 -0.001985 -0.001035 0.000000 0.000290 0.000000
# 2 -0.001985 0.007551 -0.001776 0.000000 0.001420 0.000000
# 3 -0.001035 -0.001776 0.015610 0.000000 -0.002049 0.000000
# 4 0.000000 0.000000 0.000000 0.031174 0.000000 -0.010586
# 5 0.000290 0.001420 -0.002049 0.000000 0.036653 0.000000
# 6 0.000000 0.000000 0.000000 -0.010586 0.000000 0.029358
#
#
# Mechanical properties :
#
#
# Convention : Reuss Voigt Hill
#
# Bulk Modulus (GPa) = 46.89695 56.02429 51.46062
# Shear Modulus (GPa) = 34.53035 39.53318 37.03177
#
# Velocity S-wave (km/s) = 3.66905 3.92585 3.79962
# Velocity P-wave (km/s) = 6.01934 6.51086 6.26992
#
# Compressibility (1/GPa) = 0.02132335
#
# Stress axis : x y z
#
# Youngs Moduli (GPa) = 128.96993 132.42920 64.06086
#
# Poissons Ratio (x) = 0.26285 0.06632
# Poissons Ratio (y) = 0.25599 0.11375
# Poissons Ratio (z) = 0.13353 0.23515
#
# Static dielectric constant tensor:
#      x y z
#    x 2.248530 0.000000 -0.059850 
#    y 0.000000 2.002190 0.000000 
#    z -0.059850 0.000000 2.155120 
# 
# From -- ./inp_files/213120.got.cif
#   From: 2010.05.17/outbox.cif.g08.bks.cpg/sg15_107_cif.got.tgz:213120.got - 2010.06.03 18:47:42.
