data_PCOD9307153
_publ_section_title
;
Structure prediction by ZEFSAII (Michael W. Deem and Ramdas Pophale) SiO2 
 PCOD9307153
Probable space group: C 2/C
;
_chemical_formula_sum "Si O2"
_cell_formula_units_Z 60
_cell_length_a 12.059569
_cell_length_b 19.840138
_cell_length_c 19.311236
_cell_angle_alpha 90.000000
_cell_angle_beta 139.358683
_cell_angle_gamma 90.000000
_cell_volume 3009.414499
_symmetry_space_group_name_H-M "C 2/C"
_symmetry_group_IT_number 15
_symmetry_cell_setting 'monoclinic'
loop_
_space_group_symop_operation_xyz
x,y,z
-x,y,1/2-z
-x,-y,-z
x,-y,1/2+z
1/2+x,1/2+y,z
1/2-x,1/2+y,1/2-z
1/2-x,1/2-y,-z
1/2+x,1/2-y,1/2+z
loop_
_atom_site_type_symbol
_atom_site_label
_atom_site_fract_x
_atom_site_fract_y
_atom_site_fract_z
Si Si1 0.730451 0.423528 0.409711
Si Si2 0.120431 0.190558 0.459542
Si Si3 0.810736 0.677956 0.686102
Si Si4 0.500000 0.684435 0.750000
Si Si5 0.264985 0.775969 0.731925
Si Si6 0.236666 0.075343 0.424101
Si Si7 0.399427 0.912017 0.850147
Si Si8 0.890799 0.436242 0.333812
O O1 0.592785 0.364971 0.348662
O O2 0.666819 0.499089 0.396028
O O3 0.788534 0.425271 0.356714
O O4 0.901649 0.409093 0.533929
O O5 0.250000 0.250000 0.500000
O O6 0.194784 0.161086 0.565777
O O7 0.120061 0.133227 0.400470
O O8 0.933216 0.219435 0.380879
O O9 0.729929 0.738773 0.691357
O O10 0.834732 0.615375 0.748981
O O11 0.000000 0.697531 0.750000
O O12 0.364498 0.731028 0.724168
O O13 0.344020 0.849823 0.777488
O O14 0.292886 0.088927 0.371766
O O15 0.412561 0.076057 0.551540
O O16 0.371053 0.985713 0.804195
#
# Coordination Sequence:
#
# PCOD9307153 Si02
#       8
#     8   8   8   4   8   8   8   8
#     4   9  20  40  66  91 123 171 227 266 301 397
#     4  12  24  39  64 105 136 159 218 274 334 396
#     4  12  22  39  70  95 131 174 203 271 341 386
#     4  12  26  44  62  86 132 178 226 268 316 394
#     4  12  27  43  61  96 131 175 220 268 328 391
#     4   9  18  36  69 100 124 160 215 276 324 379
#     4   9  21  39  67  92 129 170 212 269 326 389
#     4   9  17  40  64  97 125 166 215 259 331 387
#
# _framework density 19.937432999999999
#
# number of rings (size 3 to 8) (size 9 to 14) (size 15 to 20)
#    0.000    1.600    4.000    2.400    3.733    2.667 
#    1.200    0.667    0.000    0.000    0.000    0.000 
#    0.000    0.000    0.000    0.000    0.000    0.000 
#
# Total GULP energy -167717.160888 kJ/mol
# GULP energy per Si atom -5590.572030 kJ/mol
# Density = 1.989205 g / cm^3
# Si number density = 19.937433 Si / 1000 Ang^3
#
#
#
# Elastic Constant Matrix: (Units=GPa)
#
#
# Indices 1 2 3 4 5 6 
#
# 1 55.5054 32.5994 11.9584 0.0000 20.0547 0.0000
# 2 32.5994 121.1738 28.6932 0.0000 15.1275 0.0000
# 3 11.9584 28.6932 54.8038 0.0000 10.4906 -0.0001
# 4 0.0000 0.0000 0.0000 30.6660 0.0000 -1.2374
# 5 20.0547 15.1275 10.4906 0.0000 29.1609 0.0000
# 6 0.0000 0.0000 -0.0001 -1.2374 0.0000 29.0355
#
#
#
# Elastic Compliance Matrix: (Units=1/GPa)
#
#
# Indices 1 2 3 4 5 6 
#
# 1 0.026763 -0.005219 -0.000110 0.000000 -0.015659 0.000000
# 2 -0.005219 0.010752 -0.004414 0.000000 -0.000400 0.000000
# 3 -0.000110 -0.004414 0.021618 0.000000 -0.005412 0.000000
# 4 0.000000 0.000000 0.000000 0.032666 0.000000 0.001392
# 5 -0.015659 -0.000400 -0.005412 0.000000 0.047216 0.000000
# 6 0.000000 0.000000 0.000000 0.001392 0.000000 0.034500
#
#
# Mechanical properties :
#
#
# Convention : Reuss Voigt Hill
#
# Bulk Modulus (GPa) = 25.22270 41.99832 33.61051
# Shear Modulus (GPa) = 24.24655 28.32127 26.28391
#
# Velocity S-wave (km/s) = 3.49109 3.77305 3.63481
# Velocity P-wave (km/s) = 5.37854 6.33182 5.87455
#
# Compressibility (1/GPa) = 0.03964683
#
# Stress axis : x y z
#
# Youngs Moduli (GPa) = 37.36520 93.00706 46.25850
#
# Poissons Ratio (x) = 0.48542 0.00508
# Poissons Ratio (y) = 0.19502 0.20417
# Poissons Ratio (z) = 0.00410 0.41051
#
# Static dielectric constant tensor:
#      x y z
#    x 1.699980 0.000000 0.019120 
#    y 0.000000 1.705320 0.000000 
#    z 0.019120 0.000000 1.701790 
# 
# From -- ./inp_files/239987.got.cif
#   From: 2010.05.17/outbox.cif.g08.bks.cpg/sg15_120_cif.got.tgz:239987.got - 2010.06.03 18:47:42.
