data_PCOD9307406
_publ_section_title
;
Structure prediction by ZEFSAII (Michael W. Deem and Ramdas Pophale) SiO2 
 PCOD9307406
Probable space group: C 2/C
;
_chemical_formula_sum "Si O2"
_cell_formula_units_Z 48
_cell_length_a 14.528156
_cell_length_b 11.956924
_cell_length_c 19.559294
_cell_angle_alpha 90.000000
_cell_angle_beta 141.015366
_cell_angle_gamma 90.000000
_cell_volume 2137.524352
_symmetry_space_group_name_H-M "C 2/C"
_symmetry_group_IT_number 15
_symmetry_cell_setting 'monoclinic'
loop_
_space_group_symop_operation_xyz
x,y,z
-x,y,1/2-z
-x,-y,-z
x,-y,1/2+z
1/2+x,1/2+y,z
1/2-x,1/2+y,1/2-z
1/2-x,1/2-y,-z
1/2+x,1/2-y,1/2+z
loop_
_atom_site_type_symbol
_atom_site_label
_atom_site_fract_x
_atom_site_fract_y
_atom_site_fract_z
Si Si1 0.569864 0.949840 0.893806
Si Si2 0.154134 0.643070 0.732866
Si Si3 0.970123 0.870639 0.476906
Si Si4 0.818071 0.871513 0.528650
Si Si5 0.500000 0.315205 0.750000
Si Si6 0.178675 0.675731 0.586763
Si Si7 0.000000 0.253538 0.750000
O O1 0.546374 0.836935 0.838062
O O2 0.424728 0.024477 0.799739
O O3 0.608929 0.913140 0.993882
O O4 0.701220 0.032072 0.945157
O O5 0.325238 0.647341 0.848770
O O6 0.081275 0.734199 0.742144
O O7 0.137998 0.657179 0.642316
O O8 0.927610 0.847817 0.530564
O O9 0.102950 0.795752 0.527171
O O10 0.000000 0.000000 0.500000
O O11 0.750000 0.750000 0.500000
O O12 0.895585 0.893389 0.645182
O O13 0.353654 0.683961 0.681263
#
# Coordination Sequence:
#
# PCOD9307406 Si02
#       7
#     8   8   8   8   4   8   4
#     4  12  25  46  74 107 147 193 243 302 375 436
#     4  12  24  44  73 105 144 187 237 303 367 435
#     4  12  25  43  71 105 144 190 249 297 366 441
#     4  12  23  43  72 105 143 189 240 303 364 442
#     4  12  23  43  74 104 148 188 241 295 376 440
#     4  12  27  48  71 107 146 195 247 305 365 441
#     4  12  27  51  74  98 148 202 241 295 372 444
#
# _framework density 22.455884999999999
#
# number of rings (size 3 to 8) (size 9 to 14) (size 15 to 20)
#    0.000    0.000    5.000    5.500    0.000    3.333 
#    3.000    0.000    0.000    0.000    0.000    0.000 
#    0.000    0.000    0.000    0.000    0.000    0.000 
#
# Total GULP energy -134199.354922 kJ/mol
# GULP energy per Si atom -5591.639788 kJ/mol
# Density = 2.240477 g / cm^3
# Si number density = 22.455885 Si / 1000 Ang^3
#
#
#
# Elastic Constant Matrix: (Units=GPa)
#
#
# Indices 1 2 3 4 5 6 
#
# 1 83.7326 11.7020 21.5187 0.0000 -4.1203 0.0000
# 2 11.7020 45.5149 -1.6294 0.0000 7.7054 0.0000
# 3 21.5187 -1.6294 110.4393 0.0000 -15.1134 0.0000
# 4 0.0000 0.0000 0.0000 42.6522 0.0000 -1.4194
# 5 -4.1203 7.7054 -15.1134 0.0000 44.9348 0.0000
# 6 0.0000 0.0000 0.0000 -1.4194 0.0000 35.3703
#
#
#
# Elastic Compliance Matrix: (Units=1/GPa)
#
#
# Indices 1 2 3 4 5 6 
#
# 1 0.013136 -0.003634 -0.002477 0.000000 0.000995 0.000000
# 2 -0.003634 0.023638 0.000479 0.000000 -0.004226 0.000000
# 3 -0.002477 0.000479 0.009961 0.000000 0.003041 0.000000
# 4 0.000000 0.000000 0.000000 0.023477 0.000000 0.000942
# 5 0.000995 -0.004226 0.003041 0.000000 0.024093 0.000000
# 6 0.000000 0.000000 0.000000 0.000942 0.000000 0.028310
#
#
# Mechanical properties :
#
#
# Convention : Reuss Voigt Hill
#
# Bulk Modulus (GPa) = 28.19374 33.65217 30.92295
# Shear Modulus (GPa) = 34.31632 38.46448 36.39040
#
# Velocity S-wave (km/s) = 3.91342 4.14320 4.02995
# Velocity P-wave (km/s) = 5.74475 6.15683 5.95436
#
# Compressibility (1/GPa) = 0.03546887
#
# Stress axis : x y z
#
# Youngs Moduli (GPa) = 76.12535 42.30523 100.39556
#
# Poissons Ratio (x) = 0.15375 0.24869
# Poissons Ratio (y) = 0.27667 -0.04805
# Poissons Ratio (z) = 0.18857 -0.02025
#
# Static dielectric constant tensor:
#      x y z
#    x 1.877280 0.000000 0.035420 
#    y 0.000000 1.883640 0.000000 
#    z 0.035420 0.000000 1.919670 
# 
# From -- ./inp_files/244012.got.cif
#   From: 2010.05.17/outbox.cif.g08.bks.cpg/sg15_123_cif.got.tgz:244012.got - 2010.06.03 18:47:42.
