data_PCOD9307195
_publ_section_title
;
Structure prediction by ZEFSAII (Michael W. Deem and Ramdas Pophale) SiO2 
 PCOD9307195
Probable space group: C 2/C
;
_chemical_formula_sum "Si O2"
_cell_formula_units_Z 40
_cell_length_a 8.388397
_cell_length_b 16.708438
_cell_length_c 22.597512
_cell_angle_alpha 90.000000
_cell_angle_beta 146.734800
_cell_angle_gamma 90.000000
_cell_volume 1737.256784
_symmetry_space_group_name_H-M "C 2/C"
_symmetry_group_IT_number 15
_symmetry_cell_setting 'monoclinic'
loop_
_space_group_symop_operation_xyz
x,y,z
-x,y,1/2-z
-x,-y,-z
x,-y,1/2+z
1/2+x,1/2+y,z
1/2-x,1/2+y,1/2-z
1/2-x,1/2-y,-z
1/2+x,1/2-y,1/2+z
loop_
_atom_site_type_symbol
_atom_site_label
_atom_site_fract_x
_atom_site_fract_y
_atom_site_fract_z
Si Si1 0.000000 0.777272 0.750000
Si Si2 0.709652 0.606630 0.140879
Si Si3 0.145116 0.664406 0.444408
Si Si4 0.000000 0.902516 0.250000
Si Si5 0.974690 0.730263 0.872299
Si Si6 0.320974 0.520321 0.578697
O O1 0.706528 0.830497 0.662448
O O2 0.966506 0.724381 0.679699
O O3 0.698895 0.686568 0.176765
O O4 0.000000 0.560418 0.250000
O O5 0.736436 0.638162 0.082779
O O6 0.554498 0.449950 0.923484
O O7 0.250000 0.750000 0.500000
O O8 0.284796 0.600905 0.531268
O O9 0.720083 0.843084 0.164853
O O10 0.004637 0.958476 0.193913
O O11 0.250000 0.750000 0.000000
O O12 0.000000 0.500000 0.500000
#
# Coordination Sequence:
#
# PCOD9307195 Si02
#       6
#     4   8   8   4   8   8
#     4  12  22  41  78 107 148 196 246 324 388 445
#     4  12  25  48  75 106 157 196 249 321 391 450
#     4  12  26  49  76 112 149 203 265 313 385 470
#     4  12  26  51  72 111 154 196 266 322 384 475
#     4  12  24  46  77 109 147 201 261 323 386 467
#     4  12  29  47  76 111 153 205 255 320 398 471
#
# _framework density 23.024805000000001
#
# number of rings (size 3 to 8) (size 9 to 14) (size 15 to 20)
#    0.000    0.000    3.000    7.800    2.800    0.800 
#   10.800    0.000    0.000    0.000    0.000    0.000 
#    0.000    0.000    0.000    0.000    0.000    0.000 
#
# Total GULP energy -111937.684671 kJ/mol
# GULP energy per Si atom -5596.884234 kJ/mol
# Density = 2.297240 g / cm^3
# Si number density = 23.024805 Si / 1000 Ang^3
#
#
#
# Elastic Constant Matrix: (Units=GPa)
#
#
# Indices 1 2 3 4 5 6 
#
# 1 157.3124 59.5885 59.1245 -0.0002 -14.9175 -0.0008
# 2 59.5885 113.3469 20.4184 0.0011 -8.8768 0.0005
# 3 59.1245 20.4184 120.3795 0.0048 -15.0067 0.0010
# 4 -0.0002 0.0011 0.0048 29.7553 0.0018 -2.1111
# 5 -14.9175 -8.8768 -15.0067 0.0018 57.4766 0.0001
# 6 -0.0008 0.0005 0.0010 -2.1111 0.0001 42.6256
#
#
#
# Elastic Compliance Matrix: (Units=1/GPa)
#
#
# Indices 1 2 3 4 5 6 
#
# 1 0.009477 -0.004228 -0.003837 0.000001 0.000805 0.000000
# 2 -0.004228 0.011047 0.000288 -0.000001 0.000684 0.000000
# 3 -0.003837 0.000288 0.010361 -0.000002 0.001754 0.000000
# 4 0.000001 -0.000001 -0.000002 0.033726 -0.000001 0.001670
# 5 0.000805 0.000684 0.001754 -0.000001 0.018171 0.000000
# 6 0.000000 0.000000 0.000000 0.001670 0.000000 0.023543
#
#
# Mechanical properties :
#
#
# Convention : Reuss Voigt Hill
#
# Bulk Modulus (GPa) = 65.22628 74.36686 69.79657
# Shear Modulus (GPa) = 39.37364 42.76531 41.06947
#
# Velocity S-wave (km/s) = 4.13976 4.31438 4.22798
# Velocity P-wave (km/s) = 7.15824 7.56222 7.36300
#
# Compressibility (1/GPa) = 0.01533124
#
# Stress axis : x y z
#
# Youngs Moduli (GPa) = 105.52226 90.52395 96.51194
#
# Poissons Ratio (x) = 0.38272 0.37032
# Poissons Ratio (y) = 0.44613 -0.02780
# Poissons Ratio (z) = 0.40489 -0.02607
#
# Static dielectric constant tensor:
#      x y z
#    x 1.919560 0.000000 0.102390 
#    y 0.000000 1.785310 0.000000 
#    z 0.102390 0.000000 1.912350 
# 
# From -- ./inp_files/232957.got.cif
#   From: 2010.05.17/outbox.cif.g08.bks.cpg/sg15_117_cif.got.tgz:232957.got - 2010.06.03 18:47:42.
