data_PCOD9307386
_publ_section_title
;
Structure prediction by ZEFSAII (Michael W. Deem and Ramdas Pophale) SiO2 
 PCOD9307386
Probable space group: C 2/C
;
_chemical_formula_sum "Si O2"
_cell_formula_units_Z 32
_cell_length_a 8.993073
_cell_length_b 20.287488
_cell_length_c 10.098018
_cell_angle_alpha 90.000000
_cell_angle_beta 45.110177
_cell_angle_gamma 90.000000
_cell_volume 1305.242062
_symmetry_space_group_name_H-M "C 2/C"
_symmetry_group_IT_number 15
_symmetry_cell_setting 'monoclinic'
loop_
_space_group_symop_operation_xyz
x,y,z
-x,y,1/2-z
-x,-y,-z
x,-y,1/2+z
1/2+x,1/2+y,z
1/2-x,1/2+y,1/2-z
1/2-x,1/2-y,-z
1/2+x,1/2-y,1/2+z
loop_
_atom_site_type_symbol
_atom_site_label
_atom_site_fract_x
_atom_site_fract_y
_atom_site_fract_z
Si Si1 0.147201 0.483890 0.784612
Si Si2 0.636875 0.384816 0.294718
Si Si3 0.936045 0.699623 0.431473
Si Si4 0.866090 0.155327 0.201646
O O1 0.295028 0.547884 0.677822
O O2 0.269464 0.417750 0.744988
O O3 0.000000 0.477239 0.750000
O O4 0.000000 0.500000 0.000000
O O5 0.500000 0.400811 0.250000
O O6 0.169861 0.345815 0.391552
O O7 0.509615 0.340537 0.479551
O O8 0.750000 0.750000 0.500000
O O9 0.000000 0.667096 0.250000
O O10 0.176577 0.708217 0.329804
O O11 0.000000 0.159263 0.250000
#
# Coordination Sequence:
#
# PCOD9307386 Si02
#       4
#     8   8   8   8
#     4  12  23  42  72 115 164 205 243 308 400 485
#     4  12  24  44  77 109 155 206 253 314 391 473
#     4  12  27  50  79 108 142 202 273 331 384 462
#     4  12  26  47  75 118 160 200 256 322 398 480
#
# _framework density 24.516525999999999
#
# number of rings (size 3 to 8) (size 9 to 14) (size 15 to 20)
#    0.000    0.000    5.000    6.000    0.000    0.000 
#    0.000    1.250    0.000    0.000    0.000    0.000 
#    0.000    0.000    0.000    0.000    0.000    0.000 
#
# Total GULP energy -89454.203381 kJ/mol
# GULP energy per Si atom -5590.887711 kJ/mol
# Density = 2.446073 g / cm^3
# Si number density = 24.516526 Si / 1000 Ang^3
#
#
#
# Elastic Constant Matrix: (Units=GPa)
#
#
# Indices 1 2 3 4 5 6 
#
# 1 234.9627 65.3701 58.4167 0.0000 -10.4165 0.0000
# 2 65.3701 151.1586 70.5960 0.0000 -19.0925 0.0000
# 3 58.4167 70.5960 193.0807 0.0000 -2.9636 0.0000
# 4 0.0000 0.0000 0.0000 29.2264 0.0000 -12.2485
# 5 -10.4165 -19.0925 -2.9636 0.0000 39.2865 0.0000
# 6 0.0000 0.0000 0.0000 -12.2485 0.0000 44.3260
#
#
#
# Elastic Compliance Matrix: (Units=1/GPa)
#
#
# Indices 1 2 3 4 5 6 
#
# 1 0.004961 -0.001680 -0.000880 0.000000 0.000433 0.000000
# 2 -0.001680 0.009110 -0.002765 0.000000 0.003773 0.000000
# 3 -0.000880 -0.002765 0.006440 0.000000 -0.001091 0.000000
# 4 0.000000 0.000000 0.000000 0.038697 0.000000 0.010693
# 5 0.000433 0.003773 -0.001091 0.000000 0.027320 0.000000
# 6 0.000000 0.000000 0.000000 0.010693 0.000000 0.025515
#
#
# Mechanical properties :
#
#
# Convention : Reuss Voigt Hill
#
# Bulk Modulus (GPa) = 101.40646 107.55196 104.47921
# Shear Modulus (GPa) = 39.68901 48.22238 43.95569
#
# Velocity S-wave (km/s) = 4.02788 4.43982 4.23886
# Velocity P-wave (km/s) = 7.94255 8.38136 8.16490
#
# Compressibility (1/GPa) = 0.00986131
#
# Stress axis : x y z
#
# Youngs Moduli (GPa) = 201.55678 109.77167 155.28951
#
# Poissons Ratio (x) = 0.18440 0.13669
# Poissons Ratio (y) = 0.33859 0.42932
# Poissons Ratio (z) = 0.17742 0.30348
#
# Static dielectric constant tensor:
#      x y z
#    x 1.941520 0.000000 -0.060000 
#    y 0.000000 2.095150 0.000000 
#    z -0.060000 0.000000 1.973380 
# 
# From -- ./inp_files/78899.got.cif
#   From: 2010.05.17/outbox.cif.g08.bks.cpg/sg15_40_cif.got.tgz:78899.got - 2010.06.03 18:47:42.
