data_PCOD9307064
_publ_section_title
;
Structure prediction by ZEFSAII (Michael W. Deem and Ramdas Pophale) SiO2 
 PCOD9307064
Probable space group: C 2/C
;
_chemical_formula_sum "Si O2"
_cell_formula_units_Z 44
_cell_length_a 16.330155
_cell_length_b 11.252076
_cell_length_c 11.841373
_cell_angle_alpha 90.000000
_cell_angle_beta 101.652417
_cell_angle_gamma 90.000000
_cell_volume 2130.988385
_symmetry_space_group_name_H-M "C 2/C"
_symmetry_group_IT_number 15
_symmetry_cell_setting 'monoclinic'
loop_
_space_group_symop_operation_xyz
x,y,z
-x,y,1/2-z
-x,-y,-z
x,-y,1/2+z
1/2+x,1/2+y,z
1/2-x,1/2+y,1/2-z
1/2-x,1/2-y,-z
1/2+x,1/2-y,1/2+z
loop_
_atom_site_type_symbol
_atom_site_label
_atom_site_fract_x
_atom_site_fract_y
_atom_site_fract_z
Si Si1 0.369237 0.150971 0.333060
Si Si2 0.094904 0.282874 0.401163
Si Si3 0.816379 0.910296 0.718018
Si Si4 0.908856 0.137200 0.676977
Si Si5 0.500000 0.987742 0.250000
Si Si6 0.950219 0.882199 0.946238
O O1 0.373504 0.190763 0.464122
O O2 0.281727 0.085517 0.288506
O O3 0.374294 0.264615 0.252238
O O4 0.447740 0.069402 0.321237
O O5 0.160100 0.208826 0.344333
O O6 0.064731 0.402813 0.333148
O O7 0.013504 0.198986 0.393658
O O8 0.870784 0.911586 0.847563
O O9 0.849268 0.023426 0.657611
O O10 0.922917 0.182403 0.554032
O O11 0.000000 0.100320 0.750000
O O12 0.000000 0.000000 0.000000
#
# Coordination Sequence:
#
# PCOD9307064 Si02
#       6
#     8   8   8   8   4   8
#     4  12  28  46  69 103 144 183 234 288 354 415
#     4  12  23  46  74  98 141 188 227 287 352 419
#     4  12  26  41  71 110 133 178 237 298 338 408
#     4  12  23  44  72  98 137 186 228 283 349 411
#     4  12  26  48  70  98 144 192 230 274 364 422
#     4  12  21  42  73 102 137 179 234 282 345 413
#
# _framework density 20.647694999999999
#
# number of rings (size 3 to 8) (size 9 to 14) (size 15 to 20)
#    0.000    0.000    8.182    1.091    2.545    2.182 
#    0.000    0.000    0.000    0.000    0.000    0.000 
#    0.000    0.000    0.000    0.000    0.000    0.000 
#
# Total GULP energy -123156.249698 kJ/mol
# GULP energy per Si atom -5598.011350 kJ/mol
# Density = 2.060070 g / cm^3
# Si number density = 20.647695 Si / 1000 Ang^3
#
#
#
# Elastic Constant Matrix: (Units=GPa)
#
#
# Indices 1 2 3 4 5 6 
#
# 1 91.9155 21.3269 -0.7719 0.0000 -4.0463 0.0000
# 2 21.3269 75.6498 5.9063 0.0000 -7.7773 0.0000
# 3 -0.7719 5.9063 97.8481 0.0000 -19.1641 0.0000
# 4 0.0000 0.0000 0.0000 32.2158 0.0000 -2.1890
# 5 -4.0463 -7.7773 -19.1641 0.0000 16.5899 0.0000
# 6 0.0000 0.0000 0.0000 -2.1890 0.0000 18.3904
#
#
#
# Elastic Compliance Matrix: (Units=1/GPa)
#
#
# Indices 1 2 3 4 5 6 
#
# 1 0.011709 -0.003129 0.000715 0.000000 0.002215 0.000000
# 2 -0.003129 0.014749 0.000374 0.000000 0.006583 0.000000
# 3 0.000715 0.000374 0.013275 0.000000 0.015685 0.000000
# 4 0.000000 0.000000 0.000000 0.031294 0.000000 0.003725
# 5 0.002215 0.006583 0.015685 0.000000 0.082023 0.000000
# 6 0.000000 0.000000 0.000000 0.003725 0.000000 0.054820
#
#
# Mechanical properties :
#
#
# Convention : Reuss Voigt Hill
#
# Bulk Modulus (GPa) = 28.04781 35.37066 31.70924
# Shear Modulus (GPa) = 22.33817 29.36936 25.85376
#
# Velocity S-wave (km/s) = 3.29275 3.77557 3.54239
# Velocity P-wave (km/s) = 5.29809 6.01451 5.66763
#
# Compressibility (1/GPa) = 0.03565340
#
# Stress axis : x y z
#
# Youngs Moduli (GPa) = 85.40362 67.80337 75.33020
#
# Poissons Ratio (x) = 0.21216 -0.05387
# Poissons Ratio (y) = 0.26724 -0.02821
# Poissons Ratio (z) = -0.06107 -0.02539
#
# Static dielectric constant tensor:
#      x y z
#    x 1.712660 0.000000 -0.007540 
#    y 0.000000 1.737900 0.000000 
#    z -0.007540 0.000000 1.741960 
# 
# From -- ./inp_files/95009.got.cif
#   From: 2010.05.17/outbox.cif.g08.bks.cpg/sg15_48_cif.got.tgz:95009.got - 2010.06.03 18:47:42.
