data_PCOD9307074
_publ_section_title
;
Structure prediction by ZEFSAII (Michael W. Deem and Ramdas Pophale) SiO2 
 PCOD9307074
Probable space group: C 2/C
;
_chemical_formula_sum "Si O2"
_cell_formula_units_Z 60
_cell_length_a 14.013149
_cell_length_b 14.391607
_cell_length_c 15.216895
_cell_angle_alpha 90.000000
_cell_angle_beta 113.461910
_cell_angle_gamma 90.000000
_cell_volume 2815.102968
_symmetry_space_group_name_H-M "C 2/C"
_symmetry_group_IT_number 15
_symmetry_cell_setting 'monoclinic'
loop_
_space_group_symop_operation_xyz
x,y,z
-x,y,1/2-z
-x,-y,-z
x,-y,1/2+z
1/2+x,1/2+y,z
1/2-x,1/2+y,1/2-z
1/2-x,1/2-y,-z
1/2+x,1/2-y,1/2+z
loop_
_atom_site_type_symbol
_atom_site_label
_atom_site_fract_x
_atom_site_fract_y
_atom_site_fract_z
Si Si1 0.739922 0.508528 0.285910
Si Si2 0.364549 0.252119 0.501193
Si Si3 0.000000 0.305616 0.750000
Si Si4 0.177858 0.557671 0.367104
Si Si5 0.100102 0.880496 0.840296
Si Si6 0.390426 0.961382 0.988369
Si Si7 0.083752 0.849116 0.159710
Si Si8 0.595917 0.459465 0.476013
O O1 0.812537 0.522811 0.228829
O O2 0.688641 0.606996 0.298732
O O3 0.809903 0.485058 0.395204
O O4 0.653857 0.431294 0.227775
O O5 0.250000 0.250000 0.500000
O O6 0.425032 0.291037 0.609308
O O7 0.391721 0.149637 0.479263
O O8 0.373490 0.319813 0.420611
O O9 0.914238 0.366193 0.665785
O O10 0.928355 0.240741 0.784855
O O11 0.140485 0.481790 0.423096
O O12 0.300180 0.577184 0.437688
O O13 0.000000 0.908766 0.750000
O O14 0.127149 0.957322 0.923046
O O15 0.500000 0.000000 0.000000
O O16 0.965113 0.883308 0.102575
O O17 0.500000 0.500000 0.500000
#
# Coordination Sequence:
#
# PCOD9307074 Si02
#       8
#     8   8   4   8   8   8   8   8
#     4  12  23  44  77 101 143 195 239 302 383 440
#     4  12  24  45  71 103 145 186 247 317 357 429
#     4  12  30  48  72 104 158 188 254 310 366 462
#     4  12  25  49  74 105 147 202 239 302 383 452
#     4  12  22  41  70 109 137 180 239 307 362 438
#     4  12  27  50  73 101 149 204 251 299 377 457
#     4  12  25  46  72 110 143 191 244 315 370 443
#     4  12  21  43  75 107 142 186 241 302 382 436
#
# _framework density 21.313607000000001
#
# number of rings (size 3 to 8) (size 9 to 14) (size 15 to 20)
#    0.000    0.000    6.667    4.000    0.000    0.533 
#    8.400    0.000    0.000    0.000    0.000    0.000 
#    0.000    0.000    0.000    0.000    0.000    0.000 
#
# Total GULP energy -167354.812385 kJ/mol
# GULP energy per Si atom -5578.493746 kJ/mol
# Density = 2.126510 g / cm^3
# Si number density = 21.313607 Si / 1000 Ang^3
#
#
#
# Elastic Constant Matrix: (Units=GPa)
#
#
# Indices 1 2 3 4 5 6 
#
# 1 109.2078 21.5580 32.2789 0.0000 -7.5280 0.0000
# 2 21.5580 89.0694 42.3462 0.0000 6.1006 0.0000
# 3 32.2789 42.3462 91.1953 0.0000 -13.6220 0.0000
# 4 0.0000 0.0000 0.0000 36.4896 0.0000 -7.6043
# 5 -7.5280 6.1006 -13.6220 0.0000 47.3642 0.0000
# 6 0.0000 0.0000 0.0000 -7.6043 0.0000 24.6315
#
#
#
# Elastic Compliance Matrix: (Units=1/GPa)
#
#
# Indices 1 2 3 4 5 6 
#
# 1 0.010329 -0.001144 -0.002986 0.000000 0.000930 0.000000
# 2 -0.001144 0.015278 -0.007325 0.000000 -0.004256 0.000000
# 3 -0.002986 -0.007325 0.016189 0.000000 0.005125 0.000000
# 4 0.000000 0.000000 0.000000 0.029289 0.000000 0.009042
# 5 0.000930 -0.004256 0.005125 0.000000 0.023283 0.000000
# 6 0.000000 0.000000 0.000000 0.009042 0.000000 0.043390
#
#
# Mechanical properties :
#
#
# Convention : Reuss Voigt Hill
#
# Bulk Modulus (GPa) = 52.94813 53.53764 53.24288
# Shear Modulus (GPa) = 29.94630 34.58303 32.26466
#
# Velocity S-wave (km/s) = 3.75244 4.03250 3.89499
# Velocity P-wave (km/s) = 6.60839 6.84506 6.72777
#
# Compressibility (1/GPa) = 0.01888641
#
# Stress axis : x y z
#
# Youngs Moduli (GPa) = 96.81107 65.45226 61.76932
#
# Poissons Ratio (x) = 0.07490 0.18443
# Poissons Ratio (y) = 0.11078 0.45247
# Poissons Ratio (z) = 0.28906 0.47945
#
# Static dielectric constant tensor:
#      x y z
#    x 1.826870 0.000000 0.024220 
#    y 0.000000 1.752420 0.000000 
#    z 0.024220 0.000000 1.795360 
# 
# From -- ./inp_files/154278.got.cif
#   From: 2010.05.17/outbox.cif.g08.bks.cpg/sg15_78_cif.got.tgz:154278.got - 2010.06.03 18:47:42.
