data_PCOD9307302
_publ_section_title
;
Structure prediction by ZEFSAII (Michael W. Deem and Ramdas Pophale) SiO2 
 PCOD9307302
Probable space group: C 2/C
;
_chemical_formula_sum "Si O2"
_cell_formula_units_Z 56
_cell_length_a 15.389424
_cell_length_b 11.024892
_cell_length_c 14.719497
_cell_angle_alpha 90.000000
_cell_angle_beta 91.717802
_cell_angle_gamma 90.000000
_cell_volume 2496.286685
_symmetry_space_group_name_H-M "C 2/C"
_symmetry_group_IT_number 15
_symmetry_cell_setting 'monoclinic'
loop_
_space_group_symop_operation_xyz
x,y,z
-x,y,1/2-z
-x,-y,-z
x,-y,1/2+z
1/2+x,1/2+y,z
1/2-x,1/2+y,1/2-z
1/2-x,1/2-y,-z
1/2+x,1/2-y,1/2+z
loop_
_atom_site_type_symbol
_atom_site_label
_atom_site_fract_x
_atom_site_fract_y
_atom_site_fract_z
Si Si1 0.368586 0.012581 0.840109
Si Si2 0.725108 0.507425 0.688061
Si Si3 0.500000 0.134016 0.250000
Si Si4 0.363714 0.675825 0.679193
Si Si5 0.947502 0.046333 0.086042
Si Si6 0.244276 0.894887 0.988091
Si Si7 0.894821 0.206271 0.364259
Si Si8 0.250000 0.750000 0.500000
O O1 0.307745 0.982981 0.752502
O O2 0.390353 0.154679 0.835106
O O3 0.458239 0.943733 0.829092
O O4 0.314931 0.961884 0.925443
O O5 0.681275 0.625423 0.731144
O O6 0.748017 0.535504 0.584675
O O7 0.659886 0.393878 0.693003
O O8 0.574952 0.214255 0.295489
O O9 0.427558 0.568291 0.648466
O O10 0.289153 0.711129 0.603852
O O11 0.851498 0.087085 0.055295
O O12 0.007992 0.152670 0.127318
O O13 0.000000 0.000000 0.000000
O O14 0.250000 0.750000 0.000000
O O15 0.844088 0.211050 0.459060
#
# Coordination Sequence:
#
# PCOD9307302 Si02
#       8
#     8   8   4   8   8   8   8   4
#     4  12  29  51  73 115 156 203 250 316 396 456
#     4  12  25  48  81 111 149 205 259 313 382 465
#     4  12  30  48  76 114 158 196 260 318 382 462
#     4  12  25  48  80 111 152 209 261 317 381 466
#     4  12  24  47  76 113 147 193 260 314 374 456
#     4  12  28  50  79 116 156 198 256 324 386 452
#     4  12  25  44  78 107 155 197 252 317 380 461
#     4  12  22  46  76 106 154 204 248 308 392 456
#
# _framework density 22.433319999999998
#
# number of rings (size 3 to 8) (size 9 to 14) (size 15 to 20)
#    0.000    0.000    5.714    3.429    4.000    2.286 
#    0.000    2.143    0.000    0.000    0.000    0.000 
#    0.000    0.000    0.000    0.000    0.000    0.000 
#
# Total GULP energy -156222.912692 kJ/mol
# GULP energy per Si atom -5579.389739 kJ/mol
# Density = 2.238226 g / cm^3
# Si number density = 22.433320 Si / 1000 Ang^3
#
#
#
# Elastic Constant Matrix: (Units=GPa)
#
#
# Indices 1 2 3 4 5 6 
#
# 1 120.9437 78.7092 55.5523 0.0000 -23.0783 0.0000
# 2 78.7092 163.3425 64.2089 0.0000 3.7475 0.0000
# 3 55.5523 64.2089 108.8003 0.0000 -7.8595 0.0000
# 4 0.0000 0.0000 0.0000 22.0968 0.0000 -4.8015
# 5 -23.0783 3.7475 -7.8595 0.0000 21.1118 0.0000
# 6 0.0000 0.0000 0.0000 -4.8015 0.0000 56.1605
#
#
#
# Elastic Compliance Matrix: (Units=1/GPa)
#
#
# Indices 1 2 3 4 5 6 
#
# 1 0.019513 -0.008588 -0.003333 0.000000 0.021614 0.000000
# 2 -0.008588 0.011975 -0.003611 0.000000 -0.012858 0.000000
# 3 -0.003333 -0.003611 0.013161 0.000000 0.001897 0.000000
# 4 0.000000 0.000000 0.000000 0.046112 0.000000 0.003942
# 5 0.021614 -0.012858 0.001897 0.000000 0.073983 0.000000
# 6 0.000000 0.000000 0.000000 0.003942 0.000000 0.018143
#
#
# Mechanical properties :
#
#
# Convention : Reuss Voigt Hill
#
# Bulk Modulus (GPa) = 73.61548 87.78081 80.69814
# Shear Modulus (GPa) = 22.88548 32.84822 27.86685
#
# Velocity S-wave (km/s) = 3.19745 3.83072 3.52832
# Velocity P-wave (km/s) = 6.82042 7.66684 7.25598
#
# Compressibility (1/GPa) = 0.01358410
#
# Stress axis : x y z
#
# Youngs Moduli (GPa) = 51.24836 83.50871 75.98146
#
# Poissons Ratio (x) = 0.71718 0.25328
# Poissons Ratio (y) = 0.44013 0.27435
# Poissons Ratio (z) = 0.17083 0.30153
#
# Static dielectric constant tensor:
#      x y z
#    x 2.573220 0.000000 -0.043750 
#    y 0.000000 1.863420 0.000000 
#    z -0.043750 0.000000 1.848930 
# 
# From -- ./inp_files/152656.got.cif
#   From: 2010.05.17/outbox.cif.g08.bks.cpg/sg15_77_cif.got.tgz:152656.got - 2010.06.03 18:47:42.
