data_PCOD9307111
_publ_section_title
;
Structure prediction by ZEFSAII (Michael W. Deem and Ramdas Pophale) SiO2 
 PCOD9307111
Probable space group: C 2/C
;
_chemical_formula_sum "Si O2"
_cell_formula_units_Z 44
_cell_length_a 17.784059
_cell_length_b 11.359041
_cell_length_c 12.340962
_cell_angle_alpha 90.000000
_cell_angle_beta 47.279609
_cell_angle_gamma 90.000000
_cell_volume 1831.537307
_symmetry_space_group_name_H-M "C 2/C"
_symmetry_group_IT_number 15
_symmetry_cell_setting 'monoclinic'
loop_
_space_group_symop_operation_xyz
x,y,z
-x,y,1/2-z
-x,-y,-z
x,-y,1/2+z
1/2+x,1/2+y,z
1/2-x,1/2+y,1/2-z
1/2-x,1/2-y,-z
1/2+x,1/2-y,1/2+z
loop_
_atom_site_type_symbol
_atom_site_label
_atom_site_fract_x
_atom_site_fract_y
_atom_site_fract_z
Si Si1 0.829532 0.320526 0.550022
Si Si2 0.626175 0.820841 0.434631
Si Si3 0.331696 0.562588 0.140276
Si Si4 0.311972 0.908390 0.344738
Si Si5 0.500000 0.207870 0.250000
Si Si6 0.872094 0.176587 0.697213
O O1 0.743192 0.402317 0.687757
O O2 0.772808 0.197198 0.576560
O O3 0.865698 0.384190 0.406262
O O4 0.898580 0.278686 0.583036
O O5 0.605572 0.680142 0.445259
O O6 0.616634 0.887015 0.329490
O O7 0.561495 0.864281 0.599251
O O8 0.748788 0.822979 0.334537
O O9 0.256601 0.523146 0.114706
O O10 0.392630 0.449573 0.123095
O O11 0.578142 0.289906 0.238957
#
# Coordination Sequence:
#
# PCOD9307111 Si02
#       6
#     8   8   8   8   4   8
#     4   8  15  31  54  79 104 145 186 223 269 326
#     4   9  20  36  55  85 109 152 183 226 283 329
#     4   8  16  31  56  87 110 134 192 223 284 339
#     4   8  15  31  54  79 104 145 186 223 269 326
#     4  12  22  34  54  80 126 144 178 232 276 336
#     4   9  20  36  55  85 109 152 183 226 283 329
#
# _framework density 24.023537000000001
#
# number of rings (size 3 to 8) (size 9 to 14) (size 15 to 20)
#    0.000    4.000    0.000    0.545    2.545    0.727 
#    3.273    0.909    0.000   17.455    0.000    0.000 
#    0.000    0.000    0.000    0.000    0.000    0.000 
#
# Total GULP energy -122709.403937 kJ/mol
# GULP energy per Si atom -5577.700179 kJ/mol
# Density = 2.396886 g / cm^3
# Si number density = 24.023537 Si / 1000 Ang^3
#
#
#
# Elastic Constant Matrix: (Units=GPa)
#
#
# Indices 1 2 3 4 5 6 
#
# 1 68.4246 16.0989 37.8975 0.0000 21.4620 0.0000
# 2 16.0989 86.1995 11.1726 0.0000 7.8979 0.0000
# 3 37.8975 11.1726 169.3342 0.0000 18.7265 0.0000
# 4 0.0000 0.0000 0.0000 0.2022 0.0000 -4.1224
# 5 21.4620 7.8979 18.7265 0.0000 40.3093 0.0000
# 6 0.0000 0.0000 0.0000 -4.1224 0.0000 18.2240
#
#
#
# Elastic Compliance Matrix: (Units=1/GPa)
#
#
# Indices 1 2 3 4 5 6 
#
# 1 0.019680 -0.002472 -0.003306 0.000000 -0.008458 0.000000
# 2 -0.002472 0.012173 -0.000139 0.000000 -0.001004 0.000000
# 3 -0.003306 -0.000139 0.006807 0.000000 -0.001375 0.000000
# 4 0.000000 0.000000 0.000000 -1.369288 0.000000 -0.309744
# 5 -0.008458 -0.001004 -0.001375 0.000000 0.030147 0.000000
# 6 0.000000 0.000000 0.000000 -0.309744 0.000000 -0.015194
#
#
# Mechanical properties :
#
#
# Convention : Reuss Voigt Hill
#
# Bulk Modulus (GPa) = 37.27767 50.47736 43.87752
# Shear Modulus (GPa) = -3.86130 28.99973 12.56921
#
# Velocity S-wave (km/s) = -1.26917 3.47816 2.28985
# Velocity P-wave (km/s) = 3.66103 6.09814 5.02944
#
# Compressibility (1/GPa) = 0.02682571
#
# Stress axis : x y z
#
# Youngs Moduli (GPa) = 50.81221 82.15105 146.91703
#
# Poissons Ratio (x) = 0.20308 0.48571
# Poissons Ratio (y) = 0.12561 0.02040
# Poissons Ratio (z) = 0.16799 0.01140
#
# Static dielectric constant tensor:
#      x y z
#    x 2.007390 0.000000 -0.016990 
#    y 0.000000 1.971520 0.000000 
#    z -0.016990 0.000000 1.956660 
# 
# From -- ./inp_files/110492.got.cif
#   From: 2010.05.17/outbox.cif.g08.bks.cpg/sg15_56_cif.got.tgz:110492.got - 2010.06.03 18:47:42.
