data_PCOD9307833
_publ_section_title
;
Structure prediction by ZEFSAII (Michael W. Deem and Ramdas Pophale) SiO2 
 PCOD9307833
Probable space group: C 2/C
;
_chemical_formula_sum "Si O2"
_cell_formula_units_Z 52
_cell_length_a 16.999013
_cell_length_b 6.659246
_cell_length_c 23.359257
_cell_angle_alpha 90.000000
_cell_angle_beta 61.686602
_cell_angle_gamma 90.000000
_cell_volume 2327.937318
_symmetry_space_group_name_H-M "C 2/C"
_symmetry_group_IT_number 15
_symmetry_cell_setting 'monoclinic'
loop_
_space_group_symop_operation_xyz
x,y,z
-x,y,1/2-z
-x,-y,-z
x,-y,1/2+z
1/2+x,1/2+y,z
1/2-x,1/2+y,1/2-z
1/2-x,1/2-y,-z
1/2+x,1/2-y,1/2+z
loop_
_atom_site_type_symbol
_atom_site_label
_atom_site_fract_x
_atom_site_fract_y
_atom_site_fract_z
Si Si1 0.200506 0.337861 0.350415
Si Si2 0.000000 0.888631 0.750000
Si Si3 0.556759 0.873031 0.880827
Si Si4 0.926443 0.671246 0.875640
Si Si5 0.853119 0.975870 0.214336
Si Si6 0.938180 0.020577 0.966687
Si Si7 0.256568 0.113510 0.441262
O O1 0.117818 0.479963 0.398970
O O2 0.161011 0.156613 0.325496
O O3 0.268249 0.451203 0.284650
O O4 0.256067 0.250956 0.384702
O O5 0.070053 0.761140 0.688769
O O6 0.059723 0.002643 0.775626
O O7 0.626791 0.720884 0.829309
O O8 0.474358 0.735199 0.930863
O O9 0.510442 0.022478 0.852216
O O10 0.940845 0.848860 0.917147
O O11 0.836845 0.544020 0.916079
O O12 0.838937 0.007661 0.025488
O O13 0.000000 0.000000 0.000000
O O14 0.250000 0.250000 0.500000
#
# Coordination Sequence:
#
# PCOD9307833 Si02
#       7
#     8   4   8   8   8   8   8
#     4  12  28  49  76 112 152 199 256 315 387 456
#     4  12  28  46  76 110 150 190 252 312 384 446
#     4  12  24  49  77 105 149 194 253 308 381 450
#     4  12  28  48  76 112 149 198 253 314 380 449
#     4  12  27  48  74 114 147 194 249 318 383 453
#     4  12  27  51  78 106 149 201 256 309 374 456
#     4  12  29  49  74 112 153 203 253 310 379 454
#
# _framework density 22.337371000000001
#
# number of rings (size 3 to 8) (size 9 to 14) (size 15 to 20)
#    0.000    0.000    6.154    2.308   10.769    2.462 
#    0.000    0.000    0.000    0.000    0.000    0.000 
#    0.000    0.000    0.000    0.000    0.000    0.000 
#
# Total GULP energy -145324.949493 kJ/mol
# GULP energy per Si atom -5589.421134 kJ/mol
# Density = 2.228653 g / cm^3
# Si number density = 22.337371 Si / 1000 Ang^3
#
#
#
# Elastic Constant Matrix: (Units=GPa)
#
#
# Indices 1 2 3 4 5 6 
#
# 1 107.2609 35.8744 20.7693 0.0001 -1.5794 0.0014
# 2 35.8744 94.8238 36.5287 0.0006 2.9801 0.0021
# 3 20.7693 36.5287 86.2213 0.0001 -0.4344 0.0003
# 4 0.0001 0.0006 0.0001 35.1567 0.0002 -14.4836
# 5 -1.5794 2.9801 -0.4344 0.0002 50.4811 0.0004
# 6 0.0014 0.0021 0.0003 -14.4836 0.0004 46.7021
#
#
#
# Elastic Compliance Matrix: (Units=1/GPa)
#
#
# Indices 1 2 3 4 5 6 
#
# 1 0.010765 -0.003695 -0.001025 0.000000 0.000546 0.000000
# 2 -0.003695 0.013903 -0.005005 0.000000 -0.000979 -0.000001
# 3 -0.001025 -0.005005 0.013967 0.000000 0.000384 0.000000
# 4 0.000000 0.000000 0.000000 0.032611 0.000000 0.010113
# 5 0.000546 -0.000979 0.000384 0.000000 0.019888 0.000000
# 6 0.000000 -0.000001 0.000000 0.010113 0.000000 0.024549
#
#
# Mechanical properties :
#
#
# Convention : Reuss Voigt Hill
#
# Bulk Modulus (GPa) = 52.12303 52.73896 52.43099
# Shear Modulus (GPa) = 35.32884 39.47687 37.40286
#
# Velocity S-wave (km/s) = 3.98125 4.20849 4.09645
# Velocity P-wave (km/s) = 6.67225 6.87580 6.77479
#
# Compressibility (1/GPa) = 0.01918538
#
# Stress axis : x y z
#
# Youngs Moduli (GPa) = 92.88966 71.92878 71.59599
#
# Poissons Ratio (x) = 0.26579 0.07338
# Poissons Ratio (y) = 0.34324 0.35833
# Poissons Ratio (z) = 0.09521 0.35999
#
# Static dielectric constant tensor:
#      x y z
#    x 1.825570 0.000000 0.032360 
#    y 0.000000 1.895960 0.000000 
#    z 0.032360 0.000000 1.857970 
# 
# From -- ./inp_files/297692.got.cif
#   From: 2010.05.17/outbox.cif.g08.bks.cpg/sg15_149_cif.got.tgz:297692.got - 2010.06.03 18:47:42.
