data_PCOD9307987
_publ_section_title
;
Structure prediction by ZEFSAII (Michael W. Deem and Ramdas Pophale) SiO2 
 PCOD9307987
Probable space group: C 2/C
;
_chemical_formula_sum "Si O2"
_cell_formula_units_Z 32
_cell_length_a 9.815849
_cell_length_b 11.092039
_cell_length_c 15.073676
_cell_angle_alpha 90.000000
_cell_angle_beta 62.281641
_cell_angle_gamma 90.000000
_cell_volume 1452.853204
_symmetry_space_group_name_H-M "C 2/C"
_symmetry_group_IT_number 15
_symmetry_cell_setting 'monoclinic'
loop_
_space_group_symop_operation_xyz
x,y,z
-x,y,1/2-z
-x,-y,-z
x,-y,1/2+z
1/2+x,1/2+y,z
1/2-x,1/2+y,1/2-z
1/2-x,1/2-y,-z
1/2+x,1/2-y,1/2+z
loop_
_atom_site_type_symbol
_atom_site_label
_atom_site_fract_x
_atom_site_fract_y
_atom_site_fract_z
Si Si1 0.899633 0.259773 0.203730
Si Si2 0.875491 0.105190 0.032586
Si Si3 0.538217 0.005587 0.092355
Si Si4 0.558818 0.742764 0.828879
O O1 0.870142 0.177141 0.126841
O O2 0.732839 0.300199 0.289941
O O3 0.000000 0.196734 0.250000
O O4 0.995734 0.377037 0.145778
O O5 0.712790 0.046785 0.056650
O O6 0.939331 0.194993 0.937708
O O7 0.000000 0.000000 0.000000
O O8 0.437602 0.112432 0.165327
O O9 0.500000 0.000000 0.000000
O O10 0.500000 0.706040 0.750000
#
# Coordination Sequence:
#
# PCOD9307987 Si02
#       4
#     8   8   8   8
#     4  12  28  47  74 111 153 200 251 311 376 447
#     4  12  28  48  72 111 152 197 252 309 375 449
#     4  12  25  49  78 106 151 196 251 317 375 444
#     4  12  25  47  77 108 148 197 251 307 380 447
#
# _framework density 22.025624000000001
#
# number of rings (size 3 to 8) (size 9 to 14) (size 15 to 20)
#    0.000    0.000    5.000    4.500    7.000    3.000 
#    0.000    0.000    0.000    0.000    0.000    0.000 
#    0.000    0.000    0.000    0.000    0.000    0.000 
#
# Total GULP energy -89655.868585 kJ/mol
# GULP energy per Si atom -5603.491787 kJ/mol
# Density = 2.197549 g / cm^3
# Si number density = 22.025624 Si / 1000 Ang^3
#
#
#
# Elastic Constant Matrix: (Units=GPa)
#
#
# Indices 1 2 3 4 5 6 
#
# 1 206.0976 46.8831 78.7720 0.0000 0.5183 0.0000
# 2 46.8831 92.6326 21.5395 0.0000 -7.8189 0.0000
# 3 78.7720 21.5395 118.1242 0.0000 3.0384 0.0000
# 4 0.0000 0.0000 0.0000 20.7103 0.0000 1.4565
# 5 0.5183 -7.8189 3.0384 0.0000 42.5631 0.0000
# 6 0.0000 0.0000 0.0000 1.4565 0.0000 36.0855
#
#
#
# Elastic Compliance Matrix: (Units=1/GPa)
#
#
# Indices 1 2 3 4 5 6 
#
# 1 0.007063 -0.002614 -0.004226 0.000000 -0.000265 0.000000
# 2 -0.002614 0.012455 -0.000589 0.000000 0.002362 0.000000
# 3 -0.004226 -0.000589 0.011414 0.000000 -0.000871 0.000000
# 4 0.000000 0.000000 0.000000 0.048422 0.000000 -0.001954
# 5 -0.000265 0.002362 -0.000871 0.000000 0.023994 0.000000
# 6 0.000000 0.000000 0.000000 -0.001954 0.000000 0.027791
#
#
# Mechanical properties :
#
#
# Convention : Reuss Voigt Hill
#
# Bulk Modulus (GPa) = 62.21603 79.02707 70.62155
# Shear Modulus (GPa) = 33.03511 37.84910 35.44211
#
# Velocity S-wave (km/s) = 3.87699 4.14987 4.01575
# Velocity P-wave (km/s) = 6.95340 7.67590 7.32357
#
# Compressibility (1/GPa) = 0.01607303
#
# Stress axis : x y z
#
# Youngs Moduli (GPa) = 141.58787 80.29148 87.61345
#
# Poissons Ratio (x) = 0.20990 0.37029
# Poissons Ratio (y) = 0.37014 0.05156
# Poissons Ratio (z) = 0.59840 0.04725
#
# Static dielectric constant tensor:
#      x y z
#    x 1.936950 0.000000 0.031250 
#    y 0.000000 1.820790 0.000000 
#    z 0.031250 0.000000 1.835920 
# 
# From -- ./inp_files/131926.got.cif
#   From: 2010.05.17/outbox.cif.g08.bks.cpg/sg15_66_cif.got.tgz:131926.got - 2010.06.03 18:47:42.
