data_PCOD9307347
_publ_section_title
;
Structure prediction by ZEFSAII (Michael W. Deem and Ramdas Pophale) SiO2 
 PCOD9307347
Probable space group: C 2/C
;
_chemical_formula_sum "Si O2"
_cell_formula_units_Z 56
_cell_length_a 20.229295
_cell_length_b 13.892268
_cell_length_c 21.893435
_cell_angle_alpha 90.000000
_cell_angle_beta 20.600035
_cell_angle_gamma 90.000000
_cell_volume 2164.789931
_symmetry_space_group_name_H-M "C 2/C"
_symmetry_group_IT_number 15
_symmetry_cell_setting 'monoclinic'
loop_
_space_group_symop_operation_xyz
x,y,z
-x,y,1/2-z
-x,-y,-z
x,-y,1/2+z
1/2+x,1/2+y,z
1/2-x,1/2+y,1/2-z
1/2-x,1/2-y,-z
1/2+x,1/2-y,1/2+z
loop_
_atom_site_type_symbol
_atom_site_label
_atom_site_fract_x
_atom_site_fract_y
_atom_site_fract_z
Si Si1 0.633271 0.774800 0.038718
Si Si2 0.500000 0.680533 0.750000
Si Si3 0.500000 0.116142 0.750000
Si Si4 0.241069 0.197398 0.662657
Si Si5 0.383228 0.104480 0.218329
Si Si6 0.890359 0.100728 0.230909
Si Si7 0.303507 0.472790 0.202801
Si Si8 0.287227 0.461366 0.508030
O O1 0.456652 0.825346 0.226180
O O2 0.543638 0.682968 0.083329
O O3 0.750000 0.750000 0.000000
O O4 0.749887 0.849581 0.898989
O O5 0.585575 0.714372 0.742171
O O6 0.675556 0.620211 0.572740
O O7 0.669682 0.048755 0.584131
O O8 0.421242 0.148620 0.474749
O O9 0.262061 0.306510 0.669148
O O10 0.194736 0.126058 0.759992
O O11 0.350297 0.000899 0.214394
O O12 0.332102 0.079063 0.332508
O O13 0.774012 0.058426 0.276645
O O14 0.012044 0.009054 0.148938
O O15 0.500000 0.500000 0.000000
#
# Coordination Sequence:
#
# PCOD9307347 Si02
#       8
#     8   4   4   8   8   8   8   8
#     4  12  23  40  64 103 151 196 243 307 373 468
#     4  12  24  46  76 110 154 194 250 315 395 462
#     4  12  24  38  66 102 154 190 244 303 379 472
#     4  12  28  50  81 115 152 201 257 327 398 459
#     4  12  28  52  76 114 152 201 266 320 386 466
#     4  12  24  42  69 102 146 200 255 306 385 446
#     4  12  26  52  79 107 152 201 263 325 380 462
#     4  12  24  42  72 105 146 200 247 313 383 458
#
# _framework density 25.868561
#
# number of rings (size 3 to 8) (size 9 to 14) (size 15 to 20)
#    0.000    0.000    5.714    3.857    2.000    5.143 
#    2.571    0.000    0.000    0.000    0.000    0.000 
#    0.000    0.000    0.000    0.000    0.000    0.000 
#
# Total GULP energy -156346.430532 kJ/mol
# GULP energy per Si atom -5583.801090 kJ/mol
# Density = 2.580968 g / cm^3
# Si number density = 25.868561 Si / 1000 Ang^3
#
#
#
# Elastic Constant Matrix: (Units=GPa)
#
#
# Indices 1 2 3 4 5 6 
#
# 1 54.7716 35.3230 9.6224 -0.0020 23.6027 0.0112
# 2 35.3230 116.8967 18.2152 -0.0085 23.2150 -0.0123
# 3 9.6224 18.2152 112.5524 -0.0316 29.6594 -0.0059
# 4 -0.0020 -0.0085 -0.0316 53.7366 0.0003 6.9389
# 5 23.6027 23.2150 29.6594 0.0003 39.6804 -0.0001
# 6 0.0112 -0.0123 -0.0059 6.9389 -0.0001 32.2667
#
#
#
# Elastic Compliance Matrix: (Units=1/GPa)
#
#
# Indices 1 2 3 4 5 6 
#
# 1 0.028162 -0.005886 0.002555 0.000003 -0.015218 -0.000012
# 2 -0.005886 0.010910 -0.000626 0.000000 -0.002414 0.000006
# 3 0.002555 -0.000626 0.011297 0.000007 -0.009597 -0.000001
# 4 0.000003 0.000000 0.000007 0.019141 -0.000007 -0.004116
# 5 -0.015218 -0.002414 -0.009597 -0.000007 0.042839 0.000004
# 6 -0.000012 0.000006 -0.000001 -0.004116 0.000004 0.031877
#
#
# Mechanical properties :
#
#
# Convention : Reuss Voigt Hill
#
# Bulk Modulus (GPa) = 23.55459 45.61579 34.58519
# Shear Modulus (GPa) = 30.06764 39.87408 34.97086
#
# Velocity S-wave (km/s) = 3.41299 3.93034 3.68076
# Velocity P-wave (km/s) = 4.96554 6.18617 5.60916
#
# Compressibility (1/GPa) = 0.04245457
#
# Stress axis : x y z
#
# Youngs Moduli (GPa) = 35.50831 91.65843 88.52152
#
# Poissons Ratio (x) = 0.53949 -0.22617
# Poissons Ratio (y) = 0.20900 0.05545
# Poissons Ratio (z) = -0.09072 0.05742
#
# Static dielectric constant tensor:
#      x y z
#    x 2.165030 -0.000020 -0.124270 
#    y -0.000020 2.114440 0.000040 
#    z -0.124270 0.000040 2.168090 
# 
# From -- ./inp_files/282093.got.cif
#   From: 2010.05.17/outbox.cif.g08.bks.cpg/sg15_142_cif.got.tgz:282093.got - 2010.06.03 18:47:42.
