data_PCOD9307437
_publ_section_title
;
Structure prediction by ZEFSAII (Michael W. Deem and Ramdas Pophale) SiO2 
 PCOD9307437
Probable space group: C 2/C
;
_chemical_formula_sum "Si O2"
_cell_formula_units_Z 28
_cell_length_a 28.745132
_cell_length_b 10.746883
_cell_length_c 22.236402
_cell_angle_alpha 90.000000
_cell_angle_beta 169.213411
_cell_angle_gamma 90.000000
_cell_volume 1285.595668
_symmetry_space_group_name_H-M "C 2/C"
_symmetry_group_IT_number 15
_symmetry_cell_setting 'monoclinic'
loop_
_space_group_symop_operation_xyz
x,y,z
-x,y,1/2-z
-x,-y,-z
x,-y,1/2+z
1/2+x,1/2+y,z
1/2-x,1/2+y,1/2-z
1/2-x,1/2-y,-z
1/2+x,1/2-y,1/2+z
loop_
_atom_site_type_symbol
_atom_site_label
_atom_site_fract_x
_atom_site_fract_y
_atom_site_fract_z
Si Si1 0.159545 0.874062 0.213326
Si Si2 0.000000 0.439167 0.750000
Si Si3 0.130701 0.624043 0.643408
Si Si4 0.370811 0.614324 0.150890
O O1 0.366301 0.873824 0.424411
O O2 0.294156 0.869069 0.448720
O O3 0.993285 0.751658 0.992259
O O4 0.000000 0.000000 0.000000
O O5 0.843158 0.521213 0.598535
O O6 0.000000 0.500000 0.500000
O O7 0.410220 0.614872 0.022270
O O8 0.500000 0.589976 0.250000
O O9 0.250000 0.750000 0.000000
#
# Coordination Sequence:
#
# PCOD9307437 Si02
#       4
#     8   4   8   8
#     4  12  25  48  73 106 148 187 245 301 364 434
#     4  12  26  46  72 108 146 192 242 306 366 432
#     4  12  26  48  74 103 147 194 239 301 367 435
#     4  12  23  44  73 105 143 190 249 298 358 439
#
# _framework density 21.779788
#
# number of rings (size 3 to 8) (size 9 to 14) (size 15 to 20)
#    0.000    0.000    4.286    6.857    0.000    1.143 
#    2.571    0.000    0.000    0.000    0.000    0.000 
#    0.000    0.000    0.000    0.000    0.000    0.000 
#
# Total GULP energy -78342.724682 kJ/mol
# GULP energy per Si atom -5595.908906 kJ/mol
# Density = 2.173022 g / cm^3
# Si number density = 21.779788 Si / 1000 Ang^3
#
#
#
# Elastic Constant Matrix: (Units=GPa)
#
#
# Indices 1 2 3 4 5 6 
#
# 1 117.0493 10.1316 2.9943 0.0000 21.7586 0.0027
# 2 10.1316 129.2705 42.8591 0.0060 15.5711 0.0048
# 3 2.9943 42.8591 98.0578 0.0326 -5.9693 0.0139
# 4 0.0000 0.0060 0.0326 27.8357 0.0232 -2.6450
# 5 21.7586 15.5711 -5.9693 0.0232 57.1797 0.0092
# 6 0.0027 0.0048 0.0139 -2.6450 0.0092 25.8995
#
#
#
# Elastic Compliance Matrix: (Units=1/GPa)
#
#
# Indices 1 2 3 4 5 6 
#
# 1 0.009221 -0.000159 -0.000426 0.000004 -0.003510 0.000001
# 2 -0.000159 0.009552 -0.004352 0.000006 -0.002995 0.000002
# 3 -0.000426 -0.004352 0.012273 -0.000016 0.002629 -0.000008
# 4 0.000004 0.000006 -0.000016 0.036277 -0.000020 0.003705
# 5 -0.003510 -0.002995 0.002629 -0.000020 0.019914 -0.000010
# 6 0.000001 0.000002 -0.000008 0.003705 -0.000010 0.038989
#
#
# Mechanical properties :
#
#
# Convention : Reuss Voigt Hill
#
# Bulk Modulus (GPa) = 47.23237 50.70529 48.96883
# Shear Modulus (GPa) = 34.92645 41.40916 38.16780
#
# Velocity S-wave (km/s) = 4.00886 4.36508 4.19076
# Velocity P-wave (km/s) = 6.56973 6.98117 6.77857
#
# Compressibility (1/GPa) = 0.02117192
#
# Stress axis : x y z
#
# Youngs Moduli (GPa) = 108.45385 104.69044 81.47651
#
# Poissons Ratio (x) = 0.01661 0.03470
# Poissons Ratio (y) = 0.01721 0.35462
# Poissons Ratio (z) = 0.04619 0.45566
#
# Static dielectric constant tensor:
#      x y z
#    x 1.848570 -0.000010 0.014190 
#    y -0.000010 1.649570 0.000010 
#    z 0.014190 0.000010 1.743530 
# 
# From -- ./inp_files/53673.got.cif
#   From: 2010.05.17/outbox.cif.g08.bks.cpg/sg15_27_cif.got.tgz:53673.got - 2010.06.03 18:47:42.
