data_PCOD9307532
_publ_section_title
;
Structure prediction by ZEFSAII (Michael W. Deem and Ramdas Pophale) SiO2 
 PCOD9307532
Probable space group: C 2/C
;
_chemical_formula_sum "Si O2"
_cell_formula_units_Z 44
_cell_length_a 17.339939
_cell_length_b 8.847732
_cell_length_c 15.027760
_cell_angle_alpha 90.000000
_cell_angle_beta 64.784393
_cell_angle_gamma 90.000000
_cell_volume 2085.852839
_symmetry_space_group_name_H-M "C 2/C"
_symmetry_group_IT_number 15
_symmetry_cell_setting 'monoclinic'
loop_
_space_group_symop_operation_xyz
x,y,z
-x,y,1/2-z
-x,-y,-z
x,-y,1/2+z
1/2+x,1/2+y,z
1/2-x,1/2+y,1/2-z
1/2-x,1/2-y,-z
1/2+x,1/2-y,1/2+z
loop_
_atom_site_type_symbol
_atom_site_label
_atom_site_fract_x
_atom_site_fract_y
_atom_site_fract_z
Si Si1 0.138109 0.065845 0.201888
Si Si2 0.802584 0.310972 0.558743
Si Si3 0.500000 0.823875 0.250000
Si Si4 0.096091 0.026640 0.918955
Si Si5 0.844615 0.819094 0.462728
Si Si6 0.448571 0.026590 0.434995
O O1 0.234170 0.128057 0.162882
O O2 0.104235 0.994916 0.309775
O O3 0.079833 0.210345 0.207793
O O4 0.138975 0.944418 0.121635
O O5 0.750000 0.250000 0.500000
O O6 0.858341 0.446922 0.495152
O O7 0.865210 0.185689 0.568395
O O8 0.497891 0.933916 0.335289
O O9 0.150396 0.900436 0.944269
O O10 0.000000 0.000000 0.000000
O O11 0.750000 0.750000 0.500000
O O12 0.921201 0.696158 0.423200
O O13 0.500000 0.000000 0.500000
#
# Coordination Sequence:
#
# PCOD9307532 Si02
#       6
#     8   8   4   8   8   8
#     4  12  26  45  78 104 148 196 245 296 377 432
#     4  12  23  49  72  99 146 194 239 296 362 436
#     4  12  26  46  72 106 146 198 236 300 376 430
#     4  12  27  47  74 105 144 196 245 296 368 440
#     4  12  25  47  72 108 143 184 245 306 358 428
#     4  12  26  45  72 107 144 184 243 304 361 429
#
# _framework density 21.094488999999999
#
# number of rings (size 3 to 8) (size 9 to 14) (size 15 to 20)
#    0.000    0.000    5.455    4.364    2.545    5.091 
#    0.000    0.000    0.000    0.000    0.000    0.000 
#    0.000    0.000    0.000    0.000    0.000    0.000 
#
# Total GULP energy -123124.999379 kJ/mol
# GULP energy per Si atom -5596.590881 kJ/mol
# Density = 2.104648 g / cm^3
# Si number density = 21.094489 Si / 1000 Ang^3
#
#
#
# Elastic Constant Matrix: (Units=GPa)
#
#
# Indices 1 2 3 4 5 6 
#
# 1 84.1810 30.2490 33.5375 0.0000 0.7710 0.0000
# 2 30.2490 126.7571 41.6025 0.0000 5.0385 0.0000
# 3 33.5375 41.6025 136.8689 0.0000 9.2395 0.0000
# 4 0.0000 0.0000 0.0000 44.3041 0.0000 -8.0371
# 5 0.7710 5.0385 9.2395 0.0000 41.2323 0.0000
# 6 0.0000 0.0000 0.0000 -8.0371 0.0000 38.7324
#
#
#
# Elastic Compliance Matrix: (Units=1/GPa)
#
#
# Indices 1 2 3 4 5 6 
#
# 1 0.013822 -0.002442 -0.002688 0.000000 0.000642 0.000000
# 2 -0.002442 0.009204 -0.002159 0.000000 -0.000595 0.000000
# 3 -0.002688 -0.002159 0.008732 0.000000 -0.001643 0.000000
# 4 0.000000 0.000000 0.000000 0.023454 0.000000 0.004867
# 5 0.000642 -0.000595 -0.001643 0.000000 0.024682 0.000000
# 6 0.000000 0.000000 0.000000 0.004867 0.000000 0.026828
#
#
# Mechanical properties :
#
#
# Convention : Reuss Voigt Hill
#
# Bulk Modulus (GPa) = 58.20680 62.06502 60.13591
# Shear Modulus (GPa) = 39.36207 41.01496 40.18851
#
# Velocity S-wave (km/s) = 4.32440 4.41426 4.36956
# Velocity P-wave (km/s) = 7.25170 7.44763 7.35032
#
# Compressibility (1/GPa) = 0.01718012
#
# Stress axis : x y z
#
# Youngs Moduli (GPa) = 72.35096 108.64723 114.52013
#
# Poissons Ratio (x) = 0.26528 0.30782
# Poissons Ratio (y) = 0.17666 0.24727
# Poissons Ratio (z) = 0.19447 0.23459
#
# Static dielectric constant tensor:
#      x y z
#    x 1.762500 0.000000 -0.028660 
#    y 0.000000 1.770840 0.000000 
#    z -0.028660 0.000000 1.738460 
# 
# From -- ./inp_files/159222.got.cif
#   From: 2010.05.17/outbox.cif.g08.bks.cpg/sg15_80_cif.got.tgz:159222.got - 2010.06.03 18:47:42.
