data_PCOD9307758
_publ_section_title
;
Structure prediction by ZEFSAII (Michael W. Deem and Ramdas Pophale) SiO2 
 PCOD9307758
Probable space group: C 2/C
;
_chemical_formula_sum "Si O2"
_cell_formula_units_Z 44
_cell_length_a 14.264579
_cell_length_b 11.384588
_cell_length_c 11.985092
_cell_angle_alpha 90.000000
_cell_angle_beta 99.601164
_cell_angle_gamma 90.000000
_cell_volume 1919.072253
_symmetry_space_group_name_H-M "C 2/C"
_symmetry_group_IT_number 15
_symmetry_cell_setting 'monoclinic'
loop_
_space_group_symop_operation_xyz
x,y,z
-x,y,1/2-z
-x,-y,-z
x,-y,1/2+z
1/2+x,1/2+y,z
1/2-x,1/2+y,1/2-z
1/2-x,1/2-y,-z
1/2+x,1/2-y,1/2+z
loop_
_atom_site_type_symbol
_atom_site_label
_atom_site_fract_x
_atom_site_fract_y
_atom_site_fract_z
Si Si1 0.000000 0.563194 0.750000
Si Si2 0.080626 0.194752 0.679271
Si Si3 0.868987 0.012509 0.165981
Si Si4 0.316383 0.348926 0.958292
Si Si5 0.513829 0.725010 0.412669
Si Si6 0.312009 0.915458 0.754597
O O1 0.970764 0.650377 0.643536
O O2 0.089500 0.484759 0.730693
O O3 0.169716 0.276890 0.724668
O O4 0.000000 0.235866 0.750000
O O5 0.051992 0.217071 0.546735
O O6 0.097545 0.060028 0.718032
O O7 0.759184 0.043136 0.164023
O O8 0.930127 0.125036 0.144690
O O9 0.870465 0.921646 0.064106
O O10 0.400200 0.296952 0.897614
O O11 0.245576 0.428083 0.871811
O O12 0.250000 0.250000 0.000000
#
# Coordination Sequence:
#
# PCOD9307758 Si02
#       6
#     4   8   8   8   8   8
#     4  12  30  50  72 110 154 204 254 308 388 446
#     4  12  26  50  76 109 151 200 253 312 383 445
#     4  12  27  46  78 110 148 198 258 312 379 450
#     4  12  24  47  74 109 147 195 247 314 377 447
#     4  12  28  48  78 110 155 196 257 318 374 456
#     4  12  28  47  73 108 152 200 250 313 378 456
#
# _framework density 22.927745999999999
#
# number of rings (size 3 to 8) (size 9 to 14) (size 15 to 20)
#    0.000    0.000    4.545    3.818    8.909    1.455 
#    0.000    0.000    0.000    0.000    0.000    0.000 
#    0.000    0.000    0.000    0.000    0.000    0.000 
#
# Total GULP energy -123216.252079 kJ/mol
# GULP energy per Si atom -5600.738731 kJ/mol
# Density = 2.287556 g / cm^3
# Si number density = 22.927746 Si / 1000 Ang^3
#
#
#
# Elastic Constant Matrix: (Units=GPa)
#
#
# Indices 1 2 3 4 5 6 
#
# 1 142.4747 48.8595 14.7704 0.0000 -25.7341 0.0000
# 2 48.8595 95.7959 21.4813 0.0000 -14.6466 0.0000
# 3 14.7704 21.4813 129.5765 0.0000 3.3134 0.0000
# 4 0.0000 0.0000 0.0000 34.0493 0.0000 8.1539
# 5 -25.7341 -14.6466 3.3134 0.0000 42.1175 0.0000
# 6 0.0000 0.0000 0.0000 8.1539 0.0000 47.4090
#
#
#
# Elastic Compliance Matrix: (Units=1/GPa)
#
#
# Indices 1 2 3 4 5 6 
#
# 1 0.009190 -0.003917 -0.000508 0.000000 0.004293 0.000000
# 2 -0.003917 0.013198 -0.001801 0.000000 0.002338 0.000000
# 3 -0.000508 -0.001801 0.008114 0.000000 -0.001575 0.000000
# 4 0.000000 0.000000 0.000000 0.030631 0.000000 -0.005268
# 5 0.004293 0.002338 -0.001575 0.000000 0.027303 0.000000
# 6 0.000000 0.000000 0.000000 -0.005268 0.000000 0.021999
#
#
# Mechanical properties :
#
#
# Convention : Reuss Voigt Hill
#
# Bulk Modulus (GPa) = 55.40199 59.78550 57.59374
# Shear Modulus (GPa) = 38.78832 43.56422 41.17627
#
# Velocity S-wave (km/s) = 4.11757 4.36370 4.24242
# Velocity P-wave (km/s) = 6.84266 7.17784 7.01225
#
# Compressibility (1/GPa) = 0.01804989
#
# Stress axis : x y z
#
# Youngs Moduli (GPa) = 108.81203 75.76853 123.24003
#
# Poissons Ratio (x) = 0.29679 0.06261
# Poissons Ratio (y) = 0.42622 0.22199
# Poissons Ratio (z) = 0.05528 0.13648
#
# Static dielectric constant tensor:
#      x y z
#    x 1.870780 0.000000 0.002260 
#    y 0.000000 1.831800 0.000000 
#    z 0.002260 0.000000 1.877420 
# 
# From -- ./inp_files/94983.got.cif
#   From: 2010.05.17/outbox.cif.g08.bks.cpg/sg15_48_cif.got.tgz:94983.got - 2010.06.03 18:47:42.
