data_PCOD9307421
_publ_section_title
;
Structure prediction by ZEFSAII (Michael W. Deem and Ramdas Pophale) SiO2 
 PCOD9307421
Probable space group: C 2/C
;
_chemical_formula_sum "Si O2"
_cell_formula_units_Z 36
_cell_length_a 6.645293
_cell_length_b 13.601256
_cell_length_c 24.073201
_cell_angle_alpha 90.000000
_cell_angle_beta 45.623253
_cell_angle_gamma 90.000000
_cell_volume 1555.196067
_symmetry_space_group_name_H-M "C 2/C"
_symmetry_group_IT_number 15
_symmetry_cell_setting 'monoclinic'
loop_
_space_group_symop_operation_xyz
x,y,z
-x,y,1/2-z
-x,-y,-z
x,-y,1/2+z
1/2+x,1/2+y,z
1/2-x,1/2+y,1/2-z
1/2-x,1/2-y,-z
1/2+x,1/2-y,1/2+z
loop_
_atom_site_type_symbol
_atom_site_label
_atom_site_fract_x
_atom_site_fract_y
_atom_site_fract_z
Si Si1 0.072371 0.168144 0.999400
Si Si2 0.064759 0.627617 0.340499
Si Si3 0.426208 0.338069 0.130614
Si Si4 0.000000 0.498787 0.750000
Si Si5 0.925856 0.464587 0.075257
O O1 0.774695 0.142981 0.085409
O O2 0.250000 0.250000 0.000000
O O3 0.018755 0.189212 0.944490
O O4 0.284376 0.076674 0.956716
O O5 0.129364 0.571864 0.271332
O O6 0.178186 0.737766 0.321597
O O7 0.168575 0.556208 0.369506
O O8 0.699647 0.378303 0.110492
O O9 0.213268 0.428336 0.177748
O O10 0.000000 0.500000 0.000000
#
# Coordination Sequence:
#
# PCOD9307421 Si02
#       5
#     8   8   8   4   8
#     4  12  23  46  78 112 145 185 249 318 361 427
#     4  12  26  48  76 109 147 195 245 305 373 435
#     4  12  27  49  73 108 149 195 249 304 367 437
#     4  12  30  48  70 108 154 198 242 288 368 466
#     4  12  23  43  78 109 146 185 245 308 371 427
#
# _framework density 23.148208
#
# number of rings (size 3 to 8) (size 9 to 14) (size 15 to 20)
#    0.000    0.000    6.667    4.000    0.000    6.222 
#    0.000    0.000    0.000    0.000    0.000    0.000 
#    0.000    0.000    0.000    0.000    0.000    0.000 
#
# Total GULP energy -100740.254748 kJ/mol
# GULP energy per Si atom -5596.680819 kJ/mol
# Density = 2.309552 g / cm^3
# Si number density = 23.148208 Si / 1000 Ang^3
#
#
#
# Elastic Constant Matrix: (Units=GPa)
#
#
# Indices 1 2 3 4 5 6 
#
# 1 96.8517 46.1623 36.4614 -0.0022 3.2584 0.0016
# 2 46.1623 170.5359 34.4382 -0.0002 23.3410 -0.0002
# 3 36.4614 34.4382 77.2508 -0.0020 15.7162 0.0012
# 4 -0.0022 -0.0002 -0.0020 29.4353 0.0017 12.3573
# 5 3.2584 23.3410 15.7162 0.0017 54.0291 -0.0012
# 6 0.0016 -0.0002 0.0012 12.3573 -0.0012 53.3006
#
#
#
# Elastic Compliance Matrix: (Units=1/GPa)
#
#
# Indices 1 2 3 4 5 6 
#
# 1 0.013738 -0.002863 -0.005624 0.000001 0.002044 0.000000
# 2 -0.002863 0.007266 -0.001365 0.000000 -0.002569 0.000000
# 3 -0.005624 -0.001365 0.017026 0.000001 -0.004024 -0.000001
# 4 0.000001 0.000000 0.000001 0.037636 -0.000002 -0.008726
# 5 0.002044 -0.002569 -0.004024 -0.000002 0.020666 0.000001
# 6 0.000000 0.000000 -0.000001 -0.008726 0.000001 0.020784
#
#
# Mechanical properties :
#
#
# Convention : Reuss Voigt Hill
#
# Bulk Modulus (GPa) = 54.56503 64.30690 59.43597
# Shear Modulus (GPa) = 34.98231 42.52477 38.75354
#
# Velocity S-wave (km/s) = 3.89167 4.29075 4.09607
# Velocity P-wave (km/s) = 6.61942 7.23797 6.93559
#
# Compressibility (1/GPa) = 0.01832676
#
# Stress axis : x y z
#
# Youngs Moduli (GPa) = 72.79098 137.62413 58.73211
#
# Poissons Ratio (x) = 0.39399 0.33030
# Poissons Ratio (y) = 0.20839 0.08019
# Poissons Ratio (z) = 0.40936 0.18790
#
# Static dielectric constant tensor:
#      x y z
#    x 2.011970 -0.000130 -0.029430 
#    y -0.000130 1.636180 -0.000010 
#    z -0.029430 -0.000010 1.840450 
# 
# From -- ./inp_files/226462.got.cif
#   From: 2010.05.17/outbox.cif.g08.bks.cpg/sg15_114_cif.got.tgz:226462.got - 2010.06.03 18:47:42.
