data_PCOD9307177
_publ_section_title
;
Structure prediction by ZEFSAII (Michael W. Deem and Ramdas Pophale) SiO2 
 PCOD9307177
Probable space group: C 2/C
;
_chemical_formula_sum "Si O2"
_cell_formula_units_Z 32
_cell_length_a 15.028217
_cell_length_b 19.586981
_cell_length_c 10.379053
_cell_angle_alpha 90.000000
_cell_angle_beta 153.770537
_cell_angle_gamma 90.000000
_cell_volume 1350.276526
_symmetry_space_group_name_H-M "C 2/C"
_symmetry_group_IT_number 15
_symmetry_cell_setting 'monoclinic'
loop_
_space_group_symop_operation_xyz
x,y,z
-x,y,1/2-z
-x,-y,-z
x,-y,1/2+z
1/2+x,1/2+y,z
1/2-x,1/2+y,1/2-z
1/2-x,1/2-y,-z
1/2+x,1/2-y,1/2+z
loop_
_atom_site_type_symbol
_atom_site_label
_atom_site_fract_x
_atom_site_fract_y
_atom_site_fract_z
Si Si1 0.729359 0.685423 0.566581
Si Si2 0.780166 0.644214 0.899807
Si Si3 0.215760 0.496649 0.711416
Si Si4 0.000000 0.900723 0.250000
Si Si5 0.000000 0.407209 0.250000
O O1 0.750000 0.750000 0.500000
O O2 0.762517 0.698469 0.761449
O O3 0.905604 0.636693 0.742236
O O4 0.500000 0.659399 0.250000
O O5 0.730291 0.572869 0.760578
O O6 0.622891 0.646400 0.811144
O O7 0.000000 0.640886 0.250000
O O8 0.000000 0.500000 0.500000
O O9 0.178761 0.454295 0.533341
O O10 0.358315 0.452057 0.985880
#
# Coordination Sequence:
#
# PCOD9307177 Si02
#       5
#     8   8   8   4   4
#     4  12  27  47  74 101 136 194 250 294 354 430
#     4  12  25  45  70 108 148 189 237 298 368 432
#     4  12  22  41  70 107 151 187 225 299 367 430
#     4  12  24  40  67 106 153 188 230 288 370 434
#     4  12  22  46  69 102 151 178 238 298 352 434
#
# _framework density 23.698851000000001
#
# number of rings (size 3 to 8) (size 9 to 14) (size 15 to 20)
#    0.000    0.000    7.500    2.250    1.750    0.000 
#    0.000    1.250    2.750    0.000    0.000    0.000 
#    0.000    0.000    0.000    0.000    0.000    0.000 
#
# Total GULP energy -89591.140592 kJ/mol
# GULP energy per Si atom -5599.446287 kJ/mol
# Density = 2.364491 g / cm^3
# Si number density = 23.698851 Si / 1000 Ang^3
#
#
#
# Elastic Constant Matrix: (Units=GPa)
#
#
# Indices 1 2 3 4 5 6 
#
# 1 197.7191 18.9414 39.6164 0.0000 -5.1704 0.0000
# 2 18.9414 48.3532 14.2056 0.0000 -15.1097 0.0000
# 3 39.6164 14.2056 149.5501 0.0000 -23.5810 0.0000
# 4 0.0000 0.0000 0.0000 21.9788 0.0000 -13.4134
# 5 -5.1704 -15.1097 -23.5810 0.0000 47.2614 0.0000
# 6 0.0000 0.0000 0.0000 -13.4134 0.0000 15.6597
#
#
#
# Elastic Compliance Matrix: (Units=1/GPa)
#
#
# Indices 1 2 3 4 5 6 
#
# 1 0.005505 -0.001975 -0.001384 0.000000 -0.000720 0.000000
# 2 -0.001975 0.023857 -0.000623 0.000000 0.007100 0.000000
# 3 -0.001384 -0.000623 0.007660 0.000000 0.003471 0.000000
# 4 0.000000 0.000000 0.000000 0.095332 0.000000 0.081657
# 5 -0.000720 0.007100 0.003471 0.000000 0.025082 0.000000
# 6 0.000000 0.000000 0.000000 0.081657 0.000000 0.133802
#
#
# Mechanical properties :
#
#
# Convention : Reuss Voigt Hill
#
# Bulk Modulus (GPa) = 34.41546 60.12770 47.27158
# Shear Modulus (GPa) = 16.18705 38.50393 27.34549
#
# Velocity S-wave (km/s) = 2.61632 4.03515 3.40056
# Velocity P-wave (km/s) = 4.86625 6.86561 5.95050
#
# Compressibility (1/GPa) = 0.02905671
#
# Stress axis : x y z
#
# Youngs Moduli (GPa) = 181.63917 41.91721 130.54855
#
# Poissons Ratio (x) = 0.08278 0.18072
# Poissons Ratio (y) = 0.35871 0.08139
# Poissons Ratio (z) = 0.25145 0.02613
#
# Static dielectric constant tensor:
#      x y z
#    x 1.942840 0.000000 -0.029870 
#    y 0.000000 2.114770 0.000000 
#    z -0.029870 0.000000 1.902370 
# 
# From -- ./inp_files/24752.got.cif
#   From: 2010.05.17/outbox.cif.g08.bks.cpg/sg15_13_cif.got.tgz:24752.got - 2010.06.03 18:47:42.
