data_PCOD9307092
_publ_section_title
;
Structure prediction by ZEFSAII (Michael W. Deem and Ramdas Pophale) SiO2 
 PCOD9307092
Probable space group: C 2/C
;
_chemical_formula_sum "Si O2"
_cell_formula_units_Z 60
_cell_length_a 26.015997
_cell_length_b 18.468281
_cell_length_c 14.265966
_cell_angle_alpha 90.000000
_cell_angle_beta 157.575601
_cell_angle_gamma 90.000000
_cell_volume 2614.699304
_symmetry_space_group_name_H-M "C 2/C"
_symmetry_group_IT_number 15
_symmetry_cell_setting 'monoclinic'
loop_
_space_group_symop_operation_xyz
x,y,z
-x,y,1/2-z
-x,-y,-z
x,-y,1/2+z
1/2+x,1/2+y,z
1/2-x,1/2+y,1/2-z
1/2-x,1/2-y,-z
1/2+x,1/2-y,1/2+z
loop_
_atom_site_type_symbol
_atom_site_label
_atom_site_fract_x
_atom_site_fract_y
_atom_site_fract_z
Si Si1 0.610660 0.643829 0.283642
Si Si2 0.723809 0.899264 0.937165
Si Si3 0.017010 0.906747 0.377491
Si Si4 0.703666 0.961703 0.280695
Si Si5 0.000000 0.254806 0.250000
Si Si6 0.478061 0.155584 0.100802
Si Si7 0.790303 0.791081 0.746452
Si Si8 0.354869 0.457471 0.337455
O O1 0.712343 0.586637 0.503026
O O2 0.569570 0.705963 0.287731
O O3 0.676452 0.679652 0.302359
O O4 0.468352 0.604009 0.028011
O O5 0.619943 0.835444 0.785896
O O6 0.687326 0.958465 0.796207
O O7 0.748465 0.943181 0.076184
O O8 0.874847 0.874298 0.167425
O O9 0.124768 0.844674 0.545424
O O10 0.000000 0.946704 0.250000
O O11 0.072195 0.964954 0.543609
O O12 0.783528 0.959056 0.317583
O O13 0.568250 0.920676 0.022343
O O14 0.133221 0.296577 0.508007
O O15 0.500000 0.154230 0.250000
O O16 0.360639 0.212994 0.878774
#
# Coordination Sequence:
#
# PCOD9307092 Si02
#       8
#     8   8   8   8   4   8   8   8
#     4  12  22  45  77 103 134 190 248 300 351 434
#     4  12  25  43  75 107 143 188 240 302 360 423
#     4  12  24  43  69 106 143 185 239 300 358 428
#     4  12  23  46  77 104 141 192 247 300 358 435
#     4  12  26  46  72 102 134 194 242 292 354 432
#     4  12  27  49  70 103 149 200 240 293 367 441
#     4  12  28  46  72 105 147 187 247 295 363 437
#     4  12  21  45  78 105 141 190 247 298 362 434
#
# _framework density 22.947189000000002
#
# number of rings (size 3 to 8) (size 9 to 14) (size 15 to 20)
#    0.000    0.000    8.000    2.400    0.000    1.600 
#    0.000    1.333    0.000    0.000    0.000    0.000 
#    0.000    0.000    0.000    0.000    0.000    0.000 
#
# Total GULP energy -167714.804502 kJ/mol
# GULP energy per Si atom -5590.493483 kJ/mol
# Density = 2.289496 g / cm^3
# Si number density = 22.947189 Si / 1000 Ang^3
#
#
#
# Elastic Constant Matrix: (Units=GPa)
#
#
# Indices 1 2 3 4 5 6 
#
# 1 108.3838 -0.9263 26.5112 0.0000 -5.2137 0.0000
# 2 -0.9263 46.9869 25.0765 0.0000 4.7471 0.0000
# 3 26.5112 25.0765 100.7783 0.0000 24.8471 0.0000
# 4 0.0000 0.0000 0.0000 41.6672 0.0000 -1.7292
# 5 -5.2137 4.7471 24.8471 0.0000 44.3751 0.0000
# 6 0.0000 0.0000 0.0000 -1.7292 0.0000 21.3017
#
#
#
# Elastic Compliance Matrix: (Units=1/GPa)
#
#
# Indices 1 2 3 4 5 6 
#
# 1 0.010391 0.002034 -0.004045 0.000000 0.003268 0.000000
# 2 0.002034 0.024972 -0.007134 0.000000 0.001562 0.000000
# 3 -0.004045 -0.007134 0.014724 0.000000 -0.007956 0.000000
# 4 0.000000 0.000000 0.000000 0.024081 0.000000 0.001955
# 5 0.003268 0.001562 -0.007956 0.000000 0.027207 0.000000
# 6 0.000000 0.000000 0.000000 0.001955 0.000000 0.047103
#
#
# Mechanical properties :
#
#
# Convention : Reuss Voigt Hill
#
# Bulk Modulus (GPa) = 31.45115 39.71909 35.58512
# Shear Modulus (GPa) = 28.19017 35.16798 31.67907
#
# Velocity S-wave (km/s) = 3.50877 3.91904 3.71957
# Velocity P-wave (km/s) = 5.49099 6.15020 5.82992
#
# Compressibility (1/GPa) = 0.03179534
#
# Stress axis : x y z
#
# Youngs Moduli (GPa) = 96.24135 40.04477 67.91779
#
# Poissons Ratio (x) = -0.08143 0.27474
# Poissons Ratio (y) = -0.19571 0.48451
# Poissons Ratio (z) = 0.38931 0.28567
#
# Static dielectric constant tensor:
#      x y z
#    x 1.897240 0.000000 -0.016730 
#    y 0.000000 1.878160 0.000000 
#    z -0.016730 0.000000 1.925610 
# 
# From -- ./inp_files/179136.got.cif
#   From: 2010.05.17/outbox.cif.g08.bks.cpg/sg15_90_cif.got.tgz:179136.got - 2010.06.03 18:47:42.
