data_PCOD9307663
_publ_section_title
;
Structure prediction by ZEFSAII (Michael W. Deem and Ramdas Pophale) SiO2 
 PCOD9307663
Probable space group: C 2/C
;
_chemical_formula_sum "Si O2"
_cell_formula_units_Z 32
_cell_length_a 18.982943
_cell_length_b 4.636474
_cell_length_c 13.579001
_cell_angle_alpha 90.000000
_cell_angle_beta 93.650153
_cell_angle_gamma 90.000000
_cell_volume 1192.716647
_symmetry_space_group_name_H-M "C 2/C"
_symmetry_group_IT_number 15
_symmetry_cell_setting 'monoclinic'
loop_
_space_group_symop_operation_xyz
x,y,z
-x,y,1/2-z
-x,-y,-z
x,-y,1/2+z
1/2+x,1/2+y,z
1/2-x,1/2+y,1/2-z
1/2-x,1/2-y,-z
1/2+x,1/2-y,1/2+z
loop_
_atom_site_type_symbol
_atom_site_label
_atom_site_fract_x
_atom_site_fract_y
_atom_site_fract_z
Si Si1 0.939526 0.312996 0.044570
Si Si2 0.398400 0.344224 0.162374
Si Si3 0.742519 0.042808 0.096082
Si Si4 0.651392 0.480743 0.135867
O O1 0.907665 0.516297 0.128246
O O2 0.956073 0.023538 0.105480
O O3 0.888350 0.193615 0.954327
O O4 0.000000 0.500000 0.000000
O O5 0.319658 0.421562 0.119404
O O6 0.398538 0.456153 0.273973
O O7 0.717631 0.278916 0.172473
O O8 0.750000 0.250000 0.000000
O O9 0.815116 0.718412 0.899886
#
# Coordination Sequence:
#
# PCOD9307663 Si02
#       4
#     8   8   8   8
#     4  12  28  49  75 107 153 208 269 318 371 455
#     4  12  26  48  76 114 152 203 259 318 396 468
#     4  12  24  44  77 114 156 195 247 321 408 475
#     4  12  26  46  77 112 157 203 253 322 399 469
#
# _framework density 26.829505000000001
#
# number of rings (size 3 to 8) (size 9 to 14) (size 15 to 20)
#    0.000    0.000    2.500    7.500    0.000    1.000 
#    0.000    2.500    0.000    0.000    0.000    0.000 
#    0.000    0.000    0.000    0.000    0.000    0.000 
#
# Total GULP energy -89424.534377 kJ/mol
# GULP energy per Si atom -5589.033399 kJ/mol
# Density = 2.676844 g / cm^3
# Si number density = 26.829505 Si / 1000 Ang^3
#
#
#
# Elastic Constant Matrix: (Units=GPa)
#
#
# Indices 1 2 3 4 5 6 
#
# 1 96.3910 53.9072 56.8127 0.0000 -9.7106 0.0000
# 2 53.9072 214.5069 73.9171 0.0000 -6.4897 0.0000
# 3 56.8127 73.9171 160.3527 0.0000 -19.1747 0.0000
# 4 0.0000 0.0000 0.0000 47.8858 0.0000 -27.4758
# 5 -9.7106 -6.4897 -19.1747 0.0000 36.2303 0.0000
# 6 0.0000 0.0000 0.0000 -27.4758 0.0000 66.6112
#
#
#
# Elastic Compliance Matrix: (Units=1/GPa)
#
#
# Indices 1 2 3 4 5 6 
#
# 1 0.013949 -0.002160 -0.003785 0.000000 0.001349 0.000000
# 2 -0.002160 0.005882 -0.002017 0.000000 -0.000593 0.000000
# 3 -0.003785 -0.002017 0.008906 0.000000 0.003338 0.000000
# 4 0.000000 0.000000 0.000000 0.027358 0.000000 0.011285
# 5 0.001349 -0.000593 0.003338 0.000000 0.029623 0.000000
# 6 0.000000 0.000000 0.000000 0.011285 0.000000 0.019667
#
#
# Mechanical properties :
#
#
# Convention : Reuss Voigt Hill
#
# Bulk Modulus (GPa) = 78.04767 93.39163 85.71965
# Shear Modulus (GPa) = 39.81496 49.25303 44.53399
#
# Velocity S-wave (km/s) = 3.85645 4.28925 4.07859
# Velocity P-wave (km/s) = 6.99879 7.70812 7.36200
#
# Compressibility (1/GPa) = 0.01281268
#
# Stress axis : x y z
#
# Youngs Moduli (GPa) = 71.68727 170.01537 112.28282
#
# Poissons Ratio (x) = 0.36732 0.42500
# Poissons Ratio (y) = 0.15488 0.22645
# Poissons Ratio (z) = 0.27134 0.34288
#
# Static dielectric constant tensor:
#      x y z
#    x 2.232120 0.000000 -0.018850 
#    y 0.000000 2.088120 0.000000 
#    z -0.018850 0.000000 2.274350 
# 
# From -- ./inp_files/109053.got.cif
#   From: 2010.05.17/outbox.cif.g08.bks.cpg/sg15_55_cif.got.tgz:109053.got - 2010.06.03 18:47:42.
