data_PCOD9307176
_publ_section_title
;
Structure prediction by ZEFSAII (Michael W. Deem and Ramdas Pophale) SiO2 
 PCOD9307176
Probable space group: C 2/C
;
_chemical_formula_sum "Si O2"
_cell_formula_units_Z 32
_cell_length_a 7.734898
_cell_length_b 22.049856
_cell_length_c 11.483778
_cell_angle_alpha 90.000000
_cell_angle_beta 130.043090
_cell_angle_gamma 90.000000
_cell_volume 1499.425285
_symmetry_space_group_name_H-M "C 2/C"
_symmetry_group_IT_number 15
_symmetry_cell_setting 'monoclinic'
loop_
_space_group_symop_operation_xyz
x,y,z
-x,y,1/2-z
-x,-y,-z
x,-y,1/2+z
1/2+x,1/2+y,z
1/2-x,1/2+y,1/2-z
1/2-x,1/2-y,-z
1/2+x,1/2-y,1/2+z
loop_
_atom_site_type_symbol
_atom_site_label
_atom_site_fract_x
_atom_site_fract_y
_atom_site_fract_z
Si Si1 0.472621 0.277617 0.539759
Si Si2 0.909922 0.321418 0.841847
Si Si3 0.053535 0.882383 0.151784
Si Si4 0.609158 0.934624 0.041782
O O1 0.250000 0.250000 0.500000
O O2 0.663773 0.293491 0.715195
O O3 0.546380 0.226412 0.479160
O O4 0.426829 0.338804 0.447606
O O5 0.000000 0.329137 0.750000
O O6 0.932829 0.384784 0.919213
O O7 0.281440 0.916976 0.285838
O O8 0.000000 0.845968 0.250000
O O9 0.833138 0.926353 0.055609
O O10 0.500000 0.000000 0.000000
#
# Coordination Sequence:
#
# PCOD9307176 Si02
#       4
#     8   8   8   8
#     4  12  24  40  63 104 138 171 224 292 353 411
#     4  12  22  41  69  95 133 184 227 278 353 412
#     4   8  19  41  69  93 133 176 228 277 345 396
#     4   9  20  41  69  95 127 179 242 276 325 410
#
# _framework density 21.341512000000002
#
# number of rings (size 3 to 8) (size 9 to 14) (size 15 to 20)
#    1.500    0.000    2.500    3.750    0.000    0.000 
#    9.000    3.750    0.000    0.000    0.000    0.000 
#    0.000    0.000    0.000    0.000    0.000    0.000 
#
# Total GULP energy -89199.561594 kJ/mol
# GULP energy per Si atom -5574.972600 kJ/mol
# Density = 2.129294 g / cm^3
# Si number density = 21.341512 Si / 1000 Ang^3
#
#
#
# Elastic Constant Matrix: (Units=GPa)
#
#
# Indices 1 2 3 4 5 6 
#
# 1 80.0062 50.5946 42.0276 0.0000 10.2856 0.0000
# 2 50.5946 176.5714 95.2778 0.0000 13.1924 0.0000
# 3 42.0276 95.2778 149.2438 0.0000 24.5563 0.0000
# 4 0.0000 0.0000 0.0000 35.4811 0.0000 5.6601
# 5 10.2856 13.1924 24.5563 0.0000 24.9762 0.0000
# 6 0.0000 0.0000 0.0000 5.6601 0.0000 33.6562
#
#
#
# Elastic Compliance Matrix: (Units=1/GPa)
#
#
# Indices 1 2 3 4 5 6 
#
# 1 0.015982 -0.003345 -0.001876 0.000000 -0.002970 0.000000
# 2 -0.003345 0.009362 -0.005306 0.000000 0.001650 0.000000
# 3 -0.001876 -0.005306 0.011963 0.000000 -0.008187 0.000000
# 4 0.000000 0.000000 0.000000 0.028961 0.000000 -0.004870
# 5 -0.002970 0.001650 -0.008187 0.000000 0.048439 0.000000
# 6 0.000000 0.000000 0.000000 -0.004870 0.000000 0.030531
#
#
# Mechanical properties :
#
#
# Convention : Reuss Voigt Hill
#
# Bulk Modulus (GPa) = 61.53089 86.84681 74.18885
# Shear Modulus (GPa) = 29.11873 33.35078 31.23475
#
# Velocity S-wave (km/s) = 3.69781 3.95741 3.82981
# Velocity P-wave (km/s) = 6.86483 7.85262 7.37528
#
# Compressibility (1/GPa) = 0.01625200
#
# Stress axis : x y z
#
# Youngs Moduli (GPa) = 62.57092 106.81696 83.58897
#
# Poissons Ratio (x) = 0.35730 0.15685
# Poissons Ratio (y) = 0.20930 0.44353
# Poissons Ratio (z) = 0.11741 0.56678
#
# Static dielectric constant tensor:
#      x y z
#    x 2.083910 0.000000 0.118650 
#    y 0.000000 1.746230 0.000000 
#    z 0.118650 0.000000 1.875200 
# 
# From -- ./inp_files/79633.got.cif
#   From: 2010.05.17/outbox.cif.g08.bks.cpg/sg15_40_cif.got.tgz:79633.got - 2010.06.03 18:47:42.
