data_PCOD9307975
_publ_section_title
;
Structure prediction by ZEFSAII (Michael W. Deem and Ramdas Pophale) SiO2 
 PCOD9307975
Probable space group: C 2/C
;
_chemical_formula_sum "Si O2"
_cell_formula_units_Z 32
_cell_length_a 22.883948
_cell_length_b 11.633101
_cell_length_c 12.995173
_cell_angle_alpha 90.000000
_cell_angle_beta 22.046484
_cell_angle_gamma 90.000000
_cell_volume 1298.538992
_symmetry_space_group_name_H-M "C 2/C"
_symmetry_group_IT_number 15
_symmetry_cell_setting 'monoclinic'
loop_
_space_group_symop_operation_xyz
x,y,z
-x,y,1/2-z
-x,-y,-z
x,-y,1/2+z
1/2+x,1/2+y,z
1/2-x,1/2+y,1/2-z
1/2-x,1/2-y,-z
1/2+x,1/2-y,1/2+z
loop_
_atom_site_type_symbol
_atom_site_label
_atom_site_fract_x
_atom_site_fract_y
_atom_site_fract_z
Si Si1 0.500000 0.737753 0.750000
Si Si2 0.649033 0.445297 0.702773
Si Si3 0.717062 0.847435 0.822811
Si Si4 0.019481 0.455508 0.853330
Si Si5 0.000000 0.842664 0.750000
O O1 0.652511 0.661792 0.478419
O O2 0.505844 0.825982 0.643802
O O3 0.704339 0.346580 0.692055
O O4 0.797195 0.527171 0.463227
O O5 0.605988 0.410931 0.657356
O O6 0.500000 0.500000 0.000000
O O7 0.608685 0.960592 0.990955
O O8 0.603902 0.738472 0.007200
O O9 0.000000 0.500000 0.000000
#
# Coordination Sequence:
#
# PCOD9307975 Si02
#       5
#     4   8   8   8   4
#     4  12  27  49  80 116 150 204 253 313 386 446
#     4  12  27  47  76 109 150 198 252 313 382 453
#     4  12  27  50  76 111 154 198 256 312 380 456
#     4  12  27  51  76 112 157 197 254 318 375 454
#     4  12  25  47  74 104 148 202 245 309 386 450
#
# _framework density 24.643080999999999
#
# number of rings (size 3 to 8) (size 9 to 14) (size 15 to 20)
#    0.000    0.000    5.000    3.750   10.500    1.000 
#    0.000    0.000    0.000    0.000    0.000    0.000 
#    0.000    0.000    0.000    0.000    0.000    0.000 
#
# Total GULP energy -89457.653403 kJ/mol
# GULP energy per Si atom -5591.103338 kJ/mol
# Density = 2.458699 g / cm^3
# Si number density = 24.643081 Si / 1000 Ang^3
#
#
#
# Elastic Constant Matrix: (Units=GPa)
#
#
# Indices 1 2 3 4 5 6 
#
# 1 135.1516 12.5709 -4.2394 0.0000 -24.5355 0.0000
# 2 12.5709 66.0699 36.0512 0.0000 -19.8739 0.0000
# 3 -4.2394 36.0512 185.6107 0.0001 -2.4386 0.0000
# 4 0.0000 0.0000 0.0001 35.7118 0.0000 5.2402
# 5 -24.5355 -19.8739 -2.4386 0.0000 41.3335 0.0000
# 6 0.0000 0.0000 0.0000 5.2402 0.0000 5.1229
#
#
#
# Elastic Compliance Matrix: (Units=1/GPa)
#
#
# Indices 1 2 3 4 5 6 
#
# 1 0.008309 -0.000307 0.000312 0.000000 0.004804 0.000000
# 2 -0.000307 0.020029 -0.003776 0.000000 0.009226 0.000000
# 3 0.000312 -0.003776 0.006112 0.000000 -0.001270 0.000000
# 4 0.000000 0.000000 0.000000 0.032947 0.000000 -0.033701
# 5 0.004804 0.009226 -0.001270 0.000000 0.031406 0.000000
# 6 0.000000 0.000000 0.000000 -0.033701 0.000000 0.229675
#
#
# Mechanical properties :
#
#
# Convention : Reuss Voigt Hill
#
# Bulk Modulus (GPa) = 37.16114 52.84419 45.00266
# Shear Modulus (GPa) = 14.49323 39.26360 26.87842
#
# Velocity S-wave (km/s) = 2.42776 3.99594 3.30617
# Velocity P-wave (km/s) = 4.79283 6.54067 5.73374
#
# Compressibility (1/GPa) = 0.02690983
#
# Stress axis : x y z
#
# Youngs Moduli (GPa) = 120.34496 49.92664 163.62566
#
# Poissons Ratio (x) = 0.01531 -0.05112
# Poissons Ratio (y) = 0.03690 0.61787
# Poissons Ratio (z) = -0.03760 0.18853
#
# Static dielectric constant tensor:
#      x y z
#    x 2.023760 0.000000 0.066400 
#    y 0.000000 1.818150 0.000000 
#    z 0.066400 0.000000 1.960570 
# 
# From -- ./inp_files/105617.got.cif
#   From: 2010.05.17/outbox.cif.g08.bks.cpg/sg15_53_cif.got.tgz:105617.got - 2010.06.03 18:47:42.
