data_PCOD9307357
_publ_section_title
;
Structure prediction by ZEFSAII (Michael W. Deem and Ramdas Pophale) SiO2 
 PCOD9307357
Probable space group: C 2/C
;
_chemical_formula_sum "Si O2"
_cell_formula_units_Z 44
_cell_length_a 10.855206
_cell_length_b 30.939141
_cell_length_c 6.220294
_cell_angle_alpha 90.000000
_cell_angle_beta 108.781039
_cell_angle_gamma 90.000000
_cell_volume 1977.858570
_symmetry_space_group_name_H-M "C 2/C"
_symmetry_group_IT_number 15
_symmetry_cell_setting 'monoclinic'
loop_
_space_group_symop_operation_xyz
x,y,z
-x,y,1/2-z
-x,-y,-z
x,-y,1/2+z
1/2+x,1/2+y,z
1/2-x,1/2+y,1/2-z
1/2-x,1/2-y,-z
1/2+x,1/2-y,1/2+z
loop_
_atom_site_type_symbol
_atom_site_label
_atom_site_fract_x
_atom_site_fract_y
_atom_site_fract_z
Si Si1 0.856011 0.751188 0.743959
Si Si2 0.500000 0.019867 0.750000
Si Si3 0.000000 0.399034 0.750000
Si Si4 0.000000 0.896176 0.750000
Si Si5 0.162485 0.651385 0.680448
Si Si6 0.894875 0.829019 0.036327
Si Si7 0.708250 0.081244 0.039618
O O1 0.750000 0.750000 0.500000
O O2 0.865633 0.702131 0.827367
O O3 0.000000 0.764294 0.750000
O O4 0.819166 0.790244 0.879524
O O5 0.631504 0.048860 0.837340
O O6 0.500000 0.000000 0.500000
O O7 0.126868 0.422413 0.717846
O O8 0.946137 0.371583 0.521963
O O9 0.034321 0.863059 0.576706
O O10 0.864709 0.922658 0.643319
O O11 0.295156 0.645189 0.625821
O O12 0.184763 0.628809 0.922065
O O13 0.000000 0.807087 0.250000
#
# Coordination Sequence:
#
# PCOD9307357 Si02
#       7
#     8   4   4   4   8   8   8
#     4  12  26  42  60  90 145 199 256 316 382 433
#     4  12  29  54  87 122 162 196 238 306 389 480
#     4  12  23  40  72 104 144 185 255 312 368 428
#     4  12  24  46  71 108 148 193 249 308 363 452
#     4  12  25  40  69 101 136 194 264 318 363 443
#     4  12  24  42  65  97 145 198 251 315 385 421
#     4  12  25  48  77 113 146 195 246 303 375 461
#
# _framework density 22.246279999999999
#
# number of rings (size 3 to 8) (size 9 to 14) (size 15 to 20)
#    0.000    0.000    6.364    4.364    3.818    0.000 
#    0.000    0.909    0.000    0.000    0.000    0.000 
#    0.000    0.000    0.000    0.000    0.000    0.000 
#
# Total GULP energy -122761.735636 kJ/mol
# GULP energy per Si atom -5580.078893 kJ/mol
# Density = 2.219565 g / cm^3
# Si number density = 22.246280 Si / 1000 Ang^3
#
#
#
# Elastic Constant Matrix: (Units=GPa)
#
#
# Indices 1 2 3 4 5 6 
#
# 1 171.4120 31.8089 61.2893 0.0000 -0.2856 0.0000
# 2 31.8089 64.2410 28.4943 0.0000 7.3243 0.0000
# 3 61.2893 28.4943 95.9587 0.0000 11.2276 0.0000
# 4 0.0000 0.0000 0.0000 46.7657 0.0000 5.8258
# 5 -0.2856 7.3243 11.2276 0.0000 60.8498 0.0000
# 6 0.0000 0.0000 0.0000 5.8258 0.0000 21.0118
#
#
#
# Elastic Compliance Matrix: (Units=1/GPa)
#
#
# Indices 1 2 3 4 5 6 
#
# 1 0.007828 -0.001990 -0.004539 0.000000 0.001114 0.000000
# 2 -0.001990 0.018520 -0.004054 0.000000 -0.001490 0.000000
# 3 -0.004539 -0.004054 0.014789 0.000000 -0.002262 0.000000
# 4 0.000000 0.000000 0.000000 0.022148 0.000000 -0.006141
# 5 0.001114 -0.001490 -0.002262 0.000000 0.017036 0.000000
# 6 0.000000 0.000000 0.000000 -0.006141 0.000000 0.049295
#
#
# Mechanical properties :
#
#
# Convention : Reuss Voigt Hill
#
# Bulk Modulus (GPa) = 50.07374 63.86632 56.97003
# Shear Modulus (GPa) = 31.75839 39.72673 35.74256
#
# Velocity S-wave (km/s) = 3.78243 4.23042 4.01268
# Velocity P-wave (km/s) = 6.45240 7.25486 6.86536
#
# Compressibility (1/GPa) = 0.01997055
#
# Stress axis : x y z
#
# Youngs Moduli (GPa) = 127.74625 53.99656 67.61802
#
# Poissons Ratio (x) = 0.10743 0.30694
# Poissons Ratio (y) = 0.25416 0.27413
# Poissons Ratio (z) = 0.57988 0.21891
#
# Static dielectric constant tensor:
#      x y z
#    x 1.847610 0.000000 -0.044450 
#    y 0.000000 1.849300 0.000000 
#    z -0.044450 0.000000 1.877460 
# 
# From -- ./inp_files/5899.got.cif
#   From: 2010.05.17/outbox.cif.g08.bks.cpg/sg15_3_cif.got.tgz:5899.got - 2010.06.03 18:47:42.
