data_PCOD9307984
_publ_section_title
;
Structure prediction by ZEFSAII (Michael W. Deem and Ramdas Pophale) SiO2 
 PCOD9307984
Probable space group: C 2/C
;
_chemical_formula_sum "Si O2"
_cell_formula_units_Z 48
_cell_length_a 12.020706
_cell_length_b 26.413278
_cell_length_c 10.230511
_cell_angle_alpha 90.000000
_cell_angle_beta 143.003049
_cell_angle_gamma 90.000000
_cell_volume 1954.708305
_symmetry_space_group_name_H-M "C 2/C"
_symmetry_group_IT_number 15
_symmetry_cell_setting 'monoclinic'
loop_
_space_group_symop_operation_xyz
x,y,z
-x,y,1/2-z
-x,-y,-z
x,-y,1/2+z
1/2+x,1/2+y,z
1/2-x,1/2+y,1/2-z
1/2-x,1/2-y,-z
1/2+x,1/2-y,1/2+z
loop_
_atom_site_type_symbol
_atom_site_label
_atom_site_fract_x
_atom_site_fract_y
_atom_site_fract_z
Si Si1 0.782522 0.895180 0.030830
Si Si2 0.774219 0.143838 0.263895
Si Si3 0.362534 0.143017 0.825321
Si Si4 0.618810 0.004190 0.243090
Si Si5 0.581330 0.428587 0.963510
Si Si6 0.363688 0.748049 0.214131
O O1 0.706018 0.878871 0.100094
O O2 0.000000 0.905591 0.250000
O O3 0.751511 0.849924 0.898027
O O4 0.680312 0.942973 0.868164
O O5 0.856364 0.193271 0.273645
O O6 0.914453 0.097387 0.381643
O O7 0.577802 0.130672 0.017755
O O8 0.234999 0.115806 0.598703
O O9 0.345979 0.202870 0.789137
O O10 0.500000 0.979168 0.250000
O O11 0.805593 0.975462 0.377516
O O12 0.500000 0.000000 0.000000
O O13 0.500000 0.444291 0.750000
O O14 0.616604 0.751886 0.430263
#
# Coordination Sequence:
#
# PCOD9307984 Si02
#       6
#     8   8   8   8   8   8
#     4  12  27  51  78 111 160 207 269 333 403 493
#     4  12  26  47  79 111 160 208 268 328 406 477
#     4  12  27  50  78 113 162 213 262 336 408 479
#     4  12  29  52  82 116 162 213 272 336 412 486
#     4  12  28  45  76 118 154 203 268 327 398 475
#     4  12  25  47  76 114 160 205 265 333 394 478
#
# _framework density 24.556090999999999
#
# number of rings (size 3 to 8) (size 9 to 14) (size 15 to 20)
#    0.000    0.000    3.333    6.500    4.667    1.333 
#    0.000    0.000    0.000    0.000    0.000    0.000 
#    0.000    0.000    0.000    0.000    0.000    0.000 
#
# Total GULP energy -134276.809088 kJ/mol
# GULP energy per Si atom -5594.867045 kJ/mol
# Density = 2.450020 g / cm^3
# Si number density = 24.556091 Si / 1000 Ang^3
#
#
#
# Elastic Constant Matrix: (Units=GPa)
#
#
# Indices 1 2 3 4 5 6 
#
# 1 124.1997 69.7608 59.4400 0.0000 16.6484 0.0000
# 2 69.7608 134.1072 50.1943 0.0000 4.8113 0.0000
# 3 59.4400 50.1943 199.0120 0.0000 17.2563 0.0000
# 4 0.0000 0.0000 0.0000 51.6188 0.0000 9.8839
# 5 16.6484 4.8113 17.2563 0.0000 52.2517 0.0000
# 6 0.0000 0.0000 0.0000 9.8839 0.0000 34.0936
#
#
#
# Elastic Compliance Matrix: (Units=1/GPa)
#
#
# Indices 1 2 3 4 5 6 
#
# 1 0.012620 -0.005681 -0.002093 0.000000 -0.002807 0.000000
# 2 -0.005681 0.010791 -0.001128 0.000000 0.001189 0.000000
# 3 -0.002093 -0.001128 0.006041 0.000000 -0.001224 0.000000
# 4 0.000000 0.000000 0.000000 0.020511 0.000000 -0.005946
# 5 -0.002807 0.001189 -0.001224 0.000000 0.020327 0.000000
# 6 0.000000 0.000000 0.000000 -0.005946 0.000000 0.031055
#
#
# Mechanical properties :
#
#
# Convention : Reuss Voigt Hill
#
# Bulk Modulus (GPa) = 85.85084 90.67879 88.26482
# Shear Modulus (GPa) = 40.63951 46.12108 43.38029
#
# Velocity S-wave (km/s) = 4.07254 4.33851 4.20763
# Velocity P-wave (km/s) = 7.55984 7.88063 7.72190
#
# Compressibility (1/GPa) = 0.01164811
#
# Stress axis : x y z
#
# Youngs Moduli (GPa) = 79.23709 92.66656 165.54367
#
# Poissons Ratio (x) = 0.52642 0.34652
# Poissons Ratio (y) = 0.45013 0.18676
# Poissons Ratio (z) = 0.16586 0.10454
#
# Static dielectric constant tensor:
#      x y z
#    x 2.284970 0.000000 0.499590 
#    y 0.000000 1.908390 0.000000 
#    z 0.499590 0.000000 2.744490 
# 
# From -- ./inp_files/101679.got.cif
#   From: 2010.05.17/outbox.cif.g08.bks.cpg/sg15_51_cif.got.tgz:101679.got - 2010.06.03 18:47:42.
