data_PCOD9307379
_publ_section_title
;
Structure prediction by ZEFSAII (Michael W. Deem and Ramdas Pophale) SiO2 
 PCOD9307379
Probable space group: C 2/C
;
_chemical_formula_sum "Si O2"
_cell_formula_units_Z 48
_cell_length_a 12.126472
_cell_length_b 19.976709
_cell_length_c 13.773746
_cell_angle_alpha 90.000000
_cell_angle_beta 138.707390
_cell_angle_gamma 90.000000
_cell_volume 2201.870361
_symmetry_space_group_name_H-M "C 2/C"
_symmetry_group_IT_number 15
_symmetry_cell_setting 'monoclinic'
loop_
_space_group_symop_operation_xyz
x,y,z
-x,y,1/2-z
-x,-y,-z
x,-y,1/2+z
1/2+x,1/2+y,z
1/2-x,1/2+y,1/2-z
1/2-x,1/2-y,-z
1/2+x,1/2-y,1/2+z
loop_
_atom_site_type_symbol
_atom_site_label
_atom_site_fract_x
_atom_site_fract_y
_atom_site_fract_z
Si Si1 0.198318 0.383379 0.504630
Si Si2 0.174000 0.175396 0.599899
Si Si3 0.177614 0.968160 0.417505
Si Si4 0.694468 0.312661 0.733591
Si Si5 0.334498 0.064319 0.824485
Si Si6 0.834596 0.572583 0.205199
O O1 0.209135 0.337517 0.416934
O O2 0.281265 0.454424 0.534709
O O3 0.299523 0.349200 0.658318
O O4 0.011036 0.401407 0.414559
O O5 0.236962 0.238856 0.702040
O O6 0.196344 0.110500 0.682075
O O7 0.988463 0.186350 0.435234
O O8 0.306662 0.941734 0.421090
O O9 0.191172 0.931955 0.528851
O O10 0.000000 0.962602 0.250000
O O11 0.815871 0.357938 0.747965
O O12 0.324457 0.989968 0.772127
O O13 0.000000 0.565254 0.250000
#
# Coordination Sequence:
#
# PCOD9307379 Si02
#       6
#     8   8   8   8   8   8
#     4  12  23  42  70 104 143 180 229 289 355 414
#     4  12  26  46  68 102 140 189 234 288 355 420
#     4  12  24  40  68 109 142 179 230 291 348 414
#     4  12  27  45  69 103 145 187 235 290 354 423
#     4  12  24  45  73 105 146 183 234 291 355 416
#     4  12  24  45  72 105 139 189 237 291 352 422
#
# _framework density 21.79965
#
# number of rings (size 3 to 8) (size 9 to 14) (size 15 to 20)
#    0.000    0.000    5.000    6.000    0.000    2.667 
#    0.000    4.167    0.000    0.000    0.000    0.000 
#    0.000    0.000    0.000    0.000    0.000    0.000 
#
# Total GULP energy -134465.994647 kJ/mol
# GULP energy per Si atom -5602.749777 kJ/mol
# Density = 2.175003 g / cm^3
# Si number density = 21.799650 Si / 1000 Ang^3
#
#
#
# Elastic Constant Matrix: (Units=GPa)
#
#
# Indices 1 2 3 4 5 6 
#
# 1 51.9537 39.4126 6.2426 0.0000 -12.0546 0.0000
# 2 39.4126 116.9180 36.2334 0.0000 -4.4657 0.0000
# 3 6.2426 36.2334 123.9893 0.0000 1.6321 0.0000
# 4 0.0000 0.0000 0.0000 43.0569 0.0000 -14.2100
# 5 -12.0546 -4.4657 1.6321 0.0000 38.0246 0.0000
# 6 0.0000 0.0000 0.0000 -14.2100 0.0000 31.9960
#
#
#
# Elastic Compliance Matrix: (Units=1/GPa)
#
#
# Indices 1 2 3 4 5 6 
#
# 1 0.028174 -0.009599 0.001285 0.000000 0.007749 0.000000
# 2 -0.009599 0.012733 -0.003219 0.000000 -0.001410 0.000000
# 3 0.001285 -0.003219 0.008946 0.000000 -0.000355 0.000000
# 4 0.000000 0.000000 0.000000 0.027214 0.000000 0.012086
# 5 0.007749 -0.001410 -0.000355 0.000000 0.028605 0.000000
# 6 0.000000 0.000000 0.000000 0.012086 0.000000 0.036622
#
#
# Mechanical properties :
#
#
# Convention : Reuss Voigt Hill
#
# Bulk Modulus (GPa) = 37.33442 50.73761 44.03601
# Shear Modulus (GPa) = 28.68807 36.68032 32.68419
#
# Velocity S-wave (km/s) = 3.63159 4.10641 3.87628
# Velocity P-wave (km/s) = 5.89474 6.76820 6.34651
#
# Compressibility (1/GPa) = 0.02678493
#
# Stress axis : x y z
#
# Youngs Moduli (GPa) = 35.49402 78.53813 111.78321
#
# Poissons Ratio (x) = 0.75392 -0.14361
# Poissons Ratio (y) = 0.34072 0.35983
# Poissons Ratio (z) = -0.04560 0.25281
#
# Static dielectric constant tensor:
#      x y z
#    x 1.795140 0.000000 0.032980 
#    y 0.000000 1.752400 0.000000 
#    z 0.032980 0.000000 1.840620 
# 
# From -- ./inp_files/147438.got.cif
#   From: 2010.05.17/outbox.cif.g08.bks.cpg/sg15_74_cif.got.tgz:147438.got - 2010.06.03 18:47:42.
