data_PCOD9307378
_publ_section_title
;
Structure prediction by ZEFSAII (Michael W. Deem and Ramdas Pophale) SiO2 
 PCOD9307378
Probable space group: C 2/C
;
_chemical_formula_sum "Si O2"
_cell_formula_units_Z 48
_cell_length_a 12.086006
_cell_length_b 23.688165
_cell_length_c 10.935967
_cell_angle_alpha 90.000000
_cell_angle_beta 49.260279
_cell_angle_gamma 90.000000
_cell_volume 2372.238944
_symmetry_space_group_name_H-M "C 2/C"
_symmetry_group_IT_number 15
_symmetry_cell_setting 'monoclinic'
loop_
_space_group_symop_operation_xyz
x,y,z
-x,y,1/2-z
-x,-y,-z
x,-y,1/2+z
1/2+x,1/2+y,z
1/2-x,1/2+y,1/2-z
1/2-x,1/2-y,-z
1/2+x,1/2-y,1/2+z
loop_
_atom_site_type_symbol
_atom_site_label
_atom_site_fract_x
_atom_site_fract_y
_atom_site_fract_z
Si Si1 0.734663 0.934744 0.418550
Si Si2 0.087866 0.751638 0.063563
Si Si3 0.582576 0.440831 0.454861
Si Si4 0.540672 0.857816 0.945090
Si Si5 0.141374 0.553962 0.567291
Si Si6 0.662696 0.629383 0.416257
O O1 0.847086 0.924681 0.227066
O O2 0.588168 0.898293 0.509372
O O3 0.805982 0.913320 0.493567
O O4 0.685021 0.000191 0.452738
O O5 0.000000 0.742116 0.250000
O O6 0.034269 0.704170 0.006048
O O7 0.250000 0.750000 0.000000
O O8 0.079879 0.814486 0.018464
O O9 0.500000 0.500000 0.500000
O O10 0.718185 0.439311 0.448216
O O11 0.451647 0.400362 0.590417
O O12 0.682254 0.856939 0.755938
O O13 0.597335 0.889219 0.026628
O O14 0.000000 0.537669 0.750000
#
# Coordination Sequence:
#
# PCOD9307378 Si02
#       6
#     8   8   8   8   8   8
#     4  12  23  42  70 101 138 180 228 285 348 409
#     4  12  23  43  70 103 135 172 232 295 338 391
#     4  12  26  43  66 103 142 182 227 281 345 423
#     4  12  25  44  68 100 138 180 227 282 349 415
#     4  12  26  44  69  99 141 189 223 276 346 427
#     4  12  25  42  72 104 136 171 233 298 347 393
#
# _framework density 20.234048999999999
#
# number of rings (size 3 to 8) (size 9 to 14) (size 15 to 20)
#    0.000    0.000    6.667    4.500    0.000    2.000 
#    0.000    0.833    0.000    0.000    0.000    0.000 
#    0.000    0.000    0.000    0.000    0.000    0.000 
#
# Total GULP energy -134021.599715 kJ/mol
# GULP energy per Si atom -5584.233321 kJ/mol
# Density = 2.018800 g / cm^3
# Si number density = 20.234049 Si / 1000 Ang^3
#
#
#
# Elastic Constant Matrix: (Units=GPa)
#
#
# Indices 1 2 3 4 5 6 
#
# 1 133.7072 42.9421 21.6845 0.0000 -35.4328 0.0000
# 2 42.9421 111.9479 4.6945 0.0000 -10.6969 0.0000
# 3 21.6845 4.6945 60.8554 0.0000 -17.9180 0.0000
# 4 0.0000 0.0000 0.0000 30.0500 0.0000 -3.4316
# 5 -35.4328 -10.6969 -17.9180 0.0000 31.3129 0.0000
# 6 0.0000 0.0000 0.0000 -3.4316 0.0000 43.7343
#
#
#
# Elastic Compliance Matrix: (Units=1/GPa)
#
#
# Indices 1 2 3 4 5 6 
#
# 1 0.011797 -0.003365 -0.000423 0.000000 0.011958 0.000000
# 2 -0.003365 0.010197 0.000381 0.000000 -0.000106 0.000000
# 3 -0.000423 0.000381 0.019785 0.000000 0.010972 0.000000
# 4 0.000000 0.000000 0.000000 0.033579 0.000000 0.002635
# 5 0.011958 -0.000106 0.010972 0.000000 0.051709 0.000000
# 6 0.000000 0.000000 0.000000 0.002635 0.000000 0.023072
#
#
# Mechanical properties :
#
#
# Convention : Reuss Voigt Hill
#
# Bulk Modulus (GPa) = 28.60014 49.46140 39.03077
# Shear Modulus (GPa) = 29.65454 36.83207 33.24331
#
# Velocity S-wave (km/s) = 3.83244 4.27113 4.05772
# Velocity P-wave (km/s) = 5.80937 6.98721 6.42534
#
# Compressibility (1/GPa) = 0.03496487
#
# Stress axis : x y z
#
# Youngs Moduli (GPa) = 84.76587 98.06452 50.54460
#
# Poissons Ratio (x) = 0.32998 0.02140
# Poissons Ratio (y) = 0.28523 -0.01927
# Poissons Ratio (z) = 0.03588 -0.03738
#
# Static dielectric constant tensor:
#      x y z
#    x 1.987350 0.000000 0.084640 
#    y 0.000000 1.319840 0.000000 
#    z 0.084640 0.000000 1.723560 
# 
# From -- ./inp_files/32497.got.cif
#   From: 2010.05.17/outbox.cif.g08.bks.cpg/sg15_17_cif.got.tgz:32497.got - 2010.06.03 18:47:42.
