data_PCOD9307956
_publ_section_title
;
Structure prediction by ZEFSAII (Michael W. Deem and Ramdas Pophale) SiO2 
 PCOD9307956
Probable space group: C 2/C
;
_chemical_formula_sum "Si O2"
_cell_formula_units_Z 40
_cell_length_a 14.882716
_cell_length_b 4.856970
_cell_length_c 26.879194
_cell_angle_alpha 90.000000
_cell_angle_beta 133.216476
_cell_angle_gamma 90.000000
_cell_volume 1415.974348
_symmetry_space_group_name_H-M "C 2/C"
_symmetry_group_IT_number 15
_symmetry_cell_setting 'monoclinic'
loop_
_space_group_symop_operation_xyz
x,y,z
-x,y,1/2-z
-x,-y,-z
x,-y,1/2+z
1/2+x,1/2+y,z
1/2-x,1/2+y,1/2-z
1/2-x,1/2-y,-z
1/2+x,1/2-y,1/2+z
loop_
_atom_site_type_symbol
_atom_site_label
_atom_site_fract_x
_atom_site_fract_y
_atom_site_fract_z
Si Si1 0.018900 0.677272 0.056266
Si Si2 0.133247 0.069542 0.370228
Si Si3 0.779927 0.568855 0.682915
Si Si4 0.270173 0.573311 0.458619
Si Si5 0.092227 0.715232 0.665120
O O1 0.155829 0.785741 0.115168
O O2 0.006027 0.492021 0.101222
O O3 0.917165 0.913437 0.011136
O O4 0.000000 0.500000 0.000000
O O5 0.126792 0.259645 0.318395
O O6 0.220982 0.267504 0.436207
O O7 0.002015 0.053841 0.348838
O O8 0.196345 0.767535 0.389940
O O9 0.843235 0.609951 0.760600
O O10 0.704107 0.289416 0.670317
O O11 0.250000 0.750000 0.500000
#
# Coordination Sequence:
#
# PCOD9307956 Si02
#       5
#     8   8   8   8   8
#     4  12  25  46  76 109 153 203 261 321 398 470
#     4  12  28  48  79 114 155 207 269 322 398 484
#     4  12  27  49  76 114 156 210 263 330 405 481
#     4  12  25  46  76 114 155 200 260 330 392 469
#     4  12  27  49  77 111 157 211 257 334 400 481
#
# _framework density 28.249099999999999
#
# number of rings (size 3 to 8) (size 9 to 14) (size 15 to 20)
#    0.000    0.000    6.000    3.600    2.800    1.600 
#    0.000    2.000    0.000    0.000    0.000    0.000 
#    0.000    0.000    0.000    0.000    0.000    0.000 
#
# Total GULP energy -111654.777891 kJ/mol
# GULP energy per Si atom -5582.738895 kJ/mol
# Density = 2.818480 g / cm^3
# Si number density = 28.249100 Si / 1000 Ang^3
#
#
#
# Elastic Constant Matrix: (Units=GPa)
#
#
# Indices 1 2 3 4 5 6 
#
# 1 92.0901 -15.4046 5.2077 -0.0003 3.2112 0.0004
# 2 -15.4046 109.9357 28.7961 -0.0026 15.8802 -0.0005
# 3 5.2077 28.7961 165.7782 0.0003 3.6992 -0.0004
# 4 -0.0003 -0.0026 0.0003 15.3735 -0.0001 16.6715
# 5 3.2112 15.8802 3.6992 -0.0001 63.4307 0.0002
# 6 0.0004 -0.0005 -0.0004 16.6715 0.0002 17.6084
#
#
#
# Elastic Compliance Matrix: (Units=1/GPa)
#
#
# Indices 1 2 3 4 5 6 
#
# 1 0.011248 0.001894 -0.000660 -0.000029 -0.001005 0.000027
# 2 0.001894 0.010194 -0.001773 -0.000057 -0.002545 0.000055
# 3 -0.000660 -0.001773 0.006359 0.000021 0.000107 -0.000020
# 4 -0.000029 -0.000057 0.000021 -2.432975 0.000002 2.303522
# 5 -0.001005 -0.002545 0.000107 0.000002 0.016447 -0.000002
# 6 0.000027 0.000055 -0.000020 2.303522 -0.000002 -2.124166
#
#
# Mechanical properties :
#
#
# Convention : Reuss Voigt Hill
#
# Bulk Modulus (GPa) = 37.42216 45.00027 41.21122
# Shear Modulus (GPa) = -1.11039 42.56286 20.72623
#
# Velocity S-wave (km/s) = -0.62763 3.88583 2.71162
# Velocity P-wave (km/s) = 3.57082 6.00810 4.94207
#
# Compressibility (1/GPa) = 0.02672214
#
# Stress axis : x y z
#
# Youngs Moduli (GPa) = 88.90344 98.09962 157.26851
#
# Poissons Ratio (x) = -0.18582 0.10379
# Poissons Ratio (y) = -0.16840 0.27890
# Poissons Ratio (z) = 0.05867 0.17397
#
# Static dielectric constant tensor:
#      x y z
#    x 2.671960 -0.000010 -0.174640 
#    y -0.000010 2.204560 0.000000 
#    z -0.174640 0.000000 2.206700 
# 
# From -- ./inp_files/314960.got.cif
#   From: 2010.05.17/outbox.cif.g08.bks.cpg/sg15_158_cif.got.tgz:314960.got - 2010.06.03 18:47:42.
