data_PCOD9307551
_publ_section_title
;
Structure prediction by ZEFSAII (Michael W. Deem and Ramdas Pophale) SiO2 
 PCOD9307551
Probable space group: C 2/C
;
_chemical_formula_sum "Si O2"
_cell_formula_units_Z 44
_cell_length_a 26.840237
_cell_length_b 12.664360
_cell_length_c 7.672659
_cell_angle_alpha 90.000000
_cell_angle_beta 129.187538
_cell_angle_gamma 90.000000
_cell_volume 2021.450484
_symmetry_space_group_name_H-M "C 2/C"
_symmetry_group_IT_number 15
_symmetry_cell_setting 'monoclinic'
loop_
_space_group_symop_operation_xyz
x,y,z
-x,y,1/2-z
-x,-y,-z
x,-y,1/2+z
1/2+x,1/2+y,z
1/2-x,1/2+y,1/2-z
1/2-x,1/2-y,-z
1/2+x,1/2-y,1/2+z
loop_
_atom_site_type_symbol
_atom_site_label
_atom_site_fract_x
_atom_site_fract_y
_atom_site_fract_z
Si Si1 0.000000 0.735732 0.250000
Si Si2 0.265384 0.964776 0.513260
Si Si3 0.134327 0.298570 0.894918
Si Si4 0.531303 0.608843 0.134896
Si Si5 0.247293 0.831713 0.817524
Si Si6 0.154857 0.836647 0.091122
O O1 0.065196 0.679607 0.328161
O O2 0.020891 0.808482 0.458575
O O3 0.326760 0.905744 0.563027
O O4 0.261065 0.914058 0.692997
O O5 0.202110 0.921336 0.278573
O O6 0.260168 0.090470 0.506187
O O7 0.127758 0.230634 0.698871
O O8 0.180309 0.225446 0.119997
O O9 0.500000 0.640162 0.250000
O O10 0.605217 0.605192 0.355319
O O11 0.500000 0.500000 0.000000
O O12 0.303339 0.746389 0.925407
#
# Coordination Sequence:
#
# PCOD9307551 Si02
#       6
#     4   8   8   8   8   8
#     4  12  24  38  62  86 130 164 204 252 296 388
#     4   9  19  35  64  87 120 160 209 260 304 370
#     4   9  20  39  58  91 122 167 206 250 315 361
#     4  12  25  39  58  88 124 165 202 246 311 373
#     4   9  19  36  61  88 119 159 206 265 309 354
#     4   9  20  39  59  84 126 162 204 261 310 358
#
# _framework density 21.766548
#
# number of rings (size 3 to 8) (size 9 to 14) (size 15 to 20)
#    0.000    2.182    2.727    2.182    2.545    2.909 
#    0.000    3.636    2.000    3.273    0.000    0.000 
#    0.000    0.000    0.000    0.000    0.000    0.000 
#
# Total GULP energy -122867.603679 kJ/mol
# GULP energy per Si atom -5584.891076 kJ/mol
# Density = 2.171701 g / cm^3
# Si number density = 21.766548 Si / 1000 Ang^3
#
#
#
# Elastic Constant Matrix: (Units=GPa)
#
#
# Indices 1 2 3 4 5 6 
#
# 1 112.8393 43.3067 44.6915 0.0000 14.0142 0.0000
# 2 43.3067 66.2510 29.6682 0.0000 -7.6464 0.0000
# 3 44.6915 29.6682 127.2362 0.0000 1.2923 0.0000
# 4 0.0000 0.0000 0.0000 34.4061 0.0000 -12.0829
# 5 14.0142 -7.6464 1.2923 0.0000 38.7363 0.0000
# 6 0.0000 0.0000 0.0000 -12.0829 0.0000 12.0436
#
#
#
# Elastic Compliance Matrix: (Units=1/GPa)
#
#
# Indices 1 2 3 4 5 6 
#
# 1 0.014216 -0.008788 -0.002875 0.000000 -0.006782 0.000000
# 2 -0.008788 0.022763 -0.002300 0.000000 0.007749 0.000000
# 3 -0.002875 -0.002300 0.009403 0.000000 0.000273 0.000000
# 4 0.000000 0.000000 0.000000 0.044876 0.000000 0.045022
# 5 -0.006782 0.007749 0.000273 0.000000 0.029790 0.000000
# 6 0.000000 0.000000 0.000000 0.045022 0.000000 0.128201
#
#
# Mechanical properties :
#
#
# Convention : Reuss Voigt Hill
#
# Bulk Modulus (GPa) = 54.18340 60.18437 57.18388
# Shear Modulus (GPa) = 17.64756 29.61454 23.63105
#
# Velocity S-wave (km/s) = 2.85048 3.69257 3.29851
# Velocity P-wave (km/s) = 5.98170 6.77422 6.39026
#
# Compressibility (1/GPa) = 0.01845584
#
# Stress axis : x y z
#
# Youngs Moduli (GPa) = 70.34371 43.93160 106.35099
#
# Poissons Ratio (x) = 0.38606 0.30580
# Poissons Ratio (y) = 0.61816 0.24458
# Poissons Ratio (z) = 0.20226 0.10103
#
# Static dielectric constant tensor:
#      x y z
#    x 1.947670 0.000000 -0.046900 
#    y 0.000000 1.785360 0.000000 
#    z -0.046900 0.000000 1.838100 
# 
# From -- ./inp_files/65660.got.cif
#   From: 2010.05.17/outbox.cif.g08.bks.cpg/sg15_33_cif.got.tgz:65660.got - 2010.06.03 18:47:42.
