data_PCOD9307126
_publ_section_title
;
Structure prediction by ZEFSAII (Michael W. Deem and Ramdas Pophale) SiO2 
 PCOD9307126
Probable space group: C 2/C
;
_chemical_formula_sum "Si O2"
_cell_formula_units_Z 36
_cell_length_a 14.014658
_cell_length_b 27.505372
_cell_length_c 13.597846
_cell_angle_alpha 90.000000
_cell_angle_beta 159.514068
_cell_angle_gamma 90.000000
_cell_volume 1834.467954
_symmetry_space_group_name_H-M "C 2/C"
_symmetry_group_IT_number 15
_symmetry_cell_setting 'monoclinic'
loop_
_space_group_symop_operation_xyz
x,y,z
-x,y,1/2-z
-x,-y,-z
x,-y,1/2+z
1/2+x,1/2+y,z
1/2-x,1/2+y,1/2-z
1/2-x,1/2-y,-z
1/2+x,1/2-y,1/2+z
loop_
_atom_site_type_symbol
_atom_site_label
_atom_site_fract_x
_atom_site_fract_y
_atom_site_fract_z
Si Si1 0.000000 0.559136 0.750000
Si Si2 0.235079 0.968188 0.274289
Si Si3 0.500000 0.493366 0.250000
Si Si4 0.500000 0.669892 0.250000
Si Si5 0.176210 0.282102 0.596376
Si Si6 0.640194 0.124577 0.726267
O O1 0.738381 0.527408 0.524047
O O2 0.068451 0.592939 0.908504
O O3 0.245373 0.914170 0.239925
O O4 0.159204 0.966026 0.316728
O O5 0.500000 0.000000 0.500000
O O6 0.000000 0.000000 0.000000
O O7 0.739167 0.702448 0.433037
O O8 0.640582 0.642639 0.479412
O O9 0.465408 0.261651 0.911064
O O10 0.020173 0.330965 0.478320
#
# Coordination Sequence:
#
# PCOD9307126 Si02
#       6
#     4   8   4   4   8   8
#     4  12  22  37  62  85 122 167 196 245 296 352
#     4  12  26  40  64  90 122 163 208 248 302 360
#     4  12  23  44  60  87 126 161 208 250 293 352
#     4  12  23  37  58  84 128 160 204 241 303 368
#     4  12  25  38  56  85 123 163 201 248 302 366
#     4  12  25  37  61  89 125 165 206 242 302 367
#
# _framework density 19.624219
#
# number of rings (size 3 to 8) (size 9 to 14) (size 15 to 20)
#    0.000    0.000    8.889    1.333    3.111    0.000 
#    0.000    0.000    0.000    0.000    0.000    1.556 
#    0.000    0.222    0.000    0.000    0.000    0.000 
#
# Total GULP energy -100363.699614 kJ/mol
# GULP energy per Si atom -5575.761090 kJ/mol
# Density = 1.957955 g / cm^3
# Si number density = 19.624219 Si / 1000 Ang^3
#
#
#
# Elastic Constant Matrix: (Units=GPa)
#
#
# Indices 1 2 3 4 5 6 
#
# 1 91.0064 30.8270 5.1619 0.0005 13.2900 0.0004
# 2 30.8270 89.7751 8.8030 0.0007 11.9342 0.0009
# 3 5.1619 8.8030 101.0316 0.0032 27.2154 0.0022
# 4 0.0005 0.0007 0.0032 20.2363 0.0010 9.4344
# 5 13.2900 11.9342 27.2154 0.0010 23.2358 0.0001
# 6 0.0004 0.0009 0.0022 9.4344 0.0001 41.8992
#
#
#
# Elastic Compliance Matrix: (Units=1/GPa)
#
#
# Indices 1 2 3 4 5 6 
#
# 1 0.013269 -0.003701 0.001719 0.000000 -0.007702 0.000000
# 2 -0.003701 0.013043 0.000419 0.000000 -0.005073 0.000000
# 3 0.001719 0.000419 0.014750 -0.000001 -0.018475 0.000000
# 4 0.000000 0.000000 -0.000001 0.055212 -0.000001 -0.012432
# 5 -0.007702 -0.005073 -0.018475 -0.000001 0.071688 0.000001
# 6 0.000000 0.000000 0.000000 -0.012432 0.000001 0.026666
#
#
# Mechanical properties :
#
#
# Convention : Reuss Voigt Hill
#
# Bulk Modulus (GPa) = 26.35889 41.26631 33.81260
# Shear Modulus (GPa) = 23.76427 32.87567 28.31997
#
# Velocity S-wave (km/s) = 3.48367 4.09743 3.80295
# Velocity P-wave (km/s) = 5.44447 6.59236 6.04572
#
# Compressibility (1/GPa) = 0.03793787
#
# Stress axis : x y z
#
# Youngs Moduli (GPa) = 75.36249 76.66872 67.79508
#
# Poissons Ratio (x) = 0.28375 -0.11657
# Poissons Ratio (y) = 0.27892 -0.02842
# Poissons Ratio (z) = -0.12958 -0.03215
#
# Static dielectric constant tensor:
#      x y z
#    x 1.752800 0.000000 -0.002850 
#    y 0.000000 1.786800 0.000000 
#    z -0.002850 0.000000 1.739070 
# 
# From -- ./inp_files/7141.got.cif
#   From: 2010.05.17/outbox.cif.g08.bks.cpg/sg15_4_cif.got.tgz:7141.got - 2010.06.03 18:47:42.
