data_PCOD9307167
_publ_section_title
;
Structure prediction by ZEFSAII (Michael W. Deem and Ramdas Pophale) SiO2 
 PCOD9307167
Probable space group: C 2/C
;
_chemical_formula_sum "Si O2"
_cell_formula_units_Z 44
_cell_length_a 5.368087
_cell_length_b 22.071537
_cell_length_c 15.629400
_cell_angle_alpha 90.000000
_cell_angle_beta 93.756375
_cell_angle_gamma 90.000000
_cell_volume 1847.823154
_symmetry_space_group_name_H-M "C 2/C"
_symmetry_group_IT_number 15
_symmetry_cell_setting 'monoclinic'
loop_
_space_group_symop_operation_xyz
x,y,z
-x,y,1/2-z
-x,-y,-z
x,-y,1/2+z
1/2+x,1/2+y,z
1/2-x,1/2+y,1/2-z
1/2-x,1/2-y,-z
1/2+x,1/2-y,1/2+z
loop_
_atom_site_type_symbol
_atom_site_label
_atom_site_fract_x
_atom_site_fract_y
_atom_site_fract_z
Si Si1 0.000000 0.230126 0.250000
Si Si2 0.119996 0.368763 0.982010
Si Si3 0.735878 0.550832 0.721069
Si Si4 0.343691 0.237181 0.405808
Si Si5 0.366773 0.564436 0.982939
Si Si6 0.703149 0.329104 0.339719
O O1 0.146764 0.205975 0.336289
O O2 0.202360 0.273676 0.212451
O O3 0.061869 0.312730 0.919690
O O4 0.402863 0.392706 0.983480
O O5 0.115158 0.342102 0.077820
O O6 0.892757 0.417892 0.975370
O O7 0.500000 0.513166 0.750000
O O8 0.696520 0.564943 0.620428
O O9 0.725921 0.611292 0.781161
O O10 0.000000 0.521934 0.750000
O O11 0.250000 0.250000 0.500000
O O12 0.449747 0.301512 0.374080
O O13 0.500000 0.500000 0.000000
#
# Coordination Sequence:
#
# PCOD9307167 Si02
#       6
#     4   8   8   8   8   8
#     4  12  24  40  66  98 158 192 254 280 372 448
#     4  12  25  44  73 103 151 190 245 302 383 436
#     4  12  22  40  71 108 139 177 247 319 368 426
#     4  12  27  41  68 109 157 200 238 307 382 459
#     4  12  26  47  75 105 140 191 257 325 378 427
#     4  12  23  41  69 109 146 185 249 308 362 450
#
# _framework density 23.811803000000001
#
# number of rings (size 3 to 8) (size 9 to 14) (size 15 to 20)
#    0.000    0.000    6.364    3.818    2.545    0.000 
#    0.000    0.000    6.000    0.000    0.000    0.000 
#    0.000    0.000    0.000    0.000    0.000    0.000 
#
# Total GULP energy -122734.351726 kJ/mol
# GULP energy per Si atom -5578.834169 kJ/mol
# Density = 2.375761 g / cm^3
# Si number density = 23.811803 Si / 1000 Ang^3
#
#
#
# Elastic Constant Matrix: (Units=GPa)
#
#
# Indices 1 2 3 4 5 6 
#
# 1 141.8255 5.8175 25.7496 0.0000 25.9273 0.0000
# 2 5.8175 49.9140 25.8662 0.0000 20.8258 0.0000
# 3 25.7496 25.8662 108.8367 0.0000 34.9081 0.0000
# 4 0.0000 0.0000 0.0000 11.2085 0.0000 10.1101
# 5 25.9273 20.8258 34.9081 0.0000 56.5508 0.0000
# 6 0.0000 0.0000 0.0000 10.1101 0.0000 33.1774
#
#
#
# Elastic Compliance Matrix: (Units=1/GPa)
#
#
# Indices 1 2 3 4 5 6 
#
# 1 0.007801 0.001003 -0.001020 0.000000 -0.003316 0.000000
# 2 0.001003 0.024940 -0.003829 0.000000 -0.007281 0.000000
# 3 -0.001020 -0.003829 0.012141 0.000000 -0.005616 0.000000
# 4 0.000000 0.000000 0.000000 0.123037 0.000000 -0.037493
# 5 -0.003316 -0.007281 -0.005616 0.000000 0.025352 0.000000
# 6 0.000000 0.000000 0.000000 -0.037493 0.000000 0.041566
#
#
# Mechanical properties :
#
#
# Convention : Reuss Voigt Hill
#
# Bulk Modulus (GPa) = 26.88986 46.16031 36.52509
# Shear Modulus (GPa) = 19.61352 36.39687 28.00520
#
# Velocity S-wave (km/s) = 2.87311 3.91387 3.43316
# Velocity P-wave (km/s) = 4.72478 6.31285 5.57565
#
# Compressibility (1/GPa) = 0.03718874
#
# Stress axis : x y z
#
# Youngs Moduli (GPa) = 128.18385 40.09676 82.36563
#
# Poissons Ratio (x) = -0.04023 0.08405
# Poissons Ratio (y) = -0.12860 0.31541
# Poissons Ratio (z) = 0.13081 0.15354
#
# Static dielectric constant tensor:
#      x y z
#    x 2.121880 0.000000 -0.033580 
#    y 0.000000 1.927910 0.000000 
#    z -0.033580 0.000000 2.075000 
# 
# From -- ./inp_files/129478.got.cif
#   From: 2010.05.17/outbox.cif.g08.bks.cpg/sg15_65_cif.got.tgz:129478.got - 2010.06.03 18:47:42.
