data_PCOD9307296
_publ_section_title
;
Structure prediction by ZEFSAII (Michael W. Deem and Ramdas Pophale) SiO2 
 PCOD9307296
Probable space group: C 2/C
;
_chemical_formula_sum "Si O2"
_cell_formula_units_Z 36
_cell_length_a 18.861717
_cell_length_b 6.470855
_cell_length_c 20.719853
_cell_angle_alpha 90.000000
_cell_angle_beta 140.164863
_cell_angle_gamma 90.000000
_cell_volume 1619.956807
_symmetry_space_group_name_H-M "C 2/C"
_symmetry_group_IT_number 15
_symmetry_cell_setting 'monoclinic'
loop_
_space_group_symop_operation_xyz
x,y,z
-x,y,1/2-z
-x,-y,-z
x,-y,1/2+z
1/2+x,1/2+y,z
1/2-x,1/2+y,1/2-z
1/2-x,1/2-y,-z
1/2+x,1/2-y,1/2+z
loop_
_atom_site_type_symbol
_atom_site_label
_atom_site_fract_x
_atom_site_fract_y
_atom_site_fract_z
Si Si1 0.500000 0.355386 0.250000
Si Si2 0.866224 0.223323 0.114551
Si Si3 0.967617 0.443254 0.831823
Si Si4 0.693093 0.282239 0.775293
Si Si5 0.424521 0.375959 0.397197
O O1 0.428241 0.503022 0.153428
O O2 0.570615 0.203991 0.253943
O O3 0.842887 0.223522 0.174851
O O4 0.942936 0.400810 0.136477
O O5 0.750000 0.250000 0.000000
O O6 0.869354 0.577279 0.792624
O O7 0.000681 0.285885 0.911194
O O8 0.638592 0.470189 0.697365
O O9 0.823829 0.246916 0.860995
O O10 0.500000 0.500000 0.500000
#
# Coordination Sequence:
#
# PCOD9307296 Si02
#       5
#     4   8   8   8   8
#     4  12  22  46  72 100 148 188 240 302 372 442
#     4  12  27  44  76 112 144 190 253 310 376 442
#     4  12  24  48  73 103 152 188 241 315 368 438
#     4  12  25  48  70 110 147 194 250 312 365 456
#     4  12  29  47  76 106 153 204 248 304 389 453
#
# _framework density 22.222814
#
# number of rings (size 3 to 8) (size 9 to 14) (size 15 to 20)
#    0.000    0.000    8.889    0.000    6.222    5.333 
#    0.000    0.000    0.000    0.000    0.000    0.000 
#    0.000    0.000    0.000    0.000    0.000    0.000 
#
# Total GULP energy -100446.625586 kJ/mol
# GULP energy per Si atom -5580.368088 kJ/mol
# Density = 2.217223 g / cm^3
# Si number density = 22.222814 Si / 1000 Ang^3
#
#
#
# Elastic Constant Matrix: (Units=GPa)
#
#
# Indices 1 2 3 4 5 6 
#
# 1 133.9120 48.9073 28.8389 0.0000 5.9733 0.0000
# 2 48.9073 90.5780 4.7732 0.0001 10.3321 -0.0001
# 3 28.8389 4.7732 86.6857 0.0000 21.3822 0.0000
# 4 0.0000 0.0001 0.0000 16.2809 0.0000 2.0996
# 5 5.9733 10.3321 21.3822 0.0000 29.5004 0.0000
# 6 0.0000 -0.0001 0.0000 2.0996 0.0000 29.4135
#
#
#
# Elastic Compliance Matrix: (Units=1/GPa)
#
#
# Indices 1 2 3 4 5 6 
#
# 1 0.010203 -0.005609 -0.003727 0.000000 0.002600 0.000000
# 2 -0.005609 0.014597 0.002488 0.000000 -0.005780 0.000000
# 3 -0.003727 0.002488 0.015425 0.000000 -0.011297 0.000000
# 4 0.000000 0.000000 0.000000 0.061992 0.000000 -0.004425
# 5 0.002600 -0.005780 -0.011297 0.000000 0.043584 0.000000
# 6 0.000000 0.000000 0.000000 -0.004425 0.000000 0.034314
#
#
# Mechanical properties :
#
#
# Convention : Reuss Voigt Hill
#
# Bulk Modulus (GPa) = 37.69378 52.91274 45.30326
# Shear Modulus (GPa) = 24.67252 30.28270 27.47761
#
# Velocity S-wave (km/s) = 3.33563 3.69546 3.52015
# Velocity P-wave (km/s) = 5.64215 6.48617 6.07882
#
# Compressibility (1/GPa) = 0.02652958
#
# Stress axis : x y z
#
# Youngs Moduli (GPa) = 98.01274 68.50701 64.82818
#
# Poissons Ratio (x) = 0.38426 0.24160
# Poissons Ratio (y) = 0.54976 -0.16129
# Poissons Ratio (z) = 0.36527 -0.17045
#
# Static dielectric constant tensor:
#      x y z
#    x 1.863770 0.000000 -0.017820 
#    y 0.000000 1.889600 0.000000 
#    z -0.017820 0.000000 1.840710 
# 
# From -- ./inp_files/165114.got.cif
#   From: 2010.05.17/outbox.cif.g08.bks.cpg/sg15_83_cif.got.tgz:165114.got - 2010.06.03 18:47:42.
