data_PCOD9307446
_publ_section_title
;
Structure prediction by ZEFSAII (Michael W. Deem and Ramdas Pophale) SiO2 
 PCOD9307446
Probable space group: C 2/C
;
_chemical_formula_sum "Si O2"
_cell_formula_units_Z 36
_cell_length_a 7.423114
_cell_length_b 18.338298
_cell_length_c 10.353402
_cell_angle_alpha 90.000000
_cell_angle_beta 106.424596
_cell_angle_gamma 90.000000
_cell_volume 1351.867384
_symmetry_space_group_name_H-M "C 2/C"
_symmetry_group_IT_number 15
_symmetry_cell_setting 'monoclinic'
loop_
_space_group_symop_operation_xyz
x,y,z
-x,y,1/2-z
-x,-y,-z
x,-y,1/2+z
1/2+x,1/2+y,z
1/2-x,1/2+y,1/2-z
1/2-x,1/2-y,-z
1/2+x,1/2-y,1/2+z
loop_
_atom_site_type_symbol
_atom_site_label
_atom_site_fract_x
_atom_site_fract_y
_atom_site_fract_z
Si Si1 0.154204 0.091901 0.577876
Si Si2 0.500000 0.900911 0.750000
Si Si3 0.765791 0.998158 0.151113
Si Si4 0.433864 0.215990 0.603959
Si Si5 0.745438 0.652542 0.994996
O O1 0.150770 0.035367 0.697149
O O2 0.347345 0.136529 0.621753
O O3 0.980082 0.148381 0.555892
O O4 0.139725 0.051208 0.437575
O O5 0.335935 0.853066 0.654415
O O6 0.404611 0.953121 0.834023
O O7 0.715254 0.925915 0.063363
O O8 0.500000 0.252975 0.750000
O O9 0.250000 0.250000 0.500000
O O10 0.621829 0.207793 0.556445
#
# Coordination Sequence:
#
# PCOD9307446 Si02
#       5
#     8   4   8   8   8
#     4  12  27  47  81 120 170 211 264 334 420 503
#     4  12  24  38  72 116 162 208 256 316 408 494
#     4  12  23  44  74 123 164 207 255 328 417 506
#     4  12  29  55  82 112 158 219 287 344 399 481
#     4  12  26  45  74 114 157 210 262 328 408 483
#
# _framework density 26.629829000000001
#
# number of rings (size 3 to 8) (size 9 to 14) (size 15 to 20)
#    0.000    0.000    6.667    3.333    3.111    2.667 
#    0.000    0.000    0.000    0.000    0.000    0.000 
#    0.000    0.000    0.000    0.000    0.000    0.000 
#
# Total GULP energy -100735.317097 kJ/mol
# GULP energy per Si atom -5596.406505 kJ/mol
# Density = 2.656922 g / cm^3
# Si number density = 26.629829 Si / 1000 Ang^3
#
#
#
# Elastic Constant Matrix: (Units=GPa)
#
#
# Indices 1 2 3 4 5 6 
#
# 1 201.6125 40.6185 55.5989 0.0000 -2.5384 0.0000
# 2 40.6185 73.7159 28.5968 0.0000 1.4743 0.0000
# 3 55.5989 28.5968 112.9102 0.0000 21.3810 0.0000
# 4 0.0000 0.0000 0.0000 10.2114 0.0000 11.8777
# 5 -2.5384 1.4743 21.3810 0.0000 56.1968 0.0000
# 6 0.0000 0.0000 0.0000 11.8777 0.0000 52.5681
#
#
#
# Elastic Compliance Matrix: (Units=1/GPa)
#
#
# Indices 1 2 3 4 5 6 
#
# 1 0.006207 -0.002397 -0.002710 0.000000 0.001374 0.000000
# 2 -0.002397 0.016037 -0.002997 0.000000 0.000611 0.000000
# 3 -0.002710 -0.002997 0.011809 0.000000 -0.004537 0.000000
# 4 0.000000 0.000000 0.000000 0.132844 0.000000 -0.030016
# 5 0.001374 0.000611 -0.004537 0.000000 0.019567 0.000000
# 6 0.000000 0.000000 0.000000 -0.030016 0.000000 0.025805
#
#
# Mechanical properties :
#
#
# Convention : Reuss Voigt Hill
#
# Bulk Modulus (GPa) = 56.03562 70.87412 63.45487
# Shear Modulus (GPa) = 21.32879 41.35688 31.34284
#
# Velocity S-wave (km/s) = 2.83315 3.94512 3.43444
# Velocity P-wave (km/s) = 5.63830 6.88653 6.29344
#
# Compressibility (1/GPa) = 0.01784579
#
# Stress axis : x y z
#
# Youngs Moduli (GPa) = 161.09615 62.35712 84.67961
#
# Poissons Ratio (x) = 0.14945 0.22947
# Poissons Ratio (y) = 0.38609 0.25381
# Poissons Ratio (z) = 0.43656 0.18690
#
# Static dielectric constant tensor:
#      x y z
#    x 2.195790 0.000000 0.063770 
#    y 0.000000 2.113760 0.000000 
#    z 0.063770 0.000000 2.135140 
# 
# From -- ./inp_files/77999.got.cif
#   From: 2010.05.17/outbox.cif.g08.bks.cpg/sg15_39_cif.got.tgz:77999.got - 2010.06.03 18:47:42.
