data_PCOD9307782
_publ_section_title
;
Structure prediction by ZEFSAII (Michael W. Deem and Ramdas Pophale) SiO2 
 PCOD9307782
Probable space group: C 2/C
;
_chemical_formula_sum "Si O2"
_cell_formula_units_Z 32
_cell_length_a 8.931575
_cell_length_b 19.246179
_cell_length_c 9.190383
_cell_angle_alpha 90.000000
_cell_angle_beta 114.489881
_cell_angle_gamma 90.000000
_cell_volume 1437.685973
_symmetry_space_group_name_H-M "C 2/C"
_symmetry_group_IT_number 15
_symmetry_cell_setting 'monoclinic'
loop_
_space_group_symop_operation_xyz
x,y,z
-x,y,1/2-z
-x,-y,-z
x,-y,1/2+z
1/2+x,1/2+y,z
1/2-x,1/2+y,1/2-z
1/2-x,1/2-y,-z
1/2+x,1/2-y,1/2+z
loop_
_atom_site_type_symbol
_atom_site_label
_atom_site_fract_x
_atom_site_fract_y
_atom_site_fract_z
Si Si1 0.692038 0.425022 0.866252
Si Si2 0.740512 0.203476 0.642114
Si Si3 0.621181 0.783998 0.552648
Si Si4 0.310455 0.941121 0.236853
O O1 0.500000 0.413979 0.750000
O O2 0.808733 0.359302 0.878450
O O3 0.768578 0.488712 0.806185
O O4 0.705942 0.436004 0.045874
O O5 0.750000 0.250000 0.500000
O O6 0.549024 0.215973 0.599555
O O7 0.870714 0.235805 0.803916
O O8 0.741874 0.120383 0.671133
O O9 0.750000 0.750000 0.500000
O O10 0.500000 0.937549 0.250000
#
# Coordination Sequence:
#
# PCOD9307782 Si02
#       4
#     8   8   8   8
#     4  12  27  46  77 106 148 192 243 295 364 430
#     4  12  27  45  72 105 143 186 242 298 356 429
#     4  12  24  48  72 102 143 191 236 298 361 422
#     4  12  26  50  73 108 148 192 242 299 362 432
#
# _framework density 22.257991000000001
#
# number of rings (size 3 to 8) (size 9 to 14) (size 15 to 20)
#    0.000    0.000    5.000    4.500    3.500    2.000 
#    0.000    0.000    0.000    0.000    0.000    0.000 
#    0.000    0.000    0.000    0.000    0.000    0.000 
#
# Total GULP energy -89274.366843 kJ/mol
# GULP energy per Si atom -5579.647928 kJ/mol
# Density = 2.220733 g / cm^3
# Si number density = 22.257991 Si / 1000 Ang^3
#
#
#
# Elastic Constant Matrix: (Units=GPa)
#
#
# Indices 1 2 3 4 5 6 
#
# 1 79.8570 25.5290 21.2766 0.0000 2.8378 0.0000
# 2 25.5290 108.4169 -26.1395 0.0000 -13.2229 0.0000
# 3 21.2766 -26.1395 53.4112 0.0000 16.2000 0.0000
# 4 0.0000 0.0000 0.0000 40.5403 0.0000 -13.4675
# 5 2.8378 -13.2229 16.2000 0.0000 41.6258 0.0000
# 6 0.0000 0.0000 0.0000 -13.4675 0.0000 32.4953
#
#
#
# Elastic Compliance Matrix: (Units=1/GPa)
#
#
# Indices 1 2 3 4 5 6 
#
# 1 0.017301 -0.006460 -0.010288 0.000000 0.000772 0.000000
# 2 -0.006460 0.012954 0.008539 0.000000 0.001232 0.000000
# 3 -0.010288 0.008539 0.029440 0.000000 -0.008043 0.000000
# 4 0.000000 0.000000 0.000000 0.028605 0.000000 0.011855
# 5 0.000772 0.001232 -0.008043 0.000000 0.027493 0.000000
# 6 0.000000 0.000000 0.000000 0.011855 0.000000 0.035687
#
#
# Mechanical properties :
#
#
# Convention : Reuss Voigt Hill
#
# Bulk Modulus (GPa) = 23.10656 31.44639 27.27648
# Shear Modulus (GPa) = 27.42390 37.66688 32.54539
#
# Velocity S-wave (km/s) = 3.51393 4.11820 3.82801
# Velocity P-wave (km/s) = 5.18337 6.06396 5.64087
#
# Compressibility (1/GPa) = 0.04327775
#
# Stress axis : x y z
#
# Youngs Moduli (GPa) = 57.79946 77.19646 33.96770
#
# Poissons Ratio (x) = 0.49870 0.34945
# Poissons Ratio (y) = 0.37339 -0.29007
# Poissons Ratio (z) = 0.59463 -0.65922
#
# Static dielectric constant tensor:
#      x y z
#    x 1.829490 0.000000 -0.031370 
#    y 0.000000 1.881780 0.000000 
#    z -0.031370 0.000000 1.881680 
# 
# From -- ./inp_files/22349.got.cif
#   From: 2010.05.17/outbox.cif.g08.bks.cpg/sg15_12_cif.got.tgz:22349.got - 2010.06.03 18:47:42.
