data_PCOD9307100
_publ_section_title
;
Structure prediction by ZEFSAII (Michael W. Deem and Ramdas Pophale) SiO2 
 PCOD9307100
Probable space group: C 2/C
;
_chemical_formula_sum "Si O2"
_cell_formula_units_Z 28
_cell_length_a 6.960665
_cell_length_b 17.921784
_cell_length_c 8.258845
_cell_angle_alpha 90.000000
_cell_angle_beta 76.815290
_cell_angle_gamma 90.000000
_cell_volume 1003.112421
_symmetry_space_group_name_H-M "C 2/C"
_symmetry_group_IT_number 15
_symmetry_cell_setting 'monoclinic'
loop_
_space_group_symop_operation_xyz
x,y,z
-x,y,1/2-z
-x,-y,-z
x,-y,1/2+z
1/2+x,1/2+y,z
1/2-x,1/2+y,1/2-z
1/2-x,1/2-y,-z
1/2+x,1/2-y,1/2+z
loop_
_atom_site_type_symbol
_atom_site_label
_atom_site_fract_x
_atom_site_fract_y
_atom_site_fract_z
Si Si1 0.346135 0.115555 0.667919
Si Si2 0.000000 0.862169 0.750000
Si Si3 0.750000 0.750000 0.000000
Si Si4 0.500000 0.731442 0.750000
Si Si5 0.719318 0.477092 0.900469
O O1 0.500000 0.163223 0.750000
O O2 0.175873 0.174954 0.667416
O O3 0.351504 0.064514 0.508097
O O4 0.299569 0.053898 0.814964
O O5 0.088105 0.812845 0.589070
O O6 0.174836 0.916767 0.772553
O O7 0.904211 0.724451 0.119708
O O8 0.500000 0.500000 0.000000
#
# Coordination Sequence:
#
# PCOD9307100 Si02
#       5
#     8   4   4   4   8
#     4  12  25  44  80 117 151 201 261 338 417 479
#     4  12  25  50  80 114 159 212 272 326 402 486
#     4  12  30  50  80 112 162 226 272 332 392 486
#     4  12  27  52  74 110 163 214 274 332 392 486
#     4  12  21  47  80 113 158 194 255 346 410 468
#
# _framework density 27.913124
#
# number of rings (size 3 to 8) (size 9 to 14) (size 15 to 20)
#    0.000    0.000    8.571    0.857    2.000    3.429 
#    2.571    0.000    0.000    0.000    0.000    0.000 
#    0.000    0.000    0.000    0.000    0.000    0.000 
#
# Total GULP energy -77954.810000 kJ/mol
# GULP energy per Si atom -5568.200714 kJ/mol
# Density = 2.784959 g / cm^3
# Si number density = 27.913124 Si / 1000 Ang^3
#
#
#
# Elastic Constant Matrix: (Units=GPa)
#
#
# Indices 1 2 3 4 5 6 
#
# 1 149.2347 22.4072 31.1564 0.0000 63.1277 0.0000
# 2 22.4072 95.1959 9.7488 0.0000 5.0216 0.0000
# 3 31.1564 9.7488 88.0917 0.0000 66.7115 0.0000
# 4 0.0000 0.0000 0.0000 13.9681 0.0000 60.2006
# 5 63.1277 5.0216 66.7115 0.0000 78.4609 0.0000
# 6 0.0000 0.0000 0.0000 60.2006 0.0000 -49.2529
#
#
#
# Elastic Compliance Matrix: (Units=1/GPa)
#
#
# Indices 1 2 3 4 5 6 
#
# 1 0.012990 -0.003084 0.009863 0.000000 -0.018640 0.000000
# 2 -0.003084 0.011380 -0.004202 0.000000 0.005326 0.000000
# 3 0.009863 -0.004202 0.039691 0.000000 -0.041414 0.000000
# 4 0.000000 0.000000 0.000000 0.011422 0.000000 0.013961
# 5 -0.018640 0.005326 -0.041414 0.000000 0.062614 0.000000
# 6 0.000000 0.000000 0.000000 0.013961 0.000000 -0.003239
#
#
# Mechanical properties :
#
#
# Convention : Reuss Voigt Hill
#
# Bulk Modulus (GPa) = 14.44780 51.01633 32.73207
# Shear Modulus (GPa) = 32.72796 26.58253 29.65525
#
# Velocity S-wave (km/s) = 3.42788 3.08933 3.26300
# Velocity P-wave (km/s) = 4.56666 5.57152 5.09393
#
# Compressibility (1/GPa) = 0.06921469
#
# Stress axis : x y z
#
# Youngs Moduli (GPa) = 76.98482 87.87368 25.19458
#
# Poissons Ratio (x) = 0.27103 -0.24849
# Poissons Ratio (y) = 0.23744 0.10586
# Poissons Ratio (z) = -0.75929 0.36921
#
# Static dielectric constant tensor:
#      x y z
#    x 2.267650 0.000000 -0.001940 
#    y 0.000000 2.134130 0.000000 
#    z -0.001940 0.000000 2.279540 
# 
# From -- ./inp_files/21641.got.cif
#   From: 2010.05.17/outbox.cif.g08.bks.cpg/sg15_11_cif.got.tgz:21641.got - 2010.06.03 18:47:42.
