data_PCOD9307988
_publ_section_title
;
Structure prediction by ZEFSAII (Michael W. Deem and Ramdas Pophale) SiO2 
 PCOD9307988
Probable space group: C 2/C
;
_chemical_formula_sum "Si O2"
_cell_formula_units_Z 40
_cell_length_a 17.132476
_cell_length_b 17.736893
_cell_length_c 11.494660
_cell_angle_alpha 90.000000
_cell_angle_beta 30.267471
_cell_angle_gamma 90.000000
_cell_volume 1760.583130
_symmetry_space_group_name_H-M "C 2/C"
_symmetry_group_IT_number 15
_symmetry_cell_setting 'monoclinic'
loop_
_space_group_symop_operation_xyz
x,y,z
-x,y,1/2-z
-x,-y,-z
x,-y,1/2+z
1/2+x,1/2+y,z
1/2-x,1/2+y,1/2-z
1/2-x,1/2-y,-z
1/2+x,1/2-y,1/2+z
loop_
_atom_site_type_symbol
_atom_site_label
_atom_site_fract_x
_atom_site_fract_y
_atom_site_fract_z
Si Si1 0.478726 0.337954 0.014639
Si Si2 0.927334 0.417184 0.583370
Si Si3 0.238396 0.410973 0.943152
Si Si4 0.661343 0.432196 0.097550
Si Si5 0.687137 0.190983 0.735847
O O1 0.389951 0.369751 0.242029
O O2 0.350413 0.311361 0.088775
O O3 0.585114 0.404654 0.829330
O O4 0.604857 0.271128 0.857190
O O5 0.880310 0.402023 0.510163
O O6 0.000000 0.500000 0.500000
O O7 0.063473 0.364501 0.453417
O O8 0.771294 0.400953 0.855009
O O9 0.237619 0.497192 0.987281
O O10 0.211284 0.347455 0.077283
O O11 0.500000 0.460377 0.250000
#
# Coordination Sequence:
#
# PCOD9307988 Si02
#       5
#     8   8   8   8   8
#     4  12  27  48  74 107 151 197 250 307 379 444
#     4  12  26  47  75 113 149 196 250 309 376 441
#     4  12  25  47  77 109 150 193 254 309 368 445
#     4  12  26  47  78 108 150 195 251 310 371 447
#     4  12  27  47  75 107 149 198 248 308 374 447
#
# _framework density 22.719745
#
# number of rings (size 3 to 8) (size 9 to 14) (size 15 to 20)
#    0.000    0.000    4.000    6.000    0.000    4.800 
#    0.000    0.000    0.000    0.000    0.000    0.000 
#    0.000    0.000    0.000    0.000    0.000    0.000 
#
# Total GULP energy -111822.567512 kJ/mol
# GULP energy per Si atom -5591.128376 kJ/mol
# Density = 2.266803 g / cm^3
# Si number density = 22.719745 Si / 1000 Ang^3
#
#
#
# Elastic Constant Matrix: (Units=GPa)
#
#
# Indices 1 2 3 4 5 6 
#
# 1 115.5823 29.5351 25.9289 -0.0001 -8.9170 0.0000
# 2 29.5351 78.6669 7.5861 0.0000 18.1329 0.0000
# 3 25.9289 7.5861 134.7546 0.0000 14.7667 0.0000
# 4 -0.0001 0.0000 0.0000 44.9492 0.0002 0.0188
# 5 -8.9170 18.1329 14.7667 0.0002 49.9905 -0.0001
# 6 0.0000 0.0000 0.0000 0.0188 -0.0001 18.2693
#
#
#
# Elastic Compliance Matrix: (Units=1/GPa)
#
#
# Indices 1 2 3 4 5 6 
#
# 1 0.010721 -0.004803 -0.002266 0.000000 0.004324 0.000000
# 2 -0.004803 0.016031 0.000778 0.000000 -0.006902 0.000000
# 3 -0.002266 0.000778 0.008152 0.000000 -0.003095 0.000000
# 4 0.000000 0.000000 0.000000 0.022247 0.000000 -0.000023
# 5 0.004324 -0.006902 -0.003095 0.000000 0.024193 0.000000
# 6 0.000000 0.000000 0.000000 -0.000023 0.000000 0.054737
#
#
# Mechanical properties :
#
#
# Convention : Reuss Voigt Hill
#
# Bulk Modulus (GPa) = 44.80065 50.56710 47.68387
# Shear Modulus (GPa) = 32.02970 40.37205 36.20088
#
# Velocity S-wave (km/s) = 3.75877 4.21997 3.99603
# Velocity P-wave (km/s) = 6.21284 6.78597 6.50572
#
# Compressibility (1/GPa) = 0.02232111
#
# Stress axis : x y z
#
# Youngs Moduli (GPa) = 93.27215 62.37904 122.66476
#
# Poissons Ratio (x) = 0.29963 0.27801
# Poissons Ratio (y) = 0.44803 -0.09544
# Poissons Ratio (z) = 0.21139 -0.04854
#
# Static dielectric constant tensor:
#      x y z
#    x 1.852770 0.000000 0.084880 
#    y 0.000000 2.017520 0.000000 
#    z 0.084880 0.000000 1.861920 
# 
# From -- ./inp_files/29049.got.cif
#   From: 2010.05.17/outbox.cif.g08.bks.cpg/sg15_15_cif.got.tgz:29049.got - 2010.06.03 18:47:42.
