data_PCOD9307224
_publ_section_title
;
Structure prediction by ZEFSAII (Michael W. Deem and Ramdas Pophale) SiO2 
 PCOD9307224
Probable space group: C 2/C
;
_chemical_formula_sum "Si O2"
_cell_formula_units_Z 40
_cell_length_a 12.805815
_cell_length_b 19.805829
_cell_length_c 9.517834
_cell_angle_alpha 90.000000
_cell_angle_beta 130.562934
_cell_angle_gamma 90.000000
_cell_volume 1833.901532
_symmetry_space_group_name_H-M "C 2/C"
_symmetry_group_IT_number 15
_symmetry_cell_setting 'monoclinic'
loop_
_space_group_symop_operation_xyz
x,y,z
-x,y,1/2-z
-x,-y,-z
x,-y,1/2+z
1/2+x,1/2+y,z
1/2-x,1/2+y,1/2-z
1/2-x,1/2-y,-z
1/2+x,1/2-y,1/2+z
loop_
_atom_site_type_symbol
_atom_site_label
_atom_site_fract_x
_atom_site_fract_y
_atom_site_fract_z
Si Si1 0.480773 0.636588 0.926852
Si Si2 0.192867 0.019384 0.012111
Si Si3 0.070030 0.555932 0.658127
Si Si4 0.500000 0.242794 0.250000
Si Si5 0.678099 0.865756 0.025988
Si Si6 0.000000 0.087598 0.250000
O O1 0.531211 0.707389 0.908056
O O2 0.330322 0.638396 0.724255
O O3 0.575548 0.572010 0.963106
O O4 0.479606 0.630801 0.092885
O O5 0.273043 0.971146 0.189198
O O6 0.312091 0.065407 0.053192
O O7 0.125924 0.965331 0.847904
O O8 0.076685 0.623535 0.569137
O O9 0.000000 0.564688 0.750000
O O10 0.000000 0.500000 0.500000
O O11 0.628173 0.191504 0.375754
#
# Coordination Sequence:
#
# PCOD9307224 Si02
#       6
#     8   8   8   4   8   4
#     4  12  25  43  73 104 135 188 232 289 342 416
#     4  12  22  42  75 106 139 174 229 293 359 409
#     4  12  25  41  66 107 144 180 221 285 368 415
#     4  12  27  48  68  96 141 198 244 268 344 424
#     4  12  23  45  69  99 140 183 237 285 332 426
#     4  12  23  42  70 112 139 160 232 308 350 400
#
# _framework density 21.811420999999999
#
# number of rings (size 3 to 8) (size 9 to 14) (size 15 to 20)
#    0.000    0.000    8.000    3.600    0.000    0.000 
#    1.800    1.000    0.000    0.000    0.000    0.000 
#    0.000    0.000    0.000    0.000    0.000    0.000 
#
# Total GULP energy -111481.818600 kJ/mol
# GULP energy per Si atom -5574.090930 kJ/mol
# Density = 2.176178 g / cm^3
# Si number density = 21.811421 Si / 1000 Ang^3
#
#
#
# Elastic Constant Matrix: (Units=GPa)
#
#
# Indices 1 2 3 4 5 6 
#
# 1 77.2551 21.3569 28.1752 0.0000 -14.3664 0.0000
# 2 21.3569 96.3598 42.1367 0.0000 -4.7440 0.0000
# 3 28.1752 42.1367 119.7393 0.0000 -1.5153 0.0000
# 4 0.0000 0.0000 0.0000 37.4224 0.0000 5.2495
# 5 -14.3664 -4.7440 -1.5153 0.0000 45.8347 0.0000
# 6 0.0000 0.0000 0.0000 5.2495 0.0000 28.1006
#
#
#
# Elastic Compliance Matrix: (Units=1/GPa)
#
#
# Indices 1 2 3 4 5 6 
#
# 1 0.015368 -0.001923 -0.002882 0.000000 0.004523 0.000000
# 2 -0.001923 0.012564 -0.003962 0.000000 0.000567 0.000000
# 3 -0.002882 -0.003962 0.010412 0.000000 -0.000969 0.000000
# 4 0.000000 0.000000 0.000000 0.027441 0.000000 -0.005126
# 5 0.004523 0.000567 -0.000969 0.000000 0.023262 0.000000
# 6 0.000000 0.000000 0.000000 -0.005126 0.000000 0.036544
#
#
# Mechanical properties :
#
#
# Convention : Reuss Voigt Hill
#
# Bulk Modulus (GPa) = 48.05441 52.96576 50.51009
# Shear Modulus (GPa) = 33.31974 35.71724 34.51849
#
# Velocity S-wave (km/s) = 3.91273 4.05105 3.98249
# Velocity P-wave (km/s) = 6.51860 6.79835 6.65995
#
# Compressibility (1/GPa) = 0.02080974
#
# Stress axis : x y z
#
# Youngs Moduli (GPa) = 65.07065 79.59050 96.04719
#
# Poissons Ratio (x) = 0.15306 0.27682
# Poissons Ratio (y) = 0.12514 0.38051
# Poissons Ratio (z) = 0.18754 0.31532
#
# Static dielectric constant tensor:
#      x y z
#    x 1.931140 0.000000 0.014450 
#    y 0.000000 1.821930 0.000000 
#    z 0.014450 0.000000 1.836700 
# 
# From -- ./inp_files/41088.got.cif
#   From: 2010.05.17/outbox.cif.g08.bks.cpg/sg15_21_cif.got.tgz:41088.got - 2010.06.03 18:47:42.
