data_PCOD9307557
_publ_section_title
;
Structure prediction by ZEFSAII (Michael W. Deem and Ramdas Pophale) SiO2 
 PCOD9307557
Probable space group: C 2/C
;
_chemical_formula_sum "Si O2"
_cell_formula_units_Z 48
_cell_length_a 10.990474
_cell_length_b 11.138785
_cell_length_c 18.000909
_cell_angle_alpha 90.000000
_cell_angle_beta 72.407746
_cell_angle_gamma 90.000000
_cell_volume 2100.618004
_symmetry_space_group_name_H-M "C 2/C"
_symmetry_group_IT_number 15
_symmetry_cell_setting 'monoclinic'
loop_
_space_group_symop_operation_xyz
x,y,z
-x,y,1/2-z
-x,-y,-z
x,-y,1/2+z
1/2+x,1/2+y,z
1/2-x,1/2+y,1/2-z
1/2-x,1/2-y,-z
1/2+x,1/2-y,1/2+z
loop_
_atom_site_type_symbol
_atom_site_label
_atom_site_fract_x
_atom_site_fract_y
_atom_site_fract_z
Si Si1 0.001877 0.811525 0.032843
Si Si2 0.698424 0.683262 0.366718
Si Si3 0.601435 0.936376 0.557424
Si Si4 0.704962 0.423874 0.108775
Si Si5 0.145288 0.154552 0.213204
Si Si6 0.226103 0.334789 0.076202
O O1 0.997282 0.669307 0.060164
O O2 0.097745 0.872398 0.073409
O O3 0.870337 0.885629 0.056724
O O4 0.068572 0.814738 0.939341
O O5 0.803137 0.625140 0.401263
O O6 0.746029 0.819380 0.346717
O O7 0.694528 0.627083 0.286581
O O8 0.674562 0.951501 0.465919
O O9 0.607873 0.073829 0.585955
O O10 0.655797 0.536684 0.161630
O O11 0.209357 0.258828 0.153664
O O12 0.000000 0.191526 0.250000
O O13 0.250000 0.250000 0.000000
#
# Coordination Sequence:
#
# PCOD9307557 Si02
#       6
#     8   8   8   8   8   8
#     4   9  21  43  71  90 120 172 226 261 314 396
#     4   9  21  40  65  92 126 160 208 274 319 363
#     4   9  20  42  67  93 122 165 219 267 312 391
#     4   9  20  42  65  91 117 166 216 258 319 385
#     4  12  26  39  57  95 132 163 207 271 322 383
#     4  12  24  40  63  97 127 170 216 256 333 395
#
# _framework density 22.850418999999999
#
# number of rings (size 3 to 8) (size 9 to 14) (size 15 to 20)
#    0.000    2.000    1.667    3.000    4.667    2.000 
#    3.000    2.500    0.000    0.000    0.000    0.000 
#    0.000    0.000    0.000    0.000    0.000    0.000 
#
# Total GULP energy -133934.807882 kJ/mol
# GULP energy per Si atom -5580.616995 kJ/mol
# Density = 2.279841 g / cm^3
# Si number density = 22.850419 Si / 1000 Ang^3
#
#
#
# Elastic Constant Matrix: (Units=GPa)
#
#
# Indices 1 2 3 4 5 6 
#
# 1 28.6664 8.5455 10.4405 0.0000 4.9834 0.0000
# 2 8.5455 90.9698 27.6277 0.0000 7.1771 0.0000
# 3 10.4405 27.6277 105.9349 0.0000 20.4922 0.0000
# 4 0.0000 0.0000 0.0000 27.9301 0.0000 2.7549
# 5 4.9834 7.1771 20.4922 0.0000 24.7040 0.0000
# 6 0.0000 0.0000 0.0000 2.7549 0.0000 25.7908
#
#
#
# Elastic Compliance Matrix: (Units=1/GPa)
#
#
# Indices 1 2 3 4 5 6 
#
# 1 0.037252 -0.002478 -0.002038 0.000000 -0.005105 0.000000
# 2 -0.002478 0.012126 -0.002780 0.000000 -0.000717 0.000000
# 3 -0.002038 -0.002780 0.012066 0.000000 -0.008790 0.000000
# 4 0.000000 0.000000 0.000000 0.036185 0.000000 -0.003865
# 5 -0.005105 -0.000717 -0.008790 0.000000 0.049009 0.000000
# 6 0.000000 0.000000 0.000000 -0.003865 0.000000 0.039186
#
#
# Mechanical properties :
#
#
# Convention : Reuss Voigt Hill
#
# Bulk Modulus (GPa) = 21.34286 35.42207 28.38247
# Shear Modulus (GPa) = 23.14466 27.61549 25.38008
#
# Velocity S-wave (km/s) = 3.18603 3.48017 3.33634
# Velocity P-wave (km/s) = 4.78486 5.62887 5.22394
#
# Compressibility (1/GPa) = 0.04685407
#
# Stress axis : x y z
#
# Youngs Moduli (GPa) = 26.84401 82.46628 82.87848
#
# Poissons Ratio (x) = 0.20433 0.16889
# Poissons Ratio (y) = 0.06651 0.23036
# Poissons Ratio (z) = 0.05470 0.22922
#
# Static dielectric constant tensor:
#      x y z
#    x 1.934590 0.000000 0.039970 
#    y 0.000000 1.945880 0.000000 
#    z 0.039970 0.000000 1.798850 
# 
# From -- ./inp_files/196473.got.cif
#   From: 2010.05.17/outbox.cif.g08.bks.cpg/sg15_99_cif.got.tgz:196473.got - 2010.06.03 18:47:42.
