data_PCOD9307831
_publ_section_title
;
Structure prediction by ZEFSAII (Michael W. Deem and Ramdas Pophale) SiO2 
 PCOD9307831
Probable space group: C 2/C
;
_chemical_formula_sum "Si O2"
_cell_formula_units_Z 40
_cell_length_a 18.931713
_cell_length_b 8.050984
_cell_length_c 27.772101
_cell_angle_alpha 90.000000
_cell_angle_beta 156.916595
_cell_angle_gamma 90.000000
_cell_volume 1659.632701
_symmetry_space_group_name_H-M "C 2/C"
_symmetry_group_IT_number 15
_symmetry_cell_setting 'monoclinic'
loop_
_space_group_symop_operation_xyz
x,y,z
-x,y,1/2-z
-x,-y,-z
x,-y,1/2+z
1/2+x,1/2+y,z
1/2-x,1/2+y,1/2-z
1/2-x,1/2-y,-z
1/2+x,1/2-y,1/2+z
loop_
_atom_site_type_symbol
_atom_site_label
_atom_site_fract_x
_atom_site_fract_y
_atom_site_fract_z
Si Si1 0.507672 0.936051 0.558620
Si Si2 0.261388 0.065706 0.487071
Si Si3 0.385347 0.558319 0.472658
Si Si4 0.531011 0.841528 0.716465
Si Si5 0.087210 0.975167 0.194199
O O1 0.420274 0.754024 0.503675
O O2 0.500000 0.000000 0.500000
O O3 0.388399 0.045937 0.520072
O O4 0.723154 0.944236 0.700911
O O5 0.250000 0.250000 0.500000
O O6 0.359480 0.932101 0.584940
O O7 0.049255 0.025822 0.348417
O O8 0.500000 0.500000 0.500000
O O9 0.182500 0.526949 0.327974
O O10 0.463476 0.485230 0.570445
O O11 0.500000 0.761632 0.750000
O O12 0.610549 0.717733 0.725513
#
# Coordination Sequence:
#
# PCOD9307831 Si02
#       5
#     8   8   8   8   8
#     4  12  28  48  76 117 157 209 271 331 413 484
#     4  12  29  49  76 116 158 207 271 337 404 488
#     4  12  27  47  79 109 154 204 266 324 411 480
#     4  12  24  49  76 107 147 208 266 324 405 485
#     4  12  27  49  80 106 162 205 264 333 401 491
#
# _framework density 24.10172
#
# number of rings (size 3 to 8) (size 9 to 14) (size 15 to 20)
#    0.000    0.000    6.000    3.000    8.400    0.000 
#    0.000    0.000    0.000    0.000    0.000    0.000 
#    0.000    0.000    0.000    0.000    0.000    0.000 
#
# Total GULP energy -111573.446483 kJ/mol
# GULP energy per Si atom -5578.672324 kJ/mol
# Density = 2.404686 g / cm^3
# Si number density = 24.101720 Si / 1000 Ang^3
#
#
#
# Elastic Constant Matrix: (Units=GPa)
#
#
# Indices 1 2 3 4 5 6 
#
# 1 173.7483 26.1253 52.9560 -0.0006 12.9051 0.0006
# 2 26.1253 80.4971 9.7107 0.0040 7.6805 -0.0017
# 3 52.9560 9.7107 90.0700 0.0140 43.0172 -0.0058
# 4 -0.0006 0.0040 0.0140 31.0528 -0.0017 6.8552
# 5 12.9051 7.6805 43.0172 -0.0017 53.7030 0.0006
# 6 0.0006 -0.0017 -0.0058 6.8552 0.0006 51.0107
#
#
#
# Elastic Compliance Matrix: (Units=1/GPa)
#
#
# Indices 1 2 3 4 5 6 
#
# 1 0.007569 -0.002060 -0.005669 0.000003 0.003017 -0.000001
# 2 -0.002060 0.013192 0.000735 -0.000002 -0.001980 0.000001
# 3 -0.005669 0.000735 0.022279 -0.000012 -0.016589 0.000004
# 4 0.000003 -0.000002 -0.000012 0.033188 0.000010 -0.004460
# 5 0.003017 -0.001980 -0.016589 0.000010 0.031467 -0.000004
# 6 -0.000001 0.000001 0.000004 -0.004460 -0.000004 0.020203
#
#
# Mechanical properties :
#
#
# Convention : Reuss Voigt Hill
#
# Bulk Modulus (GPa) = 34.42193 57.98882 46.20538
# Shear Modulus (GPa) = 32.98812 44.18819 38.58816
#
# Velocity S-wave (km/s) = 3.70361 4.28647 4.00566
# Velocity P-wave (km/s) = 5.70981 6.97214 6.37231
#
# Compressibility (1/GPa) = 0.02905124
#
# Stress axis : x y z
#
# Youngs Moduli (GPa) = 132.11882 75.80455 44.88570
#
# Poissons Ratio (x) = 0.15619 0.25444
# Poissons Ratio (y) = 0.27223 -0.03299
# Poissons Ratio (z) = 0.74894 -0.05571
#
# Static dielectric constant tensor:
#      x y z
#    x 2.026990 0.000000 0.078070 
#    y 0.000000 1.989450 -0.000010 
#    z 0.078070 -0.000010 2.137360 
# 
# From -- ./inp_files/159514.got.cif
#   From: 2010.05.17/outbox.cif.g08.bks.cpg/sg15_80_cif.got.tgz:159514.got - 2010.06.03 18:47:42.
