data_PCOD9307068
_publ_section_title
;
Structure prediction by ZEFSAII (Michael W. Deem and Ramdas Pophale) SiO2 
 PCOD9307068
Probable space group: C 2/C
;
_chemical_formula_sum "Si O2"
_cell_formula_units_Z 64
_cell_length_a 24.170232
_cell_length_b 8.400983
_cell_length_c 21.299677
_cell_angle_alpha 90.000000
_cell_angle_beta 143.944748
_cell_angle_gamma 90.000000
_cell_volume 2545.531506
_symmetry_space_group_name_H-M "C 2/C"
_symmetry_group_IT_number 15
_symmetry_cell_setting 'monoclinic'
loop_
_space_group_symop_operation_xyz
x,y,z
-x,y,1/2-z
-x,-y,-z
x,-y,1/2+z
1/2+x,1/2+y,z
1/2-x,1/2+y,1/2-z
1/2-x,1/2-y,-z
1/2+x,1/2-y,1/2+z
loop_
_atom_site_type_symbol
_atom_site_label
_atom_site_fract_x
_atom_site_fract_y
_atom_site_fract_z
Si Si1 0.721796 0.278387 0.903263
Si Si2 0.559265 0.923359 0.191870
Si Si3 0.968872 0.801214 0.321979
Si Si4 0.647437 0.691087 0.053605
Si Si5 0.708921 0.342354 0.401649
Si Si6 0.627274 0.563366 0.640481
Si Si7 0.889725 0.734948 0.476469
Si Si8 0.656833 0.943701 0.146920
O O1 0.625198 0.188498 0.796165
O O2 0.733151 0.471883 0.908077
O O3 0.800114 0.197573 0.930462
O O4 0.750000 0.250000 0.000000
O O5 0.607419 0.924834 0.167548
O O6 0.542348 0.108464 0.192416
O O7 0.459812 0.837767 0.090523
O O8 0.903897 0.849344 0.203956
O O9 0.919518 0.890869 0.336573
O O10 0.076058 0.853538 0.432283
O O11 0.746747 0.732345 0.113101
O O12 0.649299 0.595774 0.120419
O O13 0.604296 0.853271 0.042214
O O14 0.750000 0.250000 0.500000
O O15 0.561996 0.641380 0.525969
O O16 0.736248 0.612115 0.750473
O O17 0.848652 0.618729 0.385843
#
# Coordination Sequence:
#
# PCOD9307068 Si02
#       8
#     8   8   8   8   8   8   8   8
#     4  12  28  49  74 102 137 192 250 301 363 435
#     4  12  25  43  74 103 143 188 232 299 362 435
#     4  12  24  46  70 106 145 186 233 290 368 430
#     4  12  26  43  71 104 148 186 237 289 365 434
#     4  12  28  50  72 100 143 191 244 305 363 432
#     4  12  24  38  72 110 149 185 229 292 356 435
#     4  12  24  45  69 104 144 184 238 290 365 433
#     4  12  21  43  68 105 146 188 224 289 364 436
#
# _framework density 25.142098000000001
#
# number of rings (size 3 to 8) (size 9 to 14) (size 15 to 20)
#    0.000    0.000    6.250    3.750    5.250    1.000 
#    0.000    3.750    0.000    0.000    0.000    0.000 
#    0.000    0.000    0.000    0.000    0.000    0.000 
#
# Total GULP energy -178464.994223 kJ/mol
# GULP energy per Si atom -5577.031069 kJ/mol
# Density = 2.508487 g / cm^3
# Si number density = 25.142098 Si / 1000 Ang^3
#
#
#
# Elastic Constant Matrix: (Units=GPa)
#
#
# Indices 1 2 3 4 5 6 
#
# 1 19.1303 13.7738 7.0045 0.0000 4.9520 0.0000
# 2 13.7738 74.5679 39.1387 0.0000 -10.5165 0.0000
# 3 7.0045 39.1387 154.3744 0.0000 1.4738 0.0000
# 4 0.0000 0.0000 0.0000 47.9396 0.0000 -5.4295
# 5 4.9520 -10.5165 1.4738 0.0000 36.8365 0.0000
# 6 0.0000 0.0000 0.0000 -5.4295 0.0000 26.9281
#
#
#
# Elastic Compliance Matrix: (Units=1/GPa)
#
#
# Indices 1 2 3 4 5 6 
#
# 1 0.065692 -0.014377 0.000788 0.000000 -0.012967 0.000000
# 2 -0.014377 0.019427 -0.004346 0.000000 0.007653 0.000000
# 3 0.000788 -0.004346 0.007560 0.000000 -0.001649 0.000000
# 4 0.000000 0.000000 0.000000 0.021347 0.000000 0.004304
# 5 -0.012967 0.007653 -0.001649 0.000000 0.031141 0.000000
# 6 0.000000 0.000000 0.000000 0.004304 0.000000 0.038004
#
#
# Mechanical properties :
#
#
# Convention : Reuss Voigt Hill
#
# Bulk Modulus (GPa) = 17.60277 40.87849 29.24063
# Shear Modulus (GPa) = 21.01051 34.88455 27.94753
#
# Velocity S-wave (km/s) = 2.89393 3.72895 3.33766
# Velocity P-wave (km/s) = 4.26415 5.90207 5.14866
#
# Compressibility (1/GPa) = 0.05680923
#
# Stress axis : x y z
#
# Youngs Moduli (GPa) = 15.22245 51.47594 132.28244
#
# Poissons Ratio (x) = 0.74006 -0.10424
# Poissons Ratio (y) = 0.21885 0.57489
# Poissons Ratio (z) = -0.01200 0.22371
#
# Static dielectric constant tensor:
#      x y z
#    x 1.931930 0.000000 -0.021200 
#    y 0.000000 2.203220 0.000000 
#    z -0.021200 0.000000 1.975630 
# 
# From -- ./inp_files/284446.got.cif
#   From: 2010.05.17/outbox.cif.g08.bks.cpg/sg15_143_cif.got.tgz:284446.got - 2010.06.03 18:47:42.
