data_PCOD9307424
_publ_section_title
;
Structure prediction by ZEFSAII (Michael W. Deem and Ramdas Pophale) SiO2 
 PCOD9307424
Probable space group: C 2/C
;
_chemical_formula_sum "Si O2"
_cell_formula_units_Z 40
_cell_length_a 16.672723
_cell_length_b 6.536673
_cell_length_c 31.889483
_cell_angle_alpha 90.000000
_cell_angle_beta 153.272490
_cell_angle_gamma 90.000000
_cell_volume 1563.075327
_symmetry_space_group_name_H-M "C 2/C"
_symmetry_group_IT_number 15
_symmetry_cell_setting 'monoclinic'
loop_
_space_group_symop_operation_xyz
x,y,z
-x,y,1/2-z
-x,-y,-z
x,-y,1/2+z
1/2+x,1/2+y,z
1/2-x,1/2+y,1/2-z
1/2-x,1/2-y,-z
1/2+x,1/2-y,1/2+z
loop_
_atom_site_type_symbol
_atom_site_label
_atom_site_fract_x
_atom_site_fract_y
_atom_site_fract_z
Si Si1 0.940761 0.647904 0.102021
Si Si2 0.390204 0.378209 0.243109
Si Si3 0.804110 0.908681 0.902207
Si Si4 0.092138 0.725902 0.851295
Si Si5 0.598008 0.952958 0.002100
O O1 0.934729 0.433151 0.123770
O O2 0.021571 0.598258 0.093708
O O3 0.750000 0.750000 0.000000
O O4 0.048808 0.794695 0.183282
O O5 0.500000 0.339088 0.250000
O O6 0.225920 0.226374 0.153532
O O7 0.427923 0.621491 0.265347
O O8 0.666120 0.088282 0.847373
O O9 0.760060 0.371509 0.940753
O O10 0.791767 0.749123 0.934540
O O11 0.000000 0.000000 0.000000
O O12 0.500000 0.000000 0.000000
#
# Coordination Sequence:
#
# PCOD9307424 Si02
#       5
#     8   8   8   8   8
#     4  12  24  44  74 118 150 200 279 327 392 495
#     4  12  25  43  75 115 146 206 277 326 400 487
#     4  12  26  47  77 112 163 211 261 337 420 480
#     4  12  23  43  81 107 158 199 271 333 391 484
#     4  12  25  44  74 111 157 207 259 325 422 471
#
# _framework density 25.590578000000001
#
# number of rings (size 3 to 8) (size 9 to 14) (size 15 to 20)
#    0.000    0.000   10.000    0.600    2.800    0.000 
#    0.000    2.000    0.000    0.000    0.000    0.000 
#    0.000    0.000    0.000    0.000    0.000    0.000 
#
# Total GULP energy -111644.036831 kJ/mol
# GULP energy per Si atom -5582.201842 kJ/mol
# Density = 2.553233 g / cm^3
# Si number density = 25.590578 Si / 1000 Ang^3
#
#
#
# Elastic Constant Matrix: (Units=GPa)
#
#
# Indices 1 2 3 4 5 6 
#
# 1 69.6091 38.4932 59.1827 -0.0015 -10.8786 0.0003
# 2 38.4932 210.9065 98.6370 -0.0052 -9.7548 0.0000
# 3 59.1827 98.6370 217.5918 -0.0022 -24.3138 0.0010
# 4 -0.0015 -0.0052 -0.0022 74.5700 0.0013 -0.7739
# 5 -10.8786 -9.7548 -24.3138 0.0013 46.8543 -0.0005
# 6 0.0003 0.0000 0.0010 -0.7739 -0.0005 31.4387
#
#
#
# Elastic Compliance Matrix: (Units=1/GPa)
#
#
# Indices 1 2 3 4 5 6 
#
# 1 0.019134 -0.001357 -0.004378 0.000000 0.001888 0.000000
# 2 -0.001357 0.006115 -0.002437 0.000000 -0.000307 0.000000
# 3 -0.004378 -0.002437 0.007135 0.000000 0.002179 0.000000
# 4 0.000000 0.000000 0.000000 0.013414 0.000000 0.000330
# 5 0.001888 -0.000307 0.002179 0.000000 0.022848 0.000000
# 6 0.000000 0.000000 0.000000 0.000330 0.000000 0.031816
#
#
# Mechanical properties :
#
#
# Convention : Reuss Voigt Hill
#
# Bulk Modulus (GPa) = 62.34933 98.97037 80.65985
# Shear Modulus (GPa) = 40.93286 50.69223 45.81254
#
# Velocity S-wave (km/s) = 4.00375 4.45555 4.23568
# Velocity P-wave (km/s) = 6.76686 8.07637 7.45044
#
# Compressibility (1/GPa) = 0.01603866
#
# Stress axis : x y z
#
# Youngs Moduli (GPa) = 52.26356 163.54009 140.16134
#
# Poissons Ratio (x) = 0.22199 0.61361
# Poissons Ratio (y) = 0.07094 0.34157
# Poissons Ratio (z) = 0.22880 0.39854
#
# Static dielectric constant tensor:
#      x y z
#    x 2.315700 0.000000 0.187200 
#    y 0.000000 2.035430 0.000000 
#    z 0.187200 0.000000 2.155790 
# 
# From -- ./inp_files/300014.got.cif
#   From: 2010.05.17/outbox.cif.g08.bks.cpg/sg15_151_cif.got.tgz:300014.got - 2010.06.03 18:47:42.
