data_PCOD9307429
_publ_section_title
;
Structure prediction by ZEFSAII (Michael W. Deem and Ramdas Pophale) SiO2 
 PCOD9307429
Probable space group: C 2/C
;
_chemical_formula_sum "Si O2"
_cell_formula_units_Z 32
_cell_length_a 19.361783
_cell_length_b 7.809831
_cell_length_c 8.518774
_cell_angle_alpha 90.000000
_cell_angle_beta 116.952470
_cell_angle_gamma 90.000000
_cell_volume 1148.228559
_symmetry_space_group_name_H-M "C 2/C"
_symmetry_group_IT_number 15
_symmetry_cell_setting 'monoclinic'
loop_
_space_group_symop_operation_xyz
x,y,z
-x,y,1/2-z
-x,-y,-z
x,-y,1/2+z
1/2+x,1/2+y,z
1/2-x,1/2+y,1/2-z
1/2-x,1/2-y,-z
1/2+x,1/2-y,1/2+z
loop_
_atom_site_type_symbol
_atom_site_label
_atom_site_fract_x
_atom_site_fract_y
_atom_site_fract_z
Si Si1 0.389932 0.035933 0.696551
Si Si2 0.127272 0.153484 0.805649
Si Si3 0.224631 0.889246 0.105207
Si Si4 0.974319 0.230042 0.067153
O O1 0.397170 0.838786 0.654183
O O2 0.309920 0.031608 0.705999
O O3 0.456453 0.129631 0.869811
O O4 0.400778 0.157260 0.554711
O O5 0.054751 0.128050 0.611299
O O6 0.159955 0.018886 0.965806
O O7 0.301835 0.656589 0.747204
O O8 0.250000 0.750000 0.000000
O O9 0.000000 0.129951 0.250000
#
# Coordination Sequence:
#
# PCOD9307429 Si02
#       4
#     8   8   8   8
#     4   9  21  43  73  99 138 193 245 298 366 429
#     4  12  23  44  69 110 140 194 238 302 362 443
#     4  12  24  41  68 107 154 184 241 296 366 437
#     4   8  20  42  76  99 139 182 257 298 366 424
#
# _framework density 27.869019000000002
#
# number of rings (size 3 to 8) (size 9 to 14) (size 15 to 20)
#    1.500    0.000    2.500    3.000    0.000    0.000 
#    0.000    5.000   16.500    0.000    0.000    0.000 
#    0.000    0.000    0.000    0.000    0.000    0.000 
#
# Total GULP energy -89176.486434 kJ/mol
# GULP energy per Si atom -5573.530402 kJ/mol
# Density = 2.780559 g / cm^3
# Si number density = 27.869019 Si / 1000 Ang^3
#
#
#
# Elastic Constant Matrix: (Units=GPa)
#
#
# Indices 1 2 3 4 5 6 
#
# 1 57.5396 115.7005 54.5563 0.0000 -24.5892 0.0000
# 2 115.7005 83.0063 23.6873 0.0000 3.8696 0.0000
# 3 54.5563 23.6873 97.1850 0.0000 20.5051 0.0000
# 4 0.0000 0.0000 0.0000 64.4263 0.0000 -9.7449
# 5 -24.5892 3.8696 20.5051 0.0000 46.8832 0.0000
# 6 0.0000 0.0000 0.0000 -9.7449 0.0000 42.5905
#
#
#
# Elastic Compliance Matrix: (Units=1/GPa)
#
#
# Indices 1 2 3 4 5 6 
#
# 1 -0.007299 0.009591 0.003012 0.000000 -0.005937 0.000000
# 2 0.009591 0.000351 -0.007188 0.000000 0.008145 0.000000
# 3 0.003012 -0.007188 0.010898 0.000000 -0.002593 0.000000
# 4 0.000000 0.000000 0.000000 0.016078 0.000000 0.003679
# 5 -0.005937 0.008145 -0.002593 0.000000 0.018678 0.000000
# 6 0.000000 0.000000 0.000000 0.003679 0.000000 0.024321
#
#
# Mechanical properties :
#
#
# Convention : Reuss Voigt Hill
#
# Bulk Modulus (GPa) = 67.65920 69.51323 68.58622
# Shear Modulus (GPa) = 87.53051 33.69911 60.61481
#
# Velocity S-wave (km/s) = 5.61035 3.48112 4.66874
# Velocity P-wave (km/s) = 8.14238 6.41518 7.32983
#
# Compressibility (1/GPa) = 0.01477996
#
# Stress axis : x y z
#
# Youngs Moduli (GPa) = -137.01186 2851.55862 91.76281
#
# Poissons Ratio (x) = -27.34804 -0.27642
# Poissons Ratio (y) = 1.31402 0.65957
# Poissons Ratio (z) = 0.41272 20.49630
#
# Static dielectric constant tensor:
#      x y z
#    x 2.228310 0.000000 0.122200 
#    y 0.000000 2.534590 0.000000 
#    z 0.122200 0.000000 2.281960 
# 
# From -- ./inp_files/180300.got.cif
#   From: 2010.05.17/outbox.cif.g08.bks.cpg/sg15_91_cif.got.tgz:180300.got - 2010.06.03 18:47:42.
