data_PCOD9307775
_publ_section_title
;
Structure prediction by ZEFSAII (Michael W. Deem and Ramdas Pophale) SiO2 
 PCOD9307775
Probable space group: C 2/C
;
_chemical_formula_sum "Si O2"
_cell_formula_units_Z 32
_cell_length_a 10.886145
_cell_length_b 14.002266
_cell_length_c 9.343200
_cell_angle_alpha 90.000000
_cell_angle_beta 66.802022
_cell_angle_gamma 90.000000
_cell_volume 1309.043615
_symmetry_space_group_name_H-M "C 2/C"
_symmetry_group_IT_number 15
_symmetry_cell_setting 'monoclinic'
loop_
_space_group_symop_operation_xyz
x,y,z
-x,y,1/2-z
-x,-y,-z
x,-y,1/2+z
1/2+x,1/2+y,z
1/2-x,1/2+y,1/2-z
1/2-x,1/2-y,-z
1/2+x,1/2-y,1/2+z
loop_
_atom_site_type_symbol
_atom_site_label
_atom_site_fract_x
_atom_site_fract_y
_atom_site_fract_z
Si Si1 0.576928 0.228660 0.857395
Si Si2 0.658367 0.566341 0.373584
Si Si3 0.646052 0.378363 0.206805
Si Si4 0.055873 0.413656 0.880889
O O1 0.500000 0.197096 0.750000
O O2 0.569861 0.342377 0.874387
O O3 0.729665 0.188250 0.801755
O O4 0.496072 0.181109 0.022215
O O5 0.617670 0.461607 0.337342
O O6 0.685318 0.577061 0.531959
O O7 0.787764 0.583438 0.215285
O O8 0.500000 0.332072 0.250000
O O9 0.000000 0.425296 0.750000
O O10 0.000000 0.500000 0.000000
#
# Coordination Sequence:
#
# PCOD9307775 Si02
#       4
#     8   8   8   8
#     4  12  29  48  79 117 154 203 260 317 386 463
#     4  12  27  50  79 113 154 206 257 322 387 460
#     4  12  28  51  77 112 158 200 254 320 393 456
#     4  12  24  47  80 111 157 204 259 314 385 461
#
# _framework density 24.445328
#
# number of rings (size 3 to 8) (size 9 to 14) (size 15 to 20)
#    0.000    0.000    5.000    3.000    7.000    1.000 
#    0.000    0.000    0.000    0.000    0.000    0.000 
#    0.000    0.000    0.000    0.000    0.000    0.000 
#
# Total GULP energy -89604.925871 kJ/mol
# GULP energy per Si atom -5600.307867 kJ/mol
# Density = 2.438969 g / cm^3
# Si number density = 24.445328 Si / 1000 Ang^3
#
#
#
# Elastic Constant Matrix: (Units=GPa)
#
#
# Indices 1 2 3 4 5 6 
#
# 1 145.5239 42.1530 53.2212 0.0000 -0.7115 0.0000
# 2 42.1530 119.0211 61.9726 0.0000 11.8251 0.0000
# 3 53.2212 61.9726 171.8302 0.0000 19.2902 0.0000
# 4 0.0000 0.0000 0.0000 43.8736 0.0000 5.7660
# 5 -0.7115 11.8251 19.2902 0.0000 52.7086 0.0000
# 6 0.0000 0.0000 0.0000 5.7660 0.0000 31.7918
#
#
#
# Elastic Compliance Matrix: (Units=1/GPa)
#
#
# Indices 1 2 3 4 5 6 
#
# 1 0.008172 -0.002005 -0.001951 0.000000 0.001274 0.000000
# 2 -0.002005 0.010887 -0.003158 0.000000 -0.001314 0.000000
# 3 -0.001951 -0.003158 0.007807 0.000000 -0.002175 0.000000
# 4 0.000000 0.000000 0.000000 0.023349 0.000000 -0.004235
# 5 0.001274 -0.001314 -0.002175 0.000000 0.020080 0.000000
# 6 0.000000 0.000000 0.000000 -0.004235 0.000000 0.032223
#
#
# Mechanical properties :
#
#
# Convention : Reuss Voigt Hill
#
# Bulk Modulus (GPa) = 79.12593 83.45207 81.28900
# Shear Modulus (GPa) = 41.33619 44.27670 42.80644
#
# Velocity S-wave (km/s) = 4.11660 4.26050 4.18917
# Velocity P-wave (km/s) = 7.41849 7.64296 7.53156
#
# Compressibility (1/GPa) = 0.01263808
#
# Stress axis : x y z
#
# Youngs Moduli (GPa) = 122.36455 91.85436 128.08748
#
# Poissons Ratio (x) = 0.18417 0.24992
# Poissons Ratio (y) = 0.24534 0.40449
# Poissons Ratio (z) = 0.23875 0.29007
#
# Static dielectric constant tensor:
#      x y z
#    x 1.928830 0.000000 0.018290 
#    y 0.000000 2.035470 0.000000 
#    z 0.018290 0.000000 1.901290 
# 
# From -- ./inp_files/27891.got.cif
#   From: 2010.05.17/outbox.cif.g08.bks.cpg/sg15_14_cif.got.tgz:27891.got - 2010.06.03 18:47:42.
