data_PCOD9307123
_publ_section_title
;
Structure prediction by ZEFSAII (Michael W. Deem and Ramdas Pophale) SiO2 
 PCOD9307123
Probable space group: C 2/C
;
_chemical_formula_sum "Si O2"
_cell_formula_units_Z 40
_cell_length_a 22.421111
_cell_length_b 7.152994
_cell_length_c 14.873999
_cell_angle_alpha 90.000000
_cell_angle_beta 56.594733
_cell_angle_gamma 90.000000
_cell_volume 1991.378208
_symmetry_space_group_name_H-M "C 2/C"
_symmetry_group_IT_number 15
_symmetry_cell_setting 'monoclinic'
loop_
_space_group_symop_operation_xyz
x,y,z
-x,y,1/2-z
-x,-y,-z
x,-y,1/2+z
1/2+x,1/2+y,z
1/2-x,1/2+y,1/2-z
1/2-x,1/2-y,-z
1/2+x,1/2-y,1/2+z
loop_
_atom_site_type_symbol
_atom_site_label
_atom_site_fract_x
_atom_site_fract_y
_atom_site_fract_z
Si Si1 0.529371 0.836819 0.813915
Si Si2 0.183336 0.157792 0.104187
Si Si3 0.340828 0.969331 0.233247
Si Si4 0.263928 0.807975 0.122814
Si Si5 0.893246 0.145845 0.907902
O O1 0.500000 0.953139 0.750000
O O2 0.461259 0.723047 0.906943
O O3 0.580009 0.696316 0.714918
O O4 0.580424 0.941066 0.839854
O O5 0.152541 0.312132 0.195798
O O6 0.216156 0.981557 0.130624
O O7 0.127598 0.070839 0.079116
O O8 0.250000 0.250000 0.000000
O O9 0.308768 0.874941 0.171777
O O10 0.284819 0.129647 0.311396
O O11 0.322424 0.752332 0.999036
#
# Coordination Sequence:
#
# PCOD9307123 Si02
#       5
#     8   8   8   8   8
#     4   8  20  42  61  87 126 168 207 259 308 370
#     4  12  22  36  69  93 118 175 217 255 321 366
#     4  12  23  38  65  95 130 170 206 265 322 376
#     4  12  22  40  60  97 135 157 216 270 312 375
#     4   9  20  40  64  86 128 165 210 269 300 377
#
# _framework density 20.086590999999999
#
# number of rings (size 3 to 8) (size 9 to 14) (size 15 to 20)
#    1.200    0.000    6.000    1.800    0.000    0.800 
#    3.600    0.000    0.000    7.200    0.000    0.000 
#    0.000    0.000    0.000    0.000    0.000    0.000 
#
# Total GULP energy -111336.777675 kJ/mol
# GULP energy per Si atom -5566.838884 kJ/mol
# Density = 2.004087 g / cm^3
# Si number density = 20.086591 Si / 1000 Ang^3
#
#
#
# Elastic Constant Matrix: (Units=GPa)
#
#
# Indices 1 2 3 4 5 6 
#
# 1 129.9578 54.9442 23.6554 0.0000 -26.5725 0.0001
# 2 54.9442 105.1744 20.7347 0.0000 -10.7302 0.0002
# 3 23.6554 20.7347 28.5594 0.0000 -16.2887 0.0000
# 4 0.0000 0.0000 0.0000 18.7801 0.0000 2.4733
# 5 -26.5725 -10.7302 -16.2887 0.0000 23.5037 0.0001
# 6 0.0001 0.0002 0.0000 2.4733 0.0001 36.6781
#
#
#
# Elastic Compliance Matrix: (Units=1/GPa)
#
#
# Indices 1 2 3 4 5 6 
#
# 1 0.012251 -0.005277 0.000346 0.000000 0.011682 0.000000
# 2 -0.005277 0.013379 -0.008701 0.000000 -0.005887 0.000000
# 3 0.000346 -0.008701 0.064496 0.000000 0.041116 0.000000
# 4 0.000000 0.000000 0.000000 0.053725 0.000000 -0.003623
# 5 0.011682 -0.005887 0.041116 0.000000 0.081560 0.000000
# 6 0.000000 0.000000 0.000000 -0.003623 0.000000 0.027509
#
#
# Mechanical properties :
#
#
# Convention : Reuss Voigt Hill
#
# Bulk Modulus (GPa) = 15.90766 51.37337 33.64051
# Shear Modulus (GPa) = 16.60373 26.74953 21.67663
#
# Velocity S-wave (km/s) = 2.87820 3.65322 3.28862
# Velocity P-wave (km/s) = 4.35684 6.58985 5.58607
#
# Compressibility (1/GPa) = 0.06286281
#
# Stress axis : x y z
#
# Youngs Moduli (GPa) = 81.62436 74.74254 15.50493
#
# Poissons Ratio (x) = 0.39438 -0.00536
# Poissons Ratio (y) = 0.43070 0.13491
# Poissons Ratio (z) = -0.02823 0.65033
#
# Static dielectric constant tensor:
#      x y z
#    x 1.812030 0.000000 0.024880 
#    y 0.000000 1.733610 0.000000 
#    z 0.024880 0.000000 1.717260 
# 
# From -- ./inp_files/217426.got.cif
#   From: 2010.05.17/outbox.cif.g08.bks.cpg/sg15_109_cif.got.tgz:217426.got - 2010.06.03 18:47:42.
