data_PCOD9307320
_publ_section_title
;
Structure prediction by ZEFSAII (Michael W. Deem and Ramdas Pophale) SiO2 
 PCOD9307320
Probable space group: C 2/C
;
_chemical_formula_sum "Si O2"
_cell_formula_units_Z 28
_cell_length_a 8.782885
_cell_length_b 24.897921
_cell_length_c 8.613827
_cell_angle_alpha 90.000000
_cell_angle_beta 140.387444
_cell_angle_gamma 90.000000
_cell_volume 1200.991265
_symmetry_space_group_name_H-M "C 2/C"
_symmetry_group_IT_number 15
_symmetry_cell_setting 'monoclinic'
loop_
_space_group_symop_operation_xyz
x,y,z
-x,y,1/2-z
-x,-y,-z
x,-y,1/2+z
1/2+x,1/2+y,z
1/2-x,1/2+y,1/2-z
1/2-x,1/2-y,-z
1/2+x,1/2-y,1/2+z
loop_
_atom_site_type_symbol
_atom_site_label
_atom_site_fract_x
_atom_site_fract_y
_atom_site_fract_z
Si Si1 0.035185 0.440920 0.961544
Si Si2 0.232760 0.299479 0.867810
Si Si3 0.210337 0.343781 0.546657
Si Si4 0.000000 0.116657 0.750000
O O1 0.000000 0.444176 0.750000
O O2 0.871963 0.397637 0.924634
O O3 0.305230 0.419933 0.179214
O O4 0.000000 0.500000 0.000000
O O5 0.191719 0.293312 0.653698
O O6 0.000000 0.329342 0.750000
O O7 0.250000 0.250000 0.000000
O O8 0.438578 0.340961 0.065481
O O9 0.500000 0.347669 0.750000
O O10 0.000000 0.337459 0.250000
#
# Coordination Sequence:
#
# PCOD9307320 Si02
#       4
#     8   8   8   4
#     4  12  27  46  77 112 153 218 269 329 404 482
#     4  12  25  47  83 109 151 216 269 324 406 484
#     4  12  27  50  77 117 166 203 266 345 397 475
#     4  12  22  48  80 106 158 204 278 320 402 466
#
# _framework density 23.314074999999999
#
# number of rings (size 3 to 8) (size 9 to 14) (size 15 to 20)
#    0.000    0.000    7.143    2.571    2.000    1.143 
#    0.000    4.286    0.000    0.000    0.000    0.000 
#    0.000    0.000    0.000    0.000    0.000    0.000 
#
# Total GULP energy -78017.961643 kJ/mol
# GULP energy per Si atom -5572.711546 kJ/mol
# Density = 2.326101 g / cm^3
# Si number density = 23.314075 Si / 1000 Ang^3
#
#
#
# Elastic Constant Matrix: (Units=GPa)
#
#
# Indices 1 2 3 4 5 6 
#
# 1 151.4641 60.1686 83.4026 0.0000 7.0110 0.0000
# 2 60.1686 155.1301 76.7475 0.0000 -9.1881 0.0000
# 3 83.4026 76.7475 177.8794 0.0000 -25.1832 0.0000
# 4 0.0000 0.0000 0.0000 48.4448 0.0000 24.7774
# 5 7.0110 -9.1881 -25.1832 0.0000 55.9643 0.0000
# 6 0.0000 0.0000 0.0000 24.7774 0.0000 106.9016
#
#
#
# Elastic Compliance Matrix: (Units=1/GPa)
#
#
# Indices 1 2 3 4 5 6 
#
# 1 0.009897 -0.001914 -0.004309 0.000000 -0.003493 0.000000
# 2 -0.001914 0.008569 -0.002742 0.000000 0.000413 0.000000
# 3 -0.004309 -0.002742 0.009439 0.000000 0.004337 0.000000
# 4 0.000000 0.000000 0.000000 0.023418 0.000000 -0.005428
# 5 -0.003493 0.000413 0.004337 0.000000 0.020326 0.000000
# 6 0.000000 0.000000 0.000000 -0.005428 0.000000 0.010612
#
#
# Mechanical properties :
#
#
# Convention : Reuss Voigt Hill
#
# Bulk Modulus (GPa) = 100.23597 102.79013 101.51305
# Shear Modulus (GPa) = 48.30170 59.87248 54.08709
#
# Velocity S-wave (km/s) = 4.55662 5.07312 4.82179
# Velocity P-wave (km/s) = 8.41254 8.86005 8.63919
#
# Compressibility (1/GPa) = 0.00997646
#
# Stress axis : x y z
#
# Youngs Moduli (GPa) = 101.04094 116.69715 105.94080
#
# Poissons Ratio (x) = 0.22331 0.45653
# Poissons Ratio (y) = 0.19335 0.29044
# Poissons Ratio (z) = 0.43542 0.31993
#
# Static dielectric constant tensor:
#      x y z
#    x 1.929150 0.000000 -0.009280 
#    y 0.000000 1.909910 0.000000 
#    z -0.009280 0.000000 2.388880 
# 
# From -- ./inp_files/24792.got.cif
#   From: 2010.05.17/outbox.cif.g08.bks.cpg/sg15_13_cif.got.tgz:24792.got - 2010.06.03 18:47:42.
