data_PCOD9307459
_publ_section_title
;
Structure prediction by ZEFSAII (Michael W. Deem and Ramdas Pophale) SiO2 
 PCOD9307459
Probable space group: C 2/C
;
_chemical_formula_sum "Si O2"
_cell_formula_units_Z 32
_cell_length_a 8.656471
_cell_length_b 26.481541
_cell_length_c 13.630758
_cell_angle_alpha 90.000000
_cell_angle_beta 149.887561
_cell_angle_gamma 90.000000
_cell_volume 1567.642346
_symmetry_space_group_name_H-M "C 2/C"
_symmetry_group_IT_number 15
_symmetry_cell_setting 'monoclinic'
loop_
_space_group_symop_operation_xyz
x,y,z
-x,y,1/2-z
-x,-y,-z
x,-y,1/2+z
1/2+x,1/2+y,z
1/2-x,1/2+y,1/2-z
1/2-x,1/2-y,-z
1/2+x,1/2-y,1/2+z
loop_
_atom_site_type_symbol
_atom_site_label
_atom_site_fract_x
_atom_site_fract_y
_atom_site_fract_z
Si Si1 0.698590 0.309347 0.957428
Si Si2 0.271222 0.631419 0.705648
Si Si3 0.318744 0.049898 0.366552
Si Si4 0.167052 0.113548 0.102968
O O1 0.500000 0.316469 0.750000
O O2 0.515420 0.343206 0.936578
O O3 0.750000 0.250000 0.000000
O O4 0.041899 0.330560 0.132557
O O5 0.500000 0.654401 0.750000
O O6 0.046461 0.594074 0.525074
O O7 0.467151 0.602819 0.896353
O O8 0.230112 0.064572 0.205986
O O9 0.000000 0.051543 0.250000
O O10 0.500000 0.000000 0.500000
O O11 0.500000 0.132622 0.250000
#
# Coordination Sequence:
#
# PCOD9307459 Si02
#       4
#     8   8   8   8
#     4  12  24  45  71 106 142 187 235 289 355 419
#     4  12  23  45  70 100 144 183 230 298 344 421
#     4  12  26  47  70 101 141 182 239 292 354 415
#     4  12  24  45  71 100 142 187 232 291 351 416
#
# _framework density 20.41282
#
# number of rings (size 3 to 8) (size 9 to 14) (size 15 to 20)
#    0.000    0.000    7.500    3.000    0.000    2.000 
#    0.000    5.000    0.000    0.000    0.000    0.000 
#    0.000    0.000    0.000    0.000    0.000    0.000 
#
# Total GULP energy -89359.282957 kJ/mol
# GULP energy per Si atom -5584.955185 kJ/mol
# Density = 2.036636 g / cm^3
# Si number density = 20.412820 Si / 1000 Ang^3
#
#
#
# Elastic Constant Matrix: (Units=GPa)
#
#
# Indices 1 2 3 4 5 6 
#
# 1 146.3049 30.3389 56.3006 0.0000 28.6644 0.0000
# 2 30.3389 74.3073 7.9052 0.0000 21.2618 0.0000
# 3 56.3006 7.9052 145.8758 0.0000 -2.1323 0.0000
# 4 0.0000 0.0000 0.0000 40.9198 0.0000 -2.0099
# 5 28.6644 21.2618 -2.1323 0.0000 62.6496 0.0000
# 6 0.0000 0.0000 0.0000 -2.0099 0.0000 4.0127
#
#
#
# Elastic Compliance Matrix: (Units=1/GPa)
#
#
# Indices 1 2 3 4 5 6 
#
# 1 0.009413 -0.002435 -0.003554 0.000000 -0.003601 0.000000
# 2 -0.002435 0.015649 0.000030 0.000000 -0.004196 0.000000
# 3 -0.003554 0.000030 0.008253 0.000000 0.001897 0.000000
# 4 0.000000 0.000000 0.000000 0.025054 0.000000 0.012550
# 5 -0.003601 -0.004196 0.001897 0.000000 0.019098 0.000000
# 6 0.000000 0.000000 0.000000 0.012550 0.000000 0.255495
#
#
# Mechanical properties :
#
#
# Convention : Reuss Voigt Hill
#
# Bulk Modulus (GPa) = 46.73176 61.73084 54.23130
# Shear Modulus (GPa) = 14.20410 39.64597 26.92504
#
# Velocity S-wave (km/s) = 2.64074 4.41183 3.63578
# Velocity P-wave (km/s) = 5.67812 7.50061 6.65208
#
# Compressibility (1/GPa) = 0.02139873
#
# Stress axis : x y z
#
# Youngs Moduli (GPa) = 106.23570 63.90164 121.17161
#
# Poissons Ratio (x) = 0.15558 0.43060
# Poissons Ratio (y) = 0.25865 -0.00367
# Poissons Ratio (z) = 0.37753 -0.00194
#
# Static dielectric constant tensor:
#      x y z
#    x 1.858220 0.000000 0.048790 
#    y 0.000000 1.745110 0.000000 
#    z 0.048790 0.000000 1.780130 
# 
# From -- ./inp_files/24239.got.cif
#   From: 2010.05.17/outbox.cif.g08.bks.cpg/sg15_13_cif.got.tgz:24239.got - 2010.06.03 18:47:42.
