data_PCOD9307194
_publ_section_title
;
Structure prediction by ZEFSAII (Michael W. Deem and Ramdas Pophale) SiO2 
 PCOD9307194
Probable space group: C 2/C
;
_chemical_formula_sum "Si O2"
_cell_formula_units_Z 40
_cell_length_a 19.263826
_cell_length_b 18.196454
_cell_length_c 14.475896
_cell_angle_alpha 90.000000
_cell_angle_beta 21.480446
_cell_angle_gamma 90.000000
_cell_volume 1858.119920
_symmetry_space_group_name_H-M "C 2/C"
_symmetry_group_IT_number 15
_symmetry_cell_setting 'monoclinic'
loop_
_space_group_symop_operation_xyz
x,y,z
-x,y,1/2-z
-x,-y,-z
x,-y,1/2+z
1/2+x,1/2+y,z
1/2-x,1/2+y,1/2-z
1/2-x,1/2-y,-z
1/2+x,1/2-y,1/2+z
loop_
_atom_site_type_symbol
_atom_site_label
_atom_site_fract_x
_atom_site_fract_y
_atom_site_fract_z
Si Si1 0.901506 0.679732 0.061106
Si Si2 0.353632 0.692451 0.299603
Si Si3 0.500000 0.939118 0.750000
Si Si4 0.222812 0.830200 0.987116
Si Si5 0.000000 0.934195 0.750000
Si Si6 0.092884 0.465692 0.296563
O O1 0.771837 0.668709 0.131834
O O2 0.813897 0.668694 0.271052
O O3 0.976088 0.761861 0.956543
O O4 0.069346 0.621479 0.837157
O O5 0.250000 0.750000 0.500000
O O6 0.427523 0.621015 0.260396
O O7 0.333585 0.886757 0.917264
O O8 0.531494 0.996719 0.628916
O O9 0.250000 0.750000 0.000000
O O10 0.000000 0.844665 0.250000
O O11 0.184130 0.980162 0.492447
O O12 0.000000 0.500000 0.500000
#
# Coordination Sequence:
#
# PCOD9307194 Si02
#       6
#     8   8   4   8   4   8
#     4  12  24  45  71 107 146 191 241 313 371 440
#     4  12  22  41  75 110 146 182 246 311 379 433
#     4  12  28  49  77 102 150 196 250 304 368 448
#     4  12  27  49  76 107 144 194 253 311 374 439
#     4  12  26  45  75 112 148 198 246 300 386 440
#     4  12  27  48  72 104 151 196 244 301 370 455
#
# _framework density 21.527135999999999
#
# number of rings (size 3 to 8) (size 9 to 14) (size 15 to 20)
#    0.000    0.000    7.000    2.400    1.400    3.200 
#    0.000    3.000    0.000    0.000    0.000    0.000 
#    0.000    0.000    0.000    0.000    0.000    0.000 
#
# Total GULP energy -111743.332563 kJ/mol
# GULP energy per Si atom -5587.166628 kJ/mol
# Density = 2.147814 g / cm^3
# Si number density = 21.527136 Si / 1000 Ang^3
#
#
#
# Elastic Constant Matrix: (Units=GPa)
#
#
# Indices 1 2 3 4 5 6 
#
# 1 146.9175 20.8056 73.6136 0.0117 12.9419 -0.0067
# 2 20.8056 73.4290 41.5874 0.0219 6.4366 -0.0099
# 3 73.6136 41.5874 137.1924 0.0101 -0.8845 -0.0050
# 4 0.0117 0.0219 0.0101 16.5134 -0.0062 -8.0022
# 5 12.9419 6.4366 -0.8845 -0.0062 40.0656 0.0035
# 6 -0.0067 -0.0099 -0.0050 -8.0022 0.0035 56.0745
#
#
#
# Elastic Compliance Matrix: (Units=1/GPa)
#
#
# Indices 1 2 3 4 5 6 
#
# 1 0.009738 0.000612 -0.005433 -0.000006 -0.003364 0.000000
# 2 0.000612 0.016789 -0.005437 -0.000021 -0.003015 0.000000
# 3 -0.005433 -0.005437 0.011871 0.000005 0.002890 0.000000
# 4 -0.000006 -0.000021 0.000005 0.065056 0.000014 0.009284
# 5 -0.003364 -0.003015 0.002890 0.000014 0.026594 0.000000
# 6 0.000000 0.000000 0.000000 0.009284 0.000000 0.019158
#
#
# Mechanical properties :
#
#
# Convention : Reuss Voigt Hill
#
# Bulk Modulus (GPa) = 55.91903 69.95023 62.93463
# Shear Modulus (GPa) = 28.46061 37.29952 32.88007
#
# Velocity S-wave (km/s) = 3.63999 4.16706 3.91241
# Velocity P-wave (km/s) = 6.61048 7.46438 7.05037
#
# Compressibility (1/GPa) = 0.01788300
#
# Stress axis : x y z
#
# Youngs Moduli (GPa) = 102.68910 59.56343 84.24013
#
# Poissons Ratio (x) = -0.03648 0.45764
# Poissons Ratio (y) = -0.06289 0.45804
# Poissons Ratio (z) = 0.55786 0.32386
#
# Static dielectric constant tensor:
#      x y z
#    x 3.082790 0.000000 -0.197380 
#    y 0.000000 1.890530 0.000000 
#    z -0.197380 0.000000 1.818320 
# 
# From -- ./inp_files/29177.got.cif
#   From: 2010.05.17/outbox.cif.g08.bks.cpg/sg15_15_cif.got.tgz:29177.got - 2010.06.03 18:47:42.
