data_PCOD9307170
_publ_section_title
;
Structure prediction by ZEFSAII (Michael W. Deem and Ramdas Pophale) SiO2 
 PCOD9307170
Probable space group: C 2/C
;
_chemical_formula_sum "Si O2"
_cell_formula_units_Z 36
_cell_length_a 6.785452
_cell_length_b 19.864422
_cell_length_c 13.539274
_cell_angle_alpha 90.000000
_cell_angle_beta 75.188114
_cell_angle_gamma 90.000000
_cell_volume 1764.304033
_symmetry_space_group_name_H-M "C 2/C"
_symmetry_group_IT_number 15
_symmetry_cell_setting 'monoclinic'
loop_
_space_group_symop_operation_xyz
x,y,z
-x,y,1/2-z
-x,-y,-z
x,-y,1/2+z
1/2+x,1/2+y,z
1/2-x,1/2+y,1/2-z
1/2-x,1/2-y,-z
1/2+x,1/2-y,1/2+z
loop_
_atom_site_type_symbol
_atom_site_label
_atom_site_fract_x
_atom_site_fract_y
_atom_site_fract_z
Si Si1 0.899160 0.854520 0.361996
Si Si2 0.464218 0.076250 0.472650
Si Si3 0.500000 0.875815 0.750000
Si Si4 0.329443 0.325885 0.992700
Si Si5 0.159549 0.225893 0.308807
O O1 0.734255 0.897580 0.443077
O O2 0.782272 0.785140 0.347394
O O3 0.000000 0.884196 0.250000
O O4 0.087876 0.840555 0.409386
O O5 0.443070 0.083799 0.356367
O O6 0.655748 0.122487 0.481776
O O7 0.500000 0.000000 0.500000
O O8 0.679511 0.824864 0.759477
O O9 0.528472 0.320983 0.898399
O O10 0.250000 0.250000 0.000000
O O11 0.000000 0.254442 0.250000
#
# Coordination Sequence:
#
# PCOD9307170 Si02
#       5
#     8   8   4   8   8
#     4  12  26  42  70 110 147 181 235 301 362 428
#     4  12  29  49  72 102 148 200 244 296 361 445
#     4  12  24  48  72 102 140 190 242 296 360 434
#     4  12  23  43  73 103 142 185 240 301 362 421
#     4  12  22  40  75 111 139 183 238 305 371 421
#
# _framework density 20.404644999999999
#
# number of rings (size 3 to 8) (size 9 to 14) (size 15 to 20)
#    0.000    0.000    7.778    3.333    0.000    2.667 
#    4.000    0.000    0.000    0.000    0.000    0.000 
#    0.000    0.000    0.000    0.000    0.000    0.000 
#
# Total GULP energy -100634.092287 kJ/mol
# GULP energy per Si atom -5590.782905 kJ/mol
# Density = 2.035820 g / cm^3
# Si number density = 20.404645 Si / 1000 Ang^3
#
#
#
# Elastic Constant Matrix: (Units=GPa)
#
#
# Indices 1 2 3 4 5 6 
#
# 1 99.7400 44.3850 59.5997 0.0000 9.7242 0.0000
# 2 44.3850 135.0953 54.7444 0.0000 -0.2989 0.0000
# 3 59.5997 54.7444 164.5521 0.0000 -1.2942 0.0000
# 4 0.0000 0.0000 0.0000 21.6678 0.0000 1.6682
# 5 9.7242 -0.2989 -1.2942 0.0000 51.8258 0.0000
# 6 0.0000 0.0000 0.0000 1.6682 0.0000 20.1206
#
#
#
# Elastic Compliance Matrix: (Units=1/GPa)
#
#
# Indices 1 2 3 4 5 6 
#
# 1 0.014085 -0.002956 -0.004140 0.000000 -0.002763 0.000000
# 2 -0.002956 0.009176 -0.001978 0.000000 0.000558 0.000000
# 3 -0.004140 -0.001978 0.008242 0.000000 0.000971 0.000000
# 4 0.000000 0.000000 0.000000 0.046448 0.000000 -0.003851
# 5 -0.002763 0.000558 0.000971 0.000000 0.019841 0.000000
# 6 0.000000 0.000000 0.000000 -0.003851 0.000000 0.050020
#
#
# Mechanical properties :
#
#
# Convention : Reuss Voigt Hill
#
# Bulk Modulus (GPa) = 74.87333 79.64952 77.26143
# Shear Modulus (GPa) = 29.34097 34.76673 32.05385
#
# Velocity S-wave (km/s) = 3.79615 4.13227 3.96777
# Velocity P-wave (km/s) = 7.48253 7.86684 7.67709
#
# Compressibility (1/GPa) = 0.01335589
#
# Stress axis : x y z
#
# Youngs Moduli (GPa) = 70.99976 108.97958 121.32913
#
# Poissons Ratio (x) = 0.32215 0.50226
# Poissons Ratio (y) = 0.20988 0.23995
# Poissons Ratio (z) = 0.29391 0.21553
#
# Static dielectric constant tensor:
#      x y z
#    x 1.644680 0.000000 0.080400 
#    y 0.000000 1.711350 0.000000 
#    z 0.080400 0.000000 1.706930 
# 
# From -- ./inp_files/128660.got.cif
#   From: 2010.05.17/outbox.cif.g08.bks.cpg/sg15_65_cif.got.tgz:128660.got - 2010.06.03 18:47:42.
