data_PCOD9307657
_publ_section_title
;
Structure prediction by ZEFSAII (Michael W. Deem and Ramdas Pophale) SiO2 
 PCOD9307657
Probable space group: C 2/C
;
_chemical_formula_sum "Si O2"
_cell_formula_units_Z 36
_cell_length_a 15.015735
_cell_length_b 8.080372
_cell_length_c 14.938889
_cell_angle_alpha 90.000000
_cell_angle_beta 129.486358
_cell_angle_gamma 90.000000
_cell_volume 1398.902755
_symmetry_space_group_name_H-M "C 2/C"
_symmetry_group_IT_number 15
_symmetry_cell_setting 'monoclinic'
loop_
_space_group_symop_operation_xyz
x,y,z
-x,y,1/2-z
-x,-y,-z
x,-y,1/2+z
1/2+x,1/2+y,z
1/2-x,1/2+y,1/2-z
1/2-x,1/2-y,-z
1/2+x,1/2-y,1/2+z
loop_
_atom_site_type_symbol
_atom_site_label
_atom_site_fract_x
_atom_site_fract_y
_atom_site_fract_z
Si Si1 0.693671 0.036525 0.281808
Si Si2 0.736779 0.445038 0.991360
Si Si3 0.520404 0.886050 0.427752
Si Si4 0.000000 0.000000 0.500000
Si Si5 0.635603 0.417451 0.254704
O O1 0.656963 0.222797 0.272696
O O2 0.783156 0.004057 0.419819
O O3 0.587373 0.910309 0.209183
O O4 0.761753 0.010322 0.233701
O O5 0.869112 0.478762 0.046960
O O6 0.750000 0.250000 0.000000
O O7 0.647230 0.508998 0.860962
O O8 0.519874 0.699067 0.466174
O O9 0.500000 0.000000 0.500000
O O10 0.967101 0.936050 0.380087
#
# Coordination Sequence:
#
# PCOD9307657 Si02
#       5
#     8   8   8   4   8
#     4  12  25  46  73 105 148 191 243 309 369 445
#     4  12  26  47  72 107 146 190 247 306 367 446
#     4  12  24  48  73 106 144 190 242 300 370 438
#     4  12  24  44  76 100 142 198 240 296 368 438
#     4  12  25  45  72 106 145 196 245 303 377 434
#
# _framework density 25.734455000000001
#
# number of rings (size 3 to 8) (size 9 to 14) (size 15 to 20)
#    0.000    0.000    4.444    6.667    0.000    0.000 
#    4.000    3.333    0.000    0.000    0.000    0.000 
#    0.000    0.000    0.000    0.000    0.000    0.000 
#
# Total GULP energy -100219.959228 kJ/mol
# GULP energy per Si atom -5567.775513 kJ/mol
# Density = 2.567588 g / cm^3
# Si number density = 25.734455 Si / 1000 Ang^3
#
#
#
# Elastic Constant Matrix: (Units=GPa)
#
#
# Indices 1 2 3 4 5 6 
#
# 1 -37.2538 -10.8941 2.8254 0.0000 -19.8503 0.0000
# 2 -10.8941 197.1580 81.9216 0.0000 -13.4687 0.0000
# 3 2.8254 81.9216 261.2652 0.0000 -16.2775 0.0000
# 4 0.0000 0.0000 0.0000 145.6963 0.0000 2.5805
# 5 -19.8503 -13.4687 -16.2775 0.0000 39.9977 0.0000
# 6 0.0000 0.0000 0.0000 2.5805 0.0000 24.9347
#
#
#
# Elastic Compliance Matrix: (Units=1/GPa)
#
#
# Indices 1 2 3 4 5 6 
#
# 1 -0.020524 -0.001936 0.000158 0.000000 -0.010774 0.000000
# 2 -0.001936 0.005711 -0.001754 0.000000 0.000249 0.000000
# 3 0.000158 -0.001754 0.004457 0.000000 0.001301 0.000000
# 4 0.000000 0.000000 0.000000 0.006876 0.000000 -0.000712
# 5 -0.010774 0.000249 0.001301 0.000000 0.020268 0.000000
# 6 0.000000 0.000000 0.000000 -0.000712 0.000000 0.040178
#
#
# Mechanical properties :
#
#
# Convention : Reuss Voigt Hill
#
# Bulk Modulus (GPa) = -57.40257 63.20837 2.90290
# Shear Modulus (GPa) = 85.87554 65.28017 75.57786
#
# Velocity S-wave (km/s) = 5.78293 5.04201 5.42514
# Velocity P-wave (km/s) = 4.71546 7.64925 6.35400
#
# Compressibility (1/GPa) = -0.01742082
#
# Stress axis : x y z
#
# Youngs Moduli (GPa) = -48.72260 175.09923 224.36723
#
# Poissons Ratio (x) = 0.33892 -0.03537
# Poissons Ratio (y) = -0.09431 0.39361
# Poissons Ratio (z) = 0.00768 0.30718
#
# Static dielectric constant tensor:
#      x y z
#    x 1.398500 0.000000 -0.109440 
#    y 0.000000 1.888730 0.000000 
#    z -0.109440 0.000000 1.983090 
# 
# From -- ./inp_files/159566.got.cif
#   From: 2010.05.17/outbox.cif.g08.bks.cpg/sg15_80_cif.got.tgz:159566.got - 2010.06.03 18:47:42.
