data_PCOD9307793
_publ_section_title
;
Structure prediction by ZEFSAII (Michael W. Deem and Ramdas Pophale) SiO2 
 PCOD9307793
Probable space group: C 2/C
;
_chemical_formula_sum "Si O2"
_cell_formula_units_Z 52
_cell_length_a 5.789028
_cell_length_b 17.852539
_cell_length_c 24.654225
_cell_angle_alpha 90.000000
_cell_angle_beta 120.453255
_cell_angle_gamma 90.000000
_cell_volume 2196.473160
_symmetry_space_group_name_H-M "C 2/C"
_symmetry_group_IT_number 15
_symmetry_cell_setting 'monoclinic'
loop_
_space_group_symop_operation_xyz
x,y,z
-x,y,1/2-z
-x,-y,-z
x,-y,1/2+z
1/2+x,1/2+y,z
1/2-x,1/2+y,1/2-z
1/2-x,1/2-y,-z
1/2+x,1/2-y,1/2+z
loop_
_atom_site_type_symbol
_atom_site_label
_atom_site_fract_x
_atom_site_fract_y
_atom_site_fract_z
Si Si1 0.000000 0.312852 0.250000
Si Si2 0.351508 0.209961 0.565209
Si Si3 0.563748 0.315131 0.829073
Si Si4 0.585078 0.419876 0.486147
Si Si5 0.500000 0.390683 0.250000
Si Si6 0.024021 0.568413 0.374436
Si Si7 0.222775 0.425660 0.111490
Si Si8 0.000000 0.612149 0.250000
O O1 0.168800 0.256390 0.307681
O O2 0.215704 0.351623 0.234941
O O3 0.250000 0.250000 0.500000
O O4 0.425175 0.280147 0.610975
O O5 0.614162 0.158469 0.594806
O O6 0.123032 0.147415 0.551121
O O7 0.745625 0.387557 0.847219
O O8 0.266015 0.337712 0.775272
O O9 0.500000 0.500000 0.500000
O O10 0.778203 0.392052 0.558614
O O11 0.701514 0.442611 0.441152
O O12 0.437094 0.431395 0.185659
O O13 0.066477 0.568918 0.314310
O O14 0.993752 0.484751 0.392923
#
# Coordination Sequence:
#
# PCOD9307793 Si02
#       8
#     4   8   8   8   4   8   8   4
#     4  12  24  48  74 112 160 208 262 332 408 476
#     4  12  27  48  79 114 149 203 262 327 402 479
#     4  12  26  46  74 114 157 201 264 324 403 477
#     4  12  28  51  78 110 158 207 261 332 403 486
#     4  12  29  47  82 117 163 208 272 342 407 493
#     4  12  28  47  77 112 157 207 263 326 400 486
#     4  12  29  48  76 114 155 206 268 327 409 480
#     4  12  27  47  78 115 159 210 264 328 407 475
#
# _framework density 23.674313999999999
#
# number of rings (size 3 to 8) (size 9 to 14) (size 15 to 20)
#    0.000    0.000    4.615    3.692    6.462    5.538 
#    0.000    0.000    0.000    0.000    0.000    0.000 
#    0.000    0.000    0.000    0.000    0.000    0.000 
#
# Total GULP energy -144939.835982 kJ/mol
# GULP energy per Si atom -5574.609076 kJ/mol
# Density = 2.362043 g / cm^3
# Si number density = 23.674314 Si / 1000 Ang^3
#
#
#
# Elastic Constant Matrix: (Units=GPa)
#
#
# Indices 1 2 3 4 5 6 
#
# 1 80.1841 23.3022 43.2329 0.0000 -16.1674 0.0000
# 2 23.3022 66.0430 18.8938 0.0000 -9.9426 0.0000
# 3 43.2329 18.8938 184.5847 0.0000 -24.9201 0.0000
# 4 0.0000 0.0000 0.0000 -22.4523 0.0000 7.5328
# 5 -16.1674 -9.9426 -24.9201 0.0000 57.4314 0.0000
# 6 0.0000 0.0000 0.0000 7.5328 0.0000 26.4407
#
#
#
# Elastic Compliance Matrix: (Units=1/GPa)
#
#
# Indices 1 2 3 4 5 6 
#
# 1 0.015810 -0.004376 -0.002928 0.000000 0.002423 0.000000
# 2 -0.004376 0.017059 -0.000519 0.000000 0.001496 0.000000
# 3 -0.002928 -0.000519 0.006409 0.000000 0.001867 0.000000
# 4 0.000000 0.000000 0.000000 -0.040653 0.000000 0.011582
# 5 0.002423 0.001496 0.001867 0.000000 0.019163 0.000000
# 6 0.000000 0.000000 0.000000 0.011582 0.000000 0.034521
#
#
# Mechanical properties :
#
#
# Convention : Reuss Voigt Hill
#
# Bulk Modulus (GPa) = 42.31622 55.74106 49.02864
# Shear Modulus (GPa) = 65.93477 28.64283 47.28880
#
# Velocity S-wave (km/s) = 5.28311 3.48209 4.47416
# Velocity P-wave (km/s) = 7.42483 6.30577 6.88806
#
# Compressibility (1/GPa) = 0.02363160
#
# Stress axis : x y z
#
# Youngs Moduli (GPa) = 63.25044 58.61856 156.04252
#
# Poissons Ratio (x) = 0.25651 0.45690
# Poissons Ratio (y) = 0.27678 0.08103
# Poissons Ratio (z) = 0.18520 0.03044
#
# Static dielectric constant tensor:
#      x y z
#    x 1.999020 0.000000 -0.003660 
#    y 0.000000 1.880230 0.000000 
#    z -0.003660 0.000000 2.075730 
# 
# From -- ./inp_files/261449.got.cif
#   From: 2010.05.17/outbox.cif.g08.bks.cpg/sg15_131_cif.got.tgz:261449.got - 2010.06.03 18:47:42.
