data_PCOD9307849
_publ_section_title
;
Structure prediction by ZEFSAII (Michael W. Deem and Ramdas Pophale) SiO2 
 PCOD9307849
Probable space group: C 2/C
;
_chemical_formula_sum "Si O2"
_cell_formula_units_Z 36
_cell_length_a 16.880032
_cell_length_b 15.112034
_cell_length_c 13.358459
_cell_angle_alpha 90.000000
_cell_angle_beta 155.301032
_cell_angle_gamma 90.000000
_cell_volume 1423.880996
_symmetry_space_group_name_H-M "C 2/C"
_symmetry_group_IT_number 15
_symmetry_cell_setting 'monoclinic'
loop_
_space_group_symop_operation_xyz
x,y,z
-x,y,1/2-z
-x,-y,-z
x,-y,1/2+z
1/2+x,1/2+y,z
1/2-x,1/2+y,1/2-z
1/2-x,1/2-y,-z
1/2+x,1/2-y,1/2+z
loop_
_atom_site_type_symbol
_atom_site_label
_atom_site_fract_x
_atom_site_fract_y
_atom_site_fract_z
Si Si1 0.073053 0.585432 0.024023
Si Si2 0.910700 0.248591 0.240861
Si Si3 0.189714 0.849149 0.409717
Si Si4 0.000000 0.516573 0.250000
Si Si5 0.520470 0.394349 0.520499
O O1 0.936932 0.667937 0.845432
O O2 0.103114 0.544300 0.948049
O O3 0.272958 0.621376 0.291733
O O4 0.000000 0.500000 0.000000
O O5 0.966447 0.157477 0.360004
O O6 0.151105 0.258302 0.450347
O O7 0.250000 0.750000 0.500000
O O8 0.348360 0.918356 0.623663
O O9 0.000000 0.871302 0.250000
O O10 0.145107 0.858840 0.240528
O O11 0.500000 0.500000 0.500000
#
# Coordination Sequence:
#
# PCOD9307849 Si02
#       5
#     8   8   8   4   8
#     4  12  27  48  77 108 153 202 253 318 385 455
#     4  12  27  49  77 109 152 200 253 309 381 456
#     4  12  28  46  76 111 155 204 256 315 390 460
#     4  12  24  50  74 112 156 198 262 320 386 456
#     4  12  28  49  74 114 146 195 257 310 383 461
#
# _framework density 25.283011999999999
#
# number of rings (size 3 to 8) (size 9 to 14) (size 15 to 20)
#    0.000    0.000    6.667    1.333    9.333    0.889 
#    0.000    0.000    0.000    0.000    0.000    0.000 
#    0.000    0.000    0.000    0.000    0.000    0.000 
#
# Total GULP energy -100640.692423 kJ/mol
# GULP energy per Si atom -5591.149579 kJ/mol
# Density = 2.522547 g / cm^3
# Si number density = 25.283012 Si / 1000 Ang^3
#
#
#
# Elastic Constant Matrix: (Units=GPa)
#
#
# Indices 1 2 3 4 5 6 
#
# 1 93.1642 40.4429 12.3191 0.0000 -5.0935 0.0000
# 2 40.4429 199.1268 59.4778 0.0000 -22.7288 0.0000
# 3 12.3191 59.4778 135.4257 -0.0001 -8.8218 0.0000
# 4 0.0000 0.0000 -0.0001 58.2936 0.0000 -2.0686
# 5 -5.0935 -22.7288 -8.8218 0.0000 54.3540 0.0000
# 6 0.0000 0.0000 0.0000 -2.0686 0.0000 45.2772
#
#
#
# Elastic Compliance Matrix: (Units=1/GPa)
#
#
# Indices 1 2 3 4 5 6 
#
# 1 0.011772 -0.002372 -0.000022 0.000000 0.000108 0.000000
# 2 -0.002372 0.006488 -0.002498 0.000000 0.002085 0.000000
# 3 -0.000022 -0.002498 0.008505 0.000000 0.000334 0.000000
# 4 0.000000 0.000000 0.000000 0.017182 0.000000 0.000785
# 5 0.000108 0.002085 0.000334 0.000000 0.019334 0.000000
# 6 0.000000 0.000000 0.000000 0.000785 0.000000 0.022122
#
#
# Mechanical properties :
#
#
# Convention : Reuss Voigt Hill
#
# Bulk Modulus (GPa) = 58.88896 72.46624 65.67760
# Shear Modulus (GPa) = 49.57973 52.61677 51.09825
#
# Velocity S-wave (km/s) = 4.43311 4.56687 4.50049
# Velocity P-wave (km/s) = 7.03888 7.51882 7.28280
#
# Compressibility (1/GPa) = 0.01698111
#
# Stress axis : x y z
#
# Youngs Moduli (GPa) = 84.94541 154.13590 117.57968
#
# Poissons Ratio (x) = 0.36562 0.00259
# Poissons Ratio (y) = 0.20150 0.29369
# Poissons Ratio (z) = 0.00187 0.38500
#
# Static dielectric constant tensor:
#      x y z
#    x 4.055940 0.000000 2.935580 
#    y 0.000000 1.866040 0.000000 
#    z 2.935580 0.000000 6.157840 
# 
# From -- ./inp_files/215630.got.cif
#   From: 2010.05.17/outbox.cif.g08.bks.cpg/sg15_108_cif.got.tgz:215630.got - 2010.06.03 18:47:42.
