data_PCOD9307309
_publ_section_title
;
Structure prediction by ZEFSAII (Michael W. Deem and Ramdas Pophale) SiO2 
 PCOD9307309
Probable space group: C 2/C
;
_chemical_formula_sum "Si O2"
_cell_formula_units_Z 48
_cell_length_a 28.303134
_cell_length_b 5.858123
_cell_length_c 19.008259
_cell_angle_alpha 90.000000
_cell_angle_beta 43.463634
_cell_angle_gamma 90.000000
_cell_volume 2167.988127
_symmetry_space_group_name_H-M "C 2/C"
_symmetry_group_IT_number 15
_symmetry_cell_setting 'monoclinic'
loop_
_space_group_symop_operation_xyz
x,y,z
-x,y,1/2-z
-x,-y,-z
x,-y,1/2+z
1/2+x,1/2+y,z
1/2-x,1/2+y,1/2-z
1/2-x,1/2-y,-z
1/2+x,1/2-y,1/2+z
loop_
_atom_site_type_symbol
_atom_site_label
_atom_site_fract_x
_atom_site_fract_y
_atom_site_fract_z
Si Si1 0.602244 0.968702 0.300928
Si Si2 0.145502 0.846660 0.883944
Si Si3 0.282976 0.502888 0.443762
Si Si4 0.933378 0.121629 0.273015
Si Si5 0.000697 0.142427 0.571905
Si Si6 0.713203 0.329281 0.208978
O O1 0.536218 0.115583 0.395306
O O2 0.669780 0.122924 0.224443
O O3 0.618985 0.795600 0.345566
O O4 0.587247 0.859221 0.241673
O O5 0.211433 0.735597 0.847853
O O6 0.171082 0.082681 0.822154
O O7 0.080707 0.854397 0.005056
O O8 0.250000 0.250000 0.500000
O O9 0.363349 0.515369 0.380023
O O10 0.282836 0.507851 0.358562
O O11 0.250000 0.750000 0.500000
O O12 0.000000 0.141392 0.250000
O O13 0.957240 0.974832 0.180008
O O14 0.000000 0.000000 0.500000
#
# Coordination Sequence:
#
# PCOD9307309 Si02
#       6
#     8   8   8   8   8   8
#     4  12  22  47  73 102 157 189 249 322 388 456
#     4  12  25  42  76 115 140 192 245 320 395 460
#     4  12  28  52  78 106 154 209 262 315 385 465
#     4  12  29  49  71 110 155 207 261 320 386 473
#     4  12  24  45  76 106 144 192 251 315 391 454
#     4  12  25  45  75 109 150 189 257 321 386 460
#
# _framework density 22.140343000000001
#
# number of rings (size 3 to 8) (size 9 to 14) (size 15 to 20)
#    0.000    0.000    8.333    1.500    2.333    2.000 
#    0.000    0.000    0.000    0.000    0.000    0.000 
#    0.000    0.000    0.000    0.000    0.000    0.000 
#
# Total GULP energy -134098.215104 kJ/mol
# GULP energy per Si atom -5587.425629 kJ/mol
# Density = 2.208995 g / cm^3
# Si number density = 22.140343 Si / 1000 Ang^3
#
#
#
# Elastic Constant Matrix: (Units=GPa)
#
#
# Indices 1 2 3 4 5 6 
#
# 1 150.2129 46.2725 40.8970 -0.0221 -39.1111 0.0502
# 2 46.2725 95.3165 50.8669 -0.1217 -23.1448 0.1096
# 3 40.8970 50.8669 123.3245 -0.0224 -43.6994 0.0671
# 4 -0.0221 -0.1217 -0.0224 56.1602 0.0588 -1.7635
# 5 -39.1111 -23.1448 -43.6994 0.0588 48.1858 -0.0570
# 6 0.0502 0.1096 0.0671 -1.7635 -0.0570 33.2690
#
#
#
# Elastic Compliance Matrix: (Units=1/GPa)
#
#
# Indices 1 2 3 4 5 6 
#
# 1 0.009154 -0.003181 0.000542 -0.000010 0.006394 0.000006
# 2 -0.003181 0.014704 -0.005043 0.000028 -0.000092 -0.000032
# 3 0.000542 -0.005043 0.013713 -0.000016 0.010454 0.000005
# 4 -0.000010 0.000028 -0.000016 0.017836 -0.000030 0.000945
# 5 0.006394 -0.000092 0.010454 -0.000030 0.035379 0.000029
# 6 0.000006 -0.000032 0.000005 0.000945 0.000029 0.030108
#
#
# Mechanical properties :
#
#
# Convention : Reuss Voigt Hill
#
# Bulk Modulus (GPa) = 45.02777 71.65853 58.34315
# Shear Modulus (GPa) = 34.80394 42.91082 38.85738
#
# Velocity S-wave (km/s) = 3.96911 4.40719 4.19387
# Velocity P-wave (km/s) = 6.43325 7.63765 7.06117
#
# Compressibility (1/GPa) = 0.02220851
#
# Stress axis : x y z
#
# Youngs Moduli (GPa) = 109.23863 68.00716 72.92141
#
# Poissons Ratio (x) = 0.21631 -0.03951
# Poissons Ratio (y) = 0.34745 0.36774
# Poissons Ratio (z) = -0.05918 0.34295
#
# Static dielectric constant tensor:
#      x y z
#    x 1.809140 0.000010 -0.023660 
#    y 0.000010 1.930910 -0.000040 
#    z -0.023660 -0.000040 1.908180 
# 
# From -- ./inp_files/258523.got.cif
#   From: 2010.05.17/outbox.cif.g08.bks.cpg/sg15_130_cif.got.tgz:258523.got - 2010.06.03 18:47:42.
