data_PCOD9307450
_publ_section_title
;
Structure prediction by ZEFSAII (Michael W. Deem and Ramdas Pophale) SiO2 
 PCOD9307450
Probable space group: C 2/C
;
_chemical_formula_sum "Si O2"
_cell_formula_units_Z 40
_cell_length_a 16.838998
_cell_length_b 17.050054
_cell_length_c 11.027015
_cell_angle_alpha 90.000000
_cell_angle_beta 147.395960
_cell_angle_gamma 90.000000
_cell_volume 1705.893393
_symmetry_space_group_name_H-M "C 2/C"
_symmetry_group_IT_number 15
_symmetry_cell_setting 'monoclinic'
loop_
_space_group_symop_operation_xyz
x,y,z
-x,y,1/2-z
-x,-y,-z
x,-y,1/2+z
1/2+x,1/2+y,z
1/2-x,1/2+y,1/2-z
1/2-x,1/2-y,-z
1/2+x,1/2-y,1/2+z
loop_
_atom_site_type_symbol
_atom_site_label
_atom_site_fract_x
_atom_site_fract_y
_atom_site_fract_z
Si Si1 0.917361 0.514865 0.022372
Si Si2 0.445333 0.708789 0.311189
Si Si3 0.889663 0.073376 0.838733
Si Si4 0.332919 0.675783 0.549761
Si Si5 0.166706 0.657778 0.084967
O O1 0.767918 0.561646 0.800998
O O2 0.862033 0.429554 0.994699
O O3 0.000000 0.548269 0.250000
O O4 0.000000 0.500000 0.000000
O O5 0.500000 0.680365 0.250000
O O6 0.530230 0.650765 0.510865
O O7 0.275960 0.701120 0.132332
O O8 0.515861 0.794987 0.411181
O O9 0.845985 0.096208 0.645358
O O10 0.000000 0.000000 0.000000
O O11 0.500000 0.703014 0.750000
O O12 0.250000 0.750000 0.500000
O O13 0.252475 0.655816 0.321874
#
# Coordination Sequence:
#
# PCOD9307450 Si02
#       5
#     8   8   8   8   8
#     4  12  29  48  73 108 151 194 245 311 372 440
#     4  12  27  45  75 102 147 193 246 303 368 449
#     4  12  26  49  74 107 147 195 247 305 377 446
#     4  12  23  44  75 107 142 187 245 305 365 443
#     4  12  25  49  71 110 141 192 248 303 370 443
#
# _framework density 23.448124
#
# number of rings (size 3 to 8) (size 9 to 14) (size 15 to 20)
#    0.000    0.000    6.000    2.400    5.600    4.800 
#    0.000    0.000    0.000    0.000    0.000    0.000 
#    0.000    0.000    0.000    0.000    0.000    0.000 
#
# Total GULP energy -111869.876457 kJ/mol
# GULP energy per Si atom -5593.493823 kJ/mol
# Density = 2.339476 g / cm^3
# Si number density = 23.448124 Si / 1000 Ang^3
#
#
#
# Elastic Constant Matrix: (Units=GPa)
#
#
# Indices 1 2 3 4 5 6 
#
# 1 122.2127 -11.1579 34.2482 0.0000 6.8350 0.0000
# 2 -11.1579 54.7883 -3.6834 0.0000 9.0910 0.0000
# 3 34.2482 -3.6834 93.8163 0.0000 1.1470 0.0000
# 4 0.0000 0.0000 0.0000 49.8860 0.0000 0.4801
# 5 6.8350 9.0910 1.1470 0.0000 62.5953 0.0000
# 6 0.0000 0.0000 0.0000 0.4801 0.0000 35.7092
#
#
#
# Elastic Compliance Matrix: (Units=1/GPa)
#
#
# Indices 1 2 3 4 5 6 
#
# 1 0.009356 0.001887 -0.003326 0.000000 -0.001235 0.000000
# 2 0.001887 0.019139 0.000099 0.000000 -0.002987 0.000000
# 3 -0.003326 0.000099 0.011876 0.000000 0.000131 0.000000
# 4 0.000000 0.000000 0.000000 0.020048 0.000000 -0.000270
# 5 -0.001235 -0.002987 0.000131 0.000000 0.016542 0.000000
# 6 0.000000 0.000000 0.000000 -0.000270 0.000000 0.028008
#
#
# Mechanical properties :
#
#
# Convention : Reuss Voigt Hill
#
# Bulk Modulus (GPa) = 26.53268 34.40348 30.46808
# Shear Modulus (GPa) = 41.59315 46.39878 43.99596
#
# Velocity S-wave (km/s) = 4.21626 4.45318 4.33634
# Velocity P-wave (km/s) = 5.91967 6.41444 6.17202
#
# Compressibility (1/GPa) = 0.03768937
#
# Stress axis : x y z
#
# Youngs Moduli (GPa) = 106.88465 52.25024 84.20566
#
# Poissons Ratio (x) = -0.09858 0.28009
# Poissons Ratio (y) = -0.20165 -0.00835
# Poissons Ratio (z) = 0.35553 -0.00518
#
# Static dielectric constant tensor:
#      x y z
#    x 1.935500 0.000000 -0.018230 
#    y 0.000000 1.854880 0.000000 
#    z -0.018230 0.000000 1.985260 
# 
# From -- ./inp_files/89850.got.cif
#   From: 2010.05.17/outbox.cif.g08.bks.cpg/sg15_45_cif.got.tgz:89850.got - 2010.06.03 18:47:42.
