data_PCOD9307848
_publ_section_title
;
Structure prediction by ZEFSAII (Michael W. Deem and Ramdas Pophale) SiO2 
 PCOD9307848
Probable space group: C 2/C
;
_chemical_formula_sum "Si O2"
_cell_formula_units_Z 36
_cell_length_a 8.411966
_cell_length_b 14.222033
_cell_length_c 14.472619
_cell_angle_alpha 90.000000
_cell_angle_beta 70.880038
_cell_angle_gamma 90.000000
_cell_volume 1635.920611
_symmetry_space_group_name_H-M "C 2/C"
_symmetry_group_IT_number 15
_symmetry_cell_setting 'monoclinic'
loop_
_space_group_symop_operation_xyz
x,y,z
-x,y,1/2-z
-x,-y,-z
x,-y,1/2+z
1/2+x,1/2+y,z
1/2-x,1/2+y,1/2-z
1/2-x,1/2-y,-z
1/2+x,1/2-y,1/2+z
loop_
_atom_site_type_symbol
_atom_site_label
_atom_site_fract_x
_atom_site_fract_y
_atom_site_fract_z
Si Si1 0.178499 0.413762 0.178351
Si Si2 0.250000 0.750000 0.000000
Si Si3 0.808967 0.948324 0.808602
Si Si4 0.352046 0.764167 0.576415
Si Si5 0.813668 0.033534 0.003450
O O1 0.236423 0.495827 0.235900
O O2 0.307276 0.327422 0.146728
O O3 0.000000 0.379018 0.250000
O O4 0.180839 0.464159 0.078223
O O5 0.220326 0.858963 0.967730
O O6 0.049043 0.729066 0.022506
O O7 0.710733 0.856060 0.858218
O O8 0.000000 0.921198 0.750000
O O9 0.807107 0.019487 0.895217
O O10 0.250000 0.750000 0.500000
O O11 0.000000 0.000000 0.000000
#
# Coordination Sequence:
#
# PCOD9307848 Si02
#       5
#     8   4   8   8   8
#     4  12  27  47  74 113 154 200 266 321 394 483
#     4  12  26  44  82 106 152 208 254 322 416 460
#     4  12  25  46  79 108 150 203 255 321 393 466
#     4  12  26  49  78 112 154 208 259 327 403 477
#     4  12  24  50  73 114 157 199 261 329 389 480
#
# _framework density 22.005960000000002
#
# number of rings (size 3 to 8) (size 9 to 14) (size 15 to 20)
#    0.000    0.000    6.667    2.000    3.111    3.556 
#    0.000    4.444    0.000    0.000    0.000    0.000 
#    0.000    0.000    0.000    0.000    0.000    0.000 
#
# Total GULP energy -100256.159108 kJ/mol
# GULP energy per Si atom -5569.786617 kJ/mol
# Density = 2.195587 g / cm^3
# Si number density = 22.005960 Si / 1000 Ang^3
#
#
#
# Elastic Constant Matrix: (Units=GPa)
#
#
# Indices 1 2 3 4 5 6 
#
# 1 145.6030 23.5051 30.4905 0.0000 -19.9748 0.0000
# 2 23.5051 95.1509 -0.0254 0.0000 17.3297 0.0000
# 3 30.4905 -0.0254 76.0140 0.0000 1.3506 0.0000
# 4 0.0000 0.0000 0.0000 37.2701 0.0000 -2.3269
# 5 -19.9748 17.3297 1.3506 0.0000 17.6179 0.0000
# 6 0.0000 0.0000 0.0000 -2.3269 0.0000 29.7248
#
#
#
# Elastic Compliance Matrix: (Units=1/GPa)
#
#
# Indices 1 2 3 4 5 6 
#
# 1 0.011770 -0.006591 -0.005083 0.000000 0.020217 0.000000
# 2 -0.006591 0.016498 0.003075 0.000000 -0.023937 0.000000
# 3 -0.005083 0.003075 0.015372 0.000000 -0.009965 0.000000
# 4 0.000000 0.000000 0.000000 0.026963 0.000000 0.002111
# 5 0.020217 -0.023937 -0.009965 0.000000 0.103992 0.000000
# 6 0.000000 0.000000 0.000000 0.002111 0.000000 0.033807
#
#
# Mechanical properties :
#
#
# Convention : Reuss Voigt Hill
#
# Bulk Modulus (GPa) = 37.81798 47.18983 42.50390
# Shear Modulus (GPa) = 21.32974 34.44239 27.88606
#
# Velocity S-wave (km/s) = 3.11669 3.96048 3.56364
# Velocity P-wave (km/s) = 5.49312 6.51187 6.02407
#
# Compressibility (1/GPa) = 0.02644245
#
# Stress axis : x y z
#
# Youngs Moduli (GPa) = 84.96268 60.61257 65.05224
#
# Poissons Ratio (x) = 0.39950 0.33063
# Poissons Ratio (y) = 0.55999 -0.20001
# Poissons Ratio (z) = 0.43183 -0.18636
#
# Static dielectric constant tensor:
#      x y z
#    x 1.788260 0.000000 -0.008220 
#    y 0.000000 1.806340 0.000000 
#    z -0.008220 0.000000 1.830860 
# 
# From -- ./inp_files/132594.got.cif
#   From: 2010.05.17/outbox.cif.g08.bks.cpg/sg15_67_cif.got.tgz:132594.got - 2010.06.03 18:47:42.
