data_PCOD9307779
_publ_section_title
;
Structure prediction by ZEFSAII (Michael W. Deem and Ramdas Pophale) SiO2 
 PCOD9307779
Probable space group: C 2/C
;
_chemical_formula_sum "Si O2"
_cell_formula_units_Z 44
_cell_length_a 12.201544
_cell_length_b 12.265220
_cell_length_c 12.754299
_cell_angle_alpha 90.000000
_cell_angle_beta 109.613244
_cell_angle_gamma 90.000000
_cell_volume 1797.994492
_symmetry_space_group_name_H-M "C 2/C"
_symmetry_group_IT_number 15
_symmetry_cell_setting 'monoclinic'
loop_
_space_group_symop_operation_xyz
x,y,z
-x,y,1/2-z
-x,-y,-z
x,-y,1/2+z
1/2+x,1/2+y,z
1/2-x,1/2+y,1/2-z
1/2-x,1/2-y,-z
1/2+x,1/2-y,1/2+z
loop_
_atom_site_type_symbol
_atom_site_label
_atom_site_fract_x
_atom_site_fract_y
_atom_site_fract_z
Si Si1 0.108269 0.787179 0.651677
Si Si2 0.347324 0.181097 0.303170
Si Si3 0.132070 0.189257 0.492621
Si Si4 0.500000 0.649904 0.750000
Si Si5 0.885635 0.462130 0.401509
Si Si6 0.656366 0.446492 0.474325
O O1 0.208524 0.813938 0.766029
O O2 0.106560 0.657649 0.640769
O O3 0.151354 0.851506 0.560012
O O4 0.973994 0.816547 0.622150
O O5 0.408140 0.234968 0.423852
O O6 0.393237 0.264431 0.231118
O O7 0.374004 0.054060 0.307857
O O8 0.250000 0.250000 0.500000
O O9 0.150424 0.063846 0.529424
O O10 0.451584 0.575965 0.639754
O O11 0.773518 0.457831 0.442476
O O12 0.000000 0.500000 0.500000
#
# Coordination Sequence:
#
# PCOD9307779 Si02
#       6
#     8   8   8   4   8   8
#     4  12  27  45  75 107 144 197 245 298 376 441
#     4  12  28  45  74 110 147 190 249 304 374 441
#     4  12  26  50  70 108 152 189 245 313 369 440
#     4  12  26  48  76 108 142 194 252 294 372 454
#     4  12  24  48  70 104 147 187 243 308 366 436
#     4  12  26  45  78 104 148 192 243 302 365 450
#
# _framework density 24.471712
#
# number of rings (size 3 to 8) (size 9 to 14) (size 15 to 20)
#    0.000    0.000    7.273    1.091    7.636    0.727 
#    0.000    0.000    0.000    0.000    0.000    0.000 
#    0.000    0.000    0.000    0.000    0.000    0.000 
#
# Total GULP energy -122963.130338 kJ/mol
# GULP energy per Si atom -5589.233197 kJ/mol
# Density = 2.441601 g / cm^3
# Si number density = 24.471712 Si / 1000 Ang^3
#
#
#
# Elastic Constant Matrix: (Units=GPa)
#
#
# Indices 1 2 3 4 5 6 
#
# 1 124.3019 8.0514 5.6084 0.0000 21.9411 0.0000
# 2 8.0514 205.2772 16.5037 0.0000 5.0008 0.0000
# 3 5.6084 16.5037 64.9722 0.0000 26.8753 0.0000
# 4 0.0000 0.0000 0.0000 22.2394 0.0000 11.1124
# 5 21.9411 5.0008 26.8753 0.0000 44.7211 0.0000
# 6 0.0000 0.0000 0.0000 11.1124 0.0000 34.8566
#
#
#
# Elastic Compliance Matrix: (Units=1/GPa)
#
#
# Indices 1 2 3 4 5 6 
#
# 1 0.008923 -0.000342 0.001479 0.000000 -0.005229 0.000000
# 2 -0.000342 0.004989 -0.001432 0.000000 0.000470 0.000000
# 3 0.001479 -0.001432 0.021108 0.000000 -0.013251 0.000000
# 4 0.000000 0.000000 0.000000 0.053485 0.000000 -0.017051
# 5 -0.005229 0.000470 -0.013251 0.000000 0.032837 0.000000
# 6 0.000000 0.000000 0.000000 -0.017051 0.000000 0.034125
#
#
# Mechanical properties :
#
#
# Convention : Reuss Voigt Hill
#
# Bulk Modulus (GPa) = 29.04335 50.54202 39.79268
# Shear Modulus (GPa) = 29.84484 44.65595 37.25039
#
# Velocity S-wave (km/s) = 3.49602 4.27640 3.90575
# Velocity P-wave (km/s) = 5.30943 6.71428 6.05275
#
# Compressibility (1/GPa) = 0.03443129
#
# Stress axis : x y z
#
# Youngs Moduli (GPa) = 112.06665 200.45915 47.37444
#
# Poissons Ratio (x) = 0.06847 -0.07008
# Poissons Ratio (y) = 0.03828 0.06785
# Poissons Ratio (z) = -0.16579 0.28711
#
# Static dielectric constant tensor:
#      x y z
#    x 2.011300 0.000000 -0.063610 
#    y 0.000000 1.929010 0.000000 
#    z -0.063610 0.000000 1.982960 
# 
# From -- ./inp_files/142294.got.cif
#   From: 2010.05.17/outbox.cif.g08.bks.cpg/sg15_72_cif.got.tgz:142294.got - 2010.06.03 18:47:42.
