data_PCOD9307936
_publ_section_title
;
Structure prediction by ZEFSAII (Michael W. Deem and Ramdas Pophale) SiO2 
 PCOD9307936
Probable space group: C 2/C
;
_chemical_formula_sum "Si O2"
_cell_formula_units_Z 40
_cell_length_a 8.654987
_cell_length_b 27.299661
_cell_length_c 8.195048
_cell_angle_alpha 90.000000
_cell_angle_beta 108.500247
_cell_angle_gamma 90.000000
_cell_volume 1836.247143
_symmetry_space_group_name_H-M "C 2/C"
_symmetry_group_IT_number 15
_symmetry_cell_setting 'monoclinic'
loop_
_space_group_symop_operation_xyz
x,y,z
-x,y,1/2-z
-x,-y,-z
x,-y,1/2+z
1/2+x,1/2+y,z
1/2-x,1/2+y,1/2-z
1/2-x,1/2-y,-z
1/2+x,1/2-y,1/2+z
loop_
_atom_site_type_symbol
_atom_site_label
_atom_site_fract_x
_atom_site_fract_y
_atom_site_fract_z
Si Si1 0.500000 0.115516 0.750000
Si Si2 0.183260 0.765168 0.304872
Si Si3 0.424752 0.948590 0.544822
Si Si4 0.000000 0.219636 0.250000
Si Si5 0.956905 0.946611 0.048224
Si Si6 0.346893 0.349534 0.425783
O O1 0.559668 0.084826 0.612664
O O2 0.346491 0.143361 0.618354
O O3 0.250000 0.750000 0.500000
O O4 0.332116 0.747985 0.237624
O O5 0.156904 0.822236 0.251290
O O6 0.000000 0.743040 0.250000
O O7 0.500000 0.937549 0.750000
O O8 0.235824 0.944700 0.527780
O O9 0.500000 0.000000 0.500000
O O10 0.057842 0.187169 0.422877
O O11 0.000000 0.945112 0.250000
O O12 0.062400 0.901265 0.016301
O O13 0.000000 0.000000 0.000000
#
# Coordination Sequence:
#
# PCOD9307936 Si02
#       6
#     4   8   8   4   8   8
#     4  12  27  46  72 108 156 198 260 332 385 476
#     4  12  27  51  82 112 158 202 262 329 408 477
#     4  12  25  46  72 105 149 201 267 323 392 463
#     4  12  29  50  82 116 160 206 266 328 409 480
#     4  12  26  48  76 107 158 203 257 326 388 471
#     4  12  28  51  74 118 155 204 264 326 398 479
#
# _framework density 21.783560999999999
#
# number of rings (size 3 to 8) (size 9 to 14) (size 15 to 20)
#    0.000    0.000    5.000    4.200    7.000    0.000 
#    0.000    0.000    0.000    0.000    0.000    0.000 
#    0.000    0.000    0.000    0.000    0.000    0.000 
#
# Total GULP energy -111374.035643 kJ/mol
# GULP energy per Si atom -5568.701782 kJ/mol
# Density = 2.173398 g / cm^3
# Si number density = 21.783561 Si / 1000 Ang^3
#
#
#
# Elastic Constant Matrix: (Units=GPa)
#
#
# Indices 1 2 3 4 5 6 
#
# 1 203.5248 54.3422 32.4035 0.0000 38.2175 0.0000
# 2 54.3422 107.0829 11.5973 0.0000 3.7925 0.0000
# 3 32.4035 11.5973 88.2300 0.0000 29.2074 0.0000
# 4 0.0000 0.0000 0.0000 15.5477 0.0000 6.1300
# 5 38.2175 3.7925 29.2074 0.0000 53.4457 0.0000
# 6 0.0000 0.0000 0.0000 6.1300 0.0000 28.4002
#
#
#
# Elastic Compliance Matrix: (Units=1/GPa)
#
#
# Indices 1 2 3 4 5 6 
#
# 1 0.006641 -0.003153 -0.000643 0.000000 -0.004174 0.000000
# 2 -0.003153 0.010970 -0.000943 0.000000 0.001992 0.000000
# 3 -0.000643 -0.000943 0.014064 0.000000 -0.007159 0.000000
# 4 0.000000 0.000000 0.000000 0.070301 0.000000 -0.015174
# 5 -0.004174 0.001992 -0.007159 0.000000 0.025466 0.000000
# 6 0.000000 0.000000 0.000000 -0.015174 0.000000 0.038486
#
#
# Mechanical properties :
#
#
# Convention : Reuss Voigt Hill
#
# Bulk Modulus (GPa) = 45.05047 66.16928 55.60988
# Shear Modulus (GPa) = 27.35129 39.51171 33.43150
#
# Velocity S-wave (km/s) = 3.54728 4.26353 3.92179
# Velocity P-wave (km/s) = 6.12400 7.39450 6.78904
#
# Compressibility (1/GPa) = 0.02219732
#
# Stress axis : x y z
#
# Youngs Moduli (GPa) = 150.57088 91.15594 71.10311
#
# Poissons Ratio (x) = 0.28741 0.04572
# Poissons Ratio (y) = 0.47473 0.06707
# Poissons Ratio (z) = 0.09681 0.08599
#
# Static dielectric constant tensor:
#      x y z
#    x 1.815440 0.000000 -0.098500 
#    y 0.000000 1.891840 0.000000 
#    z -0.098500 0.000000 1.800530 
# 
# From -- ./inp_files/23814.got.cif
#   From: 2010.05.17/outbox.cif.g08.bks.cpg/sg15_12_cif.got.tgz:23814.got - 2010.06.03 18:47:42.
