data_PCOD9307248
_publ_section_title
;
Structure prediction by ZEFSAII (Michael W. Deem and Ramdas Pophale) SiO2 
 PCOD9307248
Probable space group: C 2/C
;
_chemical_formula_sum "Si O2"
_cell_formula_units_Z 44
_cell_length_a 6.556832
_cell_length_b 19.278816
_cell_length_c 16.503547
_cell_angle_alpha 90.000000
_cell_angle_beta 107.197039
_cell_angle_gamma 90.000000
_cell_volume 1992.914177
_symmetry_space_group_name_H-M "C 2/C"
_symmetry_group_IT_number 15
_symmetry_cell_setting 'monoclinic'
loop_
_space_group_symop_operation_xyz
x,y,z
-x,y,1/2-z
-x,-y,-z
x,-y,1/2+z
1/2+x,1/2+y,z
1/2-x,1/2+y,1/2-z
1/2-x,1/2-y,-z
1/2+x,1/2-y,1/2+z
loop_
_atom_site_type_symbol
_atom_site_label
_atom_site_fract_x
_atom_site_fract_y
_atom_site_fract_z
Si Si1 0.196033 0.159019 0.330680
Si Si2 0.000000 0.751686 0.250000
Si Si3 0.988633 0.120919 0.460251
Si Si4 0.739347 0.311764 0.430281
Si Si5 0.426009 0.064622 0.545421
Si Si6 0.047371 0.446804 0.848145
O O1 0.343168 0.211248 0.295407
O O2 0.356652 0.096092 0.367627
O O3 0.000000 0.138154 0.250000
O O4 0.082744 0.175765 0.404230
O O5 0.159235 0.789310 0.332304
O O6 0.942837 0.145662 0.545367
O O7 0.771548 0.087967 0.400085
O O8 0.178601 0.068994 0.497187
O O9 0.750000 0.250000 0.500000
O O10 0.943983 0.363392 0.448698
O O11 0.500000 0.000000 0.500000
O O12 0.457182 0.028631 0.636325
O O13 0.000000 0.432740 0.750000
#
# Coordination Sequence:
#
# PCOD9307248 Si02
#       6
#     8   4   8   8   8   8
#     4  12  22  43  76 107 145 195 257 309 380 461
#     4  12  28  48  72 114 154 200 260 318 388 478
#     4  12  24  45  78 106 147 202 246 319 387 459
#     4  12  28  51  74 109 161 202 260 323 382 473
#     4  12  26  46  73 109 149 195 255 315 393 456
#     4  12  24  43  71 114 146 188 257 319 374 462
#
# _framework density 22.078220000000002
#
# number of rings (size 3 to 8) (size 9 to 14) (size 15 to 20)
#    0.000    0.000    6.364    3.818    0.000    5.818 
#    1.636    0.000    0.000    0.000    0.000    0.000 
#    0.000    0.000    0.000    0.000    0.000    0.000 
#
# Total GULP energy -122567.653409 kJ/mol
# GULP energy per Si atom -5571.256973 kJ/mol
# Density = 2.202797 g / cm^3
# Si number density = 22.078220 Si / 1000 Ang^3
#
#
#
# Elastic Constant Matrix: (Units=GPa)
#
#
# Indices 1 2 3 4 5 6 
#
# 1 119.1388 33.9412 22.1640 0.0000 20.3973 0.0000
# 2 33.9412 76.9269 32.4680 0.0000 20.6786 0.0000
# 3 22.1640 32.4680 107.7239 0.0000 12.7709 0.0000
# 4 0.0000 0.0000 0.0000 42.4800 0.0000 -8.4940
# 5 20.3973 20.6786 12.7709 0.0000 50.4945 0.0000
# 6 0.0000 0.0000 0.0000 -8.4940 0.0000 33.7396
#
#
#
# Elastic Compliance Matrix: (Units=1/GPa)
#
#
# Indices 1 2 3 4 5 6 
#
# 1 0.009917 -0.003419 -0.000723 0.000000 -0.002423 0.000000
# 2 -0.003419 0.017477 -0.003999 0.000000 -0.004764 0.000000
# 3 -0.000723 -0.003999 0.010730 0.000000 -0.000784 0.000000
# 4 0.000000 0.000000 0.000000 0.024788 0.000000 0.006240
# 5 -0.002423 -0.004764 -0.000784 0.000000 0.022932 0.000000
# 6 0.000000 0.000000 0.000000 0.006240 0.000000 0.031210
#
#
# Mechanical properties :
#
#
# Convention : Reuss Voigt Hill
#
# Bulk Modulus (GPa) = 45.78415 53.43734 49.61075
# Shear Modulus (GPa) = 35.55780 39.69059 37.62419
#
# Velocity S-wave (km/s) = 4.01750 4.24456 4.13259
# Velocity P-wave (km/s) = 6.50405 6.94823 6.72981
#
# Compressibility (1/GPa) = 0.02184162
#
# Stress axis : x y z
#
# Youngs Moduli (GPa) = 100.83783 57.21956 93.19693
#
# Poissons Ratio (x) = 0.19564 0.06734
# Poissons Ratio (y) = 0.34478 0.37271
# Poissons Ratio (z) = 0.07287 0.22883
#
# Static dielectric constant tensor:
#      x y z
#    x 1.952770 0.000000 -0.194100 
#    y 0.000000 1.935450 0.000000 
#    z -0.194100 0.000000 2.010880 
# 
# From -- ./inp_files/184994.got.cif
#   From: 2010.05.17/outbox.cif.g08.bks.cpg/sg15_93_cif.got.tgz:184994.got - 2010.06.03 18:47:42.
