data_PCOD9307751
_publ_section_title
;
Structure prediction by ZEFSAII (Michael W. Deem and Ramdas Pophale) SiO2 
 PCOD9307751
Probable space group: C 2/C
;
_chemical_formula_sum "Si O2"
_cell_formula_units_Z 40
_cell_length_a 4.719013
_cell_length_b 24.795871
_cell_length_c 14.055925
_cell_angle_alpha 90.000000
_cell_angle_beta 112.837290
_cell_angle_gamma 90.000000
_cell_volume 1515.784648
_symmetry_space_group_name_H-M "C 2/C"
_symmetry_group_IT_number 15
_symmetry_cell_setting 'monoclinic'
loop_
_space_group_symop_operation_xyz
x,y,z
-x,y,1/2-z
-x,-y,-z
x,-y,1/2+z
1/2+x,1/2+y,z
1/2-x,1/2+y,1/2-z
1/2-x,1/2-y,-z
1/2+x,1/2-y,1/2+z
loop_
_atom_site_type_symbol
_atom_site_label
_atom_site_fract_x
_atom_site_fract_y
_atom_site_fract_z
Si Si1 0.603580 0.348092 0.595053
Si Si2 0.703228 0.221324 0.150788
Si Si3 0.178020 0.094546 0.903067
Si Si4 0.500000 0.317642 0.250000
Si Si5 0.296951 0.021664 0.594813
Si Si6 0.000000 0.568816 0.250000
O O1 0.611316 0.378811 0.496250
O O2 0.998817 0.472721 0.662193
O O3 0.308959 0.308573 0.567354
O O4 0.707954 0.393205 0.686632
O O5 0.642753 0.281123 0.183892
O O6 0.386419 0.192992 0.131776
O O7 0.000000 0.204084 0.250000
O O8 0.225776 0.142067 0.833631
O O9 0.480598 0.058250 0.939062
O O10 0.872495 0.057934 0.846103
O O11 0.000000 0.000000 0.500000
#
# Coordination Sequence:
#
# PCOD9307751 Si02
#       6
#     8   8   8   4   8   4
#     4  12  26  45  77 108 151 197 269 311 394 458
#     4  12  24  47  71 112 146 199 258 322 383 468
#     4  12  29  50  75 114 152 211 255 323 392 471
#     4  12  29  50  80 104 172 194 263 328 396 462
#     4  12  27  48  74 114 156 200 266 314 389 465
#     4  12  25  44  80 108 154 206 245 342 366 460
#
# _framework density 26.388974999999999
#
# number of rings (size 3 to 8) (size 9 to 14) (size 15 to 20)
#    0.000    0.000    6.000    3.000    2.800    3.200 
#    0.000    0.000    0.000    0.000    0.000    0.000 
#    0.000    0.000    0.000    0.000    0.000    0.000 
#
# Total GULP energy -111729.637903 kJ/mol
# GULP energy per Si atom -5586.481895 kJ/mol
# Density = 2.632891 g / cm^3
# Si number density = 26.388975 Si / 1000 Ang^3
#
#
#
# Elastic Constant Matrix: (Units=GPa)
#
#
# Indices 1 2 3 4 5 6 
#
# 1 165.3530 71.9083 29.0598 0.0000 -20.5046 0.0000
# 2 71.9083 190.2490 73.9021 0.0000 -14.4525 0.0000
# 3 29.0598 73.9021 94.5396 0.0000 -5.7709 0.0000
# 4 0.0000 0.0000 0.0000 32.8479 0.0000 -8.8481
# 5 -20.5046 -14.4525 -5.7709 0.0000 27.9692 0.0000
# 6 0.0000 0.0000 0.0000 -8.8481 0.0000 55.3369
#
#
#
# Elastic Compliance Matrix: (Units=1/GPa)
#
#
# Indices 1 2 3 4 5 6 
#
# 1 0.007708 -0.002538 -0.000122 0.000000 0.004314 0.000000
# 2 -0.002538 0.008594 -0.005854 0.000000 0.001372 0.000000
# 3 -0.000122 -0.005854 0.015192 0.000000 0.000021 0.000000
# 4 0.000000 0.000000 0.000000 0.031814 0.000000 0.005087
# 5 0.004314 0.001372 0.000021 0.000000 0.039630 0.000000
# 6 0.000000 0.000000 0.000000 0.005087 0.000000 0.018884
#
#
# Mechanical properties :
#
#
# Convention : Reuss Voigt Hill
#
# Bulk Modulus (GPa) = 69.12686 88.87575 79.00130
# Shear Modulus (GPa) = 34.80166 41.58222 38.19194
#
# Velocity S-wave (km/s) = 3.63546 3.97387 3.80843
# Velocity P-wave (km/s) = 6.62377 7.40323 7.02432
#
# Compressibility (1/GPa) = 0.01446616
#
# Stress axis : x y z
#
# Youngs Moduli (GPa) = 129.73730 116.36242 65.82315
#
# Poissons Ratio (x) = 0.29537 0.00801
# Poissons Ratio (y) = 0.32932 0.38532
# Poissons Ratio (z) = 0.01579 0.68117
#
# Static dielectric constant tensor:
#      x y z
#    x 2.146400 0.000000 -0.192930 
#    y 0.000000 2.157420 0.000000 
#    z -0.192930 0.000000 2.262890 
# 
# From -- ./inp_files/185124.got.cif
#   From: 2010.05.17/outbox.cif.g08.bks.cpg/sg15_93_cif.got.tgz:185124.got - 2010.06.03 18:47:42.
