data_PCOD9307057
_publ_section_title
;
Structure prediction by ZEFSAII (Michael W. Deem and Ramdas Pophale) SiO2 
 PCOD9307057
Probable space group: C 2/C
;
_chemical_formula_sum "Si O2"
_cell_formula_units_Z 32
_cell_length_a 13.159067
_cell_length_b 11.880005
_cell_length_c 9.108203
_cell_angle_alpha 90.000000
_cell_angle_beta 94.295510
_cell_angle_gamma 90.000000
_cell_volume 1419.883708
_symmetry_space_group_name_H-M "C 2/C"
_symmetry_group_IT_number 15
_symmetry_cell_setting 'monoclinic'
loop_
_space_group_symop_operation_xyz
x,y,z
-x,y,1/2-z
-x,-y,-z
x,-y,1/2+z
1/2+x,1/2+y,z
1/2-x,1/2+y,1/2-z
1/2-x,1/2-y,-z
1/2+x,1/2-y,1/2+z
loop_
_atom_site_type_symbol
_atom_site_label
_atom_site_fract_x
_atom_site_fract_y
_atom_site_fract_z
Si Si1 0.248935 0.577465 0.774846
Si Si2 0.434701 0.416680 0.888762
Si Si3 0.881301 0.489151 0.518802
Si Si4 0.604462 0.749260 0.852148
O O1 0.335403 0.487254 0.829888
O O2 0.170030 0.591414 0.899461
O O3 0.183819 0.533165 0.631873
O O4 0.307636 0.687861 0.729059
O O5 0.500000 0.388433 0.750000
O O6 0.500000 0.500000 0.000000
O O7 0.406838 0.312186 0.990846
O O8 0.872033 0.378779 0.618959
O O9 0.000000 0.500000 0.500000
O O10 0.500000 0.736282 0.750000
#
# Coordination Sequence:
#
# PCOD9307057 Si02
#       4
#     8   8   8   8
#     4  12  23  44  75 100 141 191 239 292 353 428
#     4  12  21  41  71 111 142 178 237 305 355 418
#     4  12  28  50  68 103 154 193 236 294 359 436
#     4  12  25  47  75 108 141 187 242 301 365 423
#
# _framework density 22.537056
#
# number of rings (size 3 to 8) (size 9 to 14) (size 15 to 20)
#    0.000    0.000    7.500    3.000    0.000    2.000 
#    0.000    2.500    0.000    0.000    0.000    0.000 
#    0.000    0.000    0.000    0.000    0.000    0.000 
#
# Total GULP energy -89671.152400 kJ/mol
# GULP energy per Si atom -5604.447025 kJ/mol
# Density = 2.248576 g / cm^3
# Si number density = 22.537056 Si / 1000 Ang^3
#
#
#
# Elastic Constant Matrix: (Units=GPa)
#
#
# Indices 1 2 3 4 5 6 
#
# 1 182.2985 35.3112 66.0461 0.0000 17.7547 0.0000
# 2 35.3112 74.8228 19.2034 0.0000 0.5090 0.0000
# 3 66.0461 19.2034 52.1157 0.0000 44.6647 0.0000
# 4 0.0000 0.0000 0.0000 39.5895 0.0000 1.2759
# 5 17.7547 0.5090 44.6647 0.0000 32.5780 0.0000
# 6 0.0000 0.0000 0.0000 1.2759 0.0000 29.6846
#
#
#
# Elastic Compliance Matrix: (Units=1/GPa)
#
#
# Indices 1 2 3 4 5 6 
#
# 1 0.004239 -0.004514 0.010225 0.000000 -0.016258 0.000000
# 2 -0.004514 0.013707 0.007170 0.000000 -0.007585 0.000000
# 3 0.010225 0.007170 -0.048345 0.000000 0.060597 0.000000
# 4 0.000000 0.000000 0.000000 0.025294 0.000000 -0.001087
# 5 -0.016258 -0.007585 0.060597 0.000000 -0.043404 0.000000
# 6 0.000000 0.000000 0.000000 -0.001087 0.000000 0.033734
#
#
# Mechanical properties :
#
#
# Convention : Reuss Voigt Hill
#
# Bulk Modulus (GPa) = -215.62488 61.15095 -77.23696
# Shear Modulus (GPa) = -118.81499 32.94884 -42.93308
#
# Velocity S-wave (km/s) = -7.26872 3.82774 -4.36936
# Velocity P-wave (km/s) = 12.89686 6.83578 7.73309
#
# Compressibility (1/GPa) = -0.00463768
#
# Stress axis : x y z
#
# Youngs Moduli (GPa) = 235.90723 72.95772 -20.68483
#
# Poissons Ratio (x) = 0.32933 0.21149
# Poissons Ratio (y) = 1.06489 0.14832
# Poissons Ratio (z) = -2.41203 -0.52312
#
# Static dielectric constant tensor:
#      x y z
#    x 3.341890 0.000000 -1.796130 
#    y 0.000000 1.830570 0.000000 
#    z -1.796130 0.000000 3.879180 
# 
# From -- ./inp_files/27634.got.cif
#   From: 2010.05.17/outbox.cif.g08.bks.cpg/sg15_14_cif.got.tgz:27634.got - 2010.06.03 18:47:42.
