data_PCOD9307878
_publ_section_title
;
Structure prediction by ZEFSAII (Michael W. Deem and Ramdas Pophale) SiO2 
 PCOD9307878
Probable space group: C 2/C
;
_chemical_formula_sum "Si O2"
_cell_formula_units_Z 44
_cell_length_a 14.720650
_cell_length_b 11.509471
_cell_length_c 10.935078
_cell_angle_alpha 90.000000
_cell_angle_beta 114.848219
_cell_angle_gamma 90.000000
_cell_volume 1681.181377
_symmetry_space_group_name_H-M "C 2/C"
_symmetry_group_IT_number 15
_symmetry_cell_setting 'monoclinic'
loop_
_space_group_symop_operation_xyz
x,y,z
-x,y,1/2-z
-x,-y,-z
x,-y,1/2+z
1/2+x,1/2+y,z
1/2-x,1/2+y,1/2-z
1/2-x,1/2-y,-z
1/2+x,1/2-y,1/2+z
loop_
_atom_site_type_symbol
_atom_site_label
_atom_site_fract_x
_atom_site_fract_y
_atom_site_fract_z
Si Si1 0.371388 0.593332 0.667668
Si Si2 0.316529 0.969388 0.600697
Si Si3 0.749390 0.787237 0.753830
Si Si4 0.937540 0.279131 0.517496
Si Si5 0.624231 0.794805 0.460782
Si Si6 0.500000 0.395110 0.750000
O O1 0.285130 0.535846 0.535563
O O2 0.318312 0.686940 0.722915
O O3 0.438457 0.668231 0.609121
O O4 0.424852 0.488411 0.768510
O O5 0.287120 0.910627 0.712160
O O6 0.389807 0.880999 0.571697
O O7 0.363918 0.096198 0.623023
O O8 0.859679 0.757617 0.866246
O O9 0.724913 0.781205 0.597949
O O10 0.040639 0.321692 0.518888
O O11 0.570372 0.684130 0.371571
#
# Coordination Sequence:
#
# PCOD9307878 Si02
#       6
#     8   8   8   8   8   4
#     4   9  20  44  67  92 132 177 221 272 322 399
#     4   9  21  42  67  95 129 171 217 282 332 381
#     4   9  21  44  71  93 128 178 225 268 335 399
#     4   9  20  42  70  96 123 170 232 266 325 400
#     4  12  25  39  64 100 136 172 217 273 334 399
#     4  12  28  40  58  98 140 172 218 270 332 386
#
# _framework density 26.172072
#
# number of rings (size 3 to 8) (size 9 to 14) (size 15 to 20)
#    0.000    2.182    0.000    3.818    2.545    8.727 
#    9.818    0.000    0.000    0.000    0.000    0.000 
#    0.000    0.000    0.000    0.000    0.000    0.000 
#
# Total GULP energy -123277.502137 kJ/mol
# GULP energy per Si atom -5603.522824 kJ/mol
# Density = 2.611250 g / cm^3
# Si number density = 26.172072 Si / 1000 Ang^3
#
#
#
# Elastic Constant Matrix: (Units=GPa)
#
#
# Indices 1 2 3 4 5 6 
#
# 1 60.3571 49.6884 17.4125 0.0000 6.1958 0.0000
# 2 49.6884 185.4821 61.5721 0.0000 7.6464 0.0000
# 3 17.4125 61.5721 157.4948 0.0000 2.4195 0.0000
# 4 0.0000 0.0000 0.0000 14.3818 0.0000 -3.8396
# 5 6.1958 7.6464 2.4195 0.0000 36.6632 0.0000
# 6 0.0000 0.0000 0.0000 -3.8396 0.0000 22.0454
#
#
#
# Elastic Compliance Matrix: (Units=1/GPa)
#
#
# Indices 1 2 3 4 5 6 
#
# 1 0.021475 -0.005603 -0.000146 0.000000 -0.002451 0.000000
# 2 -0.005603 0.007705 -0.002385 0.000000 -0.000503 0.000000
# 3 -0.000146 -0.002385 0.007297 0.000000 0.000041 0.000000
# 4 0.000000 0.000000 0.000000 0.072923 0.000000 0.012701
# 5 -0.002451 -0.000503 0.000041 0.000000 0.027792 0.000000
# 6 0.000000 0.000000 0.000000 0.012701 0.000000 0.047573
#
#
# Mechanical properties :
#
#
# Convention : Reuss Voigt Hill
#
# Bulk Modulus (GPa) = 49.48463 73.40889 61.44676
# Shear Modulus (GPa) = 24.06518 32.92880 28.49699
#
# Velocity S-wave (km/s) = 3.03561 3.55091 3.30333
# Velocity P-wave (km/s) = 5.58883 6.70234 6.17076
#
# Compressibility (1/GPa) = 0.02020830
#
# Stress axis : x y z
#
# Youngs Moduli (GPa) = 46.56663 129.78862 137.03648
#
# Poissons Ratio (x) = 0.72724 0.02000
# Poissons Ratio (y) = 0.26093 0.32683
# Poissons Ratio (z) = 0.00680 0.30954
#
# Static dielectric constant tensor:
#      x y z
#    x 2.122140 0.000000 0.023800 
#    y 0.000000 1.979360 0.000000 
#    z 0.023800 0.000000 2.042780 
# 
# From -- ./inp_files/104370.got.cif
#   From: 2010.05.17/outbox.cif.g08.bks.cpg/sg15_53_cif.got.tgz:104370.got - 2010.06.03 18:47:42.
