data_PCOD9307781
_publ_section_title
;
Structure prediction by ZEFSAII (Michael W. Deem and Ramdas Pophale) SiO2 
 PCOD9307781
Probable space group: C 2/C
;
_chemical_formula_sum "Si O2"
_cell_formula_units_Z 36
_cell_length_a 12.413500
_cell_length_b 10.791690
_cell_length_c 23.720856
_cell_angle_alpha 90.000000
_cell_angle_beta 151.613638
_cell_angle_gamma 90.000000
_cell_volume 1510.729737
_symmetry_space_group_name_H-M "C 2/C"
_symmetry_group_IT_number 15
_symmetry_cell_setting 'monoclinic'
loop_
_space_group_symop_operation_xyz
x,y,z
-x,y,1/2-z
-x,-y,-z
x,-y,1/2+z
1/2+x,1/2+y,z
1/2-x,1/2+y,1/2-z
1/2-x,1/2-y,-z
1/2+x,1/2-y,1/2+z
loop_
_atom_site_type_symbol
_atom_site_label
_atom_site_fract_x
_atom_site_fract_y
_atom_site_fract_z
Si Si1 0.671035 0.392821 0.685446
Si Si2 0.455003 0.799329 0.557216
Si Si3 0.633243 0.497005 0.867184
Si Si4 0.183389 0.218998 0.555449
Si Si5 0.000000 0.522531 0.750000
O O1 0.535521 0.499056 0.657020
O O2 0.482857 0.301608 0.573186
O O3 0.834341 0.330061 0.806086
O O4 0.823773 0.442580 0.704806
O O5 0.250000 0.750000 0.500000
O O6 0.535662 0.710449 0.544553
O O7 0.353196 0.922000 0.480855
O O8 0.500000 0.539356 0.750000
O O9 0.702681 0.353597 0.891532
O O10 0.368203 0.111273 0.645561
#
# Coordination Sequence:
#
# PCOD9307781 Si02
#       5
#     8   8   8   8   4
#     4  12  26  45  73 103 148 195 239 310 367 439
#     4  12  27  45  72 110 145 193 245 305 374 439
#     4  12  26  47  73 108 145 194 246 305 368 438
#     4  12  25  48  72 108 146 194 252 302 368 444
#     4  12  24  48  70 110 146 194 252 296 380 440
#
# _framework density 23.829543000000001
#
# number of rings (size 3 to 8) (size 9 to 14) (size 15 to 20)
#    0.000    0.000    3.333    6.000    3.111    1.778 
#    0.000    0.000    0.000    0.000    0.000    0.000 
#    0.000    0.000    0.000    0.000    0.000    0.000 
#
# Total GULP energy -100997.547737 kJ/mol
# GULP energy per Si atom -5610.974874 kJ/mol
# Density = 2.377531 g / cm^3
# Si number density = 23.829543 Si / 1000 Ang^3
#
#
#
# Elastic Constant Matrix: (Units=GPa)
#
#
# Indices 1 2 3 4 5 6 
#
# 1 98.9974 2.7387 9.4655 -0.0001 8.9927 -0.0001
# 2 2.7387 34.8001 31.9525 -0.0003 -8.3979 -0.0001
# 3 9.4655 31.9525 199.3907 0.0004 -34.6805 0.0003
# 4 -0.0001 -0.0003 0.0004 7.4685 0.0004 4.3698
# 5 8.9927 -8.3979 -34.6805 0.0004 47.8821 0.0002
# 6 -0.0001 -0.0001 0.0003 4.3698 0.0002 36.7743
#
#
#
# Elastic Compliance Matrix: (Units=1/GPa)
#
#
# Indices 1 2 3 4 5 6 
#
# 1 0.010448 -0.000689 -0.000856 0.000000 -0.002703 0.000000
# 2 -0.000689 0.033959 -0.004978 0.000001 0.002480 0.000000
# 3 -0.000856 -0.004978 0.006556 -0.000001 0.004036 0.000000
# 4 0.000000 0.000001 -0.000001 0.143901 -0.000001 -0.017099
# 5 -0.002703 0.002480 0.004036 -0.000001 0.024750 0.000000
# 6 0.000000 0.000000 0.000000 -0.017099 0.000000 0.029225
#
#
# Mechanical properties :
#
#
# Convention : Reuss Voigt Hill
#
# Bulk Modulus (GPa) = 26.37321 46.83351 36.60336
# Shear Modulus (GPa) = 18.21348 37.69373 27.95360
#
# Velocity S-wave (km/s) = 2.76764 3.98151 3.42872
# Velocity P-wave (km/s) = 4.61569 6.39005 5.57393
#
# Compressibility (1/GPa) = 0.03791726
#
# Stress axis : x y z
#
# Youngs Moduli (GPa) = 95.71524 29.44749 152.54217
#
# Poissons Ratio (x) = 0.02028 0.13053
# Poissons Ratio (y) = 0.06593 0.75934
# Poissons Ratio (z) = 0.08190 0.14659
#
# Static dielectric constant tensor:
#      x y z
#    x 1.927880 0.000000 0.018090 
#    y 0.000000 1.885370 0.000000 
#    z 0.018090 0.000000 1.875970 
# 
# From -- ./inp_files/94345.got.cif
#   From: 2010.05.17/outbox.cif.g08.bks.cpg/sg15_48_cif.got.tgz:94345.got - 2010.06.03 18:47:42.
