data_PCOD9307282
_publ_section_title
;
Structure prediction by ZEFSAII (Michael W. Deem and Ramdas Pophale) SiO2 
 PCOD9307282
Probable space group: C 2/C
;
_chemical_formula_sum "Si O2"
_cell_formula_units_Z 44
_cell_length_a 12.684313
_cell_length_b 17.707230
_cell_length_c 8.896027
_cell_angle_alpha 90.000000
_cell_angle_beta 108.115217
_cell_angle_gamma 90.000000
_cell_volume 1899.045032
_symmetry_space_group_name_H-M "C 2/C"
_symmetry_group_IT_number 15
_symmetry_cell_setting 'monoclinic'
loop_
_space_group_symop_operation_xyz
x,y,z
-x,y,1/2-z
-x,-y,-z
x,-y,1/2+z
1/2+x,1/2+y,z
1/2-x,1/2+y,1/2-z
1/2-x,1/2-y,-z
1/2+x,1/2-y,1/2+z
loop_
_atom_site_type_symbol
_atom_site_label
_atom_site_fract_x
_atom_site_fract_y
_atom_site_fract_z
Si Si1 0.564285 0.436167 0.434039
Si Si2 0.661495 0.285033 0.583717
Si Si3 0.500000 0.891012 0.750000
Si Si4 0.313461 0.968578 0.458491
Si Si5 0.619462 0.854685 0.256467
Si Si6 0.326789 0.144661 0.394069
O O1 0.500000 0.435706 0.250000
O O2 0.500000 0.500000 0.500000
O O3 0.576425 0.348696 0.489720
O O4 0.692798 0.460588 0.477237
O O5 0.750000 0.250000 0.500000
O O6 0.604211 0.215011 0.638863
O O7 0.729148 0.326723 0.746269
O O8 0.409707 0.939103 0.614018
O O9 0.565017 0.840328 0.658725
O O10 0.315976 0.916935 0.310355
O O11 0.330173 0.054242 0.417685
O O12 0.500000 0.886497 0.250000
O O13 0.675301 0.827919 0.435712
#
# Coordination Sequence:
#
# PCOD9307282 Si02
#       6
#     8   8   4   8   8   8
#     4  12  29  53  83 113 159 221 274 334 407 500
#     4  12  27  53  76 112 163 216 270 333 418 491
#     4  12  22  44  80 114 154 198 252 344 404 478
#     4  12  26  49  77 120 158 204 274 339 414 480
#     4  12  27  46  75 118 158 205 265 337 417 492
#     4  12  26  43  80 113 154 202 265 337 410 479
#
# _framework density 23.169539
#
# number of rings (size 3 to 8) (size 9 to 14) (size 15 to 20)
#    0.000    0.000    5.455    3.273    5.091    3.636 
#    1.636    0.000    0.000    0.000    0.000    0.000 
#    0.000    0.000    0.000    0.000    0.000    0.000 
#
# Total GULP energy -123139.997869 kJ/mol
# GULP energy per Si atom -5597.272630 kJ/mol
# Density = 2.311680 g / cm^3
# Si number density = 23.169539 Si / 1000 Ang^3
#
#
#
# Elastic Constant Matrix: (Units=GPa)
#
#
# Indices 1 2 3 4 5 6 
#
# 1 101.2790 24.4370 23.3163 0.0000 -8.7929 0.0000
# 2 24.4370 106.3348 50.6752 0.0000 -16.4130 0.0000
# 3 23.3163 50.6752 161.1235 0.0000 7.6297 0.0000
# 4 0.0000 0.0000 0.0000 34.8448 0.0000 13.6461
# 5 -8.7929 -16.4130 7.6297 0.0000 48.7642 0.0000
# 6 0.0000 0.0000 0.0000 13.6461 0.0000 26.1313
#
#
#
# Elastic Compliance Matrix: (Units=1/GPa)
#
#
# Indices 1 2 3 4 5 6 
#
# 1 0.010665 -0.001702 -0.001080 0.000000 0.001519 0.000000
# 2 -0.001702 0.012307 -0.003835 0.000000 0.004436 0.000000
# 3 -0.001080 -0.003835 0.007696 0.000000 -0.002690 0.000000
# 4 0.000000 0.000000 0.000000 0.036077 0.000000 -0.018840
# 5 0.001519 0.004436 -0.002690 0.000000 0.022695 0.000000
# 6 0.000000 0.000000 0.000000 -0.018840 0.000000 0.048107
#
#
# Mechanical properties :
#
#
# Convention : Reuss Voigt Hill
#
# Bulk Modulus (GPa) = 57.35376 62.84381 60.09879
# Shear Modulus (GPa) = 31.93035 39.96866 35.94950
#
# Velocity S-wave (km/s) = 3.71633 4.15788 3.94329
# Velocity P-wave (km/s) = 6.57438 7.08752 6.83577
#
# Compressibility (1/GPa) = 0.01743565
#
# Stress axis : x y z
#
# Youngs Moduli (GPa) = 93.76598 81.25195 129.93597
#
# Poissons Ratio (x) = 0.13827 0.14034
# Poissons Ratio (y) = 0.15956 0.49825
# Poissons Ratio (z) = 0.10127 0.31157
#
# Static dielectric constant tensor:
#      x y z
#    x 1.986490 0.000000 -0.018810 
#    y 0.000000 1.912960 0.000000 
#    z -0.018810 0.000000 1.911280 
# 
# From -- ./inp_files/39331.got.cif
#   From: 2010.05.17/outbox.cif.g08.bks.cpg/sg15_20_cif.got.tgz:39331.got - 2010.06.03 18:47:42.
