data_PCOD9307169
_publ_section_title
;
Structure prediction by ZEFSAII (Michael W. Deem and Ramdas Pophale) SiO2 
 PCOD9307169
Probable space group: C 2/C
;
_chemical_formula_sum "Si O2"
_cell_formula_units_Z 40
_cell_length_a 27.507394
_cell_length_b 8.475298
_cell_length_c 18.803298
_cell_angle_alpha 90.000000
_cell_angle_beta 154.131400
_cell_angle_gamma 90.000000
_cell_volume 1912.636160
_symmetry_space_group_name_H-M "C 2/C"
_symmetry_group_IT_number 15
_symmetry_cell_setting 'monoclinic'
loop_
_space_group_symop_operation_xyz
x,y,z
-x,y,1/2-z
-x,-y,-z
x,-y,1/2+z
1/2+x,1/2+y,z
1/2-x,1/2+y,1/2-z
1/2-x,1/2-y,-z
1/2+x,1/2-y,1/2+z
loop_
_atom_site_type_symbol
_atom_site_label
_atom_site_fract_x
_atom_site_fract_y
_atom_site_fract_z
Si Si1 0.744790 0.302206 0.201555
Si Si2 0.122353 0.930451 0.174869
Si Si3 0.319552 0.272307 0.661591
Si Si4 0.972748 0.623299 0.630179
Si Si5 0.504390 0.137113 0.444605
O O1 0.690308 0.406969 0.191210
O O2 0.770912 0.353120 0.154701
O O3 0.874250 0.275500 0.394156
O O4 0.649380 0.172072 0.058901
O O5 0.182075 0.053592 0.306266
O O6 0.094538 0.759432 0.171208
O O7 0.000000 0.000000 0.000000
O O8 0.250000 0.250000 0.500000
O O9 0.445371 0.237814 0.805451
O O10 0.000000 0.638159 0.750000
O O11 0.001068 0.450736 0.637852
O O12 0.500000 0.000000 0.500000
#
# Coordination Sequence:
#
# PCOD9307169 Si02
#       5
#     8   8   8   8   8
#     4  12  22  40  75 100 139 184 233 290 351 418
#     4  12  24  43  69 106 135 184 244 284 346 435
#     4  12  25  44  70 103 141 184 234 291 359 419
#     4  12  25  44  69 101 140 184 228 292 363 413
#     4  12  24  43  69 104 139 179 241 293 345 427
#
# _framework density 20.913544999999999
#
# number of rings (size 3 to 8) (size 9 to 14) (size 15 to 20)
#    0.000    0.000   10.000    1.200    0.000    0.000 
#    0.000    4.000    0.000    0.000    0.000    0.000 
#    0.000    0.000    0.000    0.000    0.000    0.000 
#
# Total GULP energy -111426.089986 kJ/mol
# GULP energy per Si atom -5571.304499 kJ/mol
# Density = 2.086595 g / cm^3
# Si number density = 20.913545 Si / 1000 Ang^3
#
#
#
# Elastic Constant Matrix: (Units=GPa)
#
#
# Indices 1 2 3 4 5 6 
#
# 1 189.0679 68.4552 59.4658 0.0000 3.7646 0.0000
# 2 68.4552 109.2395 52.3749 0.0000 -5.5761 0.0000
# 3 59.4658 52.3749 91.6580 0.0000 8.8459 0.0000
# 4 0.0000 0.0000 0.0000 31.5609 0.0000 1.9953
# 5 3.7646 -5.5761 8.8459 0.0000 46.4833 0.0000
# 6 0.0000 0.0000 0.0000 1.9953 0.0000 38.0059
#
#
#
# Elastic Compliance Matrix: (Units=1/GPa)
#
#
# Indices 1 2 3 4 5 6 
#
# 1 0.007389 -0.003271 -0.002882 0.000000 -0.000442 0.000000
# 2 -0.003271 0.014463 -0.006454 0.000000 0.003228 0.000000
# 3 -0.002882 -0.006454 0.016829 0.000000 -0.003743 0.000000
# 4 0.000000 0.000000 0.000000 0.031790 0.000000 -0.001669
# 5 -0.000442 0.003228 -0.003743 0.000000 0.022649 0.000000
# 6 0.000000 0.000000 0.000000 -0.001669 0.000000 0.026399
#
#
# Mechanical properties :
#
#
# Convention : Reuss Voigt Hill
#
# Bulk Modulus (GPa) = 74.25382 83.39526 78.82454
# Shear Modulus (GPa) = 33.50737 37.18798 35.34767
#
# Velocity S-wave (km/s) = 4.00707 4.22142 4.11564
# Velocity P-wave (km/s) = 7.54924 7.98268 7.76899
#
# Compressibility (1/GPa) = 0.01346732
#
# Stress axis : x y z
#
# Youngs Moduli (GPa) = 135.34333 69.14184 59.42183
#
# Poissons Ratio (x) = 0.22616 0.17124
# Poissons Ratio (y) = 0.44271 0.38350
# Poissons Ratio (z) = 0.39003 0.44623
#
# Static dielectric constant tensor:
#      x y z
#    x 1.791030 0.000000 0.038750 
#    y 0.000000 1.857120 0.000000 
#    z 0.038750 0.000000 1.835510 
# 
# From -- ./inp_files/218814.got.cif
#   From: 2010.05.17/outbox.cif.g08.bks.cpg/sg15_110_cif.got.tgz:218814.got - 2010.06.03 18:47:42.
