data_PCOD9307010
_publ_section_title
;
Structure prediction by ZEFSAII (Michael W. Deem and Ramdas Pophale) SiO2 
 PCOD9307010
Probable space group: C 2/C
;
_chemical_formula_sum "Si O2"
_cell_formula_units_Z 40
_cell_length_a 14.907434
_cell_length_b 14.485828
_cell_length_c 9.383536
_cell_angle_alpha 90.000000
_cell_angle_beta 66.856042
_cell_angle_gamma 90.000000
_cell_volume 1863.262434
_symmetry_space_group_name_H-M "C 2/C"
_symmetry_group_IT_number 15
_symmetry_cell_setting 'monoclinic'
loop_
_space_group_symop_operation_xyz
x,y,z
-x,y,1/2-z
-x,-y,-z
x,-y,1/2+z
1/2+x,1/2+y,z
1/2-x,1/2+y,1/2-z
1/2-x,1/2-y,-z
1/2+x,1/2-y,1/2+z
loop_
_atom_site_type_symbol
_atom_site_label
_atom_site_fract_x
_atom_site_fract_y
_atom_site_fract_z
Si Si1 0.227894 0.809753 0.377211
Si Si2 0.795161 0.006432 0.961691
Si Si3 0.922008 0.068571 0.119599
Si Si4 0.486562 0.716127 0.601690
Si Si5 0.824595 0.320800 0.034800
O O1 0.250000 0.750000 0.500000
O O2 0.225704 0.914571 0.435201
O O3 0.310523 0.798851 0.209098
O O4 0.128149 0.778301 0.359488
O O5 0.871951 0.971736 0.792178
O O6 0.709174 0.071791 0.957339
O O7 0.840270 0.074340 0.050498
O O8 0.977487 0.164404 0.065745
O O9 0.000000 0.000000 0.000000
O O10 0.500000 0.666518 0.750000
O O11 0.563295 0.799670 0.574178
O O12 0.750000 0.250000 0.000000
#
# Coordination Sequence:
#
# PCOD9307010 Si02
#       5
#     8   8   8   8   8
#     4  12  27  45  71 106 141 187 247 300 354 420
#     4  12  24  41  64 102 142 184 229 292 357 422
#     4  12  21  36  66 101 140 172 233 297 359 413
#     4  12  24  44  75 108 139 188 242 294 368 433
#     4  12  24  44  71 102 147 188 230 295 370 434
#
# _framework density 21.467724
#
# number of rings (size 3 to 8) (size 9 to 14) (size 15 to 20)
#    0.000    0.000    8.000    3.000    0.000    2.400 
#    0.000    1.000    0.000    0.000    0.000    0.000 
#    0.000    0.000    0.000    0.000    0.000    0.000 
#
# Total GULP energy -111404.871459 kJ/mol
# GULP energy per Si atom -5570.243573 kJ/mol
# Density = 2.141886 g / cm^3
# Si number density = 21.467724 Si / 1000 Ang^3
#
#
#
# Elastic Constant Matrix: (Units=GPa)
#
#
# Indices 1 2 3 4 5 6 
#
# 1 80.6245 35.7724 18.1970 0.0000 3.5822 0.0000
# 2 35.7724 55.5910 23.5557 0.0000 -15.7166 0.0000
# 3 18.1970 23.5557 140.4542 0.0000 -2.6769 0.0000
# 4 0.0000 0.0000 0.0000 30.9547 0.0000 -4.6175
# 5 3.5822 -15.7166 -2.6769 0.0000 41.3919 0.0000
# 6 0.0000 0.0000 0.0000 -4.6175 0.0000 41.1934
#
#
#
# Elastic Compliance Matrix: (Units=1/GPa)
#
#
# Indices 1 2 3 4 5 6 
#
# 1 0.019044 -0.014147 -0.000229 0.000000 -0.007034 0.000000
# 2 -0.014147 0.032247 -0.003323 0.000000 0.013254 0.000000
# 3 -0.000229 -0.003323 0.007692 0.000000 -0.000744 0.000000
# 4 0.000000 0.000000 0.000000 0.032855 0.000000 0.003683
# 5 -0.007034 0.013254 -0.000744 0.000000 0.029752 0.000000
# 6 0.000000 0.000000 0.000000 0.003683 0.000000 0.024689
#
#
# Mechanical properties :
#
#
# Convention : Reuss Voigt Hill
#
# Bulk Modulus (GPa) = 42.39617 47.96888 45.18253
# Shear Modulus (GPa) = 26.38002 35.98431 31.18217
#
# Velocity S-wave (km/s) = 3.50926 4.09859 3.81532
# Velocity P-wave (km/s) = 6.01760 6.69261 6.36406
#
# Compressibility (1/GPa) = 0.02358704
#
# Stress axis : x y z
#
# Youngs Moduli (GPa) = 52.50978 31.01091 129.99711
#
# Poissons Ratio (x) = 0.43870 0.02975
# Poissons Ratio (y) = 0.74283 0.43195
# Poissons Ratio (z) = 0.01202 0.10304
#
# Static dielectric constant tensor:
#      x y z
#    x 1.924290 0.000000 -0.040690 
#    y 0.000000 2.057070 0.000000 
#    z -0.040690 0.000000 1.839020 
# 
# From -- ./inp_files/37816.got.cif
#   From: 2010.05.17/outbox.cif.g08.bks.cpg/sg15_19_cif.got.tgz:37816.got - 2010.06.03 18:47:42.
