data_PCOD9308494
_publ_section_title
;
Structure prediction by ZEFSAII (Michael W. Deem and Ramdas Pophale) SiO2 
 PCOD9308494
Probable space group: C 2/C
;
_chemical_formula_sum "Si O2"
_cell_formula_units_Z 64
_cell_length_a 7.821981
_cell_length_b 16.020069
_cell_length_c 22.180367
_cell_angle_alpha 90.000000
_cell_angle_beta 59.688574
_cell_angle_gamma 90.000000
_cell_volume 2399.435346
_symmetry_space_group_name_H-M "C 2/C"
_symmetry_group_IT_number 15
_symmetry_cell_setting 'monoclinic'
loop_
_space_group_symop_operation_xyz
x,y,z
-x,y,1/2-z
-x,-y,-z
x,-y,1/2+z
1/2+x,1/2+y,z
1/2-x,1/2+y,1/2-z
1/2-x,1/2-y,-z
1/2+x,1/2-y,1/2+z
loop_
_atom_site_type_symbol
_atom_site_label
_atom_site_fract_x
_atom_site_fract_y
_atom_site_fract_z
Si Si1 0.841106 0.384349 0.046989
Si Si2 0.279977 0.919643 0.577087
Si Si3 0.594835 0.652043 0.300615
Si Si4 0.043031 0.847242 0.332754
Si Si5 0.594835 0.152043 0.800615
Si Si6 0.158894 0.884349 0.953011
Si Si7 0.220023 0.080357 0.922912
Si Si8 0.956969 0.652759 0.167246
O O1 0.802057 0.483472 0.058034
O O2 0.695425 0.349264 0.123983
O O3 0.750000 0.352015 0.000000
O O4 0.075346 0.372554 0.996089
O O5 0.383952 0.899727 0.622727
O O6 0.051363 0.896523 0.628510
O O7 0.500000 0.643008 0.250000
O O8 0.583541 0.750000 0.317694
O O9 0.820572 0.624746 0.247256
O O10 0.179428 0.875254 0.252744
O O11 0.116048 0.899727 0.377273
O O12 0.098315 0.750000 0.332199
O O13 0.500000 0.143008 0.750000
O O14 0.448637 0.103477 0.871490
O O15 0.304575 0.849264 0.876017
O O16 0.197943 0.983472 0.941966
O O17 0.924654 0.872554 0.003911
#
# Coordination Sequence:
#
# PCOD9308494 Si02
#       8
#     8   8   8   8   8   8   8   8
#     4   9  18  28  40  62  90 115 141 172 207 251
#     4   9  16  27  42  61  89 115 137 171 215 249
#     4   8  14  25  42  63  84 106 137 176 213 249
#     4   9  17  29  46  67  86 107 141 179 212 250
#     4   8  14  25  42  63  84 106 137 176 213 249
#     4   9  18  28  40  62  90 115 141 172 207 251
#     4   9  16  27  42  61  89 115 137 171 215 249
#     4   9  17  29  46  67  86 107 141 179 212 250
#
# _framework density 26.672941999999999
#
# number of rings (size 3 to 8) (size 9 to 14) (size 15 to 20)
#    0.000    3.250    0.000    2.250    0.000    6.500 
#    0.000    0.000    0.000    3.000    0.000   10.500 
#    0.000   45.000    0.000    0.000    0.000    0.000 
#
# Total GULP energy -178864.447957 kJ/mol
# GULP energy per Si atom -5589.513999 kJ/mol
# Density = 2.661223 g / cm^3
# Si number density = 26.672942 Si / 1000 Ang^3
#
#
#
# Elastic Constant Matrix: (Units=GPa)
#
#
# Indices 1 2 3 4 5 6 
#
# 1 129.3402 18.6409 79.9379 0.0000 -45.8804 0.0000
# 2 18.6409 53.4977 33.1705 0.0000 -10.6146 0.0000
# 3 79.9379 33.1705 298.4195 0.0000 -47.9822 0.0000
# 4 0.0000 0.0000 0.0000 44.4522 0.0000 -11.6867
# 5 -45.8804 -10.6146 -47.9822 0.0000 79.6787 0.0000
# 6 0.0000 0.0000 0.0000 -11.6867 0.0000 26.4893
#
#
#
# Elastic Compliance Matrix: (Units=1/GPa)
#
#
# Indices 1 2 3 4 5 6 
#
# 1 0.010907 -0.001618 -0.001956 0.000000 0.004887 0.000000
# 2 -0.001618 0.020473 -0.001720 0.000000 0.000760 0.000000
# 3 -0.001956 -0.001720 0.004261 0.000000 0.001210 0.000000
# 4 0.000000 0.000000 0.000000 0.025448 0.000000 0.011227
# 5 0.004887 0.000760 0.001210 0.000000 0.016195 0.000000
# 6 0.000000 0.000000 0.000000 0.011227 0.000000 0.042704
#
#
# Mechanical properties :
#
#
# Convention : Reuss Voigt Hill
#
# Bulk Modulus (GPa) = 39.91534 82.75067 61.33301
# Shear Modulus (GPa) = 35.98992 53.42459 44.70725
#
# Velocity S-wave (km/s) = 3.67727 4.48029 4.09850
# Velocity P-wave (km/s) = 5.74691 7.60628 6.74101
#
# Compressibility (1/GPa) = 0.02505302
#
# Stress axis : x y z
#
# Youngs Moduli (GPa) = 91.68185 48.84366 234.69939
#
# Poissons Ratio (x) = 0.07903 0.45910
# Poissons Ratio (y) = 0.14835 0.40371
# Poissons Ratio (z) = 0.17934 0.08402
#
# Static dielectric constant tensor:
#      x y z
#    x 2.196320 0.000000 -0.049900 
#    y 0.000000 1.945780 0.000000 
#    z -0.049900 0.000000 2.102710 
# 
# From -- ./inp_files/239572.got.cif
#   From: 2010.05.17/outbox.cif.g08.bks.cpg/sg15_120_cif.got.tgz:239572.got - 2010.06.03 18:47:42.
