data_PCOD9308294
_publ_section_title
;
Structure prediction by ZEFSAII (Michael W. Deem and Ramdas Pophale) SiO2 
 PCOD9308294
Probable space group: C 2/C
;
_chemical_formula_sum "Si O2"
_cell_formula_units_Z 28
_cell_length_a 9.597168
_cell_length_b 11.175278
_cell_length_c 10.083816
_cell_angle_alpha 90.000000
_cell_angle_beta 71.982449
_cell_angle_gamma 90.000000
_cell_volume 1028.464778
_symmetry_space_group_name_H-M "C 2/C"
_symmetry_group_IT_number 15
_symmetry_cell_setting 'monoclinic'
loop_
_space_group_symop_operation_xyz
x,y,z
-x,y,1/2-z
-x,-y,-z
x,-y,1/2+z
1/2+x,1/2+y,z
1/2-x,1/2+y,1/2-z
1/2-x,1/2-y,-z
1/2+x,1/2-y,1/2+z
loop_
_atom_site_type_symbol
_atom_site_label
_atom_site_fract_x
_atom_site_fract_y
_atom_site_fract_z
Si Si1 0.203835 0.376930 0.245902
Si Si2 0.500000 0.712862 0.750000
Si Si3 0.317260 0.918189 0.948645
Si Si4 0.500000 0.500000 0.000000
Si Si5 0.000000 0.838811 0.750000
O O1 0.383897 0.366317 0.196073
O O2 0.157259 0.425743 0.402526
O O3 0.150625 0.463764 0.146279
O O4 0.135045 0.248631 0.242744
O O5 0.401727 0.804403 0.864379
O O6 0.144251 0.911150 0.975693
O O7 0.448111 0.420085 0.885852
#
# Coordination Sequence:
#
# PCOD9308294 Si02
#       5
#     8   4   8   4   4
#     4  12  29  55  84 125 173 228 285 353 436 496
#     4  12  27  53  88 124 172 230 288 356 420 514
#     4  12  28  54  84 125 171 222 292 351 413 531
#     4  12  26  56  82 122 172 226 284 344 430 516
#     4  12  29  53  84 124 168 234 278 360 434 504
#
# _framework density 27.225045000000001
#
# number of rings (size 3 to 8) (size 9 to 14) (size 15 to 20)
#    0.000    0.000    2.857    5.143    4.000    5.714 
#    0.000    0.000    0.000    0.000    0.000    0.000 
#    0.000    0.000    0.000    0.000    0.000    0.000 
#
# Total GULP energy -78287.408641 kJ/mol
# GULP energy per Si atom -5591.957760 kJ/mol
# Density = 2.716308 g / cm^3
# Si number density = 27.225045 Si / 1000 Ang^3
#
#
#
# Elastic Constant Matrix: (Units=GPa)
#
#
# Indices 1 2 3 4 5 6 
#
# 1 176.4255 60.5403 61.3553 0.0000 -5.0181 0.0000
# 2 60.5403 198.9940 93.5028 0.0000 17.7946 0.0000
# 3 61.3553 93.5028 184.6383 0.0000 23.9405 0.0000
# 4 0.0000 0.0000 0.0000 40.7488 0.0000 8.8233
# 5 -5.0181 17.7946 23.9405 0.0000 53.7132 0.0000
# 6 0.0000 0.0000 0.0000 8.8233 0.0000 68.9988
#
#
#
# Elastic Compliance Matrix: (Units=1/GPa)
#
#
# Indices 1 2 3 4 5 6 
#
# 1 0.006832 -0.001399 -0.001809 0.000000 0.001908 0.000000
# 2 -0.001399 0.006909 -0.002887 0.000000 -0.001133 0.000000
# 3 -0.001809 -0.002887 0.007829 0.000000 -0.002702 0.000000
# 4 0.000000 0.000000 0.000000 0.025239 0.000000 -0.003228
# 5 0.001908 -0.001133 -0.002702 0.000000 0.020375 0.000000
# 6 0.000000 0.000000 0.000000 -0.003228 0.000000 0.014906
#
#
# Mechanical properties :
#
#
# Convention : Reuss Voigt Hill
#
# Bulk Modulus (GPa) = 106.61103 110.09497 108.35300
# Shear Modulus (GPa) = 51.33118 55.66946 53.50032
#
# Velocity S-wave (km/s) = 4.34688 4.52684 4.43777
# Velocity P-wave (km/s) = 8.02733 8.23709 8.13288
#
# Compressibility (1/GPa) = 0.00937989
#
# Stress axis : x y z
#
# Youngs Moduli (GPa) = 146.37905 144.74602 127.72243
#
# Poissons Ratio (x) = 0.20249 0.23106
# Poissons Ratio (y) = 0.20478 0.36872
# Poissons Ratio (z) = 0.26481 0.41786
#
# Static dielectric constant tensor:
#      x y z
#    x 2.153620 0.000000 -0.058520 
#    y 0.000000 1.950580 0.000000 
#    z -0.058520 0.000000 1.884240 
# 
# From -- ./inp_files/83524.got.cif
#   From: 2010.05.17/outbox.cif.g08.bks.cpg/sg15_42_cif.got.tgz:83524.got - 2010.06.03 18:47:42.
