data_PCOD9308392
_publ_section_title
;
Structure prediction by ZEFSAII (Michael W. Deem and Ramdas Pophale) SiO2 
 PCOD9308392
Probable space group: C 2/C
;
_chemical_formula_sum "Si O2"
_cell_formula_units_Z 40
_cell_length_a 10.037142
_cell_length_b 26.105714
_cell_length_c 10.524737
_cell_angle_alpha 90.000000
_cell_angle_beta 143.042769
_cell_angle_gamma 90.000000
_cell_volume 1658.018534
_symmetry_space_group_name_H-M "C 2/C"
_symmetry_group_IT_number 15
_symmetry_cell_setting 'monoclinic'
loop_
_space_group_symop_operation_xyz
x,y,z
-x,y,1/2-z
-x,-y,-z
x,-y,1/2+z
1/2+x,1/2+y,z
1/2-x,1/2+y,1/2-z
1/2-x,1/2-y,-z
1/2+x,1/2-y,1/2+z
loop_
_atom_site_type_symbol
_atom_site_label
_atom_site_fract_x
_atom_site_fract_y
_atom_site_fract_z
Si Si1 0.951004 0.759164 0.589903
Si Si2 0.565808 0.441069 0.042616
Si Si3 0.284601 0.362690 0.700838
Si Si4 0.000000 0.125004 0.750000
Si Si5 0.067279 0.693885 0.431323
Si Si6 0.500000 0.103200 0.750000
O O1 0.024842 0.819296 0.640613
O O2 0.034521 0.730767 0.525736
O O3 0.674237 0.756770 0.352801
O O4 0.522412 0.410883 0.141936
O O5 0.816222 0.429609 0.185892
O O6 0.500000 0.500000 0.000000
O O7 0.404264 0.415609 0.815286
O O8 0.115915 0.349953 0.684018
O O9 0.134516 0.363916 0.458731
O O10 0.793041 0.163456 0.594627
O O11 0.000000 0.721287 0.250000
#
# Coordination Sequence:
#
# PCOD9308392 Si02
#       6
#     8   8   8   4   8   4
#     4  12  28  49  81 117 158 217 284 335 399 497
#     4  12  30  52  86 124 162 213 281 343 424 500
#     4  12  28  54  80 118 163 219 280 337 409 498
#     4  12  28  52  80 121 165 212 264 344 424 494
#     4  12  28  51  77 115 170 219 264 339 418 494
#     4  12  28  52  92 113 167 222 272 350 416 488
#
# _framework density 24.125183
#
# number of rings (size 3 to 8) (size 9 to 14) (size 15 to 20)
#    0.000    0.000    6.000    1.800    7.000    3.200 
#    3.600    0.000    0.000    0.000    0.000    0.000 
#    0.000    0.000    0.000    0.000    0.000    0.000 
#
# Total GULP energy -111927.820609 kJ/mol
# GULP energy per Si atom -5596.391030 kJ/mol
# Density = 2.407027 g / cm^3
# Si number density = 24.125183 Si / 1000 Ang^3
#
#
#
# Elastic Constant Matrix: (Units=GPa)
#
#
# Indices 1 2 3 4 5 6 
#
# 1 229.5068 80.6836 107.8191 0.0000 13.6818 0.0000
# 2 80.6836 187.9412 87.4302 0.0000 6.9565 0.0000
# 3 107.8191 87.4302 195.7753 0.0000 -5.2970 0.0000
# 4 0.0000 0.0000 0.0000 21.7895 0.0000 8.1135
# 5 13.6818 6.9565 -5.2970 0.0000 79.8292 0.0000
# 6 0.0000 0.0000 0.0000 8.1135 0.0000 38.1111
#
#
#
# Elastic Compliance Matrix: (Units=1/GPa)
#
#
# Indices 1 2 3 4 5 6 
#
# 1 0.006237 -0.001291 -0.002889 0.000000 -0.001148 0.000000
# 2 -0.001291 0.007033 -0.002445 0.000000 -0.000554 0.000000
# 3 -0.002889 -0.002445 0.007824 0.000000 0.001227 0.000000
# 4 0.000000 0.000000 0.000000 0.049845 0.000000 -0.010612
# 5 -0.001148 -0.000554 0.001227 0.000000 0.012853 0.000000
# 6 0.000000 0.000000 0.000000 -0.010612 0.000000 0.028498
#
#
# Mechanical properties :
#
#
# Convention : Reuss Voigt Hill
#
# Bulk Modulus (GPa) = 127.49069 129.45435 128.47252
# Shear Modulus (GPa) = 39.01529 50.43199 44.72364
#
# Velocity S-wave (km/s) = 4.02581 4.57708 4.31027
# Velocity P-wave (km/s) = 8.63538 9.03929 8.83964
#
# Compressibility (1/GPa) = 0.00784371
#
# Stress axis : x y z
#
# Youngs Moduli (GPa) = 160.33847 142.19086 127.80870
#
# Poissons Ratio (x) = 0.18354 0.36929
# Poissons Ratio (y) = 0.20697 0.31247
# Poissons Ratio (z) = 0.46328 0.34763
#
# Static dielectric constant tensor:
#      x y z
#    x 1.969140 0.000000 -0.029170 
#    y 0.000000 1.841000 0.000000 
#    z -0.029170 0.000000 1.981300 
# 
# From -- ./inp_files/92259.got.cif
#   From: 2010.05.17/outbox.cif.g08.bks.cpg/sg15_47_cif.got.tgz:92259.got - 2010.06.03 18:47:42.
