data_PCOD9308123
_publ_section_title
;
Structure prediction by ZEFSAII (Michael W. Deem and Ramdas Pophale) SiO2 
 PCOD9308123
Probable space group: C 2/C
;
_chemical_formula_sum "Si O2"
_cell_formula_units_Z 28
_cell_length_a 13.673849
_cell_length_b 5.584182
_cell_length_c 16.509642
_cell_angle_alpha 90.000000
_cell_angle_beta 123.952981
_cell_angle_gamma 90.000000
_cell_volume 1045.688650
_symmetry_space_group_name_H-M "C 2/C"
_symmetry_group_IT_number 15
_symmetry_cell_setting 'monoclinic'
loop_
_space_group_symop_operation_xyz
x,y,z
-x,y,1/2-z
-x,-y,-z
x,-y,1/2+z
1/2+x,1/2+y,z
1/2-x,1/2+y,1/2-z
1/2-x,1/2-y,-z
1/2+x,1/2-y,1/2+z
loop_
_atom_site_type_symbol
_atom_site_label
_atom_site_fract_x
_atom_site_fract_y
_atom_site_fract_z
Si Si1 0.563937 0.640478 0.700740
Si Si2 0.250000 0.750000 0.000000
Si Si3 0.097807 0.357018 0.995972
Si Si4 0.757250 0.506442 0.167903
O O1 0.500000 0.535024 0.750000
O O2 0.465199 0.649207 0.585448
O O3 0.676497 0.523689 0.710365
O O4 0.613022 0.905160 0.746844
O O5 0.158077 0.532810 0.961041
O O6 0.257985 0.712711 0.901718
O O7 0.196039 0.229808 0.094166
O O8 0.000000 0.500000 0.000000
#
# Coordination Sequence:
#
# PCOD9308123 Si02
#       4
#     8   4   8   8
#     4  12  27  47  77 113 157 200 256 323 383 456
#     4  12  26  46  82 102 154 202 250 324 366 470
#     4  12  26  50  75 112 151 203 252 313 394 445
#     4  12  28  50  75 117 153 200 267 312 381 469
#
# _framework density 26.776613000000001
#
# number of rings (size 3 to 8) (size 9 to 14) (size 15 to 20)
#    0.000    0.000    5.714    3.429    0.000    0.000 
#    0.000    2.857    0.000    0.000    0.000    0.000 
#    0.000    0.000    0.000    0.000    0.000    0.000 
#
# Total GULP energy -78055.921184 kJ/mol
# GULP energy per Si atom -5575.422942 kJ/mol
# Density = 2.671567 g / cm^3
# Si number density = 26.776613 Si / 1000 Ang^3
#
#
#
# Elastic Constant Matrix: (Units=GPa)
#
#
# Indices 1 2 3 4 5 6 
#
# 1 171.9424 30.6004 36.3796 0.0000 -42.9832 0.0000
# 2 30.6004 34.1811 -4.0341 0.0000 -3.9100 0.0000
# 3 36.3796 -4.0341 103.1846 0.0000 -12.3039 0.0000
# 4 0.0000 0.0000 0.0000 36.2377 0.0000 -4.4639
# 5 -42.9832 -3.9100 -12.3039 0.0000 46.9894 0.0000
# 6 0.0000 0.0000 0.0000 -4.4639 0.0000 53.6475
#
#
#
# Elastic Compliance Matrix: (Units=1/GPa)
#
#
# Indices 1 2 3 4 5 6 
#
# 1 0.009758 -0.008217 -0.002868 0.000000 0.007491 0.000000
# 2 -0.008217 0.036682 0.003921 0.000000 -0.003438 0.000000
# 3 -0.002868 0.003921 0.010923 0.000000 0.000563 0.000000
# 4 0.000000 0.000000 0.000000 0.027881 0.000000 0.002320
# 5 0.007491 -0.003438 0.000563 0.000000 0.027995 0.000000
# 6 0.000000 0.000000 0.000000 0.002320 0.000000 0.018833
#
#
# Mechanical properties :
#
#
# Convention : Reuss Voigt Hill
#
# Bulk Modulus (GPa) = 23.23723 48.35555 35.79639
# Shear Modulus (GPa) = 31.10498 43.79907 37.45203
#
# Velocity S-wave (km/s) = 3.41199 4.04879 3.74396
# Velocity P-wave (km/s) = 4.92131 6.32100 5.66455
#
# Compressibility (1/GPa) = 0.04303439
#
# Stress axis : x y z
#
# Youngs Moduli (GPa) = 102.48135 27.26133 91.54963
#
# Poissons Ratio (x) = 0.22401 0.26259
# Poissons Ratio (y) = 0.84212 -0.35900
# Poissons Ratio (z) = 0.29395 -0.10690
#
# Static dielectric constant tensor:
#      x y z
#    x 1.745340 0.000000 1.454420 
#    y 0.000000 2.294120 0.000000 
#    z 1.454420 0.000000 -1.959960 
# 
# From -- ./inp_files/201676.got.cif
#   From: 2010.05.17/outbox.cif.g08.bks.cpg/sg15_101_cif.got.tgz:201676.got - 2010.06.03 18:47:42.
