data_PCOD9308351
_publ_section_title
;
Structure prediction by ZEFSAII (Michael W. Deem and Ramdas Pophale) SiO2 
 PCOD9308351
Probable space group: C 2/C
;
_chemical_formula_sum "Si O2"
_cell_formula_units_Z 32
_cell_length_a 31.700274
_cell_length_b 5.018588
_cell_length_c 13.724824
_cell_angle_alpha 90.000000
_cell_angle_beta 36.729202
_cell_angle_gamma 90.000000
_cell_volume 1305.801039
_symmetry_space_group_name_H-M "C 2/C"
_symmetry_group_IT_number 15
_symmetry_cell_setting 'monoclinic'
loop_
_space_group_symop_operation_xyz
x,y,z
-x,y,1/2-z
-x,-y,-z
x,-y,1/2+z
1/2+x,1/2+y,z
1/2-x,1/2+y,1/2-z
1/2-x,1/2-y,-z
1/2+x,1/2-y,1/2+z
loop_
_atom_site_type_symbol
_atom_site_label
_atom_site_fract_x
_atom_site_fract_y
_atom_site_fract_z
Si Si1 0.782790 0.357626 0.537579
Si Si2 0.504904 0.402604 0.602445
Si Si3 0.653686 0.518096 0.412308
Si Si4 0.413586 0.894014 0.833631
O O1 0.750000 0.250000 0.500000
O O2 0.720036 0.477516 0.718148
O O3 0.845401 0.559722 0.392563
O O4 0.821522 0.139105 0.535994
O O5 0.500000 0.500000 0.500000
O O6 0.585633 0.391439 0.486670
O O7 0.460091 0.634344 0.735330
O O8 0.466051 0.132880 0.708154
O O9 0.627489 0.818147 0.489576
#
# Coordination Sequence:
#
# PCOD9308351 Si02
#       4
#     8   8   8   8
#     4  12  28  52  78 117 160 215 265 326 405 483
#     4  12  29  51  81 118 156 211 271 330 403 475
#     4  12  28  48  82 116 166 208 268 335 397 478
#     4  12  27  50  79 113 159 206 263 335 396 472
#
# _framework density 24.506031
#
# number of rings (size 3 to 8) (size 9 to 14) (size 15 to 20)
#    0.000    0.000    5.000    3.000    7.000    3.000 
#    0.000    0.000    0.000    0.000    0.000    0.000 
#    0.000    0.000    0.000    0.000    0.000    0.000 
#
# Total GULP energy -89460.913681 kJ/mol
# GULP energy per Si atom -5591.307105 kJ/mol
# Density = 2.445025 g / cm^3
# Si number density = 24.506031 Si / 1000 Ang^3
#
#
#
# Elastic Constant Matrix: (Units=GPa)
#
#
# Indices 1 2 3 4 5 6 
#
# 1 146.6105 -5.6819 71.7923 0.0026 -22.5307 -0.0023
# 2 -5.6819 112.2555 45.3052 0.0008 -20.7199 0.0000
# 3 71.7923 45.3052 155.0428 0.0004 -44.6358 -0.0014
# 4 0.0026 0.0008 0.0004 29.6247 -0.0017 -2.2548
# 5 -22.5307 -20.7199 -44.6358 -0.0017 59.0085 0.0024
# 6 -0.0023 0.0000 -0.0014 -2.2548 0.0024 13.3042
#
#
#
# Elastic Compliance Matrix: (Units=1/GPa)
#
#
# Indices 1 2 3 4 5 6 
#
# 1 0.009447 0.002607 -0.004902 -0.000001 0.000815 0.000001
# 2 0.002607 0.010951 -0.003852 0.000000 0.001926 0.000000
# 3 -0.004902 -0.003852 0.011400 0.000001 0.005399 -0.000001
# 4 -0.000001 0.000000 0.000001 0.034197 0.000001 0.005796
# 5 0.000815 0.001926 0.005399 0.000001 0.022018 -0.000003
# 6 0.000001 0.000000 -0.000001 0.005796 -0.000003 0.076146
#
#
# Mechanical properties :
#
#
# Convention : Reuss Voigt Hill
#
# Bulk Modulus (GPa) = 51.27458 70.74890 61.01174
# Shear Modulus (GPa) = 27.32930 40.55369 33.94150
#
# Velocity S-wave (km/s) = 3.34309 4.07239 3.72563
# Velocity P-wave (km/s) = 5.98919 7.14459 6.59225
#
# Compressibility (1/GPa) = 0.01950284
#
# Stress axis : x y z
#
# Youngs Moduli (GPa) = 105.84997 91.31962 87.72289
#
# Poissons Ratio (x) = -0.23806 0.43000
# Poissons Ratio (y) = -0.27594 0.33794
# Poissons Ratio (z) = 0.51885 0.35180
#
# Static dielectric constant tensor:
#      x y z
#    x 1.953350 -0.000010 0.074270 
#    y -0.000010 2.081320 -0.000010 
#    z 0.074270 -0.000010 2.071570 
# 
# From -- ./inp_files/179560.got.cif
#   From: 2010.05.17/outbox.cif.g08.bks.cpg/sg15_90_cif.got.tgz:179560.got - 2010.06.03 18:47:42.
