data_PCOD9308711
_publ_section_title
;
Structure prediction by ZEFSAII (Michael W. Deem and Ramdas Pophale) SiO2 
 PCOD9308711
Probable space group: C 2/C
;
_chemical_formula_sum "Si O2"
_cell_formula_units_Z 24
_cell_length_a 15.000000
_cell_length_b 15.000000
_cell_length_c 30.000000
_cell_angle_alpha 90.000000
_cell_angle_beta 160.000000
_cell_angle_gamma 90.000000
_cell_volume 2308.635967
_symmetry_space_group_name_H-M "C 2/C"
_symmetry_group_IT_number 15
_symmetry_cell_setting 'monoclinic'
loop_
_space_group_symop_operation_xyz
x,y,z
-x,y,1/2-z
-x,-y,-z
x,-y,1/2+z
1/2+x,1/2+y,z
1/2-x,1/2+y,1/2-z
1/2-x,1/2-y,-z
1/2+x,1/2-y,1/2+z
loop_
_atom_site_type_symbol
_atom_site_label
_atom_site_fract_x
_atom_site_fract_y
_atom_site_fract_z
Si Si1 0.264762 0.759631 0.348986
Si Si2 0.972882 0.584133 0.789405
Si Si3 0.707546 0.127326 0.101727
Si Si4 0.808831 0.107693 0.764669
Si Si5 0.872857 0.519096 0.011957
Si Si6 0.440292 0.558685 0.427994
O O1 0.522536 0.800619 0.492105
O O2 0.214790 0.808234 0.278918
O O3 0.314271 0.654915 0.373749
O O4 0.000000 0.782254 0.250000
O O5 0.791497 0.644476 0.734881
O O6 0.788241 0.496038 0.703811
O O7 0.000000 0.608773 0.750000
O O8 0.259579 0.573674 0.945888
O O9 0.000000 0.156251 0.250000
O O10 0.721793 0.046285 0.072562
O O11 0.552026 0.092925 0.071968
O O12 0.100806 0.063286 0.902644
O O13 0.584940 0.037458 0.641169
O O14 0.500000 0.500000 0.500000
#
# Coordination Sequence:
#
# PCOD9308711 Si02
#       6
#     8   8   8   8   8   8
#     4  11  22  37  63 100 130 162 209 264 319 381
#     4  10  22  42  67  88 115 171 219 266 316 380
#     4  10  19  32  54  89 137 172 199 245 305 390
#     4  11  21  36  64  94 131 169 211 263 319 385
#     4  10  19  32  54  90 134 171 202 244 317 385
#     4  10  22  43  69  88 119 170 220 266 321 373
#
# _framework density 10.395749
#
# number of rings (size 3 to 8) (size 9 to 14) (size 15 to 20)
#    0.000    1.667    3.333    2.500    0.000    2.667 
#    0.000    0.000    7.333    6.000    0.000    0.000 
#    0.000    0.000    0.000    0.000    0.000    0.000 
#
# Total GULP energy -133687.051681 kJ/mol
# GULP energy per Si atom -5570.293820 kJ/mol
# Density = 1.037209 g / cm^3
# Si number density = 10.395749 Si / 1000 Ang^3
#
#
#
# Elastic Constant Matrix: (Units=GPa)
#
#
# Indices 1 2 3 4 5 6 
#
# 1 131.9932 27.6232 26.5771 0.0007 27.7132 -0.0049
# 2 27.6232 51.5302 -5.5748 0.0085 -4.5128 -0.0051
# 3 26.5771 -5.5748 115.8035 -0.0029 25.4382 -0.0543
# 4 0.0007 0.0085 -0.0029 7.4566 -0.0422 9.3053
# 5 27.7132 -4.5128 25.4382 -0.0422 32.1781 0.0146
# 6 -0.0049 -0.0051 -0.0543 9.3053 0.0146 2.0463
#
#
#
# Elastic Compliance Matrix: (Units=1/GPa)
#
#
# Indices 1 2 3 4 5 6 
#
# 1 0.011331 -0.007043 -0.000701 0.000028 -0.010193 -0.000063
# 2 -0.007043 0.024041 0.000848 -0.000004 0.008767 0.000022
# 3 -0.000701 0.000848 0.010502 0.000097 -0.007580 -0.000110
# 4 0.000028 -0.000004 0.000097 -0.028687 -0.000199 0.130452
# 5 -0.010193 0.008767 -0.007580 -0.000199 0.047077 0.000363
# 6 -0.000063 0.000022 -0.000110 0.130452 0.000363 -0.104533
#
#
# Mechanical properties :
#
#
# Convention : Reuss Voigt Hill
#
# Bulk Modulus (GPa) = 31.16894 44.06422 37.61658
# Shear Modulus (GPa) = -316.76296 25.04962 -145.85667
#
# Velocity S-wave (km/s) = -12.35649 3.47479 -8.38477
# Velocity P-wave (km/s) = 13.73148 6.11051 8.69526
#
# Compressibility (1/GPa) = 0.03208322
#
# Stress axis : x y z
#
# Youngs Moduli (GPa) = 88.25270 41.59592 95.22093
#
# Poissons Ratio (x) = 0.29294 0.06671
# Poissons Ratio (y) = 0.62153 -0.08073
# Poissons Ratio (z) = 0.06183 -0.03527
#
# Static dielectric constant tensor:
#      x y z
#    x 1.880210 -0.000010 -0.031920 
#    y -0.000010 1.741480 0.000010 
#    z -0.031920 0.000010 1.732180 
# 
# From -- ./inp_files/314121.got.cif
#   From: 2010.05.17/outbox.ucp.g08.bks.cvg/sg15_158_cif.got.tgz:314121.got - 2010.06.11 12:40:34.
