data_PCOD9308108
_publ_section_title
;
Structure prediction by ZEFSAII (Michael W. Deem and Ramdas Pophale) SiO2 
 PCOD9308108
Probable space group: C 2/C
;
_chemical_formula_sum "Si O2"
_cell_formula_units_Z 44
_cell_length_a 26.290892
_cell_length_b 7.903955
_cell_length_c 25.328712
_cell_angle_alpha 90.000000
_cell_angle_beta 23.011851
_cell_angle_gamma 90.000000
_cell_volume 2057.559774
_symmetry_space_group_name_H-M "C 2/C"
_symmetry_group_IT_number 15
_symmetry_cell_setting 'monoclinic'
loop_
_space_group_symop_operation_xyz
x,y,z
-x,y,1/2-z
-x,-y,-z
x,-y,1/2+z
1/2+x,1/2+y,z
1/2-x,1/2+y,1/2-z
1/2-x,1/2-y,-z
1/2+x,1/2-y,1/2+z
loop_
_atom_site_type_symbol
_atom_site_label
_atom_site_fract_x
_atom_site_fract_y
_atom_site_fract_z
Si Si1 0.500000 0.124334 0.750000
Si Si2 0.607233 0.384068 0.734509
Si Si3 0.766175 0.821426 0.167260
Si Si4 0.973147 0.698596 0.527583
Si Si5 0.197255 0.631895 0.004707
Si Si6 0.899847 0.113948 0.992163
O O1 0.562095 0.245573 0.735125
O O2 0.399907 0.003728 0.876549
O O3 0.711860 0.298354 0.673338
O O4 0.680450 0.533470 0.635215
O O5 0.489732 0.470849 0.878919
O O6 0.665541 0.790510 0.310813
O O7 0.776500 0.011559 0.134191
O O8 0.909872 0.778346 0.050505
O O9 0.966914 0.791414 0.477289
O O10 0.000000 0.500000 0.500000
O O11 0.250000 0.750000 0.000000
O O12 0.135672 0.747037 0.017602
#
# Coordination Sequence:
#
# PCOD9308108 Si02
#       6
#     4   8   8   8   8   8
#     4  12  26  50  72 108 146 190 248 306 374 440
#     4  12  26  46  77 106 145 194 244 303 370 436
#     4  12  26  49  72 111 149 196 243 302 368 436
#     4  12  28  45  76 107 153 194 245 302 365 440
#     4  12  26  46  74 106 147 190 246 307 370 438
#     4  12  27  46  75 110 146 193 249 302 365 441
#
# _framework density 21.384556
#
# number of rings (size 3 to 8) (size 9 to 14) (size 15 to 20)
#    0.000    0.000    1.818    7.636   10.182    0.000 
#    0.000    0.000    0.000    0.000    0.000    0.000 
#    0.000    0.000    0.000    0.000    0.000    0.000 
#
# Total GULP energy -123198.035930 kJ/mol
# GULP energy per Si atom -5599.910724 kJ/mol
# Density = 2.133588 g / cm^3
# Si number density = 21.384556 Si / 1000 Ang^3
#
#
#
# Elastic Constant Matrix: (Units=GPa)
#
#
# Indices 1 2 3 4 5 6 
#
# 1 181.0650 98.6005 56.5597 -0.0048 4.0085 0.0048
# 2 98.6005 133.4039 37.2761 -0.0476 -3.1196 0.0290
# 3 56.5597 37.2761 107.1046 -0.0340 4.1341 0.0229
# 4 -0.0048 -0.0476 -0.0340 94.1153 0.0063 -37.0504
# 5 4.0085 -3.1196 4.1341 0.0063 23.8271 -0.0038
# 6 0.0048 0.0290 0.0229 -37.0504 -0.0038 102.3767
#
#
#
# Elastic Compliance Matrix: (Units=1/GPa)
#
#
# Indices 1 2 3 4 5 6 
#
# 1 0.010152 -0.006731 -0.002938 -0.000004 -0.002079 0.000001
# 2 -0.006731 0.012828 -0.001025 0.000005 0.002990 -0.000001
# 3 -0.002938 -0.001025 0.011307 0.000003 -0.001602 -0.000001
# 4 -0.000004 0.000005 0.000003 0.012391 -0.000002 0.004484
# 5 -0.002079 0.002990 -0.001602 -0.000002 0.042988 0.000001
# 6 0.000001 -0.000001 -0.000001 0.004484 0.000001 0.011391
#
#
# Mechanical properties :
#
#
# Convention : Reuss Voigt Hill
#
# Bulk Modulus (GPa) = 77.53520 89.60514 83.57017
# Shear Modulus (GPa) = 39.44931 59.33964 49.39447
#
# Velocity S-wave (km/s) = 4.29972 5.27343 4.81127
# Velocity P-wave (km/s) = 7.80938 8.89222 8.36833
#
# Compressibility (1/GPa) = 0.01289737
#
# Stress axis : x y z
#
# Youngs Moduli (GPa) = 98.49941 77.95678 88.44144
#
# Poissons Ratio (x) = 0.52475 0.25986
# Poissons Ratio (y) = 0.66303 0.09067
# Poissons Ratio (z) = 0.28941 0.07992
#
# Static dielectric constant tensor:
#      x y z
#    x 1.753880 0.000020 0.001340 
#    y 0.000020 1.785830 0.000050 
#    z 0.001340 0.000050 1.692000 
# 
# From -- ./inp_files/303163.got.cif
#   From: 2010.05.17/outbox.cif.g08.bks.cpg/sg15_152_cif.got.tgz:303163.got - 2010.06.03 18:47:42.
