data_PCOD9308880
_publ_section_title
;
Structure prediction by ZEFSAII (Michael W. Deem and Ramdas Pophale) SiO2 
 PCOD9308880
Probable space group: C 2/C
;
_chemical_formula_sum "Si O2"
_cell_formula_units_Z 24
_cell_length_a 21.000000
_cell_length_b 12.000000
_cell_length_c 27.000000
_cell_angle_alpha 90.000000
_cell_angle_beta 160.000000
_cell_angle_gamma 90.000000
_cell_volume 2327.105055
_symmetry_space_group_name_H-M "C 2/C"
_symmetry_group_IT_number 15
_symmetry_cell_setting 'monoclinic'
loop_
_space_group_symop_operation_xyz
x,y,z
-x,y,1/2-z
-x,-y,-z
x,-y,1/2+z
1/2+x,1/2+y,z
1/2-x,1/2+y,1/2-z
1/2-x,1/2-y,-z
1/2+x,1/2-y,1/2+z
loop_
_atom_site_type_symbol
_atom_site_label
_atom_site_fract_x
_atom_site_fract_y
_atom_site_fract_z
Si Si1 0.695135 0.534584 0.276259
Si Si2 0.541418 0.836365 0.017249
Si Si3 0.342344 0.004187 0.672981
Si Si4 0.548666 0.850207 0.902404
Si Si5 0.890222 0.106414 0.584556
Si Si6 0.991731 0.893864 0.528932
O O1 0.804471 0.418829 0.348283
O O2 0.531583 0.496313 0.193038
O O3 0.613854 0.582029 0.166235
O O4 0.851837 0.621787 0.404965
O O5 0.561280 0.710597 0.048815
O O6 0.535012 0.851807 0.952362
O O7 0.500000 0.043615 0.750000
O O8 0.422462 0.935493 0.778389
O O9 0.222357 0.923012 0.548683
O O10 0.218083 0.104105 0.603290
O O11 0.514585 0.725347 0.856784
O O12 0.756037 0.878450 0.033408
O O13 0.000000 0.000000 0.500000
#
# Coordination Sequence:
#
# PCOD9308880 Si02
#       6
#     8   8   8   8   8   8
#     4  10  24  41  59  87 125 162 203 252 308 369
#     4  11  24  39  62  92 124 162 205 258 308 363
#     4   9  19  38  60  88 124 164 205 243 298 369
#     4  10  20  34  61  94 126 154 200 255 308 364
#     4   9  20  36  59  91 124 163 195 248 313 362
#     4  11  23  38  65  90 120 165 206 256 309 365
#
# _framework density 10.313243
#
# number of rings (size 3 to 8) (size 9 to 14) (size 15 to 20)
#    0.000    2.000    0.000    3.000    9.333    0.667 
#    0.000    0.000    7.333    3.000    0.000    0.000 
#    0.000    0.000    0.000    0.000    0.000    0.000 
#
# Total GULP energy -133861.516275 kJ/mol
# GULP energy per Si atom -5577.563178 kJ/mol
# Density = 1.028977 g / cm^3
# Si number density = 10.313243 Si / 1000 Ang^3
#
#
#
# Elastic Constant Matrix: (Units=GPa)
#
#
# Indices 1 2 3 4 5 6 
#
# 1 100.9962 31.9524 25.7490 -0.0033 9.5107 -0.0004
# 2 31.9524 77.9430 19.8977 -0.0171 1.6523 -0.0010
# 3 25.7490 19.8977 60.5538 -0.0112 14.1278 -0.0005
# 4 -0.0033 -0.0171 -0.0112 19.8212 -0.0057 11.8884
# 5 9.5107 1.6523 14.1278 -0.0057 17.1716 -0.0015
# 6 -0.0004 -0.0010 -0.0005 11.8884 -0.0015 30.6687
#
#
#
# Elastic Compliance Matrix: (Units=1/GPa)
#
#
# Indices 1 2 3 4 5 6 
#
# 1 0.012368 -0.004238 -0.002925 -0.000006 -0.004036 0.000002
# 2 -0.004238 0.015584 -0.004352 0.000015 0.004428 -0.000005
# 3 -0.002925 -0.004352 0.023158 0.000006 -0.017014 -0.000003
# 4 -0.000006 0.000015 0.000006 0.065734 0.000016 -0.025481
# 5 -0.004036 0.004428 -0.017014 0.000016 0.074043 -0.000003
# 6 0.000002 -0.000005 -0.000003 -0.025481 -0.000003 0.042484
#
#
# Mechanical properties :
#
#
# Convention : Reuss Voigt Hill
#
# Bulk Modulus (GPa) = 35.61255 43.85458 39.73357
# Shear Modulus (GPa) = 18.81391 24.32523 21.56957
#
# Velocity S-wave (km/s) = 3.02342 3.43785 3.23727
# Velocity P-wave (km/s) = 5.43056 6.08817 5.76875
#
# Compressibility (1/GPa) = 0.02807999
#
# Stress axis : x y z
#
# Youngs Moduli (GPa) = 80.85458 64.16692 43.18231
#
# Poissons Ratio (x) = 0.27193 0.12631
# Poissons Ratio (y) = 0.34265 0.18793
# Poissons Ratio (z) = 0.23650 0.27926
#
# Static dielectric constant tensor:
#      x y z
#    x 1.707860 0.000000 0.078430 
#    y 0.000000 1.694480 0.000000 
#    z 0.078430 0.000000 1.855830 
# 
# From -- ./inp_files/300981.got.cif
#   From: 2010.05.17/outbox.ucp.g08.bks.cvg/sg15_151_cif.got.tgz:300981.got - 2010.06.11 12:40:34.
