data_PCOD9308850
_publ_section_title
;
Structure prediction by ZEFSAII (Michael W. Deem and Ramdas Pophale) SiO2 
 PCOD9308850
Probable space group: C 2/C
;
_chemical_formula_sum "Si O2"
_cell_formula_units_Z 30
_cell_length_a 15.000000
_cell_length_b 24.000000
_cell_length_c 18.000000
_cell_angle_alpha 90.000000
_cell_angle_beta 30.000000
_cell_angle_gamma 90.000000
_cell_volume 3240.000000
_symmetry_space_group_name_H-M "C 2/C"
_symmetry_group_IT_number 15
_symmetry_cell_setting 'monoclinic'
loop_
_space_group_symop_operation_xyz
x,y,z
-x,y,1/2-z
-x,-y,-z
x,-y,1/2+z
1/2+x,1/2+y,z
1/2-x,1/2+y,1/2-z
1/2-x,1/2-y,-z
1/2+x,1/2-y,1/2+z
loop_
_atom_site_type_symbol
_atom_site_label
_atom_site_fract_x
_atom_site_fract_y
_atom_site_fract_z
Si Si1 0.157157 0.042395 0.364188
Si Si2 0.145791 0.454025 0.921458
Si Si3 0.500000 0.233030 0.250000
Si Si4 0.893019 0.731270 0.483957
Si Si5 0.459930 0.997231 0.354278
Si Si6 0.859474 0.366903 0.101611
Si Si7 0.012664 0.859400 0.066866
Si Si8 0.823349 0.918799 0.412654
O O1 0.186450 0.043854 0.253955
O O2 0.107033 0.101840 0.437241
O O3 0.350483 0.019874 0.252410
O O4 0.000000 0.000000 0.500000
O O5 0.156622 0.465913 0.000187
O O6 0.000000 0.500000 0.000000
O O7 0.039512 0.397409 0.990529
O O8 0.318759 0.267549 0.378553
O O9 0.486232 0.206009 0.342181
O O10 0.910185 0.695197 0.544438
O O11 0.956910 0.793435 0.455673
O O12 0.500000 0.965033 0.250000
O O13 0.324844 0.047578 0.435008
O O14 0.698807 0.372192 0.275922
O O15 0.781475 0.393451 0.081601
O O16 0.094636 0.876570 0.087423
O O17 0.000000 0.947955 0.250000
#
# Coordination Sequence:
#
# PCOD9308850 Si02
#       8
#     8   8   4   8   8   8   8   8
#     4  11  23  36  55  79 109 143 182 226 279 325
#     4  10  21  37  55  72 104 139 181 230 275 320
#     4  10  20  34  46  70 112 148 190 224 252 310
#     4  11  22  33  47  73 107 149 187 224 262 307
#     4  11  21  38  55  83 102 143 185 229 277 336
#     4  11  21  37  50  71 109 149 189 229 269 310
#     4  11  22  34  51  76 109 148 190 222 263 323
#     4  10  20  31  52  76 109 148 188 226 259 316
#
# _framework density 9.2592590000000001
#
# number of rings (size 3 to 8) (size 9 to 14) (size 15 to 20)
#    0.000    1.333    5.333    3.200    5.600    1.067 
#    1.200    0.000    0.000    0.000    0.000    0.000 
#    0.000    9.600    0.000    0.400    0.000    1.333 
#
# Total GULP energy -167063.739886 kJ/mol
# GULP energy per Si atom -5568.791330 kJ/mol
# Density = 0.923818 g / cm^3
# Si number density = 9.259259 Si / 1000 Ang^3
#
#
#
# Elastic Constant Matrix: (Units=GPa)
#
#
# Indices 1 2 3 4 5 6 
#
# 1 26.5445 14.4192 27.4850 -0.0041 20.5340 -0.0011
# 2 14.4192 50.6329 32.9777 -0.0228 3.6463 0.0143
# 3 27.4850 32.9777 144.0065 -0.0278 24.4878 0.0074
# 4 -0.0041 -0.0228 -0.0278 16.7273 0.0071 7.4569
# 5 20.5340 3.6463 24.4878 0.0071 36.9908 0.0041
# 6 -0.0011 0.0143 0.0074 7.4569 0.0041 12.8514
#
#
#
# Elastic Compliance Matrix: (Units=1/GPa)
#
#
# Indices 1 2 3 4 5 6 
#
# 1 0.085324 -0.018018 -0.004966 -0.000018 -0.042301 0.000054
# 2 -0.018018 0.027080 -0.004518 0.000047 0.010324 -0.000060
# 3 -0.004966 -0.004518 0.009445 0.000013 -0.003051 -0.000007
# 4 -0.000018 0.000047 0.000013 0.080642 -0.000014 -0.046791
# 5 -0.042301 0.010324 -0.003051 -0.000014 0.051518 -0.000022
# 6 0.000054 -0.000060 -0.000007 -0.046791 -0.000022 0.104963
#
#
# Mechanical properties :
#
#
# Convention : Reuss Voigt Hill
#
# Bulk Modulus (GPa) = 14.95963 41.21640 28.08801
# Shear Modulus (GPa) = 11.46111 23.06738 17.26424
#
# Velocity S-wave (km/s) = 2.49047 3.53319 3.05662
# Velocity P-wave (km/s) = 4.04545 6.24097 5.25906
#
# Compressibility (1/GPa) = 0.06684659
#
# Stress axis : x y z
#
# Youngs Moduli (GPa) = 11.71997 36.92703 105.87273
#
# Poissons Ratio (x) = 0.66536 0.52572
# Poissons Ratio (y) = 0.21117 0.47833
# Poissons Ratio (z) = 0.05820 0.16684
#
# Static dielectric constant tensor:
#      x y z
#    x 1.727890 -0.000090 0.042980 
#    y -0.000090 1.758740 0.000050 
#    z 0.042980 0.000050 1.676870 
# 
# From -- ./inp_files/207221.got.cif
#   From: 2010.05.17/outbox.ucp.g08.bks.cvg/sg15_104_cif.got.tgz:207221.got - 2010.06.11 12:40:34.
