data_PCOD9308242
_publ_section_title
;
Structure prediction by ZEFSAII (Michael W. Deem and Ramdas Pophale) SiO2 
 PCOD9308242
Probable space group: C 2/C
;
_chemical_formula_sum "Si O2"
_cell_formula_units_Z 44
_cell_length_a 18.018550
_cell_length_b 5.073432
_cell_length_c 26.240137
_cell_angle_alpha 90.000000
_cell_angle_beta 45.963757
_cell_angle_gamma 90.000000
_cell_volume 1724.473051
_symmetry_space_group_name_H-M "C 2/C"
_symmetry_group_IT_number 15
_symmetry_cell_setting 'monoclinic'
loop_
_space_group_symop_operation_xyz
x,y,z
-x,y,1/2-z
-x,-y,-z
x,-y,1/2+z
1/2+x,1/2+y,z
1/2-x,1/2+y,1/2-z
1/2-x,1/2-y,-z
1/2+x,1/2-y,1/2+z
loop_
_atom_site_type_symbol
_atom_site_label
_atom_site_fract_x
_atom_site_fract_y
_atom_site_fract_z
Si Si1 0.201040 0.706522 0.956314
Si Si2 0.162603 0.272005 0.095650
Si Si3 0.660777 0.809488 0.362156
Si Si4 0.115828 0.357425 0.782522
Si Si5 0.482942 0.519810 0.406139
Si Si6 0.000000 0.320506 0.250000
O O1 0.258632 0.462807 0.954634
O O2 0.174169 0.596409 0.913146
O O3 0.281136 0.954928 0.917218
O O4 0.098838 0.815551 0.032091
O O5 0.096091 0.179244 0.176949
O O6 0.081336 0.258869 0.088027
O O7 0.770144 0.687665 0.293644
O O8 0.565668 0.607078 0.408194
O O9 0.631851 0.003468 0.329769
O O10 0.050496 0.507421 0.770998
O O11 0.052356 0.097316 0.827375
#
# Coordination Sequence:
#
# PCOD9308242 Si02
#       6
#     8   8   8   8   8   4
#     4  12  30  50  79 113 157 201 257 316 389 460
#     4  12  28  49  80 112 153 202 263 314 374 466
#     4  12  27  47  76 111 157 199 257 318 387 461
#     4  12  27  49  76 116 151 205 262 322 379 469
#     4  12  28  49  77 110 157 206 252 320 388 454
#     4  12  26  50  80 110 150 204 260 316 386 448
#
# _framework density 25.515039999999999
#
# number of rings (size 3 to 8) (size 9 to 14) (size 15 to 20)
#    0.000    0.000    5.455    2.727   10.182    1.455 
#    0.000    0.000    0.000    0.000    0.000    0.000 
#    0.000    0.000    0.000    0.000    0.000    0.000 
#
# Total GULP energy -123272.033072 kJ/mol
# GULP energy per Si atom -5603.274231 kJ/mol
# Density = 2.545697 g / cm^3
# Si number density = 25.515040 Si / 1000 Ang^3
#
#
#
# Elastic Constant Matrix: (Units=GPa)
#
#
# Indices 1 2 3 4 5 6 
#
# 1 163.1182 33.5925 43.7336 0.0638 -4.7456 0.1610
# 2 33.5925 80.6094 10.9525 0.2533 -21.3280 0.2978
# 3 43.7336 10.9525 99.0264 0.0156 -22.9276 0.0609
# 4 0.0638 0.2533 0.0156 24.0220 0.0052 1.3153
# 5 -4.7456 -21.3280 -22.9276 0.0052 58.0830 0.0486
# 6 0.1610 0.2978 0.0609 1.3153 0.0486 35.5558
#
#
#
# Elastic Compliance Matrix: (Units=1/GPa)
#
#
# Indices 1 2 3 4 5 6 
#
# 1 0.007674 -0.003237 -0.003479 0.000016 -0.001935 0.000000
# 2 -0.003237 0.015121 0.001080 -0.000146 0.005714 -0.000116
# 3 -0.003479 0.001080 0.012702 -0.000010 0.005127 -0.000022
# 4 0.000016 -0.000146 -0.000010 0.041714 -0.000059 -0.001542
# 5 -0.001935 0.005714 0.005127 -0.000059 0.021181 -0.000075
# 6 0.000000 -0.000116 -0.000022 -0.001542 -0.000075 0.028183
#
#
# Mechanical properties :
#
#
# Convention : Reuss Voigt Hill
#
# Bulk Modulus (GPa) = 41.27960 57.70124 49.49042
# Shear Modulus (GPa) = 34.26520 40.49721 37.38120
#
# Velocity S-wave (km/s) = 3.66859 3.98828 3.83177
# Velocity P-wave (km/s) = 5.84452 6.62361 6.24622
#
# Compressibility (1/GPa) = 0.02422504
#
# Stress axis : x y z
#
# Youngs Moduli (GPa) = 130.31667 66.13519 78.72651
#
# Poissons Ratio (x) = 0.21409 0.27388
# Poissons Ratio (y) = 0.42186 -0.08506
# Poissons Ratio (z) = 0.45336 -0.07145
#
# Static dielectric constant tensor:
#      x y z
#    x 1.957080 -0.000180 -0.004640 
#    y -0.000180 2.011170 -0.000170 
#    z -0.004640 -0.000170 2.073590 
# 
# From -- ./inp_files/297639.got.cif
#   From: 2010.05.17/outbox.cif.g08.bks.cpg/sg15_149_cif.got.tgz:297639.got - 2010.06.03 18:47:42.
