data_PCOD9308694
_publ_section_title
;
Structure prediction by ZEFSAII (Michael W. Deem and Ramdas Pophale) SiO2 
 PCOD9308694
Probable space group: C 2/C
;
_chemical_formula_sum "Si O2"
_cell_formula_units_Z 24
_cell_length_a 27.000000
_cell_length_b 9.000000
_cell_length_c 15.000000
_cell_angle_alpha 90.000000
_cell_angle_beta 140.000000
_cell_angle_gamma 90.000000
_cell_volume 2342.960837
_symmetry_space_group_name_H-M "C 2/C"
_symmetry_group_IT_number 15
_symmetry_cell_setting 'monoclinic'
loop_
_space_group_symop_operation_xyz
x,y,z
-x,y,1/2-z
-x,-y,-z
x,-y,1/2+z
1/2+x,1/2+y,z
1/2-x,1/2+y,1/2-z
1/2-x,1/2-y,-z
1/2+x,1/2-y,1/2+z
loop_
_atom_site_type_symbol
_atom_site_label
_atom_site_fract_x
_atom_site_fract_y
_atom_site_fract_z
Si Si1 0.822762 0.073719 0.167849
Si Si2 0.114197 0.441641 0.656987
Si Si3 0.506159 0.413813 0.656284
Si Si4 0.142091 0.877868 0.136388
Si Si5 0.248046 0.121721 0.619611
Si Si6 0.493416 0.947278 0.343270
O O1 0.912719 0.047164 0.274321
O O2 0.801687 0.238131 0.171577
O O3 0.802233 0.965000 0.220207
O O4 0.783700 0.060833 0.017670
O O5 0.113050 0.265476 0.649021
O O6 0.200374 0.496546 0.764847
O O7 0.081602 0.498986 0.706395
O O8 0.061971 0.499462 0.503241
O O9 0.500000 0.464244 0.750000
O O10 0.432926 0.468246 0.499437
O O11 0.504363 0.232618 0.655063
O O12 0.182454 0.832726 0.099052
O O13 0.500000 0.997479 0.250000
#
# Coordination Sequence:
#
# PCOD9308694 Si02
#       6
#     8   8   8   8   8   8
#     4  11  23  39  62  88 116 158 196 239 289 353
#     4  10  21  38  60  88 119 150 195 244 290 341
#     4  10  18  38  64  86 114 156 202 237 281 353
#     4  11  23  38  61  88 120 152 193 248 296 335
#     4  11  23  40  61  86 119 157 199 234 289 359
#     4   9  19  36  64  88 112 155 201 239 282 347
#
# _framework density 10.243449
#
# number of rings (size 3 to 8) (size 9 to 14) (size 15 to 20)
#    0.000    1.667    3.333    1.500    0.000    2.000 
#    0.000    2.500    0.000    0.000    0.000    0.000 
#    0.000    0.000    0.000    0.000    0.000    0.000 
#
# Total GULP energy -133826.252199 kJ/mol
# GULP energy per Si atom -5576.093842 kJ/mol
# Density = 1.022013 g / cm^3
# Si number density = 10.243449 Si / 1000 Ang^3
#
#
#
# Elastic Constant Matrix: (Units=GPa)
#
#
# Indices 1 2 3 4 5 6 
#
# 1 91.4829 10.1931 50.5070 0.0000 -24.5298 0.0000
# 2 10.1931 12.3412 30.6169 0.0000 -9.5351 0.0000
# 3 50.5070 30.6169 20.7074 0.0000 -21.5514 0.0000
# 4 0.0000 0.0000 0.0000 22.7396 0.0000 0.0723
# 5 -24.5298 -9.5351 -21.5514 0.0000 35.2930 0.0000
# 6 0.0000 0.0000 0.0000 0.0723 0.0000 22.2081
#
#
#
# Elastic Compliance Matrix: (Units=1/GPa)
#
#
# Indices 1 2 3 4 5 6 
#
# 1 0.011658 -0.018400 0.005570 0.000000 0.006533 0.000000
# 2 -0.018400 0.015092 0.037034 0.000000 0.013904 0.000000
# 3 0.005570 0.037034 -0.015387 0.000000 0.004481 0.000000
# 4 0.000000 0.000000 0.000000 0.043977 0.000000 -0.000143
# 5 0.006533 0.013904 0.004481 0.000000 0.039367 0.000000
# 6 0.000000 0.000000 0.000000 -0.000143 0.000000 0.045029
#
#
# Mechanical properties :
#
#
# Convention : Reuss Voigt Hill
#
# Bulk Modulus (GPa) = 16.73032 34.12949 25.42991
# Shear Modulus (GPa) = 44.94317 18.26244 31.60281
#
# Velocity S-wave (km/s) = 4.68883 2.98891 3.93184
# Velocity P-wave (km/s) = 6.12353 5.34853 5.74910
#
# Compressibility (1/GPa) = 0.05977171
#
# Stress axis : x y z
#
# Youngs Moduli (GPa) = 85.78110 66.25933 -64.99183
#
# Poissons Ratio (x) = 1.21915 0.36200
# Poissons Ratio (y) = 1.57835 2.40690
# Poissons Ratio (z) = -0.47780 -2.45384
#
# Static dielectric constant tensor:
#      x y z
#    x 1.748520 0.000000 0.030570 
#    y 0.000000 1.692930 0.000000 
#    z 0.030570 0.000000 1.760300 
# 
# From -- ./inp_files/160459.got.cif
#   From: 2010.05.17/outbox.ucp.g08.bks.cvg/sg15_81_cif.got.tgz:160459.got - 2010.06.11 12:40:34.
