data_PCOD9308428
_publ_section_title
;
Structure prediction by ZEFSAII (Michael W. Deem and Ramdas Pophale) SiO2 
 PCOD9308428
Probable space group: C 2/C
;
_chemical_formula_sum "Si O2"
_cell_formula_units_Z 36
_cell_length_a 13.264519
_cell_length_b 4.950781
_cell_length_c 27.166998
_cell_angle_alpha 90.000000
_cell_angle_beta 124.651292
_cell_angle_gamma 90.000000
_cell_volume 1467.608438
_symmetry_space_group_name_H-M "C 2/C"
_symmetry_group_IT_number 15
_symmetry_cell_setting 'monoclinic'
loop_
_space_group_symop_operation_xyz
x,y,z
-x,y,1/2-z
-x,-y,-z
x,-y,1/2+z
1/2+x,1/2+y,z
1/2-x,1/2+y,1/2-z
1/2-x,1/2-y,-z
1/2+x,1/2-y,1/2+z
loop_
_atom_site_type_symbol
_atom_site_label
_atom_site_fract_x
_atom_site_fract_y
_atom_site_fract_z
Si Si1 0.291619 0.428199 0.644068
Si Si2 0.000000 0.563001 0.750000
Si Si3 0.802510 0.267876 0.737930
Si Si4 0.625684 0.632804 0.442058
Si Si5 0.513561 0.878179 0.558454
O O1 0.391817 0.245959 0.699215
O O2 0.155580 0.305442 0.605197
O O3 0.339917 0.468293 0.602663
O O4 0.278289 0.690909 0.674664
O O5 0.059548 0.378430 0.724273
O O6 0.783036 0.001025 0.764447
O O7 0.750000 0.750000 0.500000
O O8 0.570318 0.383085 0.456907
O O9 0.530581 0.882073 0.417530
O O10 0.500000 0.000000 0.500000
#
# Coordination Sequence:
#
# PCOD9308428 Si02
#       5
#     8   4   8   8   8
#     4  12  31  50  85 119 167 212 277 331 415 480
#     4  12  30  52  80 120 164 216 276 328 414 482
#     4  12  29  51  78 114 161 214 272 333 401 484
#     4  12  29  52  85 119 162 210 268 336 407 483
#     4  12  29  50  83 118 162 209 271 330 403 480
#
# _framework density 24.529700999999999
#
# number of rings (size 3 to 8) (size 9 to 14) (size 15 to 20)
#    0.000    0.000    4.444    2.000    9.333    1.778 
#    0.000    0.000    0.000    0.000    0.000    0.000 
#    0.000    0.000    0.000    0.000    0.000    0.000 
#
# Total GULP energy -100982.872246 kJ/mol
# GULP energy per Si atom -5610.159569 kJ/mol
# Density = 2.447387 g / cm^3
# Si number density = 24.529701 Si / 1000 Ang^3
#
#
#
# Elastic Constant Matrix: (Units=GPa)
#
#
# Indices 1 2 3 4 5 6 
#
# 1 197.2415 91.7680 86.5166 0.0001 0.6758 -0.0003
# 2 91.7680 174.6181 61.9299 0.0004 -4.7037 -0.0012
# 3 86.5166 61.9299 132.7169 0.0000 -6.4939 -0.0002
# 4 0.0001 0.0004 0.0000 140.7340 0.0002 -213.5807
# 5 0.6758 -4.7037 -6.4939 0.0002 47.9618 -0.0004
# 6 -0.0003 -0.0012 -0.0002 -213.5807 -0.0004 445.2324
#
#
#
# Elastic Compliance Matrix: (Units=1/GPa)
#
#
# Indices 1 2 3 4 5 6 
#
# 1 0.008191 -0.002900 -0.004033 0.000000 -0.000946 0.000000
# 2 -0.002900 0.007892 -0.001764 0.000000 0.000576 0.000000
# 3 -0.004033 -0.001764 0.011055 0.000000 0.001381 0.000000
# 4 0.000000 0.000000 0.000000 0.026125 0.000000 0.012532
# 5 -0.000946 0.000576 0.001381 0.000000 0.021107 0.000000
# 6 0.000000 0.000000 0.000000 0.012532 0.000000 0.008258
#
#
# Mechanical properties :
#
#
# Convention : Reuss Voigt Hill
#
# Bulk Modulus (GPa) = 102.62651 109.44506 106.03578
# Shear Modulus (GPa) = 48.41734 144.40978 96.41356
#
# Velocity S-wave (km/s) = 4.44759 7.68109 6.27616
# Velocity P-wave (km/s) = 8.26458 11.10765 9.78987
#
# Compressibility (1/GPa) = 0.00974407
#
# Stress axis : x y z
#
# Youngs Moduli (GPa) = 122.07934 126.71090 90.46080
#
# Poissons Ratio (x) = 0.36747 0.36482
# Poissons Ratio (y) = 0.35404 0.15957
# Poissons Ratio (z) = 0.49233 0.22351
#
# Static dielectric constant tensor:
#      x y z
#    x 1.869220 0.000000 0.013680 
#    y 0.000000 1.954030 0.000000 
#    z 0.013680 0.000000 1.948850 
# 
# From -- ./inp_files/271501.got.cif
#   From: 2010.05.17/outbox.cif.g08.bks.cpg/sg15_136_cif.got.tgz:271501.got - 2010.06.03 18:47:42.
