data_PCOD9308304
_publ_section_title
;
Structure prediction by ZEFSAII (Michael W. Deem and Ramdas Pophale) SiO2 
 PCOD9308304
Probable space group: C 2/C
;
_chemical_formula_sum "Si O2"
_cell_formula_units_Z 20
_cell_length_a 11.280444
_cell_length_b 8.476020
_cell_length_c 14.441427
_cell_angle_alpha 90.000000
_cell_angle_beta 29.434802
_cell_angle_gamma 90.000000
_cell_volume 678.566565
_symmetry_space_group_name_H-M "C 2/C"
_symmetry_group_IT_number 15
_symmetry_cell_setting 'monoclinic'
loop_
_space_group_symop_operation_xyz
x,y,z
-x,y,1/2-z
-x,-y,-z
x,-y,1/2+z
1/2+x,1/2+y,z
1/2-x,1/2+y,1/2-z
1/2-x,1/2-y,-z
1/2+x,1/2-y,1/2+z
loop_
_atom_site_type_symbol
_atom_site_label
_atom_site_fract_x
_atom_site_fract_y
_atom_site_fract_z
Si Si1 0.366673 0.142658 0.141004
Si Si2 0.209502 0.073153 0.440063
Si Si3 0.000000 0.134572 0.250000
O O1 0.200322 0.064677 0.332599
O O2 0.199191 0.224041 0.175722
O O3 0.554652 0.265462 0.054385
O O4 0.500000 0.000000 0.000000
O O5 0.500000 0.079066 0.250000
O O6 0.130873 0.969172 0.582462
#
# Coordination Sequence:
#
# PCOD9308304 Si02
#       3
#     8   8   4
#     4  12  27  46  81 113 147 203 253 306 382 444
#     4  12  27  51  80 110 153 200 255 307 375 457
#     4  12  28  54  78 112 156 200 246 318 376 444
#
# _framework density 29.473896
#
# number of rings (size 3 to 8) (size 9 to 14) (size 15 to 20)
#    0.000    0.000    4.000    4.800    5.600    1.600 
#    0.000    0.000    0.000    0.000    0.000    0.000 
#    0.000    0.000    0.000    0.000    0.000    0.000 
#
# Total GULP energy -56050.375915 kJ/mol
# GULP energy per Si atom -5605.037592 kJ/mol
# Density = 2.940681 g / cm^3
# Si number density = 29.473896 Si / 1000 Ang^3
#
#
#
# Elastic Constant Matrix: (Units=GPa)
#
#
# Indices 1 2 3 4 5 6 
#
# 1 221.0693 6.9417 52.0436 -0.0021 11.5803 0.0012
# 2 6.9417 71.4632 58.8904 -0.0035 18.6499 0.0018
# 3 52.0436 58.8904 269.1840 -0.0119 64.9997 0.0056
# 4 -0.0021 -0.0035 -0.0119 55.8267 0.0046 11.5306
# 5 11.5803 18.6499 64.9997 0.0046 74.8238 -0.0014
# 6 0.0012 0.0018 0.0056 11.5306 -0.0014 32.8527
#
#
#
# Elastic Compliance Matrix: (Units=1/GPa)
#
#
# Indices 1 2 3 4 5 6 
#
# 1 0.004747 0.000356 -0.001008 0.000000 0.000053 0.000000
# 2 0.000356 0.017195 -0.003521 0.000001 -0.001282 -0.000001
# 3 -0.001008 -0.003521 0.005607 0.000002 -0.003837 -0.000001
# 4 0.000000 0.000001 0.000002 0.019313 -0.000003 -0.006778
# 5 0.000053 -0.001282 -0.003837 -0.000003 0.017009 0.000002
# 6 0.000000 -0.000001 -0.000001 -0.006778 0.000002 0.032818
#
#
# Mechanical properties :
#
#
# Convention : Reuss Voigt Hill
#
# Bulk Modulus (GPa) = 52.07804 88.60752 70.34278
# Shear Modulus (GPa) = 44.86907 62.29002 53.57954
#
# Velocity S-wave (km/s) = 3.90594 4.60216 4.26827
# Velocity P-wave (km/s) = 6.16842 7.63990 6.94325
#
# Compressibility (1/GPa) = 0.01920195
#
# Stress axis : x y z
#
# Youngs Moduli (GPa) = 210.66291 58.15714 178.35893
#
# Poissons Ratio (x) = -0.02071 0.17985
# Poissons Ratio (y) = -0.07503 0.62800
# Poissons Ratio (z) = 0.21242 0.20477
#
# Static dielectric constant tensor:
#      x y z
#    x 2.552660 0.000000 -0.147190 
#    y 0.000000 2.368120 0.000000 
#    z -0.147190 0.000000 2.243930 
# 
# From -- ./inp_files/83325.got.cif
#   From: 2010.05.17/outbox.cif.g08.bks.cpg/sg15_42_cif.got.tgz:83325.got - 2010.06.03 18:47:42.
