data_PCOD9308993
_publ_section_title
;
Structure prediction by ZEFSAII (Michael W. Deem and Ramdas Pophale) SiO2 
 PCOD9308993
Probable space group: C 2/C
;
_chemical_formula_sum "Si O2"
_cell_formula_units_Z 24
_cell_length_a 21.000000
_cell_length_b 9.000000
_cell_length_c 27.000000
_cell_angle_alpha 90.000000
_cell_angle_beta 30.000000
_cell_angle_gamma 90.000000
_cell_volume 2551.500000
_symmetry_space_group_name_H-M "C 2/C"
_symmetry_group_IT_number 15
_symmetry_cell_setting 'monoclinic'
loop_
_space_group_symop_operation_xyz
x,y,z
-x,y,1/2-z
-x,-y,-z
x,-y,1/2+z
1/2+x,1/2+y,z
1/2-x,1/2+y,1/2-z
1/2-x,1/2-y,-z
1/2+x,1/2-y,1/2+z
loop_
_atom_site_type_symbol
_atom_site_label
_atom_site_fract_x
_atom_site_fract_y
_atom_site_fract_z
Si Si1 0.573899 0.476436 0.751071
Si Si2 0.747622 0.247873 0.421679
Si Si3 0.887946 0.162053 0.677717
Si Si4 0.555895 0.179291 0.632937
Si Si5 0.317475 0.015443 0.253568
Si Si6 0.605890 0.477251 0.970357
O O1 0.500000 0.525180 0.750000
O O2 0.693426 0.375811 0.653671
O O3 0.611686 0.597493 0.766386
O O4 0.485853 0.352229 0.837011
O O5 0.665524 0.163853 0.518303
O O6 0.866984 0.335470 0.366958
O O7 0.654611 0.366211 0.459169
O O8 0.867286 0.338951 0.691647
O O9 0.028445 0.120368 0.561952
O O10 0.776484 0.082799 0.719066
O O11 0.433655 0.080901 0.699305
O O12 0.229739 0.078484 0.357466
O O13 0.500000 0.500000 0.000000
#
# Coordination Sequence:
#
# PCOD9308993 Si02
#       6
#     8   8   8   8   8   8
#     4  10  20  38  62  90 123 164 201 253 307 364
#     4  10  20  37  67  90 122 160 211 247 305 378
#     4  11  24  42  62  90 128 161 210 259 308 366
#     4  10  20  38  64  92 118 163 206 251 305 366
#     4  11  24  41  64  90 124 167 206 257 312 367
#     4  10  22  38  62  90 121 162 200 259 306 359
#
# _framework density 9.4062319999999993
#
# number of rings (size 3 to 8) (size 9 to 14) (size 15 to 20)
#    0.000    1.667    3.333    1.000    4.667    1.333 
#    3.000    2.500    0.000    0.000    0.000    0.000 
#    0.000    0.000    0.000    0.000    0.000    0.000 
#
# Total GULP energy -133728.368545 kJ/mol
# GULP energy per Si atom -5572.015356 kJ/mol
# Density = 0.938482 g / cm^3
# Si number density = 9.406232 Si / 1000 Ang^3
#
#
#
# Elastic Constant Matrix: (Units=GPa)
#
#
# Indices 1 2 3 4 5 6 
#
# 1 117.8677 42.0471 24.0097 -0.0004 -20.5061 0.0005
# 2 42.0471 60.4473 5.8528 -0.0007 -11.8983 0.0012
# 3 24.0097 5.8528 105.7635 0.0001 -5.4407 0.0002
# 4 -0.0004 -0.0007 0.0001 17.5284 0.0000 -0.6377
# 5 -20.5061 -11.8983 -5.4407 0.0000 36.9840 -0.0001
# 6 0.0005 0.0012 0.0002 -0.6377 -0.0001 36.4569
#
#
#
# Elastic Compliance Matrix: (Units=1/GPa)
#
#
# Indices 1 2 3 4 5 6 
#
# 1 0.012337 -0.007567 -0.002172 0.000000 0.004086 0.000000
# 2 -0.007567 0.022353 0.000640 0.000001 0.003090 -0.000001
# 3 -0.002172 0.000640 0.009936 0.000000 0.000463 0.000000
# 4 0.000000 0.000001 0.000000 0.057087 0.000000 0.000999
# 5 0.004086 0.003090 0.000463 0.000000 0.030367 0.000000
# 6 0.000000 -0.000001 0.000000 0.000999 0.000000 0.027447
#
#
# Mechanical properties :
#
#
# Convention : Reuss Voigt Hill
#
# Bulk Modulus (GPa) = 37.83744 47.54421 42.69082
# Shear Modulus (GPa) = 26.80480 32.33844 29.57162
#
# Velocity S-wave (km/s) = 3.77880 4.15057 3.96904
# Velocity P-wave (km/s) = 6.26065 6.94962 6.61411
#
# Compressibility (1/GPa) = 0.02642885
#
# Stress axis : x y z
#
# Youngs Moduli (GPa) = 81.05909 44.73660 100.63918
#
# Poissons Ratio (x) = 0.33851 0.21855
# Poissons Ratio (y) = 0.61336 -0.06438
# Poissons Ratio (z) = 0.17603 -0.02862
#
# Static dielectric constant tensor:
#      x y z
#    x 1.682420 0.000000 0.039900 
#    y 0.000000 1.630560 0.000000 
#    z 0.039900 0.000000 1.715580 
# 
# From -- ./inp_files/180726.got.cif
#   From: 2010.05.17/outbox.ucp.g08.bks.cvg/sg15_91_cif.got.tgz:180726.got - 2010.06.11 12:40:34.
