data_PCOD9308673
_publ_section_title
;
Structure prediction by ZEFSAII (Michael W. Deem and Ramdas Pophale) SiO2 
 PCOD9308673
Probable space group: C 2/C
;
_chemical_formula_sum "Si O2"
_cell_formula_units_Z 32
_cell_length_a 24.000000
_cell_length_b 9.000000
_cell_length_c 30.000000
_cell_angle_alpha 90.000000
_cell_angle_beta 30.000000
_cell_angle_gamma 90.000000
_cell_volume 3240.000000
_symmetry_space_group_name_H-M "C 2/C"
_symmetry_group_IT_number 15
_symmetry_cell_setting 'monoclinic'
loop_
_space_group_symop_operation_xyz
x,y,z
-x,y,1/2-z
-x,-y,-z
x,-y,1/2+z
1/2+x,1/2+y,z
1/2-x,1/2+y,1/2-z
1/2-x,1/2-y,-z
1/2+x,1/2-y,1/2+z
loop_
_atom_site_type_symbol
_atom_site_label
_atom_site_fract_x
_atom_site_fract_y
_atom_site_fract_z
Si Si1 0.020183 0.782772 0.059180
Si Si2 0.839265 0.600240 0.289797
Si Si3 0.288275 0.491536 0.463549
Si Si4 0.657466 0.892256 0.969637
Si Si5 0.580483 0.213771 0.120531
Si Si6 0.313588 0.869898 0.123751
Si Si7 0.652351 0.555182 0.979180
Si Si8 0.901615 0.504478 0.153336
O O1 0.071217 0.744094 0.073192
O O2 0.910063 0.681549 0.135638
O O3 0.087128 0.718504 0.970433
O O4 0.041555 0.959160 0.044035
O O5 0.788489 0.757691 0.309438
O O6 0.757059 0.531422 0.383852
O O7 0.847268 0.497552 0.239909
O O8 0.965839 0.639937 0.215934
O O9 0.238324 0.581022 0.456319
O O10 0.381359 0.369994 0.384666
O O11 0.182898 0.397470 0.554536
O O12 0.334437 0.569438 0.476186
O O13 0.650097 0.720567 0.962669
O O14 0.702006 0.988246 0.897384
O O15 0.530443 0.947758 0.067228
O O16 0.344318 0.919089 0.152271
#
# Coordination Sequence:
#
# PCOD9308673 Si02
#       8
#     8   8   8   8   8   8   8   8
#     4   8  15  35  55  83 105 141 196 227 263 345
#     4  10  21  40  55  86 118 150 194 239 293 353
#     4  10  18  35  60  88 107 150 195 231 276 341
#     4  11  20  39  58  86 117 152 194 241 280 341
#     4   9  17  33  62  83 107 148 196 230 271 344
#     4  10  20  36  61  80 109 149 194 244 286 335
#     4  10  22  33  57  87 123 149 183 236 294 344
#     4  10  20  39  62  80 108 155 199 237 288 331
#
# _framework density 9.8765429999999999
#
# number of rings (size 3 to 8) (size 9 to 14) (size 15 to 20)
#    0.000    2.250    3.750    1.875    1.750    1.500 
#    0.000   13.125    2.750    0.000    0.000    0.000 
#    0.000    0.000    0.000    0.000    0.000    0.000 
#
# Total GULP energy -178288.470956 kJ/mol
# GULP energy per Si atom -5571.514717 kJ/mol
# Density = 0.985406 g / cm^3
# Si number density = 9.876543 Si / 1000 Ang^3
#
#
#
# Elastic Constant Matrix: (Units=GPa)
#
#
# Indices 1 2 3 4 5 6 
#
# 1 65.4829 22.1802 -6.9846 0.0000 8.2108 -0.0002
# 2 22.1802 108.0633 -0.9697 -0.0004 -2.6669 -0.0004
# 3 -6.9846 -0.9697 33.5871 -0.0004 2.5987 0.0004
# 4 0.0000 -0.0004 -0.0004 19.7031 0.0002 4.6206
# 5 8.2108 -2.6669 2.5987 0.0002 18.4074 0.0000
# 6 -0.0002 -0.0004 0.0004 4.6206 0.0000 26.6323
#
#
#
# Elastic Compliance Matrix: (Units=1/GPa)
#
#
# Indices 1 2 3 4 5 6 
#
# 1 0.018243 -0.003935 0.004402 0.000000 -0.009329 0.000000
# 2 -0.003935 0.010137 -0.000784 0.000000 0.003335 0.000000
# 3 0.004402 -0.000784 0.031167 0.000001 -0.006477 -0.000001
# 4 0.000000 0.000000 0.000001 0.052906 -0.000001 -0.009179
# 5 -0.009329 0.003335 -0.006477 -0.000001 0.059885 0.000000
# 6 0.000000 0.000000 -0.000001 -0.009179 0.000000 0.039141
#
#
# Mechanical properties :
#
#
# Convention : Reuss Voigt Hill
#
# Bulk Modulus (GPa) = 16.97397 26.17611 21.57504
# Shear Modulus (GPa) = 21.57488 25.80906 23.69197
#
# Velocity S-wave (km/s) = 3.30847 3.61859 3.46700
# Velocity P-wave (km/s) = 4.81730 5.54431 5.19354
#
# Compressibility (1/GPa) = 0.05891374
#
# Stress axis : x y z
#
# Youngs Moduli (GPa) = 54.81433 98.65042 32.08490
#
# Poissons Ratio (x) = 0.38821 -0.14124
# Poissons Ratio (y) = 0.21571 0.02514
# Poissons Ratio (z) = -0.24129 0.07731
#
# Static dielectric constant tensor:
#      x y z
#    x 1.697270 0.000000 -0.002100 
#    y 0.000000 1.737060 0.000000 
#    z -0.002100 0.000000 1.702370 
# 
# From -- ./inp_files/318616.got.cif
#   From: 2010.05.17/outbox.ucp.g08.bks.cvg/sg15_160_cif.got.tgz:318616.got - 2010.06.11 12:40:34.
