data_PCOD9308714
_publ_section_title
;
Structure prediction by ZEFSAII (Michael W. Deem and Ramdas Pophale) SiO2 
 PCOD9308714
Probable space group: C 2/C
;
_chemical_formula_sum "Si O2"
_cell_formula_units_Z 32
_cell_length_a 21.000000
_cell_length_b 21.000000
_cell_length_c 12.000000
_cell_angle_alpha 90.000000
_cell_angle_beta 40.000000
_cell_angle_gamma 90.000000
_cell_volume 3401.632030
_symmetry_space_group_name_H-M "C 2/C"
_symmetry_group_IT_number 15
_symmetry_cell_setting 'monoclinic'
loop_
_space_group_symop_operation_xyz
x,y,z
-x,y,1/2-z
-x,-y,-z
x,-y,1/2+z
1/2+x,1/2+y,z
1/2-x,1/2+y,1/2-z
1/2-x,1/2-y,-z
1/2+x,1/2-y,1/2+z
loop_
_atom_site_type_symbol
_atom_site_label
_atom_site_fract_x
_atom_site_fract_y
_atom_site_fract_z
Si Si1 0.083603 0.312271 0.367143
Si Si2 0.157876 0.232985 0.469583
Si Si3 0.379845 0.525592 0.916376
Si Si4 0.902245 0.118130 0.078618
Si Si5 0.727654 0.396295 0.385248
Si Si6 0.155765 0.795961 0.640573
Si Si7 0.124460 0.884511 0.294164
Si Si8 0.877843 0.269472 0.738322
O O1 0.148490 0.279096 0.377327
O O2 0.157066 0.373154 0.244574
O O3 0.076599 0.258601 0.278515
O O4 0.970625 0.310038 0.566441
O O5 0.089227 0.173532 0.527480
O O6 0.124864 0.270256 0.623839
O O7 0.270298 0.209069 0.337186
O O8 0.500000 0.512658 0.750000
O O9 0.357422 0.574821 0.843844
O O10 0.361046 0.559792 0.061578
O O11 0.312295 0.461975 0.005310
O O12 0.843470 0.153329 0.257234
O O13 0.010418 0.099820 0.979319
O O14 0.657514 0.340076 0.529823
O O15 0.701171 0.400781 0.289598
O O16 0.250000 0.750000 0.500000
O O17 0.122372 0.807352 0.283777
#
# Coordination Sequence:
#
# PCOD9308714 Si02
#       8
#     8   8   8   8   8   8   8   8
#     4  10  20  36  56  83 119 157 187 238 297 349
#     4  10  19  32  56  89 119 143 184 246 299 348
#     4  10  24  36  56  83 117 158 197 245 296 350
#     4  10  20  36  55  80 121 150 191 242 300 348
#     4  11  24  38  53  81 123 154 201 232 283 366
#     4   9  20  35  54  78 114 159 187 230 286 351
#     4  11  21  35  57  86 114 154 193 239 301 351
#     4  11  19  32  59  90 118 147 187 240 302 350
#
# _framework density 9.4072490000000002
#
# number of rings (size 3 to 8) (size 9 to 14) (size 15 to 20)
#    0.000    1.750    5.000    0.375    3.500    1.000 
#    0.000    0.000    0.000    0.750    0.000    0.000 
#    0.000    0.000    0.000    0.000    0.000    0.000 
#
# Total GULP energy -178176.018070 kJ/mol
# GULP energy per Si atom -5568.000565 kJ/mol
# Density = 0.938584 g / cm^3
# Si number density = 9.407249 Si / 1000 Ang^3
#
#
#
# Elastic Constant Matrix: (Units=GPa)
#
#
# Indices 1 2 3 4 5 6 
#
# 1 51.1402 5.6009 16.4696 0.0000 -5.1675 0.0000
# 2 5.6009 83.0260 19.1824 0.0000 -2.1191 0.0000
# 3 16.4696 19.1824 91.9675 0.0000 -8.9368 0.0000
# 4 0.0000 0.0000 0.0000 35.5899 0.0000 -1.0631
# 5 -5.1675 -2.1191 -8.9368 0.0000 28.7833 0.0000
# 6 0.0000 0.0000 0.0000 -1.0631 0.0000 24.7992
#
#
#
# Elastic Compliance Matrix: (Units=1/GPa)
#
#
# Indices 1 2 3 4 5 6 
#
# 1 0.020974 -0.000566 -0.003378 0.000000 0.002675 0.000000
# 2 -0.000566 0.012670 -0.002537 0.000000 0.000043 0.000000
# 3 -0.003378 -0.002537 0.012302 0.000000 0.003026 0.000000
# 4 0.000000 0.000000 0.000000 0.028134 0.000000 0.001206
# 5 0.002675 0.000043 0.003026 0.000000 0.036165 0.000000
# 6 0.000000 0.000000 0.000000 0.001206 0.000000 0.040376
#
#
# Mechanical properties :
#
#
# Convention : Reuss Voigt Hill
#
# Bulk Modulus (GPa) = 30.31845 34.29329 32.30587
# Shear Modulus (GPa) = 28.64055 30.15986 29.40021
#
# Velocity S-wave (km/s) = 3.90585 4.00811 3.95731
# Velocity P-wave (km/s) = 6.04072 6.29972 6.17158
#
# Compressibility (1/GPa) = 0.03298321
#
# Stress axis : x y z
#
# Youngs Moduli (GPa) = 47.67741 78.92727 81.29028
#
# Poissons Ratio (x) = 0.04469 0.27460
# Poissons Ratio (y) = 0.02699 0.20624
# Poissons Ratio (z) = 0.16106 0.20024
#
# Static dielectric constant tensor:
#      x y z
#    x 1.669460 0.000000 0.020230 
#    y 0.000000 1.692990 0.000000 
#    z 0.020230 0.000000 1.733810 
# 
# From -- ./inp_files/114246.got.cif
#   From: 2010.05.17/outbox.ucp.g08.bks.cvg/sg15_58_cif.got.tgz:114246.got - 2010.06.11 12:40:34.
