data_PCOD9308264
_publ_section_title
;
Structure prediction by ZEFSAII (Michael W. Deem and Ramdas Pophale) SiO2 
 PCOD9308264
Probable space group: C 2/C
;
_chemical_formula_sum "Si O2"
_cell_formula_units_Z 24
_cell_length_a 14.479334
_cell_length_b 7.723281
_cell_length_c 13.716377
_cell_angle_alpha 90.000000
_cell_angle_beta 36.920940
_cell_angle_gamma 90.000000
_cell_volume 921.417523
_symmetry_space_group_name_H-M "C 2/C"
_symmetry_group_IT_number 15
_symmetry_cell_setting 'monoclinic'
loop_
_space_group_symop_operation_xyz
x,y,z
-x,y,1/2-z
-x,-y,-z
x,-y,1/2+z
1/2+x,1/2+y,z
1/2-x,1/2+y,1/2-z
1/2-x,1/2-y,-z
1/2+x,1/2-y,1/2+z
loop_
_atom_site_type_symbol
_atom_site_label
_atom_site_fract_x
_atom_site_fract_y
_atom_site_fract_z
Si Si1 0.653064 0.413815 0.820018
Si Si2 0.820818 0.074804 0.900472
Si Si3 0.140451 0.431551 0.206138
O O1 0.720451 0.526101 0.673784
O O2 0.794487 0.418149 0.777263
O O3 0.615823 0.233134 0.796863
O O4 0.500000 0.500000 0.000000
O O5 0.000000 0.096492 0.750000
O O6 0.779194 0.922890 0.011223
O O7 0.750000 0.250000 0.000000
O O8 0.000000 0.465588 0.250000
#
# Coordination Sequence:
#
# PCOD9308264 Si02
#       3
#     8   8   8
#     4  12  28  51  86 121 164 221 282 343 425 509
#     4  12  26  51  80 123 168 219 281 347 420 509
#     4  12  29  55  87 120 170 220 282 353 425 501
#
# _framework density 26.046821999999999
#
# number of rings (size 3 to 8) (size 9 to 14) (size 15 to 20)
#    0.000    0.000    3.333    5.000    4.667    1.333 
#    0.000    1.667    0.000    0.000    0.000    0.000 
#    0.000    0.000    0.000    0.000    0.000    0.000 
#
# Total GULP energy -67095.824665 kJ/mol
# GULP energy per Si atom -5591.318722 kJ/mol
# Density = 2.598754 g / cm^3
# Si number density = 26.046822 Si / 1000 Ang^3
#
#
#
# Elastic Constant Matrix: (Units=GPa)
#
#
# Indices 1 2 3 4 5 6 
#
# 1 267.0063 39.6188 42.8672 0.0000 11.1657 0.0000
# 2 39.6188 105.2069 26.7368 0.0000 13.9865 0.0000
# 3 42.8672 26.7368 136.8483 0.0000 17.0565 0.0000
# 4 0.0000 0.0000 0.0000 61.8103 0.0000 23.5200
# 5 11.1657 13.9865 17.0565 0.0000 64.7332 0.0000
# 6 0.0000 0.0000 0.0000 23.5200 0.0000 39.4144
#
#
#
# Elastic Compliance Matrix: (Units=1/GPa)
#
#
# Indices 1 2 3 4 5 6 
#
# 1 0.004103 -0.001264 -0.001018 0.000000 -0.000166 0.000000
# 2 -0.001264 0.010576 -0.001461 0.000000 -0.001682 0.000000
# 3 -0.001018 -0.001461 0.008117 0.000000 -0.001648 0.000000
# 4 0.000000 0.000000 0.000000 0.020931 0.000000 -0.012491
# 5 -0.000166 -0.001682 -0.001648 0.000000 0.016274 0.000000
# 6 0.000000 0.000000 0.000000 -0.012491 0.000000 0.032825
#
#
# Mechanical properties :
#
#
# Convention : Reuss Voigt Hill
#
# Bulk Modulus (GPa) = 65.31263 80.83412 73.07337
# Shear Modulus (GPa) = 47.43137 59.84750 53.63943
#
# Velocity S-wave (km/s) = 4.27195 4.79862 4.54293
# Velocity P-wave (km/s) = 7.03294 7.86155 7.45876
#
# Compressibility (1/GPa) = 0.01531098
#
# Stress axis : x y z
#
# Youngs Moduli (GPa) = 243.71388 94.55322 123.20115
#
# Poissons Ratio (x) = 0.11956 0.12536
# Poissons Ratio (y) = 0.30817 0.17994
# Poissons Ratio (z) = 0.24798 0.13810
#
# Static dielectric constant tensor:
#      x y z
#    x 2.140050 0.000000 -0.009970 
#    y 0.000000 2.109530 0.000000 
#    z -0.009970 0.000000 1.970150 
# 
# From -- ./inp_files/150026.got.cif
#   From: 2010.05.17/outbox.cif.g08.bks.cpg/sg15_76_cif.got.tgz:150026.got - 2010.06.03 18:47:42.
