data_PCOD9308858
_publ_section_title
;
Structure prediction by ZEFSAII (Michael W. Deem and Ramdas Pophale) SiO2 
 PCOD9308858
Probable space group: C 2/C
;
_chemical_formula_sum "Si O2"
_cell_formula_units_Z 28
_cell_length_a 24.000000
_cell_length_b 21.000000
_cell_length_c 12.000000
_cell_angle_alpha 90.000000
_cell_angle_beta 150.000000
_cell_angle_gamma 90.000000
_cell_volume 3024.000000
_symmetry_space_group_name_H-M "C 2/C"
_symmetry_group_IT_number 15
_symmetry_cell_setting 'monoclinic'
loop_
_space_group_symop_operation_xyz
x,y,z
-x,y,1/2-z
-x,-y,-z
x,-y,1/2+z
1/2+x,1/2+y,z
1/2-x,1/2+y,1/2-z
1/2-x,1/2-y,-z
1/2+x,1/2-y,1/2+z
loop_
_atom_site_type_symbol
_atom_site_label
_atom_site_fract_x
_atom_site_fract_y
_atom_site_fract_z
Si Si1 0.448382 0.178376 0.552256
Si Si2 0.382923 0.746612 0.493715
Si Si3 0.124474 0.226196 0.269030
Si Si4 0.103885 0.912140 0.157534
Si Si5 0.271263 0.372992 0.907653
Si Si6 0.917280 0.043621 0.501478
Si Si7 0.838310 0.188723 0.931653
O O1 0.500000 0.144640 0.750000
O O2 0.543887 0.213373 0.648648
O O3 0.360244 0.137202 0.332689
O O4 0.381245 0.239393 0.484598
O O5 0.395354 0.710907 0.395245
O O6 0.330654 0.695349 0.489069
O O7 0.294752 0.803213 0.316740
O O8 0.500000 0.766678 0.750000
O O9 0.250000 0.250000 0.500000
O O10 0.120858 0.177575 0.369503
O O11 0.192276 0.898670 0.409090
O O12 0.114043 0.857224 0.081472
O O13 0.988927 0.920313 0.029396
O O14 0.121011 0.978280 0.121866
O O15 0.318897 0.416981 0.890200
O O16 0.000000 0.030671 0.750000
#
# Coordination Sequence:
#
# PCOD9308858 Si02
#       7
#     8   8   8   8   8   8   8
#     4   9  19  34  55  82 112 148 181 222 278 345
#     4  10  20  32  53  81 117 149 175 217 281 340
#     4   9  19  35  50  79 116 146 183 213 268 342
#     4  10  20  36  57  83 111 144 190 240 280 328
#     4  10  21  36  56  81 113 147 187 232 288 340
#     4   9  20  38  56  82 112 148 187 236 290 332
#     4   9  20  34  52  84 113 140 182 227 275 333
#
# _framework density 9.2592590000000001
#
# number of rings (size 3 to 8) (size 9 to 14) (size 15 to 20)
#    0.000    2.571    0.000    2.143    6.000    2.857 
#    5.143    0.000    0.000    1.714    0.000    0.000 
#    0.000    0.000    0.000    0.000    0.000    0.000 
#
# Total GULP energy -155943.116740 kJ/mol
# GULP energy per Si atom -5569.397026 kJ/mol
# Density = 0.923818 g / cm^3
# Si number density = 9.259259 Si / 1000 Ang^3
#
#
#
# Elastic Constant Matrix: (Units=GPa)
#
#
# Indices 1 2 3 4 5 6 
#
# 1 95.2596 26.9301 49.3454 0.0000 -17.4607 0.0000
# 2 26.9301 54.0174 39.9742 0.0000 -6.4180 0.0000
# 3 49.3454 39.9742 147.2454 0.0000 3.7691 0.0000
# 4 0.0000 0.0000 0.0000 23.3126 0.0000 -9.6685
# 5 -17.4607 -6.4180 3.7691 0.0000 32.3311 0.0000
# 6 0.0000 0.0000 0.0000 -9.6685 0.0000 28.5879
#
#
#
# Elastic Compliance Matrix: (Units=1/GPa)
#
#
# Indices 1 2 3 4 5 6 
#
# 1 0.015198 -0.003378 -0.004382 0.000000 0.008048 0.000000
# 2 -0.003378 0.024878 -0.005719 0.000000 0.003781 0.000000
# 3 -0.004382 -0.005719 0.009932 0.000000 -0.004660 0.000000
# 4 0.000000 0.000000 0.000000 0.049894 0.000000 0.016874
# 5 0.008048 0.003781 -0.004660 0.000000 0.036570 0.000000
# 6 0.000000 0.000000 0.000000 0.016874 0.000000 0.040687
#
#
# Mechanical properties :
#
#
# Convention : Reuss Voigt Hill
#
# Bulk Modulus (GPa) = 43.38359 58.78018 51.08189
# Shear Modulus (GPa) = 23.60744 28.86449 26.23597
#
# Velocity S-wave (km/s) = 3.57431 3.95230 3.76805
# Velocity P-wave (km/s) = 6.36492 7.25519 6.82459
#
# Compressibility (1/GPa) = 0.02305019
#
# Stress axis : x y z
#
# Youngs Moduli (GPa) = 65.79972 40.19683 100.68751
#
# Poissons Ratio (x) = 0.13577 0.44123
# Poissons Ratio (y) = 0.22224 0.57580
# Poissons Ratio (z) = 0.28834 0.22987
#
# Static dielectric constant tensor:
#      x y z
#    x 1.712130 0.000000 0.031280 
#    y 0.000000 1.630460 0.000000 
#    z 0.031280 0.000000 1.693200 
# 
# From -- ./inp_files/119846.got.cif
#   From: 2010.05.17/outbox.ucp.g08.bks.cvg/sg15_60_cif.got.tgz:119846.got - 2010.06.11 12:40:34.
