data_PCOD9308064
_publ_section_title
;
Structure prediction by ZEFSAII (Michael W. Deem and Ramdas Pophale) SiO2 
 PCOD9308064
Probable space group: C 2/C
;
_chemical_formula_sum "Si O2"
_cell_formula_units_Z 32
_cell_length_a 13.741364
_cell_length_b 4.886067
_cell_length_c 17.865722
_cell_angle_alpha 90.000000
_cell_angle_beta 92.935578
_cell_angle_gamma 90.000000
_cell_volume 1197.952384
_symmetry_space_group_name_H-M "C 2/C"
_symmetry_group_IT_number 15
_symmetry_cell_setting 'monoclinic'
loop_
_space_group_symop_operation_xyz
x,y,z
-x,y,1/2-z
-x,-y,-z
x,-y,1/2+z
1/2+x,1/2+y,z
1/2-x,1/2+y,1/2-z
1/2-x,1/2-y,-z
1/2+x,1/2-y,1/2+z
loop_
_atom_site_type_symbol
_atom_site_label
_atom_site_fract_x
_atom_site_fract_y
_atom_site_fract_z
Si Si1 0.650493 0.294485 0.626034
Si Si2 0.096488 0.121962 0.966192
Si Si3 0.776865 0.815416 0.639318
Si Si4 0.960259 0.491158 0.174317
O O1 0.646737 0.223118 0.537134
O O2 0.687660 0.604181 0.631182
O O3 0.545355 0.217492 0.653146
O O4 0.733086 0.101098 0.664405
O O5 0.066243 0.312986 0.895698
O O6 0.166641 0.889167 0.935527
O O7 0.000000 0.000000 0.000000
O O8 0.863524 0.679893 0.689208
O O9 0.000000 0.639214 0.250000
#
# Coordination Sequence:
#
# PCOD9308064 Si02
#       4
#     8   8   8   8
#     4  12  27  48  83 115 153 204 267 331 392 469
#     4  12  25  51  85 119 158 209 270 338 399 468
#     4  12  27  49  82 115 156 203 266 325 401 466
#     4  12  30  52  77 115 167 212 265 331 406 487
#
# _framework density 26.712247000000001
#
# number of rings (size 3 to 8) (size 9 to 14) (size 15 to 20)
#    0.000    0.000    5.000    3.750    3.500    3.000 
#    0.000    0.000    0.000    0.000    0.000    0.000 
#    0.000    0.000    0.000    0.000    0.000    0.000 
#
# Total GULP energy -89762.138905 kJ/mol
# GULP energy per Si atom -5610.133682 kJ/mol
# Density = 2.665145 g / cm^3
# Si number density = 26.712247 Si / 1000 Ang^3
#
#
#
# Elastic Constant Matrix: (Units=GPa)
#
#
# Indices 1 2 3 4 5 6 
#
# 1 139.3309 38.0096 25.2118 0.0000 -18.7981 0.0000
# 2 38.0096 110.1776 21.2650 0.0000 -11.9826 0.0000
# 3 25.2118 21.2650 139.5235 0.0000 7.0807 0.0000
# 4 0.0000 0.0000 0.0000 9.1325 0.0000 -6.5737
# 5 -18.7981 -11.9826 7.0807 0.0000 46.9819 0.0000
# 6 0.0000 0.0000 0.0000 -6.5737 0.0000 55.9358
#
#
#
# Elastic Compliance Matrix: (Units=1/GPa)
#
#
# Indices 1 2 3 4 5 6 
#
# 1 0.008457 -0.002337 -0.001324 0.000000 0.002987 0.000000
# 2 -0.002337 0.010329 -0.001248 0.000000 0.001887 0.000000
# 3 -0.001324 -0.001248 0.007698 0.000000 -0.002008 0.000000
# 4 0.000000 0.000000 0.000000 0.119618 0.000000 0.014058
# 5 0.002987 0.001887 -0.002008 0.000000 0.023264 0.000000
# 6 0.000000 0.000000 0.000000 0.014058 0.000000 0.019530
#
#
# Mechanical properties :
#
#
# Convention : Reuss Voigt Hill
#
# Bulk Modulus (GPa) = 59.99745 62.00053 60.99899
# Shear Modulus (GPa) = 24.47751 42.71308 33.59529
#
# Velocity S-wave (km/s) = 3.03040 4.00310 3.55022
# Velocity P-wave (km/s) = 5.89524 6.68037 6.30004
#
# Compressibility (1/GPa) = 0.01666738
#
# Stress axis : x y z
#
# Youngs Moduli (GPa) = 118.24094 96.81832 129.89565
#
# Poissons Ratio (x) = 0.22629 0.17193
# Poissons Ratio (y) = 0.27636 0.16206
# Poissons Ratio (z) = 0.15650 0.12079
#
# Static dielectric constant tensor:
#      x y z
#    x 2.065720 0.000000 0.043130 
#    y 0.000000 2.055450 0.000000 
#    z 0.043130 0.000000 2.143840 
# 
# From -- ./inp_files/201724.got.cif
#   From: 2010.05.17/outbox.cif.g08.bks.cpg/sg15_101_cif.got.tgz:201724.got - 2010.06.03 18:47:42.
