data_PCOD9308463
_publ_section_title
;
Structure prediction by ZEFSAII (Michael W. Deem and Ramdas Pophale) SiO2 
 PCOD9308463
Probable space group: C 2/C
;
_chemical_formula_sum "Si O2"
_cell_formula_units_Z 40
_cell_length_a 28.125011
_cell_length_b 6.981709
_cell_length_c 6.791240
_cell_angle_alpha 90.000000
_cell_angle_beta 88.323490
_cell_angle_gamma 90.000000
_cell_volume 1332.961416
_symmetry_space_group_name_H-M "C 2/C"
_symmetry_group_IT_number 15
_symmetry_cell_setting 'monoclinic'
loop_
_space_group_symop_operation_xyz
x,y,z
-x,y,1/2-z
-x,-y,-z
x,-y,1/2+z
1/2+x,1/2+y,z
1/2-x,1/2+y,1/2-z
1/2-x,1/2-y,-z
1/2+x,1/2-y,1/2+z
loop_
_atom_site_type_symbol
_atom_site_label
_atom_site_fract_x
_atom_site_fract_y
_atom_site_fract_z
Si Si1 0.294240 0.159684 0.259279
Si Si2 0.107825 0.299401 0.854745
Si Si3 0.090223 0.757052 0.899935
Si Si4 0.009025 0.729980 0.478166
Si Si5 0.189920 0.776559 0.795317
O O1 0.336299 0.243279 0.116494
O O2 0.239258 0.143178 0.203297
O O3 0.299535 0.260663 0.469749
O O4 0.309670 0.941227 0.279647
O O5 0.097439 0.529353 0.854482
O O6 0.098828 0.233851 0.633774
O O7 0.065147 0.226911 0.999906
O O8 0.136147 0.854217 0.793880
O O9 0.034885 0.814635 0.892369
O O10 0.000000 0.228174 0.750000
O O11 0.000000 0.500000 0.500000
#
# Coordination Sequence:
#
# PCOD9308463 Si02
#       5
#     8   8   8   8   8
#     4   9  17  28  41  58  80 104 130 160 192 227
#     4   8  13  21  33  50  72  95 119 149 185 223
#     4   8  13  21  33  50  72  95 119 149 185 223
#     4   8  12  18  30  48  69  92 116 144 182 224
#     4   9  17  28  41  58  80 104 130 160 192 227
#
# _framework density 30.008367
#
# number of rings (size 3 to 8) (size 9 to 14) (size 15 to 20)
#    0.000    3.600    0.000    0.000    0.000    0.800 
#    0.000    0.000    0.000    0.000    0.000    1.400 
#    0.000    0.000    0.000    0.000    0.000    0.000 
#
# Total GULP energy -111857.032421 kJ/mol
# GULP energy per Si atom -5592.851621 kJ/mol
# Density = 2.994007 g / cm^3
# Si number density = 30.008367 Si / 1000 Ang^3
#
#
#
# Elastic Constant Matrix: (Units=GPa)
#
#
# Indices 1 2 3 4 5 6 
#
# 1 376.4215 20.8335 106.6120 0.0000 -89.6238 0.0000
# 2 20.8335 113.5152 21.8454 0.0000 -1.7194 0.0000
# 3 106.6120 21.8454 145.9821 0.0000 -58.1040 0.0000
# 4 0.0000 0.0000 0.0000 0.8848 0.0000 5.4111
# 5 -89.6238 -1.7194 -58.1040 0.0000 78.2248 0.0000
# 6 0.0000 0.0000 0.0000 5.4111 0.0000 27.6821
#
#
#
# Elastic Compliance Matrix: (Units=1/GPa)
#
#
# Indices 1 2 3 4 5 6 
#
# 1 0.003890 -0.000386 -0.001438 0.000000 0.003381 0.000000
# 2 -0.000386 0.009182 -0.001686 0.000000 -0.001493 0.000000
# 3 -0.001438 -0.001686 0.010623 0.000000 0.006206 0.000000
# 4 0.000000 0.000000 0.000000 -5.782872 0.000000 1.130395
# 5 0.003381 -0.001493 0.006206 0.000000 0.021234 0.000000
# 6 0.000000 0.000000 0.000000 1.130395 0.000000 -0.184837
#
#
# Mechanical properties :
#
#
# Convention : Reuss Voigt Hill
#
# Bulk Modulus (GPa) = 59.97152 103.83339 81.90245
# Shear Modulus (GPa) = -0.84599 53.80021 26.47711
#
# Velocity S-wave (km/s) = -0.53154 4.23879 2.97362
# Velocity P-wave (km/s) = 4.43301 7.65722 6.25638
#
# Compressibility (1/GPa) = 0.01667458
#
# Stress axis : x y z
#
# Youngs Moduli (GPa) = 257.06790 108.90672 94.13917
#
# Poissons Ratio (x) = 0.04205 0.13534
# Poissons Ratio (y) = 0.09925 0.15876
# Poissons Ratio (z) = 0.36956 0.18366
#
# Static dielectric constant tensor:
#      x y z
#    x 2.519900 0.000000 0.069320 
#    y 0.000000 2.508060 0.000000 
#    z 0.069320 0.000000 2.351740 
# 
# From -- ./inp_files/60276.got.cif
#   From: 2010.05.17/outbox.cif.g08.bks.cpg/sg15_31_cif.got.tgz:60276.got - 2010.06.03 18:47:42.
