data_PCOD9308217
_publ_section_title
;
Structure prediction by ZEFSAII (Michael W. Deem and Ramdas Pophale) SiO2 
 PCOD9308217
Probable space group: C 2/C
;
_chemical_formula_sum "Si O2"
_cell_formula_units_Z 60
_cell_length_a 11.821029
_cell_length_b 14.641559
_cell_length_c 17.081858
_cell_angle_alpha 90.000000
_cell_angle_beta 67.520548
_cell_angle_gamma 90.000000
_cell_volume 2731.854340
_symmetry_space_group_name_H-M "C 2/C"
_symmetry_group_IT_number 15
_symmetry_cell_setting 'monoclinic'
loop_
_space_group_symop_operation_xyz
x,y,z
-x,y,1/2-z
-x,-y,-z
x,-y,1/2+z
1/2+x,1/2+y,z
1/2-x,1/2+y,1/2-z
1/2-x,1/2-y,-z
1/2+x,1/2-y,1/2+z
loop_
_atom_site_type_symbol
_atom_site_label
_atom_site_fract_x
_atom_site_fract_y
_atom_site_fract_z
Si Si1 0.762346 0.403609 0.389029
Si Si2 0.312237 0.947453 0.761010
Si Si3 0.647505 0.539414 0.543750
Si Si4 0.500000 0.795336 0.750000
Si Si5 0.528688 0.606053 0.331976
Si Si6 0.461999 0.205629 0.933367
Si Si7 0.111993 0.462611 0.417090
Si Si8 0.029327 0.203322 0.907731
O O1 0.838414 0.464186 0.308004
O O2 0.689285 0.477190 0.460551
O O3 0.660758 0.345720 0.370693
O O4 0.842308 0.338996 0.424656
O O5 0.384058 0.861722 0.775705
O O6 0.168995 0.924175 0.801492
O O7 0.354123 0.968664 0.661614
O O8 0.554545 0.478092 0.618472
O O9 0.769745 0.555699 0.561209
O O10 0.575534 0.630857 0.539973
O O11 0.496423 0.738527 0.830683
O O12 0.500000 0.627364 0.250000
O O13 0.492336 0.695833 0.390103
O O14 0.567720 0.132067 0.891325
O O15 0.455774 0.220779 0.028631
O O16 0.000000 0.500000 0.500000
#
# Coordination Sequence:
#
# PCOD9308217 Si02
#       8
#     8   8   8   4   8   8   8   8
#     4  12  26  49  81 109 153 199 257 306 380 455
#     4  12  28  51  75 109 155 198 253 310 383 459
#     4  12  26  51  78 110 154 207 245 308 388 460
#     4  12  32  46  74 114 154 194 252 328 370 448
#     4  12  27  48  79 113 151 200 258 314 375 455
#     4  12  28  46  77 115 149 201 253 319 369 446
#     4  12  27  50  79 111 154 201 251 307 386 452
#     4  12  28  48  75 113 154 196 252 311 385 444
#
# _framework density 21.963103
#
# number of rings (size 3 to 8) (size 9 to 14) (size 15 to 20)
#    0.000    0.000    5.333    3.200   10.267    0.533 
#    0.000    0.000    0.000    0.000    0.000    0.000 
#    0.000    0.000    0.000    0.000    0.000    0.000 
#
# Total GULP energy -168084.605502 kJ/mol
# GULP energy per Si atom -5602.820183 kJ/mol
# Density = 2.191311 g / cm^3
# Si number density = 21.963103 Si / 1000 Ang^3
#
#
#
# Elastic Constant Matrix: (Units=GPa)
#
#
# Indices 1 2 3 4 5 6 
#
# 1 139.0688 49.9972 29.8298 0.0000 0.4247 0.0000
# 2 49.9972 94.0592 27.3286 0.0000 6.3458 0.0000
# 3 29.8298 27.3286 108.4757 0.0000 11.7690 0.0000
# 4 0.0000 0.0000 0.0000 35.7186 0.0000 7.3247
# 5 0.4247 6.3458 11.7690 0.0000 40.0853 0.0000
# 6 0.0000 0.0000 0.0000 7.3247 0.0000 83.4539
#
#
#
# Elastic Compliance Matrix: (Units=1/GPa)
#
#
# Indices 1 2 3 4 5 6 
#
# 1 0.009120 -0.004485 -0.001492 0.000000 0.001051 0.000000
# 2 -0.004485 0.013716 -0.002057 0.000000 -0.001520 0.000000
# 3 -0.001492 -0.002057 0.010443 0.000000 -0.002725 0.000000
# 4 0.000000 0.000000 0.000000 0.028510 0.000000 -0.002502
# 5 0.001051 -0.001520 -0.002725 0.000000 0.025976 0.000000
# 6 0.000000 0.000000 0.000000 -0.002502 0.000000 0.012202
#
#
# Mechanical properties :
#
#
# Convention : Reuss Voigt Hill
#
# Bulk Modulus (GPa) = 58.10602 61.76832 59.93717
# Shear Modulus (GPa) = 41.06019 47.48144 44.27082
#
# Velocity S-wave (km/s) = 4.32847 4.65464 4.49451
# Velocity P-wave (km/s) = 7.17597 7.55462 7.36773
#
# Compressibility (1/GPa) = 0.01720992
#
# Stress axis : x y z
#
# Youngs Moduli (GPa) = 109.64929 72.90786 95.75951
#
# Poissons Ratio (x) = 0.32700 0.14288
# Poissons Ratio (y) = 0.49179 0.19700
# Poissons Ratio (z) = 0.16360 0.14999
#
# Static dielectric constant tensor:
#      x y z
#    x 1.790830 0.000000 0.006070 
#    y 0.000000 1.805230 0.000000 
#    z 0.006070 0.000000 1.823980 
# 
# From -- ./inp_files/198275.got.cif
#   From: 2010.05.17/outbox.cif.g08.bks.cpg/sg15_100_cif.got.tgz:198275.got - 2010.06.03 18:47:42.
