data_PCOD9308492
_publ_section_title
;
Structure prediction by ZEFSAII (Michael W. Deem and Ramdas Pophale) SiO2 
 PCOD9308492
Probable space group: C 2/C
;
_chemical_formula_sum "Si O2"
_cell_formula_units_Z 40
_cell_length_a 6.777900
_cell_length_b 25.747789
_cell_length_c 10.890713
_cell_angle_alpha 90.000000
_cell_angle_beta 120.587692
_cell_angle_gamma 90.000000
_cell_volume 1636.136677
_symmetry_space_group_name_H-M "C 2/C"
_symmetry_group_IT_number 15
_symmetry_cell_setting 'monoclinic'
loop_
_space_group_symop_operation_xyz
x,y,z
-x,y,1/2-z
-x,-y,-z
x,-y,1/2+z
1/2+x,1/2+y,z
1/2-x,1/2+y,1/2-z
1/2-x,1/2-y,-z
1/2+x,1/2-y,1/2+z
loop_
_atom_site_type_symbol
_atom_site_label
_atom_site_fract_x
_atom_site_fract_y
_atom_site_fract_z
Si Si1 0.193924 0.475337 0.205063
Si Si2 0.031416 0.788161 0.546217
Si Si3 0.142914 0.306364 0.637484
Si Si4 0.364610 0.921792 0.921154
Si Si5 0.224252 0.881425 0.131950
O O1 0.256223 0.534570 0.198778
O O2 0.350649 0.429886 0.308698
O O3 0.000000 0.479089 0.250000
O O4 0.085614 0.450454 0.048053
O O5 0.034213 0.733204 0.478919
O O6 0.844032 0.795536 0.598092
O O7 0.938762 0.831560 0.420985
O O8 0.259302 0.794978 0.697296
O O9 0.075677 0.366666 0.617339
O O10 0.219215 0.904883 0.993506
O O11 0.500000 0.868752 0.250000
#
# Coordination Sequence:
#
# PCOD9308492 Si02
#       5
#     8   8   8   8   8
#     4   8  14  24  42  58  77 103 134 161 191 228
#     4   9  17  24  36  57  81 109 125 155 199 234
#     4   9  17  24  37  55  83 106 129 156 192 241
#     4   8  14  25  37  58  81 100 132 163 189 230
#     4   8  15  24  39  57  83 104 128 160 191 237
#
# _framework density 24.447835000000001
#
# number of rings (size 3 to 8) (size 9 to 14) (size 15 to 20)
#    0.000    4.000    0.000    0.000   11.200    0.000 
#    0.000    1.000    0.000    0.000    0.000    1.400 
#    0.000    0.000    0.000    0.000    0.000    0.000 
#
# Total GULP energy -111429.684987 kJ/mol
# GULP energy per Si atom -5571.484249 kJ/mol
# Density = 2.439219 g / cm^3
# Si number density = 24.447835 Si / 1000 Ang^3
#
#
#
# Elastic Constant Matrix: (Units=GPa)
#
#
# Indices 1 2 3 4 5 6 
#
# 1 78.8505 10.8654 20.4730 0.0000 8.8554 0.0000
# 2 10.8654 225.5235 115.8175 0.0000 25.7777 0.0000
# 3 20.4730 115.8175 126.7177 0.0000 8.0441 0.0000
# 4 0.0000 0.0000 0.0000 27.2181 0.0000 -34.1133
# 5 8.8554 25.7777 8.0441 0.0000 22.4985 0.0000
# 6 0.0000 0.0000 0.0000 -34.1133 0.0000 -31.1781
#
#
#
# Elastic Compliance Matrix: (Units=1/GPa)
#
#
# Indices 1 2 3 4 5 6 
#
# 1 0.014081 0.001915 -0.003617 0.000000 -0.006444 0.000000
# 2 0.001915 0.009855 -0.008751 0.000000 -0.008916 0.000000
# 3 -0.003617 -0.008751 0.016113 0.000000 0.005689 0.000000
# 4 0.000000 0.000000 0.000000 0.015494 0.000000 -0.016952
# 5 -0.006444 -0.008916 0.005689 0.000000 0.055166 0.000000
# 6 0.000000 0.000000 0.000000 -0.016952 0.000000 -0.013526
#
#
# Mechanical properties :
#
#
# Convention : Reuss Voigt Hill
#
# Bulk Modulus (GPa) = 52.23306 80.60041 66.41673
# Shear Modulus (GPa) = 40.17118 22.63676 31.40397
#
# Velocity S-wave (km/s) = 4.05796 3.04620 3.58792
# Velocity P-wave (km/s) = 6.58541 6.73887 6.66258
#
# Compressibility (1/GPa) = 0.01914496
#
# Stress axis : x y z
#
# Youngs Moduli (GPa) = 71.01776 101.47252 62.06306
#
# Poissons Ratio (x) = -0.19436 0.22446
# Poissons Ratio (y) = -0.13603 0.54309
# Poissons Ratio (z) = 0.25684 0.88795
#
# Static dielectric constant tensor:
#      x y z
#    x 2.157130 0.000000 0.018330 
#    y 0.000000 1.962880 0.000000 
#    z 0.018330 0.000000 1.935260 
# 
# From -- ./inp_files/100159.got.cif
#   From: 2010.05.17/outbox.cif.g08.bks.cpg/sg15_51_cif.got.tgz:100159.got - 2010.06.03 18:47:42.
