data_PCOD9308262
_publ_section_title
;
Structure prediction by ZEFSAII (Michael W. Deem and Ramdas Pophale) SiO2 
 PCOD9308262
Probable space group: C 2/C
;
_chemical_formula_sum "Si O2"
_cell_formula_units_Z 32
_cell_length_a 28.370419
_cell_length_b 4.775811
_cell_length_c 9.000589
_cell_angle_alpha 90.000000
_cell_angle_beta 78.249232
_cell_angle_gamma 90.000000
_cell_volume 1193.948144
_symmetry_space_group_name_H-M "C 2/C"
_symmetry_group_IT_number 15
_symmetry_cell_setting 'monoclinic'
loop_
_space_group_symop_operation_xyz
x,y,z
-x,y,1/2-z
-x,-y,-z
x,-y,1/2+z
1/2+x,1/2+y,z
1/2-x,1/2+y,1/2-z
1/2-x,1/2-y,-z
1/2+x,1/2-y,1/2+z
loop_
_atom_site_type_symbol
_atom_site_label
_atom_site_fract_x
_atom_site_fract_y
_atom_site_fract_z
Si Si1 0.000000 0.000000 0.500000
Si Si2 0.000000 0.530025 0.250000
Si Si3 0.281457 0.883000 0.201082
Si Si4 0.914329 0.212517 0.375302
Si Si5 0.153877 0.292058 0.610411
O O1 0.990059 0.736615 0.390049
O O2 0.054269 0.877779 0.504986
O O3 0.042653 0.310963 0.264156
O O4 0.241290 0.121258 0.195942
O O5 0.320843 0.056072 0.268141
O O6 0.305341 0.753358 0.039879
O O7 0.883617 0.484241 0.429430
O O8 0.877400 0.982577 0.339670
#
# Coordination Sequence:
#
# PCOD9308262 Si02
#       5
#     4   4   8   8   8
#     4  12  28  52  80 116 168 220 266 326 394 468
#     4  12  28  52  84 112 174 214 270 330 396 470
#     4  12  26  51  80 113 157 204 263 337 418 470
#     4  12  28  49  77 120 162 211 269 317 398 458
#     4  12  28  47  82 115 156 206 270 329 385 498
#
# _framework density 26.801831
#
# number of rings (size 3 to 8) (size 9 to 14) (size 15 to 20)
#    0.000    0.000    2.500    6.000    3.500    2.000 
#    0.000    0.000    0.000    0.000    0.000    0.000 
#    0.000    0.000    0.000    0.000    0.000    0.000 
#
# Total GULP energy -89347.151574 kJ/mol
# GULP energy per Si atom -5584.196973 kJ/mol
# Density = 2.674083 g / cm^3
# Si number density = 26.801831 Si / 1000 Ang^3
#
#
#
# Elastic Constant Matrix: (Units=GPa)
#
#
# Indices 1 2 3 4 5 6 
#
# 1 136.9807 62.4828 31.8448 0.0000 -11.0012 0.0000
# 2 62.4828 198.3515 39.7948 0.0000 -15.5220 0.0000
# 3 31.8448 39.7948 96.0550 0.0000 -10.0888 0.0000
# 4 0.0000 0.0000 0.0000 44.7606 0.0000 -4.3588
# 5 -11.0012 -15.5220 -10.0888 0.0000 39.2922 0.0000
# 6 0.0000 0.0000 0.0000 -4.3588 0.0000 50.1543
#
#
#
# Elastic Compliance Matrix: (Units=1/GPa)
#
#
# Indices 1 2 3 4 5 6 
#
# 1 0.008888 -0.002341 -0.001863 0.000000 0.001085 0.000000
# 2 -0.002341 0.006219 -0.001656 0.000000 0.001376 0.000000
# 3 -0.001863 -0.001656 0.011912 0.000000 0.001883 0.000000
# 4 0.000000 0.000000 0.000000 0.022532 0.000000 0.001958
# 5 0.001085 0.001376 0.001883 0.000000 0.026781 0.000000
# 6 0.000000 0.000000 0.000000 0.001958 0.000000 0.020109
#
#
# Mechanical properties :
#
#
# Convention : Reuss Voigt Hill
#
# Bulk Modulus (GPa) = 65.36028 77.73688 71.54858
# Shear Modulus (GPa) = 44.14592 46.65908 45.40250
#
# Velocity S-wave (km/s) = 4.06288 4.17693 4.12030
# Velocity P-wave (km/s) = 6.81533 7.23392 7.02774
#
# Compressibility (1/GPa) = 0.01529981
#
# Stress axis : x y z
#
# Youngs Moduli (GPa) = 112.50498 160.79867 83.94908
#
# Poissons Ratio (x) = 0.37648 0.15638
# Poissons Ratio (y) = 0.26341 0.13900
# Poissons Ratio (z) = 0.20957 0.26624
#
# Static dielectric constant tensor:
#      x y z
#    x 1.956430 0.000000 -0.248510 
#    y 0.000000 1.913850 0.000000 
#    z -0.248510 0.000000 1.628610 
# 
# From -- ./inp_files/68000.got.cif
#   From: 2010.05.17/outbox.cif.g08.bks.cpg/sg15_34_cif.got.tgz:68000.got - 2010.06.03 18:47:42.
