data_PCOD9308440
_publ_section_title
;
Structure prediction by ZEFSAII (Michael W. Deem and Ramdas Pophale) SiO2 
 PCOD9308440
Probable space group: C 2/C
;
_chemical_formula_sum "Si O2"
_cell_formula_units_Z 24
_cell_length_a 6.578293
_cell_length_b 7.037065
_cell_length_c 15.942101
_cell_angle_alpha 90.000000
_cell_angle_beta 96.681169
_cell_angle_gamma 90.000000
_cell_volume 732.978022
_symmetry_space_group_name_H-M "C 2/C"
_symmetry_group_IT_number 15
_symmetry_cell_setting 'monoclinic'
loop_
_space_group_symop_operation_xyz
x,y,z
-x,y,1/2-z
-x,-y,-z
x,-y,1/2+z
1/2+x,1/2+y,z
1/2-x,1/2+y,1/2-z
1/2-x,1/2-y,-z
1/2+x,1/2-y,1/2+z
loop_
_atom_site_type_symbol
_atom_site_label
_atom_site_fract_x
_atom_site_fract_y
_atom_site_fract_z
Si Si1 0.000000 0.000000 0.000000
Si Si2 0.284006 0.826625 0.877966
Si Si3 0.285875 0.275482 0.125103
Si Si4 0.500000 0.949824 0.250000
O O1 0.129828 0.166958 0.060301
O O2 0.220470 0.927320 0.961472
O O3 0.481941 0.689097 0.905851
O O4 0.124857 0.714863 0.815843
O O5 0.305495 0.037528 0.832417
O O6 0.365118 0.126171 0.194941
#
# Coordination Sequence:
#
# PCOD9308440 Si02
#       4
#     4   8   8   4
#     4   6  14  18  38  66  92 134 160 218 244 318
#     4   8  13  23  38  63  95 130 168 210 256 306
#     4   8  13  23  38  63  95 130 168 210 256 306
#     4   6  16  22  36  62  88 134 160 214 248 310
#
# _framework density 32.743139999999997
#
# number of rings (size 3 to 8) (size 9 to 14) (size 15 to 20)
#    4.000    0.000    0.000    1.000    0.000    0.000 
#    0.000    0.000    0.000    2.000    0.000   37.333 
#    0.000   42.667    0.000    0.000    0.000   10.667 
#
# Total GULP energy -66971.008336 kJ/mol
# GULP energy per Si atom -5580.917361 kJ/mol
# Density = 3.266862 g / cm^3
# Si number density = 32.743140 Si / 1000 Ang^3
#
#
#
# Elastic Constant Matrix: (Units=GPa)
#
#
# Indices 1 2 3 4 5 6 
#
# 1 141.0373 105.6688 46.4758 0.0000 20.5284 0.0000
# 2 105.6688 338.4011 69.7904 0.0000 25.8876 0.0000
# 3 46.4758 69.7904 216.9197 0.0000 28.0276 0.0000
# 4 0.0000 0.0000 0.0000 92.5263 0.0000 -2.8520
# 5 20.5284 25.8876 28.0276 0.0000 91.4106 0.0000
# 6 0.0000 0.0000 0.0000 -2.8520 0.0000 -25.9103
#
#
#
# Elastic Compliance Matrix: (Units=1/GPa)
#
#
# Indices 1 2 3 4 5 6 
#
# 1 0.009620 -0.002705 -0.001052 0.000000 -0.001072 0.000000
# 2 -0.002705 0.003958 -0.000654 0.000000 -0.000313 0.000000
# 3 -0.001052 -0.000654 0.005197 0.000000 -0.001172 0.000000
# 4 0.000000 0.000000 0.000000 0.010771 0.000000 -0.001186
# 5 -0.001072 -0.000313 -0.001172 0.000000 0.011628 0.000000
# 6 0.000000 0.000000 0.000000 -0.001186 0.000000 -0.038464
#
#
# Mechanical properties :
#
#
# Convention : Reuss Voigt Hill
#
# Bulk Modulus (GPa) = 100.46443 126.69200 113.57822
# Shear Modulus (GPa) = 336.70093 63.23352 199.96723
#
# Velocity S-wave (km/s) = 10.15156 4.39931 7.82330
# Velocity P-wave (km/s) = 12.96745 8.03629 10.78742
#
# Compressibility (1/GPa) = 0.00995377
#
# Stress axis : x y z
#
# Youngs Moduli (GPa) = 103.95469 252.62611 192.41169
#
# Poissons Ratio (x) = 0.68330 0.20248
# Poissons Ratio (y) = 0.28118 0.12576
# Poissons Ratio (z) = 0.10940 0.16511
#
# Static dielectric constant tensor:
#      x y z
#    x 3.669820 0.000000 -1.580190 
#    y 0.000000 2.731260 0.000000 
#    z -1.580190 0.000000 3.943060 
# 
# From -- ./inp_files/187045.got.cif
#   From: 2010.05.17/outbox.cif.g08.bks.cpg/sg15_94_cif.got.tgz:187045.got - 2010.06.03 18:47:42.
