data_PCOD9308284
_publ_section_title
;
Structure prediction by ZEFSAII (Michael W. Deem and Ramdas Pophale) SiO2 
 PCOD9308284
Probable space group: C 2/C
;
_chemical_formula_sum "Si O2"
_cell_formula_units_Z 16
_cell_length_a 9.474746
_cell_length_b 13.886194
_cell_length_c 5.318826
_cell_angle_alpha 90.000000
_cell_angle_beta 52.273978
_cell_angle_gamma 90.000000
_cell_volume 553.494443
_symmetry_space_group_name_H-M "C 2/C"
_symmetry_group_IT_number 15
_symmetry_cell_setting 'monoclinic'
loop_
_space_group_symop_operation_xyz
x,y,z
-x,y,1/2-z
-x,-y,-z
x,-y,1/2+z
1/2+x,1/2+y,z
1/2-x,1/2+y,1/2-z
1/2-x,1/2-y,-z
1/2+x,1/2-y,1/2+z
loop_
_atom_site_type_symbol
_atom_site_label
_atom_site_fract_x
_atom_site_fract_y
_atom_site_fract_z
Si Si1 0.375125 0.091676 0.682656
Si Si2 0.000000 0.118897 0.250000
Si Si3 0.500000 0.747639 0.750000
O O1 0.500000 0.146164 0.750000
O O2 0.351589 0.168112 0.481680
O O3 0.500000 0.000000 0.500000
O O4 0.186109 0.063566 0.007573
O O5 0.012744 0.180368 0.491883
#
# Coordination Sequence:
#
# PCOD9308284 Si02
#       3
#     8   4   4
#     4  12  28  50  81 118 161 202 261 322 387 465
#     4  12  30  49  85 114 156 208 258 320 392 452
#     4  12  26  53  79 122 154 202 264 322 382 468
#
# _framework density 28.907249
#
# number of rings (size 3 to 8) (size 9 to 14) (size 15 to 20)
#    0.000    0.000    5.000    3.000    7.000    2.000 
#    0.000    0.000    0.000    0.000    0.000    0.000 
#    0.000    0.000    0.000    0.000    0.000    0.000 
#
# Total GULP energy -44673.957658 kJ/mol
# GULP energy per Si atom -5584.244707 kJ/mol
# Density = 2.884146 g / cm^3
# Si number density = 28.907249 Si / 1000 Ang^3
#
#
#
# Elastic Constant Matrix: (Units=GPa)
#
#
# Indices 1 2 3 4 5 6 
#
# 1 128.1125 62.3646 98.4339 0.0000 -7.0761 0.0000
# 2 62.3646 155.3058 104.1426 0.0000 5.7094 0.0000
# 3 98.4339 104.1426 285.3197 0.0000 -37.3514 0.0000
# 4 0.0000 0.0000 0.0000 55.8108 0.0000 18.5647
# 5 -7.0761 5.7094 -37.3514 0.0000 105.1691 0.0000
# 6 0.0000 0.0000 0.0000 18.5647 0.0000 33.2530
#
#
#
# Elastic Compliance Matrix: (Units=1/GPa)
#
#
# Indices 1 2 3 4 5 6 
#
# 1 0.011341 -0.002528 -0.003012 0.000000 -0.000169 0.000000
# 2 -0.002528 0.009369 -0.002765 0.000000 -0.001661 0.000000
# 3 -0.003012 -0.002765 0.005817 0.000000 0.002013 0.000000
# 4 0.000000 0.000000 0.000000 0.022004 0.000000 -0.012285
# 5 -0.000169 -0.001661 0.002013 0.000000 0.010302 0.000000
# 6 0.000000 0.000000 0.000000 -0.012285 0.000000 0.036931
#
#
# Mechanical properties :
#
#
# Convention : Reuss Voigt Hill
#
# Bulk Modulus (GPa) = 100.83879 122.06891 111.45385
# Shear Modulus (GPa) = 43.22246 59.09970 51.16108
#
# Velocity S-wave (km/s) = 3.87099 4.52648 4.21151
# Velocity P-wave (km/s) = 7.41207 8.34494 7.89230
#
# Compressibility (1/GPa) = 0.00991682
#
# Stress axis : x y z
#
# Youngs Moduli (GPa) = 88.17347 106.73135 171.91602
#
# Poissons Ratio (x) = 0.26984 0.51782
# Poissons Ratio (y) = 0.22292 0.47535
# Poissons Ratio (z) = 0.26558 0.29511
#
# Static dielectric constant tensor:
#      x y z
#    x 2.928330 0.000000 0.107220 
#    y 0.000000 2.249270 0.000000 
#    z 0.107220 0.000000 2.453980 
# 
# From -- ./inp_files/717.got.cif
#   From: 2010.05.17/outbox.cif.g08.bks.cpg/sg15_1_cif.got.tgz:717.got - 2010.06.03 18:47:42.
