data_PCOD9308519
_publ_section_title
;
Structure prediction by ZEFSAII (Michael W. Deem and Ramdas Pophale) SiO2 
 PCOD9308519
Probable space group: C 2/C
;
_chemical_formula_sum "Si O2"
_cell_formula_units_Z 40
_cell_length_a 21.440639
_cell_length_b 14.357763
_cell_length_c 13.234097
_cell_angle_alpha 90.000000
_cell_angle_beta 19.799381
_cell_angle_gamma 90.000000
_cell_volume 1379.969865
_symmetry_space_group_name_H-M "C 2/C"
_symmetry_group_IT_number 15
_symmetry_cell_setting 'monoclinic'
loop_
_space_group_symop_operation_xyz
x,y,z
-x,y,1/2-z
-x,-y,-z
x,-y,1/2+z
1/2+x,1/2+y,z
1/2-x,1/2+y,1/2-z
1/2-x,1/2-y,-z
1/2+x,1/2-y,1/2+z
loop_
_atom_site_type_symbol
_atom_site_label
_atom_site_fract_x
_atom_site_fract_y
_atom_site_fract_z
Si Si1 0.275252 0.163354 0.081757
Si Si2 0.776539 0.459142 0.077096
Si Si3 0.794327 0.263755 0.050561
Si Si4 0.301192 0.867074 0.310826
Si Si5 0.220390 0.438093 0.669074
O O1 0.500000 0.171670 0.750000
O O2 0.229222 0.154032 0.032410
O O3 0.212033 0.060540 0.214134
O O4 0.198709 0.263540 0.236350
O O5 0.694005 0.358994 0.238592
O O6 0.749731 0.451055 0.996700
O O7 0.000000 0.469557 0.750000
O O8 0.000000 0.295845 0.750000
O O9 0.750000 0.250000 0.000000
O O10 0.798688 0.159736 0.087597
O O11 0.218132 0.959877 0.385933
O O12 0.506963 0.907689 0.008868
#
# Coordination Sequence:
#
# PCOD9308519 Si02
#       5
#     8   8   8   8   8
#     4   9  17  32  50  69  96 134 168 203 258 311
#     4   8  15  30  51  69  96 133 163 197 258 313
#     4   9  17  31  50  75 100 134 168 208 256 309
#     4   9  18  32  49  71 100 132 166 212 257 305
#     4   9  17  31  50  72  99 131 170 209 255 308
#
# _framework density 28.986141
#
# number of rings (size 3 to 8) (size 9 to 14) (size 15 to 20)
#    0.000    3.200    0.000    0.000    0.000    0.800 
#   10.800    1.000    0.000    0.000    0.000    0.000 
#    0.000    0.000    0.000    0.000    0.000    0.000 
#
# Total GULP energy -111502.015507 kJ/mol
# GULP energy per Si atom -5575.100775 kJ/mol
# Density = 2.892017 g / cm^3
# Si number density = 28.986141 Si / 1000 Ang^3
#
#
#
# Elastic Constant Matrix: (Units=GPa)
#
#
# Indices 1 2 3 4 5 6 
#
# 1 113.4272 93.9919 -4.2379 -0.0012 12.3607 -0.0001
# 2 93.9919 476.0313 26.0460 -0.0077 23.6319 0.0014
# 3 -4.2379 26.0460 68.2551 -0.0098 -3.1497 0.0012
# 4 -0.0012 -0.0077 -0.0098 34.7364 0.0028 8.5858
# 5 12.3607 23.6319 -3.1497 0.0028 21.3856 0.0001
# 6 -0.0001 0.0014 0.0012 8.5858 0.0001 80.8200
#
#
#
# Elastic Compliance Matrix: (Units=1/GPa)
#
#
# Indices 1 2 3 4 5 6 
#
# 1 0.010984 -0.002045 0.001283 0.000001 -0.003900 0.000000
# 2 -0.002045 0.002669 -0.001235 0.000000 -0.001949 0.000000
# 3 0.001283 -0.001235 0.015335 0.000004 0.002882 -0.000001
# 4 0.000001 0.000000 0.000004 0.029565 -0.000004 -0.003141
# 5 -0.003900 -0.001949 0.002882 -0.000004 0.051593 0.000000
# 6 0.000000 0.000000 -0.000001 -0.003141 0.000000 0.012707
#
#
# Mechanical properties :
#
#
# Convention : Reuss Voigt Hill
#
# Bulk Modulus (GPa) = 40.01362 98.81260 69.41311
# Shear Modulus (GPa) = 36.98805 63.51598 50.25201
#
# Velocity S-wave (km/s) = 3.57607 4.68616 4.16824
# Velocity P-wave (km/s) = 5.55747 7.96516 6.86765
#
# Compressibility (1/GPa) = 0.02499149
#
# Stress axis : x y z
#
# Youngs Moduli (GPa) = 91.04150 374.68525 65.21036
#
# Poissons Ratio (x) = 0.76637 -0.08364
# Poissons Ratio (y) = 0.18621 0.08056
# Poissons Ratio (z) = -0.11676 0.46288
#
# Static dielectric constant tensor:
#      x y z
#    x 2.376870 0.000010 0.360880 
#    y 0.000010 2.470780 0.000020 
#    z 0.360880 0.000020 3.525850 
# 
# From -- ./inp_files/126588.got.cif
#   From: 2010.05.17/outbox.cif.g08.bks.cpg/sg15_64_cif.got.tgz:126588.got - 2010.06.03 18:47:42.
