data_PCOD9308789
_publ_section_title
;
Structure prediction by ZEFSAII (Michael W. Deem and Ramdas Pophale) SiO2 
 PCOD9308789
Probable space group: C 2/C
;
_chemical_formula_sum "Si O2"
_cell_formula_units_Z 24
_cell_length_a 30.000000
_cell_length_b 6.000000
_cell_length_c 21.000000
_cell_angle_alpha 90.000000
_cell_angle_beta 40.000000
_cell_angle_gamma 90.000000
_cell_volume 2429.737165
_symmetry_space_group_name_H-M "C 2/C"
_symmetry_group_IT_number 15
_symmetry_cell_setting 'monoclinic'
loop_
_space_group_symop_operation_xyz
x,y,z
-x,y,1/2-z
-x,-y,-z
x,-y,1/2+z
1/2+x,1/2+y,z
1/2-x,1/2+y,1/2-z
1/2-x,1/2-y,-z
1/2+x,1/2-y,1/2+z
loop_
_atom_site_type_symbol
_atom_site_label
_atom_site_fract_x
_atom_site_fract_y
_atom_site_fract_z
Si Si1 0.420199 0.143178 0.452534
Si Si2 0.553010 0.417967 0.357565
Si Si3 0.423266 0.814355 0.335621
Si Si4 0.682980 0.432891 0.003890
Si Si5 0.533805 0.806324 0.005362
Si Si6 0.841607 0.639340 0.342320
O O1 0.485934 0.285736 0.403719
O O2 0.355061 0.302724 0.511935
O O3 0.436339 0.020520 0.368821
O O4 0.412341 0.936186 0.509380
O O5 0.524707 0.672427 0.390465
O O6 0.564855 0.360936 0.419202
O O7 0.617574 0.314586 0.247930
O O8 0.500000 0.700035 0.250000
O O9 0.363336 0.651923 0.429273
O O10 0.391103 0.931487 0.307942
O O11 0.673665 0.277298 0.076435
O O12 0.765988 0.451288 0.902412
O O13 0.500000 0.000000 0.000000
#
# Coordination Sequence:
#
# PCOD9308789 Si02
#       6
#     8   8   8   8   8   8
#     4  10  20  36  55  86 116 154 202 253 306 373
#     4  10  19  36  62  83 117 155 209 257 306 366
#     4  11  21  34  60  91 119 160 211 256 305 380
#     4  10  23  35  57  85 130 158 198 256 325 377
#     4   9  20  35  58  88 112 151 206 260 303 360
#     4  10  22  39  55  89 123 163 201 255 318 386
#
# _framework density 9.8776119999999992
#
# number of rings (size 3 to 8) (size 9 to 14) (size 15 to 20)
#    0.000    2.000    1.667    1.500    4.667    0.000 
#    0.000    0.000   14.667    0.000    0.000    0.000 
#    0.000    0.000    0.000    0.000    0.000    0.000 
#
# Total GULP energy -133729.997647 kJ/mol
# GULP energy per Si atom -5572.083235 kJ/mol
# Density = 0.985513 g / cm^3
# Si number density = 9.877612 Si / 1000 Ang^3
#
#
#
# Elastic Constant Matrix: (Units=GPa)
#
#
# Indices 1 2 3 4 5 6 
#
# 1 102.1497 35.7610 59.6193 0.0926 -18.8463 -0.0344
# 2 35.7610 98.2344 33.4287 0.1191 -8.4122 -0.0173
# 3 59.6193 33.4287 95.2321 0.0088 -20.9070 -0.0207
# 4 0.0926 0.1191 0.0088 35.1299 -0.0102 8.9195
# 5 -18.8463 -8.4122 -20.9070 -0.0102 35.1811 0.0213
# 6 -0.0344 -0.0173 -0.0207 8.9195 0.0213 30.7120
#
#
#
# Elastic Compliance Matrix: (Units=1/GPa)
#
#
# Indices 1 2 3 4 5 6 
#
# 1 0.016322 -0.002762 -0.008596 -0.000036 0.002975 0.000019
# 2 -0.002762 0.012033 -0.002516 -0.000036 -0.000098 0.000013
# 3 -0.008596 -0.002516 0.017966 0.000031 0.005470 -0.000012
# 4 -0.000036 -0.000036 0.000031 0.030732 0.000005 -0.008925
# 5 0.002975 -0.000098 0.005470 0.000005 0.033246 -0.000018
# 6 0.000019 0.000013 -0.000012 -0.008925 -0.000018 0.035153
#
#
# Mechanical properties :
#
#
# Convention : Reuss Voigt Hill
#
# Bulk Modulus (GPa) = 53.83973 61.47049 57.65511
# Shear Modulus (GPa) = 27.87201 31.32507 29.59854
#
# Velocity S-wave (km/s) = 3.76023 3.98635 3.87494
# Velocity P-wave (km/s) = 6.79448 7.23683 7.01914
#
# Compressibility (1/GPa) = 0.01857364
#
# Stress axis : x y z
#
# Youngs Moduli (GPa) = 61.26580 83.10374 55.66018
#
# Poissons Ratio (x) = 0.22953 0.47844
# Poissons Ratio (y) = 0.16922 0.14005
# Poissons Ratio (z) = 0.52663 0.20911
#
# Static dielectric constant tensor:
#      x y z
#    x 1.740410 -0.000140 0.034430 
#    y -0.000140 1.749180 -0.000030 
#    z 0.034430 -0.000030 1.722210 
# 
# From -- ./inp_files/221006.got.cif
#   From: 2010.05.17/outbox.ucp.g08.bks.cvg/sg15_111_cif.got.tgz:221006.got - 2010.06.11 12:40:34.
