data_PCOD9308920
_publ_section_title
;
Structure prediction by ZEFSAII (Michael W. Deem and Ramdas Pophale) SiO2 
 PCOD9308920
Probable space group: C 2/C
;
_chemical_formula_sum "Si O2"
_cell_formula_units_Z 30
_cell_length_a 18.000000
_cell_length_b 24.000000
_cell_length_c 15.000000
_cell_angle_alpha 90.000000
_cell_angle_beta 30.000000
_cell_angle_gamma 90.000000
_cell_volume 3240.000000
_symmetry_space_group_name_H-M "C 2/C"
_symmetry_group_IT_number 15
_symmetry_cell_setting 'monoclinic'
loop_
_space_group_symop_operation_xyz
x,y,z
-x,y,1/2-z
-x,-y,-z
x,-y,1/2+z
1/2+x,1/2+y,z
1/2-x,1/2+y,1/2-z
1/2-x,1/2-y,-z
1/2+x,1/2-y,1/2+z
loop_
_atom_site_type_symbol
_atom_site_label
_atom_site_fract_x
_atom_site_fract_y
_atom_site_fract_z
Si Si1 0.220955 0.003573 0.266409
Si Si2 0.991186 0.195150 0.437585
Si Si3 0.966673 0.422267 0.420650
Si Si4 0.354769 0.811740 0.251592
Si Si5 0.486156 0.409912 0.068135
Si Si6 0.236169 0.034319 0.953253
Si Si7 0.775001 0.855943 0.944106
Si Si8 0.500000 0.448985 0.250000
O O1 0.168184 0.945436 0.277050
O O2 0.214447 0.986849 0.376288
O O3 0.096172 0.052079 0.392519
O O4 0.373968 0.032677 0.075465
O O5 0.049842 0.259066 0.381667
O O6 0.094684 0.171309 0.249177
O O7 0.814862 0.195278 0.603792
O O8 0.001997 0.151550 0.509391
O O9 0.838781 0.388549 0.501852
O O10 0.066860 0.370922 0.356763
O O11 0.086598 0.455117 0.235358
O O12 0.325900 0.815541 0.389118
O O13 0.521887 0.413789 0.136601
O O14 0.171238 0.094933 0.045053
O O15 0.144743 0.990013 0.107390
#
# Coordination Sequence:
#
# PCOD9308920 Si02
#       8
#     8   8   8   8   8   8   8   4
#     4  10  20  36  57  87 121 159 199 235 292 349
#     4  12  24  41  59  85 117 157 199 239 294 355
#     4  11  21  38  57  86 127 162 195 238 286 345
#     4  11  25  37  59  87 114 160 195 239 291 345
#     4  10  21  37  61  84 116 158 194 247 295 347
#     4  10  21  31  55  86 121 162 190 239 286 345
#     4  11  22  36  56  84 128 155 196 236 286 349
#     4  10  22  36  56  88 118 150 202 242 300 356
#
# _framework density 9.2592590000000001
#
# number of rings (size 3 to 8) (size 9 to 14) (size 15 to 20)
#    0.000    1.333    1.333    6.000    7.467    1.067 
#    0.000    0.000    0.000    0.800    0.000    0.000 
#    0.000    0.000    0.000    0.000    0.000    0.000 
#
# Total GULP energy -167052.726570 kJ/mol
# GULP energy per Si atom -5568.424219 kJ/mol
# Density = 0.923818 g / cm^3
# Si number density = 9.259259 Si / 1000 Ang^3
#
#
#
# Elastic Constant Matrix: (Units=GPa)
#
#
# Indices 1 2 3 4 5 6 
#
# 1 46.5205 39.5487 25.3475 -0.0104 -3.4954 0.0056
# 2 39.5487 104.1554 47.5593 -0.0013 3.6106 0.0036
# 3 25.3475 47.5593 124.0914 -0.0129 -6.7849 0.0107
# 4 -0.0104 -0.0013 -0.0129 51.1170 0.0120 3.8293
# 5 -3.4954 3.6106 -6.7849 0.0120 32.4958 -0.0089
# 6 0.0056 0.0036 0.0107 3.8293 -0.0089 24.2183
#
#
#
# Elastic Compliance Matrix: (Units=1/GPa)
#
#
# Indices 1 2 3 4 5 6 
#
# 1 0.032884 -0.011737 -0.001976 0.000005 0.004429 -0.000004
# 2 -0.011737 0.015992 -0.003943 -0.000002 -0.003863 0.000001
# 3 -0.001976 -0.003943 0.010101 0.000002 0.002335 -0.000003
# 4 0.000005 -0.000002 0.000002 0.019797 -0.000007 -0.003130
# 5 0.004429 -0.003863 0.002335 -0.000007 0.032166 0.000011
# 6 -0.000004 0.000001 -0.000003 -0.003130 0.000011 0.041786
#
#
# Mechanical properties :
#
#
# Convention : Reuss Voigt Hill
#
# Bulk Modulus (GPa) = 42.25854 55.51983 48.88918
# Shear Modulus (GPa) = 25.51964 32.38701 28.95332
#
# Velocity S-wave (km/s) = 3.71625 4.18652 3.95838
# Velocity P-wave (km/s) = 6.42520 7.30856 6.88107
#
# Compressibility (1/GPa) = 0.02366386
#
# Stress axis : x y z
#
# Youngs Moduli (GPa) = 30.41009 62.53108 98.99963
#
# Poissons Ratio (x) = 0.73395 0.19567
# Poissons Ratio (y) = 0.35693 0.39033
# Poissons Ratio (z) = 0.06010 0.24655
#
# Static dielectric constant tensor:
#      x y z
#    x 1.754420 -0.000010 -0.045700 
#    y -0.000010 1.664430 0.000010 
#    z -0.045700 0.000010 1.656490 
# 
# From -- ./inp_files/164099.got.cif
#   From: 2010.05.17/outbox.ucp.g08.bks.cvg/sg15_83_cif.got.tgz:164099.got - 2010.06.11 12:40:34.
