data_PCOD9308140
_publ_section_title
;
Structure prediction by ZEFSAII (Michael W. Deem and Ramdas Pophale) SiO2 
 PCOD9308140
Probable space group: C 2/C
;
_chemical_formula_sum "Si O2"
_cell_formula_units_Z 32
_cell_length_a 15.864560
_cell_length_b 9.851316
_cell_length_c 14.677287
_cell_angle_alpha 90.000000
_cell_angle_beta 148.314727
_cell_angle_gamma 90.000000
_cell_volume 1204.859940
_symmetry_space_group_name_H-M "C 2/C"
_symmetry_group_IT_number 15
_symmetry_cell_setting 'monoclinic'
loop_
_space_group_symop_operation_xyz
x,y,z
-x,y,1/2-z
-x,-y,-z
x,-y,1/2+z
1/2+x,1/2+y,z
1/2-x,1/2+y,1/2-z
1/2-x,1/2-y,-z
1/2+x,1/2-y,1/2+z
loop_
_atom_site_type_symbol
_atom_site_label
_atom_site_fract_x
_atom_site_fract_y
_atom_site_fract_z
Si Si1 0.161165 0.404129 0.581080
Si Si2 0.134481 0.662396 0.795074
Si Si3 0.863933 0.063070 0.438741
Si Si4 0.615297 0.178879 0.435487
O O1 0.277715 0.306096 0.630802
O O2 0.221906 0.391184 0.739813
O O3 0.169797 0.555699 0.548903
O O4 0.978367 0.357816 0.397699
O O5 0.275682 0.549005 0.921269
O O6 0.000000 0.659675 0.750000
O O7 0.942522 0.191083 0.560817
O O8 0.000000 0.000000 0.500000
O O9 0.500000 0.125015 0.250000
O O10 0.750000 0.250000 0.500000
#
# Coordination Sequence:
#
# PCOD9308140 Si02
#       4
#     8   8   8   8
#     4  12  26  47  76 112 154 207 265 327 392 469
#     4  12  27  48  75 112 156 207 264 327 392 472
#     4  12  27  50  80 116 156 208 267 330 404 481
#     4  12  27  49  76 112 155 202 255 324 398 470
#
# _framework density 26.559103
#
# number of rings (size 3 to 8) (size 9 to 14) (size 15 to 20)
#    0.000    0.000    0.000    9.750    0.000    7.000 
#    0.000    1.250    0.000    0.000    0.000    0.000 
#    0.000    0.000    0.000    0.000    0.000    0.000 
#
# Total GULP energy -89774.471631 kJ/mol
# GULP energy per Si atom -5610.904477 kJ/mol
# Density = 2.649865 g / cm^3
# Si number density = 26.559103 Si / 1000 Ang^3
#
#
#
# Elastic Constant Matrix: (Units=GPa)
#
#
# Indices 1 2 3 4 5 6 
#
# 1 152.8083 94.1215 2.1565 0.0000 17.1434 0.0000
# 2 94.1215 202.4734 22.3254 0.0000 15.7889 0.0000
# 3 2.1565 22.3254 92.1165 0.0000 0.5004 0.0000
# 4 0.0000 0.0000 0.0000 48.4353 0.0000 7.8921
# 5 17.1434 15.7889 0.5004 0.0000 53.6744 0.0000
# 6 0.0000 0.0000 0.0000 7.8921 0.0000 52.8976
#
#
#
# Elastic Compliance Matrix: (Units=1/GPa)
#
#
# Indices 1 2 3 4 5 6 
#
# 1 0.009389 -0.004321 0.000837 0.000000 -0.001735 0.000000
# 2 -0.004321 0.007184 -0.001636 0.000000 -0.000718 0.000000
# 3 0.000837 -0.001636 0.011232 0.000000 0.000109 0.000000
# 4 0.000000 0.000000 0.000000 0.021160 0.000000 -0.003157
# 5 -0.001735 -0.000718 0.000109 0.000000 0.019395 0.000000
# 6 0.000000 0.000000 0.000000 -0.003157 0.000000 0.019375
#
#
# Mechanical properties :
#
#
# Convention : Reuss Voigt Hill
#
# Bulk Modulus (GPa) = 56.93461 76.06721 66.50091
# Shear Modulus (GPa) = 48.15469 52.92112 50.53790
#
# Velocity S-wave (km/s) = 4.26269 4.46867 4.36690
# Velocity P-wave (km/s) = 6.76098 7.43830 7.10771
#
# Compressibility (1/GPa) = 0.01756401
#
# Stress axis : x y z
#
# Youngs Moduli (GPa) = 106.51011 139.19538 89.03014
#
# Poissons Ratio (x) = 0.60152 -0.07452
# Poissons Ratio (y) = 0.46028 0.14566
# Poissons Ratio (z) = -0.08915 0.22774
#
# Static dielectric constant tensor:
#      x y z
#    x 2.114860 0.000000 -0.025020 
#    y 0.000000 2.087890 0.000000 
#    z -0.025020 0.000000 2.103390 
# 
# From -- ./inp_files/152345.got.cif
#   From: 2010.05.17/outbox.cif.g08.bks.cpg/sg15_77_cif.got.tgz:152345.got - 2010.06.03 18:47:42.
