data_PCOD9308643
_publ_section_title
;
Structure prediction by ZEFSAII (Michael W. Deem and Ramdas Pophale) SiO2 
 PCOD9308643
Probable space group: C 2/C
;
_chemical_formula_sum "Si O2"
_cell_formula_units_Z 28
_cell_length_a 12.000000
_cell_length_b 27.000000
_cell_length_c 12.000000
_cell_angle_alpha 90.000000
_cell_angle_beta 130.000000
_cell_angle_gamma 90.000000
_cell_volume 2978.380795
_symmetry_space_group_name_H-M "C 2/C"
_symmetry_group_IT_number 15
_symmetry_cell_setting 'monoclinic'
loop_
_space_group_symop_operation_xyz
x,y,z
-x,y,1/2-z
-x,-y,-z
x,-y,1/2+z
1/2+x,1/2+y,z
1/2-x,1/2+y,1/2-z
1/2-x,1/2-y,-z
1/2+x,1/2-y,1/2+z
loop_
_atom_site_type_symbol
_atom_site_label
_atom_site_fract_x
_atom_site_fract_y
_atom_site_fract_z
Si Si1 0.166123 0.416566 0.327862
Si Si2 0.106662 0.660595 0.133974
Si Si3 0.668180 0.746282 0.826307
Si Si4 0.033497 0.560775 0.399414
Si Si5 0.409823 0.806773 0.308781
Si Si6 0.273115 0.005267 0.822507
Si Si7 0.339448 0.590707 0.171527
O O1 0.151188 0.361241 0.265987
O O2 0.232979 0.456029 0.283587
O O3 0.253096 0.414798 0.499344
O O4 0.000000 0.431926 0.250000
O O5 0.140338 0.699995 0.251693
O O6 0.248783 0.629212 0.188909
O O7 0.988222 0.618927 0.092444
O O8 0.038325 0.687179 0.982017
O O9 0.500000 0.727372 0.750000
O O10 0.776533 0.719686 0.799171
O O11 0.750000 0.750000 0.000000
O O12 0.182876 0.538060 0.541647
O O13 0.000000 0.551425 0.250000
O O14 0.907782 0.532072 0.385700
O O15 0.500000 0.789088 0.250000
O O16 0.150298 0.964339 0.766614
O O17 0.500000 0.609759 0.250000
#
# Coordination Sequence:
#
# PCOD9308643 Si02
#       7
#     8   8   8   8   8   8   8
#     4  11  19  39  66  91 130 175 239 287 331 416
#     4  11  22  43  68  94 134 180 234 284 347 428
#     4  12  27  47  71 103 143 178 229 303 366 420
#     4  10  18  30  60  93 117 162 224 270 323 403
#     4  11  23  44  74 102 129 187 239 291 342 421
#     4  10  19  33  57  90 125 172 216 274 337 396
#     4  11  24  39  60  98 142 177 224 296 352 407
#
# _framework density 9.4010809999999996
#
# number of rings (size 3 to 8) (size 9 to 14) (size 15 to 20)
#    0.000    1.143    5.714    3.429    0.000    2.857 
#    0.000    0.714    0.000    0.000    0.000    0.000 
#    0.000    0.000    0.000    0.000    0.000    0.000 
#
# Total GULP energy -155921.809727 kJ/mol
# GULP energy per Si atom -5568.636062 kJ/mol
# Density = 0.937968 g / cm^3
# Si number density = 9.401081 Si / 1000 Ang^3
#
#
#
# Elastic Constant Matrix: (Units=GPa)
#
#
# Indices 1 2 3 4 5 6 
#
# 1 109.8389 35.2880 24.2597 0.0000 -2.0954 0.0000
# 2 35.2880 91.8562 22.3878 0.0000 -13.9277 0.0000
# 3 24.2597 22.3878 96.4928 0.0000 -21.4702 0.0000
# 4 0.0000 0.0000 0.0000 61.9315 0.0000 3.9621
# 5 -2.0954 -13.9277 -21.4702 0.0000 39.9770 0.0000
# 6 0.0000 0.0000 0.0000 3.9621 0.0000 49.2621
#
#
#
# Elastic Compliance Matrix: (Units=1/GPa)
#
#
# Indices 1 2 3 4 5 6 
#
# 1 0.010822 -0.003911 -0.002260 0.000000 -0.002009 0.000000
# 2 -0.003911 0.013264 -0.001262 0.000000 0.003738 0.000000
# 3 -0.002260 -0.001262 0.012607 0.000000 0.006212 0.000000
# 4 0.000000 0.000000 0.000000 0.016230 0.000000 -0.001305
# 5 -0.002009 0.003738 0.006212 0.000000 0.029548 0.000000
# 6 0.000000 0.000000 0.000000 -0.001305 0.000000 0.020405
#
#
# Mechanical properties :
#
#
# Convention : Reuss Voigt Hill
#
# Bulk Modulus (GPa) = 45.81989 51.33988 48.57988
# Shear Modulus (GPa) = 39.99445 44.65094 42.32269
#
# Velocity S-wave (km/s) = 4.61707 4.87845 4.74956
# Velocity P-wave (km/s) = 7.26949 7.68746 7.48140
#
# Compressibility (1/GPa) = 0.02182459
#
# Stress axis : x y z
#
# Youngs Moduli (GPa) = 92.40725 75.39483 79.32127
#
# Poissons Ratio (x) = 0.29487 0.17930
# Poissons Ratio (y) = 0.36141 0.10013
# Poissons Ratio (z) = 0.20888 0.09517
#
# Static dielectric constant tensor:
#      x y z
#    x 1.723220 0.000000 -0.013960 
#    y 0.000000 1.690250 0.000000 
#    z -0.013960 0.000000 1.653420 
# 
# From -- ./inp_files/92104.got.cif
#   From: 2010.05.17/outbox.ucp.g08.bks.cvg/sg15_47_cif.got.tgz:92104.got - 2010.06.11 12:40:34.
