data_PCOD9308145
_publ_section_title
;
Structure prediction by ZEFSAII (Michael W. Deem and Ramdas Pophale) SiO2 
 PCOD9308145
Probable space group: C 2/C
;
_chemical_formula_sum "Si O2"
_cell_formula_units_Z 56
_cell_length_a 5.391416
_cell_length_b 24.923066
_cell_length_c 19.021450
_cell_angle_alpha 90.000000
_cell_angle_beta 62.790144
_cell_angle_gamma 90.000000
_cell_volume 2273.079621
_symmetry_space_group_name_H-M "C 2/C"
_symmetry_group_IT_number 15
_symmetry_cell_setting 'monoclinic'
loop_
_space_group_symop_operation_xyz
x,y,z
-x,y,1/2-z
-x,-y,-z
x,-y,1/2+z
1/2+x,1/2+y,z
1/2-x,1/2+y,1/2-z
1/2-x,1/2-y,-z
1/2+x,1/2-y,1/2+z
loop_
_atom_site_type_symbol
_atom_site_label
_atom_site_fract_x
_atom_site_fract_y
_atom_site_fract_z
Si Si1 0.872628 0.545163 0.965855
Si Si2 0.289718 0.668552 0.670311
Si Si3 0.000000 0.245268 0.750000
Si Si4 0.020989 0.123467 0.391628
Si Si5 0.571272 0.568610 0.662453
Si Si6 0.732532 0.018309 0.163488
Si Si7 0.000000 0.819320 0.750000
Si Si8 0.508587 0.716142 0.996388
O O1 0.124593 0.580755 0.903297
O O2 0.769730 0.510486 0.912029
O O3 0.000000 0.500000 0.000000
O O4 0.678477 0.584428 0.036226
O O5 0.526502 0.702086 0.682919
O O6 0.356269 0.606146 0.650530
O O7 0.318780 0.691410 0.590028
O O8 0.000000 0.674319 0.750000
O O9 0.250269 0.282900 0.748030
O O10 0.094816 0.172511 0.433224
O O11 0.911502 0.145522 0.330238
O O12 0.269756 0.081968 0.342957
O O13 0.500000 0.583894 0.750000
O O14 0.513884 0.505657 0.661149
O O15 0.500000 0.000618 0.250000
O O16 0.750000 0.750000 0.000000
O O17 0.250000 0.750000 0.000000
#
# Coordination Sequence:
#
# PCOD9308145 Si02
#       8
#     8   8   4   8   8   8   4   8
#     4  12  28  48  80 115 165 210 267 337 413 509
#     4  12  28  49  83 118 163 213 278 341 422 493
#     4  12  26  54  81 116 157 216 284 346 412 486
#     4  12  30  51  81 120 161 222 275 343 424 495
#     4  12  26  47  77 116 159 209 264 330 408 502
#     4  12  27  50  77 115 165 210 270 332 418 506
#     4  12  30  54  81 118 163 220 282 348 418 500
#     4  12  31  56  83 120 164 216 282 353 415 490
#
# _framework density 24.636182999999999
#
# number of rings (size 3 to 8) (size 9 to 14) (size 15 to 20)
#    0.000    0.000    4.286    3.429   12.000    0.000 
#    0.000    0.000    0.000    0.000    0.000    0.000 
#    0.000    0.000    0.000    0.000    0.000    0.000 
#
# Total GULP energy -156484.499211 kJ/mol
# GULP energy per Si atom -5588.732115 kJ/mol
# Density = 2.458011 g / cm^3
# Si number density = 24.636183 Si / 1000 Ang^3
#
#
#
# Elastic Constant Matrix: (Units=GPa)
#
#
# Indices 1 2 3 4 5 6 
#
# 1 103.1918 55.5299 41.2742 0.0000 7.1109 0.0000
# 2 55.5299 149.6317 50.5125 0.0000 19.0518 0.0000
# 3 41.2742 50.5125 149.9693 0.0000 6.6413 0.0000
# 4 0.0000 0.0000 0.0000 -715.3542 0.0000 169.9443
# 5 7.1109 19.0518 6.6413 0.0000 51.6652 0.0000
# 6 0.0000 0.0000 0.0000 169.9443 0.0000 -13.2658
#
#
#
# Elastic Compliance Matrix: (Units=1/GPa)
#
#
# Indices 1 2 3 4 5 6 
#
# 1 0.012696 -0.003985 -0.002152 0.000000 -0.000001 0.000000
# 2 -0.003985 0.009118 -0.001860 0.000000 -0.002575 0.000000
# 3 -0.002152 -0.001860 0.007888 0.000000 -0.000032 0.000000
# 4 0.000000 0.000000 0.000000 0.000684 0.000000 0.008764
# 5 -0.000001 -0.002575 -0.000032 0.000000 0.020309 0.000000
# 6 0.000000 0.000000 0.000000 0.008764 0.000000 0.036891
#
#
# Mechanical properties :
#
#
# Convention : Reuss Voigt Hill
#
# Bulk Modulus (GPa) = 72.95201 77.49177 75.22189
# Shear Modulus (GPa) = 46.23249 -118.35923 -36.06337
#
# Velocity S-wave (km/s) = 4.33668 -6.93881 -3.83016
# Velocity P-wave (km/s) = 7.39945 5.71607 3.32253
#
# Compressibility (1/GPa) = 0.01370764
#
# Stress axis : x y z
#
# Youngs Moduli (GPa) = 78.76561 109.67612 126.77097
#
# Poissons Ratio (x) = 0.43706 0.27279
# Poissons Ratio (y) = 0.31388 0.23583
# Poissons Ratio (z) = 0.16949 0.20403
#
# Static dielectric constant tensor:
#      x y z
#    x 1.986390 0.000000 0.065670 
#    y 0.000000 2.004660 0.000000 
#    z 0.065670 0.000000 1.729150 
# 
# From -- ./inp_files/186161.got.cif
#   From: 2010.05.17/outbox.cif.g08.bks.cpg/sg15_94_cif.got.tgz:186161.got - 2010.06.03 18:47:42.
