data_PCOD9308577
_publ_section_title
;
Structure prediction by ZEFSAII (Michael W. Deem and Ramdas Pophale) SiO2 
 PCOD9308577
Probable space group: C 2/C
;
_chemical_formula_sum "Si O2"
_cell_formula_units_Z 32
_cell_length_a 13.969416
_cell_length_b 10.746580
_cell_length_c 14.944205
_cell_angle_alpha 90.000000
_cell_angle_beta 144.992772
_cell_angle_gamma 90.000000
_cell_volume 1287.036543
_symmetry_space_group_name_H-M "C 2/C"
_symmetry_group_IT_number 15
_symmetry_cell_setting 'monoclinic'
loop_
_space_group_symop_operation_xyz
x,y,z
-x,y,1/2-z
-x,-y,-z
x,-y,1/2+z
1/2+x,1/2+y,z
1/2-x,1/2+y,1/2-z
1/2-x,1/2-y,-z
1/2+x,1/2-y,1/2+z
loop_
_atom_site_type_symbol
_atom_site_label
_atom_site_fract_x
_atom_site_fract_y
_atom_site_fract_z
Si Si1 0.470413 0.199795 0.123277
Si Si2 0.661611 0.068780 0.932767
Si Si3 0.170530 0.582213 0.132331
Si Si4 0.976502 0.972903 0.123733
O O1 0.500000 0.221289 0.250000
O O2 0.630274 0.169426 0.185132
O O3 0.417724 0.335591 0.049591
O O4 0.358179 0.075012 0.044178
O O5 0.500000 0.097018 0.750000
O O6 0.679207 0.141961 0.039369
O O7 0.822946 0.066238 0.993767
O O8 0.345211 0.511046 0.279605
O O9 0.000000 0.500000 0.000000
O O10 0.000000 0.978852 0.250000
#
# Coordination Sequence:
#
# PCOD9308577 Si02
#       4
#     8   8   8   8
#     4   9  17  31  52  79 107 136 172 218 263 310
#     4   9  17  30  51  80 106 133 172 220 264 309
#     4   9  18  32  51  79 108 137 173 218 264 312
#     4   9  17  31  54  80 105 134 174 220 265 311
#
# _framework density 24.863319000000001
#
# number of rings (size 3 to 8) (size 9 to 14) (size 15 to 20)
#    0.000    3.000    0.000    0.750    0.000    6.000 
#    0.000   11.250    0.000   10.500    0.000   40.250 
#    0.000    0.000    0.000    0.000    0.000    0.000 
#
# Total GULP energy -89144.962872 kJ/mol
# GULP energy per Si atom -5571.560179 kJ/mol
# Density = 2.480673 g / cm^3
# Si number density = 24.863319 Si / 1000 Ang^3
#
#
#
# Elastic Constant Matrix: (Units=GPa)
#
#
# Indices 1 2 3 4 5 6 
#
# 1 148.9622 33.2038 42.6384 0.0000 16.8041 0.0000
# 2 33.2038 75.3803 14.6529 0.0000 2.4266 0.0000
# 3 42.6384 14.6529 117.5866 0.0000 11.0924 -0.0001
# 4 0.0000 0.0000 0.0000 1.4558 0.0000 -5.1404
# 5 16.8041 2.4266 11.0924 0.0000 36.6400 0.0000
# 6 0.0000 0.0000 -0.0001 -5.1404 0.0000 -17.1551
#
#
#
# Elastic Compliance Matrix: (Units=1/GPa)
#
#
# Indices 1 2 3 4 5 6 
#
# 1 0.008431 -0.003155 -0.002387 0.000000 -0.002935 0.000000
# 2 -0.003155 0.014782 -0.000764 0.000000 0.000699 0.000000
# 3 -0.002387 -0.000764 0.009632 0.000000 -0.001771 0.000000
# 4 0.000000 0.000000 0.000000 0.333767 0.000000 -0.100010
# 5 -0.002935 0.000699 -0.001771 0.000000 0.029128 0.000000
# 6 0.000000 0.000000 0.000000 -0.100010 0.000000 -0.028324
#
#
# Mechanical properties :
#
#
# Convention : Reuss Voigt Hill
#
# Bulk Modulus (GPa) = 49.42520 58.10215 53.76367
# Shear Modulus (GPa) = 12.92751 20.95041 16.93896
#
# Velocity S-wave (km/s) = 2.28270 2.90595 2.61297
# Velocity P-wave (km/s) = 5.18358 5.88886 5.54744
#
# Compressibility (1/GPa) = 0.02023259
#
# Stress axis : x y z
#
# Youngs Moduli (GPa) = 118.61358 67.65066 103.81876
#
# Poissons Ratio (x) = 0.21345 0.24782
# Poissons Ratio (y) = 0.37424 0.07931
# Poissons Ratio (z) = 0.28314 0.05168
#
# Static dielectric constant tensor:
#      x y z
#    x 2.025300 0.000000 -0.005450 
#    y 0.000000 2.080590 0.000000 
#    z -0.005450 0.000000 2.017300 
# 
# From -- ./inp_files/36564.got.cif
#   From: 2010.05.17/outbox.cif.g08.bks.cpg/sg15_19_cif.got.tgz:36564.got - 2010.06.03 18:47:42.
