data_PCOD9308118
_publ_section_title
;
Structure prediction by ZEFSAII (Michael W. Deem and Ramdas Pophale) SiO2 
 PCOD9308118
Probable space group: C 2/C
;
_chemical_formula_sum "Si O2"
_cell_formula_units_Z 36
_cell_length_a 12.069759
_cell_length_b 13.279586
_cell_length_c 12.848539
_cell_angle_alpha 90.000000
_cell_angle_beta 46.835504
_cell_angle_gamma 90.000000
_cell_volume 1502.098039
_symmetry_space_group_name_H-M "C 2/C"
_symmetry_group_IT_number 15
_symmetry_cell_setting 'monoclinic'
loop_
_space_group_symop_operation_xyz
x,y,z
-x,y,1/2-z
-x,-y,-z
x,-y,1/2+z
1/2+x,1/2+y,z
1/2-x,1/2+y,1/2-z
1/2-x,1/2-y,-z
1/2+x,1/2-y,1/2+z
loop_
_atom_site_type_symbol
_atom_site_label
_atom_site_fract_x
_atom_site_fract_y
_atom_site_fract_z
Si Si1 0.749330 0.935864 0.236321
Si Si2 0.373211 0.367768 0.754692
Si Si3 0.656300 0.840441 0.511372
Si Si4 0.500000 0.003254 0.250000
Si Si5 0.587181 0.253474 0.471768
O O1 0.734633 0.887642 0.359891
O O2 0.849855 0.862245 0.102211
O O3 0.815985 0.046964 0.212777
O O4 0.586125 0.944708 0.285532
O O5 0.500000 0.411732 0.750000
O O6 0.459659 0.277900 0.638915
O O7 0.228847 0.319046 0.906554
O O8 0.750000 0.750000 0.500000
O O9 0.624700 0.926561 0.615033
O O10 0.495931 0.797598 0.573002
#
# Coordination Sequence:
#
# PCOD9308118 Si02
#       5
#     8   8   8   4   8
#     4  12  28  47  78 115 154 201 264 315 396 449
#     4  12  28  47  77 111 158 200 260 322 387 459
#     4  12  26  49  79 110 155 207 257 320 388 463
#     4  12  26  46  76 114 154 200 258 328 376 462
#     4  12  26  51  71 116 151 205 257 316 392 460
#
# _framework density 23.966479
#
# number of rings (size 3 to 8) (size 9 to 14) (size 15 to 20)
#    0.000    0.000    4.444    4.667    7.778    0.000 
#    0.000    0.000    0.000    0.000    0.000    0.000 
#    0.000    0.000    0.000    0.000    0.000    0.000 
#
# Total GULP energy -100925.796201 kJ/mol
# GULP energy per Si atom -5606.988678 kJ/mol
# Density = 2.391193 g / cm^3
# Si number density = 23.966479 Si / 1000 Ang^3
#
#
#
# Elastic Constant Matrix: (Units=GPa)
#
#
# Indices 1 2 3 4 5 6 
#
# 1 126.4683 26.7747 15.2136 0.0000 -12.8755 0.0000
# 2 26.7747 87.3149 15.9163 0.0000 -16.1443 0.0000
# 3 15.2136 15.9163 72.5324 0.0000 -6.6798 0.0000
# 4 0.0000 0.0000 0.0000 287.3512 0.0000 53.2143
# 5 -12.8755 -16.1443 -6.6798 0.0000 37.6851 0.0000
# 6 0.0000 0.0000 0.0000 53.2143 0.0000 60.5266
#
#
#
# Elastic Compliance Matrix: (Units=1/GPa)
#
#
# Indices 1 2 3 4 5 6 
#
# 1 0.008684 -0.002103 -0.001189 0.000000 0.001855 0.000000
# 2 -0.002103 0.013328 -0.002057 0.000000 0.004627 0.000000
# 3 -0.001189 -0.002057 0.014608 0.000000 0.001302 0.000000
# 4 0.000000 0.000000 0.000000 0.004157 0.000000 -0.003655
# 5 0.001855 0.004627 0.001302 0.000000 0.029382 0.000000
# 6 0.000000 0.000000 0.000000 -0.003655 0.000000 0.019735
#
#
# Mechanical properties :
#
#
# Convention : Reuss Voigt Hill
#
# Bulk Modulus (GPa) = 38.57938 44.68054 41.62996
# Shear Modulus (GPa) = 45.77326 92.33997 69.05662
#
# Velocity S-wave (km/s) = 4.37497 6.21389 5.37368
# Velocity P-wave (km/s) = 6.45388 8.37655 7.47727
#
# Compressibility (1/GPa) = 0.02592058
#
# Stress axis : x y z
#
# Youngs Moduli (GPa) = 115.15004 75.02875 68.45693
#
# Poissons Ratio (x) = 0.15780 0.08141
# Poissons Ratio (y) = 0.24218 0.14085
# Poissons Ratio (z) = 0.13693 0.15437
#
# Static dielectric constant tensor:
#      x y z
#    x 1.922590 0.000000 0.000620 
#    y 0.000000 1.877270 0.000000 
#    z 0.000620 0.000000 1.911880 
# 
# From -- ./inp_files/55565.got.cif
#   From: 2010.05.17/outbox.cif.g08.bks.cpg/sg15_28_cif.got.tgz:55565.got - 2010.06.03 18:47:42.
