data_PCOD9308377
_publ_section_title
;
Structure prediction by ZEFSAII (Michael W. Deem and Ramdas Pophale) SiO2 
 PCOD9308377
Probable space group: C 2/C
;
_chemical_formula_sum "Si O2"
_cell_formula_units_Z 44
_cell_length_a 12.416342
_cell_length_b 13.065371
_cell_length_c 19.027169
_cell_angle_alpha 90.000000
_cell_angle_beta 31.473038
_cell_angle_gamma 90.000000
_cell_volume 1611.539723
_symmetry_space_group_name_H-M "C 2/C"
_symmetry_group_IT_number 15
_symmetry_cell_setting 'monoclinic'
loop_
_space_group_symop_operation_xyz
x,y,z
-x,y,1/2-z
-x,-y,-z
x,-y,1/2+z
1/2+x,1/2+y,z
1/2-x,1/2+y,1/2-z
1/2-x,1/2-y,-z
1/2+x,1/2-y,1/2+z
loop_
_atom_site_type_symbol
_atom_site_label
_atom_site_fract_x
_atom_site_fract_y
_atom_site_fract_z
Si Si1 0.579877 0.673794 0.489988
Si Si2 0.519574 0.698774 0.118929
Si Si3 0.377750 0.031330 0.396344
Si Si4 0.238027 0.877130 0.108046
Si Si5 0.000000 0.342741 0.250000
Si Si6 0.197197 0.011382 0.770607
O O1 0.793636 0.619108 0.392867
O O2 0.609770 0.787866 0.502800
O O3 0.427949 0.591835 0.611142
O O4 0.540900 0.699236 0.429875
O O5 0.408028 0.770812 0.240025
O O6 0.436428 0.584720 0.182080
O O7 0.750000 0.750000 0.000000
O O8 0.848007 0.576494 0.872920
O O9 0.254234 0.041250 0.537435
O O10 0.613103 0.030283 0.289902
O O11 0.000000 0.842892 0.250000
O O12 0.291030 0.926992 0.152779
#
# Coordination Sequence:
#
# PCOD9308377 Si02
#       6
#     8   8   8   8   4   8
#     4  12  28  53  88 134 178 243 306 382 459 548
#     4  12  29  51  81 125 178 238 303 375 463 540
#     4  12  27  54  88 132 181 241 306 377 463 550
#     4  12  29  52  90 133 187 240 309 371 459 558
#     4  12  28  48  84 122 178 232 298 378 442 538
#     4  12  28  52  88 132 183 241 303 384 460 543
#
# _framework density 27.303080999999999
#
# number of rings (size 3 to 8) (size 9 to 14) (size 15 to 20)
#    0.000    0.000    1.818    6.000    5.091    2.909 
#    0.000    0.000    0.000    0.000    0.000    0.000 
#    0.000    0.000    0.000    0.000    0.000    0.000 
#
# Total GULP energy -123037.767646 kJ/mol
# GULP energy per Si atom -5592.625802 kJ/mol
# Density = 2.724094 g / cm^3
# Si number density = 27.303081 Si / 1000 Ang^3
#
#
#
# Elastic Constant Matrix: (Units=GPa)
#
#
# Indices 1 2 3 4 5 6 
#
# 1 194.2288 88.0602 57.1902 -0.0016 18.0805 0.0004
# 2 88.0602 209.3171 94.1030 -0.0021 9.8153 0.0012
# 3 57.1902 94.1030 147.7360 -0.0059 32.2052 0.0034
# 4 -0.0016 -0.0021 -0.0059 59.3395 0.0032 5.2472
# 5 18.0805 9.8153 32.2052 0.0032 64.4607 -0.0014
# 6 0.0004 0.0012 0.0034 5.2472 -0.0014 61.5883
#
#
#
# Elastic Compliance Matrix: (Units=1/GPa)
#
#
# Indices 1 2 3 4 5 6 
#
# 1 0.006548 -0.002340 -0.000810 0.000000 -0.001076 0.000000
# 2 -0.002340 0.007622 -0.004308 0.000000 0.001648 0.000000
# 3 -0.000810 -0.004308 0.010811 0.000001 -0.004518 -0.000001
# 4 0.000000 0.000000 0.000001 0.016980 -0.000001 -0.001447
# 5 -0.001076 0.001648 -0.004518 -0.000001 0.017822 0.000001
# 6 0.000000 0.000000 -0.000001 -0.001447 0.000001 0.016360
#
#
# Mechanical properties :
#
#
# Convention : Reuss Voigt Hill
#
# Bulk Modulus (GPa) = 99.35411 114.44319 106.89865
# Shear Modulus (GPa) = 52.95848 57.87294 55.41571
#
# Velocity S-wave (km/s) = 4.40893 4.60896 4.51005
# Velocity P-wave (km/s) = 7.89851 8.38631 8.14606
#
# Compressibility (1/GPa) = 0.01006501
#
# Stress axis : x y z
#
# Youngs Moduli (GPa) = 152.71350 131.20765 92.49659
#
# Poissons Ratio (x) = 0.30708 0.07488
# Poissons Ratio (y) = 0.35742 0.39847
# Poissons Ratio (z) = 0.12363 0.56524
#
# Static dielectric constant tensor:
#      x y z
#    x 2.184280 0.000000 -0.123730 
#    y 0.000000 2.091330 0.000000 
#    z -0.123730 0.000000 2.254570 
# 
# From -- ./inp_files/210521.got.cif
#   From: 2010.05.17/outbox.cif.g08.bks.cpg/sg15_106_cif.got.tgz:210521.got - 2010.06.03 18:47:42.
