data_PCOD9308164
_publ_section_title
;
Structure prediction by ZEFSAII (Michael W. Deem and Ramdas Pophale) SiO2 
 PCOD9308164
Probable space group: C 2/C
;
_chemical_formula_sum "Si O2"
_cell_formula_units_Z 40
_cell_length_a 18.638488
_cell_length_b 8.557564
_cell_length_c 26.723879
_cell_angle_alpha 90.000000
_cell_angle_beta 25.946986
_cell_angle_gamma 90.000000
_cell_volume 1864.993968
_symmetry_space_group_name_H-M "C 2/C"
_symmetry_group_IT_number 15
_symmetry_cell_setting 'monoclinic'
loop_
_space_group_symop_operation_xyz
x,y,z
-x,y,1/2-z
-x,-y,-z
x,-y,1/2+z
1/2+x,1/2+y,z
1/2-x,1/2+y,1/2-z
1/2-x,1/2-y,-z
1/2+x,1/2-y,1/2+z
loop_
_atom_site_type_symbol
_atom_site_label
_atom_site_fract_x
_atom_site_fract_y
_atom_site_fract_z
Si Si1 0.732220 0.068527 0.494972
Si Si2 0.545516 0.145351 0.279603
Si Si3 0.120662 0.079605 0.385927
Si Si4 0.393596 0.507616 0.720106
Si Si5 0.610116 0.880824 0.961460
O O1 0.750000 0.250000 0.500000
O O2 0.674834 0.061088 0.473938
O O3 0.609645 0.949254 0.600401
O O4 0.917380 0.017938 0.386114
O O5 0.500000 0.164196 0.250000
O O6 0.706155 0.050454 0.194852
O O7 0.614099 0.311758 0.257674
O O8 0.020175 0.243506 0.444414
O O9 0.134962 0.010874 0.321201
O O10 0.000000 0.000000 0.500000
O O11 0.275507 0.384229 0.823135
O O12 0.500000 0.000000 0.000000
#
# Coordination Sequence:
#
# PCOD9308164 Si02
#       5
#     8   8   8   8   8
#     4  12  27  48  75 111 151 197 255 319 387 456
#     4  12  28  50  78 113 152 204 258 319 387 466
#     4  12  29  47  76 111 152 202 256 316 385 465
#     4  12  27  49  77 109 152 201 257 319 386 459
#     4  12  26  48  76 111 152 201 255 318 386 459
#
# _framework density 21.447790000000001
#
# number of rings (size 3 to 8) (size 9 to 14) (size 15 to 20)
#    0.000    0.000    4.000    4.800    8.400    0.000 
#    0.000    0.000    0.000    0.000    0.000    0.000 
#    0.000    0.000    0.000    0.000    0.000    0.000 
#
# Total GULP energy -111359.284653 kJ/mol
# GULP energy per Si atom -5567.964233 kJ/mol
# Density = 2.139897 g / cm^3
# Si number density = 21.447790 Si / 1000 Ang^3
#
#
#
# Elastic Constant Matrix: (Units=GPa)
#
#
# Indices 1 2 3 4 5 6 
#
# 1 168.5422 38.5467 73.1095 0.0023 12.1628 -0.0031
# 2 38.5467 33.6188 15.7824 0.0021 16.8069 -0.0019
# 3 73.1095 15.7824 137.0439 0.0007 -12.3589 -0.0006
# 4 0.0023 0.0021 0.0007 31.3217 -0.0002 1.0903
# 5 12.1628 16.8069 -12.3589 -0.0002 65.9144 0.0004
# 6 -0.0031 -0.0019 -0.0006 1.0903 0.0004 29.5564
#
#
#
# Elastic Compliance Matrix: (Units=1/GPa)
#
#
# Indices 1 2 3 4 5 6 
#
# 1 0.009905 -0.009228 -0.004246 0.000000 -0.000271 0.000000
# 2 -0.009228 0.046090 -0.001313 -0.000002 -0.010295 0.000002
# 3 -0.004246 -0.001313 0.009983 0.000000 0.002990 0.000000
# 4 0.000000 -0.000002 0.000000 0.031968 0.000001 -0.001179
# 5 -0.000271 -0.010295 0.002990 0.000001 0.018407 -0.000001
# 6 0.000000 0.000002 0.000000 -0.001179 -0.000001 0.033877
#
#
# Mechanical properties :
#
#
# Convention : Reuss Voigt Hill
#
# Bulk Modulus (GPa) = 27.47030 66.00912 46.73971
# Shear Modulus (GPa) = 26.05003 39.47626 32.76314
#
# Velocity S-wave (km/s) = 3.48886 4.29485 3.91266
# Velocity P-wave (km/s) = 5.39123 7.44565 6.50012
#
# Compressibility (1/GPa) = 0.03640295
#
# Stress axis : x y z
#
# Youngs Moduli (GPa) = 100.95836 21.69680 100.17218
#
# Poissons Ratio (x) = 0.20023 0.42531
# Poissons Ratio (y) = 0.93169 0.13154
# Poissons Ratio (z) = 0.42864 0.02849
#
# Static dielectric constant tensor:
#      x y z
#    x 1.615390 -0.000030 0.074490 
#    y -0.000030 3.040420 0.000020 
#    z 0.074490 0.000020 1.713390 
# 
# From -- ./inp_files/276726.got.cif
#   From: 2010.05.17/outbox.cif.g08.bks.cpg/sg15_139_cif.got.tgz:276726.got - 2010.06.03 18:47:42.
