data_PCOD9308062
_publ_section_title
;
Structure prediction by ZEFSAII (Michael W. Deem and Ramdas Pophale) SiO2 
 PCOD9308062
Probable space group: C 2/C
;
_chemical_formula_sum "Si O2"
_cell_formula_units_Z 32
_cell_length_a 4.910292
_cell_length_b 13.893913
_cell_length_c 21.511067
_cell_angle_alpha 90.000000
_cell_angle_beta 126.024006
_cell_angle_gamma 90.000000
_cell_volume 1186.913939
_symmetry_space_group_name_H-M "C 2/C"
_symmetry_group_IT_number 15
_symmetry_cell_setting 'monoclinic'
loop_
_space_group_symop_operation_xyz
x,y,z
-x,y,1/2-z
-x,-y,-z
x,-y,1/2+z
1/2+x,1/2+y,z
1/2-x,1/2+y,1/2-z
1/2-x,1/2-y,-z
1/2+x,1/2-y,1/2+z
loop_
_atom_site_type_symbol
_atom_site_label
_atom_site_fract_x
_atom_site_fract_y
_atom_site_fract_z
Si Si1 0.240357 0.907684 0.534553
Si Si2 0.503492 0.454927 0.822348
Si Si3 0.190137 0.768969 0.642146
Si Si4 0.128843 0.856566 0.128439
O O1 0.122385 0.831738 0.570660
O O2 0.196546 0.862132 0.460587
O O3 0.615764 0.940640 0.601701
O O4 0.000000 0.000000 0.500000
O O5 0.500000 0.481447 0.750000
O O6 0.335912 0.351920 0.810299
O O7 0.321628 0.537505 0.837725
O O8 0.533062 0.713292 0.672276
O O9 0.923152 0.688085 0.626656
#
# Coordination Sequence:
#
# PCOD9308062 Si02
#       4
#     8   8   8   8
#     4  12  25  51  84 116 155 205 267 330 394 461
#     4  12  30  52  77 115 166 208 261 329 400 474
#     4  12  27  49  82 114 156 200 264 322 399 457
#     4  12  27  48  83 116 151 208 264 325 384 474
#
# _framework density 26.960674999999998
#
# number of rings (size 3 to 8) (size 9 to 14) (size 15 to 20)
#    0.000    0.000    5.000    3.750    3.500    3.000 
#    0.000    0.000    0.000    0.000    0.000    0.000 
#    0.000    0.000    0.000    0.000    0.000    0.000 
#
# Total GULP energy -89866.880632 kJ/mol
# GULP energy per Si atom -5616.680039 kJ/mol
# Density = 2.689931 g / cm^3
# Si number density = 26.960675 Si / 1000 Ang^3
#
#
#
# Elastic Constant Matrix: (Units=GPa)
#
#
# Indices 1 2 3 4 5 6 
#
# 1 148.0099 61.4899 49.3209 0.0000 -0.6873 -0.0007
# 2 61.4899 176.7884 50.0995 0.0000 -19.1674 -0.0002
# 3 49.3209 50.0995 102.8440 0.0000 5.8765 0.0000
# 4 0.0000 0.0000 0.0000 55.6809 0.0000 -34.3555
# 5 -0.6873 -19.1674 5.8765 0.0000 52.3354 -0.0001
# 6 -0.0007 -0.0002 0.0000 -34.3555 -0.0001 44.1200
#
#
#
# Elastic Compliance Matrix: (Units=1/GPa)
#
#
# Indices 1 2 3 4 5 6 
#
# 1 0.008690 -0.002186 -0.003083 0.000000 -0.000340 0.000000
# 2 -0.002186 0.007540 -0.002799 0.000000 0.003047 0.000000
# 3 -0.003083 -0.002799 0.012708 0.000000 -0.002493 0.000000
# 4 0.000000 0.000000 0.000000 0.034568 0.000000 0.026917
# 5 -0.000340 0.003047 -0.002493 0.000000 0.020499 0.000000
# 6 0.000000 0.000000 0.000000 0.026917 0.000000 0.043625
#
#
# Mechanical properties :
#
#
# Convention : Reuss Voigt Hill
#
# Bulk Modulus (GPa) = 78.11105 83.27367 80.69236
# Shear Modulus (GPa) = 33.77593 48.20942 40.99268
#
# Velocity S-wave (km/s) = 3.54331 4.23323 3.90354
# Velocity P-wave (km/s) = 6.76574 7.40593 7.09306
#
# Compressibility (1/GPa) = 0.01280229
#
# Stress axis : x y z
#
# Youngs Moduli (GPa) = 115.07180 132.62070 78.68965
#
# Poissons Ratio (x) = 0.28987 0.24263
# Poissons Ratio (y) = 0.25151 0.22026
# Poissons Ratio (z) = 0.35481 0.37122
#
# Static dielectric constant tensor:
#      x y z
#    x 2.086020 0.000000 0.028400 
#    y 0.000000 2.083880 0.000000 
#    z 0.028400 0.000000 2.186310 
# 
# From -- ./inp_files/183875.got.cif
#   From: 2010.05.17/outbox.cif.g08.bks.cpg/sg15_92_cif.got.tgz:183875.got - 2010.06.03 18:47:42.
