data_PCOD9308942
_publ_section_title
;
Structure prediction by ZEFSAII (Michael W. Deem and Ramdas Pophale) SiO2 
 PCOD9308942
Probable space group: C 2/C
;
_chemical_formula_sum "Si O2"
_cell_formula_units_Z 32
_cell_length_a 24.000000
_cell_length_b 12.000000
_cell_length_c 12.000000
_cell_angle_alpha 90.000000
_cell_angle_beta 110.000000
_cell_angle_gamma 90.000000
_cell_volume 3247.577697
_symmetry_space_group_name_H-M "C 2/C"
_symmetry_group_IT_number 15
_symmetry_cell_setting 'monoclinic'
loop_
_space_group_symop_operation_xyz
x,y,z
-x,y,1/2-z
-x,-y,-z
x,-y,1/2+z
1/2+x,1/2+y,z
1/2-x,1/2+y,1/2-z
1/2-x,1/2-y,-z
1/2+x,1/2-y,1/2+z
loop_
_atom_site_type_symbol
_atom_site_label
_atom_site_fract_x
_atom_site_fract_y
_atom_site_fract_z
Si Si1 0.119920 0.291646 0.982848
Si Si2 0.006813 0.075155 0.132881
Si Si3 0.509632 0.316791 0.090960
Si Si4 0.178491 0.504778 0.641649
Si Si5 0.290321 0.599447 0.832489
Si Si6 0.225729 0.135771 0.434723
Si Si7 0.643329 0.380523 0.682417
Si Si8 0.634937 0.210734 0.235669
O O1 0.145305 0.288555 0.875325
O O2 0.049487 0.258518 0.937628
O O3 0.135066 0.411263 0.047105
O O4 0.151219 0.198846 0.082017
O O5 0.074390 0.094865 0.145961
O O6 0.000000 0.119769 0.250000
O O7 0.993837 0.942587 0.122876
O O8 0.971370 0.149557 0.021625
O O9 0.567934 0.259254 0.179818
O O10 0.222485 0.578333 0.749535
O O11 0.222903 0.437583 0.588412
O O12 0.143855 0.412126 0.690160
O O13 0.326690 0.499619 0.804365
O O14 0.318793 0.711175 0.800705
O O15 0.298387 0.580293 0.969644
O O16 0.250000 0.250000 0.500000
O O17 0.174268 0.167178 0.313123
#
# Coordination Sequence:
#
# PCOD9308942 Si02
#       8
#     8   8   8   8   8   8   8   8
#     4  11  25  44  66  96 137 167 216 273 323 401
#     4  10  20  36  61  96 133 166 215 274 323 384
#     4  10  23  40  63  99 131 170 218 264 331 390
#     4  11  26  43  63  98 124 178 225 264 333 390
#     4  11  24  40  63  96 127 169 216 268 329 388
#     4  11  22  41  62  90 132 166 216 275 319 385
#     4  10  24  37  64  97 129 173 210 268 332 389
#     4  12  24  44  70  93 129 178 216 268 333 389
#
# _framework density 9.8534980000000001
#
# number of rings (size 3 to 8) (size 9 to 14) (size 15 to 20)
#    0.000    1.250    2.500    2.625    7.000    1.000 
#    0.000    0.000    0.000    0.000    0.000    0.000 
#    0.000    0.000    0.000    0.000    0.000    0.000 
#
# Total GULP energy -178487.223692 kJ/mol
# GULP energy per Si atom -5577.725740 kJ/mol
# Density = 0.983107 g / cm^3
# Si number density = 9.853498 Si / 1000 Ang^3
#
#
#
# Elastic Constant Matrix: (Units=GPa)
#
#
# Indices 1 2 3 4 5 6 
#
# 1 46.0675 28.4676 28.5885 0.0000 2.9849 0.0000
# 2 28.4676 100.3031 39.5520 0.0000 6.9143 0.0000
# 3 28.5885 39.5520 140.0458 0.0000 -8.4419 0.0000
# 4 0.0000 0.0000 0.0000 39.3601 0.0000 33.9645
# 5 2.9849 6.9143 -8.4419 0.0000 34.7154 0.0000
# 6 0.0000 0.0000 0.0000 33.9645 0.0000 73.2354
#
#
#
# Elastic Compliance Matrix: (Units=1/GPa)
#
#
# Indices 1 2 3 4 5 6 
#
# 1 0.028276 -0.006241 -0.004142 0.000000 -0.002196 0.000000
# 2 -0.006241 0.012924 -0.002536 0.000000 -0.002654 0.000000
# 3 -0.004142 -0.002536 0.008884 0.000000 0.003022 0.000000
# 4 0.000000 0.000000 0.000000 0.042358 0.000000 -0.019644
# 5 -0.002196 -0.002654 0.003022 0.000000 0.030258 0.000000
# 6 0.000000 0.000000 0.000000 -0.019644 0.000000 0.022765
#
#
# Mechanical properties :
#
#
# Convention : Reuss Voigt Hill
#
# Bulk Modulus (GPa) = 41.24174 53.29251 47.26713
# Shear Modulus (GPa) = 27.87288 42.11606 34.99447
#
# Velocity S-wave (km/s) = 3.76488 4.62791 4.21852
# Velocity P-wave (km/s) = 6.31443 7.46042 6.91122
#
# Compressibility (1/GPa) = 0.02424728
#
# Stress axis : x y z
#
# Youngs Moduli (GPa) = 35.36508 77.37559 112.55587
#
# Poissons Ratio (x) = 0.48287 0.46622
# Poissons Ratio (y) = 0.22070 0.28545
# Poissons Ratio (z) = 0.14649 0.19623
#
# Static dielectric constant tensor:
#      x y z
#    x 1.682850 0.000000 0.048100 
#    y 0.000000 1.451410 0.000000 
#    z 0.048100 0.000000 1.884800 
# 
# From -- ./inp_files/118026.got.cif
#   From: 2010.05.17/outbox.ucp.g08.bks.cvg/sg15_60_cif.got.tgz:118026.got - 2010.06.11 12:40:34.
