data_PCOD9308923
_publ_section_title
;
Structure prediction by ZEFSAII (Michael W. Deem and Ramdas Pophale) SiO2 
 PCOD9308923
Probable space group: C 2/C
;
_chemical_formula_sum "Si O2"
_cell_formula_units_Z 22
_cell_length_a 9.000000
_cell_length_b 12.000000
_cell_length_c 24.000000
_cell_angle_alpha 90.000000
_cell_angle_beta 120.000000
_cell_angle_gamma 90.000000
_cell_volume 2244.737847
_symmetry_space_group_name_H-M "C 2/C"
_symmetry_group_IT_number 15
_symmetry_cell_setting 'monoclinic'
loop_
_space_group_symop_operation_xyz
x,y,z
-x,y,1/2-z
-x,-y,-z
x,-y,1/2+z
1/2+x,1/2+y,z
1/2-x,1/2+y,1/2-z
1/2-x,1/2-y,-z
1/2+x,1/2-y,1/2+z
loop_
_atom_site_type_symbol
_atom_site_label
_atom_site_fract_x
_atom_site_fract_y
_atom_site_fract_z
Si Si1 0.701248 0.175662 0.337692
Si Si2 0.973083 0.121724 0.026234
Si Si3 0.816623 0.630120 0.291127
Si Si4 0.410380 0.117213 0.507008
Si Si5 0.000000 0.708124 0.750000
Si Si6 0.386316 0.894366 0.342240
O O1 0.515259 0.168819 0.331182
O O2 0.708071 0.111251 0.279950
O O3 0.742514 0.302442 0.328047
O O4 0.854787 0.134452 0.405162
O O5 0.954235 0.251549 0.995591
O O6 0.796809 0.109184 0.029046
O O7 0.000000 0.000000 0.000000
O O8 0.670951 0.715253 0.284097
O O9 0.806317 0.515941 0.322747
O O10 0.476575 0.115478 0.582963
O O11 0.500000 0.000000 0.500000
O O12 0.022588 0.635245 0.698902
#
# Coordination Sequence:
#
# PCOD9308923 Si02
#       6
#     8   8   8   8   4   8
#     4   9  20  38  56  85 119 149 193 244 293 356
#     4  10  21  40  63  87 120 160 203 250 298 350
#     4  10  20  36  58  83 115 149 190 240 299 355
#     4  10  23  41  61  89 124 159 202 249 296 357
#     4  10  22  36  60  90 112 150 198 242 296 354
#     4  10  21  39  60  85 118 153 191 244 298 350
#
# _framework density 9.8006989999999998
#
# number of rings (size 3 to 8) (size 9 to 14) (size 15 to 20)
#    0.000    2.182    0.000    2.182    0.000    9.455 
#    0.000   14.545    0.000    0.000    0.000    0.000 
#    0.000    0.000    0.000    0.000    0.000    0.000 
#
# Total GULP energy -122521.409525 kJ/mol
# GULP energy per Si atom -5569.154978 kJ/mol
# Density = 0.977839 g / cm^3
# Si number density = 9.800699 Si / 1000 Ang^3
#
#
#
# Elastic Constant Matrix: (Units=GPa)
#
#
# Indices 1 2 3 4 5 6 
#
# 1 82.1509 39.1116 27.6119 0.0000 20.8199 0.0000
# 2 39.1116 99.9623 23.8978 0.0000 -4.1143 0.0000
# 3 27.6119 23.8978 71.1864 0.0000 16.9555 0.0000
# 4 0.0000 0.0000 0.0000 29.0881 0.0000 2.4400
# 5 20.8199 -4.1143 16.9555 0.0000 32.2720 0.0000
# 6 0.0000 0.0000 0.0000 2.4400 0.0000 22.7180
#
#
#
# Elastic Compliance Matrix: (Units=1/GPa)
#
#
# Indices 1 2 3 4 5 6 
#
# 1 0.019769 -0.007768 -0.002042 0.000000 -0.012671 0.000000
# 2 -0.007768 0.014348 -0.003924 0.000000 0.008902 0.000000
# 3 -0.002042 -0.003924 0.018246 0.000000 -0.008769 0.000000
# 4 0.000000 0.000000 0.000000 0.034691 0.000000 -0.003726
# 5 -0.012671 0.008902 -0.008769 0.000000 0.044903 0.000000
# 6 0.000000 0.000000 0.000000 -0.003726 0.000000 0.044418
#
#
# Mechanical properties :
#
#
# Convention : Reuss Voigt Hill
#
# Bulk Modulus (GPa) = 40.17060 48.28246 44.22653
# Shear Modulus (GPa) = 23.56933 27.66085 25.61509
#
# Velocity S-wave (km/s) = 3.47137 3.76063 3.61889
# Velocity P-wave (km/s) = 6.05024 6.59864 6.33038
#
# Compressibility (1/GPa) = 0.02489383
#
# Stress axis : x y z
#
# Youngs Moduli (GPa) = 50.58496 69.69799 54.80779
#
# Poissons Ratio (x) = 0.54142 0.11192
# Poissons Ratio (y) = 0.39295 0.21506
# Poissons Ratio (z) = 0.10330 0.27348
#
# Static dielectric constant tensor:
#      x y z
#    x 1.675940 0.000000 0.002770 
#    y 0.000000 1.742080 0.000000 
#    z 0.002770 0.000000 1.732860 
# 
# From -- ./inp_files/230144.got.cif
#   From: 2010.05.17/outbox.ucp.g08.bks.cvg/sg15_116_cif.got.tgz:230144.got - 2010.06.11 12:40:34.
