data_PCOD9308642
_publ_section_title
;
Structure prediction by ZEFSAII (Michael W. Deem and Ramdas Pophale) SiO2 
 PCOD9308642
Probable space group: C 2/C
;
_chemical_formula_sum "Si O2"
_cell_formula_units_Z 30
_cell_length_a 30.000000
_cell_length_b 18.000000
_cell_length_c 12.000000
_cell_angle_alpha 90.000000
_cell_angle_beta 150.000000
_cell_angle_gamma 90.000000
_cell_volume 3240.000000
_symmetry_space_group_name_H-M "C 2/C"
_symmetry_group_IT_number 15
_symmetry_cell_setting 'monoclinic'
loop_
_space_group_symop_operation_xyz
x,y,z
-x,y,1/2-z
-x,-y,-z
x,-y,1/2+z
1/2+x,1/2+y,z
1/2-x,1/2+y,1/2-z
1/2-x,1/2-y,-z
1/2+x,1/2-y,1/2+z
loop_
_atom_site_type_symbol
_atom_site_label
_atom_site_fract_x
_atom_site_fract_y
_atom_site_fract_z
Si Si1 0.687507 0.963150 0.435393
Si Si2 0.060586 0.348704 0.278621
Si Si3 0.788512 0.387706 0.397896
Si Si4 0.000000 0.809126 0.250000
Si Si5 0.925483 0.554284 0.012667
Si Si6 0.192231 0.777577 0.043988
Si Si7 0.833339 0.166695 0.250128
Si Si8 0.456287 0.813642 0.838226
O O1 0.613323 0.920644 0.348185
O O2 0.629935 0.987207 0.202450
O O3 0.762615 0.900153 0.581998
O O4 0.730987 0.035164 0.584002
O O5 0.135130 0.288641 0.469796
O O6 0.000000 0.364867 0.250000
O O7 0.998780 0.310112 0.051248
O O8 0.850849 0.409976 0.428690
O O9 0.711019 0.339820 0.175912
O O10 0.853995 0.339111 0.616604
O O11 0.082687 0.851000 0.488545
O O12 0.034070 0.755869 0.223490
O O13 0.000000 0.516414 0.250000
O O14 0.982249 0.620748 0.080666
O O15 0.283738 0.738102 0.198733
O O16 0.146118 0.808799 0.831907
#
# Coordination Sequence:
#
# PCOD9308642 Si02
#       8
#     8   8   8   4   8   8   8   8
#     4  10  22  34  52  84 115 152 181 225 279 339
#     4  10  22  37  52  80 118 152 185 217 282 341
#     4  11  19  32  55  81 116 143 181 225 282 335
#     4  12  16  32  62  90 104 126 196 258 270 308
#     4   9  17  30  51  78 112 140 181 218 271 332
#     4  10  18  34  60  79 107 150 183 237 272 331
#     4  10  19  33  60  86 105 136 197 240 279 313
#     4  10  18  30  54  88 107 140 182 230 276 323
#
# _framework density 9.2592590000000001
#
# number of rings (size 3 to 8) (size 9 to 14) (size 15 to 20)
#    0.000    1.867    6.000    0.000    0.000    7.467 
#    0.000    0.667    4.400    0.800    0.000    0.000 
#    0.000    0.000    0.000    0.000    0.000    0.000 
#
# Total GULP energy -167116.988038 kJ/mol
# GULP energy per Si atom -5570.566268 kJ/mol
# Density = 0.923818 g / cm^3
# Si number density = 9.259259 Si / 1000 Ang^3
#
#
#
# Elastic Constant Matrix: (Units=GPa)
#
#
# Indices 1 2 3 4 5 6 
#
# 1 25.6767 22.8001 19.3437 0.0000 0.1210 0.0000
# 2 22.8001 65.1865 32.0849 0.0000 -14.2166 0.0000
# 3 19.3437 32.0849 96.0525 0.0000 -22.7800 0.0000
# 4 0.0000 0.0000 0.0000 107.3436 0.0000 -5.8135
# 5 0.1210 -14.2166 -22.7800 0.0000 16.0418 0.0000
# 6 0.0000 0.0000 0.0000 -5.8135 0.0000 12.7591
#
#
#
# Elastic Compliance Matrix: (Units=1/GPa)
#
#
# Indices 1 2 3 4 5 6 
#
# 1 0.081103 -0.031018 -0.019053 0.000000 -0.055157 0.000000
# 2 -0.031018 0.031718 0.003579 0.000000 0.033425 0.000000
# 3 -0.019053 0.003579 0.020866 0.000000 0.032946 0.000000
# 4 0.000000 0.000000 0.000000 0.009552 0.000000 0.004352
# 5 -0.055157 0.033425 0.032946 0.000000 0.139160 0.000000
# 6 0.000000 0.000000 0.000000 0.004352 0.000000 0.080359
#
#
# Mechanical properties :
#
#
# Convention : Reuss Voigt Hill
#
# Bulk Modulus (GPa) = 24.56863 37.26369 30.91616
# Shear Modulus (GPa) = 10.65397 34.74136 22.69766
#
# Velocity S-wave (km/s) = 2.40117 4.33602 3.50476
# Velocity P-wave (km/s) = 4.58076 6.72563 5.75402
#
# Compressibility (1/GPa) = 0.04070231
#
# Stress axis : x y z
#
# Youngs Moduli (GPa) = 12.33003 31.52778 47.92491
#
# Poissons Ratio (x) = 0.97794 0.91310
# Poissons Ratio (y) = 0.38246 -0.17152
# Poissons Ratio (z) = 0.23492 -0.11284
#
# Static dielectric constant tensor:
#      x y z
#    x 1.668730 0.000000 -0.032730 
#    y 0.000000 1.643900 0.000000 
#    z -0.032730 0.000000 1.697890 
# 
# From -- ./inp_files/127232.got.cif
#   From: 2010.05.17/outbox.ucp.g08.bks.cvg/sg15_64_cif.got.tgz:127232.got - 2010.06.11 12:40:34.
