data_PCOD9308649
_publ_section_title
;
Structure prediction by ZEFSAII (Michael W. Deem and Ramdas Pophale) SiO2 
 PCOD9308649
Probable space group: C 2/C
;
_chemical_formula_sum "Si O2"
_cell_formula_units_Z 32
_cell_length_a 21.000000
_cell_length_b 15.000000
_cell_length_c 30.000000
_cell_angle_alpha 90.000000
_cell_angle_beta 160.000000
_cell_angle_gamma 90.000000
_cell_volume 3232.090354
_symmetry_space_group_name_H-M "C 2/C"
_symmetry_group_IT_number 15
_symmetry_cell_setting 'monoclinic'
loop_
_space_group_symop_operation_xyz
x,y,z
-x,y,1/2-z
-x,-y,-z
x,-y,1/2+z
1/2+x,1/2+y,z
1/2-x,1/2+y,1/2-z
1/2-x,1/2-y,-z
1/2+x,1/2-y,1/2+z
loop_
_atom_site_type_symbol
_atom_site_label
_atom_site_fract_x
_atom_site_fract_y
_atom_site_fract_z
Si Si1 0.275677 0.337672 0.837399
Si Si2 0.279156 0.041614 0.811111
Si Si3 0.054752 0.802317 0.139663
Si Si4 0.780574 0.214145 0.613531
Si Si5 0.719522 0.512373 0.905879
Si Si6 0.817969 0.172832 0.878112
Si Si7 0.663816 0.120153 0.090866
Si Si8 0.935281 0.483841 0.313301
O O1 0.183732 0.280919 0.737626
O O2 0.257597 0.267797 0.866237
O O3 0.158883 0.427374 0.768722
O O4 0.493600 0.358978 0.972763
O O5 0.102545 0.107163 0.697256
O O6 0.349266 0.024282 0.806954
O O7 0.255149 0.946268 0.818375
O O8 0.443250 0.097919 0.943346
O O9 0.114286 0.824288 0.128521
O O10 0.844053 0.768810 0.003831
O O11 0.715171 0.110883 0.568029
O O12 0.000000 0.217130 0.750000
O O13 0.500000 0.518937 0.750000
O O14 0.769519 0.424213 0.910939
O O15 0.842161 0.497070 0.031817
O O16 0.788188 0.276320 0.872172
O O17 0.644905 0.103775 0.765093
#
# Coordination Sequence:
#
# PCOD9308649 Si02
#       8
#     8   8   8   8   8   8   8   8
#     4  11  19  33  55  80 112 141 166 224 267 321
#     4   9  18  30  53  80 109 133 168 218 274 309
#     4  10  18  32  51  82 110 135 167 216 271 323
#     4  10  22  36  52  78 109 142 183 213 256 323
#     4  10  21  38  54  76 106 143 184 219 255 312
#     4  10  21  32  54  85 108 134 178 218 274 321
#     4  10  18  32  54  79 103 136 175 225 256 306
#     4  10  20  35  53  79 111 142 172 217 272 319
#
# _framework density 9.9007129999999997
#
# number of rings (size 3 to 8) (size 9 to 14) (size 15 to 20)
#    0.000    2.000    2.500    1.875    7.000    0.500 
#    2.250    0.625    0.000    0.750    0.000    0.000 
#    0.000    0.000    0.000    0.000    0.000    0.000 
#
# Total GULP energy -178135.736215 kJ/mol
# GULP energy per Si atom -5566.741757 kJ/mol
# Density = 0.987818 g / cm^3
# Si number density = 9.900713 Si / 1000 Ang^3
#
#
#
# Elastic Constant Matrix: (Units=GPa)
#
#
# Indices 1 2 3 4 5 6 
#
# 1 -2.9655 -1.6104 1.0425 -0.0105 -1.7264 -0.0057
# 2 -1.6104 135.2732 53.9534 0.0126 -2.7839 -0.0018
# 3 1.0425 53.9534 137.4084 0.0551 -2.8907 0.0102
# 4 -0.0105 0.0126 0.0551 39.6846 -0.0013 -4.5536
# 5 -1.7264 -2.7839 -2.8907 -0.0013 13.0780 -0.0062
# 6 -0.0057 -0.0018 0.0102 -4.5536 -0.0062 20.2444
#
#
#
# Elastic Compliance Matrix: (Units=1/GPa)
#
#
# Indices 1 2 3 4 5 6 
#
# 1 -0.308591 -0.006058 0.003854 -0.000101 -0.041175 -0.000125
# 2 -0.006058 0.008662 -0.003349 0.000000 0.000304 0.000001
# 3 0.003854 -0.003349 0.008599 -0.000010 0.001697 -0.000005
# 4 -0.000101 0.000000 -0.000010 0.025866 -0.000010 0.005818
# 5 -0.041175 0.000304 0.001697 -0.000010 0.071469 0.000007
# 6 -0.000125 0.000001 -0.000005 0.005818 0.000007 0.050705
#
#
# Mechanical properties :
#
#
# Convention : Reuss Voigt Hill
#
# Bulk Modulus (GPa) = -3.30648 41.83189 19.26271
# Shear Modulus (GPa) = -21.45962 29.02342 3.78190
#
# Velocity S-wave (km/s) = -3.29559 3.83263 1.38350
# Velocity P-wave (km/s) = 4.01929 6.38412 3.50730
#
# Compressibility (1/GPa) = -0.30243630
#
# Stress axis : x y z
#
# Youngs Moduli (GPa) = -3.24053 115.44312 116.29301
#
# Poissons Ratio (x) = 0.69938 -0.44819
# Poissons Ratio (y) = -0.01963 0.38945
# Poissons Ratio (z) = 0.01249 0.38661
#
# Static dielectric constant tensor:
#      x y z
#    x 1.751270 0.000000 -0.027470 
#    y 0.000000 1.692670 -0.000030 
#    z -0.027470 -0.000030 1.812200 
# 
# From -- ./inp_files/112735.got.cif
#   From: 2010.05.17/outbox.ucp.g08.bks.cvg/sg15_57_cif.got.tgz:112735.got - 2010.06.11 12:40:34.
