data_PCOD9308776
_publ_section_title
;
Structure prediction by ZEFSAII (Michael W. Deem and Ramdas Pophale) SiO2 
 PCOD9308776
Probable space group: C 2/C
;
_chemical_formula_sum "Si O2"
_cell_formula_units_Z 24
_cell_length_a 15.000000
_cell_length_b 9.000000
_cell_length_c 27.000000
_cell_angle_alpha 90.000000
_cell_angle_beta 140.000000
_cell_angle_gamma 90.000000
_cell_volume 2342.960837
_symmetry_space_group_name_H-M "C 2/C"
_symmetry_group_IT_number 15
_symmetry_cell_setting 'monoclinic'
loop_
_space_group_symop_operation_xyz
x,y,z
-x,y,1/2-z
-x,-y,-z
x,-y,1/2+z
1/2+x,1/2+y,z
1/2-x,1/2+y,1/2-z
1/2-x,1/2-y,-z
1/2+x,1/2-y,1/2+z
loop_
_atom_site_type_symbol
_atom_site_label
_atom_site_fract_x
_atom_site_fract_y
_atom_site_fract_z
Si Si1 0.536153 0.018643 0.387253
Si Si2 0.297971 0.845143 0.337546
Si Si3 0.700068 0.157261 0.548974
Si Si4 0.601832 0.476611 0.616827
Si Si5 0.019347 0.836856 0.174175
Si Si6 0.305233 0.516891 0.951190
O O1 0.607466 0.082450 0.467646
O O2 0.495357 0.159566 0.336457
O O3 0.659703 0.931009 0.411750
O O4 0.399243 0.931192 0.343941
O O5 0.344126 0.873135 0.413655
O O6 0.316411 0.670759 0.333874
O O7 0.134712 0.879525 0.263409
O O8 0.692631 0.336859 0.539575
O O9 0.861027 0.109700 0.611999
O O10 0.583638 0.597508 0.651236
O O11 0.673919 0.540959 0.598284
O O12 0.445368 0.424797 0.535900
#
# Coordination Sequence:
#
# PCOD9308776 Si02
#       6
#     8   8   8   8   8   8
#     4  11  20  38  59  84 108 146 191 227 272 326
#     4  11  24  33  54  87 119 139 177 237 289 318
#     4  10  19  38  59  81 105 153 193 220 261 340
#     4  10  19  36  57  82 109 142 186 226 277 320
#     4  11  20  39  58  78 111 151 187 225 272 331
#     4   9  18  35  61  81 102 145 192 227 257 332
#
# _framework density 10.243449
#
# number of rings (size 3 to 8) (size 9 to 14) (size 15 to 20)
#    0.000    1.667    3.333    3.000    0.000    0.667 
#    0.000    2.500    0.000    0.000    0.000    0.000 
#    0.000    0.000    0.000    0.000    0.000    0.000 
#
# Total GULP energy -133982.482156 kJ/mol
# GULP energy per Si atom -5582.603423 kJ/mol
# Density = 1.022013 g / cm^3
# Si number density = 10.243449 Si / 1000 Ang^3
#
#
#
# Elastic Constant Matrix: (Units=GPa)
#
#
# Indices 1 2 3 4 5 6 
#
# 1 79.2649 0.7853 8.0933 0.0000 16.2171 0.0000
# 2 0.7853 -1.9840 3.5801 0.0000 4.4253 0.0000
# 3 8.0933 3.5801 63.1630 0.0000 18.2418 0.0000
# 4 0.0000 0.0000 0.0000 17.2457 0.0000 2.5712
# 5 16.2171 4.4253 18.2418 0.0000 30.7081 0.0000
# 6 0.0000 0.0000 0.0000 2.5712 0.0000 27.5305
#
#
#
# Elastic Compliance Matrix: (Units=1/GPa)
#
#
# Indices 1 2 3 4 5 6 
#
# 1 0.013979 -0.008071 0.000558 0.000000 -0.006551 0.000000
# 2 -0.008071 -0.374270 0.006567 0.000000 0.054297 0.000000
# 3 0.000558 0.006567 0.019008 0.000000 -0.012532 0.000000
# 4 0.000000 0.000000 0.000000 0.058804 0.000000 -0.005492
# 5 -0.006551 0.054297 -0.012532 0.000000 0.035644 0.000000
# 6 0.000000 0.000000 0.000000 -0.005492 0.000000 0.036836
#
#
# Mechanical properties :
#
#
# Convention : Reuss Voigt Hill
#
# Bulk Modulus (GPa) = -2.91397 18.37348 7.72976
# Shear Modulus (GPa) = -15.50398 23.62922 4.06262
#
# Velocity S-wave (km/s) = -2.75394 3.39983 1.40973
# Velocity P-wave (km/s) = 3.39672 4.93960 2.53594
#
# Compressibility (1/GPa) = -0.34317501
#
# Stress axis : x y z
#
# Youngs Moduli (GPa) = 71.53503 -2.67187 52.61020
#
# Poissons Ratio (x) = -0.02157 -0.02937
# Poissons Ratio (y) = 0.57738 -0.34549
# Poissons Ratio (z) = -0.03993 0.01755
#
# Static dielectric constant tensor:
#      x y z
#    x 1.736690 0.000000 -0.012550 
#    y 0.000000 1.702170 0.000000 
#    z -0.012550 0.000000 1.771080 
# 
# From -- ./inp_files/152178.got.cif
#   From: 2010.05.17/outbox.ucp.g08.bks.cvg/sg15_77_cif.got.tgz:152178.got - 2010.06.11 12:40:34.
