data_PCOD9308930
_publ_section_title
;
Structure prediction by ZEFSAII (Michael W. Deem and Ramdas Pophale) SiO2 
 PCOD9308930
Probable space group: C 2/C
;
_chemical_formula_sum "Si O2"
_cell_formula_units_Z 22
_cell_length_a 27.000000
_cell_length_b 15.000000
_cell_length_c 12.000000
_cell_angle_alpha 90.000000
_cell_angle_beta 150.000000
_cell_angle_gamma 90.000000
_cell_volume 2430.000000
_symmetry_space_group_name_H-M "C 2/C"
_symmetry_group_IT_number 15
_symmetry_cell_setting 'monoclinic'
loop_
_space_group_symop_operation_xyz
x,y,z
-x,y,1/2-z
-x,-y,-z
x,-y,1/2+z
1/2+x,1/2+y,z
1/2-x,1/2+y,1/2-z
1/2-x,1/2-y,-z
1/2+x,1/2-y,1/2+z
loop_
_atom_site_type_symbol
_atom_site_label
_atom_site_fract_x
_atom_site_fract_y
_atom_site_fract_z
Si Si1 0.000000 0.156026 0.250000
Si Si2 0.199892 0.243202 0.575012
Si Si3 0.181001 0.136082 0.327267
Si Si4 0.201583 0.692592 0.504097
Si Si5 0.125667 0.932585 0.194834
Si Si6 0.018418 0.801868 0.155045
O O1 0.086038 0.221781 0.376607
O O2 0.053156 0.096454 0.450381
O O3 0.221612 0.166688 0.525671
O O4 0.231569 0.338091 0.586977
O O5 0.262455 0.230497 0.807984
O O6 0.136514 0.037516 0.234920
O O7 0.087970 0.199040 0.111889
O O8 0.250000 0.750000 0.500000
O O9 0.261872 0.600575 0.610683
O O10 0.084464 0.712179 0.270137
O O11 0.081571 0.879812 0.215892
O O12 0.000000 0.819979 0.250000
#
# Coordination Sequence:
#
# PCOD9308930 Si02
#       6
#     4   8   8   8   8   8
#     4  10  20  36  60  80 118 148 196 228 290 334
#     4  10  21  37  56  83 117 154 180 236 286 349
#     4  11  22  36  58  86 117 144 194 233 291 327
#     4   9  20  38  55  80 115 152 186 223 288 340
#     4  10  22  36  57  88 115 151 187 244 279 339
#     4  11  20  34  59  86 112 150 190 238 283 341
#
# _framework density 9.0534979999999994
#
# number of rings (size 3 to 8) (size 9 to 14) (size 15 to 20)
#    0.000    1.818    3.636    0.545    1.273    1.455 
#    0.000    0.000    2.000    4.364    0.000    0.000 
#    0.000    0.000    0.000    0.000    0.000    0.000 
#
# Total GULP energy -122475.595419 kJ/mol
# GULP energy per Si atom -5567.072519 kJ/mol
# Density = 0.903289 g / cm^3
# Si number density = 9.053498 Si / 1000 Ang^3
#
#
#
# Elastic Constant Matrix: (Units=GPa)
#
#
# Indices 1 2 3 4 5 6 
#
# 1 96.5452 24.1534 26.5178 0.0000 -6.1237 0.0000
# 2 24.1534 47.9049 40.8407 0.0000 15.8619 0.0000
# 3 26.5178 40.8407 88.1112 0.0000 -3.9408 0.0000
# 4 0.0000 0.0000 0.0000 28.3263 0.0000 11.3491
# 5 -6.1237 15.8619 -3.9408 0.0000 34.1629 0.0000
# 6 0.0000 0.0000 0.0000 11.3491 0.0000 17.9063
#
#
#
# Elastic Compliance Matrix: (Units=1/GPa)
#
#
# Indices 1 2 3 4 5 6 
#
# 1 0.012935 -0.009443 0.000788 0.000000 0.006794 0.000000
# 2 -0.009443 0.057479 -0.025200 0.000000 -0.031287 0.000000
# 3 0.000788 -0.025200 0.023443 0.000000 0.014546 0.000000
# 4 0.000000 0.000000 0.000000 0.047319 0.000000 -0.029991
# 5 0.006794 -0.031287 0.014546 0.000000 0.046694 0.000000
# 6 0.000000 0.000000 0.000000 -0.029991 0.000000 0.074855
#
#
# Mechanical properties :
#
#
# Convention : Reuss Voigt Hill
#
# Bulk Modulus (GPa) = 38.24452 46.17613 42.21032
# Shear Modulus (GPa) = 14.74278 25.48238 20.11258
#
# Velocity S-wave (km/s) = 2.85652 3.75550 3.33643
# Velocity P-wave (km/s) = 5.66100 6.66050 6.18098
#
# Compressibility (1/GPa) = 0.02614754
#
# Stress axis : x y z
#
# Youngs Moduli (GPa) = 77.31118 17.39771 42.65654
#
# Poissons Ratio (x) = 0.16428 -0.03361
# Poissons Ratio (y) = 0.73004 1.07493
# Poissons Ratio (z) = -0.06092 0.43842
#
# Static dielectric constant tensor:
#      x y z
#    x 1.663430 0.000000 -0.001180 
#    y 0.000000 1.610950 0.000000 
#    z -0.001180 0.000000 1.627200 
# 
# From -- ./inp_files/86078.got.cif
#   From: 2010.05.17/outbox.ucp.g08.bks.cvg/sg15_44_cif.got.tgz:86078.got - 2010.06.11 12:40:34.
