data_PCOD9308458
_publ_section_title
;
Structure prediction by ZEFSAII (Michael W. Deem and Ramdas Pophale) SiO2 
 PCOD9308458
Probable space group: C 2/C
;
_chemical_formula_sum "Si O2"
_cell_formula_units_Z 40
_cell_length_a 14.231523
_cell_length_b 8.456595
_cell_length_c 12.732407
_cell_angle_alpha 90.000000
_cell_angle_beta 63.029134
_cell_angle_gamma 90.000000
_cell_volume 1365.685683
_symmetry_space_group_name_H-M "C 2/C"
_symmetry_group_IT_number 15
_symmetry_cell_setting 'monoclinic'
loop_
_space_group_symop_operation_xyz
x,y,z
-x,y,1/2-z
-x,-y,-z
x,-y,1/2+z
1/2+x,1/2+y,z
1/2-x,1/2+y,1/2-z
1/2-x,1/2-y,-z
1/2+x,1/2-y,1/2+z
loop_
_atom_site_type_symbol
_atom_site_label
_atom_site_fract_x
_atom_site_fract_y
_atom_site_fract_z
Si Si1 0.576246 0.086684 0.846467
Si Si2 0.705758 0.293421 0.660048
Si Si3 0.026251 0.909581 0.861114
Si Si4 0.573944 0.736852 0.853141
Si Si5 0.274744 0.617965 0.902712
O O1 0.631260 0.139156 0.707946
O O2 0.499465 0.232856 0.913143
O O3 0.672267 0.091757 0.880794
O O4 0.529213 0.913101 0.868092
O O5 0.654990 0.389743 0.787245
O O6 0.822585 0.243293 0.626461
O O7 0.702422 0.433209 0.574896
O O8 0.001225 0.084332 0.913914
O O9 0.000000 0.906240 0.750000
O O10 0.628352 0.690291 0.713606
O O11 0.250000 0.750000 0.000000
#
# Coordination Sequence:
#
# PCOD9308458 Si02
#       5
#     8   8   8   8   8
#     4   8  16  28  46  63  93 120 151 188 229 266
#     4   7  15  28  44  64  91 115 152 187 219 272
#     4   9  17  27  47  73  90 113 160 197 224 269
#     4   9  15  29  48  63  93 124 148 191 227 266
#     4   9  15  26  46  72  95 120 151 193 231 269
#
# _framework density 29.289314999999998
#
# number of rings (size 3 to 8) (size 9 to 14) (size 15 to 20)
#    1.200    2.400    0.000    1.200    0.000    0.800 
#    0.000    1.000    0.000    4.800    0.000   23.800 
#    0.000    0.000    0.000    0.000    0.000    0.000 
#
# Total GULP energy -111576.139856 kJ/mol
# GULP energy per Si atom -5578.806993 kJ/mol
# Density = 2.922265 g / cm^3
# Si number density = 29.289315 Si / 1000 Ang^3
#
#
#
# Elastic Constant Matrix: (Units=GPa)
#
#
# Indices 1 2 3 4 5 6 
#
# 1 80.9587 44.3167 26.9746 0.0000 -6.1349 0.0000
# 2 44.3167 335.7080 73.0959 0.0000 25.7455 0.0000
# 3 26.9746 73.0959 70.2833 0.0000 -11.2755 0.0000
# 4 0.0000 0.0000 0.0000 62.6871 0.0000 -0.4573
# 5 -6.1349 25.7455 -11.2755 0.0000 38.3486 0.0000
# 6 0.0000 0.0000 0.0000 -0.4573 0.0000 49.7472
#
#
#
# Elastic Compliance Matrix: (Units=1/GPa)
#
#
# Indices 1 2 3 4 5 6 
#
# 1 0.014486 -0.001186 -0.004016 0.000000 0.001933 0.000000
# 2 -0.001186 0.004617 -0.005115 0.000000 -0.004793 0.000000
# 3 -0.004016 -0.005115 0.022603 0.000000 0.009438 0.000000
# 4 0.000000 0.000000 0.000000 0.015953 0.000000 0.000147
# 5 0.001933 -0.004793 0.009438 0.000000 0.032379 0.000000
# 6 0.000000 0.000000 0.000000 0.000147 0.000000 0.020103
#
#
# Mechanical properties :
#
#
# Convention : Reuss Voigt Hill
#
# Bulk Modulus (GPa) = 47.45778 86.19160 66.82469
# Shear Modulus (GPa) = 36.28468 52.99411 44.63939
#
# Velocity S-wave (km/s) = 3.52353 4.25824 3.90819
# Velocity P-wave (km/s) = 5.72643 7.32587 6.57496
#
# Compressibility (1/GPa) = 0.02107136
#
# Stress axis : x y z
#
# Youngs Moduli (GPa) = 69.03313 216.60451 44.24107
#
# Poissons Ratio (x) = 0.25691 0.17767
# Poissons Ratio (y) = 0.08188 0.22630
# Poissons Ratio (z) = 0.27724 1.10798
#
# Static dielectric constant tensor:
#      x y z
#    x 2.329570 0.000000 0.063040 
#    y 0.000000 2.369160 0.000000 
#    z 0.063040 0.000000 2.504420 
# 
# From -- ./inp_files/165434.got.cif
#   From: 2010.05.17/outbox.cif.g08.bks.cpg/sg15_83_cif.got.tgz:165434.got - 2010.06.03 18:47:42.
