data_PCOD9308106
_publ_section_title
;
Structure prediction by ZEFSAII (Michael W. Deem and Ramdas Pophale) SiO2 
 PCOD9308106
Probable space group: C 2/C
;
_chemical_formula_sum "Si O2"
_cell_formula_units_Z 40
_cell_length_a 9.805051
_cell_length_b 22.797154
_cell_length_c 7.989883
_cell_angle_alpha 90.000000
_cell_angle_beta 94.196721
_cell_angle_gamma 90.000000
_cell_volume 1781.167891
_symmetry_space_group_name_H-M "C 2/C"
_symmetry_group_IT_number 15
_symmetry_cell_setting 'monoclinic'
loop_
_space_group_symop_operation_xyz
x,y,z
-x,y,1/2-z
-x,-y,-z
x,-y,1/2+z
1/2+x,1/2+y,z
1/2-x,1/2+y,1/2-z
1/2-x,1/2-y,-z
1/2+x,1/2-y,1/2+z
loop_
_atom_site_type_symbol
_atom_site_label
_atom_site_fract_x
_atom_site_fract_y
_atom_site_fract_z
Si Si1 0.608167 0.468928 0.378809
Si Si2 0.114420 0.279950 0.055110
Si Si3 0.660255 0.103132 0.743227
Si Si4 0.500000 0.679796 0.250000
Si Si5 0.265522 0.410322 0.628557
Si Si6 0.000000 0.641476 0.250000
O O1 0.500000 0.436404 0.250000
O O2 0.500000 0.500000 0.500000
O O3 0.742649 0.426395 0.393218
O O4 0.675662 0.527490 0.310252
O O5 0.150659 0.327418 0.202265
O O6 0.025187 0.224916 0.102871
O O7 0.250000 0.250000 0.000000
O O8 0.040225 0.317836 0.908256
O O9 0.500000 0.083122 0.750000
O O10 0.733609 0.090824 0.927247
O O11 0.626862 0.638805 0.306277
O O12 0.125496 0.397843 0.707886
#
# Coordination Sequence:
#
# PCOD9308106 Si02
#       6
#     8   8   8   4   8   4
#     4  12  28  49  74 109 144 195 249 307 376 442
#     4  12  27  45  71 110 148 196 241 305 373 438
#     4  12  28  50  73 108 153 195 249 308 376 446
#     4  12  26  48  75 105 154 192 250 300 366 452
#     4  12  27  47  75 108 147 194 244 309 372 441
#     4  12  26  46  73 109 146 190 248 302 374 440
#
# _framework density 22.457176
#
# number of rings (size 3 to 8) (size 9 to 14) (size 15 to 20)
#    0.000    0.000    8.000    0.000    9.800    2.400 
#    0.000    0.000    0.000    0.000    0.000    0.000 
#    0.000    0.000    0.000    0.000    0.000    0.000 
#
# Total GULP energy -111636.066373 kJ/mol
# GULP energy per Si atom -5581.803319 kJ/mol
# Density = 2.240606 g / cm^3
# Si number density = 22.457176 Si / 1000 Ang^3
#
#
#
# Elastic Constant Matrix: (Units=GPa)
#
#
# Indices 1 2 3 4 5 6 
#
# 1 203.7888 59.1868 22.3687 0.0000 -21.2652 0.0000
# 2 59.1868 113.9117 -3.0803 0.0000 -6.0643 0.0000
# 3 22.3687 -3.0803 63.8084 0.0000 13.0430 0.0000
# 4 0.0000 0.0000 0.0000 29.5738 0.0000 -8.6496
# 5 -21.2652 -6.0643 13.0430 0.0000 32.8617 0.0000
# 6 0.0000 0.0000 0.0000 -8.6496 0.0000 56.5355
#
#
#
# Elastic Compliance Matrix: (Units=1/GPa)
#
#
# Indices 1 2 3 4 5 6 
#
# 1 0.006830 -0.003368 -0.003628 0.000000 0.005238 0.000000
# 2 -0.003368 0.010527 0.001891 0.000000 -0.000987 0.000000
# 3 -0.003628 0.001891 0.018984 0.000000 -0.009533 0.000000
# 4 0.000000 0.000000 0.000000 0.035398 0.000000 0.005416
# 5 0.005238 -0.000987 -0.009533 0.000000 0.037422 0.000000
# 6 0.000000 0.000000 0.000000 0.005416 0.000000 0.018517
#
#
# Mechanical properties :
#
#
# Convention : Reuss Voigt Hill
#
# Bulk Modulus (GPa) = 38.26880 59.82881 49.04881
# Shear Modulus (GPa) = 34.10711 43.99645 39.05178
#
# Velocity S-wave (km/s) = 3.90136 4.43100 4.17459
# Velocity P-wave (km/s) = 6.11326 7.27169 6.71749
#
# Compressibility (1/GPa) = 0.02613095
#
# Stress axis : x y z
#
# Youngs Moduli (GPa) = 146.41324 94.99147 52.67714
#
# Poissons Ratio (x) = 0.31993 0.19109
# Poissons Ratio (y) = 0.49312 -0.09960
# Poissons Ratio (z) = 0.53113 -0.17960
#
# Static dielectric constant tensor:
#      x y z
#    x -0.294050 0.000000 -0.469070 
#    y 0.000000 1.743500 0.000000 
#    z -0.469070 0.000000 1.971100 
# 
# From -- ./inp_files/23560.got.cif
#   From: 2010.05.17/outbox.cif.g08.bks.cpg/sg15_12_cif.got.tgz:23560.got - 2010.06.03 18:47:42.
