data_PCOD9308337
_publ_section_title
;
Structure prediction by ZEFSAII (Michael W. Deem and Ramdas Pophale) SiO2 
 PCOD9308337
Probable space group: C 2/C
;
_chemical_formula_sum "Si O2"
_cell_formula_units_Z 48
_cell_length_a 25.734269
_cell_length_b 9.217681
_cell_length_c 15.685112
_cell_angle_alpha 90.000000
_cell_angle_beta 31.856743
_cell_angle_gamma 90.000000
_cell_volume 1963.759239
_symmetry_space_group_name_H-M "C 2/C"
_symmetry_group_IT_number 15
_symmetry_cell_setting 'monoclinic'
loop_
_space_group_symop_operation_xyz
x,y,z
-x,y,1/2-z
-x,-y,-z
x,-y,1/2+z
1/2+x,1/2+y,z
1/2-x,1/2+y,1/2-z
1/2-x,1/2-y,-z
1/2+x,1/2-y,1/2+z
loop_
_atom_site_type_symbol
_atom_site_label
_atom_site_fract_x
_atom_site_fract_y
_atom_site_fract_z
Si Si1 0.290586 0.941967 0.824198
Si Si2 0.381011 0.678338 0.770542
Si Si3 0.500000 0.500000 0.000000
Si Si4 0.380600 0.922296 0.515974
Si Si5 0.417604 0.412368 0.935183
Si Si6 0.245059 0.589168 0.469990
Si Si7 0.500000 0.836953 0.750000
O O1 0.293023 0.775168 0.852778
O O2 0.328644 0.016871 0.858418
O O3 0.352807 0.949774 0.652104
O O4 0.188174 0.023712 0.946593
O O5 0.462042 0.663205 0.584237
O O6 0.342087 0.512290 0.834071
O O7 0.427423 0.741719 0.791861
O O8 0.441531 0.484300 0.991367
O O9 0.442616 0.055546 0.393353
O O10 0.422425 0.761288 0.442481
O O11 0.287212 0.914785 0.582325
O O12 0.500000 0.444920 0.750000
O O13 0.250000 0.750000 0.500000
#
# Coordination Sequence:
#
# PCOD9308337 Si02
#       7
#     8   8   4   8   8   8   4
#     4  12  27  51  82 121 159 220 275 335 414 506
#     4  12  29  51  79 117 166 215 278 345 418 490
#     4  12  28  50  80 118 164 218 274 342 408 504
#     4  12  27  50  81 118 170 214 276 340 417 499
#     4  12  27  52  86 120 166 218 278 345 422 496
#     4  12  27  49  80 115 157 217 275 341 418 493
#     4  12  30  50  82 120 170 216 280 354 406 494
#
# _framework density 24.442916
#
# number of rings (size 3 to 8) (size 9 to 14) (size 15 to 20)
#    0.000    0.000    5.833    2.500    3.500    2.000 
#    0.000    0.000    0.000    0.000    0.000    0.000 
#    0.000    0.000    0.000    0.000    0.000    0.000 
#
# Total GULP energy -133687.333437 kJ/mol
# GULP energy per Si atom -5570.305560 kJ/mol
# Density = 2.438728 g / cm^3
# Si number density = 24.442916 Si / 1000 Ang^3
#
#
#
# Elastic Constant Matrix: (Units=GPa)
#
#
# Indices 1 2 3 4 5 6 
#
# 1 101.2068 16.4164 8.4262 -0.0001 14.3219 -0.0001
# 2 16.4164 116.2437 2.0382 -0.0005 -27.1113 0.0003
# 3 8.4262 2.0382 53.9766 -0.0002 8.5875 0.0001
# 4 -0.0001 -0.0005 -0.0002 44.5250 0.0001 1.1699
# 5 14.3219 -27.1113 8.5875 0.0001 32.7155 0.0000
# 6 -0.0001 0.0003 0.0001 1.1699 0.0000 58.1929
#
#
#
# Elastic Compliance Matrix: (Units=1/GPa)
#
#
# Indices 1 2 3 4 5 6 
#
# 1 0.011583 -0.003451 -0.000434 0.000000 -0.007817 0.000000
# 2 -0.003451 0.011879 -0.001791 0.000000 0.011825 0.000000
# 3 -0.000434 -0.001791 0.019690 0.000000 -0.006463 0.000000
# 4 0.000000 0.000000 0.000000 0.022471 0.000000 -0.000452
# 5 -0.007817 0.011825 -0.006463 0.000000 0.045485 0.000000
# 6 0.000000 0.000000 0.000000 -0.000452 0.000000 0.017193
#
#
# Mechanical properties :
#
#
# Convention : Reuss Voigt Hill
#
# Bulk Modulus (GPa) = 31.44742 36.13207 33.78975
# Shear Modulus (GPa) = 33.27683 43.38977 38.33330
#
# Velocity S-wave (km/s) = 3.69373 4.21782 3.96445
# Velocity P-wave (km/s) = 5.57540 6.20760 5.89998
#
# Compressibility (1/GPa) = 0.03179911
#
# Stress axis : x y z
#
# Youngs Moduli (GPa) = 86.33434 84.17893 50.78674
#
# Poissons Ratio (x) = 0.29052 0.02205
# Poissons Ratio (y) = 0.29796 0.09097
# Poissons Ratio (z) = 0.03749 0.15078
#
# Static dielectric constant tensor:
#      x y z
#    x 1.979160 0.000000 -0.106330 
#    y 0.000000 2.017090 0.000000 
#    z -0.106330 0.000000 2.180620 
# 
# From -- ./inp_files/176940.got.cif
#   From: 2010.05.17/outbox.cif.g08.bks.cpg/sg15_89_cif.got.tgz:176940.got - 2010.06.03 18:47:42.
