data_PCOD9308661
_publ_section_title
;
Structure prediction by ZEFSAII (Michael W. Deem and Ramdas Pophale) SiO2 
 PCOD9308661
Probable space group: C 2/C
;
_chemical_formula_sum "Si O2"
_cell_formula_units_Z 22
_cell_length_a 9.000000
_cell_length_b 21.000000
_cell_length_c 12.000000
_cell_angle_alpha 90.000000
_cell_angle_beta 70.000000
_cell_angle_gamma 90.000000
_cell_volume 2131.222864
_symmetry_space_group_name_H-M "C 2/C"
_symmetry_group_IT_number 15
_symmetry_cell_setting 'monoclinic'
loop_
_space_group_symop_operation_xyz
x,y,z
-x,y,1/2-z
-x,-y,-z
x,-y,1/2+z
1/2+x,1/2+y,z
1/2-x,1/2+y,1/2-z
1/2-x,1/2-y,-z
1/2+x,1/2-y,1/2+z
loop_
_atom_site_type_symbol
_atom_site_label
_atom_site_fract_x
_atom_site_fract_y
_atom_site_fract_z
Si Si1 0.597030 0.794875 0.538166
Si Si2 0.000000 0.613828 0.250000
Si Si3 0.735745 0.972164 0.818468
Si Si4 0.740496 0.122275 0.830683
Si Si5 0.022702 0.058212 0.077666
Si Si6 0.458898 0.665508 0.593401
O O1 0.750000 0.750000 0.500000
O O2 0.600570 0.840180 0.644514
O O3 0.603748 0.837693 0.425962
O O4 0.462121 0.741613 0.582779
O O5 0.907394 0.568203 0.190389
O O6 0.802285 0.949655 0.918792
O O7 0.881797 0.954914 0.699792
O O8 0.708907 0.047449 0.832541
O O9 0.798189 0.144931 0.695392
O O10 0.894827 0.138255 0.868601
O O11 0.014655 0.127589 0.026675
O O12 0.000000 0.000000 0.000000
#
# Coordination Sequence:
#
# PCOD9308661 Si02
#       6
#     8   4   8   8   8   8
#     4  10  21  37  60  86 122 170 210 243 309 384
#     4  12  26  42  60  94 134 164 202 266 318 372
#     4  11  23  37  62  95 126 161 206 260 320 365
#     4  10  18  33  57  89 119 156 207 249 309 370
#     4  11  19  38  66  94 121 159 215 258 302 377
#     4  10  18  34  64  88 113 159 215 256 293 374
#
# _framework density 10.322711999999999
#
# number of rings (size 3 to 8) (size 9 to 14) (size 15 to 20)
#    0.000    1.455    3.636    5.455    0.000    0.727 
#    0.000    0.909    0.000    8.727    0.000    0.000 
#    0.000    0.000    0.000    0.000    0.000    0.000 
#
# Total GULP energy -122622.861173 kJ/mol
# GULP energy per Si atom -5573.766417 kJ/mol
# Density = 1.029922 g / cm^3
# Si number density = 10.322712 Si / 1000 Ang^3
#
#
#
# Elastic Constant Matrix: (Units=GPa)
#
#
# Indices 1 2 3 4 5 6 
#
# 1 53.2833 33.1580 12.2365 0.0000 16.8984 0.0000
# 2 33.1580 160.0916 52.3055 0.0000 6.4831 0.0000
# 3 12.2365 52.3055 50.6869 0.0000 1.4826 0.0000
# 4 0.0000 0.0000 0.0000 -42.4042 0.0000 48.8001
# 5 16.8984 6.4831 1.4826 0.0000 17.0839 0.0000
# 6 0.0000 0.0000 0.0000 48.8001 0.0000 -11.7526
#
#
#
# Elastic Compliance Matrix: (Units=1/GPa)
#
#
# Indices 1 2 3 4 5 6 
#
# 1 0.031336 -0.004707 -0.001858 0.000000 -0.029048 0.000000
# 2 -0.004707 0.010260 -0.009498 0.000000 0.001586 0.000000
# 3 -0.001858 -0.009498 0.029896 0.000000 0.002848 0.000000
# 4 0.000000 0.000000 0.000000 0.006241 0.000000 0.025915
# 5 -0.029048 0.001586 0.002848 0.000000 0.086418 0.000000
# 6 0.000000 0.000000 0.000000 0.025915 0.000000 0.022518
#
#
# Mechanical properties :
#
#
# Convention : Reuss Voigt Hill
#
# Bulk Modulus (GPa) = 25.40293 51.05132 38.22713
# Shear Modulus (GPa) = 21.55947 3.67621 12.61784
#
# Velocity S-wave (km/s) = 3.23503 1.33586 2.47487
# Velocity P-wave (km/s) = 5.12689 5.21159 5.16941
#
# Compressibility (1/GPa) = 0.03936554
#
# Stress axis : x y z
#
# Youngs Moduli (GPa) = 31.91254 97.46349 33.44983
#
# Poissons Ratio (x) = 0.45874 0.06216
# Poissons Ratio (y) = 0.15020 0.31771
# Poissons Ratio (z) = 0.05930 0.92571
#
# Static dielectric constant tensor:
#      x y z
#    x 1.778500 0.000000 0.007300 
#    y 0.000000 1.712950 0.000000 
#    z 0.007300 0.000000 1.807020 
# 
# From -- ./inp_files/78115.got.cif
#   From: 2010.05.17/outbox.ucp.g08.bks.cvg/sg15_40_cif.got.tgz:78115.got - 2010.06.11 12:40:34.
