data_PCOD9308654
_publ_section_title
;
Structure prediction by ZEFSAII (Michael W. Deem and Ramdas Pophale) SiO2 
 PCOD9308654
Probable space group: C 2/C
;
_chemical_formula_sum "Si O2"
_cell_formula_units_Z 28
_cell_length_a 18.000000
_cell_length_b 21.000000
_cell_length_c 15.000000
_cell_angle_alpha 90.000000
_cell_angle_beta 30.000000
_cell_angle_gamma 90.000000
_cell_volume 2835.000000
_symmetry_space_group_name_H-M "C 2/C"
_symmetry_group_IT_number 15
_symmetry_cell_setting 'monoclinic'
loop_
_space_group_symop_operation_xyz
x,y,z
-x,y,1/2-z
-x,-y,-z
x,-y,1/2+z
1/2+x,1/2+y,z
1/2-x,1/2+y,1/2-z
1/2-x,1/2-y,-z
1/2+x,1/2-y,1/2+z
loop_
_atom_site_type_symbol
_atom_site_label
_atom_site_fract_x
_atom_site_fract_y
_atom_site_fract_z
Si Si1 0.370345 0.011068 0.495688
Si Si2 0.656245 0.524058 0.376729
Si Si3 0.644846 0.658860 0.319273
Si Si4 0.622559 0.745583 0.844851
Si Si5 0.840480 0.424658 0.276492
Si Si6 0.833360 0.917748 0.887850
Si Si7 0.615064 0.151710 0.956522
O O1 0.397118 0.087368 0.470377
O O2 0.290429 0.992932 0.670883
O O3 0.517435 0.967396 0.343925
O O4 0.250877 0.983986 0.549721
O O5 0.500000 0.500000 0.500000
O O6 0.649353 0.600713 0.387568
O O7 0.706130 0.476171 0.402096
O O8 0.494233 0.699149 0.485143
O O9 0.776242 0.708987 0.198921
O O10 0.658673 0.623036 0.211198
O O11 0.738922 0.695817 0.678238
O O12 0.521928 0.798104 0.896438
O O13 0.775838 0.385225 0.426520
O O14 0.871655 0.379685 0.157993
O O15 0.000000 0.924416 0.750000
#
# Coordination Sequence:
#
# PCOD9308654 Si02
#       7
#     8   8   8   8   8   8   8
#     4  10  20  34  54  78 106 137 174 224 273 311
#     4  10  18  32  56  80 103 134 173 226 274 305
#     4  10  20  36  51  77 109 140 181 217 252 311
#     4  10  20  33  54  75 105 147 181 209 250 305
#     4  11  20  34  56  81 109 140 172 220 273 316
#     4  11  22  36  53  79 109 139 174 222 272 316
#     4  10  19  35  53  80 107 135 177 216 254 314
#
# _framework density 9.8765429999999999
#
# number of rings (size 3 to 8) (size 9 to 14) (size 15 to 20)
#    0.000    1.714    0.000    9.000    0.000    0.000 
#    0.000    7.857    0.000    0.000    0.000   25.000 
#    0.000    0.000    0.000    0.000    0.000    0.000 
#
# Total GULP energy -156001.361927 kJ/mol
# GULP energy per Si atom -5571.477212 kJ/mol
# Density = 0.985406 g / cm^3
# Si number density = 9.876543 Si / 1000 Ang^3
#
#
#
# Elastic Constant Matrix: (Units=GPa)
#
#
# Indices 1 2 3 4 5 6 
#
# 1 36.0537 6.9770 7.2147 -0.0064 -25.2122 0.0076
# 2 6.9770 114.9774 13.6976 -0.0235 -25.0124 0.0239
# 3 7.2147 13.6976 83.0107 -0.0129 -33.0077 0.0197
# 4 -0.0064 -0.0235 -0.0129 37.5437 0.0028 -11.7831
# 5 -25.2122 -25.0124 -33.0077 0.0028 37.5888 -0.0016
# 6 0.0076 0.0239 0.0197 -11.7831 -0.0016 26.1986
#
#
#
# Elastic Compliance Matrix: (Units=1/GPa)
#
#
# Indices 1 2 3 4 5 6 
#
# 1 0.073988 0.009210 0.021849 0.000008 0.074941 -0.000038
# 2 0.009210 0.011448 0.004296 0.000005 0.017568 -0.000013
# 3 0.021849 0.004296 0.025203 0.000004 0.039644 -0.000025
# 4 0.000008 0.000005 0.000004 0.031013 0.000011 0.013949
# 5 0.074941 0.017568 0.039644 0.000011 0.123372 -0.000055
# 6 -0.000038 -0.000013 -0.000025 0.013949 -0.000055 0.044444
#
#
# Mechanical properties :
#
#
# Convention : Reuss Voigt Hill
#
# Bulk Modulus (GPa) = 5.51424 32.20227 18.85826
# Shear Modulus (GPa) = 16.71078 34.00973 25.36026
#
# Velocity S-wave (km/s) = 2.91173 4.15389 3.58699
# Velocity P-wave (km/s) = 3.75525 6.27250 5.16943
#
# Compressibility (1/GPa) = 0.18134853
#
# Stress axis : x y z
#
# Youngs Moduli (GPa) = 13.51577 87.34772 39.67824
#
# Poissons Ratio (x) = -0.80449 -0.86691
# Poissons Ratio (y) = -0.12448 -0.17046
# Poissons Ratio (z) = -0.29530 -0.37525
#
# Static dielectric constant tensor:
#      x y z
#    x 1.811130 -0.000010 0.049030 
#    y -0.000010 1.699400 0.000000 
#    z 0.049030 0.000000 1.745930 
# 
# From -- ./inp_files/56480.got.cif
#   From: 2010.05.17/outbox.ucp.g08.bks.cvg/sg15_29_cif.got.tgz:56480.got - 2010.06.11 12:40:34.
