data_PCOD9308105
_publ_section_title
;
Structure prediction by ZEFSAII (Michael W. Deem and Ramdas Pophale) SiO2 
 PCOD9308105
Probable space group: C 2/C
;
_chemical_formula_sum "Si O2"
_cell_formula_units_Z 48
_cell_length_a 9.162964
_cell_length_b 25.774419
_cell_length_c 14.937118
_cell_angle_alpha 90.000000
_cell_angle_beta 38.139999
_cell_angle_gamma 90.000000
_cell_volume 2178.655098
_symmetry_space_group_name_H-M "C 2/C"
_symmetry_group_IT_number 15
_symmetry_cell_setting 'monoclinic'
loop_
_space_group_symop_operation_xyz
x,y,z
-x,y,1/2-z
-x,-y,-z
x,-y,1/2+z
1/2+x,1/2+y,z
1/2-x,1/2+y,1/2-z
1/2-x,1/2-y,-z
1/2+x,1/2-y,1/2+z
loop_
_atom_site_type_symbol
_atom_site_label
_atom_site_fract_x
_atom_site_fract_y
_atom_site_fract_z
Si Si1 0.304959 0.385726 0.912531
Si Si2 0.097166 0.025554 0.361896
Si Si3 0.365443 0.870619 0.006815
Si Si4 0.000000 0.599819 0.250000
Si Si5 0.000000 0.952111 0.250000
Si Si6 0.768823 0.254131 0.094000
Si Si7 0.253355 0.794287 0.424757
O O1 0.500000 0.362075 0.750000
O O2 0.404318 0.437433 0.908523
O O3 0.249641 0.348085 0.021210
O O4 0.087088 0.394208 0.952533
O O5 0.308588 0.062127 0.294994
O O6 0.000000 0.000000 0.500000
O O7 0.139338 0.985300 0.259180
O O8 0.320974 0.816099 0.080734
O O9 0.163865 0.913074 0.115417
O O10 0.410045 0.866527 0.878446
O O11 0.500000 0.242357 0.250000
O O12 0.750000 0.250000 0.000000
O O13 0.993838 0.217622 0.008326
O O14 0.500000 0.790146 0.250000
O O15 0.250000 0.750000 0.500000
#
# Coordination Sequence:
#
# PCOD9308105 Si02
#       7
#     8   8   8   4   4   8   8
#     4  12  27  49  77 108 149 200 254 308 383 451
#     4  12  27  46  74 114 146 200 250 316 380 451
#     4  12  27  48  75 106 151 198 249 312 375 457
#     4  12  26  46  73 106 148 191 252 306 384 444
#     4  12  26  50  77 108 158 195 256 312 384 448
#     4  12  29  46  74 112 151 195 248 313 382 445
#     4  12  27  50  78 110 152 200 254 309 378 463
#
# _framework density 22.031939999999999
#
# number of rings (size 3 to 8) (size 9 to 14) (size 15 to 20)
#    0.000    0.000    6.667    1.500    8.167    2.667 
#    0.000    0.000    0.000    0.000    0.000    0.000 
#    0.000    0.000    0.000    0.000    0.000    0.000 
#
# Total GULP energy -133866.467598 kJ/mol
# GULP energy per Si atom -5577.769483 kJ/mol
# Density = 2.198179 g / cm^3
# Si number density = 22.031940 Si / 1000 Ang^3
#
#
#
# Elastic Constant Matrix: (Units=GPa)
#
#
# Indices 1 2 3 4 5 6 
#
# 1 152.0176 18.4818 51.0850 0.0000 -3.2876 0.0000
# 2 18.4818 86.1046 41.6049 0.0000 4.2125 0.0000
# 3 51.0850 41.6049 176.4824 0.0000 10.2425 0.0000
# 4 0.0000 0.0000 0.0000 46.4760 0.0000 23.1746
# 5 -3.2876 4.2125 10.2425 0.0000 41.9902 0.0000
# 6 0.0000 0.0000 0.0000 23.1746 0.0000 82.2561
#
#
#
# Elastic Compliance Matrix: (Units=1/GPa)
#
#
# Indices 1 2 3 4 5 6 
#
# 1 0.007369 -0.000649 -0.002046 0.000000 0.001141 0.000000
# 2 -0.000649 0.013177 -0.002880 0.000000 -0.000670 0.000000
# 3 -0.002046 -0.002880 0.007030 0.000000 -0.001586 0.000000
# 4 0.000000 0.000000 0.000000 0.025033 0.000000 -0.007053
# 5 0.001141 -0.000670 -0.001586 0.000000 0.024359 0.000000
# 6 0.000000 0.000000 0.000000 -0.007053 0.000000 0.014144
#
#
# Mechanical properties :
#
#
# Convention : Reuss Voigt Hill
#
# Bulk Modulus (GPa) = 60.87806 70.77198 65.82502
# Shear Modulus (GPa) = 46.40892 54.37332 50.39112
#
# Velocity S-wave (km/s) = 4.59457 4.97322 4.78764
# Velocity P-wave (km/s) = 7.47252 8.07275 7.77843
#
# Compressibility (1/GPa) = 0.01642628
#
# Stress axis : x y z
#
# Youngs Moduli (GPa) = 135.69535 75.88795 142.25558
#
# Poissons Ratio (x) = 0.04924 0.29112
# Poissons Ratio (y) = 0.08804 0.40966
# Poissons Ratio (z) = 0.27769 0.21854
#
# Static dielectric constant tensor:
#      x y z
#    x 1.835820 0.000000 0.016970 
#    y 0.000000 1.999370 0.000000 
#    z 0.016970 0.000000 1.870380 
# 
# From -- ./inp_files/138979.got.cif
#   From: 2010.05.17/outbox.cif.g08.bks.cpg/sg15_70_cif.got.tgz:138979.got - 2010.06.03 18:47:42.
