data_PCOD9308799
_publ_section_title
;
Structure prediction by ZEFSAII (Michael W. Deem and Ramdas Pophale) SiO2 
 PCOD9308799
Probable space group: C 2/C
;
_chemical_formula_sum "Si O2"
_cell_formula_units_Z 28
_cell_length_a 15.000000
_cell_length_b 9.000000
_cell_length_c 24.000000
_cell_angle_alpha 90.000000
_cell_angle_beta 70.000000
_cell_angle_gamma 90.000000
_cell_volume 3044.604091
_symmetry_space_group_name_H-M "C 2/C"
_symmetry_group_IT_number 15
_symmetry_cell_setting 'monoclinic'
loop_
_space_group_symop_operation_xyz
x,y,z
-x,y,1/2-z
-x,-y,-z
x,-y,1/2+z
1/2+x,1/2+y,z
1/2-x,1/2+y,1/2-z
1/2-x,1/2-y,-z
1/2+x,1/2-y,1/2+z
loop_
_atom_site_type_symbol
_atom_site_label
_atom_site_fract_x
_atom_site_fract_y
_atom_site_fract_z
Si Si1 0.732873 0.126468 0.333769
Si Si2 0.441792 0.254408 0.600212
Si Si3 0.424250 0.244688 0.314287
Si Si4 0.857947 0.800821 0.493939
Si Si5 0.885272 0.961630 0.895959
Si Si6 0.989788 0.410543 0.601408
Si Si7 0.738309 0.791545 0.286389
O O1 0.802265 0.114173 0.374150
O O2 0.621116 0.142981 0.374469
O O3 0.755449 0.247430 0.280296
O O4 0.744150 0.968011 0.298972
O O5 0.388997 0.303409 0.553066
O O6 0.528804 0.353462 0.604729
O O7 0.360628 0.256882 0.664889
O O8 0.480556 0.084109 0.586710
O O9 0.500000 0.268369 0.250000
O O10 0.416511 0.395899 0.352072
O O11 0.464241 0.117200 0.347036
O O12 0.324222 0.219126 0.304247
O O13 0.750000 0.750000 0.500000
O O14 0.937892 0.687019 0.451816
O O15 0.860343 0.958318 0.460433
#
# Coordination Sequence:
#
# PCOD9308799 Si02
#       7
#     8   8   8   8   8   8   8
#     4  10  21  39  57  89 121 159 199 244 304 356
#     4  11  23  39  59  95 121 156 203 254 308 344
#     4  10  19  37  59  85 116 166 202 233 297 365
#     4  11  22  44  68  84 117 163 204 249 300 377
#     4  10  24  38  60  88 124 153 202 247 304 352
#     4  10  21  39  62  88 119 157 203 250 299 361
#     4  10  22  36  60  86 124 158 203 244 296 365
#
# _framework density 9.1965979999999998
#
# number of rings (size 3 to 8) (size 9 to 14) (size 15 to 20)
#    0.000    1.714    1.429    4.286    4.000    1.143 
#    0.000    5.714    0.000    0.000    0.000    0.000 
#    0.000    0.000    0.000    0.000    0.000    0.000 
#
# Total GULP energy -156005.151796 kJ/mol
# GULP energy per Si atom -5571.612564 kJ/mol
# Density = 0.917567 g / cm^3
# Si number density = 9.196598 Si / 1000 Ang^3
#
#
#
# Elastic Constant Matrix: (Units=GPa)
#
#
# Indices 1 2 3 4 5 6 
#
# 1 169.5667 43.2860 36.3147 0.0000 5.6219 0.0000
# 2 43.2860 42.9673 16.7364 0.0000 -1.8545 0.0000
# 3 36.3147 16.7364 71.5416 0.0000 6.2788 0.0000
# 4 0.0000 0.0000 0.0000 32.9235 0.0000 1.5615
# 5 5.6219 -1.8545 6.2788 0.0000 43.3346 0.0000
# 6 0.0000 0.0000 0.0000 1.5615 0.0000 40.1397
#
#
#
# Elastic Compliance Matrix: (Units=1/GPa)
#
#
# Indices 1 2 3 4 5 6 
#
# 1 0.008371 -0.007548 -0.002390 0.000000 -0.001063 0.000000
# 2 -0.007548 0.032584 -0.004051 0.000000 0.002961 0.000000
# 3 -0.002390 -0.004051 0.016335 0.000000 -0.002230 0.000000
# 4 0.000000 0.000000 0.000000 0.030430 0.000000 -0.001184
# 5 -0.001063 0.002961 -0.002230 0.000000 0.023664 0.000000
# 6 0.000000 0.000000 0.000000 -0.001184 0.000000 0.024959
#
#
# Mechanical properties :
#
#
# Convention : Reuss Voigt Hill
#
# Bulk Modulus (GPa) = 34.11735 52.97222 43.54479
# Shear Modulus (GPa) = 28.72059 35.79545 32.25802
#
# Velocity S-wave (km/s) = 3.95584 4.41628 4.19238
# Velocity P-wave (km/s) = 6.28125 7.40723 6.86736
#
# Compressibility (1/GPa) = 0.02931060
#
# Stress axis : x y z
#
# Youngs Moduli (GPa) = 119.45412 30.69035 61.22002
#
# Poissons Ratio (x) = 0.23166 0.14633
# Poissons Ratio (y) = 0.90168 0.24799
# Poissons Ratio (z) = 0.28552 0.12432
#
# Static dielectric constant tensor:
#      x y z
#    x 1.636760 0.000000 -0.011310 
#    y 0.000000 1.654520 0.000000 
#    z -0.011310 0.000000 1.663820 
# 
# From -- ./inp_files/272648.got.cif
#   From: 2010.05.17/outbox.ucp.g08.bks.cvg/sg15_137_cif.got.tgz:272648.got - 2010.06.11 12:40:34.
