data_PCOD9308656
_publ_section_title
;
Structure prediction by ZEFSAII (Michael W. Deem and Ramdas Pophale) SiO2 
 PCOD9308656
Probable space group: C 2/C
;
_chemical_formula_sum "Si O2"
_cell_formula_units_Z 28
_cell_length_a 18.000000
_cell_length_b 12.000000
_cell_length_c 15.000000
_cell_angle_alpha 90.000000
_cell_angle_beta 60.000000
_cell_angle_gamma 90.000000
_cell_volume 2805.922308
_symmetry_space_group_name_H-M "C 2/C"
_symmetry_group_IT_number 15
_symmetry_cell_setting 'monoclinic'
loop_
_space_group_symop_operation_xyz
x,y,z
-x,y,1/2-z
-x,-y,-z
x,-y,1/2+z
1/2+x,1/2+y,z
1/2-x,1/2+y,1/2-z
1/2-x,1/2-y,-z
1/2+x,1/2-y,1/2+z
loop_
_atom_site_type_symbol
_atom_site_label
_atom_site_fract_x
_atom_site_fract_y
_atom_site_fract_z
Si Si1 0.498352 0.405249 0.375862
Si Si2 0.760228 0.438437 0.989188
Si Si3 0.631147 0.242256 0.008156
Si Si4 0.327572 0.479399 0.272463
Si Si5 0.106354 0.223015 0.315614
Si Si6 0.251584 0.867898 0.355793
Si Si7 0.431102 0.636724 0.465624
O O1 0.449825 0.291429 0.392730
O O2 0.580726 0.421433 0.266085
O O3 0.437833 0.515146 0.414434
O O4 0.533251 0.390522 0.456778
O O5 0.845454 0.375683 0.967078
O O6 0.722196 0.484657 0.105079
O O7 0.701827 0.338354 0.984578
O O8 0.773185 0.529454 0.906477
O O9 0.620923 0.236335 0.907995
O O10 0.355353 0.598511 0.216384
O O11 0.278916 0.412257 0.223414
O O12 0.164863 0.293020 0.212444
O O13 0.002423 0.211078 0.371923
O O14 0.165342 0.819978 0.457745
#
# Coordination Sequence:
#
# PCOD9308656 Si02
#       7
#     8   8   8   8   8   8   8
#     4   8  14  30  53  77 117 139 184 251 293 336
#     4  11  21  31  55  87 121 148 196 250 292 361
#     4  10  18  33  53  86 114 150 197 250 293 347
#     4  10  20  34  54  87 116 153 197 244 307 348
#     4  10  19  35  59  80 118 164 197 243 300 355
#     4  11  19  35  57  86 121 159 192 252 299 356
#     4   8  15  30  52  83 110 148 194 237 288 352
#
# _framework density 9.9788940000000004
#
# number of rings (size 3 to 8) (size 9 to 14) (size 15 to 20)
#    0.000    2.286    4.286    1.714    0.000    1.143 
#    0.000    0.000    0.000    0.857   14.857    0.000 
#    0.000    0.000    0.000    0.000    0.000    0.000 
#
# Total GULP energy -155998.787038 kJ/mol
# GULP energy per Si atom -5571.385251 kJ/mol
# Density = 0.995618 g / cm^3
# Si number density = 9.978894 Si / 1000 Ang^3
#
#
#
# Elastic Constant Matrix: (Units=GPa)
#
#
# Indices 1 2 3 4 5 6 
#
# 1 53.2666 38.4123 38.3358 0.0000 -12.8180 0.0000
# 2 38.4123 46.8499 35.4968 0.0000 -23.5868 0.0000
# 3 38.3358 35.4968 104.8392 0.0000 -16.7072 0.0000
# 4 0.0000 0.0000 0.0000 35.7162 0.0000 -8.2818
# 5 -12.8180 -23.5868 -16.7072 0.0000 20.1197 0.0000
# 6 0.0000 0.0000 0.0000 -8.2818 0.0000 28.1919
#
#
#
# Elastic Compliance Matrix: (Units=1/GPa)
#
#
# Indices 1 2 3 4 5 6 
#
# 1 0.063586 -0.071822 -0.006795 0.000000 -0.049332 0.000000
# 2 -0.071822 0.142043 -0.002980 0.000000 0.118289 0.000000
# 3 -0.006795 -0.002980 0.013583 0.000000 0.003457 0.000000
# 4 0.000000 0.000000 0.000000 0.030045 0.000000 0.008826
# 5 -0.049332 0.118289 0.003457 0.000000 0.159818 0.000000
# 6 0.000000 0.000000 0.000000 0.008826 0.000000 0.038064
#
#
# Mechanical properties :
#
#
# Convention : Reuss Voigt Hill
#
# Bulk Modulus (GPa) = 17.85147 47.71617 32.78382
# Shear Modulus (GPa) = 7.94905 22.98627 15.46766
#
# Velocity S-wave (km/s) = 1.99789 3.39742 2.78694
# Velocity P-wave (km/s) = 3.77970 6.27299 5.17863
#
# Compressibility (1/GPa) = 0.05601781
#
# Stress axis : x y z
#
# Youngs Moduli (GPa) = 15.72675 7.04011 73.62226
#
# Poissons Ratio (x) = 0.50564 0.50024
# Poissons Ratio (y) = 1.12953 0.21940
# Poissons Ratio (z) = 0.10686 0.02098
#
# Static dielectric constant tensor:
#      x y z
#    x 1.809140 0.000000 -0.010380 
#    y 0.000000 1.683190 0.000000 
#    z -0.010380 0.000000 1.696090 
# 
# From -- ./inp_files/161247.got.cif
#   From: 2010.05.17/outbox.ucp.g08.bks.cvg/sg15_81_cif.got.tgz:161247.got - 2010.06.11 12:40:34.
