data_PCOD9308339
_publ_section_title
;
Structure prediction by ZEFSAII (Michael W. Deem and Ramdas Pophale) SiO2 
 PCOD9308339
Probable space group: C 2/C
;
_chemical_formula_sum "Si O2"
_cell_formula_units_Z 24
_cell_length_a 7.694723
_cell_length_b 24.102194
_cell_length_c 5.442986
_cell_angle_alpha 90.000000
_cell_angle_beta 96.127143
_cell_angle_gamma 90.000000
_cell_volume 1003.688068
_symmetry_space_group_name_H-M "C 2/C"
_symmetry_group_IT_number 15
_symmetry_cell_setting 'monoclinic'
loop_
_space_group_symop_operation_xyz
x,y,z
-x,y,1/2-z
-x,-y,-z
x,-y,1/2+z
1/2+x,1/2+y,z
1/2-x,1/2+y,1/2-z
1/2-x,1/2-y,-z
1/2+x,1/2-y,1/2+z
loop_
_atom_site_type_symbol
_atom_site_label
_atom_site_fract_x
_atom_site_fract_y
_atom_site_fract_z
Si Si1 0.684323 0.189160 0.920683
Si Si2 0.271241 0.535183 0.486119
Si Si3 0.500000 0.620249 0.750000
Si Si4 0.500000 0.111457 0.250000
O O1 0.500000 0.193049 0.750000
O O2 0.837263 0.158203 0.798153
O O3 0.750000 0.250000 0.000000
O O4 0.642309 0.150924 0.148256
O O5 0.274836 0.501921 0.231746
O O6 0.430770 0.578415 0.530580
O O7 0.094601 0.571619 0.458024
#
# Coordination Sequence:
#
# PCOD9308339 Si02
#       4
#     8   8   4   4
#     4  12  29  52  80 116 157 209 269 337 407 479
#     4  12  27  49  81 121 165 217 269 328 401 485
#     4  12  27  52  82 118 164 208 269 332 402 482
#     4  12  27  50  80 118 164 208 269 336 400 480
#
# _framework density 23.911814
#
# number of rings (size 3 to 8) (size 9 to 14) (size 15 to 20)
#    0.000    0.000    3.333    5.000    4.667    5.333 
#    0.000    0.000    0.000    0.000    0.000    0.000 
#    0.000    0.000    0.000    0.000    0.000    0.000 
#
# Total GULP energy -67304.755009 kJ/mol
# GULP energy per Si atom -5608.729584 kJ/mol
# Density = 2.385739 g / cm^3
# Si number density = 23.911814 Si / 1000 Ang^3
#
#
#
# Elastic Constant Matrix: (Units=GPa)
#
#
# Indices 1 2 3 4 5 6 
#
# 1 169.5244 100.3977 71.8585 0.0000 2.0170 0.0000
# 2 100.3977 207.1181 109.3288 0.0000 8.0772 0.0000
# 3 71.8585 109.3288 153.4253 0.0000 3.0525 0.0000
# 4 0.0000 0.0000 0.0000 52.9318 0.0000 29.2654
# 5 2.0170 8.0772 3.0525 0.0000 46.2540 0.0000
# 6 0.0000 0.0000 0.0000 29.2654 0.0000 86.1512
#
#
#
# Elastic Compliance Matrix: (Units=1/GPa)
#
#
# Indices 1 2 3 4 5 6 
#
# 1 0.008541 -0.003266 -0.001679 0.000000 0.000309 0.000000
# 2 -0.003266 0.009033 -0.004885 0.000000 -0.001113 0.000000
# 3 -0.001679 -0.004885 0.010781 0.000000 0.000215 0.000000
# 4 0.000000 0.000000 0.000000 0.023261 0.000000 -0.007902
# 5 0.000309 -0.001113 0.000215 0.000000 0.021786 0.000000
# 6 0.000000 0.000000 0.000000 -0.007902 0.000000 0.014292
#
#
# Mechanical properties :
#
#
# Convention : Reuss Voigt Hill
#
# Bulk Modulus (GPa) = 115.00999 121.47085 118.24042
# Shear Modulus (GPa) = 45.34979 53.63292 49.49135
#
# Velocity S-wave (km/s) = 4.35966 4.74111 4.55438
# Velocity P-wave (km/s) = 8.57579 8.99337 8.78706
#
# Compressibility (1/GPa) = 0.00869490
#
# Stress axis : x y z
#
# Youngs Moduli (GPa) = 117.08071 110.70073 92.75310
#
# Poissons Ratio (x) = 0.36153 0.15576
# Poissons Ratio (y) = 0.38236 0.45313
# Poissons Ratio (z) = 0.19662 0.54081
#
# Static dielectric constant tensor:
#      x y z
#    x 1.897700 0.000000 0.028690 
#    y 0.000000 1.877340 0.000000 
#    z 0.028690 0.000000 1.912050 
# 
# From -- ./inp_files/1658.got.cif
#   From: 2010.05.17/outbox.cif.g08.bks.cpg/sg15_1_cif.got.tgz:1658.got - 2010.06.03 18:47:42.
