data_PCOD9308699
_publ_section_title
;
Structure prediction by ZEFSAII (Michael W. Deem and Ramdas Pophale) SiO2 
 PCOD9308699
Probable space group: C 2/C
;
_chemical_formula_sum "Si O2"
_cell_formula_units_Z 22
_cell_length_a 9.000000
_cell_length_b 18.000000
_cell_length_c 15.000000
_cell_angle_alpha 90.000000
_cell_angle_beta 80.000000
_cell_angle_gamma 90.000000
_cell_volume 2393.082840
_symmetry_space_group_name_H-M "C 2/C"
_symmetry_group_IT_number 15
_symmetry_cell_setting 'monoclinic'
loop_
_space_group_symop_operation_xyz
x,y,z
-x,y,1/2-z
-x,-y,-z
x,-y,1/2+z
1/2+x,1/2+y,z
1/2-x,1/2+y,1/2-z
1/2-x,1/2-y,-z
1/2+x,1/2-y,1/2+z
loop_
_atom_site_type_symbol
_atom_site_label
_atom_site_fract_x
_atom_site_fract_y
_atom_site_fract_z
Si Si1 0.500000 0.546496 0.750000
Si Si2 0.960086 0.291125 0.647693
Si Si3 0.093598 0.566597 0.040116
Si Si4 0.172998 0.301088 0.221787
Si Si5 0.676171 0.972465 0.196551
Si Si6 0.329381 0.655984 0.890450
O O1 0.668041 0.512516 0.760837
O O2 0.452721 0.598432 0.838104
O O3 0.791438 0.255825 0.664626
O O4 0.000000 0.298680 0.750000
O O5 0.986267 0.369552 0.595335
O O6 0.075021 0.229540 0.592971
O O7 0.182304 0.524594 0.109894
O O8 0.214864 0.611866 0.966851
O O9 0.000000 0.500000 0.000000
O O10 0.176720 0.383510 0.177098
O O11 0.233025 0.317479 0.315124
O O12 0.000000 0.275327 0.250000
O O13 0.500000 0.984939 0.250000
#
# Coordination Sequence:
#
# PCOD9308699 Si02
#       6
#     4   8   8   8   8   8
#     4  10  18  40  68  88 116 168 222 256 300 372
#     4  10  20  40  66  85 117 165 213 250 301 375
#     4  12  24  36  60  96 133 162 196 260 327 374
#     4   9  17  37  67  87 114 167 217 253 302 370
#     4  10  20  38  64  92 124 170 208 256 319 371
#     4  10  19  38  62  86 118 163 210 253 310 365
#
# _framework density 9.1931630000000002
#
# number of rings (size 3 to 8) (size 9 to 14) (size 15 to 20)
#    0.000    1.818    4.545    4.364    0.000    0.727 
#    0.000    3.636   36.000    0.000    0.000    0.000 
#    0.000    0.000    0.000    0.000    0.000    0.000 
#
# Total GULP energy -122476.490088 kJ/mol
# GULP energy per Si atom -5567.113186 kJ/mol
# Density = 0.917224 g / cm^3
# Si number density = 9.193163 Si / 1000 Ang^3
#
#
#
# Elastic Constant Matrix: (Units=GPa)
#
#
# Indices 1 2 3 4 5 6 
#
# 1 152.4603 52.3029 36.4318 0.0000 -15.0929 0.0000
# 2 52.3029 127.0326 58.2325 0.0000 -10.9823 0.0000
# 3 36.4318 58.2325 68.6225 0.0000 -20.5865 0.0000
# 4 0.0000 0.0000 0.0000 42.5312 0.0000 -3.5844
# 5 -15.0929 -10.9823 -20.5865 0.0000 35.2562 0.0000
# 6 0.0000 0.0000 0.0000 -3.5844 0.0000 29.0119
#
#
#
# Elastic Compliance Matrix: (Units=1/GPa)
#
#
# Indices 1 2 3 4 5 6 
#
# 1 0.007937 -0.002325 -0.001744 0.000000 0.001655 0.000000
# 2 -0.002325 0.013810 -0.011508 0.000000 -0.003414 0.000000
# 3 -0.001744 -0.011508 0.029054 0.000000 0.012634 0.000000
# 4 0.000000 0.000000 0.000000 0.023760 0.000000 0.002935
# 5 0.001655 -0.003414 0.012634 0.000000 0.035386 0.000000
# 6 0.000000 0.000000 0.000000 0.002935 0.000000 0.034831
#
#
# Mechanical properties :
#
#
# Convention : Reuss Voigt Hill
#
# Bulk Modulus (GPa) = 50.90150 71.33887 61.12019
# Shear Modulus (GPa) = 27.39980 34.76974 31.08477
#
# Velocity S-wave (km/s) = 3.86453 4.35336 4.11621
# Velocity P-wave (km/s) = 6.90343 8.00956 7.47698
#
# Compressibility (1/GPa) = 0.01964579
#
# Stress axis : x y z
#
# Youngs Moduli (GPa) = 125.98443 72.41200 34.41820
#
# Poissons Ratio (x) = 0.16839 0.06003
# Poissons Ratio (y) = 0.29298 0.39610
# Poissons Ratio (z) = 0.21973 0.83335
#
# Static dielectric constant tensor:
#      x y z
#    x 1.673100 0.000000 0.000020 
#    y 0.000000 1.650800 0.000000 
#    z 0.000020 0.000000 1.664220 
# 
# From -- ./inp_files/134356.got.cif
#   From: 2010.05.17/outbox.ucp.g08.bks.cvg/sg15_68_cif.got.tgz:134356.got - 2010.06.11 12:40:34.
