data_PCOD9308516
_publ_section_title
;
Structure prediction by ZEFSAII (Michael W. Deem and Ramdas Pophale) SiO2 
 PCOD9308516
Probable space group: C 2/C
;
_chemical_formula_sum "Si O2"
_cell_formula_units_Z 32
_cell_length_a 7.335375
_cell_length_b 12.353573
_cell_length_c 15.211748
_cell_angle_alpha 90.000000
_cell_angle_beta 78.071646
_cell_angle_gamma 90.000000
_cell_volume 1348.694233
_symmetry_space_group_name_H-M "C 2/C"
_symmetry_group_IT_number 15
_symmetry_cell_setting 'monoclinic'
loop_
_space_group_symop_operation_xyz
x,y,z
-x,y,1/2-z
-x,-y,-z
x,-y,1/2+z
1/2+x,1/2+y,z
1/2-x,1/2+y,1/2-z
1/2-x,1/2-y,-z
1/2+x,1/2-y,1/2+z
loop_
_atom_site_type_symbol
_atom_site_label
_atom_site_fract_x
_atom_site_fract_y
_atom_site_fract_z
Si Si1 0.021853 0.733376 0.844076
Si Si2 0.857222 0.857794 0.522145
Si Si3 0.542204 0.003329 0.600487
Si Si4 0.661746 0.566007 0.665862
O O1 0.229835 0.680275 0.827581
O O2 0.000000 0.779500 0.750000
O O3 0.904362 0.623465 0.872154
O O4 0.987333 0.815082 0.926980
O O5 0.750000 0.750000 0.500000
O O6 0.709130 0.922430 0.596008
O O7 0.903544 0.924842 0.429575
O O8 0.500000 0.000000 0.500000
O O9 0.336481 0.983826 0.660348
O O10 0.500000 0.548952 0.750000
#
# Coordination Sequence:
#
# PCOD9308516 Si02
#       4
#     8   8   8   8
#     4   9  18  31  56  90 131 165 212 262 316 376
#     4   9  15  30  57  88 125 169 213 258 323 375
#     4   8  15  29  55  84 121 169 209 257 323 373
#     4   8  16  30  54  87 124 163 212 262 316 376
#
# _framework density 23.726655000000001
#
# number of rings (size 3 to 8) (size 9 to 14) (size 15 to 20)
#    1.500    2.000    2.500    0.000    0.000    0.000 
#    0.000    6.250    0.000    7.500    0.000    1.750 
#    0.000    1.250    0.000    0.000    0.000    0.000 
#
# Total GULP energy -89124.840562 kJ/mol
# GULP energy per Si atom -5570.302535 kJ/mol
# Density = 2.367265 g / cm^3
# Si number density = 23.726655 Si / 1000 Ang^3
#
#
#
# Elastic Constant Matrix: (Units=GPa)
#
#
# Indices 1 2 3 4 5 6 
#
# 1 46.9965 22.9495 40.6986 0.0000 -19.0599 0.0000
# 2 22.9495 91.0707 30.6821 0.0000 -11.7814 0.0000
# 3 40.6986 30.6821 135.1282 0.0000 -10.0882 0.0000
# 4 0.0000 0.0000 0.0000 0.0305 0.0000 -4.5056
# 5 -19.0599 -11.7814 -10.0882 0.0000 54.3078 0.0000
# 6 0.0000 0.0000 0.0000 -4.5056 0.0000 26.9918
#
#
#
# Elastic Compliance Matrix: (Units=1/GPa)
#
#
# Indices 1 2 3 4 5 6 
#
# 1 0.035073 -0.004625 -0.008791 0.000000 0.009673 0.000000
# 2 -0.004625 0.012743 -0.001435 0.000000 0.000875 0.000000
# 3 -0.008791 -0.001435 0.010263 0.000000 -0.001490 0.000000
# 4 0.000000 0.000000 0.000000 -1.385816 0.000000 -0.231326
# 5 0.009673 0.000875 -0.001490 0.000000 0.021721 0.000000
# 6 0.000000 0.000000 0.000000 -0.231326 0.000000 -0.001566
#
#
# Mechanical properties :
#
#
# Convention : Reuss Voigt Hill
#
# Bulk Modulus (GPa) = 35.24164 51.31732 43.27948
# Shear Modulus (GPa) = -3.94191 28.19036 12.12422
#
# Velocity S-wave (km/s) = -1.29035 3.45067 2.26297
# Velocity P-wave (km/s) = 3.55885 6.12794 5.01084
#
# Compressibility (1/GPa) = 0.02837553
#
# Stress axis : x y z
#
# Youngs Moduli (GPa) = 28.51233 78.47702 97.44037
#
# Poissons Ratio (x) = 0.36296 0.85660
# Poissons Ratio (y) = 0.13187 0.13983
# Poissons Ratio (z) = 0.25065 0.11262
#
# Static dielectric constant tensor:
#      x y z
#    x 2.024960 0.000000 0.028120 
#    y 0.000000 1.959320 0.000000 
#    z 0.028120 0.000000 2.062110 
# 
# From -- ./inp_files/132294.got.cif
#   From: 2010.05.17/outbox.cif.g08.bks.cpg/sg15_67_cif.got.tgz:132294.got - 2010.06.03 18:47:42.
