data_PCOD9308542
_publ_section_title
;
Structure prediction by ZEFSAII (Michael W. Deem and Ramdas Pophale) SiO2 
 PCOD9308542
Probable space group: C 2/C
;
_chemical_formula_sum "Si O2"
_cell_formula_units_Z 40
_cell_length_a 12.904533
_cell_length_b 12.125082
_cell_length_c 9.402989
_cell_angle_alpha 90.000000
_cell_angle_beta 75.542359
_cell_angle_gamma 90.000000
_cell_volume 1424.680255
_symmetry_space_group_name_H-M "C 2/C"
_symmetry_group_IT_number 15
_symmetry_cell_setting 'monoclinic'
loop_
_space_group_symop_operation_xyz
x,y,z
-x,y,1/2-z
-x,-y,-z
x,-y,1/2+z
1/2+x,1/2+y,z
1/2-x,1/2+y,1/2-z
1/2-x,1/2-y,-z
1/2+x,1/2-y,1/2+z
loop_
_atom_site_type_symbol
_atom_site_label
_atom_site_fract_x
_atom_site_fract_y
_atom_site_fract_z
Si Si1 0.581287 0.752747 0.847316
Si Si2 0.299697 0.625470 0.550617
Si Si3 0.387776 0.573011 0.219804
Si Si4 0.302519 0.207727 0.628235
Si Si5 0.660124 0.033633 0.443948
O O1 0.500000 0.732915 0.750000
O O2 0.574849 0.682257 0.990022
O O3 0.698021 0.694051 0.767228
O O4 0.597506 0.881230 0.868591
O O5 0.250000 0.750000 0.500000
O O6 0.349296 0.507709 0.610167
O O7 0.170682 0.572734 0.601028
O O8 0.500000 0.541571 0.250000
O O9 0.370169 0.696464 0.172495
O O10 0.291494 0.560413 0.375664
O O11 0.250000 0.250000 0.500000
O O12 0.358668 0.093394 0.572868
#
# Coordination Sequence:
#
# PCOD9308542 Si02
#       5
#     8   8   8   8   8
#     4   9  17  32  53  74  97 131 168 202 242 293
#     4   8  17  36  55  66  99 144 163 186 253 312
#     4   9  17  32  53  74  97 131 168 202 242 293
#     4   9  17  32  53  74  97 131 168 202 242 293
#     4   9  17  32  53  74  97 131 168 202 242 293
#
# _framework density 28.076477000000001
#
# number of rings (size 3 to 8) (size 9 to 14) (size 15 to 20)
#    2.400    0.800    0.000    2.400    0.000    1.600 
#    0.000    6.000    0.000    9.600    0.000    0.000 
#    0.000    0.000    0.000    0.000    0.000    0.000 
#
# Total GULP energy -111384.844281 kJ/mol
# GULP energy per Si atom -5569.242214 kJ/mol
# Density = 2.801257 g / cm^3
# Si number density = 28.076477 Si / 1000 Ang^3
#
#
#
# Elastic Constant Matrix: (Units=GPa)
#
#
# Indices 1 2 3 4 5 6 
#
# 1 126.4482 32.4673 48.4162 0.0000 20.0424 0.0000
# 2 32.4673 270.4284 53.6172 0.0000 38.7425 0.0000
# 3 48.4162 53.6172 135.1921 0.0000 32.2567 0.0000
# 4 0.0000 0.0000 0.0000 56.6911 0.0000 23.9726
# 5 20.0424 38.7425 32.2567 0.0000 67.1833 0.0000
# 6 0.0000 0.0000 0.0000 23.9726 0.0000 7.8119
#
#
#
# Elastic Compliance Matrix: (Units=1/GPa)
#
#
# Indices 1 2 3 4 5 6 
#
# 1 0.009301 -0.000374 -0.002905 0.000000 -0.001164 0.000000
# 2 -0.000374 0.004219 -0.001113 0.000000 -0.001787 0.000000
# 3 -0.002905 -0.001113 0.009621 0.000000 -0.003111 0.000000
# 4 0.000000 0.000000 0.000000 -0.059259 0.000000 0.181852
# 5 -0.001164 -0.001787 -0.003111 0.000000 0.017756 0.000000
# 6 0.000000 0.000000 0.000000 0.181852 0.000000 -0.430048
#
#
# Mechanical properties :
#
#
# Convention : Reuss Voigt Hill
#
# Bulk Modulus (GPa) = 69.64885 89.00779 79.32832
# Shear Modulus (GPa) = -11.49850 52.84178 20.67164
#
# Velocity S-wave (km/s) = -2.02591 4.34298 2.71636
# Velocity P-wave (km/s) = 4.40321 7.54450 6.17688
#
# Compressibility (1/GPa) = 0.01435774
#
# Stress axis : x y z
#
# Youngs Moduli (GPa) = 107.51280 236.99676 103.94040
#
# Poissons Ratio (x) = 0.08862 0.30194
# Poissons Ratio (y) = 0.04020 0.11569
# Poissons Ratio (z) = 0.31231 0.26380
#
# Static dielectric constant tensor:
#      x y z
#    x 2.344240 0.000000 -0.149930 
#    y 0.000000 2.178020 0.000000 
#    z -0.149930 0.000000 2.423940 
# 
# From -- ./inp_files/94661.got.cif
#   From: 2010.05.17/outbox.cif.g08.bks.cpg/sg15_48_cif.got.tgz:94661.got - 2010.06.03 18:47:42.
