data_PCOD9308566
_publ_section_title
;
Structure prediction by ZEFSAII (Michael W. Deem and Ramdas Pophale) SiO2 
 PCOD9308566
Probable space group: C 2/C
;
_chemical_formula_sum "Si O2"
_cell_formula_units_Z 48
_cell_length_a 7.434444
_cell_length_b 31.698427
_cell_length_c 9.059885
_cell_angle_alpha 90.000000
_cell_angle_beta 110.228851
_cell_angle_gamma 90.000000
_cell_volume 2003.361925
_symmetry_space_group_name_H-M "C 2/C"
_symmetry_group_IT_number 15
_symmetry_cell_setting 'monoclinic'
loop_
_space_group_symop_operation_xyz
x,y,z
-x,y,1/2-z
-x,-y,-z
x,-y,1/2+z
1/2+x,1/2+y,z
1/2-x,1/2+y,1/2-z
1/2-x,1/2-y,-z
1/2+x,1/2-y,1/2+z
loop_
_atom_site_type_symbol
_atom_site_label
_atom_site_fract_x
_atom_site_fract_y
_atom_site_fract_z
Si Si1 0.232749 0.040370 0.154397
Si Si2 0.262431 0.629152 0.833136
Si Si3 0.146279 0.795957 0.651229
Si Si4 0.306693 0.277400 0.376749
Si Si5 0.272766 0.626065 0.495470
Si Si6 0.765235 0.045385 0.004870
O O1 0.290648 0.042872 0.340765
O O2 0.999272 0.043288 0.076429
O O3 0.297264 0.081850 0.087195
O O4 0.293491 0.996373 0.099876
O O5 0.211635 0.676719 0.865986
O O6 0.207099 0.629484 0.645465
O O7 0.494053 0.625802 0.919996
O O8 0.197508 0.588221 0.905619
O O9 0.250448 0.753153 0.728674
O O10 0.266147 0.836631 0.633809
O O11 0.000000 0.806560 0.750000
O O12 0.028613 0.785856 0.468796
O O13 0.250000 0.250000 0.500000
#
# Coordination Sequence:
#
# PCOD9308566 Si02
#       6
#     8   8   8   8   8   8
#     4   9  16  23  37  57  82 118 149 187 221 281
#     4   9  17  28  40  60  86 120 152 191 226 277
#     4   9  18  30  47  66  91 124 156 195 230 277
#     4   9  18  30  47  66  91 122 158 194 231 274
#     4   9  17  26  42  60  87 117 155 184 233 275
#     4   9  16  24  37  55  85 115 152 183 229 270
#
# _framework density 23.959724000000001
#
# number of rings (size 3 to 8) (size 9 to 14) (size 15 to 20)
#    0.000    3.000    0.000    1.000    9.333    4.667 
#    0.000    0.000    0.000    0.000    0.000    0.000 
#    0.000    1.333    1.333    0.333    1.000    1.167 
#
# Total GULP energy -133959.219200 kJ/mol
# GULP energy per Si atom -5581.634133 kJ/mol
# Density = 2.390519 g / cm^3
# Si number density = 23.959724 Si / 1000 Ang^3
#
#
#
# Elastic Constant Matrix: (Units=GPa)
#
#
# Indices 1 2 3 4 5 6 
#
# 1 54.9077 29.2618 23.9946 0.0000 14.3603 0.0000
# 2 29.2618 296.0602 131.5091 0.0000 -24.8935 0.0000
# 3 23.9946 131.5091 134.2973 0.0000 -18.4436 0.0000
# 4 0.0000 0.0000 0.0000 47.6970 0.0000 -4.4296
# 5 14.3603 -24.8935 -18.4436 0.0000 25.9085 0.0000
# 6 0.0000 0.0000 0.0000 -4.4296 0.0000 14.9602
#
#
#
# Elastic Compliance Matrix: (Units=1/GPa)
#
#
# Indices 1 2 3 4 5 6 
#
# 1 0.027350 -0.001808 -0.006026 0.000000 -0.021186 0.000000
# 2 -0.001808 0.006170 -0.005283 0.000000 0.003169 0.000000
# 3 -0.006026 -0.005283 0.014916 0.000000 0.008882 0.000000
# 4 0.000000 0.000000 0.000000 0.021558 0.000000 0.006383
# 5 -0.021186 0.003169 0.008882 0.000000 0.059708 0.000000
# 6 0.000000 0.000000 0.000000 0.006383 0.000000 0.068734
#
#
# Mechanical properties :
#
#
# Convention : Reuss Voigt Hill
#
# Bulk Modulus (GPa) = 45.04125 94.97738 70.00932
# Shear Modulus (GPa) = 21.54510 37.74645 29.64577
#
# Velocity S-wave (km/s) = 3.00196 3.97345 3.52137
# Velocity P-wave (km/s) = 5.55475 7.79600 6.76878
#
# Compressibility (1/GPa) = 0.02220187
#
# Stress axis : x y z
#
# Youngs Moduli (GPa) = 36.56304 162.08235 67.04097
#
# Poissons Ratio (x) = 0.29304 0.40397
# Poissons Ratio (y) = 0.06611 0.35420
# Poissons Ratio (z) = 0.22032 0.85634
#
# Static dielectric constant tensor:
#      x y z
#    x 1.778630 0.000000 -0.053340 
#    y 0.000000 2.017100 0.000000 
#    z -0.053340 0.000000 1.854240 
# 
# From -- ./inp_files/34765.got.cif
#   From: 2010.05.17/outbox.cif.g08.bks.cpg/sg15_18_cif.got.tgz:34765.got - 2010.06.03 18:47:42.
