data_PCOD9308398
_publ_section_title
;
Structure prediction by ZEFSAII (Michael W. Deem and Ramdas Pophale) SiO2 
 PCOD9308398
Probable space group: C 2/C
;
_chemical_formula_sum "Si O2"
_cell_formula_units_Z 36
_cell_length_a 13.714069
_cell_length_b 4.779902
_cell_length_c 25.235620
_cell_angle_alpha 90.000000
_cell_angle_beta 125.906099
_cell_angle_gamma 90.000000
_cell_volume 1339.902440
_symmetry_space_group_name_H-M "C 2/C"
_symmetry_group_IT_number 15
_symmetry_cell_setting 'monoclinic'
loop_
_space_group_symop_operation_xyz
x,y,z
-x,y,1/2-z
-x,-y,-z
x,-y,1/2+z
1/2+x,1/2+y,z
1/2-x,1/2+y,1/2-z
1/2-x,1/2-y,-z
1/2+x,1/2-y,1/2+z
loop_
_atom_site_type_symbol
_atom_site_label
_atom_site_fract_x
_atom_site_fract_y
_atom_site_fract_z
Si Si1 0.265361 0.804475 0.716833
Si Si2 0.931646 0.827079 0.930863
Si Si3 0.000000 0.012167 0.250000
Si Si4 0.925412 0.761330 0.622849
Si Si5 0.725758 0.236031 0.431280
O O1 0.213269 0.530295 0.730227
O O2 0.165329 0.937892 0.644803
O O3 0.382032 0.682316 0.722945
O O4 0.837700 0.643956 0.934507
O O5 0.024109 0.688949 0.919108
O O6 0.000000 0.000000 0.000000
O O7 0.002807 0.228430 0.300156
O O8 0.805793 0.580711 0.592914
O O9 0.894500 0.088830 0.612192
O O10 0.750000 0.250000 0.500000
#
# Coordination Sequence:
#
# PCOD9308398 Si02
#       5
#     8   8   4   8   8
#     4  12  30  52  80 117 163 214 275 336 411 494
#     4  12  28  50  84 120 164 212 273 338 411 484
#     4  12  28  52  84 114 162 216 276 340 408 490
#     4  12  29  48  79 116 156 211 270 334 405 481
#     4  12  28  51  74 115 160 210 261 327 406 479
#
# _framework density 26.867628
#
# number of rings (size 3 to 8) (size 9 to 14) (size 15 to 20)
#    0.000    0.000    6.667    0.667    6.222    4.444 
#    0.000    0.000    0.000    0.000    0.000    0.000 
#    0.000    0.000    0.000    0.000    0.000    0.000 
#
# Total GULP energy -100431.643424 kJ/mol
# GULP energy per Si atom -5579.535746 kJ/mol
# Density = 2.680648 g / cm^3
# Si number density = 26.867628 Si / 1000 Ang^3
#
#
#
# Elastic Constant Matrix: (Units=GPa)
#
#
# Indices 1 2 3 4 5 6 
#
# 1 202.1466 52.2548 43.1282 -0.0002 -19.7054 0.0001
# 2 52.2548 75.9817 45.8211 0.0004 -9.6733 -0.0004
# 3 43.1282 45.8211 145.3730 -0.0005 -14.0571 0.0004
# 4 -0.0002 0.0004 -0.0005 27.0776 0.0001 -11.3376
# 5 -19.7054 -9.6733 -14.0571 0.0001 49.3658 0.0000
# 6 0.0001 -0.0004 0.0004 -11.3376 0.0000 26.5496
#
#
#
# Elastic Compliance Matrix: (Units=1/GPa)
#
#
# Indices 1 2 3 4 5 6 
#
# 1 0.006176 -0.003745 -0.000498 0.000000 0.001590 0.000000
# 2 -0.003745 0.018673 -0.004695 0.000000 0.000827 0.000000
# 3 -0.000498 -0.004695 0.008636 0.000000 0.001340 0.000000
# 4 0.000000 0.000000 0.000000 0.044972 0.000000 0.019205
# 5 0.001590 0.000827 0.001340 0.000000 0.021435 0.000000
# 6 0.000000 0.000000 0.000000 0.019205 0.000000 0.045866
#
#
# Mechanical properties :
#
#
# Convention : Reuss Voigt Hill
#
# Bulk Modulus (GPa) = 64.06223 78.43439 71.24831
# Shear Modulus (GPa) = 29.61431 39.41843 34.51637
#
# Velocity S-wave (km/s) = 3.32359 3.83447 3.58813
# Velocity P-wave (km/s) = 6.21480 6.99003 6.61378
#
# Compressibility (1/GPa) = 0.01560982
#
# Stress axis : x y z
#
# Youngs Moduli (GPa) = 161.91269 53.55370 115.79380
#
# Poissons Ratio (x) = 0.20054 0.05770
# Poissons Ratio (y) = 0.60631 0.54362
# Poissons Ratio (z) = 0.08068 0.25142
#
# Static dielectric constant tensor:
#      x y z
#    x 2.120970 0.000000 0.072150 
#    y 0.000000 1.885500 0.000000 
#    z 0.072150 0.000000 1.517880 
# 
# From -- ./inp_files/241485.got.cif
#   From: 2010.05.17/outbox.cif.g08.bks.cpg/sg15_121_cif.got.tgz:241485.got - 2010.06.03 18:47:42.
