data_PCOD9308981
_publ_section_title
;
Structure prediction by ZEFSAII (Michael W. Deem and Ramdas Pophale) SiO2 
 PCOD9308981
Probable space group: C 2/C
;
_chemical_formula_sum "Si O2"
_cell_formula_units_Z 30
_cell_length_a 12.000000
_cell_length_b 30.000000
_cell_length_c 18.000000
_cell_angle_alpha 90.000000
_cell_angle_beta 150.000000
_cell_angle_gamma 90.000000
_cell_volume 3240.000000
_symmetry_space_group_name_H-M "C 2/C"
_symmetry_group_IT_number 15
_symmetry_cell_setting 'monoclinic'
loop_
_space_group_symop_operation_xyz
x,y,z
-x,y,1/2-z
-x,-y,-z
x,-y,1/2+z
1/2+x,1/2+y,z
1/2-x,1/2+y,1/2-z
1/2-x,1/2-y,-z
1/2+x,1/2-y,1/2+z
loop_
_atom_site_type_symbol
_atom_site_label
_atom_site_fract_x
_atom_site_fract_y
_atom_site_fract_z
Si Si1 0.893360 0.915615 0.893306
Si Si2 0.000000 0.532983 0.250000
Si Si3 0.656388 0.947446 0.407137
Si Si4 0.842810 0.704446 0.086632
Si Si5 0.058670 0.362923 0.436635
Si Si6 0.852052 0.206250 0.020172
Si Si7 0.599621 0.664175 0.603998
Si Si8 0.693964 0.161258 0.180414
O O1 0.706180 0.939339 0.835640
O O2 0.773615 0.885063 0.762876
O O3 0.083905 0.945792 0.965596
O O4 0.034071 0.880624 0.022974
O O5 0.918850 0.498983 0.137966
O O6 0.500000 0.928188 0.250000
O O7 0.602351 0.915135 0.444669
O O8 0.000000 0.710516 0.250000
O O9 0.988144 0.679363 0.109002
O O10 0.750000 0.750000 0.000000
O O11 0.623808 0.677551 0.982971
O O12 0.209872 0.335844 0.465853
O O13 0.134729 0.347653 0.561482
O O14 0.808425 0.346809 0.275971
O O15 0.103948 0.196429 0.192282
O O16 0.750000 0.250000 0.000000
O O17 0.849276 0.202293 0.928856
#
# Coordination Sequence:
#
# PCOD9308981 Si02
#       8
#     8   4   8   8   8   8   8   8
#     4  11  19  42  64  93 122 170 214 258 325 385
#     4  10  22  36  72  96 120 168 226 260 306 414
#     4  10  20  37  63 100 124 154 208 266 320 375
#     4  12  27  45  60  87 126 171 227 263 315 375
#     4  12  23  40  61  99 132 161 207 268 333 376
#     4  11  24  40  65  93 124 171 222 266 319 381
#     4  11  23  41  68  86 129 173 214 272 312 387
#     4  11  26  41  66  92 130 177 208 272 329 384
#
# _framework density 9.2592590000000001
#
# number of rings (size 3 to 8) (size 9 to 14) (size 15 to 20)
#    0.400    0.533    6.667    2.000    5.600    1.067 
#    0.000    0.667    0.000    1.600    0.000    0.000 
#    0.000    0.000    0.000    0.000    0.000    0.000 
#
# Total GULP energy -167441.905291 kJ/mol
# GULP energy per Si atom -5581.396843 kJ/mol
# Density = 0.923818 g / cm^3
# Si number density = 9.259259 Si / 1000 Ang^3
#
#
#
# Elastic Constant Matrix: (Units=GPa)
#
#
# Indices 1 2 3 4 5 6 
#
# 1 75.9898 26.2561 52.1571 0.0001 28.5107 -0.0006
# 2 26.2561 66.7962 18.6295 -0.0001 10.5627 -0.0001
# 3 52.1571 18.6295 90.4837 -0.0004 9.8801 -0.0006
# 4 0.0001 -0.0001 -0.0004 18.0118 -0.0001 8.1132
# 5 28.5107 10.5627 9.8801 -0.0001 30.0290 -0.0003
# 6 -0.0006 -0.0001 -0.0006 8.1132 -0.0003 33.6420
#
#
#
# Elastic Compliance Matrix: (Units=1/GPa)
#
#
# Indices 1 2 3 4 5 6 
#
# 1 0.037504 -0.005457 -0.017443 -0.000001 -0.027949 0.000000
# 2 -0.005457 0.017337 -0.000336 0.000000 -0.000806 0.000000
# 3 -0.017443 -0.000336 0.020075 0.000001 0.010074 0.000000
# 4 -0.000001 0.000000 0.000001 0.062285 0.000001 -0.015021
# 5 -0.027949 -0.000806 0.010074 0.000001 0.056806 0.000000
# 6 0.000000 0.000000 0.000000 -0.015021 0.000000 0.033347
#
#
# Mechanical properties :
#
#
# Convention : Reuss Voigt Hill
#
# Bulk Modulus (GPa) = 35.15604 47.48392 41.31998
# Shear Modulus (GPa) = 17.64867 25.41836 21.53351
#
# Velocity S-wave (km/s) = 3.09046 3.70887 3.41370
# Velocity P-wave (km/s) = 5.63561 6.63611 6.15622
#
# Compressibility (1/GPa) = 0.02844462
#
# Stress axis : x y z
#
# Youngs Moduli (GPa) = 26.66412 57.67923 49.81261
#
# Poissons Ratio (x) = 0.31478 0.86886
# Poissons Ratio (y) = 0.14552 0.01672
# Poissons Ratio (z) = 0.46509 0.01936
#
# Static dielectric constant tensor:
#      x y z
#    x 1.582400 -0.000010 0.004700 
#    y -0.000010 1.767160 -0.000010 
#    z 0.004700 -0.000010 1.681130 
# 
# From -- ./inp_files/201411.got.cif
#   From: 2010.05.17/outbox.ucp.g08.bks.cvg/sg15_101_cif.got.tgz:201411.got - 2010.06.11 12:40:34.
