data_PCOD9308892
_publ_section_title
;
Structure prediction by ZEFSAII (Michael W. Deem and Ramdas Pophale) SiO2 
 PCOD9308892
Probable space group: C 2/C
;
_chemical_formula_sum "Si O2"
_cell_formula_units_Z 28
_cell_length_a 21.000000
_cell_length_b 18.000000
_cell_length_c 21.000000
_cell_angle_alpha 90.000000
_cell_angle_beta 20.000000
_cell_angle_gamma 90.000000
_cell_volume 2714.955898
_symmetry_space_group_name_H-M "C 2/C"
_symmetry_group_IT_number 15
_symmetry_cell_setting 'monoclinic'
loop_
_space_group_symop_operation_xyz
x,y,z
-x,y,1/2-z
-x,-y,-z
x,-y,1/2+z
1/2+x,1/2+y,z
1/2-x,1/2+y,1/2-z
1/2-x,1/2-y,-z
1/2+x,1/2-y,1/2+z
loop_
_atom_site_type_symbol
_atom_site_label
_atom_site_fract_x
_atom_site_fract_y
_atom_site_fract_z
Si Si1 0.321283 0.644106 0.552884
Si Si2 0.190923 0.351417 0.039338
Si Si3 0.275015 0.478936 0.461056
Si Si4 0.783181 0.204273 0.310698
Si Si5 0.752950 0.460837 0.158586
Si Si6 0.904394 0.597727 0.099823
Si Si7 0.803337 0.030322 0.080517
O O1 0.331357 0.658423 0.466739
O O2 0.195304 0.707055 0.703376
O O3 0.526106 0.662403 0.384279
O O4 0.266807 0.559085 0.616690
O O5 0.000000 0.322893 0.250000
O O6 0.183832 0.440232 0.040683
O O7 0.227320 0.320040 0.935370
O O8 0.500000 0.488199 0.250000
O O9 0.221365 0.445235 0.441900
O O10 0.241288 0.448152 0.565328
O O11 0.647842 0.176272 0.382126
O O12 0.838151 0.539023 0.106357
O O13 0.528294 0.460405 0.377627
O O14 0.878497 0.406490 0.083984
O O15 0.797909 0.571710 0.265398
#
# Coordination Sequence:
#
# PCOD9308892 Si02
#       7
#     8   8   8   8   8   8   8
#     4  11  24  38  58  75 120 156 206 244 288 352
#     4  11  21  34  56  80 111 158 207 239 281 336
#     4   9  18  34  54  81 116 151 199 246 288 350
#     4  12  23  41  53  85 116 160 201 245 296 348
#     4  10  20  35  57  82 117 154 194 247 294 349
#     4  11  23  35  60  84 124 154 201 246 301 357
#     4  10  21  40  59  85 114 165 194 248 304 349
#
# _framework density 10.313243
#
# number of rings (size 3 to 8) (size 9 to 14) (size 15 to 20)
#    0.000    1.429    2.857    3.857    4.000    2.286 
#    0.000    0.000    0.000    0.000    0.000    0.000 
#    0.000   10.286    0.000    0.000    0.000    0.000 
#
# Total GULP energy -156271.853023 kJ/mol
# GULP energy per Si atom -5581.137608 kJ/mol
# Density = 1.028977 g / cm^3
# Si number density = 10.313243 Si / 1000 Ang^3
#
#
#
# Elastic Constant Matrix: (Units=GPa)
#
#
# Indices 1 2 3 4 5 6 
#
# 1 143.0574 24.9312 29.7682 0.0068 -2.6286 0.0024
# 2 24.9312 45.4829 10.3116 -0.0048 4.9381 -0.0095
# 3 29.7682 10.3116 55.0688 0.0121 3.3792 -0.0095
# 4 0.0068 -0.0048 0.0121 15.7229 -0.0168 4.1671
# 5 -2.6286 4.9381 3.3792 -0.0168 44.8220 0.0041
# 6 0.0024 -0.0095 -0.0095 4.1671 0.0041 23.6630
#
#
#
# Elastic Compliance Matrix: (Units=1/GPa)
#
#
# Indices 1 2 3 4 5 6 
#
# 1 0.008515 -0.003906 -0.003947 0.000001 0.001227 -0.000004
# 2 -0.003906 0.024974 -0.002393 0.000006 -0.002800 0.000009
# 3 -0.003947 -0.002393 0.020835 -0.000020 -0.001539 0.000012
# 4 0.000001 0.000006 -0.000020 0.066715 0.000027 -0.011749
# 5 0.001227 -0.002800 -0.001539 0.000027 0.022807 -0.000011
# 6 -0.000004 0.000009 0.000012 -0.011749 -0.000011 0.044329
#
#
# Mechanical properties :
#
#
# Convention : Reuss Voigt Hill
#
# Bulk Modulus (GPa) = 29.55756 41.51455 35.53605
# Shear Modulus (GPa) = 22.73312 28.74812 25.74062
#
# Velocity S-wave (km/s) = 3.32344 3.73734 3.53645
# Velocity P-wave (km/s) = 5.39333 6.22850 5.82590
#
# Compressibility (1/GPa) = 0.03383230
#
# Stress axis : x y z
#
# Youngs Moduli (GPa) = 117.44437 40.04201 47.99603
#
# Poissons Ratio (x) = 0.15639 0.18942
# Poissons Ratio (y) = 0.45871 0.11486
# Poissons Ratio (z) = 0.46352 0.09583
#
# Static dielectric constant tensor:
#      x y z
#    x 1.757130 -0.000010 -0.019090 
#    y -0.000010 1.747150 0.000030 
#    z -0.019090 0.000030 1.849620 
# 
# From -- ./inp_files/253333.got.cif
#   From: 2010.05.17/outbox.ucp.g08.bks.cvg/sg15_127_cif.got.tgz:253333.got - 2010.06.11 12:40:34.
