data_PCOD9308964
_publ_section_title
;
Structure prediction by ZEFSAII (Michael W. Deem and Ramdas Pophale) SiO2 
 PCOD9308964
Probable space group: C 2/C
;
_chemical_formula_sum "Si O2"
_cell_formula_units_Z 26
_cell_length_a 30.000000
_cell_length_b 9.000000
_cell_length_c 15.000000
_cell_angle_alpha 90.000000
_cell_angle_beta 140.000000
_cell_angle_gamma 90.000000
_cell_volume 2603.289819
_symmetry_space_group_name_H-M "C 2/C"
_symmetry_group_IT_number 15
_symmetry_cell_setting 'monoclinic'
loop_
_space_group_symop_operation_xyz
x,y,z
-x,y,1/2-z
-x,-y,-z
x,-y,1/2+z
1/2+x,1/2+y,z
1/2-x,1/2+y,1/2-z
1/2-x,1/2-y,-z
1/2+x,1/2-y,1/2+z
loop_
_atom_site_type_symbol
_atom_site_label
_atom_site_fract_x
_atom_site_fract_y
_atom_site_fract_z
Si Si1 0.297803 0.154246 0.195870
Si Si2 0.145797 0.163631 0.880563
Si Si3 0.885097 0.590337 0.038791
Si Si4 0.500000 0.848203 0.250000
Si Si5 0.653456 0.178162 0.712689
Si Si6 0.801284 0.321686 0.910029
Si Si7 0.904843 0.163896 0.208368
O O1 0.330208 0.271015 0.177155
O O2 0.311346 0.197599 0.319262
O O3 0.330414 0.990555 0.232100
O O4 0.216005 0.141452 0.047112
O O5 0.103470 0.290280 0.867414
O O6 0.104429 0.011555 0.807606
O O7 0.940601 0.459234 0.126510
O O8 0.881285 0.665611 0.937073
O O9 0.813775 0.497595 0.946458
O O10 0.477040 0.736509 0.291672
O O11 0.725074 0.265903 0.813281
O O12 0.611997 0.266613 0.722591
O O13 0.851328 0.229428 0.052052
#
# Coordination Sequence:
#
# PCOD9308964 Si02
#       7
#     8   8   8   4   8   8   8
#     4  10  21  33  57  92 134 152 194 241 323 374
#     4  11  22  35  58  96 122 162 194 258 305 371
#     4  10  23  40  66  89 126 165 209 250 306 363
#     4  10  24  48  62  82 116 178 216 254 292 362
#     4  11  21  38  61  95 122 166 195 257 313 374
#     4  10  20  37  59  92 129 162 198 251 309 377
#     4  11  24  38  63  86 126 165 213 250 305 363
#
# _framework density 9.9873630000000002
#
# number of rings (size 3 to 8) (size 9 to 14) (size 15 to 20)
#    0.000    1.538    3.077    2.308    4.308    2.462 
#    0.000    1.538    0.000   10.154    0.000    0.000 
#    0.000    0.000    0.000    0.000    0.000    0.000 
#
# Total GULP energy -145166.648567 kJ/mol
# GULP energy per Si atom -5583.332637 kJ/mol
# Density = 0.996463 g / cm^3
# Si number density = 9.987363 Si / 1000 Ang^3
#
#
#
# Elastic Constant Matrix: (Units=GPa)
#
#
# Indices 1 2 3 4 5 6 
#
# 1 51.7051 50.9979 -35.6658 0.0000 12.4563 0.0000
# 2 50.9979 87.7700 -58.2594 0.0000 22.6379 0.0000
# 3 -35.6658 -58.2594 -104.5924 0.0000 39.2622 0.0000
# 4 0.0000 0.0000 0.0000 75.3972 0.0000 229.6433
# 5 12.4563 22.6379 39.2622 0.0000 4.7060 0.0000
# 6 0.0000 0.0000 0.0000 229.6433 0.0000 931.9351
#
#
#
# Elastic Compliance Matrix: (Units=1/GPa)
#
#
# Indices 1 2 3 4 5 6 
#
# 1 0.045459 -0.026817 0.000651 0.000000 0.003239 0.000000
# 2 -0.026817 0.024139 -0.005142 0.000000 -0.002239 0.000000
# 3 0.000651 -0.005142 0.000416 0.000000 0.019540 0.000000
# 4 0.000000 0.000000 0.000000 0.053165 0.000000 -0.013101
# 5 0.003239 -0.002239 0.019540 0.000000 0.051672 0.000000
# 6 0.000000 0.000000 0.000000 -0.013101 0.000000 0.004301
#
#
# Mechanical properties :
#
#
# Convention : Reuss Voigt Hill
#
# Bulk Modulus (GPa) = 135.13265 -5.66356 64.73455
# Shear Modulus (GPa) = 20.47214 207.59501 114.03357
#
# Velocity S-wave (km/s) = 3.20488 10.20561 7.56392
# Velocity P-wave (km/s) = 9.02739 11.66324 10.42892
#
# Compressibility (1/GPa) = 0.00740014
#
# Stress axis : x y z
#
# Youngs Moduli (GPa) = 21.99765 41.42617 2403.37893
#
# Poissons Ratio (x) = 1.11091 -1.56551
# Poissons Ratio (y) = 0.58990 12.35833
# Poissons Ratio (z) = -0.01433 0.21302
#
# Static dielectric constant tensor:
#      x y z
#    x 1.804130 0.000000 0.067030 
#    y 0.000000 1.686970 0.000000 
#    z 0.067030 0.000000 1.773720 
# 
# From -- ./inp_files/166341.got.cif
#   From: 2010.05.17/outbox.ucp.g08.bks.cvg/sg15_84_cif.got.tgz:166341.got - 2010.06.11 12:40:34.
