data_PCOD9308249
_publ_section_title
;
Structure prediction by ZEFSAII (Michael W. Deem and Ramdas Pophale) SiO2 
 PCOD9308249
Probable space group: C 2/C
;
_chemical_formula_sum "Si O2"
_cell_formula_units_Z 16
_cell_length_a 9.201048
_cell_length_b 16.627087
_cell_length_c 8.015622
_cell_angle_alpha 90.000000
_cell_angle_beta 146.815800
_cell_angle_gamma 90.000000
_cell_volume 671.184464
_symmetry_space_group_name_H-M "C 2/C"
_symmetry_group_IT_number 15
_symmetry_cell_setting 'monoclinic'
loop_
_space_group_symop_operation_xyz
x,y,z
-x,y,1/2-z
-x,-y,-z
x,-y,1/2+z
1/2+x,1/2+y,z
1/2-x,1/2+y,1/2-z
1/2-x,1/2-y,-z
1/2+x,1/2-y,1/2+z
loop_
_atom_site_type_symbol
_atom_site_label
_atom_site_fract_x
_atom_site_fract_y
_atom_site_fract_z
Si Si1 0.604584 0.913137 0.039081
Si Si2 0.000000 0.694299 0.750000
Si Si3 0.500000 0.312877 0.250000
O O1 0.500000 0.906324 0.750000
O O2 0.494726 0.856898 0.077469
O O3 0.906506 0.876769 0.304784
O O4 0.500000 0.000000 0.000000
O O5 0.750000 0.750000 0.500000
O O6 0.750000 0.250000 0.500000
#
# Coordination Sequence:
#
# PCOD9308249 Si02
#       3
#     8   4   4
#     4  12  28  53  82 120 169 215 273 342 412 487
#     4  12  30  50  82 122 158 216 278 334 410 494
#     4  12  26  50  82 116 158 216 268 334 408 478
#
# _framework density 23.838455
#
# number of rings (size 3 to 8) (size 9 to 14) (size 15 to 20)
#    0.000    0.000    5.000    3.000    7.000    4.000 
#    0.000    0.000    0.000    0.000    0.000    0.000 
#    0.000    0.000    0.000    0.000    0.000    0.000 
#
# Total GULP energy -44571.115221 kJ/mol
# GULP energy per Si atom -5571.389403 kJ/mol
# Density = 2.378420 g / cm^3
# Si number density = 23.838455 Si / 1000 Ang^3
#
#
#
# Elastic Constant Matrix: (Units=GPa)
#
#
# Indices 1 2 3 4 5 6 
#
# 1 250.4604 145.5106 80.9216 0.0000 -3.2365 0.0000
# 2 145.5106 256.4452 89.9759 0.0000 23.0990 0.0000
# 3 80.9216 89.9759 150.8971 0.0000 13.7291 0.0000
# 4 0.0000 0.0000 0.0000 29.4735 0.0000 5.3093
# 5 -3.2365 23.0990 13.7291 0.0000 68.4600 0.0000
# 6 0.0000 0.0000 0.0000 5.3093 0.0000 88.1812
#
#
#
# Elastic Compliance Matrix: (Units=1/GPa)
#
#
# Indices 1 2 3 4 5 6 
#
# 1 0.006425 -0.003208 -0.001689 0.000000 0.001725 0.000000
# 2 -0.003208 0.006615 -0.002044 0.000000 -0.001974 0.000000
# 3 -0.001689 -0.002044 0.008858 0.000000 -0.001167 0.000000
# 4 0.000000 0.000000 0.000000 0.034301 0.000000 -0.002065
# 5 0.001725 -0.001974 -0.001167 0.000000 0.015588 0.000000
# 6 0.000000 0.000000 0.000000 -0.002065 0.000000 0.011465
#
#
# Mechanical properties :
#
#
# Convention : Reuss Voigt Hill
#
# Bulk Modulus (GPa) = 124.78104 143.40210 134.09157
# Shear Modulus (GPa) = 50.09722 59.98256 55.03989
#
# Velocity S-wave (km/s) = 4.58922 5.02163 4.81028
# Velocity P-wave (km/s) = 8.97437 9.69065 9.33938
#
# Compressibility (1/GPa) = 0.00801404
#
# Stress axis : x y z
#
# Youngs Moduli (GPa) = 155.65369 151.17718 112.89126
#
# Poissons Ratio (x) = 0.48498 0.19072
# Poissons Ratio (y) = 0.49934 0.23078
# Poissons Ratio (z) = 0.26296 0.30905
#
# Static dielectric constant tensor:
#      x y z
#    x 1.885680 0.000000 0.043430 
#    y 0.000000 1.949890 0.000000 
#    z 0.043430 0.000000 2.085770 
# 
# From -- ./inp_files/776.got.cif
#   From: 2010.05.17/outbox.cif.g08.bks.cpg/sg15_1_cif.got.tgz:776.got - 2010.06.03 18:47:42.
