data_PCOD9308063
_publ_section_title
;
Structure prediction by ZEFSAII (Michael W. Deem and Ramdas Pophale) SiO2 
 PCOD9308063
Probable space group: C 2/C
;
_chemical_formula_sum "Si O2"
_cell_formula_units_Z 32
_cell_length_a 17.355984
_cell_length_b 4.870388
_cell_length_c 17.112946
_cell_angle_alpha 90.000000
_cell_angle_beta 59.992415
_cell_angle_gamma 90.000000
_cell_volume 1252.665206
_symmetry_space_group_name_H-M "C 2/C"
_symmetry_group_IT_number 15
_symmetry_cell_setting 'monoclinic'
loop_
_space_group_symop_operation_xyz
x,y,z
-x,y,1/2-z
-x,-y,-z
x,-y,1/2+z
1/2+x,1/2+y,z
1/2-x,1/2+y,1/2-z
1/2-x,1/2-y,-z
1/2+x,1/2-y,1/2+z
loop_
_atom_site_type_symbol
_atom_site_label
_atom_site_fract_x
_atom_site_fract_y
_atom_site_fract_z
Si Si1 0.681680 0.007040 0.524799
Si Si2 0.403386 0.559484 0.515637
Si Si3 0.246144 0.255666 0.305078
Si Si4 0.905828 0.159900 0.835581
O O1 0.750000 0.250000 0.500000
O O2 0.750000 0.750000 0.500000
O O3 0.823948 0.895844 0.318428
O O4 0.614865 0.978960 0.631605
O O5 0.500000 0.500000 0.500000
O O6 0.375270 0.879858 0.519746
O O7 0.329317 0.399467 0.604915
O O8 0.408195 0.451977 0.423437
O O9 0.213681 0.505781 0.266990
O O10 0.000000 0.112583 0.750000
#
# Coordination Sequence:
#
# PCOD9308063 Si02
#       4
#     8   8   8   8
#     4  12  25  51  85 114 165 219 279 345 443 497
#     4  12  29  53  88 123 172 223 291 358 440 525
#     4  12  30  51  81 118 163 215 284 351 431 515
#     4  12  28  51  84 120 170 219 287 350 441 516
#
# _framework density 25.545531
#
# number of rings (size 3 to 8) (size 9 to 14) (size 15 to 20)
#    0.000    0.000    5.000    2.250   14.000    2.000 
#    0.000    0.000    0.000    0.000    0.000    0.000 
#    0.000    0.000    0.000    0.000    0.000    0.000 
#
# Total GULP energy -89217.433294 kJ/mol
# GULP energy per Si atom -5576.089581 kJ/mol
# Density = 2.548739 g / cm^3
# Si number density = 25.545531 Si / 1000 Ang^3
#
#
#
# Elastic Constant Matrix: (Units=GPa)
#
#
# Indices 1 2 3 4 5 6 
#
# 1 210.8955 55.3511 74.3522 -0.0126 -12.4573 0.0026
# 2 55.3511 130.2191 37.7111 -0.0137 9.4284 0.0324
# 3 74.3522 37.7111 196.7672 -0.0271 -3.0055 -0.0030
# 4 -0.0126 -0.0137 -0.0271 46.2413 0.0094 18.4801
# 5 -12.4573 9.4284 -3.0055 0.0094 46.5047 0.0015
# 6 0.0026 0.0324 -0.0030 18.4801 0.0015 54.3288
#
#
#
# Elastic Compliance Matrix: (Units=1/GPa)
#
#
# Indices 1 2 3 4 5 6 
#
# 1 0.006084 -0.002192 -0.001849 -0.000001 0.001955 0.000001
# 2 -0.002192 0.009066 -0.000947 0.000005 -0.002486 -0.000007
# 3 -0.001849 -0.000947 0.005964 0.000003 0.000082 0.000000
# 4 -0.000001 0.000005 0.000003 0.025028 -0.000006 -0.008513
# 5 0.001955 -0.002486 0.000082 -0.000006 0.022536 0.000003
# 6 0.000001 -0.000007 0.000000 -0.008513 0.000003 0.021302
#
#
# Mechanical properties :
#
#
# Convention : Reuss Voigt Hill
#
# Bulk Modulus (GPa) = 89.79286 96.96784 93.38035
# Shear Modulus (GPa) = 48.23034 54.11280 51.17157
#
# Velocity S-wave (km/s) = 4.34984 4.60748 4.48051
# Velocity P-wave (km/s) = 7.77526 8.14533 7.96244
#
# Compressibility (1/GPa) = 0.01113674
#
# Stress axis : x y z
#
# Youngs Moduli (GPa) = 164.35343 110.30816 167.68347
#
# Poissons Ratio (x) = 0.24183 0.31006
# Poissons Ratio (y) = 0.36031 0.15880
# Poissons Ratio (z) = 0.30391 0.10446
#
# Static dielectric constant tensor:
#      x y z
#    x 2.097760 0.000170 0.072310 
#    y 0.000170 2.690980 -0.000060 
#    z 0.072310 -0.000060 2.189640 
# 
# From -- ./inp_files/253787.got.cif
#   From: 2010.05.17/outbox.cif.g08.bks.cpg/sg15_127_cif.got.tgz:253787.got - 2010.06.03 18:47:42.
