data_PCOD9308223
_publ_section_title
;
Structure prediction by ZEFSAII (Michael W. Deem and Ramdas Pophale) SiO2 
 PCOD9308223
Probable space group: C 2/C
;
_chemical_formula_sum "Si O2"
_cell_formula_units_Z 40
_cell_length_a 14.214348
_cell_length_b 10.312577
_cell_length_c 10.378429
_cell_angle_alpha 90.000000
_cell_angle_beta 103.977481
_cell_angle_gamma 90.000000
_cell_volume 1476.292480
_symmetry_space_group_name_H-M "C 2/C"
_symmetry_group_IT_number 15
_symmetry_cell_setting 'monoclinic'
loop_
_space_group_symop_operation_xyz
x,y,z
-x,y,1/2-z
-x,-y,-z
x,-y,1/2+z
1/2+x,1/2+y,z
1/2-x,1/2+y,1/2-z
1/2-x,1/2-y,-z
1/2+x,1/2-y,1/2+z
loop_
_atom_site_type_symbol
_atom_site_label
_atom_site_fract_x
_atom_site_fract_y
_atom_site_fract_z
Si Si1 0.799628 0.744562 0.186604
Si Si2 0.582529 0.636527 0.088442
Si Si3 0.567712 0.970329 0.896217
Si Si4 0.625050 0.230431 0.995751
Si Si5 0.139382 0.015000 0.363271
O O1 0.690896 0.694268 0.137425
O O2 0.870210 0.660795 0.113641
O O3 0.791404 0.897693 0.155324
O O4 0.846229 0.727411 0.344409
O O5 0.490173 0.730924 0.055876
O O6 0.583832 0.549265 0.215608
O O7 0.582163 0.552296 0.960039
O O8 0.500000 0.982490 0.750000
O O9 0.637592 0.094314 0.927630
O O10 0.500000 0.000000 0.000000
O O11 0.826266 0.151160 0.065527
#
# Coordination Sequence:
#
# PCOD9308223 Si02
#       5
#     8   8   8   8   8
#     4  12  30  53  83 126 170 214 285 351 415 501
#     4  12  29  48  87 122 169 217 285 346 423 494
#     4  12  26  49  82 115 167 219 270 335 425 494
#     4  12  28  54  84 121 169 223 277 346 424 498
#     4  12  27  53  84 121 165 220 284 344 423 493
#
# _framework density 27.094904
#
# number of rings (size 3 to 8) (size 9 to 14) (size 15 to 20)
#    0.000    0.000    4.000    4.200    5.600    4.000 
#    0.000    0.000    0.000    0.000    0.000    0.000 
#    0.000    0.000    0.000    0.000    0.000    0.000 
#
# Total GULP energy -112063.647083 kJ/mol
# GULP energy per Si atom -5603.182354 kJ/mol
# Density = 2.703323 g / cm^3
# Si number density = 27.094904 Si / 1000 Ang^3
#
#
#
# Elastic Constant Matrix: (Units=GPa)
#
#
# Indices 1 2 3 4 5 6 
#
# 1 146.5444 35.8180 71.6087 0.0000 6.4891 0.0000
# 2 35.8180 203.4296 65.6461 0.0000 -1.7917 0.0000
# 3 71.6087 65.6461 257.5726 0.0000 -1.0166 0.0000
# 4 0.0000 0.0000 0.0000 48.8994 0.0000 -9.0522
# 5 6.4891 -1.7917 -1.0166 0.0000 49.0388 0.0000
# 6 0.0000 0.0000 0.0000 -9.0522 0.0000 27.3553
#
#
#
# Elastic Compliance Matrix: (Units=1/GPa)
#
#
# Indices 1 2 3 4 5 6 
#
# 1 0.008064 -0.000768 -0.002051 0.000000 -0.001138 0.000000
# 2 -0.000768 0.005431 -0.001169 0.000000 0.000276 0.000000
# 3 -0.002051 -0.001169 0.004752 0.000000 0.000327 0.000000
# 4 0.000000 0.000000 0.000000 0.021785 0.000000 0.007209
# 5 -0.001138 0.000276 0.000327 0.000000 0.020559 0.000000
# 6 0.000000 0.000000 0.000000 0.007209 0.000000 0.038942
#
#
# Mechanical properties :
#
#
# Convention : Reuss Voigt Hill
#
# Bulk Modulus (GPa) = 97.36925 105.96581 101.66753
# Shear Modulus (GPa) = 45.07264 54.02362 49.54813
#
# Velocity S-wave (km/s) = 4.08304 4.47012 4.28096
# Velocity P-wave (km/s) = 7.63169 8.11398 7.87653
#
# Compressibility (1/GPa) = 0.01027018
#
# Stress axis : x y z
#
# Youngs Moduli (GPa) = 124.00754 184.13621 210.44427
#
# Poissons Ratio (x) = 0.14144 0.43154
# Poissons Ratio (y) = 0.09525 0.24611
# Poissons Ratio (z) = 0.25429 0.21534
#
# Static dielectric constant tensor:
#      x y z
#    x 2.286540 0.000000 -0.060900 
#    y 0.000000 2.169190 0.000000 
#    z -0.060900 0.000000 2.071050 
# 
# From -- ./inp_files/196336.got.cif
#   From: 2010.05.17/outbox.cif.g08.bks.cpg/sg15_99_cif.got.tgz:196336.got - 2010.06.03 18:47:42.
