data_PCOD9308503
_publ_section_title
;
Structure prediction by ZEFSAII (Michael W. Deem and Ramdas Pophale) SiO2 
 PCOD9308503
Probable space group: C 2/C
;
_chemical_formula_sum "Si O2"
_cell_formula_units_Z 40
_cell_length_a 11.764317
_cell_length_b 26.058968
_cell_length_c 6.824094
_cell_angle_alpha 90.000000
_cell_angle_beta 47.226743
_cell_angle_gamma 90.000000
_cell_volume 1535.651789
_symmetry_space_group_name_H-M "C 2/C"
_symmetry_group_IT_number 15
_symmetry_cell_setting 'monoclinic'
loop_
_space_group_symop_operation_xyz
x,y,z
-x,y,1/2-z
-x,-y,-z
x,-y,1/2+z
1/2+x,1/2+y,z
1/2-x,1/2+y,1/2-z
1/2-x,1/2-y,-z
1/2+x,1/2-y,1/2+z
loop_
_atom_site_type_symbol
_atom_site_label
_atom_site_fract_x
_atom_site_fract_y
_atom_site_fract_z
Si Si1 0.297224 0.547670 0.145163
Si Si2 0.039562 0.737664 0.971791
Si Si3 0.665089 0.675672 0.832352
Si Si4 0.129843 0.062300 0.895648
Si Si5 0.133668 0.643681 0.258488
O O1 0.443846 0.552385 0.121101
O O2 0.344182 0.562436 0.869632
O O3 0.267521 0.486762 0.164540
O O4 0.172467 0.591836 0.330005
O O5 0.995909 0.794628 0.960413
O O6 0.927882 0.690608 0.039565
O O7 0.000000 0.738868 0.250000
O O8 0.209355 0.716384 0.740758
O O9 0.668467 0.619317 0.920054
O O10 0.722334 0.665489 0.539704
O O11 0.000000 0.631583 0.250000
#
# Coordination Sequence:
#
# PCOD9308503 Si02
#       5
#     8   8   8   8   8
#     4   9  17  30  46  66  95 122 154 188 232 267
#     4   9  16  24  38  64  91 121 145 180 236 281
#     4   9  17  25  40  64  93 117 148 186 230 275
#     4   9  18  29  47  68  94 120 156 191 223 275
#     4   8  15  27  40  64  93 121 147 185 229 281
#
# _framework density 26.047573
#
# number of rings (size 3 to 8) (size 9 to 14) (size 15 to 20)
#    0.000    3.600    0.000    2.400    8.400    0.000 
#    0.000    9.000    0.000    0.000    0.000    1.400 
#    0.000    0.000    0.000    0.000    0.000    0.000 
#
# Total GULP energy -111589.931767 kJ/mol
# GULP energy per Si atom -5579.496588 kJ/mol
# Density = 2.598829 g / cm^3
# Si number density = 26.047573 Si / 1000 Ang^3
#
#
#
# Elastic Constant Matrix: (Units=GPa)
#
#
# Indices 1 2 3 4 5 6 
#
# 1 73.9380 76.4440 9.8710 0.0000 1.6887 0.0000
# 2 76.4440 264.6058 10.9163 0.0000 -21.8347 0.0000
# 3 9.8710 10.9163 29.1195 0.0000 12.0089 0.0000
# 4 0.0000 0.0000 0.0000 18.8822 0.0000 -6.7303
# 5 1.6887 -21.8347 12.0089 0.0000 25.4490 0.0000
# 6 0.0000 0.0000 0.0000 -6.7303 0.0000 51.5826
#
#
#
# Elastic Compliance Matrix: (Units=1/GPa)
#
#
# Indices 1 2 3 4 5 6 
#
# 1 0.020453 -0.006287 -0.002225 0.000000 -0.005702 0.000000
# 2 -0.006287 0.006345 -0.003308 0.000000 0.007422 0.000000
# 3 -0.002225 -0.003308 0.046492 0.000000 -0.024629 0.000000
# 4 0.000000 0.000000 0.000000 0.055543 0.000000 0.007247
# 5 -0.005702 0.007422 -0.024629 0.000000 0.057662 0.000000
# 6 0.000000 0.000000 0.000000 0.007247 0.000000 0.020332
#
#
# Mechanical properties :
#
#
# Convention : Reuss Voigt Hill
#
# Bulk Modulus (GPa) = 20.14096 62.45845 41.29971
# Shear Modulus (GPa) = 20.24158 37.21154 28.72656
#
# Velocity S-wave (km/s) = 2.79068 3.78378 3.32452
# Velocity P-wave (km/s) = 4.25829 6.56658 5.53412
#
# Compressibility (1/GPa) = 0.04965007
#
# Stress axis : x y z
#
# Youngs Moduli (GPa) = 48.89352 157.61678 21.50888
#
# Poissons Ratio (x) = 0.99101 0.04785
# Poissons Ratio (y) = 0.30742 0.07115
# Poissons Ratio (z) = 0.10877 0.52135
#
# Static dielectric constant tensor:
#      x y z
#    x 2.153750 0.000000 0.028120 
#    y 0.000000 2.056110 0.000000 
#    z 0.028120 0.000000 2.138740 
# 
# From -- ./inp_files/31316.got.cif
#   From: 2010.05.17/outbox.cif.g08.bks.cpg/sg15_16_cif.got.tgz:31316.got - 2010.06.03 18:47:42.
