data_PCOD9308200
_publ_section_title
;
Structure prediction by ZEFSAII (Michael W. Deem and Ramdas Pophale) SiO2 
 PCOD9308200
Probable space group: C 2/C
;
_chemical_formula_sum "Si O2"
_cell_formula_units_Z 44
_cell_length_a 18.649586
_cell_length_b 6.459891
_cell_length_c 16.526189
_cell_angle_alpha 90.000000
_cell_angle_beta 52.037520
_cell_angle_gamma 90.000000
_cell_volume 1569.716741
_symmetry_space_group_name_H-M "C 2/C"
_symmetry_group_IT_number 15
_symmetry_cell_setting 'monoclinic'
loop_
_space_group_symop_operation_xyz
x,y,z
-x,y,1/2-z
-x,-y,-z
x,-y,1/2+z
1/2+x,1/2+y,z
1/2-x,1/2+y,1/2-z
1/2-x,1/2-y,-z
1/2+x,1/2-y,1/2+z
loop_
_atom_site_type_symbol
_atom_site_label
_atom_site_fract_x
_atom_site_fract_y
_atom_site_fract_z
Si Si1 0.500000 0.469892 0.750000
Si Si2 0.376484 0.310277 0.707860
Si Si3 0.236820 0.127575 0.927104
Si Si4 0.660021 0.707007 0.550107
Si Si5 0.586152 0.032599 0.966885
Si Si6 0.091365 0.869495 0.434191
O O1 0.471831 0.338028 0.690290
O O2 0.592308 0.596879 0.662390
O O3 0.317507 0.186023 0.812817
O O4 0.369973 0.166672 0.634156
O O5 0.357750 0.537210 0.681684
O O6 0.159530 0.314176 0.926844
O O7 0.250000 0.250000 0.000000
O O8 0.267535 0.873809 0.946187
O O9 0.605278 0.882269 0.541878
O O10 0.641551 0.505520 0.482113
O O11 0.526594 0.850423 0.961510
O O12 0.000000 0.000000 0.500000
#
# Coordination Sequence:
#
# PCOD9308200 Si02
#       6
#     4   8   8   8   8   8
#     4  12  28  52  84 118 174 232 276 360 450 524
#     4  12  28  47  83 115 163 223 283 347 436 518
#     4  12  26  50  77 115 165 213 278 354 424 511
#     4  12  28  52  82 128 170 220 290 367 434 535
#     4  12  26  48  83 120 159 219 278 353 436 518
#     4  12  26  52  79 113 163 218 280 350 432 521
#
# _framework density 28.030533999999999
#
# number of rings (size 3 to 8) (size 9 to 14) (size 15 to 20)
#    0.000    0.000    5.455    3.273    2.545    4.364 
#    0.000    0.909    0.000    0.000    0.000    0.000 
#    0.000    0.000    0.000    0.000    0.000    0.000 
#
# Total GULP energy -122492.859287 kJ/mol
# GULP energy per Si atom -5567.857240 kJ/mol
# Density = 2.796674 g / cm^3
# Si number density = 28.030534 Si / 1000 Ang^3
#
#
#
# Elastic Constant Matrix: (Units=GPa)
#
#
# Indices 1 2 3 4 5 6 
#
# 1 289.2418 32.6888 42.9625 0.0008 10.0225 -0.0029
# 2 32.6888 217.7368 47.0521 0.0027 -4.1198 0.0004
# 3 42.9625 47.0521 159.2170 0.0009 4.3373 -0.0011
# 4 0.0008 0.0027 0.0009 63.8238 -0.0010 -2.4061
# 5 10.0225 -4.1198 4.3373 -0.0010 53.6193 0.0009
# 6 -0.0029 0.0004 -0.0011 -2.4061 0.0009 61.9230
#
#
#
# Elastic Compliance Matrix: (Units=1/GPa)
#
#
# Indices 1 2 3 4 5 6 
#
# 1 0.003649 -0.000375 -0.000856 0.000000 -0.000642 0.000000
# 2 -0.000375 0.004958 -0.001379 0.000000 0.000563 0.000000
# 3 -0.000856 -0.001379 0.006933 0.000000 -0.000507 0.000000
# 4 0.000000 0.000000 0.000000 0.015691 0.000000 0.000610
# 5 -0.000642 0.000563 -0.000507 0.000000 0.018854 0.000000
# 6 0.000000 0.000000 0.000000 0.000610 0.000000 0.016173
#
#
# Mechanical properties :
#
#
# Convention : Reuss Voigt Hill
#
# Bulk Modulus (GPa) = 96.90963 101.28916 99.09939
# Shear Modulus (GPa) = 66.73888 72.10604 69.42246
#
# Velocity S-wave (km/s) = 4.88478 5.07740 4.98202
# Velocity P-wave (km/s) = 8.15246 8.40161 8.27797
#
# Compressibility (1/GPa) = 0.01031889
#
# Stress axis : x y z
#
# Youngs Moduli (GPa) = 274.03836 201.70703 144.23301
#
# Poissons Ratio (x) = 0.07562 0.12352
# Poissons Ratio (y) = 0.10274 0.19893
# Poissons Ratio (z) = 0.23468 0.27821
#
# Static dielectric constant tensor:
#      x y z
#    x 3.651040 -0.000040 0.172690 
#    y -0.000040 3.220640 0.000000 
#    z 0.172690 0.000000 2.536130 
# 
# From -- ./inp_files/217688.got.cif
#   From: 2010.05.17/outbox.cif.g08.bks.cpg/sg15_109_cif.got.tgz:217688.got - 2010.06.03 18:47:42.
