data_PCOD9308391
_publ_section_title
;
Structure prediction by ZEFSAII (Michael W. Deem and Ramdas Pophale) SiO2 
 PCOD9308391
Probable space group: C 2/C
;
_chemical_formula_sum "Si O2"
_cell_formula_units_Z 36
_cell_length_a 14.211217
_cell_length_b 4.808594
_cell_length_c 20.140651
_cell_angle_alpha 90.000000
_cell_angle_beta 87.106191
_cell_angle_gamma 90.000000
_cell_volume 1374.575907
_symmetry_space_group_name_H-M "C 2/C"
_symmetry_group_IT_number 15
_symmetry_cell_setting 'monoclinic'
loop_
_space_group_symop_operation_xyz
x,y,z
-x,y,1/2-z
-x,-y,-z
x,-y,1/2+z
1/2+x,1/2+y,z
1/2-x,1/2+y,1/2-z
1/2-x,1/2-y,-z
1/2+x,1/2-y,1/2+z
loop_
_atom_site_type_symbol
_atom_site_label
_atom_site_fract_x
_atom_site_fract_y
_atom_site_fract_z
Si Si1 0.262574 0.299372 0.919915
Si Si2 0.000000 0.576147 0.250000
Si Si3 0.791299 0.409024 0.790162
Si Si4 0.563697 0.058725 0.380853
Si Si5 0.031731 0.072501 0.072312
O O1 0.271711 0.049926 0.863809
O O2 0.168835 0.464041 0.902345
O O3 0.360152 0.466730 0.912986
O O4 0.250000 0.250000 0.000000
O O5 0.900101 0.696988 0.279748
O O6 0.960697 0.419625 0.188051
O O7 0.730547 0.157030 0.761969
O O8 0.536630 0.382363 0.380574
O O9 0.487633 0.900566 0.426865
O O10 0.000000 0.000000 0.000000
#
# Coordination Sequence:
#
# PCOD9308391 Si02
#       5
#     8   4   8   8   8
#     4  12  28  50  81 118 158 204 258 321 389 462
#     4  12  28  50  84 106 158 204 266 318 384 462
#     4  12  30  51  78 115 154 206 263 317 385 460
#     4  12  29  48  76 115 150 204 255 320 382 455
#     4  12  28  49  75 112 154 199 250 312 387 455
#
# _framework density 26.189896000000001
#
# number of rings (size 3 to 8) (size 9 to 14) (size 15 to 20)
#    0.000    0.000    6.667    0.667    6.222    4.444 
#    0.000    0.000    0.000    0.000    0.000    0.000 
#    0.000    0.000    0.000    0.000    0.000    0.000 
#
# Total GULP energy -100403.065353 kJ/mol
# GULP energy per Si atom -5577.948075 kJ/mol
# Density = 2.613029 g / cm^3
# Si number density = 26.189896 Si / 1000 Ang^3
#
#
#
# Elastic Constant Matrix: (Units=GPa)
#
#
# Indices 1 2 3 4 5 6 
#
# 1 222.5824 21.3763 40.9131 0.0000 36.2623 0.0000
# 2 21.3763 70.3787 31.5583 0.0000 11.7943 0.0000
# 3 40.9131 31.5583 167.1608 0.0000 25.3476 0.0000
# 4 0.0000 0.0000 0.0000 15.6340 0.0000 8.9981
# 5 36.2623 11.7943 25.3476 0.0000 55.5284 0.0000
# 6 0.0000 0.0000 0.0000 8.9981 0.0000 30.2761
#
#
#
# Elastic Compliance Matrix: (Units=1/GPa)
#
#
# Indices 1 2 3 4 5 6 
#
# 1 0.005164 -0.000779 -0.000677 0.000000 -0.002898 0.000000
# 2 -0.000779 0.015873 -0.002548 0.000000 -0.001699 0.000000
# 3 -0.000677 -0.002548 0.006962 0.000000 -0.002194 0.000000
# 4 0.000000 0.000000 0.000000 0.077162 0.000000 -0.022933
# 5 -0.002898 -0.001699 -0.002194 0.000000 0.021264 0.000000
# 6 0.000000 0.000000 0.000000 -0.022933 0.000000 0.039845
#
#
# Mechanical properties :
#
#
# Convention : Reuss Voigt Hill
#
# Bulk Modulus (GPa) = 50.02688 71.97971 61.00330
# Shear Modulus (GPa) = 27.63303 44.70595 36.16949
#
# Velocity S-wave (km/s) = 3.25176 4.13606 3.72028
# Velocity P-wave (km/s) = 5.76556 7.09597 6.46507
#
# Compressibility (1/GPa) = 0.01998925
#
# Stress axis : x y z
#
# Youngs Moduli (GPa) = 193.64284 63.00028 143.63902
#
# Poissons Ratio (x) = 0.04909 0.09731
# Poissons Ratio (y) = 0.15088 0.36603
# Poissons Ratio (z) = 0.13118 0.16054
#
# Static dielectric constant tensor:
#      x y z
#    x 2.000070 0.000000 -0.119890 
#    y 0.000000 2.054270 0.000000 
#    z -0.119890 0.000000 2.249960 
# 
# From -- ./inp_files/241508.got.cif
#   From: 2010.05.17/outbox.cif.g08.bks.cpg/sg15_121_cif.got.tgz:241508.got - 2010.06.03 18:47:42.
