data_PCOD9308527
_publ_section_title
;
Structure prediction by ZEFSAII (Michael W. Deem and Ramdas Pophale) SiO2 
 PCOD9308527
Probable space group: C 2/C
;
_chemical_formula_sum "Si O2"
_cell_formula_units_Z 56
_cell_length_a 20.785092
_cell_length_b 7.889025
_cell_length_c 19.465147
_cell_angle_alpha 90.000000
_cell_angle_beta 38.398594
_cell_angle_gamma 90.000000
_cell_volume 1982.505781
_symmetry_space_group_name_H-M "C 2/C"
_symmetry_group_IT_number 15
_symmetry_cell_setting 'monoclinic'
loop_
_space_group_symop_operation_xyz
x,y,z
-x,y,1/2-z
-x,-y,-z
x,-y,1/2+z
1/2+x,1/2+y,z
1/2-x,1/2+y,1/2-z
1/2-x,1/2-y,-z
1/2+x,1/2-y,1/2+z
loop_
_atom_site_type_symbol
_atom_site_label
_atom_site_fract_x
_atom_site_fract_y
_atom_site_fract_z
Si Si1 0.175385 0.073014 0.464366
Si Si2 0.304553 0.177595 0.073877
Si Si3 0.545488 0.288161 0.372746
Si Si4 0.911038 0.828344 0.776294
Si Si5 0.020692 0.680490 0.920556
Si Si6 0.264496 0.783275 0.217746
Si Si7 0.898882 0.426435 0.797045
O O1 0.200157 0.140674 0.366256
O O2 0.282300 0.131654 0.411931
O O3 0.059330 0.139438 0.573320
O O4 0.175455 0.869475 0.469009
O O5 0.205045 0.099254 0.119256
O O6 0.267622 0.208008 0.182370
O O7 0.416202 0.088812 0.979798
O O8 0.519551 0.264111 0.474763
O O9 0.660307 0.372304 0.276861
O O10 0.575768 0.123043 0.302707
O O11 0.898258 0.629130 0.806803
O O12 0.000000 0.902785 0.750000
O O13 0.949356 0.808877 0.665711
O O14 0.131483 0.610805 0.853626
O O15 0.000000 0.357609 0.750000
#
# Coordination Sequence:
#
# PCOD9308527 Si02
#       7
#     8   8   8   8   8   8   8
#     4   9  17  30  48  68  92 123 155 187 227 273
#     4   9  17  30  48  68  92 123 155 187 227 273
#     4   9  17  29  47  70  93 117 153 190 227 270
#     4   9  18  32  48  67  93 123 153 188 230 272
#     4   9  17  29  47  70  93 117 153 190 227 270
#     4   8  16  28  42  68  96 116 146 188 228 266
#     4   9  18  32  48  67  93 123 153 188 230 272
#
# _framework density 28.24708
#
# number of rings (size 3 to 8) (size 9 to 14) (size 15 to 20)
#    0.000    3.143    0.000    0.000    0.000    6.857 
#    0.000    4.286    0.000    2.571    0.000    0.000 
#    0.000    0.000    0.000    0.000    0.000    0.000 
#
# Total GULP energy -156302.429733 kJ/mol
# GULP energy per Si atom -5582.229633 kJ/mol
# Density = 2.818279 g / cm^3
# Si number density = 28.247080 Si / 1000 Ang^3
#
#
#
# Elastic Constant Matrix: (Units=GPa)
#
#
# Indices 1 2 3 4 5 6 
#
# 1 151.5265 31.1050 100.5667 0.0001 -72.2685 0.0000
# 2 31.1050 32.1325 35.5180 -0.0004 -17.5148 -0.0004
# 3 100.5667 35.5180 196.8415 -0.0005 -87.5934 0.0002
# 4 0.0001 -0.0004 -0.0005 32.4276 0.0001 2.3742
# 5 -72.2685 -17.5148 -87.5934 0.0001 104.3015 0.0001
# 6 0.0000 -0.0004 0.0002 2.3742 0.0001 16.6797
#
#
#
# Elastic Compliance Matrix: (Units=1/GPa)
#
#
# Indices 1 2 3 4 5 6 
#
# 1 0.012089 -0.005761 -0.002938 0.000000 0.004941 0.000000
# 2 -0.005761 0.041688 -0.005173 0.000000 -0.001336 0.000001
# 3 -0.002938 -0.005173 0.009935 0.000000 0.005439 0.000000
# 4 0.000000 0.000000 0.000000 0.031163 0.000000 -0.004436
# 5 0.004941 -0.001336 0.005439 0.000000 0.017355 0.000000
# 6 0.000000 0.000001 0.000000 -0.004436 0.000000 0.060585
#
#
# Mechanical properties :
#
#
# Convention : Reuss Voigt Hill
#
# Bulk Modulus (GPa) = 27.80287 79.43110 53.61699
# Shear Modulus (GPa) = 23.52409 44.90248 34.21328
#
# Velocity S-wave (km/s) = 2.88895 3.99134 3.48403
# Velocity P-wave (km/s) = 4.58172 7.03010 5.93357
#
# Compressibility (1/GPa) = 0.03596750
#
# Stress axis : x y z
#
# Youngs Moduli (GPa) = 82.72248 23.98749 100.65430
#
# Poissons Ratio (x) = 0.13820 0.29568
# Poissons Ratio (y) = 0.47660 0.52071
# Poissons Ratio (z) = 0.24300 0.12409
#
# Static dielectric constant tensor:
#      x y z
#    x 2.236040 0.000000 -0.047390 
#    y 0.000000 2.210320 0.000000 
#    z -0.047390 0.000000 2.150950 
# 
# From -- ./inp_files/257422.got.cif
#   From: 2010.05.17/outbox.cif.g08.bks.cpg/sg15_129_cif.got.tgz:257422.got - 2010.06.03 18:47:42.
