data_PCOD9308254
_publ_section_title
;
Structure prediction by ZEFSAII (Michael W. Deem and Ramdas Pophale) SiO2 
 PCOD9308254
Probable space group: C 2/C
;
_chemical_formula_sum "Si O2"
_cell_formula_units_Z 44
_cell_length_a 16.246724
_cell_length_b 7.278970
_cell_length_c 15.067362
_cell_angle_alpha 90.000000
_cell_angle_beta 64.203569
_cell_angle_gamma 90.000000
_cell_volume 1604.288006
_symmetry_space_group_name_H-M "C 2/C"
_symmetry_group_IT_number 15
_symmetry_cell_setting 'monoclinic'
loop_
_space_group_symop_operation_xyz
x,y,z
-x,y,1/2-z
-x,-y,-z
x,-y,1/2+z
1/2+x,1/2+y,z
1/2-x,1/2+y,1/2-z
1/2-x,1/2-y,-z
1/2+x,1/2-y,1/2+z
loop_
_atom_site_type_symbol
_atom_site_label
_atom_site_fract_x
_atom_site_fract_y
_atom_site_fract_z
Si Si1 0.439933 0.851534 0.581664
Si Si2 0.205566 0.596478 0.916933
Si Si3 0.000000 0.620890 0.250000
Si Si4 0.860952 0.982400 0.596561
Si Si5 0.673305 0.892777 0.117365
Si Si6 0.392795 0.479378 0.785607
O O1 0.343677 0.962308 0.630842
O O2 0.427934 0.652321 0.540727
O O3 0.500000 0.000000 0.500000
O O4 0.479903 0.806558 0.659303
O O5 0.347422 0.709385 0.051571
O O6 0.194363 0.482049 0.012497
O O7 0.312564 0.628429 0.843298
O O8 0.087898 0.497025 0.195567
O O9 0.762740 0.079840 0.633929
O O10 0.880959 0.927204 0.688488
O O11 0.640103 0.683591 0.134857
O O12 0.500000 0.516477 0.750000
#
# Coordination Sequence:
#
# PCOD9308254 Si02
#       6
#     8   8   4   8   8   8
#     4  12  28  54  85 128 179 232 292 371 443 539
#     4  12  28  54  82 126 177 236 291 374 457 535
#     4  12  26  50  86 124 168 236 298 358 446 544
#     4  12  29  52  84 122 174 231 298 361 454 538
#     4  12  26  53  83 120 175 233 292 368 453 536
#     4  12  27  51  87 125 170 230 300 371 448 536
#
# _framework density 27.426497999999999
#
# number of rings (size 3 to 8) (size 9 to 14) (size 15 to 20)
#    0.000    0.000    4.545    4.364    3.818    0.727 
#    3.273    0.000    0.000    0.000    0.000    0.000 
#    0.000    0.000    0.000    0.000    0.000    0.000 
#
# Total GULP energy -123267.185216 kJ/mol
# GULP energy per Si atom -5603.053873 kJ/mol
# Density = 2.736407 g / cm^3
# Si number density = 27.426498 Si / 1000 Ang^3
#
#
#
# Elastic Constant Matrix: (Units=GPa)
#
#
# Indices 1 2 3 4 5 6 
#
# 1 191.3326 79.4582 67.7296 0.0000 6.7108 0.0000
# 2 79.4582 203.0612 61.9095 0.0000 1.5544 0.0001
# 3 67.7296 61.9095 133.2945 0.0000 0.4292 0.0000
# 4 0.0000 0.0000 0.0000 37.8369 0.0000 12.2503
# 5 6.7108 1.5544 0.4292 0.0000 49.7865 0.0000
# 6 0.0000 0.0001 0.0000 12.2503 0.0000 17.8711
#
#
#
# Elastic Compliance Matrix: (Units=1/GPa)
#
#
# Indices 1 2 3 4 5 6 
#
# 1 0.006996 -0.001920 -0.002660 0.000000 -0.000860 0.000000
# 2 -0.001920 0.006265 -0.001935 0.000000 0.000080 0.000000
# 3 -0.002660 -0.001935 0.009751 0.000000 0.000335 0.000000
# 4 0.000000 0.000000 0.000000 0.033968 0.000000 -0.023284
# 5 -0.000860 0.000080 0.000335 0.000000 0.020196 0.000000
# 6 0.000000 0.000000 0.000000 -0.023284 0.000000 0.071917
#
#
# Mechanical properties :
#
#
# Convention : Reuss Voigt Hill
#
# Bulk Modulus (GPa) = 100.17193 105.09812 102.63502
# Shear Modulus (GPa) = 30.22055 42.33830 36.27942
#
# Velocity S-wave (km/s) = 3.32305 3.93326 3.64096
# Velocity P-wave (km/s) = 7.16426 7.68313 7.42823
#
# Compressibility (1/GPa) = 0.00998284
#
# Stress axis : x y z
#
# Youngs Moduli (GPa) = 142.94699 159.61557 102.54985
#
# Poissons Ratio (x) = 0.30642 0.27280
# Poissons Ratio (y) = 0.27442 0.19840
# Poissons Ratio (z) = 0.38027 0.30880
#
# Static dielectric constant tensor:
#      x y z
#    x 2.186430 0.000000 -0.052660 
#    y 0.000000 2.298580 0.000000 
#    z -0.052660 0.000000 2.223060 
# 
# From -- ./inp_files/151350.got.cif
#   From: 2010.05.17/outbox.cif.g08.bks.cpg/sg15_76_cif.got.tgz:151350.got - 2010.06.03 18:47:42.
