data_PCOD9308252
_publ_section_title
;
Structure prediction by ZEFSAII (Michael W. Deem and Ramdas Pophale) SiO2 
 PCOD9308252
Probable space group: C 2/C
;
_chemical_formula_sum "Si O2"
_cell_formula_units_Z 28
_cell_length_a 7.616271
_cell_length_b 12.753472
_cell_length_c 9.555801
_cell_angle_alpha 90.000000
_cell_angle_beta 94.744136
_cell_angle_gamma 90.000000
_cell_volume 925.012197
_symmetry_space_group_name_H-M "C 2/C"
_symmetry_group_IT_number 15
_symmetry_cell_setting 'monoclinic'
loop_
_space_group_symop_operation_xyz
x,y,z
-x,y,1/2-z
-x,-y,-z
x,-y,1/2+z
1/2+x,1/2+y,z
1/2-x,1/2+y,1/2-z
1/2-x,1/2-y,-z
1/2+x,1/2-y,1/2+z
loop_
_atom_site_type_symbol
_atom_site_label
_atom_site_fract_x
_atom_site_fract_y
_atom_site_fract_z
Si Si1 0.227775 0.494251 0.749572
Si Si2 0.000000 0.849060 0.250000
Si Si3 0.166497 0.781452 0.656075
Si Si4 0.110162 0.651963 0.990165
O O1 0.374102 0.560124 0.673937
O O2 0.309721 0.404938 0.853228
O O3 0.145746 0.578007 0.855512
O O4 0.127569 0.427153 0.623022
O O5 0.080727 0.709902 0.528082
O O6 0.000000 0.774104 0.750000
O O7 0.340022 0.733888 0.737302
O O8 0.250000 0.750000 0.000000
#
# Coordination Sequence:
#
# PCOD9308252 Si02
#       4
#     8   4   8   8
#     4  12  27  54  89 125 175 239 293 368 454 521
#     4  12  26  50  84 128 168 236 296 352 450 528
#     4  12  26  54  83 127 184 225 296 374 436 536
#     4  12  27  57  91 127 183 233 298 374 443 536
#
# _framework density 30.269870000000001
#
# number of rings (size 3 to 8) (size 9 to 14) (size 15 to 20)
#    0.000    0.000    7.143    0.000    0.000   10.286 
#    0.000   17.143    0.000    0.000    0.000    0.000 
#    0.000    0.000    0.000    0.000    0.000    0.000 
#
# Total GULP energy -77987.797820 kJ/mol
# GULP energy per Si atom -5570.556987 kJ/mol
# Density = 3.020097 g / cm^3
# Si number density = 30.269870 Si / 1000 Ang^3
#
#
#
# Elastic Constant Matrix: (Units=GPa)
#
#
# Indices 1 2 3 4 5 6 
#
# 1 210.3296 128.4025 58.4431 0.0000 61.3270 0.0000
# 2 128.4025 304.3812 79.8211 0.0000 18.0067 0.0000
# 3 58.4431 79.8211 223.5485 0.0000 -3.8440 0.0000
# 4 0.0000 0.0000 0.0000 62.3838 0.0000 5.6633
# 5 61.3270 18.0067 -3.8440 0.0000 41.3764 0.0000
# 6 0.0000 0.0000 0.0000 5.6633 0.0000 98.7394
#
#
#
# Elastic Compliance Matrix: (Units=1/GPa)
#
#
# Indices 1 2 3 4 5 6 
#
# 1 0.012817 -0.003761 -0.002310 0.000000 -0.017574 0.000000
# 2 -0.003761 0.004852 -0.000691 0.000000 0.003399 0.000000
# 3 -0.002310 -0.000691 0.005396 0.000000 0.004226 0.000000
# 4 0.000000 0.000000 0.000000 0.016114 0.000000 -0.000924
# 5 -0.017574 0.003399 0.004226 0.000000 0.049130 0.000000
# 6 0.000000 0.000000 0.000000 -0.000924 0.000000 0.010181
#
#
# Mechanical properties :
#
#
# Convention : Reuss Voigt Hill
#
# Bulk Modulus (GPa) = 104.80570 141.28808 123.04689
# Shear Modulus (GPa) = 43.40508 71.93945 57.67227
#
# Velocity S-wave (km/s) = 3.79084 4.88033 4.36967
# Velocity P-wave (km/s) = 7.33891 8.86196 8.13615
#
# Compressibility (1/GPa) = 0.00954147
#
# Stress axis : x y z
#
# Youngs Moduli (GPa) = 78.02298 206.09643 185.30580
#
# Poissons Ratio (x) = 0.77519 0.42804
# Poissons Ratio (y) = 0.29347 0.12800
# Poissons Ratio (z) = 0.18023 0.14236
#
# Static dielectric constant tensor:
#      x y z
#    x 2.603070 0.000000 -0.211970 
#    y 0.000000 2.218100 0.000000 
#    z -0.211970 0.000000 2.860770 
# 
# From -- ./inp_files/36624.got.cif
#   From: 2010.05.17/outbox.cif.g08.bks.cpg/sg15_19_cif.got.tgz:36624.got - 2010.06.03 18:47:42.
