data_PCOD9308453
_publ_section_title
;
Structure prediction by ZEFSAII (Michael W. Deem and Ramdas Pophale) SiO2 
 PCOD9308453
Probable space group: C 2/C
;
_chemical_formula_sum "Si O2"
_cell_formula_units_Z 52
_cell_length_a 13.174894
_cell_length_b 13.995549
_cell_length_c 9.961242
_cell_angle_alpha 90.000000
_cell_angle_beta 83.585770
_cell_angle_gamma 90.000000
_cell_volume 1825.254469
_symmetry_space_group_name_H-M "C 2/C"
_symmetry_group_IT_number 15
_symmetry_cell_setting 'monoclinic'
loop_
_space_group_symop_operation_xyz
x,y,z
-x,y,1/2-z
-x,-y,-z
x,-y,1/2+z
1/2+x,1/2+y,z
1/2-x,1/2+y,1/2-z
1/2-x,1/2-y,-z
1/2+x,1/2-y,1/2+z
loop_
_atom_site_type_symbol
_atom_site_label
_atom_site_fract_x
_atom_site_fract_y
_atom_site_fract_z
Si Si1 0.451351 0.296924 0.404036
Si Si2 0.193788 0.278065 0.355735
Si Si3 0.876221 0.590248 0.957703
Si Si4 0.000000 0.284539 0.250000
Si Si5 0.824226 0.503855 0.210490
Si Si6 0.891803 0.010697 0.779511
Si Si7 0.670861 0.320326 0.399019
O O1 0.500000 0.269381 0.250000
O O2 0.351501 0.249238 0.489397
O O3 0.413684 0.406776 0.387730
O O4 0.559308 0.290541 0.470226
O O5 0.183839 0.393496 0.339213
O O6 0.291035 0.262981 0.241081
O O7 0.100598 0.232604 0.283727
O O8 0.848047 0.501334 0.863569
O O9 0.776252 0.659400 0.962706
O O10 0.967474 0.640749 0.870124
O O11 0.900262 0.559609 0.103755
O O12 0.712626 0.544509 0.188462
O O13 0.862895 0.074384 0.652861
O O14 0.000000 0.960486 0.750000
#
# Coordination Sequence:
#
# PCOD9308453 Si02
#       7
#     8   8   8   4   8   8   8
#     4   9  16  29  49  73  96 122 157 198 232 286
#     4   9  17  31  49  70  94 124 159 195 238 281
#     4   9  17  33  50  68  95 126 161 198 232 287
#     4   8  18  34  50  62  90 138 158 176 242 292
#     4   9  18  31  50  71  95 128 158 197 239 279
#     4   7  13  27  47  70  91 124 158 189 239 283
#     4   7  15  29  48  68  91 129 157 184 243 285
#
# _framework density 28.489177999999999
#
# number of rings (size 3 to 8) (size 9 to 14) (size 15 to 20)
#    0.000    4.615    0.000    0.000    0.000    8.000 
#    4.154   10.000    3.385    0.000    0.000    0.000 
#    0.000    0.000    0.000    0.000    0.000    0.000 
#
# Total GULP energy -144818.888892 kJ/mol
# GULP energy per Si atom -5569.957265 kJ/mol
# Density = 2.842434 g / cm^3
# Si number density = 28.489178 Si / 1000 Ang^3
#
#
#
# Elastic Constant Matrix: (Units=GPa)
#
#
# Indices 1 2 3 4 5 6 
#
# 1 148.3652 11.8905 28.7531 0.0000 -61.1939 0.0000
# 2 11.8905 60.3060 38.6500 0.0000 -15.8024 0.0000
# 3 28.7531 38.6500 113.8330 0.0000 -28.0275 0.0000
# 4 0.0000 0.0000 0.0000 -90.0250 0.0000 30.3099
# 5 -61.1939 -15.8024 -28.0275 0.0000 48.2097 0.0000
# 6 0.0000 0.0000 0.0000 30.3099 0.0000 6.9997
#
#
#
# Elastic Compliance Matrix: (Units=1/GPa)
#
#
# Indices 1 2 3 4 5 6 
#
# 1 0.014408 0.001903 0.000433 0.000000 0.019164 0.000000
# 2 0.001903 0.021884 -0.006477 0.000000 0.005824 0.000000
# 3 0.000433 -0.006477 0.012239 0.000000 0.005542 0.000000
# 4 0.000000 0.000000 0.000000 -0.004519 0.000000 0.019569
# 5 0.019164 0.005824 0.005542 0.000000 0.050199 0.000000
# 6 0.000000 0.000000 0.000000 0.019569 0.000000 0.058124
#
#
# Mechanical properties :
#
#
# Convention : Reuss Voigt Hill
#
# Bulk Modulus (GPa) = 24.84520 53.45460 39.14990
# Shear Modulus (GPa) = 28.73017 9.25094 18.99055
#
# Velocity S-wave (km/s) = 3.17907 1.80395 2.58464
# Velocity P-wave (km/s) = 4.71330 4.81070 4.76225
#
# Compressibility (1/GPa) = 0.04024923
#
# Stress axis : x y z
#
# Youngs Moduli (GPa) = 69.40625 45.69531 81.70479
#
# Poissons Ratio (x) = -0.08698 -0.03537
# Poissons Ratio (y) = -0.13211 0.52923
# Poissons Ratio (z) = -0.03005 0.29598
#
# Static dielectric constant tensor:
#      x y z
#    x 2.351130 0.000000 0.068280 
#    y 0.000000 2.277280 0.000000 
#    z 0.068280 0.000000 2.470260 
# 
# From -- ./inp_files/99065.got.cif
#   From: 2010.05.17/outbox.cif.g08.bks.cpg/sg15_50_cif.got.tgz:99065.got - 2010.06.03 18:47:42.
