data_PCOD9308958
_publ_section_title
;
Structure prediction by ZEFSAII (Michael W. Deem and Ramdas Pophale) SiO2 
 PCOD9308958
Probable space group: C 2/C
;
_chemical_formula_sum "Si O2"
_cell_formula_units_Z 32
_cell_length_a 24.000000
_cell_length_b 18.000000
_cell_length_c 21.000000
_cell_angle_alpha 90.000000
_cell_angle_beta 20.000000
_cell_angle_gamma 90.000000
_cell_volume 3102.806740
_symmetry_space_group_name_H-M "C 2/C"
_symmetry_group_IT_number 15
_symmetry_cell_setting 'monoclinic'
loop_
_space_group_symop_operation_xyz
x,y,z
-x,y,1/2-z
-x,-y,-z
x,-y,1/2+z
1/2+x,1/2+y,z
1/2-x,1/2+y,1/2-z
1/2-x,1/2-y,-z
1/2+x,1/2-y,1/2+z
loop_
_atom_site_type_symbol
_atom_site_label
_atom_site_fract_x
_atom_site_fract_y
_atom_site_fract_z
Si Si1 0.375935 0.368760 0.973471
Si Si2 0.168213 0.439374 0.498007
Si Si3 0.220851 0.150780 0.397963
Si Si4 0.201171 0.510452 0.108189
Si Si5 0.923838 0.256122 0.184341
Si Si6 0.577302 0.472152 0.851856
Si Si7 0.232081 0.659185 0.301203
Si Si8 0.513687 0.779269 0.660437
O O1 0.298263 0.431471 0.008575
O O2 0.224377 0.311996 0.142628
O O3 0.524986 0.305901 0.816613
O O4 0.444480 0.423795 0.955224
O O5 0.205293 0.458069 0.531981
O O6 0.328543 0.464459 0.288042
O O7 0.130025 0.352069 0.529395
O O8 0.996451 0.483365 0.665282
O O9 0.278782 0.151289 0.262749
O O10 0.347680 0.192481 0.307800
O O11 0.065680 0.203904 0.569934
O O12 0.212962 0.068252 0.435444
O O13 0.877784 0.212302 0.169016
O O14 0.075925 0.306553 0.002694
O O15 0.723971 0.418442 0.714890
O O16 0.500000 0.500000 0.000000
O O17 0.500000 0.764036 0.750000
#
# Coordination Sequence:
#
# PCOD9308958 Si02
#       8
#     8   8   8   8   8   8   8   8
#     4  10  21  39  65  93 124 160 210 262 324 385
#     4  10  22  42  64  86 128 170 211 264 315 377
#     4  11  22  36  59  90 126 167 213 256 310 370
#     4  10  21  41  64  93 120 167 215 260 321 377
#     4   9  20  38  62  87 124 164 205 266 318 382
#     4  11  24  39  59  92 127 164 212 262 318 378
#     4  10  20  37  57  88 121 164 212 258 314 372
#     4  11  22  40  59  91 131 168 211 256 308 375
#
# _framework density 10.313243
#
# number of rings (size 3 to 8) (size 9 to 14) (size 15 to 20)
#    0.000    1.750    2.500    2.625    0.000    7.500 
#    0.000    4.375    0.000   25.500    0.000    0.000 
#    0.000    0.000    0.000    0.000    0.000    0.000 
#
# Total GULP energy -178263.979346 kJ/mol
# GULP energy per Si atom -5570.749355 kJ/mol
# Density = 1.028977 g / cm^3
# Si number density = 10.313243 Si / 1000 Ang^3
#
#
#
# Elastic Constant Matrix: (Units=GPa)
#
#
# Indices 1 2 3 4 5 6 
#
# 1 32.9438 -7.0682 -2.1882 -0.0067 -8.9083 0.0054
# 2 -7.0682 79.3608 24.4687 -0.0201 2.9058 0.0146
# 3 -2.1882 24.4687 65.8537 -0.0249 -4.5616 0.0140
# 4 -0.0067 -0.0201 -0.0249 13.7585 0.0092 -14.1641
# 5 -8.9083 2.9058 -4.5616 0.0092 20.4689 -0.0042
# 6 0.0054 0.0146 0.0140 -14.1641 -0.0042 20.0201
#
#
#
# Elastic Compliance Matrix: (Units=1/GPa)
#
#
# Indices 1 2 3 4 5 6 
#
# 1 0.035032 0.002119 0.001434 0.000013 0.015265 0.000001
# 2 0.002119 0.014575 -0.005510 0.000022 -0.002375 0.000007
# 3 0.001434 -0.005510 0.017650 0.000049 0.005340 0.000027
# 4 0.000013 0.000022 0.000049 0.267565 -0.000068 0.189301
# 5 0.015265 -0.002375 0.005340 -0.000068 0.057025 -0.000042
# 6 0.000001 0.000007 0.000027 0.189301 -0.000042 0.183880
#
#
# Mechanical properties :
#
#
# Convention : Reuss Voigt Hill
#
# Bulk Modulus (GPa) = 15.78672 23.17589 19.48131
# Shear Modulus (GPa) = 8.32285 21.71255 15.01770
#
# Velocity S-wave (km/s) = 2.01092 3.24798 2.70122
# Velocity P-wave (km/s) = 3.61413 5.03252 4.38111
#
# Compressibility (1/GPa) = 0.06334439
#
# Stress axis : x y z
#
# Youngs Moduli (GPa) = 28.54498 68.61007 56.65761
#
# Poissons Ratio (x) = -0.14539 -0.08125
# Poissons Ratio (y) = -0.06049 0.31216
# Poissons Ratio (z) = -0.04094 0.37802
#
# Static dielectric constant tensor:
#      x y z
#    x 1.749890 -0.000010 0.127480 
#    y -0.000010 1.786990 -0.000040 
#    z 0.127480 -0.000040 2.594950 
# 
# From -- ./inp_files/255970.got.cif
#   From: 2010.05.17/outbox.ucp.g08.bks.cvg/sg15_128_cif.got.tgz:255970.got - 2010.06.11 12:40:34.
