data_PCOD9308771
_publ_section_title
;
Structure prediction by ZEFSAII (Michael W. Deem and Ramdas Pophale) SiO2 
 PCOD9308771
Probable space group: C 2/C
;
_chemical_formula_sum "Si O2"
_cell_formula_units_Z 26
_cell_length_a 9.000000
_cell_length_b 18.000000
_cell_length_c 18.000000
_cell_angle_alpha 90.000000
_cell_angle_beta 100.000000
_cell_angle_gamma 90.000000
_cell_volume 2871.699408
_symmetry_space_group_name_H-M "C 2/C"
_symmetry_group_IT_number 15
_symmetry_cell_setting 'monoclinic'
loop_
_space_group_symop_operation_xyz
x,y,z
-x,y,1/2-z
-x,-y,-z
x,-y,1/2+z
1/2+x,1/2+y,z
1/2-x,1/2+y,1/2-z
1/2-x,1/2-y,-z
1/2+x,1/2-y,1/2+z
loop_
_atom_site_type_symbol
_atom_site_label
_atom_site_fract_x
_atom_site_fract_y
_atom_site_fract_z
Si Si1 0.837661 0.857426 0.129966
Si Si2 0.000000 0.975773 0.250000
Si Si3 0.675811 0.471055 0.506190
Si Si4 0.869774 0.233585 0.895979
Si Si5 0.219733 0.865826 0.968681
Si Si6 0.097947 0.102585 0.144848
Si Si7 0.835276 0.257146 0.270087
O O1 0.899553 0.919087 0.193309
O O2 0.713630 0.810993 0.165977
O O3 0.964996 0.797966 0.112960
O O4 0.800449 0.908998 0.055322
O O5 0.924982 0.032725 0.302099
O O6 0.500000 0.500000 0.500000
O O7 0.759820 0.548281 0.492224
O O8 0.700540 0.428746 0.586415
O O9 0.837900 0.314442 0.932263
O O10 0.777483 0.234235 0.810132
O O11 0.812578 0.176411 0.955695
O O12 0.063884 0.871816 0.906029
O O13 0.159812 0.173387 0.195692
O O14 0.000000 0.273303 0.250000
#
# Coordination Sequence:
#
# PCOD9308771 Si02
#       7
#     8   4   8   8   8   8   8
#     4  12  23  37  66  94 121 159 215 256 300 363
#     4  12  18  34  66  94 114 158 218 260 280 354
#     4  10  19  37  61  96 114 158 214 254 286 368
#     4  11  20  37  60  94 121 159 202 250 304 368
#     4  10  19  35  65  88 121 155 204 252 301 358
#     4  11  20  37  63  92 122 163 210 250 300 365
#     4  12  25  39  58  93 128 162 197 259 318 365
#
# _framework density 9.0538720000000001
#
# number of rings (size 3 to 8) (size 9 to 14) (size 15 to 20)
#    0.000    0.923   10.000    0.000    0.000    0.615 
#    0.000    0.000    3.385    1.846    0.000    0.000 
#    0.000    0.000    0.000    0.000    0.000    0.000 
#
# Total GULP energy -144928.590534 kJ/mol
# GULP energy per Si atom -5574.176559 kJ/mol
# Density = 0.903327 g / cm^3
# Si number density = 9.053872 Si / 1000 Ang^3
#
#
#
# Elastic Constant Matrix: (Units=GPa)
#
#
# Indices 1 2 3 4 5 6 
#
# 1 56.2253 54.3576 29.9658 0.0000 -29.7468 0.0000
# 2 54.3576 159.1779 49.9907 0.0000 -26.9321 0.0000
# 3 29.9658 49.9907 121.8010 0.0000 -28.9727 0.0000
# 4 0.0000 0.0000 0.0000 58.9719 0.0000 -14.6601
# 5 -29.7468 -26.9321 -28.9727 0.0000 30.1388 0.0000
# 6 0.0000 0.0000 0.0000 -14.6601 0.0000 35.5664
#
#
#
# Elastic Compliance Matrix: (Units=1/GPa)
#
#
# Indices 1 2 3 4 5 6 
#
# 1 0.047592 -0.010123 0.001903 0.000000 0.039756 0.000000
# 2 -0.010123 0.009910 -0.002394 0.000000 -0.003438 0.000000
# 3 0.001903 -0.002394 0.011231 0.000000 0.010535 0.000000
# 4 0.000000 0.000000 0.000000 0.018893 0.000000 0.007788
# 5 0.039756 -0.003438 0.010535 0.000000 0.079473 0.000000
# 6 0.000000 0.000000 0.000000 0.007788 0.000000 0.031326
#
#
# Mechanical properties :
#
#
# Convention : Reuss Voigt Hill
#
# Bulk Modulus (GPa) = 21.05150 67.31472 44.18311
# Shear Modulus (GPa) = 21.23242 38.46142 29.84692
#
# Velocity S-wave (km/s) = 3.42798 4.61372 4.06433
# Velocity P-wave (km/s) = 5.22676 8.10168 6.81748
#
# Compressibility (1/GPa) = 0.04750255
#
# Stress axis : x y z
#
# Youngs Moduli (GPa) = 21.01192 100.91294 89.04292
#
# Poissons Ratio (x) = 1.02157 -0.16944
# Poissons Ratio (y) = 0.21271 0.21321
# Poissons Ratio (z) = -0.03998 0.24163
#
# Static dielectric constant tensor:
#      x y z
#    x 1.634280 0.000000 0.001200 
#    y 0.000000 1.625160 0.000000 
#    z 0.001200 0.000000 1.650940 
# 
# From -- ./inp_files/190494.got.cif
#   From: 2010.05.17/outbox.ucp.g08.bks.cvg/sg15_96_cif.got.tgz:190494.got - 2010.06.11 12:40:34.
