data_PCOD9308827
_publ_section_title
;
Structure prediction by ZEFSAII (Michael W. Deem and Ramdas Pophale) SiO2 
 PCOD9308827
Probable space group: C 2/C
;
_chemical_formula_sum "Si O2"
_cell_formula_units_Z 32
_cell_length_a 30.000000
_cell_length_b 9.000000
_cell_length_c 24.000000
_cell_angle_alpha 90.000000
_cell_angle_beta 150.000000
_cell_angle_gamma 90.000000
_cell_volume 3240.000000
_symmetry_space_group_name_H-M "C 2/C"
_symmetry_group_IT_number 15
_symmetry_cell_setting 'monoclinic'
loop_
_space_group_symop_operation_xyz
x,y,z
-x,y,1/2-z
-x,-y,-z
x,-y,1/2+z
1/2+x,1/2+y,z
1/2-x,1/2+y,1/2-z
1/2-x,1/2-y,-z
1/2+x,1/2-y,1/2+z
loop_
_atom_site_type_symbol
_atom_site_label
_atom_site_fract_x
_atom_site_fract_y
_atom_site_fract_z
Si Si1 0.796740 0.366328 0.477114
Si Si2 0.254822 0.096986 0.657825
Si Si3 0.986585 0.465902 0.670855
Si Si4 0.403369 0.173543 0.489887
Si Si5 0.053150 0.348419 0.071418
Si Si6 0.252369 0.039038 0.811478
Si Si7 0.826141 0.162760 0.358194
Si Si8 0.310611 0.933567 0.615558
O O1 0.902366 0.352775 0.576977
O O2 0.749881 0.446958 0.374871
O O3 0.747074 0.211630 0.432173
O O4 0.795818 0.455778 0.533819
O O5 0.178095 0.219913 0.581502
O O6 0.351150 0.122682 0.793096
O O7 0.205165 0.950990 0.628636
O O8 0.278854 0.066427 0.620007
O O9 0.954556 0.601755 0.597853
O O10 0.000000 0.508733 0.750000
O O11 0.083963 0.407778 0.758673
O O12 0.480392 0.232450 0.532552
O O13 0.347139 0.038948 0.401121
O O14 0.080013 0.247015 0.047272
O O15 0.000000 0.500000 0.000000
O O16 0.255330 0.202527 0.788452
O O17 0.181563 0.935218 0.705829
#
# Coordination Sequence:
#
# PCOD9308827 Si02
#       8
#     8   8   8   8   8   8   8   8
#     4   9  20  36  65  96 129 166 225 273 320 393
#     4  12  24  41  66 100 131 167 226 273 329 399
#     4   9  19  37  64  95 124 168 218 262 332 400
#     4  11  22  41  63  91 129 171 218 271 320 397
#     4  12  24  41  66  91 130 179 214 260 342 392
#     4  11  20  38  60  94 128 165 212 268 325 379
#     4  12  22  38  64  93 132 166 212 272 321 389
#     4  10  19  39  65  94 126 177 217 269 334 392
#
# _framework density 9.8765429999999999
#
# number of rings (size 3 to 8) (size 9 to 14) (size 15 to 20)
#    0.000    1.250    6.250    0.000    0.000    0.500 
#    0.000    8.125    0.000    2.250    0.000    0.000 
#    0.000    0.000    0.000    0.000    0.000    0.000 
#
# Total GULP energy -178193.305587 kJ/mol
# GULP energy per Si atom -5568.540800 kJ/mol
# Density = 0.985406 g / cm^3
# Si number density = 9.876543 Si / 1000 Ang^3
#
#
#
# Elastic Constant Matrix: (Units=GPa)
#
#
# Indices 1 2 3 4 5 6 
#
# 1 105.4589 27.9365 39.6538 0.0000 15.9252 0.0000
# 2 27.9365 78.7658 28.5115 0.0000 6.0032 0.0000
# 3 39.6538 28.5115 79.4226 0.0000 8.3854 0.0000
# 4 0.0000 0.0000 0.0000 31.4934 0.0000 4.6645
# 5 15.9252 6.0032 8.3854 0.0000 37.2773 0.0000
# 6 0.0000 0.0000 0.0000 4.6645 0.0000 34.2476
#
#
#
# Elastic Compliance Matrix: (Units=1/GPa)
#
#
# Indices 1 2 3 4 5 6 
#
# 1 0.012579 -0.002346 -0.005030 0.000000 -0.003864 0.000000
# 2 -0.002346 0.015082 -0.004192 0.000000 -0.000484 0.000000
# 3 -0.005030 -0.004192 0.016706 0.000000 -0.000934 0.000000
# 4 0.000000 0.000000 0.000000 0.032406 0.000000 -0.004414
# 5 -0.003864 -0.000484 -0.000934 0.000000 0.028765 0.000000
# 6 0.000000 0.000000 0.000000 -0.004414 0.000000 0.029800
#
#
# Mechanical properties :
#
#
# Convention : Reuss Voigt Hill
#
# Bulk Modulus (GPa) = 47.10182 50.65009 48.87595
# Shear Modulus (GPa) = 30.20216 31.77338 30.98777
#
# Velocity S-wave (km/s) = 3.91447 4.01500 3.96505
# Velocity P-wave (km/s) = 6.65791 6.86956 6.76456
#
# Compressibility (1/GPa) = 0.02123060
#
# Stress axis : x y z
#
# Youngs Moduli (GPa) = 79.49894 66.30335 59.85987
#
# Poissons Ratio (x) = 0.15556 0.30110
# Poissons Ratio (y) = 0.18651 0.25092
# Poissons Ratio (z) = 0.39988 0.27793
#
# Static dielectric constant tensor:
#      x y z
#    x 1.791680 0.000000 -0.028980 
#    y 0.000000 1.732120 0.000000 
#    z -0.028980 0.000000 1.694280 
# 
# From -- ./inp_files/284454.got.cif
#   From: 2010.05.17/outbox.ucp.g08.bks.cvg/sg15_143_cif.got.tgz:284454.got - 2010.06.11 12:40:34.
