data_PCOD9308141
_publ_section_title
;
Structure prediction by ZEFSAII (Michael W. Deem and Ramdas Pophale) SiO2 
 PCOD9308141
Probable space group: C 2/C
;
_chemical_formula_sum "Si O2"
_cell_formula_units_Z 40
_cell_length_a 11.921162
_cell_length_b 8.506843
_cell_length_c 17.619440
_cell_angle_alpha 90.000000
_cell_angle_beta 92.374483
_cell_angle_gamma 90.000000
_cell_volume 1785.278828
_symmetry_space_group_name_H-M "C 2/C"
_symmetry_group_IT_number 15
_symmetry_cell_setting 'monoclinic'
loop_
_space_group_symop_operation_xyz
x,y,z
-x,y,1/2-z
-x,-y,-z
x,-y,1/2+z
1/2+x,1/2+y,z
1/2-x,1/2+y,1/2-z
1/2-x,1/2-y,-z
1/2+x,1/2-y,1/2+z
loop_
_atom_site_type_symbol
_atom_site_label
_atom_site_fract_x
_atom_site_fract_y
_atom_site_fract_z
Si Si1 0.610958 0.300459 0.797276
Si Si2 0.186370 0.472061 0.195458
Si Si3 0.521399 0.470525 0.588710
Si Si4 0.491952 0.814835 0.658231
Si Si5 0.743806 0.197891 0.412165
O O1 0.500000 0.355761 0.750000
O O2 0.719974 0.401698 0.780210
O O3 0.636781 0.127158 0.764998
O O4 0.569219 0.343915 0.880762
O O5 0.090256 0.561022 0.145687
O O6 0.243622 0.348693 0.141344
O O7 0.500000 0.500000 0.500000
O O8 0.511340 0.638786 0.629030
O O9 0.647597 0.407318 0.601184
O O10 0.500000 0.806053 0.750000
O O11 0.376409 0.869806 0.615977
O O12 0.750000 0.250000 0.500000
#
# Coordination Sequence:
#
# PCOD9308141 Si02
#       5
#     8   8   8   8   8
#     4  12  26  47  76 113 154 200 258 319 394 457
#     4  12  28  45  76 114 151 204 260 319 389 468
#     4  12  26  52  78 108 155 205 258 323 388 463
#     4  12  28  46  77 115 152 202 257 319 385 456
#     4  12  26  51  77 110 162 202 257 319 389 463
#
# _framework density 22.405462
#
# number of rings (size 3 to 8) (size 9 to 14) (size 15 to 20)
#    0.000    0.000    6.000    2.400    2.800    2.400 
#    0.000    2.000    0.000    0.000    0.000    0.000 
#    0.000    0.000    0.000    0.000    0.000    0.000 
#
# Total GULP energy -111893.051983 kJ/mol
# GULP energy per Si atom -5594.652599 kJ/mol
# Density = 2.235447 g / cm^3
# Si number density = 22.405462 Si / 1000 Ang^3
#
#
#
# Elastic Constant Matrix: (Units=GPa)
#
#
# Indices 1 2 3 4 5 6 
#
# 1 193.9215 64.9798 35.3608 0.0000 29.0943 0.0000
# 2 64.9798 96.7285 21.4442 0.0000 9.6537 0.0000
# 3 35.3608 21.4442 121.8407 0.0000 4.6418 0.0000
# 4 0.0000 0.0000 0.0000 17.6295 0.0000 -1.5103
# 5 29.0943 9.6537 4.6418 0.0000 43.7793 0.0000
# 6 0.0000 0.0000 0.0000 -1.5103 0.0000 46.8587
#
#
#
# Elastic Compliance Matrix: (Units=1/GPa)
#
#
# Indices 1 2 3 4 5 6 
#
# 1 0.007406 -0.004316 -0.001243 0.000000 -0.003838 0.000000
# 2 -0.004316 0.013485 -0.001121 0.000000 0.000014 0.000000
# 3 -0.001243 -0.001121 0.008760 0.000000 0.000145 0.000000
# 4 0.000000 0.000000 0.000000 0.056880 0.000000 0.001833
# 5 -0.003838 0.000014 0.000145 0.000000 0.025374 0.000000
# 6 0.000000 0.000000 0.000000 0.001833 0.000000 0.021400
#
#
# Mechanical properties :
#
#
# Convention : Reuss Voigt Hill
#
# Bulk Modulus (GPa) = 61.39122 72.89557 67.14339
# Shear Modulus (GPa) = 32.87405 41.03390 36.95397
#
# Velocity S-wave (km/s) = 3.83460 4.28416 4.06560
# Velocity P-wave (km/s) = 6.86041 7.55496 7.21604
#
# Compressibility (1/GPa) = 0.01628897
#
# Stress axis : x y z
#
# Youngs Moduli (GPa) = 135.03430 74.15701 114.15372
#
# Poissons Ratio (x) = 0.32007 0.14194
# Poissons Ratio (y) = 0.58283 0.12799
# Poissons Ratio (z) = 0.16790 0.08315
#
# Static dielectric constant tensor:
#      x y z
#    x 1.930110 0.000000 -0.015580 
#    y 0.000000 1.830030 0.000000 
#    z -0.015580 0.000000 1.858970 
# 
# From -- ./inp_files/195241.got.cif
#   From: 2010.05.17/outbox.cif.g08.bks.cpg/sg15_98_cif.got.tgz:195241.got - 2010.06.03 18:47:42.
