data_PCOD9308320
_publ_section_title
;
Structure prediction by ZEFSAII (Michael W. Deem and Ramdas Pophale) SiO2 
 PCOD9308320
Probable space group: C 2/C
;
_chemical_formula_sum "Si O2"
_cell_formula_units_Z 44
_cell_length_a 22.994194
_cell_length_b 4.915995
_cell_length_c 13.788418
_cell_angle_alpha 90.000000
_cell_angle_beta 89.591933
_cell_angle_gamma 90.000000
_cell_volume 1558.594178
_symmetry_space_group_name_H-M "C 2/C"
_symmetry_group_IT_number 15
_symmetry_cell_setting 'monoclinic'
loop_
_space_group_symop_operation_xyz
x,y,z
-x,y,1/2-z
-x,-y,-z
x,-y,1/2+z
1/2+x,1/2+y,z
1/2-x,1/2+y,1/2-z
1/2-x,1/2-y,-z
1/2+x,1/2-y,1/2+z
loop_
_atom_site_type_symbol
_atom_site_label
_atom_site_fract_x
_atom_site_fract_y
_atom_site_fract_z
Si Si1 0.047887 0.315853 0.554152
Si Si2 0.607812 0.295816 0.474043
Si Si3 0.767822 0.855078 0.606205
Si Si4 0.389456 0.378359 0.701890
Si Si5 0.000000 0.478445 0.250000
Si Si6 0.805962 0.887826 0.875144
O O1 0.102405 0.498875 0.520425
O O2 0.031266 0.342682 0.666584
O O3 0.000000 0.500000 0.500000
O O4 0.061449 0.013941 0.517883
O O5 0.601342 0.339319 0.358677
O O6 0.669392 0.392270 0.515048
O O7 0.750000 0.750000 0.500000
O O8 0.832170 0.778895 0.643468
O O9 0.724088 0.654677 0.665289
O O10 0.740990 0.150162 0.626146
O O11 0.449871 0.213401 0.702720
O O12 0.364631 0.368540 0.810426
#
# Coordination Sequence:
#
# PCOD9308320 Si02
#       6
#     8   8   8   8   4   8
#     4  12  27  49  74 113 158 208 259 315 386 467
#     4  12  27  48  80 112 155 201 260 324 391 463
#     4  12  27  51  81 113 154 205 255 326 391 461
#     4  12  28  48  81 114 159 204 262 317 396 461
#     4  12  28  50  80 118 158 212 258 326 392 476
#     4  12  27  51  79 115 154 198 263 324 388 462
#
# _framework density 28.230568000000002
#
# number of rings (size 3 to 8) (size 9 to 14) (size 15 to 20)
#    0.000    0.000    5.455    3.273    0.000    3.636 
#    0.000    0.000    0.000    0.000    0.000    0.000 
#    0.000    0.000    0.000    0.000    0.000    0.000 
#
# Total GULP energy -123178.965190 kJ/mol
# GULP energy per Si atom -5599.043872 kJ/mol
# Density = 2.816631 g / cm^3
# Si number density = 28.230568 Si / 1000 Ang^3
#
#
#
# Elastic Constant Matrix: (Units=GPa)
#
#
# Indices 1 2 3 4 5 6 
#
# 1 141.9475 20.0803 6.0616 0.0000 21.7212 0.0000
# 2 20.0803 84.2657 -1.0741 0.0000 -1.7079 0.0000
# 3 6.0616 -1.0741 142.4056 0.0000 -5.3452 0.0000
# 4 0.0000 0.0000 0.0000 19.4336 0.0000 -1.8564
# 5 21.7212 -1.7079 -5.3452 0.0000 65.3087 0.0000
# 6 0.0000 0.0000 0.0000 -1.8564 0.0000 49.9454
#
#
#
# Elastic Compliance Matrix: (Units=1/GPa)
#
#
# Indices 1 2 3 4 5 6 
#
# 1 0.007740 -0.001904 -0.000444 0.000000 -0.002660 0.000000
# 2 -0.001904 0.012343 0.000211 0.000000 0.000973 0.000000
# 3 -0.000444 0.000211 0.007070 0.000000 0.000732 0.000000
# 4 0.000000 0.000000 0.000000 0.051641 0.000000 0.001919
# 5 -0.002660 0.000973 0.000732 0.000000 0.016282 0.000000
# 6 0.000000 0.000000 0.000000 0.001919 0.000000 0.020093
#
#
# Mechanical properties :
#
#
# Convention : Reuss Voigt Hill
#
# Bulk Modulus (GPa) = 43.70700 46.52826 45.11763
# Shear Modulus (GPa) = 39.34830 49.84095 44.59463
#
# Velocity S-wave (km/s) = 3.73744 4.20634 3.97880
# Velocity P-wave (km/s) = 5.84298 6.33312 6.09298
#
# Compressibility (1/GPa) = 0.02287963
#
# Stress axis : x y z
#
# Youngs Moduli (GPa) = 129.19441 81.01513 141.44000
#
# Poissons Ratio (x) = 0.15426 0.06276
# Poissons Ratio (y) = 0.24599 -0.02980
# Poissons Ratio (z) = 0.05732 -0.01707
#
# Static dielectric constant tensor:
#      x y z
#    x 2.632630 0.000000 -0.241090 
#    y 0.000000 2.516600 0.000000 
#    z -0.241090 0.000000 2.352090 
# 
# From -- ./inp_files/170886.got.cif
#   From: 2010.05.17/outbox.cif.g08.bks.cpg/sg15_86_cif.got.tgz:170886.got - 2010.06.03 18:47:42.
