data_PCOD9308748
_publ_section_title
;
Structure prediction by ZEFSAII (Michael W. Deem and Ramdas Pophale) SiO2 
 PCOD9308748
Probable space group: C 2/C
;
_chemical_formula_sum "Si O2"
_cell_formula_units_Z 32
_cell_length_a 9.000000
_cell_length_b 21.000000
_cell_length_c 24.000000
_cell_angle_alpha 90.000000
_cell_angle_beta 130.000000
_cell_angle_gamma 90.000000
_cell_volume 3474.777594
_symmetry_space_group_name_H-M "C 2/C"
_symmetry_group_IT_number 15
_symmetry_cell_setting 'monoclinic'
loop_
_space_group_symop_operation_xyz
x,y,z
-x,y,1/2-z
-x,-y,-z
x,-y,1/2+z
1/2+x,1/2+y,z
1/2-x,1/2+y,1/2-z
1/2-x,1/2-y,-z
1/2+x,1/2-y,1/2+z
loop_
_atom_site_type_symbol
_atom_site_label
_atom_site_fract_x
_atom_site_fract_y
_atom_site_fract_z
Si Si1 0.230697 0.722756 0.313904
Si Si2 0.642944 0.343902 0.230896
Si Si3 0.206507 0.025408 0.073065
Si Si4 0.705874 0.284177 0.427647
Si Si5 0.141684 0.584415 0.499560
Si Si6 0.264193 0.481391 0.612875
Si Si7 0.379578 0.972268 0.303896
Si Si8 0.336470 0.419946 0.814899
O O1 0.273538 0.785182 0.286186
O O2 0.263698 0.740536 0.387652
O O3 0.316267 0.656473 0.311837
O O4 0.000000 0.714002 0.250000
O O5 0.500000 0.357598 0.250000
O O6 0.505367 0.315119 0.146781
O O7 0.775874 0.407830 0.254046
O O8 0.167217 0.058796 0.121933
O O9 0.386271 0.975416 0.128167
O O10 0.287174 0.075461 0.046691
O O11 0.000000 0.000000 0.000000
O O12 0.750000 0.250000 0.500000
O O13 0.831862 0.347585 0.466218
O O14 0.268218 0.534587 0.565930
O O15 0.918796 0.562783 0.446289
O O16 0.216940 0.516330 0.659113
O O17 0.460390 0.441983 0.662454
O O18 0.323614 0.035708 0.254829
#
# Coordination Sequence:
#
# PCOD9308748 Si02
#       8
#     8   8   8   8   8   8   8   8
#     4   9  20  37  57  84 119 162 205 245 305 377
#     4   9  19  36  59  86 115 160 211 253 301 374
#     4  11  23  37  57  91 126 156 193 262 322 373
#     4  10  19  34  59  86 117 163 206 245 300 374
#     4  10  20  38  59  86 120 154 200 252 312 367
#     4  10  21  35  61  89 116 152 202 259 303 368
#     4  11  22  38  64  89 119 161 210 256 310 373
#     4  12  21  38  60  90 120 159 201 252 315 374
#
# _framework density 9.2092220000000005
#
# number of rings (size 3 to 8) (size 9 to 14) (size 15 to 20)
#    0.000    2.000    1.250    5.250    0.000    3.000 
#    0.000    0.625    2.750    3.000    0.000    0.000 
#    0.000    0.000    0.000    0.000    0.000    0.000 
#
# Total GULP energy -178186.750473 kJ/mol
# GULP energy per Si atom -5568.335952 kJ/mol
# Density = 0.918826 g / cm^3
# Si number density = 9.209222 Si / 1000 Ang^3
#
#
#
# Elastic Constant Matrix: (Units=GPa)
#
#
# Indices 1 2 3 4 5 6 
#
# 1 42.2418 23.0548 12.7203 0.0000 5.5447 0.0000
# 2 23.0548 124.9593 45.0148 0.0000 14.4263 0.0000
# 3 12.7203 45.0148 118.6556 0.0000 -5.4029 0.0000
# 4 0.0000 0.0000 0.0000 33.6564 0.0000 -1.0896
# 5 5.5447 14.4263 -5.4029 0.0000 38.5334 0.0000
# 6 0.0000 0.0000 0.0000 -1.0896 0.0000 19.6807
#
#
#
# Elastic Compliance Matrix: (Units=1/GPa)
#
#
# Indices 1 2 3 4 5 6 
#
# 1 0.026677 -0.004127 -0.001407 0.000000 -0.002491 0.000000
# 2 -0.004127 0.010560 -0.003741 0.000000 -0.003884 0.000000
# 3 -0.001407 -0.003741 0.010135 0.000000 0.003024 0.000000
# 4 0.000000 0.000000 0.000000 0.029765 0.000000 0.001648
# 5 -0.002491 -0.003884 0.003024 0.000000 0.028188 0.000000
# 6 0.000000 0.000000 0.000000 0.001648 0.000000 0.050902
#
#
# Mechanical properties :
#
#
# Convention : Reuss Voigt Hill
#
# Bulk Modulus (GPa) = 34.69641 49.71515 42.20578
# Shear Modulus (GPa) = 27.11710 32.04523 29.58117
#
# Velocity S-wave (km/s) = 3.84119 4.17567 4.01192
# Velocity P-wave (km/s) = 6.20901 7.09217 6.66523
#
# Compressibility (1/GPa) = 0.02882143
#
# Stress axis : x y z
#
# Youngs Moduli (GPa) = 37.48605 94.69717 98.66397
#
# Poissons Ratio (x) = 0.39084 0.13887
# Poissons Ratio (y) = 0.15471 0.36906
# Poissons Ratio (z) = 0.05276 0.35422
#
# Static dielectric constant tensor:
#      x y z
#    x 1.659490 0.000000 -0.004590 
#    y 0.000000 1.670100 0.000000 
#    z -0.004590 0.000000 1.671430 
# 
# From -- ./inp_files/266112.got.cif
#   From: 2010.05.17/outbox.ucp.g08.bks.cvg/sg15_134_cif.got.tgz:266112.got - 2010.06.11 12:40:34.
