data_PCOD9308901
_publ_section_title
;
Structure prediction by ZEFSAII (Michael W. Deem and Ramdas Pophale) SiO2 
 PCOD9308901
Probable space group: C 2/C
;
_chemical_formula_sum "Si O2"
_cell_formula_units_Z 28
_cell_length_a 24.000000
_cell_length_b 21.000000
_cell_length_c 12.000000
_cell_angle_alpha 90.000000
_cell_angle_beta 150.000000
_cell_angle_gamma 90.000000
_cell_volume 3024.000000
_symmetry_space_group_name_H-M "C 2/C"
_symmetry_group_IT_number 15
_symmetry_cell_setting 'monoclinic'
loop_
_space_group_symop_operation_xyz
x,y,z
-x,y,1/2-z
-x,-y,-z
x,-y,1/2+z
1/2+x,1/2+y,z
1/2-x,1/2+y,1/2-z
1/2-x,1/2-y,-z
1/2+x,1/2-y,1/2+z
loop_
_atom_site_type_symbol
_atom_site_label
_atom_site_fract_x
_atom_site_fract_y
_atom_site_fract_z
Si Si1 0.305977 0.405072 0.302933
Si Si2 0.833349 0.949640 0.883614
Si Si3 0.500000 0.329022 0.750000
Si Si4 0.338871 0.791759 0.360979
Si Si5 0.061755 0.908794 0.202002
Si Si6 0.519566 0.789901 0.121140
Si Si7 0.500000 0.295211 0.250000
Si Si8 0.320688 0.825546 0.915900
O O1 0.282651 0.479930 0.282317
O O2 0.399235 0.375944 0.547044
O O3 0.204332 0.357686 0.160176
O O4 0.362861 0.401724 0.277479
O O5 0.757213 0.887480 0.728095
O O6 0.873455 0.940643 0.081311
O O7 0.942698 0.945509 0.992083
O O8 0.481123 0.281238 0.823231
O O9 0.424586 0.795129 0.404088
O O10 0.397437 0.750935 0.557904
O O11 0.241083 0.741341 0.161905
O O12 0.022870 0.840348 0.184116
O O13 0.595808 0.832259 0.335623
O O14 0.393608 0.814017 0.929476
#
# Coordination Sequence:
#
# PCOD9308901 Si02
#       8
#     8   8   4   8   8   8   4   8
#     4  12  24  35  60  93 115 150 194 244 288 336
#     4  10  22  40  59  84 119 158 190 230 301 344
#     4  10  20  35  58  91 122 138 192 254 290 335
#     4  12  22  38  60  89 118 150 197 240 284 343
#     4  10  21  40  59  86 120 150 192 240 290 349
#     4  10  22  37  60  92 113 149 198 244 282 332
#     4  10  22  37  58  85 118 158 188 232 292 349
#     4  10  20  39  60  82 117 159 188 232 294 345
#
# _framework density 9.2592590000000001
#
# number of rings (size 3 to 8) (size 9 to 14) (size 15 to 20)
#    0.000    1.714    5.714    2.571    0.000    2.857 
#    0.000    2.143    0.000    0.000    0.000    0.000 
#    0.000    0.000    0.000    0.000    0.000    0.000 
#
# Total GULP energy -155913.268570 kJ/mol
# GULP energy per Si atom -5568.331020 kJ/mol
# Density = 0.923818 g / cm^3
# Si number density = 9.259259 Si / 1000 Ang^3
#
#
#
# Elastic Constant Matrix: (Units=GPa)
#
#
# Indices 1 2 3 4 5 6 
#
# 1 125.9976 43.4470 -7.7142 0.0000 15.9488 0.0000
# 2 43.4470 140.0152 14.0506 0.0000 6.8162 0.0000
# 3 -7.7142 14.0506 20.1312 0.0000 6.0287 0.0000
# 4 0.0000 0.0000 0.0000 29.5972 0.0000 11.3733
# 5 15.9488 6.8162 6.0287 0.0000 17.2571 0.0000
# 6 0.0000 0.0000 0.0000 11.3733 0.0000 23.4673
#
#
#
# Elastic Compliance Matrix: (Units=1/GPa)
#
#
# Indices 1 2 3 4 5 6 
#
# 1 0.011718 -0.004131 0.011312 0.000000 -0.013150 0.000000
# 2 -0.004131 0.009162 -0.008977 0.000000 0.003335 0.000000
# 3 0.011312 -0.008977 0.069627 0.000000 -0.031232 0.000000
# 4 0.000000 0.000000 0.000000 0.041519 0.000000 -0.020122
# 5 -0.013150 0.003335 -0.031232 0.000000 0.079694 0.000000
# 6 0.000000 0.000000 0.000000 -0.020122 0.000000 0.052364
#
#
# Mechanical properties :
#
#
# Convention : Reuss Voigt Hill
#
# Bulk Modulus (GPa) = 11.50540 42.85673 27.18106
# Shear Modulus (GPa) = 16.85492 29.82171 23.33832
#
# Velocity S-wave (km/s) = 3.02017 4.01730 3.55388
# Velocity P-wave (km/s) = 4.28816 6.68664 5.61691
#
# Compressibility (1/GPa) = 0.08691570
#
# Stress axis : x y z
#
# Youngs Moduli (GPa) = 85.33701 109.14100 14.36218
#
# Poissons Ratio (x) = 0.45088 -0.16246
# Poissons Ratio (y) = 0.35254 0.12893
# Poissons Ratio (z) = -0.96531 0.97973
#
# Static dielectric constant tensor:
#      x y z
#    x 1.639640 0.000000 -0.043250 
#    y 0.000000 1.633140 0.000000 
#    z -0.043250 0.000000 1.234240 
# 
# From -- ./inp_files/119892.got.cif
#   From: 2010.05.17/outbox.ucp.g08.bks.cvg/sg15_60_cif.got.tgz:119892.got - 2010.06.11 12:40:34.
