data_PCOD9308374
_publ_section_title
;
Structure prediction by ZEFSAII (Michael W. Deem and Ramdas Pophale) SiO2 
 PCOD9308374
Probable space group: C 2/C
;
_chemical_formula_sum "Si O2"
_cell_formula_units_Z 52
_cell_length_a 18.330504
_cell_length_b 7.818613
_cell_length_c 20.037586
_cell_angle_alpha 90.000000
_cell_angle_beta 140.463084
_cell_angle_gamma 90.000000
_cell_volume 1828.097153
_symmetry_space_group_name_H-M "C 2/C"
_symmetry_group_IT_number 15
_symmetry_cell_setting 'monoclinic'
loop_
_space_group_symop_operation_xyz
x,y,z
-x,y,1/2-z
-x,-y,-z
x,-y,1/2+z
1/2+x,1/2+y,z
1/2-x,1/2+y,1/2-z
1/2-x,1/2-y,-z
1/2+x,1/2-y,1/2+z
loop_
_atom_site_type_symbol
_atom_site_label
_atom_site_fract_x
_atom_site_fract_y
_atom_site_fract_z
Si Si1 0.484526 0.492564 0.909003
Si Si2 0.922617 0.622999 0.595831
Si Si3 0.000000 0.097374 0.250000
Si Si4 0.268956 0.266478 0.794345
Si Si5 0.568132 0.195174 0.227722
Si Si6 0.200229 0.055360 0.974172
Si Si7 0.874586 0.417121 0.915598
O O1 0.381643 0.351417 0.841750
O O2 0.445550 0.629055 0.823081
O O3 0.616581 0.512857 0.975993
O O4 0.500000 0.500000 0.000000
O O5 0.993596 0.769510 0.683252
O O6 0.810767 0.565288 0.557209
O O7 0.874245 0.659160 0.488844
O O8 0.001005 0.456662 0.643731
O O9 0.201217 0.650499 0.309806
O O10 0.300491 0.081264 0.843697
O O11 0.173918 0.274821 0.668403
O O12 0.500000 0.195926 0.250000
O O13 0.619244 0.495383 0.351829
O O14 0.250000 0.250000 0.000000
O O15 0.000000 0.500000 0.000000
#
# Coordination Sequence:
#
# PCOD9308374 Si02
#       7
#     8   8   4   8   8   8   8
#     4  12  30  51  88 137 187 261 327 400 500 597
#     4  12  28  56  92 135 194 257 335 402 494 586
#     4  12  32  58  88 144 188 260 318 420 486 584
#     4  12  29  54  87 135 197 254 331 401 503 589
#     4  12  27  53  94 134 187 261 325 406 496 585
#     4  12  31  56  93 138 198 256 337 401 498 600
#     4  12  29  53  89 135 193 259 325 416 494 597
#
# _framework density 28.444877999999999
#
# number of rings (size 3 to 8) (size 9 to 14) (size 15 to 20)
#    0.000    0.000    5.385    1.385    9.692    0.615 
#    2.769    0.000    0.000    0.000    0.000    0.000 
#    0.000    0.000    0.000    0.000    0.000    0.000 
#
# Total GULP energy -145114.205297 kJ/mol
# GULP energy per Si atom -5581.315588 kJ/mol
# Density = 2.838014 g / cm^3
# Si number density = 28.444878 Si / 1000 Ang^3
#
#
#
# Elastic Constant Matrix: (Units=GPa)
#
#
# Indices 1 2 3 4 5 6 
#
# 1 273.3844 76.6078 84.6569 0.0000 -5.6142 0.0000
# 2 76.6078 145.9224 85.8418 0.0000 -0.0573 0.0000
# 3 84.6569 85.8418 197.5458 0.0000 -6.9920 0.0000
# 4 0.0000 0.0000 0.0000 71.5077 0.0000 3.8039
# 5 -5.6142 -0.0573 -6.9920 0.0000 65.9625 0.0000
# 6 0.0000 0.0000 0.0000 3.8039 0.0000 43.8224
#
#
#
# Elastic Compliance Matrix: (Units=1/GPa)
#
#
# Indices 1 2 3 4 5 6 
#
# 1 0.004498 -0.001656 -0.001199 0.000000 0.000254 0.000000
# 2 -0.001656 0.009828 -0.003579 0.000000 -0.000512 0.000000
# 3 -0.001199 -0.003579 0.007154 0.000000 0.000653 0.000000
# 4 0.000000 0.000000 0.000000 0.014049 0.000000 -0.001220
# 5 0.000254 -0.000512 0.000653 0.000000 0.015251 0.000000
# 6 0.000000 0.000000 0.000000 -0.001220 0.000000 0.022925
#
#
# Mechanical properties :
#
#
# Convention : Reuss Voigt Hill
#
# Bulk Modulus (GPa) = 116.11648 123.45174 119.78411
# Shear Modulus (GPa) = 55.90060 60.90825 58.40443
#
# Velocity S-wave (km/s) = 4.43790 4.63241 4.53620
# Velocity P-wave (km/s) = 8.19574 8.49158 8.34497
#
# Compressibility (1/GPa) = 0.00861204
#
# Stress axis : x y z
#
# Youngs Moduli (GPa) = 222.29691 101.75474 139.77659
#
# Poissons Ratio (x) = 0.16852 0.16761
# Poissons Ratio (y) = 0.36816 0.50024
# Poissons Ratio (z) = 0.26656 0.36417
#
# Static dielectric constant tensor:
#      x y z
#    x 2.584130 0.000000 0.025670 
#    y 0.000000 2.469370 0.000000 
#    z 0.025670 0.000000 2.286550 
# 
# From -- ./inp_files/243824.got.cif
#   From: 2010.05.17/outbox.cif.g08.bks.cpg/sg15_122_cif.got.tgz:243824.got - 2010.06.03 18:47:42.
