data_PCOD9308528
_publ_section_title
;
Structure prediction by ZEFSAII (Michael W. Deem and Ramdas Pophale) SiO2 
 PCOD9308528
Probable space group: C 2/C
;
_chemical_formula_sum "Si O2"
_cell_formula_units_Z 40
_cell_length_a 15.053557
_cell_length_b 10.916752
_cell_length_c 23.606894
_cell_angle_alpha 90.000000
_cell_angle_beta 153.486692
_cell_angle_gamma 90.000000
_cell_volume 1731.813513
_symmetry_space_group_name_H-M "C 2/C"
_symmetry_group_IT_number 15
_symmetry_cell_setting 'monoclinic'
loop_
_space_group_symop_operation_xyz
x,y,z
-x,y,1/2-z
-x,-y,-z
x,-y,1/2+z
1/2+x,1/2+y,z
1/2-x,1/2+y,1/2-z
1/2-x,1/2-y,-z
1/2+x,1/2-y,1/2+z
loop_
_atom_site_type_symbol
_atom_site_label
_atom_site_fract_x
_atom_site_fract_y
_atom_site_fract_z
Si Si1 0.938524 0.674779 0.948549
Si Si2 0.029639 0.388492 0.333607
Si Si3 0.930229 0.557270 0.052722
Si Si4 0.476702 0.447076 0.298092
Si Si5 0.500941 0.343436 0.888642
O O1 0.702049 0.647046 0.811771
O O2 0.969116 0.801527 0.934444
O O3 0.050693 0.567998 0.975505
O O4 0.003935 0.659597 0.050886
O O5 0.971672 0.513743 0.332904
O O6 0.263555 0.370047 0.480577
O O7 0.000000 0.389860 0.250000
O O8 0.938851 0.270219 0.313060
O O9 0.702220 0.595130 0.936977
O O10 0.500000 0.513903 0.250000
O O11 0.408687 0.535982 0.309195
#
# Coordination Sequence:
#
# PCOD9308528 Si02
#       5
#     8   8   8   8   8
#     4   9  16  28  46  71 103 130 160 202 244 289
#     4   9  16  27  45  71 101 126 155 204 255 287
#     4   8  16  28  44  71  99 125 163 200 241 294
#     4   9  16  28  48  73 101 130 161 203 245 283
#     4   9  17  27  44  74 102 127 162 200 244 294
#
# _framework density 23.097176999999999
#
# number of rings (size 3 to 8) (size 9 to 14) (size 15 to 20)
#    0.000    3.200    0.000    1.800    0.000    4.800 
#    0.000    0.000    0.000   20.400    0.000   40.600 
#    0.000    4.800    0.000    0.000    0.000    0.000 
#
# Total GULP energy -111395.145790 kJ/mol
# GULP energy per Si atom -5569.757290 kJ/mol
# Density = 2.304461 g / cm^3
# Si number density = 23.097177 Si / 1000 Ang^3
#
#
#
# Elastic Constant Matrix: (Units=GPa)
#
#
# Indices 1 2 3 4 5 6 
#
# 1 109.6614 28.1297 18.1423 -0.0005 -13.2603 0.0001
# 2 28.1297 26.4135 1.2335 0.0000 -6.3534 0.0002
# 3 18.1423 1.2335 48.8647 0.0020 12.7734 0.0004
# 4 -0.0005 0.0000 0.0020 12.5576 0.0003 1.7256
# 5 -13.2603 -6.3534 12.7734 0.0003 51.5524 -0.0001
# 6 0.0001 0.0002 0.0004 1.7256 -0.0001 25.3318
#
#
#
# Elastic Compliance Matrix: (Units=1/GPa)
#
#
# Indices 1 2 3 4 5 6 
#
# 1 0.014025 -0.013871 -0.005724 0.000001 0.003316 0.000000
# 2 -0.013871 0.053000 0.003248 -0.000001 0.002159 0.000000
# 3 -0.005724 0.003248 0.024366 -0.000004 -0.007109 0.000000
# 4 0.000001 -0.000001 -0.000004 0.080386 0.000001 -0.005476
# 5 0.003316 0.002159 -0.007109 0.000001 0.022278 0.000000
# 6 0.000000 0.000000 0.000000 -0.005476 0.000000 0.039849
#
#
# Mechanical properties :
#
#
# Convention : Reuss Voigt Hill
#
# Bulk Modulus (GPa) = 17.03687 31.10561 24.07124
# Shear Modulus (GPa) = 17.47245 27.05063 22.26154
#
# Velocity S-wave (km/s) = 2.75339 3.42594 3.10791
# Velocity P-wave (km/s) = 4.18335 5.39870 4.82941
#
# Compressibility (1/GPa) = 0.05869622
#
# Stress axis : x y z
#
# Youngs Moduli (GPa) = 71.30042 18.86797 41.04039
#
# Poissons Ratio (x) = 0.26173 0.23491
# Poissons Ratio (y) = 0.98904 -0.13329
# Poissons Ratio (z) = 0.40812 -0.06128
#
# Static dielectric constant tensor:
#      x y z
#    x 1.914390 0.000000 0.020460 
#    y 0.000000 1.883670 0.000000 
#    z 0.020460 0.000000 1.929740 
# 
# From -- ./inp_files/85479.got.cif
#   From: 2010.05.17/outbox.cif.g08.bks.cpg/sg15_43_cif.got.tgz:85479.got - 2010.06.03 18:47:42.
