data_PCOD9308371
_publ_section_title
;
Structure prediction by ZEFSAII (Michael W. Deem and Ramdas Pophale) SiO2 
 PCOD9308371
Probable space group: C 2/C
;
_chemical_formula_sum "Si O2"
_cell_formula_units_Z 20
_cell_length_a 7.946479
_cell_length_b 17.776576
_cell_length_c 6.437165
_cell_angle_alpha 90.000000
_cell_angle_beta 124.176544
_cell_angle_gamma 90.000000
_cell_volume 752.291389
_symmetry_space_group_name_H-M "C 2/C"
_symmetry_group_IT_number 15
_symmetry_cell_setting 'monoclinic'
loop_
_space_group_symop_operation_xyz
x,y,z
-x,y,1/2-z
-x,-y,-z
x,-y,1/2+z
1/2+x,1/2+y,z
1/2-x,1/2+y,1/2-z
1/2-x,1/2-y,-z
1/2+x,1/2-y,1/2+z
loop_
_atom_site_type_symbol
_atom_site_label
_atom_site_fract_x
_atom_site_fract_y
_atom_site_fract_z
Si Si1 0.760422 0.336689 0.572249
Si Si2 0.000000 0.914048 0.750000
Si Si3 0.839502 0.440930 0.279355
O O1 0.750000 0.250000 0.500000
O O2 0.634162 0.362426 0.686123
O O3 0.714964 0.387591 0.342827
O O4 0.000000 0.354383 0.750000
O O5 0.837273 0.964176 0.507529
O O6 0.000000 0.394329 0.250000
O O7 0.000000 0.500000 0.500000
#
# Coordination Sequence:
#
# PCOD9308371 Si02
#       3
#     8   4   8
#     4  12  27  52  84 125 168 226 292 349 431 518
#     4  12  28  52  86 120 174 226 276 372 424 496
#     4  12  28  52  81 123 169 223 287 345 429 518
#
# _framework density 26.585443000000001
#
# number of rings (size 3 to 8) (size 9 to 14) (size 15 to 20)
#    0.000    0.000    4.000    4.800    2.800    4.800 
#    0.000    0.000    0.000    0.000    0.000    0.000 
#    0.000    0.000    0.000    0.000    0.000    0.000 
#
# Total GULP energy -55830.727977 kJ/mol
# GULP energy per Si atom -5583.072798 kJ/mol
# Density = 2.652493 g / cm^3
# Si number density = 26.585443 Si / 1000 Ang^3
#
#
#
# Elastic Constant Matrix: (Units=GPa)
#
#
# Indices 1 2 3 4 5 6 
#
# 1 294.3049 69.2799 56.2616 0.0000 -38.8465 0.0000
# 2 69.2799 171.7487 54.4198 0.0000 -32.9731 0.0000
# 3 56.2616 54.4198 187.2015 0.0000 34.8980 0.0000
# 4 0.0000 0.0000 0.0000 30.9498 0.0000 2.0303
# 5 -38.8465 -32.9731 34.8980 0.0000 72.9010 0.0000
# 6 0.0000 0.0000 0.0000 2.0303 0.0000 44.8677
#
#
#
# Elastic Compliance Matrix: (Units=1/GPa)
#
#
# Indices 1 2 3 4 5 6 
#
# 1 0.004214 -0.000688 -0.001567 0.000000 0.002684 0.000000
# 2 -0.000688 0.007929 -0.002963 0.000000 0.004638 0.000000
# 3 -0.001567 -0.002963 0.007773 0.000000 -0.005896 0.000000
# 4 0.000000 0.000000 0.000000 0.032407 0.000000 -0.001466
# 5 0.002684 0.004638 -0.005896 0.000000 0.020068 0.000000
# 6 0.000000 0.000000 0.000000 -0.001466 0.000000 0.022354
#
#
# Mechanical properties :
#
#
# Convention : Reuss Voigt Hill
#
# Bulk Modulus (GPa) = 105.47661 112.57529 109.02595
# Shear Modulus (GPa) = 46.15099 61.29661 53.72380
#
# Velocity S-wave (km/s) = 4.17099 4.80692 4.50021
# Velocity P-wave (km/s) = 7.93454 8.55835 8.25234
#
# Compressibility (1/GPa) = 0.00948078
#
# Stress axis : x y z
#
# Youngs Moduli (GPa) = 237.32813 126.11544 128.64747
#
# Poissons Ratio (x) = 0.08676 0.20156
# Poissons Ratio (y) = 0.16326 0.38118
# Poissons Ratio (z) = 0.37183 0.37367
#
# Static dielectric constant tensor:
#      x y z
#    x 2.115940 0.000000 -0.063860 
#    y 0.000000 2.112710 0.000000 
#    z -0.063860 0.000000 2.609370 
# 
# From -- ./inp_files/1495.got.cif
#   From: 2010.05.17/outbox.cif.g08.bks.cpg/sg15_1_cif.got.tgz:1495.got - 2010.06.03 18:47:42.
