data_PCOD9308052
_publ_section_title
;
Structure prediction by ZEFSAII (Michael W. Deem and Ramdas Pophale) SiO2 
 PCOD9308052
Probable space group: C 2/C
;
_chemical_formula_sum "Si O2"
_cell_formula_units_Z 28
_cell_length_a 5.007476
_cell_length_b 17.843261
_cell_length_c 15.135704
_cell_angle_alpha 90.000000
_cell_angle_beta 111.237661
_cell_angle_gamma 90.000000
_cell_volume 1260.525597
_symmetry_space_group_name_H-M "C 2/C"
_symmetry_group_IT_number 15
_symmetry_cell_setting 'monoclinic'
loop_
_space_group_symop_operation_xyz
x,y,z
-x,y,1/2-z
-x,-y,-z
x,-y,1/2+z
1/2+x,1/2+y,z
1/2-x,1/2+y,1/2-z
1/2-x,1/2-y,-z
1/2+x,1/2-y,1/2+z
loop_
_atom_site_type_symbol
_atom_site_label
_atom_site_fract_x
_atom_site_fract_y
_atom_site_fract_z
Si Si1 0.728920 0.732359 0.393964
Si Si2 0.688165 0.393609 0.184610
Si Si3 0.692216 0.133345 0.354370
Si Si4 0.500000 0.500000 0.000000
O O1 0.750000 0.750000 0.500000
O O2 0.767767 0.809494 0.346517
O O3 0.423257 0.692448 0.344450
O O4 0.520620 0.824118 0.604489
O O5 0.500000 0.392719 0.250000
O O6 0.000000 0.423023 0.250000
O O7 0.548935 0.442147 0.090306
O O8 0.500000 0.105684 0.250000
O O9 0.857030 0.068145 0.424404
#
# Coordination Sequence:
#
# PCOD9308052 Si02
#       4
#     8   8   8   4
#     4  12  25  50  80 110 148 199 260 326 373 445
#     4  12  28  50  77 111 150 201 255 315 382 451
#     4  12  27  49  78 112 151 202 257 314 386 453
#     4  12  30  50  74 112 164 198 248 314 386 478
#
# _framework density 22.212954
#
# number of rings (size 3 to 8) (size 9 to 14) (size 15 to 20)
#    0.000    0.000    2.857    6.857    4.000    6.857 
#    0.000    0.000    0.000    0.000    0.000    0.000 
#    0.000    0.000    0.000    0.000    0.000    0.000 
#
# Total GULP energy -77957.910476 kJ/mol
# GULP energy per Si atom -5568.422177 kJ/mol
# Density = 2.216240 g / cm^3
# Si number density = 22.212954 Si / 1000 Ang^3
#
#
#
# Elastic Constant Matrix: (Units=GPa)
#
#
# Indices 1 2 3 4 5 6 
#
# 1 146.8314 58.6760 67.3690 0.0000 -22.9104 0.0000
# 2 58.6760 156.3314 115.6491 0.0000 -17.1505 0.0000
# 3 67.3690 115.6491 242.2218 0.0000 -20.7499 0.0000
# 4 0.0000 0.0000 0.0000 0.1214 0.0000 7.8747
# 5 -22.9104 -17.1505 -20.7499 0.0000 17.0069 0.0000
# 6 0.0000 0.0000 0.0000 7.8747 0.0000 -2.8236
#
#
#
# Elastic Compliance Matrix: (Units=1/GPa)
#
#
# Indices 1 2 3 4 5 6 
#
# 1 0.009492 -0.001784 -0.000946 0.000000 0.009834 0.000000
# 2 -0.001784 0.010574 -0.004294 0.000000 0.003021 0.000000
# 3 -0.000946 -0.004294 0.006657 0.000000 0.002519 0.000000
# 4 0.000000 0.000000 0.000000 0.045284 0.000000 0.126291
# 5 0.009834 0.003021 0.002519 0.000000 0.078166 0.000000
# 6 0.000000 0.000000 0.000000 0.126291 0.000000 -0.001946
#
#
# Mechanical properties :
#
#
# Convention : Reuss Voigt Hill
#
# Bulk Modulus (GPa) = 78.88818 114.30808 96.59813
# Shear Modulus (GPa) = 30.03027 23.10696 26.56862
#
# Velocity S-wave (km/s) = 3.68084 3.22878 3.46220
# Velocity P-wave (km/s) = 7.32505 8.09147 7.71778
#
# Compressibility (1/GPa) = 0.01267617
#
# Stress axis : x y z
#
# Youngs Moduli (GPa) = 105.35453 94.57173 150.21389
#
# Poissons Ratio (x) = 0.16873 0.14206
# Poissons Ratio (y) = 0.18797 0.64495
# Poissons Ratio (z) = 0.09963 0.40605
#
# Static dielectric constant tensor:
#      x y z
#    x 1.792000 0.000000 0.030610 
#    y 0.000000 1.762450 0.000000 
#    z 0.030610 0.000000 1.799240 
# 
# From -- ./inp_files/128231.got.cif
#   From: 2010.05.17/outbox.cif.g08.bks.cpg/sg15_65_cif.got.tgz:128231.got - 2010.06.03 18:47:42.
