data_PCOD9308514
_publ_section_title
;
Structure prediction by ZEFSAII (Michael W. Deem and Ramdas Pophale) SiO2 
 PCOD9308514
Probable space group: C 2/C
;
_chemical_formula_sum "Si O2"
_cell_formula_units_Z 56
_cell_length_a 28.415437
_cell_length_b 11.532548
_cell_length_c 8.592542
_cell_angle_alpha 90.000000
_cell_angle_beta 102.249492
_cell_angle_gamma 90.000000
_cell_volume 2751.689284
_symmetry_space_group_name_H-M "C 2/C"
_symmetry_group_IT_number 15
_symmetry_cell_setting 'monoclinic'
loop_
_space_group_symop_operation_xyz
x,y,z
-x,y,1/2-z
-x,-y,-z
x,-y,1/2+z
1/2+x,1/2+y,z
1/2-x,1/2+y,1/2-z
1/2-x,1/2-y,-z
1/2+x,1/2-y,1/2+z
loop_
_atom_site_type_symbol
_atom_site_label
_atom_site_fract_x
_atom_site_fract_y
_atom_site_fract_z
Si Si1 0.821376 0.828222 0.985726
Si Si2 0.336792 0.058695 0.521811
Si Si3 0.024852 0.270516 0.921295
Si Si4 0.115368 0.640308 0.648017
Si Si5 0.040336 0.905063 0.978098
Si Si6 0.410290 0.562783 0.687444
Si Si7 0.283346 0.867232 0.691053
O O1 0.857301 0.923182 0.082682
O O2 0.802774 0.745785 0.113295
O O3 0.853013 0.746904 0.895486
O O4 0.774162 0.871030 0.863737
O O5 0.372504 0.126288 0.662144
O O6 0.303497 0.130575 0.380183
O O7 0.366425 0.973158 0.430840
O O8 0.304165 0.977422 0.610409
O O9 0.056738 0.164552 0.868019
O O10 0.000000 0.325575 0.750000
O O11 0.984491 0.215920 0.004825
O O12 0.061183 0.341685 0.052460
O O13 0.084968 0.917770 0.127202
O O14 0.062207 0.942799 0.830322
O O15 0.000000 0.000000 0.000000
#
# Coordination Sequence:
#
# PCOD9308514 Si02
#       7
#     8   8   8   8   8   8   8
#     4   9  18  32  49  70  99 132 163 198 245 299
#     4   9  18  32  51  71  95 128 165 209 249 288
#     4   8  15  29  49  68  92 128 162 199 246 292
#     4   9  17  32  51  71  96 128 165 204 250 296
#     4   9  16  29  47  67  95 129 160 191 237 290
#     4   9  17  29  46  69  96 129 160 192 235 287
#     4   9  18  33  50  70  98 130 164 203 248 291
#
# _framework density 20.351134999999999
#
# number of rings (size 3 to 8) (size 9 to 14) (size 15 to 20)
#    0.000    3.143    0.000    1.286    0.000    1.714 
#    0.000    6.429    0.000    3.429    0.000    0.000 
#    0.000    0.000    0.000    0.000    0.000    0.000 
#
# Total GULP energy -156077.121511 kJ/mol
# GULP energy per Si atom -5574.182911 kJ/mol
# Density = 2.030482 g / cm^3
# Si number density = 20.351135 Si / 1000 Ang^3
#
#
#
# Elastic Constant Matrix: (Units=GPa)
#
#
# Indices 1 2 3 4 5 6 
#
# 1 73.9713 19.2664 54.0985 0.0000 33.6900 0.0000
# 2 19.2664 20.7400 30.6022 0.0000 16.7638 0.0000
# 3 54.0985 30.6022 168.0070 0.0000 44.1275 0.0000
# 4 0.0000 0.0000 0.0000 19.7388 0.0000 21.3389
# 5 33.6900 16.7638 44.1275 0.0000 35.0978 0.0000
# 6 0.0000 0.0000 0.0000 21.3389 0.0000 4.0700
#
#
#
# Elastic Compliance Matrix: (Units=1/GPa)
#
#
# Indices 1 2 3 4 5 6 
#
# 1 0.024995 -0.004571 -0.002221 0.000000 -0.019016 0.000000
# 2 -0.004571 0.084681 -0.006691 0.000000 -0.027646 0.000000
# 3 -0.002221 -0.006691 0.009685 0.000000 -0.006849 0.000000
# 4 0.000000 0.000000 0.000000 -0.010853 0.000000 0.056902
# 5 -0.019016 -0.027646 -0.006849 0.000000 0.068560 0.000000
# 6 0.000000 0.000000 0.000000 0.056902 0.000000 -0.052635
#
#
# Mechanical properties :
#
#
# Convention : Reuss Voigt Hill
#
# Bulk Modulus (GPa) = 10.82325 52.29472 31.55898
# Shear Modulus (GPa) = 27.44281 22.36475 24.90378
#
# Velocity S-wave (km/s) = 3.67613 3.31863 3.50194
# Velocity P-wave (km/s) = 4.83202 6.35896 5.64733
#
# Compressibility (1/GPa) = 0.09239372
#
# Stress axis : x y z
#
# Youngs Moduli (GPa) = 40.00874 11.80903 103.25307
#
# Poissons Ratio (x) = 0.05398 0.22932
# Poissons Ratio (y) = 0.18288 0.69091
# Poissons Ratio (z) = 0.08886 0.07902
#
# Static dielectric constant tensor:
#      x y z
#    x 1.718430 0.000000 0.001040 
#    y 0.000000 1.747130 0.000000 
#    z 0.001040 0.000000 1.745150 
# 
# From -- ./inp_files/69149.got.cif
#   From: 2010.05.17/outbox.cif.g08.bks.cpg/sg15_35_cif.got.tgz:69149.got - 2010.06.03 18:47:42.
