data_PCOD9308957
_publ_section_title
;
Structure prediction by ZEFSAII (Michael W. Deem and Ramdas Pophale) SiO2 
 PCOD9308957
Probable space group: C 2/C
;
_chemical_formula_sum "Si O2"
_cell_formula_units_Z 30
_cell_length_a 15.000000
_cell_length_b 30.000000
_cell_length_c 15.000000
_cell_angle_alpha 90.000000
_cell_angle_beta 150.000000
_cell_angle_gamma 90.000000
_cell_volume 3375.000000
_symmetry_space_group_name_H-M "C 2/C"
_symmetry_group_IT_number 15
_symmetry_cell_setting 'monoclinic'
loop_
_space_group_symop_operation_xyz
x,y,z
-x,y,1/2-z
-x,-y,-z
x,-y,1/2+z
1/2+x,1/2+y,z
1/2-x,1/2+y,1/2-z
1/2-x,1/2-y,-z
1/2+x,1/2-y,1/2+z
loop_
_atom_site_type_symbol
_atom_site_label
_atom_site_fract_x
_atom_site_fract_y
_atom_site_fract_z
Si Si1 0.479026 0.932738 0.828107
Si Si2 0.416225 0.706950 0.276150
Si Si3 0.596303 0.101689 0.626369
Si Si4 0.000000 0.929534 0.750000
Si Si5 0.954393 0.882981 0.532008
Si Si6 0.338729 0.464924 0.855452
Si Si7 0.014983 0.692035 0.871182
Si Si8 0.651416 0.023650 0.023469
O O1 0.500000 0.909391 0.750000
O O2 0.275162 0.950597 0.658475
O O3 0.539593 0.906700 0.972683
O O4 0.589199 0.978800 0.923438
O O5 0.500000 0.704419 0.250000
O O6 0.499373 0.669451 0.414809
O O7 0.431922 0.758862 0.317673
O O8 0.214488 0.695577 0.079599
O O9 0.555313 0.150139 0.633759
O O10 0.490312 0.064086 0.592032
O O11 0.806101 0.101321 0.832399
O O12 0.084503 0.899061 0.900855
O O13 0.163467 0.959193 0.857622
O O14 0.114243 0.916455 0.645160
O O15 0.199478 0.487671 0.667495
O O16 0.500000 0.500000 0.000000
O O17 0.000000 0.684788 0.750000
#
# Coordination Sequence:
#
# PCOD9308957 Si02
#       8
#     8   8   8   4   8   8   8   8
#     4  11  24  39  57  80 110 154 200 254 297 338
#     4  11  20  35  52  87 120 151 190 224 282 359
#     4  11  23  39  54  82 113 157 196 242 289 345
#     4  10  22  32  52  88 108 160 184 232 276 358
#     4  11  21  35  58  78 122 152 192 233 284 345
#     4  10  20  37  56  80 112 150 194 249 289 342
#     4  11  22  34  57  85 120 156 184 232 284 353
#     4  10  22  35  53  79 113 143 199 232 293 344
#
# _framework density 8.8888890000000007
#
# number of rings (size 3 to 8) (size 9 to 14) (size 15 to 20)
#    0.000    1.333    0.667    8.800    7.467    0.000 
#    0.000    0.000    0.000    0.000    0.000    8.400 
#    0.000    0.000    0.000    0.000    0.000    0.000 
#
# Total GULP energy -167054.259528 kJ/mol
# GULP energy per Si atom -5568.475318 kJ/mol
# Density = 0.886866 g / cm^3
# Si number density = 8.888889 Si / 1000 Ang^3
#
#
#
# Elastic Constant Matrix: (Units=GPa)
#
#
# Indices 1 2 3 4 5 6 
#
# 1 72.5008 31.7273 20.9657 0.0000 -10.7583 0.0000
# 2 31.7273 115.7094 23.1711 0.0000 -6.6455 0.0000
# 3 20.9657 23.1711 84.1243 0.0000 -5.9163 0.0000
# 4 0.0000 0.0000 0.0000 37.7292 0.0000 -2.8951
# 5 -10.7583 -6.6455 -5.9163 0.0000 26.2787 0.0000
# 6 0.0000 0.0000 0.0000 -2.8951 0.0000 20.6449
#
#
#
# Elastic Compliance Matrix: (Units=1/GPa)
#
#
# Indices 1 2 3 4 5 6 
#
# 1 0.017077 -0.003806 -0.002828 0.000000 0.005392 0.000000
# 2 -0.003806 0.010077 -0.001786 0.000000 0.000588 0.000000
# 3 -0.002828 -0.001786 0.013179 0.000000 0.001358 0.000000
# 4 0.000000 0.000000 0.000000 0.026793 0.000000 0.003757
# 5 0.005392 0.000588 0.001358 0.000000 0.040715 0.000000
# 6 0.000000 0.000000 0.000000 0.003757 0.000000 0.048965
#
#
# Mechanical properties :
#
#
# Convention : Reuss Voigt Hill
#
# Bulk Modulus (GPa) = 42.56641 47.11809 44.84225
# Shear Modulus (GPa) = 27.55148 30.02857 28.79003
#
# Velocity S-wave (km/s) = 3.94098 4.11433 4.02859
# Velocity P-wave (km/s) = 6.68611 7.00941 6.84967
#
# Compressibility (1/GPa) = 0.02349270
#
# Stress axis : x y z
#
# Youngs Moduli (GPa) = 58.55960 99.23187 75.87604
#
# Poissons Ratio (x) = 0.37771 0.21460
# Poissons Ratio (y) = 0.22290 0.13549
# Poissons Ratio (z) = 0.16562 0.17720
#
# Static dielectric constant tensor:
#      x y z
#    x 1.360840 0.000000 -0.378550 
#    y 0.000000 4.370950 0.000000 
#    z -0.378550 0.000000 1.178640 
# 
# From -- ./inp_files/157551.got.cif
#   From: 2010.05.17/outbox.ucp.g08.bks.cvg/sg15_79_cif.got.tgz:157551.got - 2010.06.11 12:40:34.
