data_PCOD9308907
_publ_section_title
;
Structure prediction by ZEFSAII (Michael W. Deem and Ramdas Pophale) SiO2 
 PCOD9308907
Probable space group: C 2/C
;
_chemical_formula_sum "Si O2"
_cell_formula_units_Z 28
_cell_length_a 21.000000
_cell_length_b 15.000000
_cell_length_c 18.000000
_cell_angle_alpha 90.000000
_cell_angle_beta 30.000000
_cell_angle_gamma 90.000000
_cell_volume 2835.000000
_symmetry_space_group_name_H-M "C 2/C"
_symmetry_group_IT_number 15
_symmetry_cell_setting 'monoclinic'
loop_
_space_group_symop_operation_xyz
x,y,z
-x,y,1/2-z
-x,-y,-z
x,-y,1/2+z
1/2+x,1/2+y,z
1/2-x,1/2+y,1/2-z
1/2-x,1/2-y,-z
1/2+x,1/2-y,1/2+z
loop_
_atom_site_type_symbol
_atom_site_label
_atom_site_fract_x
_atom_site_fract_y
_atom_site_fract_z
Si Si1 0.116440 0.849211 0.776621
Si Si2 0.289107 0.122196 0.676126
Si Si3 0.678356 0.720274 0.649554
Si Si4 0.074085 0.639372 0.364158
Si Si5 0.461789 0.529855 0.705401
Si Si6 0.669887 0.453726 0.863899
Si Si7 0.649209 0.258067 0.430993
O O1 0.120508 0.873644 0.861138
O O2 0.248706 0.798728 0.624888
O O3 0.121219 0.944031 0.731755
O O4 0.978155 0.801691 0.904456
O O5 0.267784 0.190337 0.628660
O O6 0.435855 0.096188 0.516109
O O7 0.247852 0.173374 0.792369
O O8 0.195823 0.037364 0.782311
O O9 0.750000 0.750000 0.500000
O O10 0.591613 0.798821 0.772958
O O11 0.599025 0.628361 0.724092
O O12 0.191916 0.571414 0.243948
O O13 0.095859 0.699542 0.415917
O O14 0.500000 0.508092 0.750000
O O15 0.572384 0.531885 0.530153
#
# Coordination Sequence:
#
# PCOD9308907 Si02
#       7
#     8   8   8   8   8   8   8
#     4  11  21  41  64  96 121 169 214 278 329 395
#     4  11  20  37  62  94 128 170 221 281 329 384
#     4  11  25  40  59  92 137 182 217 267 335 411
#     4  10  22  34  59  96 128 169 217 274 336 380
#     4  12  25  40  64  92 129 177 223 272 333 401
#     4  11  21  39  65  95 132 168 228 274 326 398
#     4  10  20  35  63  90 126 155 216 276 328 381
#
# _framework density 9.8765429999999999
#
# number of rings (size 3 to 8) (size 9 to 14) (size 15 to 20)
#    0.000    1.143    4.286    3.429    6.000    0.000 
#    0.000    0.714    0.000    0.000    0.000    0.000 
#    0.000    0.000    0.000    0.000    0.000    0.000 
#
# Total GULP energy -155945.312040 kJ/mol
# GULP energy per Si atom -5569.475430 kJ/mol
# Density = 0.985406 g / cm^3
# Si number density = 9.876543 Si / 1000 Ang^3
#
#
#
# Elastic Constant Matrix: (Units=GPa)
#
#
# Indices 1 2 3 4 5 6 
#
# 1 48.0902 22.2164 22.6593 0.0000 -2.8925 0.0000
# 2 22.2164 79.3991 36.8944 0.0000 2.1134 0.0000
# 3 22.6593 36.8944 116.5744 0.0000 -12.2233 0.0000
# 4 0.0000 0.0000 0.0000 41.0761 0.0000 -10.0658
# 5 -2.8925 2.1134 -12.2233 0.0000 24.7543 0.0000
# 6 0.0000 0.0000 0.0000 -10.0658 0.0000 24.4561
#
#
#
# Elastic Compliance Matrix: (Units=1/GPa)
#
#
# Indices 1 2 3 4 5 6 
#
# 1 0.024879 -0.005704 -0.002821 0.000000 0.002001 0.000000
# 2 -0.005704 0.016414 -0.004538 0.000000 -0.004309 0.000000
# 3 -0.002821 -0.004538 0.011146 0.000000 0.005561 0.000000
# 4 0.000000 0.000000 0.000000 0.027076 0.000000 0.011144
# 5 0.002001 -0.004309 0.005561 0.000000 0.043745 0.000000
# 6 0.000000 0.000000 0.000000 0.011144 0.000000 0.045476
#
#
# Mechanical properties :
#
#
# Convention : Reuss Voigt Hill
#
# Bulk Modulus (GPa) = 38.00335 45.28934 41.64634
# Shear Modulus (GPa) = 24.55416 28.87691 26.71553
#
# Velocity S-wave (km/s) = 3.52952 3.82762 3.68159
# Velocity P-wave (km/s) = 5.99091 6.52010 6.26110
#
# Compressibility (1/GPa) = 0.02631347
#
# Stress axis : x y z
#
# Youngs Moduli (GPa) = 40.19502 60.92414 89.71960
#
# Poissons Ratio (x) = 0.34750 0.25308
# Poissons Ratio (y) = 0.22926 0.40714
# Poissons Ratio (z) = 0.11338 0.27647
#
# Static dielectric constant tensor:
#      x y z
#    x 1.795740 0.000000 -0.061410 
#    y 0.000000 1.769760 0.000000 
#    z -0.061410 0.000000 1.662010 
# 
# From -- ./inp_files/215692.got.cif
#   From: 2010.05.17/outbox.ucp.g08.bks.cvg/sg15_108_cif.got.tgz:215692.got - 2010.06.11 12:40:34.
