data_PCOD9308095
_publ_section_title
;
Structure prediction by ZEFSAII (Michael W. Deem and Ramdas Pophale) SiO2 
 PCOD9308095
Probable space group: C 2/C
;
_chemical_formula_sum "Si O2"
_cell_formula_units_Z 36
_cell_length_a 7.760767
_cell_length_b 7.261747
_cell_length_c 31.941716
_cell_angle_alpha 90.000000
_cell_angle_beta 136.231793
_cell_angle_gamma 90.000000
_cell_volume 1245.226931
_symmetry_space_group_name_H-M "C 2/C"
_symmetry_group_IT_number 15
_symmetry_cell_setting 'monoclinic'
loop_
_space_group_symop_operation_xyz
x,y,z
-x,y,1/2-z
-x,-y,-z
x,-y,1/2+z
1/2+x,1/2+y,z
1/2-x,1/2+y,1/2-z
1/2-x,1/2-y,-z
1/2+x,1/2-y,1/2+z
loop_
_atom_site_type_symbol
_atom_site_label
_atom_site_fract_x
_atom_site_fract_y
_atom_site_fract_z
Si Si1 0.062634 0.395284 0.053280
Si Si2 0.125903 0.629709 0.896611
Si Si3 0.500000 0.500000 0.500000
Si Si4 0.736275 0.123301 0.214497
Si Si5 0.401501 0.478997 0.831307
O O1 0.840704 0.438148 0.048557
O O2 0.306275 0.463015 0.121551
O O3 0.000000 0.500000 0.000000
O O4 0.086834 0.186122 0.043378
O O5 0.987609 0.499594 0.840534
O O6 0.725977 0.678995 0.689625
O O7 0.955996 0.809862 0.871781
O O8 0.582616 0.639430 0.558396
O O9 0.758040 0.123553 0.268180
O O10 0.000000 0.032505 0.250000
#
# Coordination Sequence:
#
# PCOD9308095 Si02
#       5
#     8   8   4   8   8
#     4  12  27  47  72 107 146 189 242 295 357 425
#     4  12  27  47  74 109 147 186 243 300 356 434
#     4  12  26  46  74 108 144 190 240 292 362 424
#     4  12  26  46  73 105 142 188 239 297 368 427
#     4  12  26  45  73 106 142 187 241 298 360 430
#
# _framework density 28.910395000000001
#
# number of rings (size 3 to 8) (size 9 to 14) (size 15 to 20)
#    0.000    0.000    8.889    0.667    0.000    7.111 
#    0.000    0.000    0.000    0.000    0.000    0.000 
#    0.000    0.000    0.000    0.000    0.000    0.000 
#
# Total GULP energy -100310.502750 kJ/mol
# GULP energy per Si atom -5572.805708 kJ/mol
# Density = 2.884459 g / cm^3
# Si number density = 28.910395 Si / 1000 Ang^3
#
#
#
# Elastic Constant Matrix: (Units=GPa)
#
#
# Indices 1 2 3 4 5 6 
#
# 1 86.5280 25.2883 54.6930 0.0000 21.5750 0.0000
# 2 25.2883 181.3923 82.9022 0.0000 -3.2293 0.0000
# 3 54.6930 82.9022 235.4556 0.0000 45.7512 0.0000
# 4 0.0000 0.0000 0.0000 53.3330 0.0000 7.0222
# 5 21.5750 -3.2293 45.7512 0.0000 59.3236 0.0000
# 6 0.0000 0.0000 0.0000 7.0222 0.0000 42.7211
#
#
#
# Elastic Compliance Matrix: (Units=1/GPa)
#
#
# Indices 1 2 3 4 5 6 
#
# 1 0.014139 -0.000999 -0.002262 0.000000 -0.003452 0.000000
# 2 -0.000999 0.006977 -0.002787 0.000000 0.002892 0.000000
# 3 -0.002262 -0.002787 0.006614 0.000000 -0.004430 0.000000
# 4 0.000000 0.000000 0.000000 0.019165 0.000000 -0.003150
# 5 -0.003452 0.002892 -0.004430 0.000000 0.021686 0.000000
# 6 0.000000 0.000000 0.000000 -0.003150 0.000000 0.023925
#
#
# Mechanical properties :
#
#
# Convention : Reuss Voigt Hill
#
# Bulk Modulus (GPa) = 63.95352 92.12699 78.04026
# Shear Modulus (GPa) = 45.53132 53.77502 49.65317
#
# Velocity S-wave (km/s) = 3.97282 4.31752 4.14875
# Velocity P-wave (km/s) = 6.57371 7.53593 7.07121
#
# Compressibility (1/GPa) = 0.01563636
#
# Stress axis : x y z
#
# Youngs Moduli (GPa) = 70.72454 143.32369 151.18413
#
# Poissons Ratio (x) = 0.14317 0.34196
# Poissons Ratio (y) = 0.07065 0.42128
# Poissons Ratio (z) = 0.15997 0.39938
#
# Static dielectric constant tensor:
#      x y z
#    x 2.675220 0.000000 -0.076660 
#    y 0.000000 2.490280 0.000000 
#    z -0.076660 0.000000 2.283310 
# 
# From -- ./inp_files/291384.got.cif
#   From: 2010.05.17/outbox.cif.g08.bks.cpg/sg15_146_cif.got.tgz:291384.got - 2010.06.03 18:47:42.
