data_PCOD9308362
_publ_section_title
;
Structure prediction by ZEFSAII (Michael W. Deem and Ramdas Pophale) SiO2 
 PCOD9308362
Probable space group: C 2/C
;
_chemical_formula_sum "Si O2"
_cell_formula_units_Z 28
_cell_length_a 14.758570
_cell_length_b 7.442620
_cell_length_c 10.164135
_cell_angle_alpha 90.000000
_cell_angle_beta 100.787297
_cell_angle_gamma 90.000000
_cell_volume 1096.724168
_symmetry_space_group_name_H-M "C 2/C"
_symmetry_group_IT_number 15
_symmetry_cell_setting 'monoclinic'
loop_
_space_group_symop_operation_xyz
x,y,z
-x,y,1/2-z
-x,-y,-z
x,-y,1/2+z
1/2+x,1/2+y,z
1/2-x,1/2+y,1/2-z
1/2-x,1/2-y,-z
1/2+x,1/2-y,1/2+z
loop_
_atom_site_type_symbol
_atom_site_label
_atom_site_fract_x
_atom_site_fract_y
_atom_site_fract_z
Si Si1 0.917484 0.450843 0.879768
Si Si2 0.102803 0.952798 0.166840
Si Si3 0.272484 0.455630 0.042555
Si Si4 0.000000 0.744091 0.750000
O O1 0.933123 0.248719 0.839466
O O2 0.822911 0.460652 0.934249
O O3 0.919741 0.597069 0.761358
O O4 0.000000 0.500000 0.000000
O O5 0.158638 0.979771 0.316853
O O6 0.025287 0.109930 0.142711
O O7 0.175877 0.967890 0.069711
O O8 0.250000 0.250000 0.000000
#
# Coordination Sequence:
#
# PCOD9308362 Si02
#       4
#     8   8   8   4
#     4  12  29  47  80 115 158 208 266 322 392 470
#     4  12  28  52  81 113 164 209 260 330 394 471
#     4  12  27  51  81 115 158 208 265 322 401 466
#     4  12  28  46  76 112 158 198 270 312 398 450
#
# _framework density 25.530577000000001
#
# number of rings (size 3 to 8) (size 9 to 14) (size 15 to 20)
#    0.000    0.000    2.857    5.143   12.000    2.286 
#    0.000    0.000    0.000    0.000    0.000    0.000 
#    0.000    0.000    0.000    0.000    0.000    0.000 
#
# Total GULP energy -78364.249687 kJ/mol
# GULP energy per Si atom -5597.446406 kJ/mol
# Density = 2.547247 g / cm^3
# Si number density = 25.530577 Si / 1000 Ang^3
#
#
#
# Elastic Constant Matrix: (Units=GPa)
#
#
# Indices 1 2 3 4 5 6 
#
# 1 156.1921 55.7563 79.7563 0.0000 -35.9242 0.0000
# 2 55.7563 239.4948 47.1850 0.0000 -43.4109 0.0000
# 3 79.7563 47.1850 161.6291 0.0000 -40.1061 0.0000
# 4 0.0000 0.0000 0.0000 31.1882 0.0000 -11.0955
# 5 -35.9242 -43.4109 -40.1061 0.0000 71.2336 0.0000
# 6 0.0000 0.0000 0.0000 -11.0955 0.0000 44.0877
#
#
#
# Elastic Compliance Matrix: (Units=1/GPa)
#
#
# Indices 1 2 3 4 5 6 
#
# 1 0.009107 -0.001050 -0.003727 0.000000 0.001855 0.000000
# 2 -0.001050 0.004898 -0.000352 0.000000 0.002258 0.000000
# 3 -0.003727 -0.000352 0.008845 0.000000 0.002886 0.000000
# 4 0.000000 0.000000 0.000000 0.035216 0.000000 0.008863
# 5 0.001855 0.002258 0.002886 0.000000 0.017974 0.000000
# 6 0.000000 0.000000 0.000000 0.008863 0.000000 0.024913
#
#
# Mechanical properties :
#
#
# Convention : Reuss Voigt Hill
#
# Bulk Modulus (GPa) = 79.41007 102.52348 90.96677
# Shear Modulus (GPa) = 43.32443 54.27647 48.80045
#
# Velocity S-wave (km/s) = 4.12389 4.61579 4.37676
# Velocity P-wave (km/s) = 7.33803 8.28563 7.82619
#
# Compressibility (1/GPa) = 0.01259286
#
# Stress axis : x y z
#
# Youngs Moduli (GPa) = 109.80775 204.14941 113.05846
#
# Poissons Ratio (x) = 0.21429 0.42139
# Poissons Ratio (y) = 0.11526 0.03978
# Poissons Ratio (z) = 0.40927 0.07182
#
# Static dielectric constant tensor:
#      x y z
#    x 2.278550 0.000000 0.179020 
#    y 0.000000 2.003580 0.000000 
#    z 0.179020 0.000000 2.130870 
# 
# From -- ./inp_files/93007.got.cif
#   From: 2010.05.17/outbox.cif.g08.bks.cpg/sg15_47_cif.got.tgz:93007.got - 2010.06.03 18:47:42.
