data_PCOD9308889
_publ_section_title
;
Structure prediction by ZEFSAII (Michael W. Deem and Ramdas Pophale) SiO2 
 PCOD9308889
Probable space group: C 2/C
;
_chemical_formula_sum "Si O2"
_cell_formula_units_Z 30
_cell_length_a 24.000000
_cell_length_b 9.000000
_cell_length_c 24.000000
_cell_angle_alpha 90.000000
_cell_angle_beta 140.000000
_cell_angle_gamma 90.000000
_cell_volume 3332.210969
_symmetry_space_group_name_H-M "C 2/C"
_symmetry_group_IT_number 15
_symmetry_cell_setting 'monoclinic'
loop_
_space_group_symop_operation_xyz
x,y,z
-x,y,1/2-z
-x,-y,-z
x,-y,1/2+z
1/2+x,1/2+y,z
1/2-x,1/2+y,1/2-z
1/2-x,1/2-y,-z
1/2+x,1/2-y,1/2+z
loop_
_atom_site_type_symbol
_atom_site_label
_atom_site_fract_x
_atom_site_fract_y
_atom_site_fract_z
Si Si1 0.227904 0.666184 0.178473
Si Si2 0.831465 0.076016 0.441420
Si Si3 0.483077 0.415730 0.614748
Si Si4 0.967739 0.596963 0.892188
Si Si5 0.114750 0.400374 0.050848
Si Si6 0.155802 0.389047 0.304557
Si Si7 0.861709 0.957175 0.343540
Si Si8 0.000000 0.771257 0.750000
O O1 0.171700 0.549344 0.100312
O O2 0.290861 0.753937 0.184030
O O3 0.172243 0.787288 0.171799
O O4 0.284173 0.561382 0.261759
O O5 0.840258 0.255070 0.441358
O O6 0.894905 0.006446 0.536515
O O7 0.733547 0.009546 0.375000
O O8 0.874141 0.013143 0.416445
O O9 0.484295 0.251186 0.587260
O O10 0.559647 0.508288 0.639929
O O11 0.492088 0.373149 0.687654
O O12 0.914499 0.632289 0.907817
O O13 0.905615 0.557285 0.793113
O O14 0.030339 0.458844 0.953325
O O15 0.087241 0.329313 0.300124
#
# Coordination Sequence:
#
# PCOD9308889 Si02
#       8
#     8   8   8   8   8   8   8   4
#     4  11  21  35  59  96 128 167 205 259 328 389
#     4  11  22  37  61  96 129 161 208 268 330 382
#     4  11  22  40  62  90 126 170 216 265 311 393
#     4  10  20  35  55  91 129 168 202 247 326 383
#     4  11  22  34  57  95 135 163 194 259 330 398
#     4  10  21  41  64  89 121 169 223 264 311 381
#     4  11  20  35  60  98 131 161 204 265 332 388
#     4  10  22  44  68  90 122 176 234 258 312 384
#
# _framework density 9.003031
#
# number of rings (size 3 to 8) (size 9 to 14) (size 15 to 20)
#    0.000    1.333    4.000    4.400    3.733    0.533 
#    0.000    0.000    0.000   11.200    0.000    0.000 
#    0.000    0.000    0.000    0.000    0.000    0.000 
#
# Total GULP energy -167229.759397 kJ/mol
# GULP energy per Si atom -5574.325313 kJ/mol
# Density = 0.898254 g / cm^3
# Si number density = 9.003031 Si / 1000 Ang^3
#
#
#
# Elastic Constant Matrix: (Units=GPa)
#
#
# Indices 1 2 3 4 5 6 
#
# 1 122.7297 40.6558 39.4686 0.0000 5.2126 0.0000
# 2 40.6558 119.1148 48.2626 0.0000 16.0601 0.0000
# 3 39.4686 48.2626 97.4398 0.0000 9.7543 0.0000
# 4 0.0000 0.0000 0.0000 33.4814 0.0000 2.9698
# 5 5.2126 16.0601 9.7543 0.0000 25.4708 0.0000
# 6 0.0000 0.0000 0.0000 2.9698 0.0000 31.9703
#
#
#
# Elastic Compliance Matrix: (Units=1/GPa)
#
#
# Indices 1 2 3 4 5 6 
#
# 1 0.009804 -0.002235 -0.002916 0.000000 0.000519 0.000000
# 2 -0.002235 0.011613 -0.004325 0.000000 -0.005208 0.000000
# 3 -0.002916 -0.004325 0.013782 0.000000 -0.001954 0.000000
# 4 0.000000 0.000000 0.000000 0.030115 0.000000 -0.002797
# 5 0.000519 -0.005208 -0.001954 0.000000 0.043187 0.000000
# 6 0.000000 0.000000 0.000000 -0.002797 0.000000 0.031539
#
#
# Mechanical properties :
#
#
# Convention : Reuss Voigt Hill
#
# Bulk Modulus (GPa) = 61.55316 66.22869 63.89092
# Shear Modulus (GPa) = 30.41215 32.24431 31.32823
#
# Velocity S-wave (km/s) = 4.11420 4.23631 4.17570
# Velocity P-wave (km/s) = 7.53842 7.79677 7.66868
#
# Compressibility (1/GPa) = 0.01624612
#
# Stress axis : x y z
#
# Youngs Moduli (GPa) = 101.99865 86.11210 72.55848
#
# Poissons Ratio (x) = 0.19243 0.21161
# Poissons Ratio (y) = 0.22793 0.31384
# Poissons Ratio (z) = 0.29746 0.37246
#
# Static dielectric constant tensor:
#      x y z
#    x 1.610690 0.000000 0.030650 
#    y 0.000000 1.640070 0.000000 
#    z 0.030650 0.000000 1.705170 
# 
# From -- ./inp_files/281701.got.cif
#   From: 2010.05.17/outbox.ucp.g08.bks.cvg/sg15_141_cif.got.tgz:281701.got - 2010.06.11 12:40:34.
