data_PCOD9308553
_publ_section_title
;
Structure prediction by ZEFSAII (Michael W. Deem and Ramdas Pophale) SiO2 
 PCOD9308553
Probable space group: C 2/C
;
_chemical_formula_sum "Si O2"
_cell_formula_units_Z 20
_cell_length_a 7.164719
_cell_length_b 11.682397
_cell_length_c 10.177164
_cell_angle_alpha 90.000000
_cell_angle_beta 105.487054
_cell_angle_gamma 90.000000
_cell_volume 820.910128
_symmetry_space_group_name_H-M "C 2/C"
_symmetry_group_IT_number 15
_symmetry_cell_setting 'monoclinic'
loop_
_space_group_symop_operation_xyz
x,y,z
-x,y,1/2-z
-x,-y,-z
x,-y,1/2+z
1/2+x,1/2+y,z
1/2-x,1/2+y,1/2-z
1/2-x,1/2-y,-z
1/2+x,1/2-y,1/2+z
loop_
_atom_site_type_symbol
_atom_site_label
_atom_site_fract_x
_atom_site_fract_y
_atom_site_fract_z
Si Si1 0.320602 0.287197 0.307342
Si Si2 0.500000 0.381178 0.750000
Si Si3 0.173040 0.415779 0.503673
O O1 0.500000 0.311198 0.250000
O O2 0.222738 0.394827 0.360970
O O3 0.387034 0.204810 0.440084
O O4 0.156115 0.205687 0.212664
O O5 0.370269 0.446696 0.619440
O O6 0.000000 0.500000 0.500000
#
# Coordination Sequence:
#
# PCOD9308553 Si02
#       3
#     8   4   8
#     4   9  19  39  69  98 141 178 222 286 352 393
#     4   8  18  38  68  98 136 182 216 280 352 390
#     4   9  19  40  68 103 137 175 232 281 336 418
#
# _framework density 24.363204
#
# number of rings (size 3 to 8) (size 9 to 14) (size 15 to 20)
#    2.400    0.800    0.000    0.000    0.000    1.600 
#    3.600    2.000    8.800    2.400    0.000    0.000 
#    0.000    0.000    0.000    0.000    0.000    0.000 
#
# Total GULP energy -55772.153325 kJ/mol
# GULP energy per Si atom -5577.215333 kJ/mol
# Density = 2.430775 g / cm^3
# Si number density = 24.363204 Si / 1000 Ang^3
#
#
#
# Elastic Constant Matrix: (Units=GPa)
#
#
# Indices 1 2 3 4 5 6 
#
# 1 231.2340 72.4410 71.8415 0.0000 -13.2083 0.0000
# 2 72.4410 69.8211 24.1789 0.0000 1.2739 0.0000
# 3 71.8415 24.1789 93.3543 0.0000 22.8727 0.0000
# 4 0.0000 0.0000 0.0000 17.6503 0.0000 15.6304
# 5 -13.2083 1.2739 22.8727 0.0000 54.8450 0.0000
# 6 0.0000 0.0000 0.0000 15.6304 0.0000 46.7383
#
#
#
# Elastic Compliance Matrix: (Units=1/GPa)
#
#
# Indices 1 2 3 4 5 6 
#
# 1 0.008652 -0.006980 -0.006015 0.000000 0.004754 0.000000
# 2 -0.006980 0.021474 0.000383 0.000000 -0.002339 0.000000
# 3 -0.006015 0.000383 0.017374 0.000000 -0.008703 0.000000
# 4 0.000000 0.000000 0.000000 0.080495 0.000000 -0.026919
# 5 0.004754 -0.002339 -0.008703 0.000000 0.023062 0.000000
# 6 0.000000 0.000000 0.000000 -0.026919 0.000000 0.030398
#
#
# Mechanical properties :
#
#
# Convention : Reuss Voigt Hill
#
# Bulk Modulus (GPa) = 44.89194 81.25914 63.07554
# Shear Modulus (GPa) = 23.35304 38.90994 31.13149
#
# Velocity S-wave (km/s) = 3.09938 4.00068 3.57852
# Velocity P-wave (km/s) = 5.59235 7.40042 6.55899
#
# Compressibility (1/GPa) = 0.02227572
#
# Stress axis : x y z
#
# Youngs Moduli (GPa) = 115.58443 46.56697 57.55756
#
# Poissons Ratio (x) = 0.32504 0.34621
# Poissons Ratio (y) = 0.80679 -0.02204
# Poissons Ratio (z) = 0.69523 -0.01783
#
# Static dielectric constant tensor:
#      x y z
#    x 1.908900 0.000000 -0.005440 
#    y 0.000000 2.048050 0.000000 
#    z -0.005440 0.000000 2.035440 
# 
# From -- ./inp_files/71229.got.cif
#   From: 2010.05.17/outbox.cif.g08.bks.cpg/sg15_36_cif.got.tgz:71229.got - 2010.06.03 18:47:42.
