data_PCOD9308443
_publ_section_title
;
Structure prediction by ZEFSAII (Michael W. Deem and Ramdas Pophale) SiO2 
 PCOD9308443
Probable space group: C 2/C
;
_chemical_formula_sum "Si O2"
_cell_formula_units_Z 64
_cell_length_a 8.867262
_cell_length_b 11.607688
_cell_length_c 23.053420
_cell_angle_alpha 90.000000
_cell_angle_beta 82.035630
_cell_angle_gamma 90.000000
_cell_volume 2349.964358
_symmetry_space_group_name_H-M "C 2/C"
_symmetry_group_IT_number 15
_symmetry_cell_setting 'monoclinic'
loop_
_space_group_symop_operation_xyz
x,y,z
-x,y,1/2-z
-x,-y,-z
x,-y,1/2+z
1/2+x,1/2+y,z
1/2-x,1/2+y,1/2-z
1/2-x,1/2-y,-z
1/2+x,1/2-y,1/2+z
loop_
_atom_site_type_symbol
_atom_site_label
_atom_site_fract_x
_atom_site_fract_y
_atom_site_fract_z
Si Si1 0.779962 0.357237 0.691385
Si Si2 0.276085 0.623685 0.182950
Si Si3 0.049958 0.674388 0.560578
Si Si4 0.335891 0.380030 0.558407
Si Si5 0.968513 0.943340 0.310683
Si Si6 0.144606 0.684758 0.436663
Si Si7 0.934715 0.093978 0.936242
Si Si8 0.530945 0.828026 0.186373
O O1 0.830738 0.364737 0.755518
O O2 0.649545 0.454860 0.696293
O O3 0.869779 0.369382 0.626294
O O4 0.691511 0.236297 0.687523
O O5 0.223157 0.619014 0.119071
O O6 0.372581 0.505330 0.183054
O O7 0.401182 0.727646 0.184985
O O8 0.097272 0.616938 0.497391
O O9 0.182820 0.770487 0.564675
O O10 0.036828 0.611513 0.623368
O O11 0.902643 0.751994 0.558558
O O12 0.469762 0.474660 0.564251
O O13 0.306188 0.405513 0.492553
O O14 0.000000 0.875043 0.250000
O O15 0.898451 0.886116 0.370960
O O16 0.047334 0.801745 0.444446
O O17 0.500000 0.888055 0.250000
#
# Coordination Sequence:
#
# PCOD9308443 Si02
#       8
#     8   8   8   8   8   8   8   8
#     4   8  12  18  27  37  51  74 105 134 153 185
#     4   7  10  17  28  38  47  67 103 135 146 167
#     4   8  13  19  24  33  53  80 105 126 156 196
#     4   8  13  20  28  38  55  80 109 136 156 188
#     4   8  13  21  31  40  53  79 115 138 151 186
#     4   9  14  17  23  37  57  77  98 129 169 196
#     4   9  14  18  26  41  59  77 102 137 169 191
#     4   7   9  14  24  34  43  62  97 129 141 159
#
# _framework density 27.234455000000001
#
# number of rings (size 3 to 8) (size 9 to 14) (size 15 to 20)
#    0.000    4.000    0.000    3.750    0.000    1.000 
#    0.000    0.000    0.000    0.000    0.000    0.000 
#    0.000    1.000    0.000    0.000    0.000  427.500 
#
# Total GULP energy -178413.538010 kJ/mol
# GULP energy per Si atom -5575.423063 kJ/mol
# Density = 2.717247 g / cm^3
# Si number density = 27.234455 Si / 1000 Ang^3
#
#
#
# Elastic Constant Matrix: (Units=GPa)
#
#
# Indices 1 2 3 4 5 6 
#
# 1 63.7779 44.1244 25.0638 0.0000 -1.8916 0.0000
# 2 44.1244 87.7836 26.4052 0.0000 -3.1354 0.0000
# 3 25.0638 26.4052 411.0426 0.0000 -37.0459 0.0000
# 4 0.0000 0.0000 0.0000 7.9421 0.0000 1.3598
# 5 -1.8916 -3.1354 -37.0459 0.0000 -17.3844 0.0000
# 6 0.0000 0.0000 0.0000 1.3598 0.0000 6.5989
#
#
#
# Elastic Compliance Matrix: (Units=1/GPa)
#
#
# Indices 1 2 3 4 5 6 
#
# 1 0.024225 -0.011956 -0.000631 0.000000 0.000865 0.000000
# 2 -0.011956 0.017513 -0.000473 0.000000 -0.000850 0.000000
# 3 -0.000631 -0.000473 0.002110 0.000000 -0.004343 0.000000
# 4 0.000000 0.000000 0.000000 0.130517 0.000000 -0.026895
# 5 0.000865 -0.000850 -0.004343 0.000000 -0.048209 0.000000
# 6 0.000000 0.000000 0.000000 -0.026895 0.000000 0.157083
#
#
# Mechanical properties :
#
#
# Convention : Reuss Voigt Hill
#
# Bulk Modulus (GPa) = 56.40526 83.75454 70.07990
# Shear Modulus (GPa) = 15.85957 30.56537 23.21247
#
# Velocity S-wave (km/s) = 2.41578 3.35372 2.92262
# Velocity P-wave (km/s) = 5.34203 6.76879 6.09728
#
# Compressibility (1/GPa) = 0.01772884
#
# Stress axis : x y z
#
# Youngs Moduli (GPa) = 41.28036 57.10046 473.87468
#
# Poissons Ratio (x) = 0.68268 0.29906
# Poissons Ratio (y) = 0.49354 0.22398
# Poissons Ratio (z) = 0.02605 0.02699
#
# Static dielectric constant tensor:
#      x y z
#    x 2.092680 0.000000 0.008090 
#    y 0.000000 3.497900 0.000000 
#    z 0.008090 0.000000 2.261080 
# 
# From -- ./inp_files/273969.got.cif
#   From: 2010.05.17/outbox.cif.g08.bks.cpg/sg15_137_cif.got.tgz:273969.got - 2010.06.03 18:47:42.
