data_PCOD9308888
_publ_section_title
;
Structure prediction by ZEFSAII (Michael W. Deem and Ramdas Pophale) SiO2 
 PCOD9308888
Probable space group: C 2/C
;
_chemical_formula_sum "Si O2"
_cell_formula_units_Z 30
_cell_length_a 15.000000
_cell_length_b 27.000000
_cell_length_c 15.000000
_cell_angle_alpha 90.000000
_cell_angle_beta 30.000000
_cell_angle_gamma 90.000000
_cell_volume 3037.500000
_symmetry_space_group_name_H-M "C 2/C"
_symmetry_group_IT_number 15
_symmetry_cell_setting 'monoclinic'
loop_
_space_group_symop_operation_xyz
x,y,z
-x,y,1/2-z
-x,-y,-z
x,-y,1/2+z
1/2+x,1/2+y,z
1/2-x,1/2+y,1/2-z
1/2-x,1/2-y,-z
1/2+x,1/2-y,1/2+z
loop_
_atom_site_type_symbol
_atom_site_label
_atom_site_fract_x
_atom_site_fract_y
_atom_site_fract_z
Si Si1 0.000000 0.453864 0.750000
Si Si2 0.821815 0.690596 0.026651
Si Si3 0.650444 0.911394 0.463935
Si Si4 0.801613 0.976185 0.040636
Si Si5 0.606258 0.388318 0.401027
Si Si6 0.278359 0.111876 0.214037
Si Si7 0.262586 0.194288 0.880610
Si Si8 0.291015 0.483196 0.838148
O O1 0.871273 0.488247 0.798994
O O2 0.142089 0.419101 0.576762
O O3 0.735987 0.676815 0.005737
O O4 0.033404 0.685852 0.826057
O O5 0.761291 0.656716 0.159657
O O6 0.776032 0.747507 0.085591
O O7 0.801690 0.886758 0.274393
O O8 0.465089 0.886037 0.601127
O O9 0.674355 0.969129 0.417817
O O10 0.809539 0.930514 0.104239
O O11 0.786210 0.966915 0.946590
O O12 0.005400 0.996383 0.867551
O O13 0.395636 0.394340 0.575548
O O14 0.641741 0.337079 0.420471
O O15 0.279481 0.062692 0.154475
#
# Coordination Sequence:
#
# PCOD9308888 Si02
#       8
#     4   8   8   8   8   8   8   8
#     4  10  24  38  56  76 110 150 192 236 296 330
#     4  10  20  35  57  82 121 153 188 222 276 328
#     4  11  24  38  55  80 109 148 189 244 279 341
#     4   9  20  34  54  79 110 154 187 227 273 336
#     4  11  23  35  57  82 114 146 195 228 278 331
#     4  11  22  36  56  82 113 149 190 235 275 329
#     4  10  20  35  55  85 118 157 184 226 269 333
#     4   9  20  36  52  78 115 151 190 226 278 328
#
# _framework density 9.8765429999999999
#
# number of rings (size 3 to 8) (size 9 to 14) (size 15 to 20)
#    0.000    1.867    1.333    2.000    7.467    4.800 
#    0.000    0.000    0.000    0.000    0.000    0.933 
#    0.000    0.000    0.000    0.000    0.000    0.000 
#
# Total GULP energy -167208.086194 kJ/mol
# GULP energy per Si atom -5573.602873 kJ/mol
# Density = 0.985406 g / cm^3
# Si number density = 9.876543 Si / 1000 Ang^3
#
#
#
# Elastic Constant Matrix: (Units=GPa)
#
#
# Indices 1 2 3 4 5 6 
#
# 1 -6.9976 6.3356 9.3364 -0.0100 3.1747 0.0026
# 2 6.3356 30.6668 8.9801 -0.0048 10.8593 0.0012
# 3 9.3364 8.9801 79.4042 -0.0130 12.1805 0.0040
# 4 -0.0100 -0.0048 -0.0130 24.7853 0.0099 -3.5103
# 5 3.1747 10.8593 12.1805 0.0099 11.8913 -0.0019
# 6 0.0026 0.0012 0.0040 -3.5103 -0.0019 18.6062
#
#
#
# Elastic Compliance Matrix: (Units=1/GPa)
#
#
# Indices 1 2 3 4 5 6 
#
# 1 -0.110669 0.019432 0.010683 -0.000035 0.000857 0.000005
# 2 0.019432 0.044941 -0.000327 0.000034 -0.045893 -0.000004
# 3 0.010683 -0.000327 0.013960 0.000018 -0.016852 -0.000003
# 4 -0.000035 0.000034 0.000018 0.041454 -0.000074 0.007821
# 5 0.000857 -0.045893 -0.016852 -0.000074 0.143038 0.000007
# 6 0.000005 -0.000004 -0.000003 0.007821 0.000007 0.055221
#
#
# Mechanical properties :
#
#
# Convention : Reuss Voigt Hill
#
# Bulk Modulus (GPa) = 128.08497 16.93084 72.50791
# Shear Modulus (GPa) = 38.17599 16.28465 27.23032
#
# Velocity S-wave (km/s) = 4.40097 2.87437 3.71689
# Velocity P-wave (km/s) = 9.52935 4.42785 7.43015
#
# Compressibility (1/GPa) = 0.00780732
#
# Stress axis : x y z
#
# Youngs Moduli (GPa) = -9.03596 22.25143 71.63424
#
# Poissons Ratio (x) = -0.43238 -0.76530
# Poissons Ratio (y) = 0.17558 0.02345
# Poissons Ratio (z) = 0.09653 0.00729
#
# Static dielectric constant tensor:
#      x y z
#    x 1.720310 0.000000 0.017370 
#    y 0.000000 1.676400 0.000000 
#    z 0.017370 0.000000 1.775330 
# 
# From -- ./inp_files/157332.got.cif
#   From: 2010.05.17/outbox.ucp.g08.bks.cvg/sg15_79_cif.got.tgz:157332.got - 2010.06.11 12:40:34.
