data_PCOD9308387
_publ_section_title
;
Structure prediction by ZEFSAII (Michael W. Deem and Ramdas Pophale) SiO2 
 PCOD9308387
Probable space group: C 2/C
;
_chemical_formula_sum "Si O2"
_cell_formula_units_Z 24
_cell_length_a 9.771952
_cell_length_b 20.366642
_cell_length_c 8.358611
_cell_angle_alpha 90.000000
_cell_angle_beta 30.218762
_cell_angle_gamma 90.000000
_cell_volume 837.267687
_symmetry_space_group_name_H-M "C 2/C"
_symmetry_group_IT_number 15
_symmetry_cell_setting 'monoclinic'
loop_
_space_group_symop_operation_xyz
x,y,z
-x,y,1/2-z
-x,-y,-z
x,-y,1/2+z
1/2+x,1/2+y,z
1/2-x,1/2+y,1/2-z
1/2-x,1/2-y,-z
1/2+x,1/2-y,1/2+z
loop_
_atom_site_type_symbol
_atom_site_label
_atom_site_fract_x
_atom_site_fract_y
_atom_site_fract_z
Si Si1 0.750000 0.750000 0.000000
Si Si2 0.304231 0.862105 0.219330
Si Si3 0.000000 0.201420 0.750000
Si Si4 0.500000 0.534672 0.250000
Si Si5 0.000000 0.441833 0.750000
O O1 0.500000 0.699713 0.250000
O O2 0.566887 0.796767 0.320651
O O3 0.068790 0.839795 0.336511
O O4 0.178025 0.918753 0.455500
O O5 0.529149 0.894892 0.875394
O O6 0.250000 0.250000 0.500000
O O7 0.258996 0.485607 0.439998
#
# Coordination Sequence:
#
# PCOD9308387 Si02
#       5
#     4   8   4   4   4
#     4  12  28  50  84 122 164 220 274 350 424 502
#     4  12  28  55  85 124 172 219 289 346 429 504
#     4  12  28  48  80 122 168 216 266 344 430 496
#     4  12  29  52  89 119 174 225 290 334 418 504
#     4  12  29  52  85 125 170 227 280 352 408 498
#
# _framework density 28.664667000000001
#
# number of rings (size 3 to 8) (size 9 to 14) (size 15 to 20)
#    0.000    0.000    1.667    6.000    2.333   10.667 
#    0.000    0.000    0.000    0.000    0.000    0.000 
#    0.000    0.000    0.000    0.000    0.000    0.000 
#
# Total GULP energy -66905.724269 kJ/mol
# GULP energy per Si atom -5575.477022 kJ/mol
# Density = 2.859943 g / cm^3
# Si number density = 28.664667 Si / 1000 Ang^3
#
#
#
# Elastic Constant Matrix: (Units=GPa)
#
#
# Indices 1 2 3 4 5 6 
#
# 1 113.7222 58.9222 -5.5652 -0.0001 25.7613 0.0001
# 2 58.9222 195.7330 42.3247 0.0000 36.2944 0.0000
# 3 -5.5652 42.3247 119.3903 -0.0001 0.9171 0.0002
# 4 -0.0001 0.0000 -0.0001 13.7195 0.0001 18.0756
# 5 25.7613 36.2944 0.9171 0.0001 77.7951 -0.0001
# 6 0.0001 0.0000 0.0002 18.0756 -0.0001 42.3282
#
#
#
# Elastic Compliance Matrix: (Units=1/GPa)
#
#
# Indices 1 2 3 4 5 6 
#
# 1 0.011075 -0.003305 0.001704 0.000000 -0.002146 0.000000
# 2 -0.003305 0.007080 -0.002647 0.000000 -0.002178 0.000000
# 3 0.001704 -0.002647 0.009389 0.000000 0.000560 0.000000
# 4 0.000000 0.000000 0.000000 0.166651 0.000000 -0.071166
# 5 -0.002146 -0.002178 0.000560 0.000000 0.014574 0.000000
# 6 0.000000 0.000000 0.000000 -0.071166 0.000000 0.054015
#
#
# Mechanical properties :
#
#
# Convention : Reuss Voigt Hill
#
# Bulk Modulus (GPa) = 52.49521 68.91209 60.70365
# Shear Modulus (GPa) = 18.00960 48.97948 33.49454
#
# Velocity S-wave (km/s) = 2.50928 4.13813 3.42203
# Velocity P-wave (km/s) = 5.17191 6.85019 6.06934
#
# Compressibility (1/GPa) = 0.01904936
#
# Stress axis : x y z
#
# Youngs Moduli (GPa) = 90.29332 141.24287 106.50207
#
# Poissons Ratio (x) = 0.46675 -0.18150
# Poissons Ratio (y) = 0.29838 0.28193
# Poissons Ratio (z) = -0.15388 0.37390
#
# Static dielectric constant tensor:
#      x y z
#    x 1.836750 0.000000 0.392950 
#    y 0.000000 2.064720 0.000000 
#    z 0.392950 0.000000 2.400600 
# 
# From -- ./inp_files/31598.got.cif
#   From: 2010.05.17/outbox.cif.g08.bks.cpg/sg15_16_cif.got.tgz:31598.got - 2010.06.03 18:47:42.
