data_PCOD9308229
_publ_section_title
;
Structure prediction by ZEFSAII (Michael W. Deem and Ramdas Pophale) SiO2 
 PCOD9308229
Probable space group: C 2/C
;
_chemical_formula_sum "Si O2"
_cell_formula_units_Z 32
_cell_length_a 20.538836
_cell_length_b 4.913884
_cell_length_c 16.965156
_cell_angle_alpha 90.000000
_cell_angle_beta 122.844981
_cell_angle_gamma 90.000000
_cell_volume 1438.503089
_symmetry_space_group_name_H-M "C 2/C"
_symmetry_group_IT_number 15
_symmetry_cell_setting 'monoclinic'
loop_
_space_group_symop_operation_xyz
x,y,z
-x,y,1/2-z
-x,-y,-z
x,-y,1/2+z
1/2+x,1/2+y,z
1/2-x,1/2+y,1/2-z
1/2-x,1/2-y,-z
1/2+x,1/2-y,1/2+z
loop_
_atom_site_type_symbol
_atom_site_label
_atom_site_fract_x
_atom_site_fract_y
_atom_site_fract_z
Si Si1 0.788493 0.301333 0.308427
Si Si2 0.960205 0.889680 0.895142
Si Si3 0.474338 0.105802 0.145814
Si Si4 0.705179 0.994912 0.008417
O O1 0.726453 0.054039 0.260990
O O2 0.868137 0.138418 0.344147
O O3 0.709958 0.951299 0.105863
O O4 0.014602 0.413894 0.108486
O O5 0.994719 0.090622 0.851388
O O6 0.000000 0.000000 0.000000
O O7 0.500000 0.028762 0.250000
O O8 0.383891 0.044028 0.075019
O O9 0.750000 0.750000 0.000000
O O10 0.750000 0.250000 0.000000
#
# Coordination Sequence:
#
# PCOD9308229 Si02
#       4
#     8   8   8   8
#     4  12  28  47  77 113 148 197 249 309 376 442
#     4  12  26  50  76 103 147 195 256 304 361 443
#     4  12  28  48  74 109 146 199 246 305 372 440
#     4  12  28  48  73 108 153 194 244 305 376 444
#
# _framework density 22.245348
#
# number of rings (size 3 to 8) (size 9 to 14) (size 15 to 20)
#    0.000    0.000    2.500    6.000   14.000    0.000 
#    0.000    0.000    0.000    0.000    0.000    0.000 
#    0.000    0.000    0.000    0.000    0.000    0.000 
#
# Total GULP energy -89481.167600 kJ/mol
# GULP energy per Si atom -5592.572975 kJ/mol
# Density = 2.219472 g / cm^3
# Si number density = 22.245348 Si / 1000 Ang^3
#
#
#
# Elastic Constant Matrix: (Units=GPa)
#
#
# Indices 1 2 3 4 5 6 
#
# 1 116.5835 33.3020 46.6327 -0.0001 20.6152 0.0001
# 2 33.3020 137.5403 32.7257 0.0010 14.4845 0.0003
# 3 46.6327 32.7257 148.8471 -0.0006 7.7267 0.0000
# 4 -0.0001 0.0010 -0.0006 18.5013 0.0002 -34.1962
# 5 20.6152 14.4845 7.7267 0.0002 27.6902 -0.0001
# 6 0.0001 0.0003 0.0000 -34.1962 -0.0001 43.4033
#
#
#
# Elastic Compliance Matrix: (Units=1/GPa)
#
#
# Indices 1 2 3 4 5 6 
#
# 1 0.011345 -0.001325 -0.002902 0.000000 -0.006943 0.000000
# 2 -0.001325 0.008196 -0.001233 0.000001 -0.002957 0.000001
# 3 -0.002902 -0.001233 0.007867 -0.000001 0.000611 -0.000001
# 4 0.000000 0.000001 -0.000001 -0.118470 0.000000 -0.093339
# 5 -0.006943 -0.002957 0.000611 0.000000 0.042659 0.000000
# 6 0.000000 0.000001 -0.000001 -0.093339 0.000000 -0.050500
#
#
# Mechanical properties :
#
#
# Convention : Reuss Voigt Hill
#
# Bulk Modulus (GPa) = 60.65680 69.81018 65.23349
# Shear Modulus (GPa) = -60.61694 37.27298 -11.67198
#
# Velocity S-wave (km/s) = -5.22575 4.09778 -2.29310
# Velocity P-wave (km/s) = 3.01411 7.33751 4.73045
#
# Compressibility (1/GPa) = 0.01648620
#
# Stress axis : x y z
#
# Youngs Moduli (GPa) = 88.14650 122.00655 127.11154
#
# Poissons Ratio (x) = 0.16167 0.36894
# Poissons Ratio (y) = 0.11680 0.15678
# Poissons Ratio (z) = 0.25584 0.15049
#
# Static dielectric constant tensor:
#      x y z
#    x 1.671970 0.000000 -0.123510 
#    y 0.000000 1.789030 0.000000 
#    z -0.123510 0.000000 1.759780 
# 
# From -- ./inp_files/165178.got.cif
#   From: 2010.05.17/outbox.cif.g08.bks.cpg/sg15_83_cif.got.tgz:165178.got - 2010.06.03 18:47:42.
