data_PCOD9308282
_publ_section_title
;
Structure prediction by ZEFSAII (Michael W. Deem and Ramdas Pophale) SiO2 
 PCOD9308282
Probable space group: C 2/C
;
_chemical_formula_sum "Si O2"
_cell_formula_units_Z 36
_cell_length_a 11.758542
_cell_length_b 9.095308
_cell_length_c 15.086962
_cell_angle_alpha 90.000000
_cell_angle_beta 113.539868
_cell_angle_gamma 90.000000
_cell_volume 1479.241032
_symmetry_space_group_name_H-M "C 2/C"
_symmetry_group_IT_number 15
_symmetry_cell_setting 'monoclinic'
loop_
_space_group_symop_operation_xyz
x,y,z
-x,y,1/2-z
-x,-y,-z
x,-y,1/2+z
1/2+x,1/2+y,z
1/2-x,1/2+y,1/2-z
1/2-x,1/2-y,-z
1/2+x,1/2-y,1/2+z
loop_
_atom_site_type_symbol
_atom_site_label
_atom_site_fract_x
_atom_site_fract_y
_atom_site_fract_z
Si Si1 0.816485 0.544367 0.649025
Si Si2 0.759058 0.752067 0.228634
Si Si3 0.594582 0.428420 0.959767
Si Si4 0.009492 0.384192 0.080149
Si Si5 0.000000 0.932165 0.250000
O O1 0.779389 0.417202 0.707812
O O2 0.783558 0.699468 0.686208
O O3 0.728265 0.522388 0.535899
O O4 0.953630 0.542913 0.651232
O O5 0.646850 0.819176 0.135449
O O6 0.888036 0.832252 0.249864
O O7 0.578177 0.254937 0.963795
O O8 0.553206 0.474801 0.848720
O O9 0.500000 0.500000 0.000000
O O10 0.000000 0.500000 0.000000
#
# Coordination Sequence:
#
# PCOD9308282 Si02
#       5
#     8   8   8   8   4
#     4  12  29  51  82 114 166 211 269 338 405 479
#     4  12  28  48  79 120 159 205 275 325 406 479
#     4  12  26  53  76 111 159 212 262 328 409 470
#     4  12  29  48  80 114 160 210 275 332 402 485
#     4  12  28  48  86 106 164 216 260 334 408 474
#
# _framework density 24.336804000000001
#
# number of rings (size 3 to 8) (size 9 to 14) (size 15 to 20)
#    0.000    0.000    4.444    2.667   15.556    1.778 
#    0.000    0.000    0.000    0.000    0.000    0.000 
#    0.000    0.000    0.000    0.000    0.000    0.000 
#
# Total GULP energy -100900.052661 kJ/mol
# GULP energy per Si atom -5605.558481 kJ/mol
# Density = 2.428141 g / cm^3
# Si number density = 24.336804 Si / 1000 Ang^3
#
#
#
# Elastic Constant Matrix: (Units=GPa)
#
#
# Indices 1 2 3 4 5 6 
#
# 1 125.6706 40.0784 9.2862 0.0000 -11.4901 0.0000
# 2 40.0784 121.0819 57.0933 0.0000 -6.5384 0.0000
# 3 9.2862 57.0933 124.9819 0.0000 -25.6349 0.0000
# 4 0.0000 0.0000 0.0000 37.8168 0.0000 -0.7571
# 5 -11.4901 -6.5384 -25.6349 0.0000 40.1874 0.0000
# 6 0.0000 0.0000 0.0000 -0.7571 0.0000 39.4554
#
#
#
# Elastic Compliance Matrix: (Units=1/GPa)
#
#
# Indices 1 2 3 4 5 6 
#
# 1 0.009292 -0.003674 0.001622 0.000000 0.003094 0.000000
# 2 -0.003674 0.012064 -0.005811 0.000000 -0.002794 0.000000
# 3 0.001622 -0.005811 0.012007 0.000000 0.007178 0.000000
# 4 0.000000 0.000000 0.000000 0.026453 0.000000 0.000508
# 5 0.003094 -0.002794 0.007178 0.000000 0.029892 0.000000
# 6 0.000000 0.000000 0.000000 0.000508 0.000000 0.025355
#
#
# Mechanical properties :
#
#
# Convention : Reuss Voigt Hill
#
# Bulk Modulus (GPa) = 56.69421 64.96112 60.82767
# Shear Modulus (GPa) = 36.58505 41.17702 38.88104
#
# Velocity S-wave (km/s) = 3.88142 4.11781 4.00136
# Velocity P-wave (km/s) = 6.59041 7.02560 6.81148
#
# Compressibility (1/GPa) = 0.01763848
#
# Stress axis : x y z
#
# Youngs Moduli (GPa) = 107.62126 82.89081 83.28149
#
# Poissons Ratio (x) = 0.30450 -0.13511
# Poissons Ratio (y) = 0.39535 0.48397
# Poissons Ratio (z) = -0.17459 0.48170
#
# Static dielectric constant tensor:
#      x y z
#    x 1.965480 0.000000 -0.000900 
#    y 0.000000 1.921050 0.000000 
#    z -0.000900 0.000000 1.993680 
# 
# From -- ./inp_files/195294.got.cif
#   From: 2010.05.17/outbox.cif.g08.bks.cpg/sg15_98_cif.got.tgz:195294.got - 2010.06.03 18:47:42.
