data_PCOD9308347
_publ_section_title
;
Structure prediction by ZEFSAII (Michael W. Deem and Ramdas Pophale) SiO2 
 PCOD9308347
Probable space group: C 2/C
;
_chemical_formula_sum "Si O2"
_cell_formula_units_Z 40
_cell_length_a 13.955518
_cell_length_b 4.743096
_cell_length_c 24.420320
_cell_angle_alpha 90.000000
_cell_angle_beta 65.552944
_cell_angle_gamma 90.000000
_cell_volume 1471.515355
_symmetry_space_group_name_H-M "C 2/C"
_symmetry_group_IT_number 15
_symmetry_cell_setting 'monoclinic'
loop_
_space_group_symop_operation_xyz
x,y,z
-x,y,1/2-z
-x,-y,-z
x,-y,1/2+z
1/2+x,1/2+y,z
1/2-x,1/2+y,1/2-z
1/2-x,1/2-y,-z
1/2+x,1/2-y,1/2+z
loop_
_atom_site_type_symbol
_atom_site_label
_atom_site_fract_x
_atom_site_fract_y
_atom_site_fract_z
Si Si1 0.106031 0.267371 0.068426
Si Si2 0.801057 0.731367 0.211766
Si Si3 0.521313 0.455937 0.185092
Si Si4 0.234680 0.599833 0.123713
Si Si5 0.092732 0.214913 0.495513
O O1 0.196457 0.400137 0.083567
O O2 0.144268 0.982523 0.030444
O O3 0.023007 0.169748 0.134022
O O4 0.066520 0.499650 0.034322
O O5 0.760355 0.416059 0.227701
O O6 0.923758 0.752734 0.195535
O O7 0.769978 0.888356 0.163356
O O8 0.500000 0.587578 0.250000
O O9 0.631837 0.289369 0.160449
O O10 0.332798 0.765487 0.074153
O O11 0.000000 0.000000 0.500000
#
# Coordination Sequence:
#
# PCOD9308347 Si02
#       5
#     8   8   8   8   8
#     4  12  27  50  78 111 163 204 264 338 404 482
#     4  12  29  51  78 116 163 210 272 335 408 492
#     4  12  27  52  79 118 161 215 267 336 411 489
#     4  12  28  48  84 114 161 213 273 335 412 489
#     4  12  28  51  79 121 156 211 275 337 411 489
#
# _framework density 27.182863000000001
#
# number of rings (size 3 to 8) (size 9 to 14) (size 15 to 20)
#    0.000    0.000    4.000    4.200    5.600    0.800 
#    0.000    0.000    0.000    0.000    0.000    0.000 
#    0.000    0.000    0.000    0.000    0.000    0.000 
#
# Total GULP energy -112228.858426 kJ/mol
# GULP energy per Si atom -5611.442921 kJ/mol
# Density = 2.712099 g / cm^3
# Si number density = 27.182863 Si / 1000 Ang^3
#
#
#
# Elastic Constant Matrix: (Units=GPa)
#
#
# Indices 1 2 3 4 5 6 
#
# 1 123.9325 11.6269 37.3871 0.0031 -7.6309 0.0107
# 2 11.6269 126.8934 35.3562 0.0126 -4.9220 0.0315
# 3 37.3871 35.3562 156.0149 -0.0002 -10.9880 0.0058
# 4 0.0031 0.0126 -0.0002 38.3734 -0.0005 2.1635
# 5 -7.6309 -4.9220 -10.9880 -0.0005 58.2495 0.0000
# 6 0.0107 0.0315 0.0058 2.1635 0.0000 39.7880
#
#
#
# Elastic Compliance Matrix: (Units=1/GPa)
#
#
# Indices 1 2 3 4 5 6 
#
# 1 0.008736 -0.000216 -0.001992 -0.000001 0.000751 -0.000002
# 2 -0.000216 0.008424 -0.001833 -0.000002 0.000338 -0.000006
# 3 -0.001992 -0.001833 0.007371 0.000001 0.000975 0.000001
# 4 -0.000001 -0.000002 0.000001 0.026140 0.000000 -0.001421
# 5 0.000751 0.000338 0.000975 0.000000 0.017478 -0.000001
# 6 -0.000002 -0.000006 0.000001 -0.001421 -0.000001 0.025211
#
#
# Mechanical properties :
#
#
# Convention : Reuss Voigt Hill
#
# Bulk Modulus (GPa) = 60.79548 63.95347 62.37447
# Shear Modulus (GPa) = 46.76115 48.78020 47.77067
#
# Velocity S-wave (km/s) = 4.15208 4.24077 4.19666
# Velocity P-wave (km/s) = 6.73797 6.89616 6.81753
#
# Compressibility (1/GPa) = 0.01644859
#
# Stress axis : x y z
#
# Youngs Moduli (GPa) = 114.46566 118.70247 135.66563
#
# Poissons Ratio (x) = 0.02569 0.27020
# Poissons Ratio (y) = 0.02478 0.24874
# Poissons Ratio (z) = 0.22797 0.21764
#
# Static dielectric constant tensor:
#      x y z
#    x 2.198250 0.000000 -0.010040 
#    y 0.000000 2.070870 0.000000 
#    z -0.010040 0.000000 2.215630 
# 
# From -- ./inp_files/271817.got.cif
#   From: 2010.05.17/outbox.cif.g08.bks.cpg/sg15_136_cif.got.tgz:271817.got - 2010.06.03 18:47:42.
