data_PCOD9308269
_publ_section_title
;
Structure prediction by ZEFSAII (Michael W. Deem and Ramdas Pophale) SiO2 
 PCOD9308269
Probable space group: C 2/C
;
_chemical_formula_sum "Si O2"
_cell_formula_units_Z 36
_cell_length_a 7.760948
_cell_length_b 21.907345
_cell_length_c 9.302980
_cell_angle_alpha 90.000000
_cell_angle_beta 58.977507
_cell_angle_gamma 90.000000
_cell_volume 1355.469391
_symmetry_space_group_name_H-M "C 2/C"
_symmetry_group_IT_number 15
_symmetry_cell_setting 'monoclinic'
loop_
_space_group_symop_operation_xyz
x,y,z
-x,y,1/2-z
-x,-y,-z
x,-y,1/2+z
1/2+x,1/2+y,z
1/2-x,1/2+y,1/2-z
1/2-x,1/2-y,-z
1/2+x,1/2-y,1/2+z
loop_
_atom_site_type_symbol
_atom_site_label
_atom_site_fract_x
_atom_site_fract_y
_atom_site_fract_z
Si Si1 0.206624 0.534184 0.366397
Si Si2 0.224502 0.378579 0.104071
Si Si3 0.848503 0.928280 0.488844
Si Si4 0.250000 0.750000 0.500000
Si Si5 0.600759 0.806898 0.551152
O O1 0.235024 0.598464 0.434932
O O2 0.342910 0.487312 0.394053
O O3 0.247526 0.549762 0.183459
O O4 0.000000 0.500000 0.500000
O O5 0.420283 0.409085 0.089734
O O6 0.263748 0.306969 0.104552
O O7 0.000000 0.396335 0.250000
O O8 0.723073 0.870680 0.478276
O O9 0.438082 0.786591 0.501979
O O10 0.500000 0.814674 0.750000
O O11 0.750000 0.750000 0.500000
#
# Coordination Sequence:
#
# PCOD9308269 Si02
#       5
#     8   8   8   4   8
#     4  12  26  51  85 122 176 231 297 366 453 535
#     4  12  28  48  81 123 172 237 306 368 448 535
#     4  12  27  55  84 126 178 233 296 374 450 534
#     4  12  28  52  82 122 180 232 292 362 444 532
#     4  12  28  52  85 127 176 226 290 361 443 528
#
# _framework density 26.559062999999998
#
# number of rings (size 3 to 8) (size 9 to 14) (size 15 to 20)
#    0.000    0.000    2.222    7.333    3.111    3.556 
#    0.000    4.444    0.000    0.000    0.000    0.000 
#    0.000    0.000    0.000    0.000    0.000    0.000 
#
# Total GULP energy -100364.472978 kJ/mol
# GULP energy per Si atom -5575.804054 kJ/mol
# Density = 2.649861 g / cm^3
# Si number density = 26.559063 Si / 1000 Ang^3
#
#
#
# Elastic Constant Matrix: (Units=GPa)
#
#
# Indices 1 2 3 4 5 6 
#
# 1 217.4791 79.4558 52.5894 0.0000 -1.1822 0.0000
# 2 79.4558 183.8129 50.0866 0.0000 -2.2844 0.0000
# 3 52.5894 50.0866 149.5874 0.0000 -10.7097 0.0000
# 4 0.0000 0.0000 0.0000 34.9423 0.0000 9.9949
# 5 -1.1822 -2.2844 -10.7097 0.0000 36.9176 0.0000
# 6 0.0000 0.0000 0.0000 9.9949 0.0000 67.5675
#
#
#
# Elastic Compliance Matrix: (Units=1/GPa)
#
#
# Indices 1 2 3 4 5 6 
#
# 1 0.005683 -0.002101 -0.001318 0.000000 -0.000330 0.000000
# 2 -0.002101 0.006765 -0.001533 0.000000 -0.000093 0.000000
# 3 -0.001318 -0.001533 0.007814 0.000000 0.002130 0.000000
# 4 0.000000 0.000000 0.000000 0.029883 0.000000 -0.004420
# 5 -0.000330 -0.000093 0.002130 0.000000 0.027689 0.000000
# 6 0.000000 0.000000 0.000000 -0.004420 0.000000 0.015454
#
#
# Mechanical properties :
#
#
# Convention : Reuss Voigt Hill
#
# Bulk Modulus (GPa) = 96.54986 101.68257 99.11622
# Shear Modulus (GPa) = 46.88431 52.46864 49.67647
#
# Velocity S-wave (km/s) = 4.20609 4.44953 4.32952
# Velocity P-wave (km/s) = 7.74726 8.04775 7.89894
#
# Compressibility (1/GPa) = 0.01035734
#
# Stress axis : x y z
#
# Youngs Moduli (GPa) = 175.96963 147.81304 127.97223
#
# Poissons Ratio (x) = 0.31063 0.16865
# Poissons Ratio (y) = 0.36980 0.19620
# Poissons Ratio (z) = 0.23191 0.22662
#
# Static dielectric constant tensor:
#      x y z
#    x 2.354260 0.000000 -0.019380 
#    y 0.000000 1.986310 0.000000 
#    z -0.019380 0.000000 2.108220 
# 
# From -- ./inp_files/23313.got.cif
#   From: 2010.05.17/outbox.cif.g08.bks.cpg/sg15_12_cif.got.tgz:23313.got - 2010.06.03 18:47:42.
