data_PCOD9308593
_publ_section_title
;
Structure prediction by ZEFSAII (Michael W. Deem and Ramdas Pophale) SiO2 
 PCOD9308593
Probable space group: C 2/C
;
_chemical_formula_sum "Si O2"
_cell_formula_units_Z 48
_cell_length_a 11.611440
_cell_length_b 25.226011
_cell_length_c 7.518633
_cell_angle_alpha 90.000000
_cell_angle_beta 87.474891
_cell_angle_gamma 90.000000
_cell_volume 2200.146750
_symmetry_space_group_name_H-M "C 2/C"
_symmetry_group_IT_number 15
_symmetry_cell_setting 'monoclinic'
loop_
_space_group_symop_operation_xyz
x,y,z
-x,y,1/2-z
-x,-y,-z
x,-y,1/2+z
1/2+x,1/2+y,z
1/2-x,1/2+y,1/2-z
1/2-x,1/2-y,-z
1/2+x,1/2-y,1/2+z
loop_
_atom_site_type_symbol
_atom_site_label
_atom_site_fract_x
_atom_site_fract_y
_atom_site_fract_z
Si Si1 0.376065 0.895121 0.306516
Si Si2 0.095519 0.722462 0.598581
Si Si3 0.744109 0.341085 0.991383
Si Si4 0.587964 0.569700 0.470417
Si Si5 0.647494 0.549487 0.879121
Si Si6 0.160631 0.248491 0.735271
O O1 0.500000 0.919736 0.250000
O O2 0.396272 0.841418 0.418124
O O3 0.322635 0.872903 0.125683
O O4 0.278264 0.931842 0.400338
O O5 0.075204 0.747503 0.407059
O O6 0.214292 0.742237 0.676697
O O7 0.000000 0.734923 0.750000
O O8 0.662816 0.381860 0.892973
O O9 0.659740 0.302265 0.108803
O O10 0.826139 0.302610 0.874225
O O11 0.617344 0.566783 0.679937
O O12 0.449094 0.573376 0.480822
O O13 0.628308 0.513546 0.390195
#
# Coordination Sequence:
#
# PCOD9308593 Si02
#       6
#     8   8   8   8   8   8
#     4   9  18  35  55  74 112 150 190 227 285 336
#     4   9  18  35  53  78 114 151 181 233 287 332
#     4   9  18  35  54  82 110 147 189 237 287 339
#     4   9  18  34  55  81 111 139 185 233 293 336
#     4   9  18  34  54  78 109 147 179 237 285 338
#     4   9  18  35  54  78 113 144 193 234 279 347
#
# _framework density 21.816725999999999
#
# number of rings (size 3 to 8) (size 9 to 14) (size 15 to 20)
#    0.000    3.000    0.000    0.000    0.000    1.333 
#   18.000   15.833    0.000    2.000    0.000    0.000 
#    0.000    0.000    0.000    0.000    0.000    0.000 
#
# Total GULP energy -133975.332108 kJ/mol
# GULP energy per Si atom -5582.305505 kJ/mol
# Density = 2.176707 g / cm^3
# Si number density = 21.816726 Si / 1000 Ang^3
#
#
#
# Elastic Constant Matrix: (Units=GPa)
#
#
# Indices 1 2 3 4 5 6 
#
# 1 123.8667 48.7279 20.2958 0.0000 -31.7840 0.0000
# 2 48.7279 55.2451 18.7490 0.0000 -11.7069 0.0000
# 3 20.2958 18.7490 57.8070 0.0000 -18.0560 0.0000
# 4 0.0000 0.0000 0.0000 7.1387 0.0000 16.8895
# 5 -31.7840 -11.7069 -18.0560 0.0000 30.3771 0.0000
# 6 0.0000 0.0000 0.0000 16.8895 0.0000 15.7888
#
#
#
# Elastic Compliance Matrix: (Units=1/GPa)
#
#
# Indices 1 2 3 4 5 6 
#
# 1 0.015810 -0.011954 0.002523 0.000000 0.013434 0.000000
# 2 -0.011954 0.029968 -0.007149 0.000000 -0.005208 0.000000
# 3 0.002523 -0.007149 0.022958 0.000000 0.013531 0.000000
# 4 0.000000 0.000000 0.000000 -0.091506 0.000000 0.097885
# 5 0.013434 -0.005208 0.013531 0.000000 0.053012 0.000000
# 6 0.000000 0.000000 0.000000 0.097885 0.000000 -0.041373
#
#
# Mechanical properties :
#
#
# Convention : Reuss Voigt Hill
#
# Bulk Modulus (GPa) = 28.11018 45.82935 36.96976
# Shear Modulus (GPa) = 147.54985 20.60399 84.07692
#
# Velocity S-wave (km/s) = 8.23276 3.07646 6.21462
# Velocity P-wave (km/s) = 10.16286 5.80273 8.27513
#
# Compressibility (1/GPa) = 0.03557431
#
# Stress axis : x y z
#
# Youngs Moduli (GPa) = 63.25257 33.36948 43.55722
#
# Poissons Ratio (x) = 0.39889 -0.10988
# Poissons Ratio (y) = 0.75611 0.31141
# Poissons Ratio (z) = -0.15956 0.23857
#
# Static dielectric constant tensor:
#      x y z
#    x 1.879830 0.000000 0.014720 
#    y 0.000000 1.771160 0.000000 
#    z 0.014720 0.000000 1.841450 
# 
# From -- ./inp_files/31934.got.cif
#   From: 2010.05.17/outbox.cif.g08.bks.cpg/sg15_16_cif.got.tgz:31934.got - 2010.06.03 18:47:42.
