data_PCOD9308149
_publ_section_title
;
Structure prediction by ZEFSAII (Michael W. Deem and Ramdas Pophale) SiO2 
 PCOD9308149
Probable space group: C 2/C
;
_chemical_formula_sum "Si O2"
_cell_formula_units_Z 40
_cell_length_a 9.342304
_cell_length_b 20.196117
_cell_length_c 9.765761
_cell_angle_alpha 90.000000
_cell_angle_beta 59.340782
_cell_angle_gamma 90.000000
_cell_volume 1585.021663
_symmetry_space_group_name_H-M "C 2/C"
_symmetry_group_IT_number 15
_symmetry_cell_setting 'monoclinic'
loop_
_space_group_symop_operation_xyz
x,y,z
-x,y,1/2-z
-x,-y,-z
x,-y,1/2+z
1/2+x,1/2+y,z
1/2-x,1/2+y,1/2-z
1/2-x,1/2-y,-z
1/2+x,1/2-y,1/2+z
loop_
_atom_site_type_symbol
_atom_site_label
_atom_site_fract_x
_atom_site_fract_y
_atom_site_fract_z
Si Si1 0.385751 0.699301 0.000782
Si Si2 0.670155 0.029761 0.358571
Si Si3 0.645872 0.542362 0.501268
Si Si4 0.450448 0.860637 0.409498
Si Si5 0.771567 0.276562 0.281910
O O1 0.382046 0.621058 0.972073
O O2 0.347534 0.710593 0.180764
O O3 0.250000 0.750000 0.000000
O O4 0.574050 0.721468 0.873498
O O5 0.705605 0.033057 0.181688
O O6 0.653594 0.103330 0.427500
O O7 0.500000 0.000000 0.500000
O O8 0.808476 0.989367 0.375556
O O9 0.500000 0.500000 0.500000
O O10 0.500000 0.903441 0.250000
O O11 0.341912 0.802181 0.393171
O O12 0.630394 0.832003 0.360212
#
# Coordination Sequence:
#
# PCOD9308149 Si02
#       5
#     8   8   8   8   8
#     4  12  27  45  75 111 160 200 260 324 410 479
#     4  12  26  47  79 109 153 209 269 325 392 477
#     4  12  30  50  77 115 161 212 268 327 400 482
#     4   8  21  43  75 101 148 188 260 318 390 451
#     4   9  24  44  71 106 148 196 253 314 395 465
#
# _framework density 25.236250999999999
#
# number of rings (size 3 to 8) (size 9 to 14) (size 15 to 20)
#    1.200    0.000    0.000    4.200    8.400    6.400 
#    7.200    0.000    0.000    0.000    0.000    0.000 
#    0.000    0.000    0.000    0.000    0.000    0.000 
#
# Total GULP energy -111590.896176 kJ/mol
# GULP energy per Si atom -5579.544809 kJ/mol
# Density = 2.517881 g / cm^3
# Si number density = 25.236251 Si / 1000 Ang^3
#
#
#
# Elastic Constant Matrix: (Units=GPa)
#
#
# Indices 1 2 3 4 5 6 
#
# 1 114.9786 46.5654 23.6382 0.0000 -30.2696 0.0000
# 2 46.5654 122.4242 52.4587 0.0000 -20.5647 0.0000
# 3 23.6382 52.4587 119.2585 0.0000 -18.0423 0.0000
# 4 0.0000 0.0000 0.0000 28.8187 0.0000 -3.8309
# 5 -30.2696 -20.5647 -18.0423 0.0000 52.2936 0.0000
# 6 0.0000 0.0000 0.0000 -3.8309 0.0000 40.8743
#
#
#
# Elastic Compliance Matrix: (Units=1/GPa)
#
#
# Indices 1 2 3 4 5 6 
#
# 1 0.011501 -0.003513 0.000067 0.000000 0.005299 0.000000
# 2 -0.003513 0.011476 -0.004195 0.000000 0.001032 0.000000
# 3 0.000067 -0.004195 0.010523 0.000000 0.002020 0.000000
# 4 0.000000 0.000000 0.000000 0.035137 0.000000 0.003293
# 5 0.005299 0.001032 0.002020 0.000000 0.023293 0.000000
# 6 0.000000 0.000000 0.000000 0.003293 0.000000 0.024774
#
#
# Mechanical properties :
#
#
# Convention : Reuss Voigt Hill
#
# Bulk Modulus (GPa) = 54.89344 66.88732 60.89038
# Shear Modulus (GPa) = 36.21640 39.99726 38.10683
#
# Velocity S-wave (km/s) = 3.79237 3.98542 3.89009
# Velocity P-wave (km/s) = 6.40119 6.90942 6.66015
#
# Compressibility (1/GPa) = 0.01821711
#
# Stress axis : x y z
#
# Youngs Moduli (GPa) = 86.94619 87.14051 95.03196
#
# Poissons Ratio (x) = 0.30616 -0.00641
# Poissons Ratio (y) = 0.30548 0.39870
# Poissons Ratio (z) = -0.00587 0.36559
#
# Static dielectric constant tensor:
#      x y z
#    x 2.091360 0.000000 0.065950 
#    y 0.000000 2.235680 0.000000 
#    z 0.065950 0.000000 2.038920 
# 
# From -- ./inp_files/89308.got.cif
#   From: 2010.05.17/outbox.cif.g08.bks.cpg/sg15_45_cif.got.tgz:89308.got - 2010.06.03 18:47:42.
