data_PCOD9308403
_publ_section_title
;
Structure prediction by ZEFSAII (Michael W. Deem and Ramdas Pophale) SiO2 
 PCOD9308403
Probable space group: C 2/C
;
_chemical_formula_sum "Si O2"
_cell_formula_units_Z 20
_cell_length_a 9.251504
_cell_length_b 13.170436
_cell_length_c 9.634762
_cell_angle_alpha 90.000000
_cell_angle_beta 143.303454
_cell_angle_gamma 90.000000
_cell_volume 701.531573
_symmetry_space_group_name_H-M "C 2/C"
_symmetry_group_IT_number 15
_symmetry_cell_setting 'monoclinic'
loop_
_space_group_symop_operation_xyz
x,y,z
-x,y,1/2-z
-x,-y,-z
x,-y,1/2+z
1/2+x,1/2+y,z
1/2-x,1/2+y,1/2-z
1/2-x,1/2-y,-z
1/2+x,1/2-y,1/2+z
loop_
_atom_site_type_symbol
_atom_site_label
_atom_site_fract_x
_atom_site_fract_y
_atom_site_fract_z
Si Si1 0.173724 0.022760 0.007001
Si Si2 0.500000 0.835459 0.250000
Si Si3 0.781256 0.719076 0.218873
O O1 0.000000 0.059709 0.750000
O O2 0.333543 0.102499 0.218686
O O3 0.302429 0.920233 0.050050
O O4 0.000000 0.000000 0.000000
O O5 0.647201 0.765660 0.254325
O O6 0.055203 0.759031 0.441821
#
# Coordination Sequence:
#
# PCOD9308403 Si02
#       3
#     8   4   8
#     4  12  29  52  84 126 169 224 286 349 426 510
#     4  12  28  54  86 118 176 224 278 354 428 502
#     4  12  28  51  85 123 167 223 281 346 424 504
#
# _framework density 28.509050999999999
#
# number of rings (size 3 to 8) (size 9 to 14) (size 15 to 20)
#    0.000    0.000    4.000    3.600    8.400    4.800 
#    0.000    0.000    0.000    0.000    0.000    0.000 
#    0.000    0.000    0.000    0.000    0.000    0.000 
#
# Total GULP energy -55680.330220 kJ/mol
# GULP energy per Si atom -5568.033022 kJ/mol
# Density = 2.844416 g / cm^3
# Si number density = 28.509051 Si / 1000 Ang^3
#
#
#
# Elastic Constant Matrix: (Units=GPa)
#
#
# Indices 1 2 3 4 5 6 
#
# 1 193.0223 76.6679 67.6726 0.0000 28.0791 0.0000
# 2 76.6679 169.1012 29.2249 0.0000 -8.0364 0.0000
# 3 67.6726 29.2249 155.8740 0.0000 0.1938 0.0000
# 4 0.0000 0.0000 0.0000 37.8688 0.0000 -2.6364
# 5 28.0791 -8.0364 0.1938 0.0000 66.8497 0.0000
# 6 0.0000 0.0000 0.0000 -2.6364 0.0000 24.6593
#
#
#
# Elastic Compliance Matrix: (Units=1/GPa)
#
#
# Indices 1 2 3 4 5 6 
#
# 1 0.008063 -0.003339 -0.002870 0.000000 -0.003780 0.000000
# 2 -0.003339 0.007531 0.000035 0.000000 0.002308 0.000000
# 3 -0.002870 0.000035 0.007653 0.000000 0.001187 0.000000
# 4 0.000000 0.000000 0.000000 0.026605 0.000000 0.002844
# 5 -0.003780 0.002308 0.001187 0.000000 0.016821 0.000000
# 6 0.000000 0.000000 0.000000 0.002844 0.000000 0.040857
#
#
# Mechanical properties :
#
#
# Convention : Reuss Voigt Hill
#
# Bulk Modulus (GPa) = 91.75010 96.12535 93.93773
# Shear Modulus (GPa) = 40.48193 48.83769 44.65981
#
# Velocity S-wave (km/s) = 3.77233 4.14340 3.96221
# Velocity P-wave (km/s) = 7.15728 7.52868 7.34533
#
# Compressibility (1/GPa) = 0.01089917
#
# Stress axis : x y z
#
# Youngs Moduli (GPa) = 124.02104 132.77931 130.66166
#
# Poissons Ratio (x) = 0.44340 0.37497
# Poissons Ratio (y) = 0.41415 -0.00456
# Poissons Ratio (z) = 0.35592 -0.00463
#
# Static dielectric constant tensor:
#      x y z
#    x 2.411500 0.000000 0.236490 
#    y 0.000000 2.910490 0.000000 
#    z 0.236490 0.000000 2.495410 
# 
# From -- ./inp_files/3057.got.cif
#   From: 2010.05.17/outbox.cif.g08.bks.cpg/sg15_2_cif.got.tgz:3057.got - 2010.06.03 18:47:42.
