data_PCOD9308069
_publ_section_title
;
Structure prediction by ZEFSAII (Michael W. Deem and Ramdas Pophale) SiO2 
 PCOD9308069
Probable space group: C 2/C
;
_chemical_formula_sum "Si O2"
_cell_formula_units_Z 40
_cell_length_a 13.027569
_cell_length_b 7.717181
_cell_length_c 21.983678
_cell_angle_alpha 90.000000
_cell_angle_beta 41.600196
_cell_angle_gamma 90.000000
_cell_volume 1467.384447
_symmetry_space_group_name_H-M "C 2/C"
_symmetry_group_IT_number 15
_symmetry_cell_setting 'monoclinic'
loop_
_space_group_symop_operation_xyz
x,y,z
-x,y,1/2-z
-x,-y,-z
x,-y,1/2+z
1/2+x,1/2+y,z
1/2-x,1/2+y,1/2-z
1/2-x,1/2-y,-z
1/2+x,1/2-y,1/2+z
loop_
_atom_site_type_symbol
_atom_site_label
_atom_site_fract_x
_atom_site_fract_y
_atom_site_fract_z
Si Si1 0.674002 0.439933 0.915813
Si Si2 0.138345 0.901929 0.308741
Si Si3 0.618779 0.319841 0.603139
Si Si4 0.673443 0.034020 0.895648
Si Si5 0.480335 0.946692 0.830303
O O1 0.719703 0.560185 0.837621
O O2 0.792375 0.441812 0.919418
O O3 0.500000 0.500000 0.000000
O O4 0.505404 0.533440 0.128773
O O5 0.063107 0.711823 0.329396
O O6 0.177702 0.260722 0.400743
O O7 0.253221 0.967204 0.204915
O O8 0.750000 0.250000 0.500000
O O9 0.711335 0.411102 0.617311
O O10 0.508654 0.153822 0.664355
O O11 0.500000 0.000000 0.000000
O O12 0.500000 0.903330 0.750000
#
# Coordination Sequence:
#
# PCOD9308069 Si02
#       5
#     8   8   8   8   8
#     4  12  28  48  81 124 163 222 281 353 437 514
#     4  12  27  54  81 119 170 228 282 353 442 512
#     4  12  27  48  84 119 163 228 277 356 443 514
#     4  12  26  50  79 122 176 217 296 364 423 531
#     4  12  25  52  80 114 168 220 281 352 434 518
#
# _framework density 27.259387
#
# number of rings (size 3 to 8) (size 9 to 14) (size 15 to 20)
#    0.000    0.000    4.000    5.400    2.800    8.000 
#    3.600    0.000    0.000    0.000    0.000    0.000 
#    0.000    0.000    0.000    0.000    0.000    0.000 
#
# Total GULP energy -111723.824264 kJ/mol
# GULP energy per Si atom -5586.191213 kJ/mol
# Density = 2.719734 g / cm^3
# Si number density = 27.259387 Si / 1000 Ang^3
#
#
#
# Elastic Constant Matrix: (Units=GPa)
#
#
# Indices 1 2 3 4 5 6 
#
# 1 136.8578 112.8781 34.1861 0.0000 -25.4725 0.0000
# 2 112.8781 266.7314 77.3372 0.0000 -15.4281 0.0000
# 3 34.1861 77.3372 172.6504 0.0000 -14.2541 0.0000
# 4 0.0000 0.0000 0.0000 48.9453 0.0000 -3.4855
# 5 -25.4725 -15.4281 -14.2541 0.0000 38.5620 0.0000
# 6 0.0000 0.0000 0.0000 -3.4855 0.0000 59.8269
#
#
#
# Elastic Compliance Matrix: (Units=1/GPa)
#
#
# Indices 1 2 3 4 5 6 
#
# 1 0.012582 -0.005039 0.000295 0.000000 0.006404 0.000000
# 2 -0.005039 0.006368 -0.001980 0.000000 -0.001513 0.000000
# 3 0.000295 -0.001980 0.006778 0.000000 0.001908 0.000000
# 4 0.000000 0.000000 0.000000 0.020516 0.000000 0.001195
# 5 0.006404 -0.001513 0.001908 0.000000 0.030262 0.000000
# 6 0.000000 0.000000 0.000000 0.001195 0.000000 0.016785
#
#
# Mechanical properties :
#
#
# Convention : Reuss Voigt Hill
#
# Bulk Modulus (GPa) = 81.43860 113.89361 97.66610
# Shear Modulus (GPa) = 45.11321 52.92273 49.01797
#
# Velocity S-wave (km/s) = 4.07253 4.41097 4.24513
# Velocity P-wave (km/s) = 7.21487 8.23495 7.74173
#
# Compressibility (1/GPa) = 0.01227919
#
# Stress axis : x y z
#
# Youngs Moduli (GPa) = 79.48148 157.02951 147.53680
#
# Poissons Ratio (x) = 0.79135 -0.04350
# Poissons Ratio (y) = 0.40055 0.29207
# Poissons Ratio (z) = -0.02343 0.31086
#
# Static dielectric constant tensor:
#      x y z
#    x 2.152540 0.000000 0.223860 
#    y 0.000000 1.806050 0.000000 
#    z 0.223860 0.000000 2.245400 
# 
# From -- ./inp_files/294674.got.cif
#   From: 2010.05.17/outbox.cif.g08.bks.cpg/sg15_148_cif.got.tgz:294674.got - 2010.06.03 18:47:42.
