data_PCOD9308871
_publ_section_title
;
Structure prediction by ZEFSAII (Michael W. Deem and Ramdas Pophale) SiO2 
 PCOD9308871
Probable space group: C 2/C
;
_chemical_formula_sum "Si O2"
_cell_formula_units_Z 30
_cell_length_a 18.000000
_cell_length_b 18.000000
_cell_length_c 21.000000
_cell_angle_alpha 90.000000
_cell_angle_beta 30.000000
_cell_angle_gamma 90.000000
_cell_volume 3402.000000
_symmetry_space_group_name_H-M "C 2/C"
_symmetry_group_IT_number 15
_symmetry_cell_setting 'monoclinic'
loop_
_space_group_symop_operation_xyz
x,y,z
-x,y,1/2-z
-x,-y,-z
x,-y,1/2+z
1/2+x,1/2+y,z
1/2-x,1/2+y,1/2-z
1/2-x,1/2-y,-z
1/2+x,1/2-y,1/2+z
loop_
_atom_site_type_symbol
_atom_site_label
_atom_site_fract_x
_atom_site_fract_y
_atom_site_fract_z
Si Si1 0.610849 0.801621 0.940313
Si Si2 0.805936 0.502089 0.979729
Si Si3 0.613680 0.603048 0.213857
Si Si4 0.641568 0.814702 0.270543
Si Si5 0.205745 0.962922 0.316969
Si Si6 0.500000 0.118979 0.750000
Si Si7 0.032984 0.441708 0.917184
Si Si8 0.068253 0.997164 0.555515
O O1 0.748800 0.847997 0.866872
O O2 0.703795 0.731424 0.844465
O O3 0.537277 0.858334 0.943222
O O4 0.489800 0.783568 0.085776
O O5 0.896228 0.564657 0.871274
O O6 0.921328 0.456768 0.939782
O O7 0.691998 0.538201 0.114827
O O8 0.693505 0.468059 0.009493
O O9 0.500000 0.642934 0.250000
O O10 0.514849 0.568377 0.343677
O O11 0.681045 0.895047 0.269964
O O12 0.585541 0.831119 0.239581
O O13 0.067976 0.954059 0.370935
O O14 0.301462 0.035857 0.229020
O O15 0.146780 0.967951 0.433027
O O16 0.000000 0.500000 0.000000
#
# Coordination Sequence:
#
# PCOD9308871 Si02
#       8
#     8   8   8   8   8   4   8   8
#     4  12  26  41  58  89 123 177 209 249 313 379
#     4  11  19  35  62  90 118 155 206 262 300 358
#     4  10  20  34  54  85 121 153 197 244 295 363
#     4  12  27  39  59  86 132 169 206 256 315 392
#     4  11  20  37  60  87 124 160 197 266 306 371
#     4  12  20  40  58  90 126 166 204 250 322 380
#     4  12  19  39  65  84 115 161 218 255 305 357
#     4  10  21  32  58  94 121 149 202 257 311 361
#
# _framework density 8.8183419999999995
#
# number of rings (size 3 to 8) (size 9 to 14) (size 15 to 20)
#    0.000    0.800    8.000    0.000    2.800    0.533 
#    0.000    0.000    0.000    0.800    0.000    0.000 
#    0.000    0.000    0.000    0.000    0.000    0.000 
#
# Total GULP energy -167213.308660 kJ/mol
# GULP energy per Si atom -5573.776955 kJ/mol
# Density = 0.879827 g / cm^3
# Si number density = 8.818342 Si / 1000 Ang^3
#
#
#
# Elastic Constant Matrix: (Units=GPa)
#
#
# Indices 1 2 3 4 5 6 
#
# 1 130.9215 15.3389 11.9597 -0.0001 -15.4529 0.0000
# 2 15.3389 34.3464 5.2386 0.0060 4.5076 -0.0021
# 3 11.9597 5.2386 109.8986 0.0060 15.8265 -0.0019
# 4 -0.0001 0.0060 0.0060 32.9984 -0.0010 -8.1777
# 5 -15.4529 4.5076 15.8265 -0.0010 39.9475 0.0003
# 6 0.0000 -0.0021 -0.0019 -8.1777 0.0003 22.4632
#
#
#
# Elastic Compliance Matrix: (Units=1/GPa)
#
#
# Indices 1 2 3 4 5 6 
#
# 1 0.008792 -0.004297 -0.001391 0.000001 0.004437 0.000000
# 2 -0.004297 0.031753 -0.000308 -0.000006 -0.005123 0.000001
# 3 -0.001391 -0.000308 0.009903 -0.000002 -0.004427 0.000000
# 4 0.000001 -0.000006 -0.000002 0.033310 0.000003 0.012126
# 5 0.004437 -0.005123 -0.004427 0.000003 0.029081 0.000000
# 6 0.000000 0.000001 0.000000 0.012126 0.000000 0.048932
#
#
# Mechanical properties :
#
#
# Convention : Reuss Voigt Hill
#
# Bulk Modulus (GPa) = 26.00336 37.80455 31.90396
# Shear Modulus (GPa) = 26.79786 35.25711 31.02749
#
# Velocity S-wave (km/s) = 3.90223 4.47596 4.19890
# Velocity P-wave (km/s) = 5.92276 6.94219 6.45264
#
# Compressibility (1/GPa) = 0.03845657
#
# Stress axis : x y z
#
# Youngs Moduli (GPa) = 113.73494 31.49267 100.98107
#
# Poissons Ratio (x) = 0.13532 0.14046
# Poissons Ratio (y) = 0.48870 0.03113
# Poissons Ratio (z) = 0.15821 0.00971
#
# Static dielectric constant tensor:
#      x y z
#    x 1.639690 0.000000 -0.013000 
#    y 0.000000 1.630870 0.000000 
#    z -0.013000 0.000000 1.630120 
# 
# From -- ./inp_files/249623.got.cif
#   From: 2010.05.17/outbox.ucp.g08.bks.cvg/sg15_125_cif.got.tgz:249623.got - 2010.06.11 12:40:34.
