data_PCOD9308934
_publ_section_title
;
Structure prediction by ZEFSAII (Michael W. Deem and Ramdas Pophale) SiO2 
 PCOD9308934
Probable space group: C 2/C
;
_chemical_formula_sum "Si O2"
_cell_formula_units_Z 24
_cell_length_a 12.000000
_cell_length_b 24.000000
_cell_length_c 9.000000
_cell_angle_alpha 90.000000
_cell_angle_beta 110.000000
_cell_angle_gamma 90.000000
_cell_volume 2435.683273
_symmetry_space_group_name_H-M "C 2/C"
_symmetry_group_IT_number 15
_symmetry_cell_setting 'monoclinic'
loop_
_space_group_symop_operation_xyz
x,y,z
-x,y,1/2-z
-x,-y,-z
x,-y,1/2+z
1/2+x,1/2+y,z
1/2-x,1/2+y,1/2-z
1/2-x,1/2-y,-z
1/2+x,1/2-y,1/2+z
loop_
_atom_site_type_symbol
_atom_site_label
_atom_site_fract_x
_atom_site_fract_y
_atom_site_fract_z
Si Si1 0.983020 0.115295 0.418646
Si Si2 0.696848 0.543798 0.580278
Si Si3 0.931647 0.659603 0.475547
Si Si4 0.411877 0.284555 0.347181
Si Si5 0.177855 0.649841 0.743459
Si Si6 0.258490 0.071828 0.263251
O O1 0.841823 0.109478 0.363792
O O2 0.000000 0.113730 0.250000
O O3 0.057744 0.063453 0.523478
O O4 0.038514 0.172032 0.506946
O O5 0.762141 0.589593 0.712136
O O6 0.726360 0.553086 0.418766
O O7 0.746008 0.484782 0.660820
O O8 0.913883 0.720580 0.398288
O O9 0.868357 0.660878 0.609089
O O10 0.873288 0.611013 0.346549
O O11 0.069287 0.649894 0.579332
O O12 0.500000 0.291355 0.250000
O O13 0.279079 0.305430 0.251695
#
# Coordination Sequence:
#
# PCOD9308934 Si02
#       6
#     8   8   8   8   8   8
#     4   9  20  37  61  88 118 162 207 243 297 366
#     4   9  19  37  58  88 120 155 202 253 293 356
#     4  10  22  39  62  87 121 169 205 240 296 377
#     4  11  24  39  61  93 126 153 200 264 310 348
#     4   9  21  41  63  85 118 164 212 240 296 373
#     4  10  20  36  60  89 116 157 204 246 302 356
#
# _framework density 9.8534980000000001
#
# number of rings (size 3 to 8) (size 9 to 14) (size 15 to 20)
#    0.000    2.333    0.000    2.000    4.667    4.000 
#    3.000    0.833    0.000    0.000    0.000    0.000 
#    0.000    0.000    0.000    0.000    0.000    0.000 
#
# Total GULP energy -133773.036469 kJ/mol
# GULP energy per Si atom -5573.876520 kJ/mol
# Density = 0.983107 g / cm^3
# Si number density = 9.853498 Si / 1000 Ang^3
#
#
#
# Elastic Constant Matrix: (Units=GPa)
#
#
# Indices 1 2 3 4 5 6 
#
# 1 83.8343 29.1778 59.2953 0.0000 45.6901 0.0000
# 2 29.1778 122.6188 69.7833 0.0000 34.8670 0.0000
# 3 59.2953 69.7833 85.8158 0.0000 47.0225 0.0000
# 4 0.0000 0.0000 0.0000 33.7676 0.0000 6.1294
# 5 45.6901 34.8670 47.0225 0.0000 33.5690 0.0000
# 6 0.0000 0.0000 0.0000 6.1294 0.0000 15.3261
#
#
#
# Elastic Compliance Matrix: (Units=1/GPa)
#
#
# Indices 1 2 3 4 5 6 
#
# 1 0.056261 0.011649 0.001043 0.000000 -0.090136 0.000000
# 2 0.011649 0.017936 -0.016082 0.000000 -0.011958 0.000000
# 3 0.001043 -0.016082 0.067260 0.000000 -0.078931 0.000000
# 4 0.000000 0.000000 0.000000 0.031932 0.000000 -0.012771
# 5 -0.090136 -0.011958 -0.078931 0.000000 0.275457 0.000000
# 6 0.000000 0.000000 0.000000 -0.012771 0.000000 0.070356
#
#
# Mechanical properties :
#
#
# Convention : Reuss Voigt Hill
#
# Bulk Modulus (GPa) = 7.42516 67.64242 37.53379
# Shear Modulus (GPa) = 8.75850 25.46672 17.11261
#
# Velocity S-wave (km/s) = 2.11045 3.59871 2.94998
# Velocity P-wave (km/s) = 3.11683 7.18792 5.53989
#
# Compressibility (1/GPa) = 0.13467718
#
# Stress axis : x y z
#
# Youngs Moduli (GPa) = 17.77434 55.75358 14.86762
#
# Poissons Ratio (x) = -0.64950 -0.01550
# Poissons Ratio (y) = -0.20706 0.23910
# Poissons Ratio (z) = -0.01853 0.89663
#
# Static dielectric constant tensor:
#      x y z
#    x 1.760720 0.000000 -0.007660 
#    y 0.000000 1.679560 0.000000 
#    z -0.007660 0.000000 1.659390 
# 
# From -- ./inp_files/32628.got.cif
#   From: 2010.05.17/outbox.ucp.g08.bks.cvg/sg15_17_cif.got.tgz:32628.got - 2010.06.11 12:40:34.
