data_PCOD9308072
_publ_section_title
;
Structure prediction by ZEFSAII (Michael W. Deem and Ramdas Pophale) SiO2 
 PCOD9308072
Probable space group: C 2/C
;
_chemical_formula_sum "Si O2"
_cell_formula_units_Z 32
_cell_length_a 13.238810
_cell_length_b 18.127956
_cell_length_c 8.610987
_cell_angle_alpha 90.000000
_cell_angle_beta 141.647927
_cell_angle_gamma 90.000000
_cell_volume 1282.291959
_symmetry_space_group_name_H-M "C 2/C"
_symmetry_group_IT_number 15
_symmetry_cell_setting 'monoclinic'
loop_
_space_group_symop_operation_xyz
x,y,z
-x,y,1/2-z
-x,-y,-z
x,-y,1/2+z
1/2+x,1/2+y,z
1/2-x,1/2+y,1/2-z
1/2-x,1/2-y,-z
1/2+x,1/2-y,1/2+z
loop_
_atom_site_type_symbol
_atom_site_label
_atom_site_fract_x
_atom_site_fract_y
_atom_site_fract_z
Si Si1 0.690433 0.093759 0.018873
Si Si2 0.928075 0.228235 0.328435
Si Si3 0.194143 0.048513 0.001215
Si Si4 0.247319 0.684350 0.625206
O O1 0.500000 0.094208 0.750000
O O2 0.780977 0.172103 0.121838
O O3 0.733632 0.065124 0.243112
O O4 0.772368 0.035574 0.001843
O O5 0.874631 0.291652 0.384617
O O6 0.000000 0.249605 0.250000
O O7 0.072773 0.184091 0.586472
O O8 0.281432 0.106307 0.990066
O O9 0.000000 0.061658 0.750000
O O10 0.250000 0.750000 0.500000
#
# Coordination Sequence:
#
# PCOD9308072 Si02
#       4
#     8   8   8   8
#     4  12  28  50  81 120 165 210 266 334 400 478
#     4  12  28  51  79 118 158 211 268 330 400 476
#     4  12  25  52  85 117 162 212 269 328 405 479
#     4  12  25  52  81 115 159 211 265 329 406 478
#
# _framework density 24.955314000000001
#
# number of rings (size 3 to 8) (size 9 to 14) (size 15 to 20)
#    0.000    0.000    5.000    3.750    3.500    5.000 
#    4.500    0.000    0.000    0.000    0.000    0.000 
#    0.000    0.000    0.000    0.000    0.000    0.000 
#
# Total GULP energy -89815.921243 kJ/mol
# GULP energy per Si atom -5613.495078 kJ/mol
# Density = 2.489851 g / cm^3
# Si number density = 24.955314 Si / 1000 Ang^3
#
#
#
# Elastic Constant Matrix: (Units=GPa)
#
#
# Indices 1 2 3 4 5 6 
#
# 1 136.5644 43.7048 73.6665 0.0000 -16.6140 0.0000
# 2 43.7048 110.5453 24.0220 0.0000 -3.5463 0.0000
# 3 73.6665 24.0220 198.8325 0.0000 5.2999 0.0000
# 4 0.0000 0.0000 0.0000 30.9517 0.0000 5.7596
# 5 -16.6140 -3.5463 5.2999 0.0000 37.3526 0.0000
# 6 0.0000 0.0000 0.0000 5.7596 0.0000 32.8110
#
#
#
# Elastic Compliance Matrix: (Units=1/GPa)
#
#
# Indices 1 2 3 4 5 6 
#
# 1 0.011110 -0.003391 -0.003844 0.000000 0.005165 0.000000
# 2 -0.003391 0.010366 0.000018 0.000000 -0.000527 0.000000
# 3 -0.003844 0.000018 0.006522 0.000000 -0.002633 0.000000
# 4 0.000000 0.000000 0.000000 0.033399 0.000000 -0.005863
# 5 0.005165 -0.000527 -0.002633 0.000000 0.029393 0.000000
# 6 0.000000 0.000000 0.000000 -0.005863 0.000000 0.031507
#
#
# Mechanical properties :
#
#
# Convention : Reuss Voigt Hill
#
# Bulk Modulus (GPa) = 73.73066 80.96988 77.35027
# Shear Modulus (GPa) = 35.39773 40.52631 37.96202
#
# Velocity S-wave (km/s) = 3.77031 4.03420 3.90449
# Velocity P-wave (km/s) = 6.96871 7.36316 7.16865
#
# Compressibility (1/GPa) = 0.01356288
#
# Stress axis : x y z
#
# Youngs Moduli (GPa) = 90.01022 96.46915 153.33699
#
# Poissons Ratio (x) = 0.32716 0.58944
# Poissons Ratio (y) = 0.30525 -0.00278
# Poissons Ratio (z) = 0.34601 -0.00175
#
# Static dielectric constant tensor:
#      x y z
#    x 1.947950 0.000000 0.002280 
#    y 0.000000 1.950880 0.000000 
#    z 0.002280 0.000000 1.986750 
# 
# From -- ./inp_files/41113.got.cif
#   From: 2010.05.17/outbox.cif.g08.bks.cpg/sg15_21_cif.got.tgz:41113.got - 2010.06.03 18:47:42.
