data_PCOD9308353
_publ_section_title
;
Structure prediction by ZEFSAII (Michael W. Deem and Ramdas Pophale) SiO2 
 PCOD9308353
Probable space group: C 2/C
;
_chemical_formula_sum "Si O2"
_cell_formula_units_Z 52
_cell_length_a 22.476113
_cell_length_b 5.197616
_cell_length_c 25.189722
_cell_angle_alpha 90.000000
_cell_angle_beta 46.803604
_cell_angle_gamma 90.000000
_cell_volume 2145.276432
_symmetry_space_group_name_H-M "C 2/C"
_symmetry_group_IT_number 15
_symmetry_cell_setting 'monoclinic'
loop_
_space_group_symop_operation_xyz
x,y,z
-x,y,1/2-z
-x,-y,-z
x,-y,1/2+z
1/2+x,1/2+y,z
1/2-x,1/2+y,1/2-z
1/2-x,1/2-y,-z
1/2+x,1/2-y,1/2+z
loop_
_atom_site_type_symbol
_atom_site_label
_atom_site_fract_x
_atom_site_fract_y
_atom_site_fract_z
Si Si1 0.504417 0.836105 0.849805
Si Si2 0.500000 0.524721 0.250000
Si Si3 0.804542 0.851821 0.071610
Si Si4 0.176571 0.655442 0.007042
Si Si5 0.634267 0.806581 0.213646
Si Si6 0.801346 0.161506 0.225781
Si Si7 0.929273 0.088863 0.582358
O O1 0.504070 0.632917 0.801744
O O2 0.410128 0.917790 0.913598
O O3 0.535862 0.738075 0.887923
O O4 0.569395 0.042211 0.789022
O O5 0.581507 0.693000 0.198688
O O6 0.714493 0.945716 0.143829
O O7 0.862072 0.774771 0.085961
O O8 0.795559 0.598159 0.041559
O O9 0.842258 0.095799 0.018284
O O10 0.250000 0.750000 0.000000
O O11 0.669856 0.594577 0.232333
O O12 0.762958 0.442944 0.250262
O O13 0.876963 0.142973 0.139829
O O14 0.000000 0.000000 0.500000
#
# Coordination Sequence:
#
# PCOD9308353 Si02
#       7
#     8   4   8   8   8   8   8
#     4  12  29  52  82 116 167 214 277 349 407 498
#     4  12  28  50  80 116 158 212 284 334 410 484
#     4  12  30  50  83 118 159 214 269 340 407 495
#     4  12  30  54  82 117 167 215 272 329 420 485
#     4  12  29  47  82 115 159 209 280 331 414 479
#     4  12  27  50  80 112 158 208 266 333 403 486
#     4  12  27  51  79 120 164 209 270 336 420 482
#
# _framework density 24.239301999999999
#
# number of rings (size 3 to 8) (size 9 to 14) (size 15 to 20)
#    0.000    0.000    4.615    2.769   12.923    0.615 
#    0.000    0.000    0.000    0.000    0.000    0.000 
#    0.000    0.000    0.000    0.000    0.000    0.000 
#
# Total GULP energy -145561.956919 kJ/mol
# GULP energy per Si atom -5598.536805 kJ/mol
# Density = 2.418413 g / cm^3
# Si number density = 24.239302 Si / 1000 Ang^3
#
#
#
# Elastic Constant Matrix: (Units=GPa)
#
#
# Indices 1 2 3 4 5 6 
#
# 1 148.9582 28.2333 40.8138 0.0132 -11.8551 -0.0924
# 2 28.2333 78.6941 33.4273 -0.1589 7.9123 -0.0032
# 3 40.8138 33.4273 138.8446 0.0087 -23.0177 -0.0229
# 4 0.0132 -0.1589 0.0087 34.0508 0.0284 7.2195
# 5 -11.8551 7.9123 -23.0177 0.0284 45.5533 0.0746
# 6 -0.0924 -0.0032 -0.0229 7.2195 0.0746 35.9654
#
#
#
# Elastic Compliance Matrix: (Units=1/GPa)
#
#
# Indices 1 2 3 4 5 6 
#
# 1 0.007676 -0.002321 -0.001418 -0.000019 0.001684 0.000019
# 2 -0.002321 0.015783 -0.004008 0.000083 -0.005370 -0.000013
# 3 -0.001418 -0.004008 0.009428 -0.000024 0.005091 -0.000004
# 4 -0.000019 0.000083 -0.000024 0.030674 -0.000040 -0.006157
# 5 0.001684 -0.005370 0.005091 -0.000040 0.025896 -0.000038
# 6 0.000019 -0.000013 -0.000004 -0.006157 -0.000038 0.029041
#
#
# Mechanical properties :
#
#
# Convention : Reuss Voigt Hill
#
# Bulk Modulus (GPa) = 57.49583 63.49395 60.49489
# Shear Modulus (GPa) = 35.76835 40.71541 38.24188
#
# Velocity S-wave (km/s) = 3.84557 4.10289 3.97631
# Velocity P-wave (km/s) = 6.59465 6.97829 6.78918
#
# Compressibility (1/GPa) = 0.01739257
#
# Stress axis : x y z
#
# Youngs Moduli (GPa) = 130.27891 63.36082 106.06541
#
# Poissons Ratio (x) = 0.14704 0.15045
# Poissons Ratio (y) = 0.30234 0.42510
# Poissons Ratio (z) = 0.18479 0.25394
#
# Static dielectric constant tensor:
#      x y z
#    x 1.977970 -0.000510 0.009300 
#    y -0.000510 1.943880 -0.000060 
#    z 0.009300 -0.000060 1.950450 
# 
# From -- ./inp_files/300066.got.cif
#   From: 2010.05.17/outbox.cif.g08.bks.cpg/sg15_151_cif.got.tgz:300066.got - 2010.06.03 18:47:42.
