data_PCOD9308598
_publ_section_title
;
Structure prediction by ZEFSAII (Michael W. Deem and Ramdas Pophale) SiO2 
 PCOD9308598
Probable space group: C 2/C
;
_chemical_formula_sum "Si O2"
_cell_formula_units_Z 32
_cell_length_a 14.811919
_cell_length_b 8.469205
_cell_length_c 21.780561
_cell_angle_alpha 90.000000
_cell_angle_beta 30.528705
_cell_angle_gamma 90.000000
_cell_volume 1387.909269
_symmetry_space_group_name_H-M "C 2/C"
_symmetry_group_IT_number 15
_symmetry_cell_setting 'monoclinic'
loop_
_space_group_symop_operation_xyz
x,y,z
-x,y,1/2-z
-x,-y,-z
x,-y,1/2+z
1/2+x,1/2+y,z
1/2-x,1/2+y,1/2-z
1/2-x,1/2-y,-z
1/2+x,1/2-y,1/2+z
loop_
_atom_site_type_symbol
_atom_site_label
_atom_site_fract_x
_atom_site_fract_y
_atom_site_fract_z
Si Si1 0.193898 0.155974 0.646217
Si Si2 0.782167 0.498177 0.724768
Si Si3 0.067398 0.195484 0.926705
Si Si4 0.340364 0.854015 0.498237
O O1 0.359231 0.272156 0.539536
O O2 0.216267 0.079609 0.700448
O O3 0.000000 0.226774 0.750000
O O4 0.221963 0.006277 0.584825
O O5 0.638553 0.527892 0.861806
O O6 0.831364 0.320526 0.677661
O O7 0.968420 0.578845 0.633793
O O8 0.125737 0.252973 0.959770
O O9 0.250000 0.750000 0.500000
#
# Coordination Sequence:
#
# PCOD9308598 Si02
#       4
#     8   8   8   8
#     4   9  19  35  56  82 115 153 185 229 293 338
#     4   9  19  35  57  82 117 147 191 235 283 334
#     4   9  19  37  57  87 113 151 187 239 285 333
#     4   9  19  32  56  86 107 148 201 234 271 327
#
# _framework density 23.056262
#
# number of rings (size 3 to 8) (size 9 to 14) (size 15 to 20)
#    0.000    3.000    0.000    3.000    7.000    1.000 
#    0.000    5.000   11.000    0.000    0.000    0.000 
#    0.000    0.000    0.000    0.000    0.000    0.000 
#
# Total GULP energy -89539.365775 kJ/mol
# GULP energy per Si atom -5596.210361 kJ/mol
# Density = 2.300379 g / cm^3
# Si number density = 23.056262 Si / 1000 Ang^3
#
#
#
# Elastic Constant Matrix: (Units=GPa)
#
#
# Indices 1 2 3 4 5 6 
#
# 1 86.9888 46.8319 49.5123 0.0000 -18.3062 0.0000
# 2 46.8319 80.0723 45.5060 0.0000 3.5900 0.0000
# 3 49.5123 45.5060 117.4368 -0.0001 -9.6578 0.0000
# 4 0.0000 0.0000 -0.0001 39.6468 0.0000 12.2750
# 5 -18.3062 3.5900 -9.6578 0.0000 24.7642 0.0000
# 6 0.0000 0.0000 0.0000 12.2750 0.0000 43.3781
#
#
#
# Elastic Compliance Matrix: (Units=1/GPa)
#
#
# Indices 1 2 3 4 5 6 
#
# 1 0.024601 -0.013078 -0.003774 0.000000 0.018609 0.000000
# 2 -0.013078 0.023565 -0.004849 0.000000 -0.014974 0.000000
# 3 -0.003774 -0.004849 0.012205 0.000000 0.002673 0.000000
# 4 0.000000 0.000000 0.000000 0.027645 0.000000 -0.007823
# 5 0.018609 -0.014974 0.002673 0.000000 0.057351 0.000000
# 6 0.000000 0.000000 0.000000 -0.007823 0.000000 0.025267
#
#
# Mechanical properties :
#
#
# Convention : Reuss Voigt Hill
#
# Bulk Modulus (GPa) = 58.93041 63.13315 61.03178
# Shear Modulus (GPa) = 22.75936 31.06767 26.91352
#
# Velocity S-wave (km/s) = 3.14526 3.67478 3.42028
# Velocity P-wave (km/s) = 6.22937 6.74144 6.49046
#
# Compressibility (1/GPa) = 0.01696917
#
# Stress axis : x y z
#
# Youngs Moduli (GPa) = 40.64939 42.43653 81.93331
#
# Poissons Ratio (x) = 0.55498 0.30920
# Poissons Ratio (y) = 0.53160 0.39729
# Poissons Ratio (z) = 0.15340 0.20577
#
# Static dielectric constant tensor:
#      x y z
#    x 1.793770 0.000000 0.030670 
#    y 0.000000 1.942820 0.000000 
#    z 0.030670 0.000000 1.875200 
# 
# From -- ./inp_files/273008.got.cif
#   From: 2010.05.17/outbox.cif.g08.bks.cpg/sg15_137_cif.got.tgz:273008.got - 2010.06.03 18:47:42.
