data_PCOD9308237
_publ_section_title
;
Structure prediction by ZEFSAII (Michael W. Deem and Ramdas Pophale) SiO2 
 PCOD9308237
Probable space group: C 2/C
;
_chemical_formula_sum "Si O2"
_cell_formula_units_Z 40
_cell_length_a 17.677380
_cell_length_b 4.938691
_cell_length_c 19.685946
_cell_angle_alpha 90.000000
_cell_angle_beta 111.583016
_cell_angle_gamma 90.000000
_cell_volume 1598.142675
_symmetry_space_group_name_H-M "C 2/C"
_symmetry_group_IT_number 15
_symmetry_cell_setting 'monoclinic'
loop_
_space_group_symop_operation_xyz
x,y,z
-x,y,1/2-z
-x,-y,-z
x,-y,1/2+z
1/2+x,1/2+y,z
1/2-x,1/2+y,1/2-z
1/2-x,1/2-y,-z
1/2+x,1/2-y,1/2+z
loop_
_atom_site_type_symbol
_atom_site_label
_atom_site_fract_x
_atom_site_fract_y
_atom_site_fract_z
Si Si1 0.656815 0.163703 0.471542
Si Si2 0.196706 0.252281 0.236955
Si Si3 0.425937 0.872507 0.184777
Si Si4 0.487665 0.460191 0.587589
Si Si5 0.409303 0.025509 0.415816
O O1 0.750000 0.250000 0.500000
O O2 0.621591 0.036896 0.389932
O O3 0.598309 0.420422 0.463981
O O4 0.641959 0.975055 0.532050
O O5 0.273514 0.452558 0.270526
O O6 0.146929 0.385858 0.159439
O O7 0.141020 0.265154 0.285180
O O8 0.500000 0.017693 0.250000
O O9 0.473003 0.637084 0.159425
O O10 0.516878 0.194338 0.557192
O O11 0.553591 0.695659 0.599482
#
# Coordination Sequence:
#
# PCOD9308237 Si02
#       5
#     8   8   8   8   8
#     4  12  29  50  83 121 164 206 270 343 405 470
#     4  12  28  50  76 114 163 211 262 332 410 479
#     4  12  28  51  80 118 158 215 271 330 399 490
#     4  12  26  50  78 112 153 209 266 326 395 482
#     4  12  27  51  80 115 157 213 271 327 401 482
#
# _framework density 25.029053000000001
#
# number of rings (size 3 to 8) (size 9 to 14) (size 15 to 20)
#    0.000    0.000    4.000    3.600    8.400    1.600 
#    0.000    0.000    0.000    0.000    0.000    0.000 
#    0.000    0.000    0.000    0.000    0.000    0.000 
#
# Total GULP energy -112138.753010 kJ/mol
# GULP energy per Si atom -5606.937650 kJ/mol
# Density = 2.497209 g / cm^3
# Si number density = 25.029053 Si / 1000 Ang^3
#
#
#
# Elastic Constant Matrix: (Units=GPa)
#
#
# Indices 1 2 3 4 5 6 
#
# 1 187.9532 45.8674 78.5553 -0.0001 -10.7399 0.0001
# 2 45.8674 117.9352 28.5038 -0.0003 1.9394 0.0003
# 3 78.5553 28.5038 158.2125 -0.0001 -16.0651 0.0001
# 4 -0.0001 -0.0003 -0.0001 33.9474 0.0001 0.9154
# 5 -10.7399 1.9394 -16.0651 0.0001 52.9798 -0.0001
# 6 0.0001 0.0003 0.0001 0.9154 -0.0001 41.2311
#
#
#
# Elastic Compliance Matrix: (Units=1/GPa)
#
#
# Indices 1 2 3 4 5 6 
#
# 1 0.007158 -0.002037 -0.003129 0.000000 0.000577 0.000000
# 2 -0.002037 0.009481 -0.000798 0.000000 -0.001002 0.000000
# 3 -0.003129 -0.000798 0.008209 0.000000 0.001884 0.000000
# 4 0.000000 0.000000 0.000000 0.029475 0.000000 -0.000654
# 5 0.000577 -0.001002 0.001884 0.000000 0.019600 0.000000
# 6 0.000000 0.000000 0.000000 -0.000654 0.000000 0.024268
#
#
# Mechanical properties :
#
#
# Convention : Reuss Voigt Hill
#
# Bulk Modulus (GPa) = 77.39919 85.55043 81.47481
# Shear Modulus (GPa) = 43.69616 46.37663 45.03639
#
# Velocity S-wave (km/s) = 4.18283 4.30922 4.24649
# Velocity P-wave (km/s) = 7.37014 7.68204 7.52771
#
# Compressibility (1/GPa) = 0.01292003
#
# Stress axis : x y z
#
# Youngs Moduli (GPa) = 139.69994 105.47400 121.81543
#
# Poissons Ratio (x) = 0.21488 0.38110
# Poissons Ratio (y) = 0.28461 0.09725
# Poissons Ratio (z) = 0.43706 0.08420
#
# Static dielectric constant tensor:
#      x y z
#    x 1.973640 0.000000 0.080410 
#    y 0.000000 1.992470 0.000000 
#    z 0.080410 0.000000 2.104160 
# 
# From -- ./inp_files/246275.got.cif
#   From: 2010.05.17/outbox.cif.g08.bks.cpg/sg15_124_cif.got.tgz:246275.got - 2010.06.03 18:47:42.
