data_PCOD9308665
_publ_section_title
;
Structure prediction by ZEFSAII (Michael W. Deem and Ramdas Pophale) SiO2 
 PCOD9308665
Probable space group: C 2/C
;
_chemical_formula_sum "Si O2"
_cell_formula_units_Z 22
_cell_length_a 15.000000
_cell_length_b 18.000000
_cell_length_c 9.000000
_cell_angle_alpha 90.000000
_cell_angle_beta 100.000000
_cell_angle_gamma 90.000000
_cell_volume 2393.082840
_symmetry_space_group_name_H-M "C 2/C"
_symmetry_group_IT_number 15
_symmetry_cell_setting 'monoclinic'
loop_
_space_group_symop_operation_xyz
x,y,z
-x,y,1/2-z
-x,-y,-z
x,-y,1/2+z
1/2+x,1/2+y,z
1/2-x,1/2+y,1/2-z
1/2-x,1/2-y,-z
1/2+x,1/2-y,1/2+z
loop_
_atom_site_type_symbol
_atom_site_label
_atom_site_fract_x
_atom_site_fract_y
_atom_site_fract_z
Si Si1 0.000000 0.696344 0.250000
Si Si2 0.361775 0.585650 0.264981
Si Si3 0.454874 0.330159 0.029247
Si Si4 0.224642 0.834677 0.336273
Si Si5 0.809234 0.339283 0.662252
Si Si6 0.371402 0.572074 0.915849
O O1 0.980663 0.749566 0.101688
O O2 0.910098 0.650412 0.246221
O O3 0.424670 0.651322 0.352068
O O4 0.260502 0.606870 0.280727
O O5 0.385404 0.509654 0.355674
O O6 0.365365 0.573156 0.091380
O O7 0.365566 0.352096 0.094369
O O8 0.539823 0.380159 0.092133
O O9 0.219626 0.746110 0.306674
O O10 0.302174 0.847224 0.480951
O O11 0.212770 0.885891 0.189039
#
# Coordination Sequence:
#
# PCOD9308665 Si02
#       6
#     4   8   8   8   8   8
#     4  10  18  36  66  74 110 142 192 222 270 322
#     4  11  24  32  54  80 120 145 182 219 277 324
#     4  10  18  34  52  83 108 150 173 214 270 330
#     4   9  18  34  58  75 112 140 186 215 274 327
#     4   9  18  36  55  81 100 151 181 225 266 323
#     4  12  21  35  52  83 114 149 175 226 267 337
#
# _framework density 9.1931630000000002
#
# number of rings (size 3 to 8) (size 9 to 14) (size 15 to 20)
#    0.000    1.818    3.636    4.364    0.000    2.182 
#    0.000    0.000    0.000    4.364    0.000    0.000 
#    0.000    0.000    0.000    0.000    0.000    0.000 
#
# Total GULP energy -122561.033119 kJ/mol
# GULP energy per Si atom -5570.956051 kJ/mol
# Density = 0.917224 g / cm^3
# Si number density = 9.193163 Si / 1000 Ang^3
#
#
#
# Elastic Constant Matrix: (Units=GPa)
#
#
# Indices 1 2 3 4 5 6 
#
# 1 79.7790 11.1855 13.8465 0.0000 18.5885 0.0000
# 2 11.1855 16.0364 4.7247 0.0000 -1.6477 0.0000
# 3 13.8465 4.7247 118.7279 0.0000 9.4627 0.0000
# 4 0.0000 0.0000 0.0000 17.1788 0.0000 -6.5397
# 5 18.5885 -1.6477 9.4627 0.0000 26.3706 0.0000
# 6 0.0000 0.0000 0.0000 -6.5397 0.0000 14.1826
#
#
#
# Elastic Compliance Matrix: (Units=1/GPa)
#
#
# Indices 1 2 3 4 5 6 
#
# 1 0.017536 -0.013431 -0.000472 0.000000 -0.013031 0.000000
# 2 -0.013431 0.074029 -0.002576 0.000000 0.015018 0.000000
# 3 -0.000472 -0.002576 0.008819 0.000000 -0.002993 0.000000
# 4 0.000000 0.000000 0.000000 0.070605 0.000000 0.032557
# 5 -0.013031 0.015018 -0.002993 0.000000 0.049119 0.000000
# 6 0.000000 0.000000 0.000000 0.032557 0.000000 0.085521
#
#
# Mechanical properties :
#
#
# Convention : Reuss Voigt Hill
#
# Bulk Modulus (GPa) = 14.83156 30.45073 22.64115
# Shear Modulus (GPa) = 13.84806 23.86553 18.85680
#
# Velocity S-wave (km/s) = 2.74737 3.60669 3.20595
# Velocity P-wave (km/s) = 4.26007 5.82597 5.10344
#
# Compressibility (1/GPa) = 0.06742379
#
# Stress axis : x y z
#
# Youngs Moduli (GPa) = 57.02595 13.50830 113.39512
#
# Poissons Ratio (x) = 0.18143 0.05353
# Poissons Ratio (y) = 0.76593 0.29215
# Poissons Ratio (z) = 0.02692 0.03480
#
# Static dielectric constant tensor:
#      x y z
#    x 1.661510 0.000000 0.024620 
#    y 0.000000 1.639700 0.000000 
#    z 0.024620 0.000000 1.708680 
# 
# From -- ./inp_files/39274.got.cif
#   From: 2010.05.17/outbox.ucp.g08.bks.cvg/sg15_20_cif.got.tgz:39274.got - 2010.06.11 12:40:34.
