data_PCOD9308089
_publ_section_title
;
Structure prediction by ZEFSAII (Michael W. Deem and Ramdas Pophale) SiO2 
 PCOD9308089
Probable space group: C 2/C
;
_chemical_formula_sum "Si O2"
_cell_formula_units_Z 52
_cell_length_a 21.210251
_cell_length_b 13.415963
_cell_length_c 26.729904
_cell_angle_alpha 90.000000
_cell_angle_beta 162.381222
_cell_angle_gamma 90.000000
_cell_volume 2302.247674
_symmetry_space_group_name_H-M "C 2/C"
_symmetry_group_IT_number 15
_symmetry_cell_setting 'monoclinic'
loop_
_space_group_symop_operation_xyz
x,y,z
-x,y,1/2-z
-x,-y,-z
x,-y,1/2+z
1/2+x,1/2+y,z
1/2-x,1/2+y,1/2-z
1/2-x,1/2-y,-z
1/2+x,1/2-y,1/2+z
loop_
_atom_site_type_symbol
_atom_site_label
_atom_site_fract_x
_atom_site_fract_y
_atom_site_fract_z
Si Si1 0.902061 0.003190 0.809092
Si Si2 0.605983 0.852747 0.720553
Si Si3 0.500000 0.500000 0.500000
Si Si4 0.655474 0.827222 0.468566
Si Si5 0.769114 0.208015 0.168152
Si Si6 0.670809 0.024143 0.420062
Si Si7 0.110520 0.329793 0.050225
O O1 0.881641 0.887801 0.777208
O O2 0.708070 0.065859 0.641509
O O3 0.914321 0.008605 0.877606
O O4 0.113484 0.044091 0.944357
O O5 0.707203 0.750190 0.814992
O O6 0.510302 0.840088 0.592984
O O7 0.429353 0.885670 0.625689
O O8 0.787414 0.935529 0.855243
O O9 0.750000 0.750000 0.500000
O O10 0.745464 0.807555 0.591303
O O11 0.408012 0.805180 0.283232
O O12 0.701533 0.936296 0.483472
O O13 0.547249 0.212948 0.027119
O O14 0.500000 0.989199 0.250000
#
# Coordination Sequence:
#
# PCOD9308089 Si02
#       7
#     8   8   4   8   8   8   8
#     4  12  27  50  76 108 149 192 256 301 384 438
#     4  12  28  48  76 109 148 196 251 303 374 440
#     4  12  26  48  76 110 146 194 246 312 364 446
#     4  12  26  44  72 110 153 190 247 300 384 444
#     4  12  26  45  73 110 146 195 242 313 364 449
#     4  12  27  47  74 108 149 198 240 310 374 453
#     4  12  28  50  75 110 144 198 251 311 364 442
#
# _framework density 22.586622999999999
#
# number of rings (size 3 to 8) (size 9 to 14) (size 15 to 20)
#    0.000    0.000    4.615    4.615    4.308    2.462 
#    0.000    0.000    0.000    0.000    0.000    0.000 
#    0.000    0.000    0.000    0.000    0.000    0.000 
#
# Total GULP energy -145281.658938 kJ/mol
# GULP energy per Si atom -5587.756113 kJ/mol
# Density = 2.253521 g / cm^3
# Si number density = 22.586623 Si / 1000 Ang^3
#
#
#
# Elastic Constant Matrix: (Units=GPa)
#
#
# Indices 1 2 3 4 5 6 
#
# 1 67.1036 11.7306 10.8020 0.0343 -10.4227 0.0154
# 2 11.7306 46.3042 9.3612 -0.0108 6.9965 -0.0673
# 3 10.8020 9.3612 72.2726 -0.0161 -16.5191 -0.0451
# 4 0.0343 -0.0108 -0.0161 42.4125 -0.0321 12.0984
# 5 -10.4227 6.9965 -16.5191 -0.0321 64.6445 0.0068
# 6 0.0154 -0.0673 -0.0451 12.0984 0.0068 19.9710
#
#
#
# Elastic Compliance Matrix: (Units=1/GPa)
#
#
# Indices 1 2 3 4 5 6 
#
# 1 0.016284 -0.004293 -0.001244 -0.000005 0.002772 -0.000028
# 2 -0.004293 0.024004 -0.003419 -0.000021 -0.004164 0.000090
# 3 -0.001244 -0.003419 0.015404 0.000003 0.004106 0.000021
# 4 -0.000005 -0.000021 0.000003 0.028504 0.000018 -0.017268
# 5 0.002772 -0.004164 0.004106 0.000018 0.017416 -0.000024
# 6 -0.000028 0.000090 0.000021 -0.017268 -0.000024 0.060534
#
#
# Mechanical properties :
#
#
# Convention : Reuss Voigt Hill
#
# Bulk Modulus (GPa) = 26.46932 27.71865 27.09398
# Shear Modulus (GPa) = 25.95373 35.65804 30.80589
#
# Velocity S-wave (km/s) = 3.39348 3.97763 3.69711
# Velocity P-wave (km/s) = 5.20564 5.77877 5.49968
#
# Compressibility (1/GPa) = 0.03777959
#
# Stress axis : x y z
#
# Youngs Moduli (GPa) = 61.41150 41.65914 64.91913
#
# Poissons Ratio (x) = 0.17883 0.08077
# Poissons Ratio (y) = 0.26362 0.22198
# Poissons Ratio (z) = 0.07641 0.14244
#
# Static dielectric constant tensor:
#      x y z
#    x 1.783180 -0.000030 0.043410 
#    y -0.000030 1.846270 -0.000170 
#    z 0.043410 -0.000170 1.856320 
# 
# From -- ./inp_files/301155.got.cif
#   From: 2010.05.17/outbox.cif.g08.bks.cpg/sg15_151_cif.got.tgz:301155.got - 2010.06.03 18:47:42.
