data_PCOD9308950
_publ_section_title
;
Structure prediction by ZEFSAII (Michael W. Deem and Ramdas Pophale) SiO2 
 PCOD9308950
Probable space group: C 2/C
;
_chemical_formula_sum "Si O2"
_cell_formula_units_Z 30
_cell_length_a 15.000000
_cell_length_b 21.000000
_cell_length_c 27.000000
_cell_angle_alpha 90.000000
_cell_angle_beta 160.000000
_cell_angle_gamma 90.000000
_cell_volume 2908.881319
_symmetry_space_group_name_H-M "C 2/C"
_symmetry_group_IT_number 15
_symmetry_cell_setting 'monoclinic'
loop_
_space_group_symop_operation_xyz
x,y,z
-x,y,1/2-z
-x,-y,-z
x,-y,1/2+z
1/2+x,1/2+y,z
1/2-x,1/2+y,1/2-z
1/2-x,1/2-y,-z
1/2+x,1/2-y,1/2+z
loop_
_atom_site_type_symbol
_atom_site_label
_atom_site_fract_x
_atom_site_fract_y
_atom_site_fract_z
Si Si1 0.849840 0.375657 0.010355
Si Si2 0.500000 0.315899 0.750000
Si Si3 0.805570 0.719881 0.186406
Si Si4 0.403207 0.433261 0.149877
Si Si5 0.908092 0.822519 0.314196
Si Si6 0.371090 0.990412 0.854290
Si Si7 0.310248 0.631537 0.286235
Si Si8 0.417006 0.233033 0.404567
O O1 0.722103 0.360364 0.890119
O O2 0.601696 0.367997 0.916184
O O3 0.985595 0.444392 0.085847
O O4 0.093883 0.329720 0.147638
O O5 0.372404 0.270486 0.723822
O O6 0.969054 0.768595 0.305755
O O7 0.683919 0.667977 0.159055
O O8 0.000000 0.687076 0.250000
O O9 0.605818 0.761905 0.049949
O O10 0.500000 0.398979 0.250000
O O11 0.449801 0.386665 0.128064
O O12 0.609603 0.490944 0.247946
O O13 0.109046 0.454614 0.005486
O O14 0.971804 0.794886 0.400554
O O15 0.285029 0.941332 0.766619
O O16 0.110280 0.672467 0.146645
#
# Coordination Sequence:
#
# PCOD9308950 Si02
#       8
#     8   4   8   8   8   8   8   8
#     4  10  21  40  62  91 124 162 211 250 321 365
#     4  10  20  36  64  92 124 156 200 264 302 378
#     4  11  24  40  61  91 125 164 208 252 317 376
#     4  11  24  37  63  88 126 163 213 251 315 374
#     4  10  23  39  62  91 126 164 202 259 308 382
#     4  11  23  41  60  90 124 169 201 264 308 376
#     4  10  24  40  63  91 129 163 202 264 311 374
#     4  10  23  38  62  91 123 161 204 254 313 367
#
# _framework density 10.313243
#
# number of rings (size 3 to 8) (size 9 to 14) (size 15 to 20)
#    0.000    1.600    2.667    0.800    8.400    3.733 
#    0.000    0.000    0.000    7.200    0.000    0.000 
#    0.000    0.000    0.000    0.000    0.000    0.000 
#
# Total GULP energy -167295.502007 kJ/mol
# GULP energy per Si atom -5576.516734 kJ/mol
# Density = 1.028977 g / cm^3
# Si number density = 10.313243 Si / 1000 Ang^3
#
#
#
# Elastic Constant Matrix: (Units=GPa)
#
#
# Indices 1 2 3 4 5 6 
#
# 1 83.9578 42.7892 28.7316 -0.0046 -0.2365 0.0019
# 2 42.7892 65.9200 17.6158 0.0227 2.4107 0.0006
# 3 28.7316 17.6158 86.1201 0.0596 12.1640 0.0022
# 4 -0.0046 0.0227 0.0596 19.6589 -0.0050 9.7888
# 5 -0.2365 2.4107 12.1640 -0.0050 18.9160 -0.0019
# 6 0.0019 0.0006 0.0022 9.7888 -0.0019 15.3773
#
#
#
# Elastic Compliance Matrix: (Units=1/GPa)
#
#
# Indices 1 2 3 4 5 6 
#
# 1 0.019433 -0.011505 -0.004808 0.000050 0.004801 -0.000032
# 2 -0.011505 0.022858 -0.000446 -0.000042 -0.002770 0.000027
# 3 -0.004808 -0.000446 0.014637 -0.000067 -0.009416 0.000040
# 4 0.000050 -0.000042 -0.000067 0.074473 0.000064 -0.047408
# 5 0.004801 -0.002770 -0.009416 0.000064 0.059333 -0.000033
# 6 -0.000032 0.000027 0.000040 -0.047408 -0.000033 0.095209
#
#
# Mechanical properties :
#
#
# Convention : Reuss Voigt Hill
#
# Bulk Modulus (GPa) = 42.71646 46.03013 44.37329
# Shear Modulus (GPa) = 15.27809 20.58121 17.92965
#
# Velocity S-wave (km/s) = 2.72454 3.16223 2.95151
# Velocity P-wave (km/s) = 5.53642 5.97473 5.75975
#
# Compressibility (1/GPa) = 0.02341018
#
# Stress axis : x y z
#
# Youngs Moduli (GPa) = 51.45825 43.74757 68.32005
#
# Poissons Ratio (x) = 0.50331 0.32850
# Poissons Ratio (y) = 0.59203 0.03048
# Poissons Ratio (z) = 0.24742 0.01951
#
# Static dielectric constant tensor:
#      x y z
#    x 1.758780 0.000000 0.025250 
#    y 0.000000 1.766680 -0.000040 
#    z 0.025250 -0.000040 1.775270 
# 
# From -- ./inp_files/297040.got.cif
#   From: 2010.05.17/outbox.ucp.g08.bks.cvg/sg15_149_cif.got.tgz:297040.got - 2010.06.11 12:40:34.
