data_PCOD9308900
_publ_section_title
;
Structure prediction by ZEFSAII (Michael W. Deem and Ramdas Pophale) SiO2 
 PCOD9308900
Probable space group: C 2/C
;
_chemical_formula_sum "Si O2"
_cell_formula_units_Z 32
_cell_length_a 30.000000
_cell_length_b 9.000000
_cell_length_c 15.000000
_cell_angle_alpha 90.000000
_cell_angle_beta 50.000000
_cell_angle_gamma 90.000000
_cell_volume 3102.479995
_symmetry_space_group_name_H-M "C 2/C"
_symmetry_group_IT_number 15
_symmetry_cell_setting 'monoclinic'
loop_
_space_group_symop_operation_xyz
x,y,z
-x,y,1/2-z
-x,-y,-z
x,-y,1/2+z
1/2+x,1/2+y,z
1/2-x,1/2+y,1/2-z
1/2-x,1/2-y,-z
1/2+x,1/2-y,1/2+z
loop_
_atom_site_type_symbol
_atom_site_label
_atom_site_fract_x
_atom_site_fract_y
_atom_site_fract_z
Si Si1 0.891183 0.321959 0.153769
Si Si2 0.139101 0.177092 0.484788
Si Si3 0.608817 0.178042 0.346231
Si Si4 0.441728 0.178896 0.271408
Si Si5 0.941728 0.321105 0.271408
Si Si6 0.762377 0.678449 0.888629
Si Si7 0.262377 0.821551 0.888629
Si Si8 0.360899 0.322908 0.015212
O O1 0.896045 0.243590 0.052980
O O2 0.893780 0.500000 0.137339
O O3 0.936680 0.282712 0.173340
O O4 0.826263 0.281232 0.271734
O O5 0.111209 0.243947 0.609604
O O6 0.207532 0.219691 0.396566
O O7 0.135000 0.000000 0.489986
O O8 0.563320 0.217289 0.326660
O O9 0.673737 0.218768 0.228266
O O10 0.603955 0.256410 0.447020
O O11 0.500000 0.220007 0.250000
O O12 0.435221 0.000000 0.285629
O O13 0.888791 0.243947 0.390396
O O14 0.000000 0.279993 0.250000
O O15 0.761908 0.500000 0.898502
O O16 0.707532 0.719691 0.896566
O O17 0.750000 0.750000 0.000000
O O18 0.250000 0.750000 0.000000
#
# Coordination Sequence:
#
# PCOD9308900 Si02
#       8
#     8   8   8   8   8   8   8   8
#     4  10  21  38  60  85 115 152 192 234 282 340
#     4  11  23  37  58  89 120 150 186 235 292 343
#     4  10  21  38  60  85 115 152 192 234 282 340
#     4  10  22  41  63  84 110 151 200 242 280 332
#     4  10  22  41  63  84 110 151 200 242 280 332
#     4  10  20  35  58  87 116 150 188 230 285 342
#     4  10  20  35  58  87 116 150 188 230 285 342
#     4  11  23  37  58  89 120 150 186 235 292 343
#
# _framework density 10.314329000000001
#
# number of rings (size 3 to 8) (size 9 to 14) (size 15 to 20)
#    0.000    1.750    2.500    1.500    0.000    4.500 
#    0.000    5.000    0.000    0.000    0.000    0.000 
#    0.000    0.000    0.000    0.000    0.000    0.000 
#
# Total GULP energy -178747.797047 kJ/mol
# GULP energy per Si atom -5585.868658 kJ/mol
# Density = 1.029085 g / cm^3
# Si number density = 10.314329 Si / 1000 Ang^3
#
#
#
# Elastic Constant Matrix: (Units=GPa)
#
#
# Indices 1 2 3 4 5 6 
#
# 1 143.0452 23.8110 4.4232 0.0000 20.3732 0.0000
# 2 23.8110 -13.3452 4.9927 0.0000 3.4586 0.0001
# 3 4.4232 4.9927 21.7741 0.0000 17.7294 0.0000
# 4 0.0000 0.0000 0.0000 28.8563 0.0000 8.3583
# 5 20.3732 3.4586 17.7294 0.0000 38.6999 0.0000
# 6 0.0000 0.0001 0.0000 8.3583 0.0000 20.2810
#
#
#
# Elastic Compliance Matrix: (Units=1/GPa)
#
#
# Indices 1 2 3 4 5 6 
#
# 1 0.005963 0.009543 -0.000238 0.000000 -0.003883 0.000000
# 2 0.009543 -0.053667 0.016831 0.000000 -0.007938 0.000000
# 3 -0.000238 0.016831 0.068963 0.000000 -0.032972 0.000000
# 4 0.000000 0.000000 0.000000 0.039352 0.000000 -0.016218
# 5 -0.003883 -0.007938 -0.032972 0.000000 0.043699 0.000000
# 6 0.000000 0.000000 0.000000 -0.016218 0.000000 0.055991
#
#
# Mechanical properties :
#
#
# Convention : Reuss Voigt Hill
#
# Bulk Modulus (GPa) = 13.59976 24.21422 18.90699
# Shear Modulus (GPa) = 37.72482 25.45060 31.58771
#
# Velocity S-wave (km/s) = 4.28104 3.51629 3.91737
# Velocity P-wave (km/s) = 5.57165 5.31501 5.44484
#
# Compressibility (1/GPa) = 0.07353072
#
# Stress axis : x y z
#
# Youngs Moduli (GPa) = 167.71212 -18.63359 14.50062
#
# Poissons Ratio (x) = 0.17783 0.00345
# Poissons Ratio (y) = -1.60054 -0.24405
# Poissons Ratio (z) = 0.03991 0.31361
#
# Static dielectric constant tensor:
#      x y z
#    x 1.768410 0.000000 -0.018880 
#    y 0.000000 1.685050 0.000000 
#    z -0.018880 0.000000 1.735920 
# 
# From -- ./inp_files/181140.got.cif
#   From: 2010.05.17/outbox.ucp.g08.bks.cvg/sg15_91_cif.got.tgz:181140.got - 2010.06.11 12:40:34.
