data_PCOD9308495
_publ_section_title
;
Structure prediction by ZEFSAII (Michael W. Deem and Ramdas Pophale) SiO2 
 PCOD9308495
Probable space group: C 2/C
;
_chemical_formula_sum "Si O2"
_cell_formula_units_Z 48
_cell_length_a 9.491598
_cell_length_b 13.481593
_cell_length_c 19.078875
_cell_angle_alpha 90.000000
_cell_angle_beta 128.040662
_cell_angle_gamma 90.000000
_cell_volume 1922.757334
_symmetry_space_group_name_H-M "C 2/C"
_symmetry_group_IT_number 15
_symmetry_cell_setting 'monoclinic'
loop_
_space_group_symop_operation_xyz
x,y,z
-x,y,1/2-z
-x,-y,-z
x,-y,1/2+z
1/2+x,1/2+y,z
1/2-x,1/2+y,1/2-z
1/2-x,1/2-y,-z
1/2+x,1/2-y,1/2+z
loop_
_atom_site_type_symbol
_atom_site_label
_atom_site_fract_x
_atom_site_fract_y
_atom_site_fract_z
Si Si1 0.003831 0.746980 0.390456
Si Si2 0.986125 0.488119 0.578387
Si Si3 0.302921 0.000714 0.652257
Si Si4 0.850079 0.781866 0.921401
Si Si5 0.363381 0.512756 0.763503
Si Si6 0.889639 0.224571 0.282728
O O1 0.028360 0.629298 0.412706
O O2 0.817903 0.750148 0.292718
O O3 0.016339 0.790618 0.472468
O O4 0.177792 0.777869 0.398708
O O5 0.173407 0.520116 0.668263
O O6 0.000000 0.500000 0.500000
O O7 0.833548 0.535871 0.581731
O O8 0.500000 0.997432 0.750000
O O9 0.230232 0.888749 0.623311
O O10 0.166309 0.049388 0.666003
O O11 0.935836 0.742432 0.875739
O O12 0.500000 0.557471 0.750000
O O13 0.410158 0.395228 0.785242
O O14 0.000000 0.265913 0.250000
#
# Coordination Sequence:
#
# PCOD9308495 Si02
#       6
#     8   8   8   8   8   8
#     4   9  17  27  43  66  85 114 149 177 221 266
#     4   9  16  27  43  61  84 111 143 181 215 257
#     4   8  14  26  45  66  84 110 146 178 217 264
#     4   9  15  26  44  63  87 109 138 183 216 260
#     4   8  14  26  44  62  79 104 143 181 212 251
#     4   9  16  26  42  64  87 112 140 176 219 263
#
# _framework density 24.964151000000001
#
# number of rings (size 3 to 8) (size 9 to 14) (size 15 to 20)
#    0.000    3.333    0.000    3.500    0.000    0.667 
#    0.000    0.833    0.000   10.000    0.000    0.000 
#    0.000    0.000    0.000    0.000    0.000    0.000 
#
# Total GULP energy -133963.421681 kJ/mol
# GULP energy per Si atom -5581.809237 kJ/mol
# Density = 2.490733 g / cm^3
# Si number density = 24.964151 Si / 1000 Ang^3
#
#
#
# Elastic Constant Matrix: (Units=GPa)
#
#
# Indices 1 2 3 4 5 6 
#
# 1 147.1951 -4.5827 72.0280 0.0000 -67.9295 0.0000
# 2 -4.5827 72.1219 6.3852 0.0000 -11.8154 0.0000
# 3 72.0280 6.3852 164.0386 0.0000 -63.5980 0.0000
# 4 0.0000 0.0000 0.0000 19.4769 0.0000 -9.9849
# 5 -67.9295 -11.8154 -63.5980 0.0000 60.9562 0.0000
# 6 0.0000 0.0000 0.0000 -9.9849 0.0000 6.4657
#
#
#
# Elastic Compliance Matrix: (Units=1/GPa)
#
#
# Indices 1 2 3 4 5 6 
#
# 1 0.014929 0.003799 0.000055 0.000000 0.017431 0.000000
# 2 0.003799 0.015362 0.000890 0.000000 0.008140 0.000000
# 3 0.000055 0.000890 0.010291 0.000000 0.010970 0.000000
# 4 0.000000 0.000000 0.000000 0.246470 0.000000 0.380623
# 5 0.017431 0.008140 0.010970 0.000000 0.048853 0.000000
# 6 0.000000 0.000000 0.000000 0.380623 0.000000 0.742459
#
#
# Mechanical properties :
#
#
# Convention : Reuss Voigt Hill
#
# Bulk Modulus (GPa) = 19.97244 59.00183 39.48713
# Shear Modulus (GPa) = 4.60589 38.01475 21.31032
#
# Velocity S-wave (km/s) = 1.35978 3.90651 2.92488
# Velocity P-wave (km/s) = 3.23777 6.63579 5.22096
#
# Compressibility (1/GPa) = 0.05006900
#
# Stress axis : x y z
#
# Youngs Moduli (GPa) = 66.98159 65.09737 97.17669
#
# Poissons Ratio (x) = -0.24733 -0.00531
# Poissons Ratio (y) = -0.25449 -0.08645
# Poissons Ratio (z) = -0.00366 -0.05791
#
# Static dielectric constant tensor:
#      x y z
#    x 2.039600 0.000000 -0.101220 
#    y 0.000000 2.064160 0.000000 
#    z -0.101220 0.000000 1.972230 
# 
# From -- ./inp_files/135494.got.cif
#   From: 2010.05.17/outbox.cif.g08.bks.cpg/sg15_68_cif.got.tgz:135494.got - 2010.06.03 18:47:42.
