data_PCOD9308056
_publ_section_title
;
Structure prediction by ZEFSAII (Michael W. Deem and Ramdas Pophale) SiO2 
 PCOD9308056
Probable space group: C 2/C
;
_chemical_formula_sum "Si O2"
_cell_formula_units_Z 16
_cell_length_a 7.521493
_cell_length_b 17.017255
_cell_length_c 9.395757
_cell_angle_alpha 90.000000
_cell_angle_beta 32.762603
_cell_angle_gamma 90.000000
_cell_volume 650.804565
_symmetry_space_group_name_H-M "C 2/C"
_symmetry_group_IT_number 15
_symmetry_cell_setting 'monoclinic'
loop_
_space_group_symop_operation_xyz
x,y,z
-x,y,1/2-z
-x,-y,-z
x,-y,1/2+z
1/2+x,1/2+y,z
1/2-x,1/2+y,1/2-z
1/2-x,1/2-y,-z
1/2+x,1/2-y,1/2+z
loop_
_atom_site_type_symbol
_atom_site_label
_atom_site_fract_x
_atom_site_fract_y
_atom_site_fract_z
Si Si1 0.138711 0.586982 0.422444
Si Si2 0.500000 0.806683 0.250000
Si Si3 0.000000 0.307211 0.750000
O O1 0.500000 0.584185 0.250000
O O2 0.000000 0.500000 0.500000
O O3 0.900960 0.634985 0.689745
O O4 0.149238 0.635739 0.269773
O O5 0.250000 0.750000 0.500000
O O6 0.250000 0.250000 0.500000
#
# Coordination Sequence:
#
# PCOD9308056 Si02
#       3
#     8   4   4
#     4  12  30  54  82 121 169 217 270 338 410 488
#     4  12  25  50  83 114 156 212 268 336 403 470
#     4  12  31  52  85 122 160 212 280 338 409 486
#
# _framework density 24.584955000000001
#
# number of rings (size 3 to 8) (size 9 to 14) (size 15 to 20)
#    0.000    0.000    2.500    4.500   10.500    4.000 
#    0.000    0.000    0.000    0.000    0.000    0.000 
#    0.000    0.000    0.000    0.000    0.000    0.000 
#
# Total GULP energy -44855.441289 kJ/mol
# GULP energy per Si atom -5606.930161 kJ/mol
# Density = 2.452900 g / cm^3
# Si number density = 24.584955 Si / 1000 Ang^3
#
#
#
# Elastic Constant Matrix: (Units=GPa)
#
#
# Indices 1 2 3 4 5 6 
#
# 1 214.6974 119.5704 91.0622 -0.0002 19.2053 0.0002
# 2 119.5704 286.9866 131.8995 0.0001 14.3852 0.0000
# 3 91.0622 131.8995 239.3260 -0.0003 19.9127 0.0003
# 4 -0.0002 0.0001 -0.0003 13.8356 0.0002 22.3883
# 5 19.2053 14.3852 19.9127 0.0002 45.9720 -0.0002
# 6 0.0002 0.0000 0.0003 22.3883 -0.0002 62.1152
#
#
#
# Elastic Compliance Matrix: (Units=1/GPa)
#
#
# Indices 1 2 3 4 5 6 
#
# 1 0.006448 -0.002063 -0.001189 0.000000 -0.001533 0.000000
# 2 -0.002063 0.005333 -0.002165 0.000000 0.000131 0.000000
# 3 -0.001189 -0.002165 0.005940 0.000000 -0.001399 0.000000
# 4 0.000000 0.000000 0.000000 0.173426 -0.000001 -0.062508
# 5 -0.001533 0.000131 -0.001399 -0.000001 0.022958 0.000001
# 6 0.000000 0.000000 0.000000 -0.062508 0.000001 0.038629
#
#
# Mechanical properties :
#
#
# Convention : Reuss Voigt Hill
#
# Bulk Modulus (GPa) = 145.19677 158.45271 151.82474
# Shear Modulus (GPa) = 18.80669 50.94977 34.87823
#
# Velocity S-wave (km/s) = 2.76881 4.55730 3.77063
# Velocity P-wave (km/s) = 8.33121 9.60640 8.99144
#
# Compressibility (1/GPa) = 0.00688721
#
# Stress axis : x y z
#
# Youngs Moduli (GPa) = 155.08141 187.52911 168.34632
#
# Poissons Ratio (x) = 0.38695 0.20012
# Poissons Ratio (y) = 0.31999 0.36442
# Poissons Ratio (z) = 0.18435 0.40594
#
# Static dielectric constant tensor:
#      x y z
#    x 2.040270 0.000000 -0.077230 
#    y 0.000000 1.909560 0.000000 
#    z -0.077230 0.000000 1.982820 
# 
# From -- ./inp_files/720.got.cif
#   From: 2010.05.17/outbox.cif.g08.bks.cpg/sg15_1_cif.got.tgz:720.got - 2010.06.03 18:47:42.
