data_PCOD9308983
_publ_section_title
;
Structure prediction by ZEFSAII (Michael W. Deem and Ramdas Pophale) SiO2 
 PCOD9308983
Probable space group: C 2/C
;
_chemical_formula_sum "Si O2"
_cell_formula_units_Z 24
_cell_length_a 30.000000
_cell_length_b 15.000000
_cell_length_c 30.000000
_cell_angle_alpha 90.000000
_cell_angle_beta 170.000000
_cell_angle_gamma 90.000000
_cell_volume 2344.250399
_symmetry_space_group_name_H-M "C 2/C"
_symmetry_group_IT_number 15
_symmetry_cell_setting 'monoclinic'
loop_
_space_group_symop_operation_xyz
x,y,z
-x,y,1/2-z
-x,-y,-z
x,-y,1/2+z
1/2+x,1/2+y,z
1/2-x,1/2+y,1/2-z
1/2-x,1/2-y,-z
1/2+x,1/2-y,1/2+z
loop_
_atom_site_type_symbol
_atom_site_label
_atom_site_fract_x
_atom_site_fract_y
_atom_site_fract_z
Si Si1 0.309408 0.392691 0.840278
Si Si2 0.500000 0.954024 0.750000
Si Si3 0.030709 0.187512 0.186453
Si Si4 0.287573 0.128551 0.867764
Si Si5 0.053998 0.943074 0.623816
Si Si6 0.155344 0.693897 0.474927
Si Si7 0.500000 0.421537 0.750000
O O1 0.352991 0.394847 0.830084
O O2 0.031842 0.356723 0.577682
O O3 0.529718 0.344458 0.086821
O O4 0.328799 0.493973 0.880327
O O5 0.249409 0.016898 0.505190
O O6 0.434017 0.889455 0.643101
O O7 0.292493 0.244739 0.445920
O O8 0.013691 0.121106 0.126504
O O9 0.024231 0.136209 0.228075
O O10 0.243419 0.021311 0.827793
O O11 0.344912 0.168513 0.972828
O O12 0.446335 0.730129 0.755900
#
# Coordination Sequence:
#
# PCOD9308983 Si02
#       7
#     8   4   8   8   8   8   4
#     4   9  20  36  67  88 124 162 228 265 291 358
#     4  12  26  44  74  94 116 172 222 266 302 404
#     4  12  27  43  66  98 137 168 206 277 343 381
#     4  10  20  37  63  88 123 171 215 255 310 376
#     4   9  22  38  67  90 125 171 226 259 307 378
#     4  12  25  42  62  96 137 163 202 266 337 381
#     4  12  26  48  72  96 122 170 226 268 318 400
#
# _framework density 10.237814
#
# number of rings (size 3 to 8) (size 9 to 14) (size 15 to 20)
#    1.000    0.333    0.000    5.500    4.667    0.000 
#    0.000    5.000    0.000    0.000    0.000    0.000 
#    0.000    0.000    0.000    0.000    0.000    0.000 
#
# Total GULP energy -133838.018879 kJ/mol
# GULP energy per Si atom -5576.584120 kJ/mol
# Density = 1.021451 g / cm^3
# Si number density = 10.237814 Si / 1000 Ang^3
#
#
#
# Elastic Constant Matrix: (Units=GPa)
#
#
# Indices 1 2 3 4 5 6 
#
# 1 142.3447 56.6584 10.1938 -0.3148 -24.3720 -0.1925
# 2 56.6584 96.9179 28.6666 0.3204 -2.7891 0.1391
# 3 10.1938 28.6666 119.0684 0.3560 -3.2422 -0.0414
# 4 -0.3148 0.3204 0.3560 14.8779 0.2057 -19.7630
# 5 -24.3720 -2.7891 -3.2422 0.2057 31.4452 -0.0364
# 6 -0.1925 0.1391 -0.0414 -19.7630 -0.0364 33.7317
#
#
#
# Elastic Compliance Matrix: (Units=1/GPa)
#
#
# Indices 1 2 3 4 5 6 
#
# 1 0.010866 -0.006372 0.000815 0.001659 0.007931 0.001070
# 2 -0.006372 0.014866 -0.003135 -0.002102 -0.003931 -0.001337
# 3 0.000815 -0.003135 0.009120 -0.000502 0.001297 -0.000264
# 4 0.001659 -0.002102 -0.000502 0.303687 -0.000733 0.177943
# 5 0.007931 -0.003931 0.001297 -0.000733 0.037738 -0.000325
# 6 0.001070 -0.001337 -0.000264 0.177943 -0.000325 0.133912
#
#
# Mechanical properties :
#
#
# Convention : Reuss Voigt Hill
#
# Bulk Modulus (GPa) = 57.24451 61.04093 59.14272
# Shear Modulus (GPa) = 9.37389 33.53175 21.45282
#
# Velocity S-wave (km/s) = 2.14196 4.05117 3.24037
# Velocity P-wave (km/s) = 5.84255 7.19436 6.55341
#
# Compressibility (1/GPa) = 0.01746892
#
# Stress axis : x y z
#
# Youngs Moduli (GPa) = 92.02696 67.26622 109.64670
#
# Poissons Ratio (x) = 0.42865 -0.08939
# Poissons Ratio (y) = 0.58643 0.34372
# Poissons Ratio (z) = -0.07503 0.21087
#
# Static dielectric constant tensor:
#      x y z
#    x 1.702430 0.000000 0.049390 
#    y 0.000000 1.810990 -0.000410 
#    z 0.049390 -0.000410 1.712800 
# 
# From -- ./inp_files/320422.got.cif
#   From: 2010.05.17/outbox.ucp.g08.bks.cvg/sg15_161_cif.got.tgz:320422.got - 2010.06.11 12:40:34.
