data_PCOD9308676
_publ_section_title
;
Structure prediction by ZEFSAII (Michael W. Deem and Ramdas Pophale) SiO2 
 PCOD9308676
Probable space group: C 2/C
;
_chemical_formula_sum "Si O2"
_cell_formula_units_Z 28
_cell_length_a 9.000000
_cell_length_b 18.000000
_cell_length_c 18.000000
_cell_angle_alpha 90.000000
_cell_angle_beta 70.000000
_cell_angle_gamma 90.000000
_cell_volume 2740.143682
_symmetry_space_group_name_H-M "C 2/C"
_symmetry_group_IT_number 15
_symmetry_cell_setting 'monoclinic'
loop_
_space_group_symop_operation_xyz
x,y,z
-x,y,1/2-z
-x,-y,-z
x,-y,1/2+z
1/2+x,1/2+y,z
1/2-x,1/2+y,1/2-z
1/2-x,1/2-y,-z
1/2+x,1/2-y,1/2+z
loop_
_atom_site_type_symbol
_atom_site_label
_atom_site_fract_x
_atom_site_fract_y
_atom_site_fract_z
Si Si1 0.505829 0.830821 0.087885
Si Si2 0.937731 0.240486 0.964076
Si Si3 0.063117 0.378976 0.640894
Si Si4 0.000000 0.256844 0.250000
Si Si5 0.833846 0.904594 0.403162
Si Si6 0.223649 0.130063 0.269772
Si Si7 0.355108 0.985324 0.468924
Si Si8 0.500000 0.498280 0.750000
O O1 0.518837 0.804564 0.171221
O O2 0.331536 0.866200 0.097234
O O3 0.632137 0.897572 0.050477
O O4 0.517579 0.759609 0.030027
O O5 0.981390 0.313477 0.908757
O O6 0.944825 0.159543 0.922306
O O7 0.750000 0.250000 0.000000
O O8 0.222168 0.351102 0.655712
O O9 0.107484 0.460931 0.605959
O O10 0.896184 0.388566 0.709458
O O11 0.144930 0.200471 0.242936
O O12 0.791124 0.971870 0.467408
O O13 0.910418 0.947169 0.321296
O O14 0.113532 0.058611 0.275874
O O15 0.500000 0.000000 0.500000
#
# Coordination Sequence:
#
# PCOD9308676 Si02
#       8
#     8   8   8   4   8   8   8   4
#     4  10  21  37  66  92 129 172 216 273 332 396
#     4  10  18  35  65  94 123 162 225 272 322 390
#     4  11  20  40  70  94 122 178 230 258 326 414
#     4  11  24  42  62  95 144 166 216 285 336 386
#     4  10  21  37  66  92 129 172 216 273 332 396
#     4  10  24  40  64  94 132 178 214 274 332 398
#     4  10  18  35  65  94 123 162 225 272 322 390
#     4  11  24  42  62  95 144 166 216 285 336 386
#
# _framework density 10.218442
#
# number of rings (size 3 to 8) (size 9 to 14) (size 15 to 20)
#    0.000    1.714    4.286    3.429    0.000    4.571 
#    0.000    1.429    6.286    0.000    0.000    0.000 
#    0.000    0.000    0.000    0.000    0.000    0.000 
#
# Total GULP energy -155884.269086 kJ/mol
# GULP energy per Si atom -5567.295325 kJ/mol
# Density = 1.019518 g / cm^3
# Si number density = 10.218442 Si / 1000 Ang^3
#
#
#
# Elastic Constant Matrix: (Units=GPa)
#
#
# Indices 1 2 3 4 5 6 
#
# 1 62.6497 17.9703 22.2025 0.0000 20.2375 0.0000
# 2 17.9703 119.3772 46.4468 0.0000 11.5096 0.0000
# 3 22.2025 46.4468 60.8430 0.0000 24.2130 0.0000
# 4 0.0000 0.0000 0.0000 51.1505 0.0000 6.8776
# 5 20.2375 11.5096 24.2130 0.0000 34.7803 0.0000
# 6 0.0000 0.0000 0.0000 6.8776 0.0000 22.1782
#
#
#
# Elastic Compliance Matrix: (Units=1/GPa)
#
#
# Indices 1 2 3 4 5 6 
#
# 1 0.020340 -0.001038 -0.002845 0.000000 -0.009511 0.000000
# 2 -0.001038 0.012250 -0.010512 0.000000 0.003868 0.000000
# 3 -0.002845 -0.010512 0.032444 0.000000 -0.017453 0.000000
# 4 0.000000 0.000000 0.000000 0.020401 0.000000 -0.006326
# 5 -0.009511 0.003868 -0.017453 0.000000 0.045156 0.000000
# 6 0.000000 0.000000 0.000000 -0.006326 0.000000 0.047051
#
#
# Mechanical properties :
#
#
# Convention : Reuss Voigt Hill
#
# Bulk Modulus (GPa) = 27.59085 46.23437 36.91261
# Shear Modulus (GPa) = 22.88178 32.03847 27.46013
#
# Velocity S-wave (km/s) = 3.34972 3.96369 3.66957
# Velocity P-wave (km/s) = 5.33766 6.60453 6.00460
#
# Compressibility (1/GPa) = 0.03624390
#
# Stress axis : x y z
#
# Youngs Moduli (GPa) = 49.16403 81.63135 30.82206
#
# Poissons Ratio (x) = 0.08473 0.08769
# Poissons Ratio (y) = 0.05103 0.32401
# Poissons Ratio (z) = 0.13987 0.85814
#
# Static dielectric constant tensor:
#      x y z
#    x 1.733140 0.000000 0.071270 
#    y 0.000000 1.692210 0.000000 
#    z 0.071270 0.000000 2.000060 
# 
# From -- ./inp_files/190971.got.cif
#   From: 2010.05.17/outbox.ucp.g08.bks.cvg/sg15_96_cif.got.tgz:190971.got - 2010.06.11 12:40:34.
