data_PCOD9308813
_publ_section_title
;
Structure prediction by ZEFSAII (Michael W. Deem and Ramdas Pophale) SiO2 
 PCOD9308813
Probable space group: C 2/C
;
_chemical_formula_sum "Si O2"
_cell_formula_units_Z 24
_cell_length_a 24.000000
_cell_length_b 21.000000
_cell_length_c 15.000000
_cell_angle_alpha 90.000000
_cell_angle_beta 20.000000
_cell_angle_gamma 90.000000
_cell_volume 2585.672284
_symmetry_space_group_name_H-M "C 2/C"
_symmetry_group_IT_number 15
_symmetry_cell_setting 'monoclinic'
loop_
_space_group_symop_operation_xyz
x,y,z
-x,y,1/2-z
-x,-y,-z
x,-y,1/2+z
1/2+x,1/2+y,z
1/2-x,1/2+y,1/2-z
1/2-x,1/2-y,-z
1/2+x,1/2-y,1/2+z
loop_
_atom_site_type_symbol
_atom_site_label
_atom_site_fract_x
_atom_site_fract_y
_atom_site_fract_z
Si Si1 0.372721 0.697707 0.025714
Si Si2 0.760665 0.567206 0.197394
Si Si3 0.522682 0.893228 0.613403
Si Si4 0.375402 0.964887 0.329247
Si Si5 0.381906 0.223092 0.232846
Si Si6 0.818802 0.053995 0.562738
O O1 0.330829 0.630534 0.134251
O O2 0.207306 0.725991 0.228886
O O3 0.500000 0.691225 0.750000
O O4 0.455085 0.740020 0.980020
O O5 0.683122 0.509814 0.372808
O O6 0.769065 0.552012 0.077735
O O7 0.953904 0.573429 0.928934
O O8 0.500000 0.868012 0.750000
O O9 0.420437 0.849515 0.700340
O O10 0.706441 0.900001 0.296144
O O11 0.440132 0.962729 0.740227
O O12 0.284775 0.956540 0.372049
O O13 0.250000 0.250000 0.500000
O O14 0.000000 0.069970 0.250000
#
# Coordination Sequence:
#
# PCOD9308813 Si02
#       6
#     8   8   8   8   8   8
#     4  10  20  37  58  90 121 157 203 264 305 362
#     4  10  19  38  61  86 119 161 208 243 309 370
#     4  11  19  39  62  86 118 159 208 255 305 365
#     4  10  20  37  61  86 114 169 200 243 309 371
#     4  10  21  37  60  91 117 159 213 256 308 351
#     4  11  22  36  54  91 128 155 196 254 314 365
#
# _framework density 9.2819190000000003
#
# number of rings (size 3 to 8) (size 9 to 14) (size 15 to 20)
#    0.000    1.667    3.333    6.000    0.000    2.000 
#    9.000    0.000    3.667    5.000    0.000    0.000 
#    0.000    0.000    0.000    0.000    0.000    0.000 
#
# Total GULP energy -133708.564799 kJ/mol
# GULP energy per Si atom -5571.190200 kJ/mol
# Density = 0.926079 g / cm^3
# Si number density = 9.281919 Si / 1000 Ang^3
#
#
#
# Elastic Constant Matrix: (Units=GPa)
#
#
# Indices 1 2 3 4 5 6 
#
# 1 101.1644 24.9550 37.4838 0.0049 -1.1664 0.0047
# 2 24.9550 66.5001 23.3712 0.0240 -3.9683 -0.0077
# 3 37.4838 23.3712 96.5070 0.0282 14.2735 -0.0116
# 4 0.0049 0.0240 0.0282 33.2660 -0.0065 0.5485
# 5 -1.1664 -3.9683 14.2735 -0.0065 38.3322 0.0002
# 6 0.0047 -0.0077 -0.0116 0.5485 0.0002 12.9750
#
#
#
# Elastic Compliance Matrix: (Units=1/GPa)
#
#
# Indices 1 2 3 4 5 6 
#
# 1 0.012222 -0.002988 -0.004268 0.000004 0.001652 -0.000010
# 2 -0.002988 0.017589 -0.003550 -0.000009 0.003052 0.000009
# 3 -0.004268 -0.003550 0.013708 -0.000010 -0.005602 0.000012
# 4 0.000004 -0.000009 -0.000010 0.030082 0.000008 -0.001272
# 5 0.001652 0.003052 -0.005602 0.000008 0.028540 -0.000004
# 6 -0.000010 0.000009 0.000012 -0.001272 -0.000004 0.077125
#
#
# Mechanical properties :
#
#
# Convention : Reuss Voigt Hill
#
# Bulk Modulus (GPa) = 45.64858 48.42126 47.03492
# Shear Modulus (GPa) = 24.01762 28.80540 26.41151
#
# Velocity S-wave (km/s) = 3.60083 3.94343 3.77601
# Velocity P-wave (km/s) = 6.47544 6.84649 6.66355
#
# Compressibility (1/GPa) = 0.02190648
#
# Stress axis : x y z
#
# Youngs Moduli (GPa) = 81.81694 56.85450 72.95054
#
# Poissons Ratio (x) = 0.16989 0.31135
# Poissons Ratio (y) = 0.24448 0.25899
# Poissons Ratio (z) = 0.34919 0.20185
#
# Static dielectric constant tensor:
#      x y z
#    x 1.663700 0.000000 -0.032120 
#    y 0.000000 1.671890 0.000000 
#    z -0.032120 0.000000 1.663440 
# 
# From -- ./inp_files/79131.got.cif
#   From: 2010.05.17/outbox.ucp.g08.bks.cvg/sg15_40_cif.got.tgz:79131.got - 2010.06.11 12:40:34.
