data_PCOD9308740
_publ_section_title
;
Structure prediction by ZEFSAII (Michael W. Deem and Ramdas Pophale) SiO2 
 PCOD9308740
Probable space group: C 2/C
;
_chemical_formula_sum "Si O2"
_cell_formula_units_Z 26
_cell_length_a 27.000000
_cell_length_b 21.000000
_cell_length_c 15.000000
_cell_angle_alpha 90.000000
_cell_angle_beta 160.000000
_cell_angle_gamma 90.000000
_cell_volume 2908.881319
_symmetry_space_group_name_H-M "C 2/C"
_symmetry_group_IT_number 15
_symmetry_cell_setting 'monoclinic'
loop_
_space_group_symop_operation_xyz
x,y,z
-x,y,1/2-z
-x,-y,-z
x,-y,1/2+z
1/2+x,1/2+y,z
1/2-x,1/2+y,1/2-z
1/2-x,1/2-y,-z
1/2+x,1/2-y,1/2+z
loop_
_atom_site_type_symbol
_atom_site_label
_atom_site_fract_x
_atom_site_fract_y
_atom_site_fract_z
Si Si1 0.746452 0.291578 0.903656
Si Si2 0.833999 0.471979 0.635720
Si Si3 0.643593 0.974876 0.621883
Si Si4 0.000000 0.627979 0.750000
Si Si5 0.171555 0.174448 0.545989
Si Si6 0.317043 0.429567 0.291767
Si Si7 0.144068 0.093989 0.322182
O O1 0.733149 0.237451 0.806193
O O2 0.636485 0.348922 0.737518
O O3 0.750000 0.250000 0.000000
O O4 0.894063 0.328497 0.129874
O O5 0.808032 0.455429 0.696001
O O6 0.762706 0.429828 0.437990
O O7 0.761955 0.541344 0.498569
O O8 0.004109 0.479947 0.904244
O O9 0.590748 0.916624 0.470999
O O10 0.755827 0.015373 0.753029
O O11 0.200773 0.136313 0.685025
O O12 0.190142 0.126306 0.493835
O O13 0.000000 0.191417 0.250000
O O14 0.488493 0.438053 0.568925
#
# Coordination Sequence:
#
# PCOD9308740 Si02
#       7
#     8   8   8   4   8   8   8
#     4  10  20  34  57  88 111 150 200 251 285 327
#     4  11  21  34  54  87 118 155 189 237 294 362
#     4  11  22  35  57  88 122 149 196 239 298 355
#     4  12  20  38  60  88 116 148 198 248 294 334
#     4   9  18  32  55  85 114 151 194 240 290 340
#     4  11  20  35  56  84 124 156 184 235 307 353
#     4  10  19  34  54  85 119 149 191 241 289 347
#
# _framework density 8.9381439999999994
#
# number of rings (size 3 to 8) (size 9 to 14) (size 15 to 20)
#    0.000    1.538    5.385    0.462    0.000    0.000 
#    0.000    0.000    0.000    0.923    8.000    0.000 
#    0.000    0.000    0.000    0.000    0.000    0.000 
#
# Total GULP energy -144926.439260 kJ/mol
# GULP energy per Si atom -5574.093818 kJ/mol
# Density = 0.891780 g / cm^3
# Si number density = 8.938144 Si / 1000 Ang^3
#
#
#
# Elastic Constant Matrix: (Units=GPa)
#
#
# Indices 1 2 3 4 5 6 
#
# 1 107.7309 47.7385 45.1621 0.0000 -7.0521 0.0000
# 2 47.7385 77.7296 31.0551 0.0000 -5.1182 0.0000
# 3 45.1621 31.0551 60.3495 0.0000 -3.7623 0.0000
# 4 0.0000 0.0000 0.0000 12.9026 0.0000 13.5227
# 5 -7.0521 -5.1182 -3.7623 0.0000 44.0068 0.0000
# 6 0.0000 0.0000 0.0000 13.5227 0.0000 44.3033
#
#
#
# Elastic Compliance Matrix: (Units=1/GPa)
#
#
# Indices 1 2 3 4 5 6 
#
# 1 0.015622 -0.006143 -0.008463 0.000000 0.001065 0.000000
# 2 -0.006143 0.018671 -0.004963 0.000000 0.000763 0.000000
# 3 -0.008463 -0.004963 0.025473 0.000000 0.000244 0.000000
# 4 0.000000 0.000000 0.000000 0.113960 0.000000 -0.034784
# 5 0.001065 0.000763 0.000244 0.000000 0.023004 0.000000
# 6 0.000000 0.000000 0.000000 -0.034784 0.000000 0.033189
#
#
# Mechanical properties :
#
#
# Convention : Reuss Voigt Hill
#
# Bulk Modulus (GPa) = 48.48003 54.85793 51.66898
# Shear Modulus (GPa) = 18.12032 28.36616 23.24324
#
# Velocity S-wave (km/s) = 3.18724 3.98779 3.60978
# Velocity P-wave (km/s) = 6.38148 7.20815 6.80738
#
# Compressibility (1/GPa) = 0.02062705
#
# Stress axis : x y z
#
# Youngs Moduli (GPa) = 64.01177 53.55863 39.25772
#
# Poissons Ratio (x) = 0.32902 0.33224
# Poissons Ratio (y) = 0.39323 0.19485
# Poissons Ratio (z) = 0.54174 0.26583
#
# Static dielectric constant tensor:
#      x y z
#    x 1.654300 0.000000 0.022400 
#    y 0.000000 1.630440 0.000000 
#    z 0.022400 0.000000 1.622020 
# 
# From -- ./inp_files/137220.got.cif
#   From: 2010.05.17/outbox.ucp.g08.bks.cvg/sg15_69_cif.got.tgz:137220.got - 2010.06.11 12:40:34.
