data_PCOD9308913
_publ_section_title
;
Structure prediction by ZEFSAII (Michael W. Deem and Ramdas Pophale) SiO2 
 PCOD9308913
Probable space group: C 2/C
;
_chemical_formula_sum "Si O2"
_cell_formula_units_Z 32
_cell_length_a 27.000000
_cell_length_b 15.000000
_cell_length_c 9.000000
_cell_angle_alpha 90.000000
_cell_angle_beta 70.000000
_cell_angle_gamma 90.000000
_cell_volume 3425.179603
_symmetry_space_group_name_H-M "C 2/C"
_symmetry_group_IT_number 15
_symmetry_cell_setting 'monoclinic'
loop_
_space_group_symop_operation_xyz
x,y,z
-x,y,1/2-z
-x,-y,-z
x,-y,1/2+z
1/2+x,1/2+y,z
1/2-x,1/2+y,1/2-z
1/2-x,1/2-y,-z
1/2+x,1/2-y,1/2+z
loop_
_atom_site_type_symbol
_atom_site_label
_atom_site_fract_x
_atom_site_fract_y
_atom_site_fract_z
Si Si1 0.618103 0.768684 0.412400
Si Si2 0.320589 0.398107 0.597115
Si Si3 0.720026 0.791541 0.795877
Si Si4 0.213913 0.086391 0.707303
Si Si5 0.478961 0.138805 0.424128
Si Si6 0.842558 0.388238 0.391218
Si Si7 0.451237 0.060864 0.912572
Si Si8 0.824597 0.402635 0.931551
O O1 0.627888 0.662838 0.421493
O O2 0.556590 0.791344 0.453971
O O3 0.648560 0.819828 0.250681
O O4 0.635273 0.832531 0.532912
O O5 0.278936 0.323733 0.698547
O O6 0.306464 0.495939 0.685547
O O7 0.314453 0.408658 0.425259
O O8 0.709850 0.684338 0.793159
O O9 0.690797 0.844981 0.695137
O O10 0.701846 0.841066 0.963973
O O11 0.275668 0.081986 0.596482
O O12 0.500000 0.176861 0.250000
O O13 0.530200 0.103769 0.454953
O O14 0.446667 0.045667 0.436045
O O15 0.898092 0.393698 0.418655
O O16 0.835019 0.494730 0.367641
O O17 0.500000 0.073648 0.750000
#
# Coordination Sequence:
#
# PCOD9308913 Si02
#       8
#     8   8   8   8   8   8   8   8
#     4  12  23  38  56  88 121 158 201 245 292 360
#     4  11  24  40  61  84 121 159 204 251 293 348
#     4  11  23  39  57  87 121 167 200 242 295 347
#     4  11  23  41  58  83 123 161 203 253 286 340
#     4  10  22  34  58  82 117 156 193 236 300 366
#     4  12  24  33  60  88 124 161 199 239 294 362
#     4  10  20  36  49  84 121 153 188 240 294 354
#     4  11  21  37  55  85 125 165 199 237 291 346
#
# _framework density 9.3425759999999993
#
# number of rings (size 3 to 8) (size 9 to 14) (size 15 to 20)
#    0.000    1.000    6.250    1.500    5.250    0.500 
#    0.000    0.000    0.000    0.000    0.000    4.375 
#    0.000    0.000    0.000    0.000    0.000    0.000 
#
# Total GULP energy -178171.617990 kJ/mol
# GULP energy per Si atom -5567.863062 kJ/mol
# Density = 0.932131 g / cm^3
# Si number density = 9.342576 Si / 1000 Ang^3
#
#
#
# Elastic Constant Matrix: (Units=GPa)
#
#
# Indices 1 2 3 4 5 6 
#
# 1 -2.9698 7.5878 25.0249 0.0000 8.1010 0.0000
# 2 7.5878 149.4419 17.3412 0.0000 4.3025 0.0000
# 3 25.0249 17.3412 16.4940 0.0000 4.1492 0.0000
# 4 0.0000 0.0000 0.0000 7.0494 0.0000 5.6753
# 5 8.1010 4.3025 4.1492 0.0000 10.2311 0.0000
# 6 0.0000 0.0000 0.0000 5.6753 0.0000 21.5086
#
#
#
# Elastic Compliance Matrix: (Units=1/GPa)
#
#
# Indices 1 2 3 4 5 6 
#
# 1 -0.022747 -0.003244 0.036804 0.000000 0.004450 0.000000
# 2 -0.003244 0.007159 -0.002777 0.000000 0.000684 0.000000
# 3 0.036804 -0.002777 0.016421 0.000000 -0.034633 0.000000
# 4 0.000000 0.000000 0.000000 0.180118 0.000000 -0.047526
# 5 0.004450 0.000684 -0.034633 0.000000 0.107975 0.000000
# 6 0.000000 0.000000 0.000000 -0.047526 0.000000 0.059033
#
#
# Mechanical properties :
#
#
# Convention : Reuss Voigt Hill
#
# Bulk Modulus (GPa) = 16.02613 29.20821 22.61717
# Shear Modulus (GPa) = 16.27642 15.29197 15.78420
#
# Velocity S-wave (km/s) = 2.95462 2.86388 2.90960
# Velocity P-wave (km/s) = 4.49836 5.15766 4.83925
#
# Compressibility (1/GPa) = 0.06239808
#
# Stress axis : x y z
#
# Youngs Moduli (GPa) = -43.96103 139.68788 60.89735
#
# Poissons Ratio (x) = 0.45312 -2.24125
# Poissons Ratio (y) = -0.14260 0.16912
# Poissons Ratio (z) = 1.61793 0.38793
#
# Static dielectric constant tensor:
#      x y z
#    x 1.765950 0.000000 0.031020 
#    y 0.000000 1.619360 0.000000 
#    z 0.031020 0.000000 1.736420 
# 
# From -- ./inp_files/66202.got.cif
#   From: 2010.05.17/outbox.ucp.g08.bks.cvg/sg15_34_cif.got.tgz:66202.got - 2010.06.11 12:40:34.
