data_PCOD9308389
_publ_section_title
;
Structure prediction by ZEFSAII (Michael W. Deem and Ramdas Pophale) SiO2 
 PCOD9308389
Probable space group: C 2/C
;
_chemical_formula_sum "Si O2"
_cell_formula_units_Z 32
_cell_length_a 12.157682
_cell_length_b 8.873597
_cell_length_c 13.808651
_cell_angle_alpha 90.000000
_cell_angle_beta 63.279808
_cell_angle_gamma 90.000000
_cell_volume 1330.628319
_symmetry_space_group_name_H-M "C 2/C"
_symmetry_group_IT_number 15
_symmetry_cell_setting 'monoclinic'
loop_
_space_group_symop_operation_xyz
x,y,z
-x,y,1/2-z
-x,-y,-z
x,-y,1/2+z
1/2+x,1/2+y,z
1/2-x,1/2+y,1/2-z
1/2-x,1/2-y,-z
1/2+x,1/2-y,1/2+z
loop_
_atom_site_type_symbol
_atom_site_label
_atom_site_fract_x
_atom_site_fract_y
_atom_site_fract_z
Si Si1 0.850886 0.249208 0.876301
Si Si2 0.699579 0.755258 0.238904
Si Si3 0.500000 0.480824 0.750000
Si Si4 0.750000 0.250000 0.500000
Si Si5 0.487381 0.039221 0.892902
O O1 0.785867 0.261698 0.798016
O O2 0.924341 0.091571 0.850110
O O3 0.750000 0.250000 0.000000
O O4 0.937506 0.388806 0.863809
O O5 0.601547 0.618932 0.264176
O O6 0.612941 0.898488 0.297289
O O7 0.775069 0.759429 0.109254
O O8 0.617170 0.167624 0.572345
O O9 0.500000 0.000000 0.000000
#
# Coordination Sequence:
#
# PCOD9308389 Si02
#       5
#     8   8   4   4   8
#     4  12  30  50  81 117 153 204 272 327 392 476
#     4  12  29  51  78 116 161 206 268 324 403 475
#     4  12  30  50  76 120 154 212 254 324 400 468
#     4  12  28  48  82 110 158 212 256 320 408 466
#     4  12  28  52  82 115 159 212 265 335 397 475
#
# _framework density 24.048791999999999
#
# number of rings (size 3 to 8) (size 9 to 14) (size 15 to 20)
#    0.000    0.000    5.000    1.500   10.500    1.000 
#    0.000    0.000    0.000    0.000    0.000    0.000 
#    0.000    0.000    0.000    0.000    0.000    0.000 
#
# Total GULP energy -89253.062864 kJ/mol
# GULP energy per Si atom -5578.316429 kJ/mol
# Density = 2.399406 g / cm^3
# Si number density = 24.048792 Si / 1000 Ang^3
#
#
#
# Elastic Constant Matrix: (Units=GPa)
#
#
# Indices 1 2 3 4 5 6 
#
# 1 103.2267 48.1828 35.4353 0.0000 26.2743 0.0000
# 2 48.1828 108.9567 33.9826 0.0000 0.0862 0.0000
# 3 35.4353 33.9826 212.7416 0.0000 21.3739 0.0000
# 4 0.0000 0.0000 0.0000 36.4908 0.0000 4.3469
# 5 26.2743 0.0862 21.3739 0.0000 52.6279 0.0000
# 6 0.0000 0.0000 0.0000 4.3469 0.0000 38.8292
#
#
#
# Elastic Compliance Matrix: (Units=1/GPa)
#
#
# Indices 1 2 3 4 5 6 
#
# 1 0.014631 -0.006234 -0.000738 0.000000 -0.006994 0.000000
# 2 -0.006234 0.012336 -0.001296 0.000000 0.003618 0.000000
# 3 -0.000738 -0.001296 0.005206 0.000000 -0.001743 0.000000
# 4 0.000000 0.000000 0.000000 0.027775 0.000000 -0.003109
# 5 -0.006994 0.003618 -0.001743 0.000000 0.023195 0.000000
# 6 0.000000 0.000000 0.000000 -0.003109 0.000000 0.026102
#
#
# Mechanical properties :
#
#
# Convention : Reuss Voigt Hill
#
# Bulk Modulus (GPa) = 63.95471 73.34739 68.65105
# Shear Modulus (GPa) = 38.16972 46.07785 42.12378
#
# Velocity S-wave (km/s) = 3.98826 4.38198 4.18975
# Velocity P-wave (km/s) = 6.91808 7.49453 7.21206
#
# Compressibility (1/GPa) = 0.01563607
#
# Stress axis : x y z
#
# Youngs Moduli (GPa) = 68.34708 81.06257 192.09859
#
# Poissons Ratio (x) = 0.50537 0.14186
# Poissons Ratio (y) = 0.42610 0.24889
# Poissons Ratio (z) = 0.05047 0.10503
#
# Static dielectric constant tensor:
#      x y z
#    x 1.929910 0.000000 -0.010840 
#    y 0.000000 1.971580 0.000000 
#    z -0.010840 0.000000 1.919680 
# 
# From -- ./inp_files/93205.got.cif
#   From: 2010.05.17/outbox.cif.g08.bks.cpg/sg15_47_cif.got.tgz:93205.got - 2010.06.03 18:47:42.
