data_PCOD9308220
_publ_section_title
;
Structure prediction by ZEFSAII (Michael W. Deem and Ramdas Pophale) SiO2 
 PCOD9308220
Probable space group: C 2/C
;
_chemical_formula_sum "Si O2"
_cell_formula_units_Z 40
_cell_length_a 17.561380
_cell_length_b 8.523409
_cell_length_c 11.186234
_cell_angle_alpha 90.000000
_cell_angle_beta 112.345473
_cell_angle_gamma 90.000000
_cell_volume 1548.654475
_symmetry_space_group_name_H-M "C 2/C"
_symmetry_group_IT_number 15
_symmetry_cell_setting 'monoclinic'
loop_
_space_group_symop_operation_xyz
x,y,z
-x,y,1/2-z
-x,-y,-z
x,-y,1/2+z
1/2+x,1/2+y,z
1/2-x,1/2+y,1/2-z
1/2-x,1/2-y,-z
1/2+x,1/2-y,1/2+z
loop_
_atom_site_type_symbol
_atom_site_label
_atom_site_fract_x
_atom_site_fract_y
_atom_site_fract_z
Si Si1 0.384724 0.820714 0.163436
Si Si2 0.233598 0.082312 0.739826
Si Si3 0.073545 0.116098 0.090521
Si Si4 0.149097 0.353079 0.607378
Si Si5 0.025171 0.631025 0.382926
O O1 0.303472 0.875626 0.184749
O O2 0.568067 0.706950 0.215753
O O3 0.430227 0.978136 0.143177
O O4 0.361429 0.751923 0.019646
O O5 0.188313 0.246711 0.735329
O O6 0.159253 0.973695 0.652260
O O7 0.284918 0.990952 0.871246
O O8 0.076514 0.257247 0.998102
O O9 0.000000 0.000000 0.000000
O O10 0.060028 0.407658 0.599014
O O11 0.000000 0.727812 0.250000
#
# Coordination Sequence:
#
# PCOD9308220 Si02
#       5
#     8   8   8   8   8
#     4  12  28  50  85 117 169 227 282 350 436 514
#     4  12  26  49  81 118 164 222 280 353 426 498
#     4  12  29  52  81 126 170 219 287 364 427 505
#     4  12  27  51  78 121 166 220 287 349 427 509
#     4  12  28  48  80 118 165 225 280 350 427 508
#
# _framework density 25.828875
#
# number of rings (size 3 to 8) (size 9 to 14) (size 15 to 20)
#    0.000    0.000    6.000    2.400    2.800    4.000 
#    3.600    0.000    0.000    0.000    0.000    0.000 
#    0.000    0.000    0.000    0.000    0.000    0.000 
#
# Total GULP energy -111866.124941 kJ/mol
# GULP energy per Si atom -5593.306247 kJ/mol
# Density = 2.577009 g / cm^3
# Si number density = 25.828875 Si / 1000 Ang^3
#
#
#
# Elastic Constant Matrix: (Units=GPa)
#
#
# Indices 1 2 3 4 5 6 
#
# 1 153.3560 50.2011 45.0792 0.0000 18.2771 0.0000
# 2 50.2011 131.2641 55.1825 0.0000 17.4724 0.0000
# 3 45.0792 55.1825 167.3310 0.0000 5.3097 0.0000
# 4 0.0000 0.0000 0.0000 66.2616 0.0000 21.4791
# 5 18.2771 17.4724 5.3097 0.0000 49.6527 0.0000
# 6 0.0000 0.0000 0.0000 21.4791 0.0000 47.0043
#
#
#
# Elastic Compliance Matrix: (Units=1/GPa)
#
#
# Indices 1 2 3 4 5 6 
#
# 1 0.007864 -0.002182 -0.001336 0.000000 -0.001984 0.000000
# 2 -0.002182 0.009858 -0.002588 0.000000 -0.002389 0.000000
# 3 -0.001336 -0.002588 0.007169 0.000000 0.000636 0.000000
# 4 0.000000 0.000000 0.000000 0.017716 0.000000 -0.008095
# 5 -0.001984 -0.002389 0.000636 0.000000 0.021643 0.000000
# 6 0.000000 0.000000 0.000000 -0.008095 0.000000 0.024974
#
#
# Mechanical properties :
#
#
# Convention : Reuss Voigt Hill
#
# Bulk Modulus (GPa) = 78.85814 83.65297 81.25556
# Shear Modulus (GPa) = 47.32032 52.68295 50.00164
#
# Velocity S-wave (km/s) = 4.28491 4.52119 4.40464
# Velocity P-wave (km/s) = 7.42145 7.72739 7.57597
#
# Compressibility (1/GPa) = 0.01268100
#
# Stress axis : x y z
#
# Youngs Moduli (GPa) = 127.15805 101.43573 139.48383
#
# Poissons Ratio (x) = 0.22131 0.18637
# Poissons Ratio (y) = 0.27743 0.36092
# Poissons Ratio (z) = 0.16990 0.26247
#
# Static dielectric constant tensor:
#      x y z
#    x 1.997040 0.000000 0.042690 
#    y 0.000000 2.106160 0.000000 
#    z 0.042690 0.000000 2.257800 
# 
# From -- ./inp_files/150771.got.cif
#   From: 2010.05.17/outbox.cif.g08.bks.cpg/sg15_76_cif.got.tgz:150771.got - 2010.06.03 18:47:42.
