data_PCOD9308169
_publ_section_title
;
Structure prediction by ZEFSAII (Michael W. Deem and Ramdas Pophale) SiO2 
 PCOD9308169
Probable space group: C 2/C
;
_chemical_formula_sum "Si O2"
_cell_formula_units_Z 36
_cell_length_a 15.865965
_cell_length_b 11.495401
_cell_length_c 15.233502
_cell_angle_alpha 90.000000
_cell_angle_beta 142.954577
_cell_angle_gamma 90.000000
_cell_volume 1673.824505
_symmetry_space_group_name_H-M "C 2/C"
_symmetry_group_IT_number 15
_symmetry_cell_setting 'monoclinic'
loop_
_space_group_symop_operation_xyz
x,y,z
-x,y,1/2-z
-x,-y,-z
x,-y,1/2+z
1/2+x,1/2+y,z
1/2-x,1/2+y,1/2-z
1/2-x,1/2-y,-z
1/2+x,1/2-y,1/2+z
loop_
_atom_site_type_symbol
_atom_site_label
_atom_site_fract_x
_atom_site_fract_y
_atom_site_fract_z
Si Si1 0.395358 0.018644 0.492853
Si Si2 0.601163 0.220333 0.414984
Si Si3 0.025929 0.862367 0.036131
Si Si4 0.802355 0.227249 0.213279
Si Si5 0.500000 0.843739 0.250000
O O1 0.272238 0.102885 0.359642
O O2 0.459692 0.079814 0.632428
O O3 0.500000 0.000000 0.500000
O O4 0.363173 0.889366 0.495326
O O5 0.500000 0.189783 0.250000
O O6 0.750000 0.250000 0.500000
O O7 0.526397 0.319076 0.411960
O O8 0.184329 0.818638 0.148308
O O9 0.927591 0.792390 0.885895
O O10 0.000000 0.000000 0.000000
O O11 0.871472 0.267449 0.179399
#
# Coordination Sequence:
#
# PCOD9308169 Si02
#       5
#     8   8   8   8   4
#     4  12  26  49  80 105 156 202 250 315 385 457
#     4  12  28  48  75 112 149 198 258 315 385 453
#     4  12  30  48  79 112 160 204 257 321 392 461
#     4  12  27  49  77 114 155 201 262 311 391 459
#     4  12  26  48  76 118 150 200 258 312 388 464
#
# _framework density 21.507629999999999
#
# number of rings (size 3 to 8) (size 9 to 14) (size 15 to 20)
#    0.000    0.000    5.556    2.000   12.444    0.000 
#    0.000    0.000    0.000    0.000    0.000    0.000 
#    0.000    0.000    0.000    0.000    0.000    0.000 
#
# Total GULP energy -100724.125765 kJ/mol
# GULP energy per Si atom -5595.784765 kJ/mol
# Density = 2.145868 g / cm^3
# Si number density = 21.507630 Si / 1000 Ang^3
#
#
#
# Elastic Constant Matrix: (Units=GPa)
#
#
# Indices 1 2 3 4 5 6 
#
# 1 216.2143 76.5089 31.8412 0.0000 17.7772 0.0000
# 2 76.5089 138.1051 -1.9650 0.0000 12.8813 0.0000
# 3 31.8412 -1.9650 81.5704 0.0000 4.6316 0.0000
# 4 0.0000 0.0000 0.0000 26.2029 0.0000 -17.3203
# 5 17.7772 12.8813 4.6316 0.0000 42.6966 0.0000
# 6 0.0000 0.0000 0.0000 -17.3203 0.0000 42.8326
#
#
#
# Elastic Compliance Matrix: (Units=1/GPa)
#
#
# Indices 1 2 3 4 5 6 
#
# 1 0.006301 -0.003402 -0.002466 0.000000 -0.001330 0.000000
# 2 -0.003402 0.009295 0.001641 0.000000 -0.001566 0.000000
# 3 -0.002466 0.001641 0.013313 0.000000 -0.000912 0.000000
# 4 0.000000 0.000000 0.000000 0.052086 0.000000 0.021062
# 5 -0.001330 -0.001566 -0.000912 0.000000 0.024546 0.000000
# 6 0.000000 0.000000 0.000000 0.021062 0.000000 0.031864
#
#
# Mechanical properties :
#
#
# Convention : Reuss Voigt Hill
#
# Bulk Modulus (GPa) = 48.88810 72.07334 60.48072
# Shear Modulus (GPa) = 32.74859 44.31340 38.53100
#
# Velocity S-wave (km/s) = 3.90635 4.54404 4.23721
# Velocity P-wave (km/s) = 6.56704 7.81757 7.21943
#
# Compressibility (1/GPa) = 0.02045488
#
# Stress axis : x y z
#
# Youngs Moduli (GPa) = 158.69560 107.58584 75.11246
#
# Poissons Ratio (x) = 0.36600 0.18524
# Poissons Ratio (y) = 0.53988 -0.12324
# Poissons Ratio (z) = 0.39138 -0.17653
#
# Static dielectric constant tensor:
#      x y z
#    x 1.702240 0.000000 0.005480 
#    y 0.000000 1.776640 0.000000 
#    z 0.005480 0.000000 1.808160 
# 
# From -- ./inp_files/152805.got.cif
#   From: 2010.05.17/outbox.cif.g08.bks.cpg/sg15_77_cif.got.tgz:152805.got - 2010.06.03 18:47:42.
