data_PCOD9308590
_publ_section_title
;
Structure prediction by ZEFSAII (Michael W. Deem and Ramdas Pophale) SiO2 
 PCOD9308590
Probable space group: C 2/C
;
_chemical_formula_sum "Si O2"
_cell_formula_units_Z 48
_cell_length_a 7.885567
_cell_length_b 28.886132
_cell_length_c 8.710071
_cell_angle_alpha 90.000000
_cell_angle_beta 106.349370
_cell_angle_gamma 90.000000
_cell_volume 1903.783458
_symmetry_space_group_name_H-M "C 2/C"
_symmetry_group_IT_number 15
_symmetry_cell_setting 'monoclinic'
loop_
_space_group_symop_operation_xyz
x,y,z
-x,y,1/2-z
-x,-y,-z
x,-y,1/2+z
1/2+x,1/2+y,z
1/2-x,1/2+y,1/2-z
1/2-x,1/2-y,-z
1/2+x,1/2-y,1/2+z
loop_
_atom_site_type_symbol
_atom_site_label
_atom_site_fract_x
_atom_site_fract_y
_atom_site_fract_z
Si Si1 0.619972 0.800319 0.640787
Si Si2 0.471742 0.364441 0.484113
Si Si3 0.248548 0.106748 0.269403
Si Si4 0.702715 0.988281 0.577290
Si Si5 0.716871 0.068660 0.783607
Si Si6 0.908308 0.765181 0.926266
O O1 0.500000 0.783175 0.750000
O O2 0.604265 0.855768 0.645377
O O3 0.813833 0.783581 0.746352
O O4 0.543625 0.777780 0.468219
O O5 0.376427 0.380467 0.617378
O O6 0.668626 0.381493 0.582035
O O7 0.341101 0.386482 0.325715
O O8 0.489995 0.309526 0.477567
O O9 0.287331 0.052737 0.294233
O O10 0.770587 0.964613 0.440488
O O11 0.500000 0.000000 0.500000
O O12 0.772315 0.037038 0.654134
O O13 0.500000 0.076322 0.750000
O O14 0.750000 0.750000 0.000000
#
# Coordination Sequence:
#
# PCOD9308590 Si02
#       6
#     8   8   8   8   8   8
#     4   9  18  33  53  75 107 146 185 232 292 351
#     4   9  18  34  55  78 110 146 194 237 293 353
#     4   9  18  33  55  79 107 150 193 234 285 359
#     4   9  18  33  53  78 114 150 195 238 287 349
#     4   9  18  34  55  80 117 155 195 244 296 350
#     4   9  18  35  55  76 108 146 184 239 295 355
#
# _framework density 25.212949999999999
#
# number of rings (size 3 to 8) (size 9 to 14) (size 15 to 20)
#    0.000    3.000    0.000    0.000    0.000    3.333 
#    9.000    0.000   14.667    0.000    0.000    0.000 
#    0.000    0.000    0.000    0.000    0.000    0.000 
#
# Total GULP energy -133671.890052 kJ/mol
# GULP energy per Si atom -5569.662085 kJ/mol
# Density = 2.515556 g / cm^3
# Si number density = 25.212950 Si / 1000 Ang^3
#
#
#
# Elastic Constant Matrix: (Units=GPa)
#
#
# Indices 1 2 3 4 5 6 
#
# 1 56.2159 26.1008 7.1499 0.0000 12.9602 0.0000
# 2 26.1008 144.8255 30.4185 0.0000 24.6033 0.0000
# 3 7.1499 30.4185 48.4624 0.0000 15.7656 0.0000
# 4 0.0000 0.0000 0.0000 87.2858 0.0000 116.7169
# 5 12.9602 24.6033 15.7656 0.0000 28.6218 0.0000
# 6 0.0000 0.0000 0.0000 116.7169 0.0000 356.2958
#
#
#
# Elastic Compliance Matrix: (Units=1/GPa)
#
#
# Indices 1 2 3 4 5 6 
#
# 1 0.020649 -0.002650 0.001118 0.000000 -0.007688 0.000000
# 2 -0.002650 0.008922 -0.003782 0.000000 -0.004386 0.000000
# 3 0.001118 -0.003782 0.026743 0.000000 -0.011986 0.000000
# 4 0.000000 0.000000 0.000000 0.020387 0.000000 -0.006678
# 5 -0.007688 -0.004386 -0.011986 0.000000 0.048791 0.000000
# 6 0.000000 0.000000 0.000000 -0.006678 0.000000 0.004994
#
#
# Mechanical properties :
#
#
# Convention : Reuss Voigt Hill
#
# Bulk Modulus (GPa) = 21.88910 41.87136 31.88023
# Shear Modulus (GPa) = 31.98073 106.82964 69.40519
#
# Velocity S-wave (km/s) = 3.56536 6.51636 5.25237
# Velocity P-wave (km/s) = 5.06454 8.55923 7.03242
#
# Compressibility (1/GPa) = 0.04568483
#
# Stress axis : x y z
#
# Youngs Moduli (GPa) = 48.42788 112.08252 37.39337
#
# Poissons Ratio (x) = 0.29705 -0.04180
# Poissons Ratio (y) = 0.12835 0.14143
# Poissons Ratio (z) = -0.05414 0.42393
#
# Static dielectric constant tensor:
#      x y z
#    x 2.556250 0.000000 -0.391680 
#    y 0.000000 1.966650 0.000000 
#    z -0.391680 0.000000 2.291520 
# 
# From -- ./inp_files/80911.got.cif
#   From: 2010.05.17/outbox.cif.g08.bks.cpg/sg15_41_cif.got.tgz:80911.got - 2010.06.03 18:47:42.
