data_PCOD9308459
_publ_section_title
;
Structure prediction by ZEFSAII (Michael W. Deem and Ramdas Pophale) SiO2 
 PCOD9308459
Probable space group: C 2/C
;
_chemical_formula_sum "Si O2"
_cell_formula_units_Z 64
_cell_length_a 22.805120
_cell_length_b 6.837439
_cell_length_c 13.806767
_cell_angle_alpha 90.000000
_cell_angle_beta 100.427430
_cell_angle_gamma 90.000000
_cell_volume 2117.315294
_symmetry_space_group_name_H-M "C 2/C"
_symmetry_group_IT_number 15
_symmetry_cell_setting 'monoclinic'
loop_
_space_group_symop_operation_xyz
x,y,z
-x,y,1/2-z
-x,-y,-z
x,-y,1/2+z
1/2+x,1/2+y,z
1/2-x,1/2+y,1/2-z
1/2-x,1/2-y,-z
1/2+x,1/2-y,1/2+z
loop_
_atom_site_type_symbol
_atom_site_label
_atom_site_fract_x
_atom_site_fract_y
_atom_site_fract_z
Si Si1 0.317057 0.530927 0.133815
Si Si2 0.547099 0.297172 0.020899
Si Si3 0.438502 0.385368 0.701036
Si Si4 0.196068 0.442484 0.064967
Si Si5 0.073191 0.642342 0.508102
Si Si6 0.669945 0.403538 0.090489
Si Si7 0.571489 0.050644 0.279951
Si Si8 0.203817 0.506253 0.839749
O O1 0.381220 0.480434 0.195412
O O2 0.258498 0.404315 0.135488
O O3 0.308418 0.758852 0.157897
O O4 0.323782 0.526181 0.019280
O O5 0.560251 0.324876 0.911403
O O6 0.554010 0.064581 0.050935
O O7 0.475784 0.312435 0.005870
O O8 0.599553 0.403722 0.094462
O O9 0.500000 0.479024 0.750000
O O10 0.435108 0.177634 0.753298
O O11 0.183331 0.670356 0.083522
O O12 0.138204 0.315648 0.070736
O O13 0.203206 0.436720 0.951550
O O14 0.079615 0.588126 0.397331
O O15 0.725042 0.498718 0.165239
O O16 0.500000 0.116359 0.250000
O O17 0.643500 0.079520 0.271332
#
# Coordination Sequence:
#
# PCOD9308459 Si02
#       8
#     8   8   8   8   8   8   8   8
#     4   7   9  13  20  28  37  50  70  97 122 141
#     4   8  12  16  21  29  41  57  78 103 125 143
#     4   8  12  16  21  29  41  57  78 103 127 147
#     4   7   9  13  20  28  37  50  70  97 122 141
#     4   8  12  16  21  29  41  57  78 103 125 143
#     4   7   9  13  20  28  37  50  70  97 122 141
#     4   8  12  16  21  29  41  57  78 103 127 147
#     4   7   9  13  20  28  37  50  70  97 122 141
#
# _framework density 30.226959999999998
#
# number of rings (size 3 to 8) (size 9 to 14) (size 15 to 20)
#    0.000    4.500    0.000    4.500    0.000    0.000 
#    0.000    0.000    0.000    0.000    0.000    0.000 
#    0.000    0.000    0.000    0.000    0.000    2.500 
#
# Total GULP energy -178708.038372 kJ/mol
# GULP energy per Si atom -5584.626199 kJ/mol
# Density = 3.015816 g / cm^3
# Si number density = 30.226960 Si / 1000 Ang^3
#
#
#
# Elastic Constant Matrix: (Units=GPa)
#
#
# Indices 1 2 3 4 5 6 
#
# 1 274.2171 57.8362 93.8143 0.0000 120.8770 0.0000
# 2 57.8362 144.0532 21.8402 0.0000 12.8035 0.0000
# 3 93.8143 21.8402 161.6100 0.0000 38.0622 0.0000
# 4 0.0000 0.0000 0.0000 6.6100 0.0000 8.3906
# 5 120.8770 12.8035 38.0622 0.0000 82.3561 0.0000
# 6 0.0000 0.0000 0.0000 8.3906 0.0000 46.4729
#
#
#
# Elastic Compliance Matrix: (Units=1/GPa)
#
#
# Indices 1 2 3 4 5 6 
#
# 1 0.012797 -0.003178 -0.003020 0.000000 -0.016892 0.000000
# 2 -0.003178 0.007917 -0.000038 0.000000 0.003452 0.000000
# 3 -0.003020 -0.000038 0.007744 0.000000 0.000860 0.000000
# 4 0.000000 0.000000 0.000000 0.196265 0.000000 -0.035435
# 5 -0.016892 0.003452 0.000860 0.000000 0.036001 0.000000
# 6 0.000000 0.000000 0.000000 -0.035435 0.000000 0.027916
#
#
# Mechanical properties :
#
#
# Convention : Reuss Voigt Hill
#
# Bulk Modulus (GPa) = 62.56375 102.98461 82.77418
# Shear Modulus (GPa) = 16.31639 54.18045 35.24842
#
# Velocity S-wave (km/s) = 2.32587 4.23833 3.41856
# Velocity P-wave (km/s) = 5.28733 7.62205 6.55940
#
# Compressibility (1/GPa) = 0.01598370
#
# Stress axis : x y z
#
# Youngs Moduli (GPa) = 78.14623 126.31163 129.13880
#
# Poissons Ratio (x) = 0.40147 0.39006
# Poissons Ratio (y) = 0.24838 0.00488
# Poissons Ratio (z) = 0.23604 0.00477
#
# Static dielectric constant tensor:
#      x y z
#    x 2.507040 0.000000 0.019300 
#    y 0.000000 2.337470 0.000000 
#    z 0.019300 0.000000 2.275160 
# 
# From -- ./inp_files/248825.got.cif
#   From: 2010.05.17/outbox.cif.g08.bks.cpg/sg15_125_cif.got.tgz:248825.got - 2010.06.03 18:47:42.
