data_PCOD9308055
_publ_section_title
;
Structure prediction by ZEFSAII (Michael W. Deem and Ramdas Pophale) SiO2 
 PCOD9308055
Probable space group: C 2/C
;
_chemical_formula_sum "Si O2"
_cell_formula_units_Z 52
_cell_length_a 8.812336
_cell_length_b 18.441074
_cell_length_c 16.799156
_cell_angle_alpha 90.000000
_cell_angle_beta 56.820238
_cell_angle_gamma 90.000000
_cell_volume 2284.905356
_symmetry_space_group_name_H-M "C 2/C"
_symmetry_group_IT_number 15
_symmetry_cell_setting 'monoclinic'
loop_
_space_group_symop_operation_xyz
x,y,z
-x,y,1/2-z
-x,-y,-z
x,-y,1/2+z
1/2+x,1/2+y,z
1/2-x,1/2+y,1/2-z
1/2-x,1/2-y,-z
1/2+x,1/2-y,1/2+z
loop_
_atom_site_type_symbol
_atom_site_label
_atom_site_fract_x
_atom_site_fract_y
_atom_site_fract_z
Si Si1 0.428642 0.572502 0.869348
Si Si2 0.753169 0.834179 0.699140
Si Si3 0.657051 0.939297 0.587540
Si Si4 0.763700 0.571104 0.137625
Si Si5 0.153735 0.825951 0.524398
Si Si6 0.302833 0.089716 0.834074
Si Si7 0.500000 0.706352 0.750000
O O1 0.340217 0.504442 0.848610
O O2 0.647298 0.570226 0.814848
O O3 0.396704 0.650932 0.838475
O O4 0.334439 0.568523 0.982481
O O5 0.654862 0.878154 0.656027
O O6 0.785628 0.885703 0.766591
O O7 0.642749 0.760937 0.750370
O O8 0.944330 0.815425 0.604869
O O9 0.479253 0.938391 0.584467
O O10 0.657066 0.015095 0.632480
O O11 0.725134 0.620050 0.072048
O O12 0.250000 0.750000 0.500000
O O13 0.202720 0.858486 0.424855
O O14 0.500000 0.118087 0.750000
#
# Coordination Sequence:
#
# PCOD9308055 Si02
#       7
#     8   8   8   8   8   8   4
#     4  12  29  49  83 112 157 206 271 326 388 479
#     4  12  27  53  77 115 165 211 254 331 409 471
#     4  12  25  50  83 112 159 206 262 329 408 467
#     4  12  27  49  81 121 153 212 266 327 396 489
#     4  12  30  47  79 111 168 211 270 327 406 471
#     4  12  28  48  78 118 158 209 270 335 391 471
#     4  12  32  48  84 120 160 208 270 324 406 476
#
# _framework density 22.758054000000001
#
# number of rings (size 3 to 8) (size 9 to 14) (size 15 to 20)
#    0.000    0.000    4.615    3.231   12.923    0.615 
#    0.000    0.000    0.000    0.000    0.000    0.000 
#    0.000    0.000    0.000    0.000    0.000    0.000 
#
# Total GULP energy -145563.945402 kJ/mol
# GULP energy per Si atom -5598.613285 kJ/mol
# Density = 2.270626 g / cm^3
# Si number density = 22.758054 Si / 1000 Ang^3
#
#
#
# Elastic Constant Matrix: (Units=GPa)
#
#
# Indices 1 2 3 4 5 6 
#
# 1 129.6722 49.4150 35.4015 0.0000 -18.1495 0.0000
# 2 49.4150 147.8777 38.0945 0.0000 -0.4985 0.0000
# 3 35.4015 38.0945 133.7510 0.0000 -8.5607 0.0000
# 4 0.0000 0.0000 0.0000 217.4598 0.0000 304.6923
# 5 -18.1495 -0.4985 -8.5607 0.0000 42.4958 0.0000
# 6 0.0000 0.0000 0.0000 304.6923 0.0000 551.1637
#
#
#
# Elastic Compliance Matrix: (Units=1/GPa)
#
#
# Indices 1 2 3 4 5 6 
#
# 1 0.009750 -0.002853 -0.001523 0.000000 0.003824 0.000000
# 2 -0.002853 0.008137 -0.001656 0.000000 -0.001456 0.000000
# 3 -0.001523 -0.001656 0.008417 0.000000 0.001026 0.000000
# 4 0.000000 0.000000 0.000000 0.020399 0.000000 -0.011277
# 5 0.003824 -0.001456 0.001026 0.000000 0.025354 0.000000
# 6 0.000000 0.000000 0.000000 -0.011277 0.000000 0.008049
#
#
# Mechanical properties :
#
#
# Convention : Reuss Voigt Hill
#
# Bulk Modulus (GPa) = 70.22262 73.01365 71.61813
# Shear Modulus (GPa) = 51.59047 181.44985 116.52016
#
# Velocity S-wave (km/s) = 4.76637 8.93885 7.16315
# Velocity P-wave (km/s) = 7.82395 11.77665 9.99759
#
# Compressibility (1/GPa) = 0.01424043
#
# Stress axis : x y z
#
# Youngs Moduli (GPa) = 102.56466 122.89169 118.80673
#
# Poissons Ratio (x) = 0.35058 0.18099
# Poissons Ratio (y) = 0.29259 0.19672
# Poissons Ratio (z) = 0.15625 0.20348
#
# Static dielectric constant tensor:
#      x y z
#    x 1.912830 0.000000 -0.002670 
#    y 0.000000 1.811680 0.000000 
#    z -0.002670 0.000000 1.903910 
# 
# From -- ./inp_files/190853.got.cif
#   From: 2010.05.17/outbox.cif.g08.bks.cpg/sg15_96_cif.got.tgz:190853.got - 2010.06.03 18:47:42.
