data_PCOD9308359
_publ_section_title
;
Structure prediction by ZEFSAII (Michael W. Deem and Ramdas Pophale) SiO2 
 PCOD9308359
Probable space group: C 2/C
;
_chemical_formula_sum "Si O2"
_cell_formula_units_Z 36
_cell_length_a 31.099790
_cell_length_b 5.231180
_cell_length_c 13.857062
_cell_angle_alpha 90.000000
_cell_angle_beta 140.526822
_cell_angle_gamma 90.000000
_cell_volume 1433.151349
_symmetry_space_group_name_H-M "C 2/C"
_symmetry_group_IT_number 15
_symmetry_cell_setting 'monoclinic'
loop_
_space_group_symop_operation_xyz
x,y,z
-x,y,1/2-z
-x,-y,-z
x,-y,1/2+z
1/2+x,1/2+y,z
1/2-x,1/2+y,1/2-z
1/2-x,1/2-y,-z
1/2+x,1/2-y,1/2+z
loop_
_atom_site_type_symbol
_atom_site_label
_atom_site_fract_x
_atom_site_fract_y
_atom_site_fract_z
Si Si1 0.827671 0.746276 0.691289
Si Si2 0.500000 0.442732 0.250000
Si Si3 0.734559 0.254497 0.324953
Si Si4 0.024100 0.251801 0.988022
Si Si5 0.649759 0.394314 0.991629
O O1 0.794949 0.476949 0.662041
O O2 0.782970 0.982652 0.652004
O O3 0.845211 0.784072 0.608707
O O4 0.895725 0.756964 0.871153
O O5 0.507344 0.264114 0.170887
O O6 0.570509 0.595746 0.381836
O O7 0.812939 0.173768 0.447616
O O8 0.694439 0.258838 0.152898
O O9 0.000000 0.500000 0.000000
O O10 0.000000 0.000000 0.000000
#
# Coordination Sequence:
#
# PCOD9308359 Si02
#       5
#     8   4   8   8   8
#     4  12  27  51  85 114 159 214 270 332 398 483
#     4  12  28  54  84 122 162 220 268 338 406 488
#     4  12  28  52  79 119 160 208 271 333 401 479
#     4  12  27  51  78 119 165 208 269 328 404 480
#     4  12  28  52  85 118 165 214 273 335 409 482
#
# _framework density 25.119468999999999
#
# number of rings (size 3 to 8) (size 9 to 14) (size 15 to 20)
#    0.000    0.000    4.444    4.000    0.000    6.222 
#    0.000    0.000    0.000    0.000    0.000    0.000 
#    0.000    0.000    0.000    0.000    0.000    0.000 
#
# Total GULP energy -100971.767796 kJ/mol
# GULP energy per Si atom -5609.542655 kJ/mol
# Density = 2.506230 g / cm^3
# Si number density = 25.119469 Si / 1000 Ang^3
#
#
#
# Elastic Constant Matrix: (Units=GPa)
#
#
# Indices 1 2 3 4 5 6 
#
# 1 124.3545 50.9651 29.9668 0.0000 -18.4425 -0.0001
# 2 50.9651 143.0270 7.7929 -0.0008 -2.6020 -0.0004
# 3 29.9668 7.7929 131.0858 -0.0001 0.1992 0.0000
# 4 0.0000 -0.0008 -0.0001 36.5665 0.0000 -5.4462
# 5 -18.4425 -2.6020 0.1992 0.0000 85.7511 0.0000
# 6 -0.0001 -0.0004 0.0000 -5.4462 0.0000 29.7243
#
#
#
# Elastic Compliance Matrix: (Units=1/GPa)
#
#
# Indices 1 2 3 4 5 6 
#
# 1 0.010317 -0.003520 -0.002152 0.000000 0.002117 0.000000
# 2 -0.003520 0.008220 0.000317 0.000000 -0.000508 0.000000
# 3 -0.002152 0.000317 0.008103 0.000000 -0.000472 0.000000
# 4 0.000000 0.000000 0.000000 0.028115 0.000000 0.005151
# 5 0.002117 -0.000508 -0.000472 0.000000 0.012103 0.000000
# 6 0.000000 0.000000 0.000000 0.005151 0.000000 0.034586
#
#
# Mechanical properties :
#
#
# Convention : Reuss Voigt Hill
#
# Bulk Modulus (GPa) = 62.78586 63.99077 63.38831
# Shear Modulus (GPa) = 42.56628 51.05788 46.81208
#
# Velocity S-wave (km/s) = 4.12096 4.51333 4.32160
# Velocity P-wave (km/s) = 6.90596 7.25879 7.08457
#
# Compressibility (1/GPa) = 0.01592715
#
# Stress axis : x y z
#
# Youngs Moduli (GPa) = 96.92714 121.65988 123.41826
#
# Poissons Ratio (x) = 0.42830 0.26565
# Poissons Ratio (y) = 0.34123 -0.03911
# Poissons Ratio (z) = 0.20863 -0.03856
#
# Static dielectric constant tensor:
#      x y z
#    x 2.020900 0.000000 -0.000310 
#    y 0.000000 2.030200 0.000000 
#    z -0.000310 0.000000 2.008440 
# 
# From -- ./inp_files/180255.got.cif
#   From: 2010.05.17/outbox.cif.g08.bks.cpg/sg15_91_cif.got.tgz:180255.got - 2010.06.03 18:47:42.
