data_PCOD9308232
_publ_section_title
;
Structure prediction by ZEFSAII (Michael W. Deem and Ramdas Pophale) SiO2 
 PCOD9308232
Probable space group: C 2/C
;
_chemical_formula_sum "Si O2"
_cell_formula_units_Z 16
_cell_length_a 4.691796
_cell_length_b 25.937743
_cell_length_c 4.810641
_cell_angle_alpha 90.000000
_cell_angle_beta 106.184023
_cell_angle_gamma 90.000000
_cell_volume 562.229321
_symmetry_space_group_name_H-M "C 2/C"
_symmetry_group_IT_number 15
_symmetry_cell_setting 'monoclinic'
loop_
_space_group_symop_operation_xyz
x,y,z
-x,y,1/2-z
-x,-y,-z
x,-y,1/2+z
1/2+x,1/2+y,z
1/2-x,1/2+y,1/2-z
1/2-x,1/2-y,-z
1/2+x,1/2-y,1/2+z
loop_
_atom_site_type_symbol
_atom_site_label
_atom_site_fract_x
_atom_site_fract_y
_atom_site_fract_z
Si Si1 0.000000 0.148908 0.250000
Si Si2 0.000000 0.500000 0.500000
Si Si3 0.000000 0.720084 0.250000
Si Si4 0.500000 0.427637 0.250000
O O1 0.711380 0.184134 0.119445
O O2 0.946526 0.111768 0.491391
O O3 0.251578 0.530971 0.789792
O O4 0.000000 0.456917 0.750000
O O5 0.250000 0.750000 0.500000
#
# Coordination Sequence:
#
# PCOD9308232 Si02
#       4
#     4   4   4   4
#     4  12  30  53  90 125 166 215 294 348 413 532
#     4  12  26  50  76 112 170 226 274 340 410 482
#     4  12  29  60  90 125 170 219 276 366 459 510
#     4  12  29  51  78 124 166 228 280 338 412 484
#
# _framework density 28.458141999999999
#
# number of rings (size 3 to 8) (size 9 to 14) (size 15 to 20)
#    0.000    0.000    0.000    7.500   10.500    4.000 
#    0.000    0.000    0.000    0.000    0.000    0.000 
#    0.000    0.000    0.000    0.000    0.000    0.000 
#
# Total GULP energy -44596.952925 kJ/mol
# GULP energy per Si atom -5574.619116 kJ/mol
# Density = 2.839337 g / cm^3
# Si number density = 28.458142 Si / 1000 Ang^3
#
#
#
# Elastic Constant Matrix: (Units=GPa)
#
#
# Indices 1 2 3 4 5 6 
#
# 1 219.7109 103.3193 39.4710 0.0000 50.6841 0.0000
# 2 103.3193 188.9038 89.9699 0.0000 46.3756 0.0000
# 3 39.4710 89.9699 273.2369 0.0000 -25.4019 0.0000
# 4 0.0000 0.0000 0.0000 37.4091 0.0000 14.0705
# 5 50.6841 46.3756 -25.4019 0.0000 59.6903 0.0000
# 6 0.0000 0.0000 0.0000 14.0705 0.0000 105.7825
#
#
#
# Elastic Compliance Matrix: (Units=1/GPa)
#
#
# Indices 1 2 3 4 5 6 
#
# 1 0.006726 -0.002415 -0.000555 0.000000 -0.004071 0.000000
# 2 -0.002415 0.010212 -0.003707 0.000000 -0.007461 0.000000
# 3 -0.000555 -0.003707 0.005489 0.000000 0.005688 0.000000
# 4 0.000000 0.000000 0.000000 0.028139 0.000000 -0.003743
# 5 -0.004071 -0.007461 0.005688 0.000000 0.028427 0.000000
# 6 0.000000 0.000000 0.000000 -0.003743 0.000000 0.009951
#
#
# Mechanical properties :
#
#
# Convention : Reuss Voigt Hill
#
# Bulk Modulus (GPa) = 110.21769 127.48577 118.85173
# Shear Modulus (GPa) = 47.47285 70.51582 58.99434
#
# Velocity S-wave (km/s) = 4.08875 4.98323 4.55798
# Velocity P-wave (km/s) = 7.81692 8.83204 8.33994
#
# Compressibility (1/GPa) = 0.00907295
#
# Stress axis : x y z
#
# Youngs Moduli (GPa) = 148.67977 97.92465 182.16745
#
# Poissons Ratio (x) = 0.23649 0.10108
# Poissons Ratio (y) = 0.35906 0.67535
# Poissons Ratio (z) = 0.08250 0.36304
#
# Static dielectric constant tensor:
#      x y z
#    x -1.509750 0.000000 2.705360 
#    y 0.000000 2.168570 0.000000 
#    z 2.705360 0.000000 1.488650 
# 
# From -- ./inp_files/427.got.cif
#   From: 2010.05.17/outbox.cif.g08.bks.cpg/sg15_1_cif.got.tgz:427.got - 2010.06.03 18:47:42.
