data_PCOD9308605
_publ_section_title
;
Structure prediction by ZEFSAII (Michael W. Deem and Ramdas Pophale) SiO2 
 PCOD9308605
Probable space group: C 2/C
;
_chemical_formula_sum "Si O2"
_cell_formula_units_Z 26
_cell_length_a 15.000000
_cell_length_b 18.000000
_cell_length_c 12.000000
_cell_angle_alpha 90.000000
_cell_angle_beta 60.000000
_cell_angle_gamma 90.000000
_cell_volume 2805.922308
_symmetry_space_group_name_H-M "C 2/C"
_symmetry_group_IT_number 15
_symmetry_cell_setting 'monoclinic'
loop_
_space_group_symop_operation_xyz
x,y,z
-x,y,1/2-z
-x,-y,-z
x,-y,1/2+z
1/2+x,1/2+y,z
1/2-x,1/2+y,1/2-z
1/2-x,1/2-y,-z
1/2+x,1/2-y,1/2+z
loop_
_atom_site_type_symbol
_atom_site_label
_atom_site_fract_x
_atom_site_fract_y
_atom_site_fract_z
Si Si1 0.595883 0.138825 0.535588
Si Si2 0.700326 0.312250 0.177959
Si Si3 0.176610 0.442439 0.768758
Si Si4 0.000000 0.641710 0.250000
Si Si5 0.980660 0.240342 0.572137
Si Si6 0.311402 0.338162 0.565406
Si Si7 0.641757 0.112780 0.756930
O O1 0.645715 0.084926 0.411700
O O2 0.584933 0.218806 0.482403
O O3 0.649495 0.136823 0.622588
O O4 0.477794 0.116024 0.633087
O O5 0.593289 0.311943 0.309854
O O6 0.726210 0.226042 0.137552
O O7 0.790370 0.339263 0.201768
O O8 0.692239 0.353246 0.064732
O O9 0.091722 0.410066 0.735330
O O10 0.281557 0.405591 0.662193
O O11 0.178019 0.529337 0.753025
O O12 0.021335 0.695261 0.131211
O O13 0.079249 0.196051 0.471028
#
# Coordination Sequence:
#
# PCOD9308605 Si02
#       7
#     8   8   8   4   8   8   8
#     4  10  22  38  56  87 124 154 189 243 297 355
#     4  11  21  36  61  87 117 155 197 248 285 347
#     4  11  23  35  59  88 120 156 191 244 292 356
#     4  10  16  32  56  86 116 138 190 250 286 332
#     4  11  19  37  60  89 115 149 204 247 289 333
#     4  11  20  36  61  88 115 152 201 247 287 339
#     4  11  24  38  56  88 124 160 186 234 310 355
#
# _framework density 9.2661149999999992
#
# number of rings (size 3 to 8) (size 9 to 14) (size 15 to 20)
#    0.000    1.231    6.154    2.308    4.308    0.615 
#    0.000    0.769    0.000    0.000    0.000    0.000 
#    0.000    0.000    0.000    0.000    0.000    0.000 
#
# Total GULP energy -145128.377194 kJ/mol
# GULP energy per Si atom -5581.860661 kJ/mol
# Density = 0.924503 g / cm^3
# Si number density = 9.266115 Si / 1000 Ang^3
#
#
#
# Elastic Constant Matrix: (Units=GPa)
#
#
# Indices 1 2 3 4 5 6 
#
# 1 56.3460 26.4217 27.2843 0.0000 19.0773 0.0000
# 2 26.4217 48.2457 38.1282 0.0000 13.1939 0.0000
# 3 27.2843 38.1282 101.0586 0.0000 16.4427 0.0000
# 4 0.0000 0.0000 0.0000 -0.2311 0.0000 16.6631
# 5 19.0773 13.1939 16.4427 0.0000 37.6017 0.0000
# 6 0.0000 0.0000 0.0000 16.6631 0.0000 -13.7646
#
#
#
# Elastic Compliance Matrix: (Units=1/GPa)
#
#
# Indices 1 2 3 4 5 6 
#
# 1 0.026682 -0.010848 -0.001645 0.000000 -0.009011 0.000000
# 2 -0.010848 0.035216 -0.009951 0.000000 -0.002502 0.000000
# 3 -0.001645 -0.009951 0.014415 0.000000 -0.001978 0.000000
# 4 0.000000 0.000000 0.000000 0.050148 0.000000 0.060708
# 5 -0.009011 -0.002502 -0.001978 0.000000 0.032909 0.000000
# 6 0.000000 0.000000 0.000000 0.060708 0.000000 0.000842
#
#
# Mechanical properties :
#
#
# Convention : Reuss Voigt Hill
#
# Bulk Modulus (GPa) = 31.82040 43.25764 37.53902
# Shear Modulus (GPa) = 23.19368 12.30893 17.75131
#
# Velocity S-wave (km/s) = 3.54154 2.57998 3.09829
# Velocity P-wave (km/s) = 5.82502 5.68046 5.75320
#
# Compressibility (1/GPa) = 0.03142638
#
# Stress axis : x y z
#
# Youngs Moduli (GPa) = 37.47866 28.39579 69.37032
#
# Poissons Ratio (x) = 0.30804 0.11409
# Poissons Ratio (y) = 0.40658 0.69029
# Poissons Ratio (z) = 0.06164 0.28256
#
# Static dielectric constant tensor:
#      x y z
#    x 1.647930 0.000000 -0.009040 
#    y 0.000000 1.651960 0.000000 
#    z -0.009040 0.000000 1.667080 
# 
# From -- ./inp_files/98179.got.cif
#   From: 2010.05.17/outbox.ucp.g08.bks.cvg/sg15_50_cif.got.tgz:98179.got - 2010.06.11 12:40:34.
