data_PCOD9308675
_publ_section_title
;
Structure prediction by ZEFSAII (Michael W. Deem and Ramdas Pophale) SiO2 
 PCOD9308675
Probable space group: C 2/C
;
_chemical_formula_sum "Si O2"
_cell_formula_units_Z 32
_cell_length_a 9.000000
_cell_length_b 21.000000
_cell_length_c 21.000000
_cell_angle_alpha 90.000000
_cell_angle_beta 120.000000
_cell_angle_gamma 90.000000
_cell_volume 3437.254828
_symmetry_space_group_name_H-M "C 2/C"
_symmetry_group_IT_number 15
_symmetry_cell_setting 'monoclinic'
loop_
_space_group_symop_operation_xyz
x,y,z
-x,y,1/2-z
-x,-y,-z
x,-y,1/2+z
1/2+x,1/2+y,z
1/2-x,1/2+y,1/2-z
1/2-x,1/2-y,-z
1/2+x,1/2-y,1/2+z
loop_
_atom_site_type_symbol
_atom_site_label
_atom_site_fract_x
_atom_site_fract_y
_atom_site_fract_z
Si Si1 0.611223 0.133570 0.651194
Si Si2 0.062840 0.482938 0.328497
Si Si3 0.410636 0.934173 0.911313
Si Si4 0.763458 0.561964 0.937155
Si Si5 0.638327 0.288720 0.223873
Si Si6 0.282335 0.205645 0.565868
Si Si7 0.808568 0.187526 0.180162
Si Si8 0.600201 0.395119 0.104750
O O1 0.558469 0.078610 0.688370
O O2 0.739008 0.102975 0.628129
O O3 0.686818 0.192244 0.704416
O O4 0.438543 0.158914 0.583149
O O5 0.252448 0.450437 0.366394
O O6 0.000000 0.514601 0.250000
O O7 0.009681 0.529245 0.374739
O O8 0.283485 0.876969 0.864586
O O9 0.304675 0.989180 0.926237
O O10 0.570466 0.913355 0.989145
O O11 0.585688 0.572527 0.935013
O O12 0.500000 0.286545 0.250000
O O13 0.673279 0.220950 0.199309
O O14 0.609863 0.347503 0.168336
O O15 0.250000 0.250000 0.500000
O O16 0.322866 0.255669 0.631072
O O17 0.135331 0.156129 0.556249
O O18 0.000000 0.175822 0.250000
#
# Coordination Sequence:
#
# PCOD9308675 Si02
#       8
#     8   8   8   8   8   8   8   8
#     4  10  18  35  63  85 115 149 195 250 295 343
#     4  10  20  35  59  86 115 150 200 253 290 344
#     4  10  24  41  58  82 126 163 193 247 303 359
#     4  10  21  42  62  86 116 159 208 248 295 355
#     4  11  20  36  61  94 119 147 195 254 305 348
#     4  10  21  38  60  89 120 158 199 243 302 358
#     4  11  23  41  60  86 126 162 195 239 308 380
#     4  10  21  35  65  92 111 151 209 256 289 348
#
# _framework density 9.3097549999999991
#
# number of rings (size 3 to 8) (size 9 to 14) (size 15 to 20)
#    0.000    1.750    3.750    0.750    0.000    3.000 
#    2.250    3.125    0.000    0.000    0.000    0.000 
#    0.000    0.000    0.000    0.000    0.000    0.000 
#
# Total GULP energy -178161.401539 kJ/mol
# GULP energy per Si atom -5567.543798 kJ/mol
# Density = 0.928857 g / cm^3
# Si number density = 9.309755 Si / 1000 Ang^3
#
#
#
# Elastic Constant Matrix: (Units=GPa)
#
#
# Indices 1 2 3 4 5 6 
#
# 1 115.6872 42.8798 33.4306 0.0000 9.4044 0.0000
# 2 42.8798 72.7385 19.5781 0.0000 13.8235 0.0000
# 3 33.4306 19.5781 51.9963 0.0000 5.4839 0.0000
# 4 0.0000 0.0000 0.0000 24.6124 0.0000 -13.9017
# 5 9.4044 13.8235 5.4839 0.0000 21.7788 0.0000
# 6 0.0000 0.0000 0.0000 -13.9017 0.0000 -40.4613
#
#
#
# Elastic Compliance Matrix: (Units=1/GPa)
#
#
# Indices 1 2 3 4 5 6 
#
# 1 0.012477 -0.005732 -0.005834 0.000000 -0.000281 0.000000
# 2 -0.005732 0.019627 -0.002724 0.000000 -0.009296 0.000000
# 3 -0.005834 -0.002724 0.024204 0.000000 -0.001846 0.000000
# 4 0.000000 0.000000 0.000000 0.034027 0.000000 -0.011691
# 5 -0.000281 -0.009296 -0.001846 0.000000 0.052403 0.000000
# 6 0.000000 0.000000 0.000000 -0.011691 0.000000 -0.020698
#
#
# Mechanical properties :
#
#
# Convention : Reuss Voigt Hill
#
# Bulk Modulus (GPa) = 36.06617 48.02212 42.04414
# Shear Modulus (GPa) = 31.27690 10.82156 21.04923
#
# Velocity S-wave (km/s) = 4.10297 2.41341 3.36593
# Velocity P-wave (km/s) = 6.46978 5.79770 6.14294
#
# Compressibility (1/GPa) = 0.02772681
#
# Stress axis : x y z
#
# Youngs Moduli (GPa) = 80.14561 50.95078 41.31583
#
# Poissons Ratio (x) = 0.29204 0.24105
# Poissons Ratio (y) = 0.45937 0.11256
# Poissons Ratio (z) = 0.46760 0.13881
#
# Static dielectric constant tensor:
#      x y z
#    x 1.730430 0.000000 -0.090410 
#    y 0.000000 1.614630 0.000000 
#    z -0.090410 0.000000 1.758600 
# 
# From -- ./inp_files/192147.got.cif
#   From: 2010.05.17/outbox.ucp.g08.bks.cvg/sg15_97_cif.got.tgz:192147.got - 2010.06.11 12:40:34.
