data_PCOD9308564
_publ_section_title
;
Structure prediction by ZEFSAII (Michael W. Deem and Ramdas Pophale) SiO2 
 PCOD9308564
Probable space group: C 2/C
;
_chemical_formula_sum "Si O2"
_cell_formula_units_Z 48
_cell_length_a 6.952835
_cell_length_b 29.297264
_cell_length_c 13.401183
_cell_angle_alpha 90.000000
_cell_angle_beta 45.281395
_cell_angle_gamma 90.000000
_cell_volume 1939.722589
_symmetry_space_group_name_H-M "C 2/C"
_symmetry_group_IT_number 15
_symmetry_cell_setting 'monoclinic'
loop_
_space_group_symop_operation_xyz
x,y,z
-x,y,1/2-z
-x,-y,-z
x,-y,1/2+z
1/2+x,1/2+y,z
1/2-x,1/2+y,1/2-z
1/2-x,1/2-y,-z
1/2+x,1/2-y,1/2+z
loop_
_atom_site_type_symbol
_atom_site_label
_atom_site_fract_x
_atom_site_fract_y
_atom_site_fract_z
Si Si1 0.986060 0.134824 0.573176
Si Si2 0.634794 0.459436 0.088742
Si Si3 0.258211 0.442843 0.916863
Si Si4 0.213896 0.185107 0.300000
Si Si5 0.944726 0.352476 0.521660
Si Si6 0.786348 0.288216 0.204118
O O1 0.976978 0.079346 0.582698
O O2 0.050633 0.158466 0.444425
O O3 0.251498 0.139558 0.548754
O O4 0.767707 0.169044 0.702224
O O5 0.500000 0.456463 0.250000
O O6 0.634188 0.513309 0.062072
O O7 0.963954 0.452568 0.971927
O O8 0.500000 0.435297 0.750000
O O9 0.167291 0.395238 0.999205
O O10 0.500000 0.189722 0.250000
O O11 0.267517 0.154887 0.183902
O O12 0.144459 0.236570 0.293121
O O13 0.972696 0.305551 0.453581
O O14 0.500000 0.284758 0.250000
#
# Coordination Sequence:
#
# PCOD9308564 Si02
#       6
#     8   8   8   8   8   8
#     4   9  15  24  40  64  92 117 142 183 231 271
#     4   9  16  28  46  68  87 111 154 195 227 268
#     4   9  17  28  45  66  88 117 154 194 228 263
#     4   9  16  24  38  64  97 120 140 182 234 272
#     4   9  16  26  40  62  89 117 149 183 224 272
#     4   9  15  24  40  64  91 119 149 181 221 271
#
# _framework density 24.745805000000001
#
# number of rings (size 3 to 8) (size 9 to 14) (size 15 to 20)
#    0.000    3.000    0.000    3.500    0.000    4.000 
#    0.000    0.000    0.000    5.000    0.000   23.333 
#    0.000    2.667    0.000    0.000    0.000    0.000 
#
# Total GULP energy -133642.147240 kJ/mol
# GULP energy per Si atom -5568.422802 kJ/mol
# Density = 2.468948 g / cm^3
# Si number density = 24.745805 Si / 1000 Ang^3
#
#
#
# Elastic Constant Matrix: (Units=GPa)
#
#
# Indices 1 2 3 4 5 6 
#
# 1 88.7800 49.6244 34.5230 0.0000 -19.0227 0.0000
# 2 49.6244 218.9711 36.2739 0.0000 11.7159 0.0000
# 3 34.5230 36.2739 100.6387 0.0000 3.0555 0.0000
# 4 0.0000 0.0000 0.0000 54.8317 0.0000 14.5057
# 5 -19.0227 11.7159 3.0555 0.0000 20.6849 0.0000
# 6 0.0000 0.0000 0.0000 14.5057 0.0000 -7.7540
#
#
#
# Elastic Compliance Matrix: (Units=1/GPa)
#
#
# Indices 1 2 3 4 5 6 
#
# 1 0.021690 -0.005143 -0.006309 0.000000 0.023792 0.000000
# 2 -0.005143 0.006209 -0.000224 0.000000 -0.008214 0.000000
# 3 -0.006309 -0.000224 0.012410 0.000000 -0.007508 0.000000
# 4 0.000000 0.000000 0.000000 0.012200 0.000000 0.022823
# 5 0.023792 -0.008214 -0.007508 0.000000 0.075986 0.000000
# 6 0.000000 0.000000 0.000000 0.022823 0.000000 -0.086270
#
#
# Mechanical properties :
#
#
# Convention : Reuss Voigt Hill
#
# Bulk Modulus (GPa) = 58.97833 72.13692 65.55762
# Shear Modulus (GPa) = 70.19603 32.75041 51.47322
#
# Velocity S-wave (km/s) = 5.33183 3.64190 4.56574
# Velocity P-wave (km/s) = 7.86066 6.84829 7.37187
#
# Compressibility (1/GPa) = 0.01695538
#
# Stress axis : x y z
#
# Youngs Moduli (GPa) = 46.10438 161.05560 80.58313
#
# Poissons Ratio (x) = 0.82836 0.50840
# Poissons Ratio (y) = 0.23713 0.01807
# Poissons Ratio (z) = 0.29087 0.03611
#
# Static dielectric constant tensor:
#      x y z
#    x 1.985460 0.000000 0.005070 
#    y 0.000000 2.022640 0.000000 
#    z 0.005070 0.000000 1.894740 
# 
# From -- ./inp_files/139361.got.cif
#   From: 2010.05.17/outbox.cif.g08.bks.cpg/sg15_70_cif.got.tgz:139361.got - 2010.06.03 18:47:42.
