data_PCOD9308760
_publ_section_title
;
Structure prediction by ZEFSAII (Michael W. Deem and Ramdas Pophale) SiO2 
 PCOD9308760
Probable space group: C 2/C
;
_chemical_formula_sum "Si O2"
_cell_formula_units_Z 32
_cell_length_a 15.000000
_cell_length_b 9.000000
_cell_length_c 30.000000
_cell_angle_alpha 90.000000
_cell_angle_beta 50.000000
_cell_angle_gamma 90.000000
_cell_volume 3102.479995
_symmetry_space_group_name_H-M "C 2/C"
_symmetry_group_IT_number 15
_symmetry_cell_setting 'monoclinic'
loop_
_space_group_symop_operation_xyz
x,y,z
-x,y,1/2-z
-x,-y,-z
x,-y,1/2+z
1/2+x,1/2+y,z
1/2-x,1/2+y,1/2-z
1/2-x,1/2-y,-z
1/2+x,1/2-y,1/2+z
loop_
_atom_site_type_symbol
_atom_site_label
_atom_site_fract_x
_atom_site_fract_y
_atom_site_fract_z
Si Si1 0.005796 0.172868 0.651651
Si Si2 0.967276 0.835967 0.686486
Si Si3 0.282366 0.203516 0.876761
Si Si4 0.170768 0.593664 0.096166
Si Si5 0.428213 0.727111 0.498289
Si Si6 0.290277 0.837091 0.689373
Si Si7 0.466708 0.907776 0.112477
Si Si8 0.089031 0.108281 0.525782
O O1 0.881605 0.255310 0.692598
O O2 0.104438 0.273989 0.642165
O O3 0.050862 0.164386 0.586112
O O4 0.998049 0.007252 0.670781
O O5 0.841352 0.837360 0.750530
O O6 0.951961 0.740659 0.646453
O O7 0.084797 0.761284 0.668948
O O8 0.203016 0.266630 0.943054
O O9 0.216747 0.242577 0.853178
O O10 0.281896 0.027773 0.884701
O O11 0.073010 0.504534 0.099104
O O12 0.279061 0.642283 0.031364
O O13 0.491738 0.853645 0.449320
O O14 0.504850 0.683064 0.516453
O O15 0.420764 0.571599 0.473486
O O16 0.351322 0.992588 0.655901
#
# Coordination Sequence:
#
# PCOD9308760 Si02
#       8
#     8   8   8   8   8   8   8   8
#     4  11  21  39  61  90 117 157 200 245 303 353
#     4  11  23  39  64  85 119 160 204 255 292 356
#     4  10  22  40  60  86 120 160 197 248 304 360
#     4   9  22  36  59  88 123 150 194 243 302 367
#     4  10  20  36  61  90 125 155 195 246 308 365
#     4  11  23  42  59  86 120 161 210 242 299 361
#     4  10  22  39  60  90 119 157 201 249 297 359
#     4  10  19  35  58  91 124 154 189 241 304 367
#
# _framework density 10.314329000000001
#
# number of rings (size 3 to 8) (size 9 to 14) (size 15 to 20)
#    0.000    1.750    2.500    1.500    1.750    3.000 
#    0.000    0.000    0.000    4.500    0.000    0.000 
#    0.000    0.000    0.000    0.000    0.000    0.000 
#
# Total GULP energy -178590.149612 kJ/mol
# GULP energy per Si atom -5580.942175 kJ/mol
# Density = 1.029085 g / cm^3
# Si number density = 10.314329 Si / 1000 Ang^3
#
#
#
# Elastic Constant Matrix: (Units=GPa)
#
#
# Indices 1 2 3 4 5 6 
#
# 1 35.8780 7.9895 25.7060 0.0000 -23.2652 0.0001
# 2 7.9895 72.4961 26.2969 0.0001 -11.1842 0.0001
# 3 25.7060 26.2969 95.2264 0.0000 -41.5052 0.0000
# 4 0.0000 0.0001 0.0000 24.4661 0.0000 -17.7957
# 5 -23.2652 -11.1842 -41.5052 0.0000 35.8327 0.0000
# 6 0.0001 0.0001 0.0000 -17.7957 0.0000 21.1456
#
#
#
# Elastic Compliance Matrix: (Units=1/GPa)
#
#
# Indices 1 2 3 4 5 6 
#
# 1 0.048258 -0.000799 0.001497 -0.000001 0.032818 -0.000001
# 2 -0.000799 0.015344 -0.004363 0.000000 -0.000783 0.000000
# 3 0.001497 -0.004363 0.022483 0.000000 0.025652 0.000000
# 4 -0.000001 0.000000 0.000000 0.105379 -0.000001 0.088684
# 5 0.032818 -0.000783 0.025652 -0.000001 0.078684 -0.000001
# 6 -0.000001 0.000000 0.000000 0.088684 -0.000001 0.121926
#
#
# Mechanical properties :
#
#
# Convention : Reuss Voigt Hill
#
# Bulk Modulus (GPa) = 12.69740 35.95393 24.32566
# Shear Modulus (GPa) = 11.74665 25.86276 18.80470
#
# Velocity S-wave (km/s) = 2.38887 3.54465 3.02252
# Velocity P-wave (km/s) = 3.71181 5.84976 4.89883
#
# Compressibility (1/GPa) = 0.07875631
#
# Stress axis : x y z
#
# Youngs Moduli (GPa) = 20.72194 65.17366 44.47885
#
# Poissons Ratio (x) = 0.05204 -0.06660
# Poissons Ratio (y) = 0.01655 0.19405
# Poissons Ratio (z) = -0.03103 0.28434
#
# Static dielectric constant tensor:
#      x y z
#    x 1.749750 0.000000 0.004880 
#    y 0.000000 1.749300 0.000000 
#    z 0.004880 0.000000 1.741630 
# 
# From -- ./inp_files/313146.got.cif
#   From: 2010.05.17/outbox.ucp.g08.bks.cvg/sg15_157_cif.got.tgz:313146.got - 2010.06.11 12:40:34.
