data_PCOD9308728
_publ_section_title
;
Structure prediction by ZEFSAII (Michael W. Deem and Ramdas Pophale) SiO2 
 PCOD9308728
Probable space group: C 2/C
;
_chemical_formula_sum "Si O2"
_cell_formula_units_Z 32
_cell_length_a 15.000000
_cell_length_b 15.000000
_cell_length_c 18.000000
_cell_angle_alpha 90.000000
_cell_angle_beta 100.000000
_cell_angle_gamma 90.000000
_cell_volume 3988.471400
_symmetry_space_group_name_H-M "C 2/C"
_symmetry_group_IT_number 15
_symmetry_cell_setting 'monoclinic'
loop_
_space_group_symop_operation_xyz
x,y,z
-x,y,1/2-z
-x,-y,-z
x,-y,1/2+z
1/2+x,1/2+y,z
1/2-x,1/2+y,1/2-z
1/2-x,1/2-y,-z
1/2+x,1/2-y,1/2+z
loop_
_atom_site_type_symbol
_atom_site_label
_atom_site_fract_x
_atom_site_fract_y
_atom_site_fract_z
Si Si1 0.752052 0.119418 0.553785
Si Si2 0.671525 0.936634 0.341726
Si Si3 0.999270 0.864043 0.953279
Si Si4 0.851424 0.990396 0.451567
Si Si5 0.124851 0.440488 0.161880
Si Si6 0.524525 0.210717 0.839716
Si Si7 0.478976 0.915087 0.659826
Si Si8 0.894865 0.739139 0.055038
O O1 0.704389 0.071342 0.615168
O O2 0.828950 0.191151 0.587513
O O3 0.673568 0.174928 0.500204
O O4 0.798443 0.048733 0.505573
O O5 0.772693 0.949741 0.387625
O O6 0.663738 0.939847 0.251139
O O7 0.618058 0.846160 0.357361
O O8 0.607659 0.018829 0.358964
O O9 0.023949 0.800175 0.888009
O O10 0.085366 0.915867 0.000351
O O11 0.922371 0.939196 0.924605
O O12 0.955212 0.798151 0.008210
O O13 0.054448 0.357712 0.145273
O O14 0.064581 0.529146 0.141516
O O15 0.500000 0.228758 0.750000
O O16 0.500000 0.901295 0.750000
O O17 0.455461 0.824073 0.615155
#
# Coordination Sequence:
#
# PCOD9308728 Si02
#       8
#     8   8   8   8   8   8   8   8
#     4  10  19  33  56  79 100 137 178 211 247 309
#     4   9  18  34  54  77 107 138 168 215 259 303
#     4  10  21  37  55  74 106 141 173 211 258 308
#     4  10  21  37  55  74 107 140 171 213 261 302
#     4   9  18  33  54  80 106 134 172 212 261 306
#     4   9  18  34  55  78 105 137 171 212 259 307
#     4   9  18  33  53  79 108 135 169 215 261 302
#     4  10  19  33  56  79 101 136 176 213 252 301
#
# _framework density 8.0231239999999993
#
# number of rings (size 3 to 8) (size 9 to 14) (size 15 to 20)
#    0.000    2.500    2.500    1.500    0.000    2.000 
#    4.500    0.000    0.000    0.000    0.000    0.000 
#    0.000    0.000    0.000    0.000    0.000    0.000 
#
# Total GULP energy -178312.095329 kJ/mol
# GULP energy per Si atom -5572.252979 kJ/mol
# Density = 0.800486 g / cm^3
# Si number density = 8.023124 Si / 1000 Ang^3
#
#
#
# Elastic Constant Matrix: (Units=GPa)
#
#
# Indices 1 2 3 4 5 6 
#
# 1 109.7709 56.0393 54.3621 0.0000 15.9268 0.0000
# 2 56.0393 109.2309 53.2945 0.0000 13.4877 0.0000
# 3 54.3621 53.2945 54.7387 0.0000 12.4942 0.0000
# 4 0.0000 0.0000 0.0000 27.2828 0.0000 3.6487
# 5 15.9268 13.4877 12.4942 0.0000 28.7876 0.0000
# 6 0.0000 0.0000 0.0000 3.6487 0.0000 29.4953
#
#
#
# Elastic Compliance Matrix: (Units=1/GPa)
#
#
# Indices 1 2 3 4 5 6 
#
# 1 0.018131 -0.000928 -0.016552 0.000000 -0.002412 0.000000
# 2 -0.000928 0.017507 -0.015948 0.000000 -0.000767 0.000000
# 3 -0.016552 -0.015948 0.051544 0.000000 -0.005742 0.000000
# 4 0.000000 0.000000 0.000000 0.037270 0.000000 -0.004610
# 5 -0.002412 -0.000767 -0.005742 0.000000 0.038923 0.000000
# 6 0.000000 0.000000 0.000000 -0.004610 0.000000 0.034474
#
#
# Mechanical properties :
#
#
# Convention : Reuss Voigt Hill
#
# Bulk Modulus (GPa) = 49.19810 66.79251 57.99531
# Shear Modulus (GPa) = 18.41751 24.44945 21.43348
#
# Velocity S-wave (km/s) = 3.39156 3.90768 3.65873
# Velocity P-wave (km/s) = 6.78702 7.87879 7.35320
#
# Compressibility (1/GPa) = 0.02032599
#
# Stress axis : x y z
#
# Youngs Moduli (GPa) = 55.15538 57.11953 19.40072
#
# Poissons Ratio (x) = 0.05301 0.32111
# Poissons Ratio (y) = 0.05119 0.30941
# Poissons Ratio (z) = 0.91291 0.91096
#
# Static dielectric constant tensor:
#      x y z
#    x 1.533180 0.000000 -0.009820 
#    y 0.000000 1.533630 0.000000 
#    z -0.009820 0.000000 1.525150 
# 
# From -- ./inp_files/205124.got.cif
#   From: 2010.05.17/outbox.ucp.g08.bks.cvg/sg15_103_cif.got.tgz:205124.got - 2010.06.11 12:40:34.
