data_PCOD9308594
_publ_section_title
;
Structure prediction by ZEFSAII (Michael W. Deem and Ramdas Pophale) SiO2 
 PCOD9308594
Probable space group: C 2/C
;
_chemical_formula_sum "Si O2"
_cell_formula_units_Z 16
_cell_length_a 7.584575
_cell_length_b 7.650719
_cell_length_c 13.739370
_cell_angle_alpha 90.000000
_cell_angle_beta 138.242450
_cell_angle_gamma 90.000000
_cell_volume 530.959613
_symmetry_space_group_name_H-M "C 2/C"
_symmetry_group_IT_number 15
_symmetry_cell_setting 'monoclinic'
loop_
_space_group_symop_operation_xyz
x,y,z
-x,y,1/2-z
-x,-y,-z
x,-y,1/2+z
1/2+x,1/2+y,z
1/2-x,1/2+y,1/2-z
1/2-x,1/2-y,-z
1/2+x,1/2-y,1/2+z
loop_
_atom_site_type_symbol
_atom_site_label
_atom_site_fract_x
_atom_site_fract_y
_atom_site_fract_z
Si Si1 0.368759 0.843274 0.814172
Si Si2 0.346218 0.530032 0.065810
O O1 0.511497 0.658321 0.861154
O O2 0.100650 0.856000 0.641169
O O3 0.268562 0.885279 0.882624
O O4 0.596966 0.989431 0.894844
#
# Coordination Sequence:
#
# PCOD9308594 Si02
#       2
#     8   8
#     4   9  18  34  56  82 112 147 187 231 280 334
#     4   9  18  34  56  82 112 147 187 231 280 334
#
# _framework density 30.134118999999998
#
# number of rings (size 3 to 8) (size 9 to 14) (size 15 to 20)
#    0.000    3.000    0.000    0.000    0.000    2.000 
#    0.000   10.000    0.000   54.000    0.000    0.000 
#    0.000    0.000    0.000    0.000    0.000    0.000 
#
# Total GULP energy -44818.836791 kJ/mol
# GULP energy per Si atom -5602.354599 kJ/mol
# Density = 3.006553 g / cm^3
# Si number density = 30.134119 Si / 1000 Ang^3
#
#
#
# Elastic Constant Matrix: (Units=GPa)
#
#
# Indices 1 2 3 4 5 6 
#
# 1 214.0362 54.9831 96.4339 0.0004 -9.7733 0.0002
# 2 54.9831 214.7155 48.6876 -0.0001 20.5268 0.0000
# 3 96.4339 48.6876 147.3514 0.0002 49.6618 0.0003
# 4 0.0004 -0.0001 0.0002 44.2679 0.0003 19.1898
# 5 -9.7733 20.5268 49.6618 0.0003 86.3945 0.0003
# 6 0.0002 0.0000 0.0003 19.1898 0.0003 54.4599
#
#
#
# Elastic Compliance Matrix: (Units=1/GPa)
#
#
# Indices 1 2 3 4 5 6 
#
# 1 0.008199 -0.001059 -0.006714 0.000000 0.005039 0.000000
# 2 -0.001059 0.005177 -0.000698 0.000000 -0.000949 0.000000
# 3 -0.006714 -0.000698 0.014402 0.000000 -0.008872 0.000000
# 4 0.000000 0.000000 0.000000 0.026662 0.000000 -0.009395
# 5 0.005039 -0.000949 -0.008872 0.000000 0.017470 0.000000
# 6 0.000000 0.000000 0.000000 -0.009395 0.000000 0.021673
#
#
# Mechanical properties :
#
#
# Convention : Reuss Voigt Hill
#
# Bulk Modulus (GPa) = 92.28693 108.47916 100.38304
# Shear Modulus (GPa) = 43.80668 62.09104 52.94886
#
# Velocity S-wave (km/s) = 3.81691 4.54419 4.19633
# Velocity P-wave (km/s) = 7.07933 7.97557 7.54078
#
# Compressibility (1/GPa) = 0.01083577
#
# Stress axis : x y z
#
# Youngs Moduli (GPa) = 121.96082 193.14565 69.43708
#
# Poissons Ratio (x) = 0.20451 0.46623
# Poissons Ratio (y) = 0.12914 0.04847
# Poissons Ratio (z) = 0.81889 0.13482
#
# Static dielectric constant tensor:
#      x y z
#    x 2.278880 0.000000 0.003800 
#    y 0.000000 2.355130 0.000000 
#    z 0.003800 0.000000 2.320790 
# 
# From -- ./inp_files/74400.got.cif
#   From: 2010.05.17/outbox.cif.g08.bks.cpg/sg15_38_cif.got.tgz:74400.got - 2010.06.03 18:47:42.
