data_PCOD9308054
_publ_section_title
;
Structure prediction by ZEFSAII (Michael W. Deem and Ramdas Pophale) SiO2 
 PCOD9308054
Probable space group: C 2/C
;
_chemical_formula_sum "Si O2"
_cell_formula_units_Z 24
_cell_length_a 11.733361
_cell_length_b 13.814271
_cell_length_c 6.236627
_cell_angle_alpha 90.000000
_cell_angle_beta 72.474522
_cell_angle_gamma 90.000000
_cell_volume 963.959391
_symmetry_space_group_name_H-M "C 2/C"
_symmetry_group_IT_number 15
_symmetry_cell_setting 'monoclinic'
loop_
_space_group_symop_operation_xyz
x,y,z
-x,y,1/2-z
-x,-y,-z
x,-y,1/2+z
1/2+x,1/2+y,z
1/2-x,1/2+y,1/2-z
1/2-x,1/2-y,-z
1/2+x,1/2-y,1/2+z
loop_
_atom_site_type_symbol
_atom_site_label
_atom_site_fract_x
_atom_site_fract_y
_atom_site_fract_z
Si Si1 0.920626 0.905573 0.609147
Si Si2 0.689585 0.847095 0.946168
Si Si3 0.500000 0.960003 0.250000
Si Si4 0.500000 0.748360 0.750000
O O1 0.789250 0.916341 0.781379
O O2 0.000000 0.857758 0.750000
O O3 0.916992 0.826720 0.426583
O O4 0.000000 0.000000 0.500000
O O5 0.588767 0.813813 0.835832
O O6 0.750000 0.750000 0.000000
O O7 0.621625 0.898710 0.176709
O O8 0.500000 0.000000 0.500000
#
# Coordination Sequence:
#
# PCOD9308054 Si02
#       4
#     8   8   4   4
#     4  12  26  46  79 119 157 208 268 333 408 477
#     4  12  27  51  82 115 160 208 276 333 404 492
#     4  12  31  54  81 122 166 222 270 338 417 484
#     4  12  25  50  81 118 158 218 270 336 411 480
#
# _framework density 24.897316
#
# number of rings (size 3 to 8) (size 9 to 14) (size 15 to 20)
#    0.000    0.000    5.000    4.000    4.667    2.667 
#    0.000    0.000    0.000    0.000    0.000    0.000 
#    0.000    0.000    0.000    0.000    0.000    0.000 
#
# Total GULP energy -67059.360783 kJ/mol
# GULP energy per Si atom -5588.280065 kJ/mol
# Density = 2.484065 g / cm^3
# Si number density = 24.897316 Si / 1000 Ang^3
#
#
#
# Elastic Constant Matrix: (Units=GPa)
#
#
# Indices 1 2 3 4 5 6 
#
# 1 149.0291 60.3028 70.1158 0.0000 -24.7558 0.0000
# 2 60.3028 125.2767 83.8338 0.0000 -25.6244 0.0000
# 3 70.1158 83.8338 177.2725 0.0000 -43.0193 0.0000
# 4 0.0000 0.0000 0.0000 64.3204 0.0000 -3.6777
# 5 -24.7558 -25.6244 -43.0193 0.0000 72.2586 0.0000
# 6 0.0000 0.0000 0.0000 -3.6777 0.0000 47.4406
#
#
#
# Elastic Compliance Matrix: (Units=1/GPa)
#
#
# Indices 1 2 3 4 5 6 
#
# 1 0.008921 -0.002774 -0.002003 0.000000 0.000880 0.000000
# 2 -0.002774 0.012602 -0.004686 0.000000 0.000729 0.000000
# 3 -0.002003 -0.004686 0.009444 0.000000 0.003274 0.000000
# 4 0.000000 0.000000 0.000000 0.015616 0.000000 0.001211
# 5 0.000880 0.000729 0.003274 0.000000 0.016349 0.000000
# 6 0.000000 0.000000 0.000000 0.001211 0.000000 0.021173
#
#
# Mechanical properties :
#
#
# Convention : Reuss Voigt Hill
#
# Bulk Modulus (GPa) = 83.04277 97.78701 90.41489
# Shear Modulus (GPa) = 46.70956 52.62567 49.66761
#
# Velocity S-wave (km/s) = 4.33608 4.60250 4.47127
# Velocity P-wave (km/s) = 7.64822 8.22225 7.94042
#
# Compressibility (1/GPa) = 0.01204199
#
# Stress axis : x y z
#
# Youngs Moduli (GPa) = 112.09341 79.35117 105.88818
#
# Poissons Ratio (x) = 0.22009 0.21212
# Poissons Ratio (y) = 0.31091 0.49616
# Poissons Ratio (z) = 0.22455 0.37182
#
# Static dielectric constant tensor:
#      x y z
#    x -4.971650 0.000000 4.668810 
#    y 0.000000 2.085610 0.000000 
#    z 4.668810 0.000000 -1.072890 
# 
# From -- ./inp_files/3249.got.cif
#   From: 2010.05.17/outbox.cif.g08.bks.cpg/sg15_2_cif.got.tgz:3249.got - 2010.06.03 18:47:42.
