data_PCOD9308565
_publ_section_title
;
Structure prediction by ZEFSAII (Michael W. Deem and Ramdas Pophale) SiO2 
 PCOD9308565
Probable space group: C 2/C
;
_chemical_formula_sum "Si O2"
_cell_formula_units_Z 48
_cell_length_a 19.015806
_cell_length_b 20.808701
_cell_length_c 8.067760
_cell_angle_alpha 90.000000
_cell_angle_beta 142.753127
_cell_angle_gamma 90.000000
_cell_volume 1932.181265
_symmetry_space_group_name_H-M "C 2/C"
_symmetry_group_IT_number 15
_symmetry_cell_setting 'monoclinic'
loop_
_space_group_symop_operation_xyz
x,y,z
-x,y,1/2-z
-x,-y,-z
x,-y,1/2+z
1/2+x,1/2+y,z
1/2-x,1/2+y,1/2-z
1/2-x,1/2-y,-z
1/2+x,1/2-y,1/2+z
loop_
_atom_site_type_symbol
_atom_site_label
_atom_site_fract_x
_atom_site_fract_y
_atom_site_fract_z
Si Si1 0.120327 0.722474 0.789795
Si Si2 0.338578 0.006970 0.556462
Si Si3 0.551875 0.351665 0.532701
Si Si4 0.137258 0.603576 0.605799
Si Si5 0.212440 0.371466 0.705062
Si Si6 0.335684 0.592745 0.762195
O O1 0.043722 0.784896 0.617237
O O2 0.089682 0.669250 0.591149
O O3 0.250000 0.750000 0.000000
O O4 0.130330 0.685125 0.984018
O O5 0.374363 0.050528 0.774564
O O6 0.346392 0.058717 0.422289
O O7 0.396030 0.937844 0.621240
O O8 0.206903 0.980923 0.331093
O O9 0.500000 0.342535 0.250000
O O10 0.682798 0.372158 0.733350
O O11 0.470528 0.399976 0.481351
O O12 0.273997 0.616205 0.814906
O O13 0.271028 0.367048 0.993715
#
# Coordination Sequence:
#
# PCOD9308565 Si02
#       6
#     8   8   8   8   8   8
#     4   9  18  33  49  68  99 144 181 210 245 298
#     4   9  15  28  47  77 105 126 171 201 260 298
#     4   9  18  31  48  69 103 143 174 207 254 302
#     4   9  17  29  52  76 103 132 176 209 251 306
#     4   9  16  30  48  71 101 134 171 210 248 305
#     4   9  16  29  48  75 104 130 169 207 256 306
#
# _framework density 24.842389000000001
#
# number of rings (size 3 to 8) (size 9 to 14) (size 15 to 20)
#    1.000    2.000    1.667    0.000    0.000    0.667 
#    0.000   15.000    0.000    4.000    0.000    4.667 
#    0.000    0.000    0.000    0.000    0.000    0.000 
#
# Total GULP energy -133665.491131 kJ/mol
# GULP energy per Si atom -5569.395464 kJ/mol
# Density = 2.478585 g / cm^3
# Si number density = 24.842389 Si / 1000 Ang^3
#
#
#
# Elastic Constant Matrix: (Units=GPa)
#
#
# Indices 1 2 3 4 5 6 
#
# 1 81.7730 9.6393 19.6648 0.0000 -0.3447 0.0000
# 2 9.6393 119.5380 7.4177 0.0000 1.4402 0.0000
# 3 19.6648 7.4177 45.3034 0.0000 -10.2255 0.0000
# 4 0.0000 0.0000 0.0000 35.5690 0.0000 -5.3887
# 5 -0.3447 1.4402 -10.2255 0.0000 36.1650 0.0000
# 6 0.0000 0.0000 0.0000 -5.3887 0.0000 18.3245
#
#
#
# Elastic Compliance Matrix: (Units=1/GPa)
#
#
# Indices 1 2 3 4 5 6 
#
# 1 0.013806 -0.000707 -0.006239 0.000000 -0.001604 0.000000
# 2 -0.000707 0.008508 -0.001244 0.000000 -0.000697 0.000000
# 3 -0.006239 -0.001244 0.026686 0.000000 0.007535 0.000000
# 4 0.000000 0.000000 0.000000 0.029425 0.000000 0.008653
# 5 -0.001604 -0.000697 0.007535 0.000000 0.029794 0.000000
# 6 0.000000 0.000000 0.000000 0.008653 0.000000 0.057116
#
#
# Mechanical properties :
#
#
# Convention : Reuss Voigt Hill
#
# Bulk Modulus (GPa) = 30.65512 35.56200 33.10856
# Shear Modulus (GPa) = 25.96210 32.00455 28.98332
#
# Velocity S-wave (km/s) = 3.23627 3.59319 3.41939
# Velocity P-wave (km/s) = 5.13139 5.61790 5.38015
#
# Compressibility (1/GPa) = 0.03262098
#
# Stress axis : x y z
#
# Youngs Moduli (GPa) = 72.43273 117.53502 37.47278
#
# Poissons Ratio (x) = 0.08307 0.23380
# Poissons Ratio (y) = 0.05119 0.04660
# Poissons Ratio (z) = 0.45192 0.14617
#
# Static dielectric constant tensor:
#      x y z
#    x 2.069970 0.000000 0.023570 
#    y 0.000000 1.911760 0.000000 
#    z 0.023570 0.000000 2.129230 
# 
# From -- ./inp_files/63316.got.cif
#   From: 2010.05.17/outbox.cif.g08.bks.cpg/sg15_32_cif.got.tgz:63316.got - 2010.06.03 18:47:42.
