data_PCOD9308724
_publ_section_title
;
Structure prediction by ZEFSAII (Michael W. Deem and Ramdas Pophale) SiO2 
 PCOD9308724
Probable space group: C 2/C
;
_chemical_formula_sum "Si O2"
_cell_formula_units_Z 32
_cell_length_a 18.000000
_cell_length_b 30.000000
_cell_length_c 12.000000
_cell_angle_alpha 90.000000
_cell_angle_beta 150.000000
_cell_angle_gamma 90.000000
_cell_volume 3240.000000
_symmetry_space_group_name_H-M "C 2/C"
_symmetry_group_IT_number 15
_symmetry_cell_setting 'monoclinic'
loop_
_space_group_symop_operation_xyz
x,y,z
-x,y,1/2-z
-x,-y,-z
x,-y,1/2+z
1/2+x,1/2+y,z
1/2-x,1/2+y,1/2-z
1/2-x,1/2-y,-z
1/2+x,1/2-y,1/2+z
loop_
_atom_site_type_symbol
_atom_site_label
_atom_site_fract_x
_atom_site_fract_y
_atom_site_fract_z
Si Si1 0.851332 0.958953 0.735771
Si Si2 0.406627 0.152762 0.291833
Si Si3 0.331837 0.058905 0.295101
Si Si4 0.828581 0.057493 0.793104
Si Si5 0.648367 0.037199 0.771383
Si Si6 0.471511 0.795456 0.337580
Si Si7 0.132040 0.799245 0.999210
Si Si8 0.235256 0.348374 0.114108
O O1 0.803094 0.940804 0.793918
O O2 0.747119 0.944573 0.499501
O O3 0.835468 0.012537 0.729465
O O4 0.020093 0.944593 0.939093
O O5 0.348581 0.104433 0.252042
O O6 0.439171 0.180073 0.447174
O O7 0.569537 0.147728 0.449248
O O8 0.295785 0.170977 0.050684
O O9 0.477145 0.049722 0.560366
O O10 0.329132 0.016005 0.211191
O O11 0.698567 0.054905 0.715715
O O12 0.806620 0.102589 0.697214
O O13 0.500000 0.815910 0.250000
O O14 0.293606 0.794233 0.142916
O O15 0.551724 0.747282 0.428906
O O16 0.172173 0.823277 0.168513
O O17 0.000000 0.820827 0.750000
#
# Coordination Sequence:
#
# PCOD9308724 Si02
#       8
#     8   8   8   8   8   8   8   8
#     4  10  21  33  53  77 114 151 197 253 295 339
#     4  10  21  39  61  87 118 154 196 245 288 343
#     4  10  20  35  52  82 111 146 200 243 291 337
#     4  10  20  37  52  78 112 156 194 241 296 349
#     4  10  19  33  55  77 106 154 202 243 291 340
#     4  10  21  40  66  92 122 154 185 237 293 345
#     4  10  21  40  66  93 120 153 190 235 288 352
#     4  10  21  39  62  86 116 157 201 234 290 355
#
# _framework density 9.8765429999999999
#
# number of rings (size 3 to 8) (size 9 to 14) (size 15 to 20)
#    0.000    2.000    1.250    3.000    0.000    2.500 
#    4.500    1.875    0.000    0.000    0.000    0.000 
#    0.000    0.000    0.000    0.000    0.000    0.000 
#
# Total GULP energy -178350.827159 kJ/mol
# GULP energy per Si atom -5573.463349 kJ/mol
# Density = 0.985406 g / cm^3
# Si number density = 9.876543 Si / 1000 Ang^3
#
#
#
# Elastic Constant Matrix: (Units=GPa)
#
#
# Indices 1 2 3 4 5 6 
#
# 1 62.3245 29.5937 38.8198 0.0000 -7.7404 0.0000
# 2 29.5937 41.6146 23.8104 0.0000 -16.2724 0.0000
# 3 38.8198 23.8104 110.1709 0.0000 -34.3150 0.0000
# 4 0.0000 0.0000 0.0000 12.4049 0.0000 5.3659
# 5 -7.7404 -16.2724 -34.3150 0.0000 39.8497 0.0000
# 6 0.0000 0.0000 0.0000 5.3659 0.0000 14.4667
#
#
#
# Elastic Compliance Matrix: (Units=1/GPa)
#
#
# Indices 1 2 3 4 5 6 
#
# 1 0.030325 -0.020222 -0.009637 0.000000 -0.010666 0.000000
# 2 -0.020222 0.043089 0.002828 0.000000 0.016103 0.000000
# 3 -0.009637 0.002828 0.015903 0.000000 0.012978 0.000000
# 4 0.000000 0.000000 0.000000 0.096019 0.000000 -0.035615
# 5 -0.010666 0.016103 0.012978 0.000000 0.040773 0.000000
# 6 0.000000 0.000000 0.000000 -0.035615 0.000000 0.082334
#
#
# Mechanical properties :
#
#
# Convention : Reuss Voigt Hill
#
# Bulk Modulus (GPa) = 28.36360 44.28421 36.32391
# Shear Modulus (GPa) = 13.35982 21.47001 17.41491
#
# Velocity S-wave (km/s) = 2.60348 3.30042 2.97245
# Velocity P-wave (km/s) = 4.84022 6.08204 5.49632
#
# Compressibility (1/GPa) = 0.03525645
#
# Stress axis : x y z
#
# Youngs Moduli (GPa) = 32.97612 23.20787 62.87988
#
# Poissons Ratio (x) = 0.46931 0.60597
# Poissons Ratio (y) = 0.66684 -0.17785
# Poissons Ratio (z) = 0.31779 -0.06564
#
# Static dielectric constant tensor:
#      x y z
#    x 1.683920 0.000000 -0.027700 
#    y 0.000000 1.715000 0.000000 
#    z -0.027700 0.000000 1.715360 
# 
# From -- ./inp_files/108645.got.cif
#   From: 2010.05.17/outbox.ucp.g08.bks.cvg/sg15_55_cif.got.tgz:108645.got - 2010.06.11 12:40:34.
