data_PCOD9308868
_publ_section_title
;
Structure prediction by ZEFSAII (Michael W. Deem and Ramdas Pophale) SiO2 
 PCOD9308868
Probable space group: C 2/C
;
_chemical_formula_sum "Si O2"
_cell_formula_units_Z 32
_cell_length_a 18.000000
_cell_length_b 24.000000
_cell_length_c 24.000000
_cell_angle_alpha 90.000000
_cell_angle_beta 20.000000
_cell_angle_gamma 90.000000
_cell_volume 3546.064846
_symmetry_space_group_name_H-M "C 2/C"
_symmetry_group_IT_number 15
_symmetry_cell_setting 'monoclinic'
loop_
_space_group_symop_operation_xyz
x,y,z
-x,y,1/2-z
-x,-y,-z
x,-y,1/2+z
1/2+x,1/2+y,z
1/2-x,1/2+y,1/2-z
1/2-x,1/2-y,-z
1/2+x,1/2-y,1/2+z
loop_
_atom_site_type_symbol
_atom_site_label
_atom_site_fract_x
_atom_site_fract_y
_atom_site_fract_z
Si Si1 0.998438 0.697772 0.884893
Si Si2 0.028109 0.933559 0.289877
Si Si3 0.792066 0.997600 0.185081
Si Si4 0.656213 0.895512 0.345887
Si Si5 0.734076 0.199143 0.608596
Si Si6 0.699490 0.385783 0.528419
Si Si7 0.786547 0.047512 0.311474
Si Si8 0.908188 0.493657 0.876594
O O1 0.074823 0.663730 0.884162
O O2 0.192876 0.698444 0.703101
O O3 0.912383 0.758211 0.961144
O O4 0.804470 0.661337 0.993360
O O5 0.156438 0.894954 0.241101
O O6 0.000000 0.907317 0.250000
O O7 0.164546 0.991719 0.187800
O O8 0.798804 0.954001 0.474311
O O9 0.827597 0.028676 0.218833
O O10 0.742932 0.933198 0.234076
O O11 0.588528 0.021371 0.294785
O O12 0.000000 0.000000 0.000000
O O13 0.454586 0.931150 0.511139
O O14 0.500000 0.218675 0.750000
O O15 0.776259 0.139291 0.550865
O O16 0.452462 0.404035 0.712198
O O17 0.830536 0.443017 0.442540
O O18 0.000000 0.492068 0.750000
#
# Coordination Sequence:
#
# PCOD9308868 Si02
#       8
#     8   8   8   8   8   8   8   8
#     4  11  23  36  57  75 115 139 189 227 275 329
#     4  10  20  35  51  75 108 139 179 224 257 314
#     4  11  21  35  52  78 114 146 183 225 260 319
#     4  11  22  35  52  79 105 146 183 223 270 317
#     4  10  22  37  52  79 109 144 186 228 273 330
#     4  10  20  34  54  78 108 152 184 215 267 326
#     4  10  22  32  53  77 111 148 185 215 264 317
#     4  11  19  32  52  77 108 150 182 209 265 317
#
# _framework density 9.0240880000000008
#
# number of rings (size 3 to 8) (size 9 to 14) (size 15 to 20)
#    0.000    1.500    1.250    7.875    7.000    0.000 
#    0.000    0.000    0.000    0.000    0.000    0.875 
#    0.000    0.000    0.000    0.000    0.000    0.000 
#
# Total GULP energy -178696.446944 kJ/mol
# GULP energy per Si atom -5584.263967 kJ/mol
# Density = 0.900355 g / cm^3
# Si number density = 9.024088 Si / 1000 Ang^3
#
#
#
# Elastic Constant Matrix: (Units=GPa)
#
#
# Indices 1 2 3 4 5 6 
#
# 1 74.3660 5.4457 18.7982 -0.4647 -15.9300 2.9744
# 2 5.4457 29.9914 13.3056 -0.1828 -3.2423 0.4280
# 3 18.7982 13.3056 77.3271 -0.8986 -6.5714 4.2075
# 4 -0.4647 -0.1828 -0.8986 13.5491 0.5777 -19.6354
# 5 -15.9300 -3.2423 -6.5714 0.5777 21.7774 -2.8758
# 6 2.9744 0.4280 4.2075 -19.6354 -2.8758 105.8491
#
#
#
# Elastic Compliance Matrix: (Units=1/GPa)
#
#
# Indices 1 2 3 4 5 6 
#
# 1 0.016642 -0.000477 -0.003011 -0.000237 0.011189 -0.000086
# 2 -0.000477 0.036393 -0.005874 0.000299 0.003322 0.000245
# 3 -0.003011 -0.005874 0.014812 0.000136 0.001334 -0.000419
# 4 -0.000237 0.000299 0.000136 0.100950 -0.000294 0.018719
# 5 0.011189 0.003322 0.001334 -0.000294 0.055149 0.001063
# 6 -0.000086 0.000245 -0.000419 0.018719 0.001063 0.012967
#
#
# Mechanical properties :
#
#
# Convention : Reuss Voigt Hill
#
# Bulk Modulus (GPa) = 20.35647 28.53149 24.44398
# Shear Modulus (GPa) = 18.38167 37.84412 28.11289
#
# Velocity S-wave (km/s) = 3.19482 4.58409 3.95100
# Velocity P-wave (km/s) = 4.99126 6.62279 5.86404
#
# Compressibility (1/GPa) = 0.04912443
#
# Stress axis : x y z
#
# Youngs Moduli (GPa) = 60.09011 27.47801 67.51081
#
# Poissons Ratio (x) = 0.01310 0.20326
# Poissons Ratio (y) = 0.02864 0.39655
# Poissons Ratio (z) = 0.18092 0.16140
#
# Static dielectric constant tensor:
#      x y z
#    x 1.659060 0.000370 0.020560 
#    y 0.000370 1.590230 0.000150 
#    z 0.020560 0.000150 1.643730 
# 
# From -- ./inp_files/278255.got.cif
#   From: 2010.05.17/outbox.ucp.g08.bks.cvg/sg15_140_cif.got.tgz:278255.got - 2010.06.11 12:40:34.
