data_PCOD9308924
_publ_section_title
;
Structure prediction by ZEFSAII (Michael W. Deem and Ramdas Pophale) SiO2 
 PCOD9308924
Probable space group: C 2/C
;
_chemical_formula_sum "Si O2"
_cell_formula_units_Z 22
_cell_length_a 18.000000
_cell_length_b 15.000000
_cell_length_c 9.000000
_cell_angle_alpha 90.000000
_cell_angle_beta 120.000000
_cell_angle_gamma 90.000000
_cell_volume 2104.441731
_symmetry_space_group_name_H-M "C 2/C"
_symmetry_group_IT_number 15
_symmetry_cell_setting 'monoclinic'
loop_
_space_group_symop_operation_xyz
x,y,z
-x,y,1/2-z
-x,-y,-z
x,-y,1/2+z
1/2+x,1/2+y,z
1/2-x,1/2+y,1/2-z
1/2-x,1/2-y,-z
1/2+x,1/2-y,1/2+z
loop_
_atom_site_type_symbol
_atom_site_label
_atom_site_fract_x
_atom_site_fract_y
_atom_site_fract_z
Si Si1 0.296199 0.138990 0.474712
Si Si2 0.000000 0.849825 0.250000
Si Si3 0.559711 0.810846 0.608137
Si Si4 0.138189 0.680263 0.655461
Si Si5 0.668497 0.627095 0.087151
Si Si6 0.665102 0.059911 0.420548
O O1 0.362078 0.187740 0.429093
O O2 0.304331 0.189771 0.639860
O O3 0.207986 0.114462 0.296284
O O4 0.340017 0.045541 0.569536
O O5 0.049111 0.782285 0.185903
O O6 0.074487 0.900042 0.423296
O O7 0.466135 0.823856 0.436974
O O8 0.589528 0.889030 0.753581
O O9 0.160134 0.765835 0.576063
O O10 0.164391 0.595261 0.587357
O O11 0.744761 0.587462 0.064505
#
# Coordination Sequence:
#
# PCOD9308924 Si02
#       6
#     8   4   8   8   8   8
#     4  11  24  34  56  92 129 150 190 252 307 346
#     4  10  20  42  66  84 108 158 218 244 276 366
#     4  10  20  36  58  87 118 159 195 230 298 351
#     4  11  20  36  57  89 122 156 200 239 288 359
#     4  10  22  40  61  83 112 162 210 242 291 347
#     4  11  21  37  58  86 121 164 196 235 298 366
#
# _framework density 10.454079
#
# number of rings (size 3 to 8) (size 9 to 14) (size 15 to 20)
#    0.000    1.455    3.636    3.818    2.545    4.364 
#    0.000    0.909    0.000    0.000    0.000    0.000 
#    0.000    0.000    0.000    0.000    0.000    0.000 
#
# Total GULP energy -122594.023845 kJ/mol
# GULP energy per Si atom -5572.455629 kJ/mol
# Density = 1.043028 g / cm^3
# Si number density = 10.454079 Si / 1000 Ang^3
#
#
#
# Elastic Constant Matrix: (Units=GPa)
#
#
# Indices 1 2 3 4 5 6 
#
# 1 69.3559 5.1399 26.0172 0.0000 6.8400 0.0000
# 2 5.1399 19.8779 -16.2892 0.0000 0.8311 0.0000
# 3 26.0172 -16.2892 178.3717 0.0000 23.9227 0.0000
# 4 0.0000 0.0000 0.0000 22.3622 0.0000 1.6891
# 5 6.8400 0.8311 23.9227 0.0000 45.6144 0.0000
# 6 0.0000 0.0000 0.0000 1.6891 0.0000 11.5190
#
#
#
# Elastic Compliance Matrix: (Units=1/GPa)
#
#
# Indices 1 2 3 4 5 6 
#
# 1 0.016030 -0.006418 -0.002816 0.000000 -0.000810 0.000000
# 2 -0.006418 0.057588 0.006676 0.000000 -0.003588 0.000000
# 3 -0.002816 0.006676 0.007085 0.000000 -0.003415 0.000000
# 4 0.000000 0.000000 0.000000 0.045219 0.000000 -0.006631
# 5 -0.000810 -0.003588 -0.003415 0.000000 0.023901 0.000000
# 6 0.000000 0.000000 0.000000 -0.006631 0.000000 0.087786
#
#
# Mechanical properties :
#
#
# Convention : Reuss Voigt Hill
#
# Bulk Modulus (GPa) = 13.22967 33.03792 23.13379
# Shear Modulus (GPa) = 18.66232 32.74830 25.70531
#
# Velocity S-wave (km/s) = 2.99086 3.96194 3.51014
# Velocity P-wave (km/s) = 4.27413 6.06341 5.24563
#
# Compressibility (1/GPa) = 0.07558767
#
# Stress axis : x y z
#
# Youngs Moduli (GPa) = 62.38238 17.36472 141.14969
#
# Poissons Ratio (x) = 0.11145 0.39743
# Poissons Ratio (y) = 0.40040 -0.94238
# Poissons Ratio (z) = 0.17565 -0.11594
#
# Static dielectric constant tensor:
#      x y z
#    x 1.742590 0.000000 -0.006390 
#    y 0.000000 1.761000 0.000000 
#    z -0.006390 0.000000 1.833000 
# 
# From -- ./inp_files/47547.got.cif
#   From: 2010.05.17/outbox.ucp.g08.bks.cvg/sg15_24_cif.got.tgz:47547.got - 2010.06.11 12:40:34.
