data_PCOD9308158
_publ_section_title
;
Structure prediction by ZEFSAII (Michael W. Deem and Ramdas Pophale) SiO2 
 PCOD9308158
Probable space group: C 2/C
;
_chemical_formula_sum "Si O2"
_cell_formula_units_Z 36
_cell_length_a 13.112959
_cell_length_b 7.914037
_cell_length_c 21.632441
_cell_angle_alpha 90.000000
_cell_angle_beta 139.996453
_cell_angle_gamma 90.000000
_cell_volume 1443.124645
_symmetry_space_group_name_H-M "C 2/C"
_symmetry_group_IT_number 15
_symmetry_cell_setting 'monoclinic'
loop_
_space_group_symop_operation_xyz
x,y,z
-x,y,1/2-z
-x,-y,-z
x,-y,1/2+z
1/2+x,1/2+y,z
1/2-x,1/2+y,1/2-z
1/2-x,1/2-y,-z
1/2+x,1/2-y,1/2+z
loop_
_atom_site_type_symbol
_atom_site_label
_atom_site_fract_x
_atom_site_fract_y
_atom_site_fract_z
Si Si1 0.651610 0.822880 0.896743
Si Si2 0.573190 0.888056 0.176973
Si Si3 0.553304 0.680938 0.049699
Si Si4 0.000000 0.922602 0.250000
Si Si5 0.721002 0.149578 0.150833
O O1 0.768182 0.805757 0.892404
O O2 0.506305 0.698465 0.812767
O O3 0.583514 0.010964 0.874091
O O4 0.750000 0.750000 0.000000
O O5 0.539083 0.731529 0.114656
O O6 0.686640 0.814237 0.282165
O O7 0.666740 0.028380 0.181097
O O8 0.500000 0.500000 0.000000
O O9 0.435045 0.807854 0.959785
O O10 0.849750 0.043358 0.173205
#
# Coordination Sequence:
#
# PCOD9308158 Si02
#       5
#     8   8   8   4   8
#     4  12  27  49  76 104 149 198 244 307 379 438
#     4  12  26  48  76 106 151 196 248 308 376 446
#     4  12  28  48  74 109 149 193 250 310 368 451
#     4  12  28  46  76 110 150 194 246 308 372 446
#     4  12  26  48  72 109 147 194 249 309 371 444
#
# _framework density 24.945868000000001
#
# number of rings (size 3 to 8) (size 9 to 14) (size 15 to 20)
#    0.000    0.000    4.444    4.667    9.333    0.889 
#    0.000    0.000    0.000    0.000    0.000    0.000 
#    0.000    0.000    0.000    0.000    0.000    0.000 
#
# Total GULP energy -100888.861856 kJ/mol
# GULP energy per Si atom -5604.936770 kJ/mol
# Density = 2.488909 g / cm^3
# Si number density = 24.945868 Si / 1000 Ang^3
#
#
#
# Elastic Constant Matrix: (Units=GPa)
#
#
# Indices 1 2 3 4 5 6 
#
# 1 83.3714 27.3425 19.3222 0.0000 15.8467 0.0000
# 2 27.3425 90.4896 33.8210 0.0000 12.7140 0.0000
# 3 19.3222 33.8210 121.8755 0.0000 7.4692 0.0000
# 4 0.0000 0.0000 0.0000 61.4008 0.0000 2.5360
# 5 15.8467 12.7140 7.4692 0.0000 29.7621 0.0000
# 6 0.0000 0.0000 0.0000 2.5360 0.0000 58.5916
#
#
#
# Elastic Compliance Matrix: (Units=1/GPa)
#
#
# Indices 1 2 3 4 5 6 
#
# 1 0.014413 -0.003108 -0.001050 0.000000 -0.006083 0.000000
# 2 -0.003108 0.013617 -0.003078 0.000000 -0.003390 0.000000
# 3 -0.001050 -0.003078 0.009253 0.000000 -0.000448 0.000000
# 4 0.000000 0.000000 0.000000 0.016316 0.000000 -0.000706
# 5 -0.006083 -0.003390 -0.000448 0.000000 0.038399 0.000000
# 6 0.000000 0.000000 0.000000 -0.000706 0.000000 0.017098
#
#
# Mechanical properties :
#
#
# Convention : Reuss Voigt Hill
#
# Bulk Modulus (GPa) = 43.83809 50.74532 47.29170
# Shear Modulus (GPa) = 38.11785 44.30097 41.20941
#
# Velocity S-wave (km/s) = 3.91323 4.21870 4.06883
# Velocity P-wave (km/s) = 6.16679 6.64200 6.40880
#
# Compressibility (1/GPa) = 0.02281121
#
# Stress axis : x y z
#
# Youngs Moduli (GPa) = 69.37993 73.43820 108.07040
#
# Poissons Ratio (x) = 0.22825 0.11345
# Poissons Ratio (y) = 0.21564 0.33267
# Poissons Ratio (z) = 0.07283 0.22606
#
# Static dielectric constant tensor:
#      x y z
#    x 2.042300 0.000000 0.036960 
#    y 0.000000 2.038960 0.000000 
#    z 0.036960 0.000000 1.936350 
# 
# From -- ./inp_files/150554.got.cif
#   From: 2010.05.17/outbox.cif.g08.bks.cpg/sg15_76_cif.got.tgz:150554.got - 2010.06.03 18:47:42.
