data_PCOD9308311
_publ_section_title
;
Structure prediction by ZEFSAII (Michael W. Deem and Ramdas Pophale) SiO2 
 PCOD9308311
Probable space group: C 2/C
;
_chemical_formula_sum "Si O2"
_cell_formula_units_Z 28
_cell_length_a 5.464880
_cell_length_b 16.286439
_cell_length_c 12.656513
_cell_angle_alpha 90.000000
_cell_angle_beta 107.256111
_cell_angle_gamma 90.000000
_cell_volume 1075.768671
_symmetry_space_group_name_H-M "C 2/C"
_symmetry_group_IT_number 15
_symmetry_cell_setting 'monoclinic'
loop_
_space_group_symop_operation_xyz
x,y,z
-x,y,1/2-z
-x,-y,-z
x,-y,1/2+z
1/2+x,1/2+y,z
1/2-x,1/2+y,1/2-z
1/2-x,1/2-y,-z
1/2+x,1/2-y,1/2+z
loop_
_atom_site_type_symbol
_atom_site_label
_atom_site_fract_x
_atom_site_fract_y
_atom_site_fract_z
Si Si1 0.091455 0.411217 0.555558
Si Si2 0.000000 0.530812 0.250000
Si Si3 0.203584 0.295129 0.103451
Si Si4 0.500000 0.573815 0.750000
Si Si5 0.500000 0.323635 0.750000
O O1 0.352258 0.380940 0.646189
O O2 0.000000 0.500000 0.500000
O O3 0.922401 0.412482 0.641359
O O4 0.049110 0.348356 0.455279
O O5 0.245693 0.476270 0.249498
O O6 0.416283 0.365050 0.146584
O O7 0.171132 0.238398 0.201161
O O8 0.250000 0.250000 0.000000
#
# Coordination Sequence:
#
# PCOD9308311 Si02
#       5
#     8   4   8   4   4
#     4  12  27  47  83 118 160 225 274 350 418 495
#     4  12  27  51  76 126 166 208 294 346 407 503
#     4  12  27  48  80 116 167 226 276 345 432 498
#     4  12  27  49  82 120 170 216 280 348 411 509
#     4  12  28  54  78 126 176 214 292 350 418 522
#
# _framework density 26.027899999999999
#
# number of rings (size 3 to 8) (size 9 to 14) (size 15 to 20)
#    0.000    0.000    2.857    6.000    4.000    1.143 
#    0.000    0.000    0.000    0.000    0.000    0.000 
#    0.000    0.000    0.000    0.000    0.000    0.000 
#
# Total GULP energy -78122.588102 kJ/mol
# GULP energy per Si atom -5580.184864 kJ/mol
# Density = 2.596866 g / cm^3
# Si number density = 26.027900 Si / 1000 Ang^3
#
#
#
# Elastic Constant Matrix: (Units=GPa)
#
#
# Indices 1 2 3 4 5 6 
#
# 1 136.7299 66.4818 24.1762 0.0000 3.6923 0.0000
# 2 66.4818 117.3688 31.0795 0.0000 16.0492 0.0000
# 3 24.1762 31.0795 118.2446 0.0000 21.6224 0.0000
# 4 0.0000 0.0000 0.0000 56.0828 0.0000 5.1924
# 5 3.6923 16.0492 21.6224 0.0000 53.6218 0.0000
# 6 0.0000 0.0000 0.0000 5.1924 0.0000 36.0197
#
#
#
# Elastic Compliance Matrix: (Units=1/GPa)
#
#
# Indices 1 2 3 4 5 6 
#
# 1 0.010222 -0.005757 -0.000824 0.000000 0.001351 0.000000
# 2 -0.005757 0.012585 -0.001635 0.000000 -0.002711 0.000000
# 3 -0.000824 -0.001635 0.009668 0.000000 -0.003353 0.000000
# 4 0.000000 0.000000 0.000000 0.018072 0.000000 -0.002605
# 5 0.001351 -0.002711 -0.003353 0.000000 0.020719 0.000000
# 6 0.000000 0.000000 0.000000 -0.002605 0.000000 0.028138
#
#
# Mechanical properties :
#
#
# Convention : Reuss Voigt Hill
#
# Bulk Modulus (GPa) = 62.33061 68.42426 65.37744
# Shear Modulus (GPa) = 41.25975 45.85191 43.55583
#
# Velocity S-wave (km/s) = 3.98579 4.20175 4.09519
# Velocity P-wave (km/s) = 6.72173 7.06296 6.89446
#
# Compressibility (1/GPa) = 0.01604348
#
# Stress axis : x y z
#
# Youngs Moduli (GPa) = 97.82878 79.46232 103.43059
#
# Poissons Ratio (x) = 0.45744 0.08523
# Poissons Ratio (y) = 0.56317 0.16911
# Poissons Ratio (z) = 0.08061 0.12992
#
# Static dielectric constant tensor:
#      x y z
#    x 2.111680 0.000000 0.176880 
#    y 0.000000 2.197020 0.000000 
#    z 0.176880 0.000000 0.593410 
# 
# From -- ./inp_files/128091.got.cif
#   From: 2010.05.17/outbox.cif.g08.bks.cpg/sg15_65_cif.got.tgz:128091.got - 2010.06.03 18:47:42.
