data_PCOD9308198
_publ_section_title
;
Structure prediction by ZEFSAII (Michael W. Deem and Ramdas Pophale) SiO2 
 PCOD9308198
Probable space group: C 2/C
;
_chemical_formula_sum "Si O2"
_cell_formula_units_Z 40
_cell_length_a 11.007670
_cell_length_b 18.616247
_cell_length_c 15.498213
_cell_angle_alpha 90.000000
_cell_angle_beta 33.941769
_cell_angle_gamma 90.000000
_cell_volume 1773.273462
_symmetry_space_group_name_H-M "C 2/C"
_symmetry_group_IT_number 15
_symmetry_cell_setting 'monoclinic'
loop_
_space_group_symop_operation_xyz
x,y,z
-x,y,1/2-z
-x,-y,-z
x,-y,1/2+z
1/2+x,1/2+y,z
1/2-x,1/2+y,1/2-z
1/2-x,1/2-y,-z
1/2+x,1/2-y,1/2+z
loop_
_atom_site_type_symbol
_atom_site_label
_atom_site_fract_x
_atom_site_fract_y
_atom_site_fract_z
Si Si1 0.678432 0.829478 0.069552
Si Si2 0.564950 0.573810 0.416045
Si Si3 0.146037 0.299633 0.743808
Si Si4 0.417235 0.161758 0.561191
Si Si5 0.265427 0.511867 0.838761
O O1 0.500000 0.824661 0.250000
O O2 0.592387 0.861977 0.030307
O O3 0.750000 0.750000 0.000000
O O4 0.863956 0.879976 0.999658
O O5 0.500000 0.500000 0.500000
O O6 0.721540 0.631034 0.369502
O O7 0.698967 0.543020 0.258894
O O8 0.311083 0.234318 0.662384
O O9 0.000000 0.275303 0.750000
O O10 0.018926 0.319239 0.907308
O O11 0.240382 0.098640 0.663866
O O12 0.500000 0.499009 0.750000
O O13 0.000000 0.500000 0.000000
#
# Coordination Sequence:
#
# PCOD9308198 Si02
#       5
#     8   8   8   8   8
#     4  12  26  48  82 117 160 210 282 343 412 500
#     4  12  29  47  76 113 161 208 267 341 415 490
#     4  12  28  47  76 110 155 204 273 333 416 492
#     4  12  26  49  77 113 150 210 273 336 407 494
#     4  12  27  49  77 111 157 208 264 329 411 487
#
# _framework density 22.557153
#
# number of rings (size 3 to 8) (size 9 to 14) (size 15 to 20)
#    0.000    0.000    4.000    4.800    5.600    2.400 
#    0.000    0.000    0.000    0.000    0.000    0.000 
#    0.000    0.000    0.000    0.000    0.000    0.000 
#
# Total GULP energy -111425.891249 kJ/mol
# GULP energy per Si atom -5571.294562 kJ/mol
# Density = 2.250581 g / cm^3
# Si number density = 22.557153 Si / 1000 Ang^3
#
#
#
# Elastic Constant Matrix: (Units=GPa)
#
#
# Indices 1 2 3 4 5 6 
#
# 1 93.3299 -4.9222 32.0739 -0.0005 -14.3308 0.0023
# 2 -4.9222 132.4284 41.4647 -0.0022 -9.6787 0.0030
# 3 32.0739 41.4647 131.8843 0.0247 -6.6203 -0.0048
# 4 -0.0005 -0.0022 0.0247 36.9577 0.0006 -8.3202
# 5 -14.3308 -9.6787 -6.6203 0.0006 35.0422 -0.0026
# 6 0.0023 0.0030 -0.0048 -8.3202 -0.0026 44.4166
#
#
#
# Elastic Compliance Matrix: (Units=1/GPa)
#
#
# Indices 1 2 3 4 5 6 
#
# 1 0.012791 0.001933 -0.003462 0.000002 0.005111 0.000000
# 2 0.001933 0.008786 -0.003100 0.000003 0.002632 0.000000
# 3 -0.003462 -0.003100 0.009374 -0.000006 -0.000501 0.000000
# 4 0.000002 0.000003 -0.000006 0.028249 0.000000 0.005292
# 5 0.005111 0.002632 -0.000501 0.000000 0.031259 0.000001
# 6 0.000000 0.000000 0.000000 0.005292 0.000001 0.023505
#
#
# Mechanical properties :
#
#
# Convention : Reuss Voigt Hill
#
# Bulk Modulus (GPa) = 46.09888 54.98615 50.54252
# Shear Modulus (GPa) = 38.32745 42.55170 40.43957
#
# Velocity S-wave (km/s) = 4.12652 4.34798 4.23869
# Velocity P-wave (km/s) = 6.57153 7.04527 6.81252
#
# Compressibility (1/GPa) = 0.02169250
#
# Stress axis : x y z
#
# Youngs Moduli (GPa) = 78.17918 113.81507 106.67871
#
# Poissons Ratio (x) = -0.22000 0.36931
# Poissons Ratio (y) = -0.15111 0.33074
# Poissons Ratio (z) = 0.27065 0.35287
#
# Static dielectric constant tensor:
#      x y z
#    x 1.347490 0.000230 0.380070 
#    y 0.000230 1.828470 -0.000250 
#    z 0.380070 -0.000250 1.483900 
# 
# From -- ./inp_files/199683.got.cif
#   From: 2010.05.17/outbox.cif.g08.bks.cpg/sg15_100_cif.got.tgz:199683.got - 2010.06.03 18:47:42.
