data_PCOD9308533
_publ_section_title
;
Structure prediction by ZEFSAII (Michael W. Deem and Ramdas Pophale) SiO2 
 PCOD9308533
Probable space group: C 2/C
;
_chemical_formula_sum "Si O2"
_cell_formula_units_Z 24
_cell_length_a 11.510653
_cell_length_b 6.944469
_cell_length_c 18.751646
_cell_angle_alpha 90.000000
_cell_angle_beta 139.245199
_cell_angle_gamma 90.000000
_cell_volume 978.529674
_symmetry_space_group_name_H-M "C 2/C"
_symmetry_group_IT_number 15
_symmetry_cell_setting 'monoclinic'
loop_
_space_group_symop_operation_xyz
x,y,z
-x,y,1/2-z
-x,-y,-z
x,-y,1/2+z
1/2+x,1/2+y,z
1/2-x,1/2+y,1/2-z
1/2-x,1/2-y,-z
1/2+x,1/2-y,1/2+z
loop_
_atom_site_type_symbol
_atom_site_label
_atom_site_fract_x
_atom_site_fract_y
_atom_site_fract_z
Si Si1 0.168365 0.672369 0.866398
Si Si2 0.974732 0.124042 0.409686
Si Si3 0.677134 0.426537 0.291229
O O1 0.000000 0.573373 0.750000
O O2 0.078931 0.748900 0.897314
O O3 0.218100 0.865030 0.844977
O O4 0.352803 0.561063 0.963834
O O5 0.835122 0.278188 0.374159
O O6 0.873913 0.963561 0.315340
O O7 0.500000 0.362753 0.250000
#
# Coordination Sequence:
#
# PCOD9308533 Si02
#       3
#     8   8   8
#     4   8  16  30  52  71  93 133 164 190 240 290
#     4   9  16  31  52  73  98 126 162 201 239 287
#     4   9  18  31  50  75  98 127 160 197 245 286
#
# _framework density 24.526595
#
# number of rings (size 3 to 8) (size 9 to 14) (size 15 to 20)
#    0.000    4.000    0.000    1.000    0.000    0.000 
#    0.000   13.333    0.000   64.000    0.000    0.000 
#    0.000    0.000    0.000    0.000    0.000    0.000 
#
# Total GULP energy -67019.008527 kJ/mol
# GULP energy per Si atom -5584.917377 kJ/mol
# Density = 2.447077 g / cm^3
# Si number density = 24.526595 Si / 1000 Ang^3
#
#
#
# Elastic Constant Matrix: (Units=GPa)
#
#
# Indices 1 2 3 4 5 6 
#
# 1 69.4410 49.3832 37.1000 0.0000 24.6735 0.0000
# 2 49.3832 105.9933 48.2562 0.0000 21.6152 0.0000
# 3 37.1000 48.2562 148.9676 0.0000 51.3346 0.0000
# 4 0.0000 0.0000 0.0000 28.9841 0.0000 9.7182
# 5 24.6735 21.6152 51.3346 0.0000 34.6338 0.0000
# 6 0.0000 0.0000 0.0000 9.7182 0.0000 17.9681
#
#
#
# Elastic Compliance Matrix: (Units=1/GPa)
#
#
# Indices 1 2 3 4 5 6 
#
# 1 0.025669 -0.009779 0.001990 0.000000 -0.015133 0.000000
# 2 -0.009779 0.014975 -0.003262 0.000000 0.002455 0.000000
# 3 0.001990 -0.003262 0.014433 0.000000 -0.020775 0.000000
# 4 0.000000 0.000000 0.000000 0.042144 0.000000 -0.022794
# 5 -0.015133 0.002455 -0.020775 0.000000 0.068915 0.000000
# 6 0.000000 0.000000 0.000000 -0.022794 0.000000 0.067983
#
#
# Mechanical properties :
#
#
# Convention : Reuss Voigt Hill
#
# Bulk Modulus (GPa) = 30.32570 65.98675 48.15622
# Shear Modulus (GPa) = 18.71169 28.96137 23.83653
#
# Velocity S-wave (km/s) = 2.76509 3.44003 3.12086
# Velocity P-wave (km/s) = 4.75242 6.53766 5.71518
#
# Compressibility (1/GPa) = 0.03297533
#
# Stress axis : x y z
#
# Youngs Moduli (GPa) = 38.95707 66.77766 69.28685
#
# Poissons Ratio (x) = 0.65305 -0.13788
# Poissons Ratio (y) = 0.38098 0.22598
# Poissons Ratio (z) = -0.07753 0.21780
#
# Static dielectric constant tensor:
#      x y z
#    x 2.036730 0.000000 -0.143980 
#    y 0.000000 1.877780 0.000000 
#    z -0.143980 0.000000 2.096460 
# 
# From -- ./inp_files/74728.got.cif
#   From: 2010.05.17/outbox.cif.g08.bks.cpg/sg15_38_cif.got.tgz:74728.got - 2010.06.03 18:47:42.
