data_PCOD9308345
_publ_section_title
;
Structure prediction by ZEFSAII (Michael W. Deem and Ramdas Pophale) SiO2 
 PCOD9308345
Probable space group: C 2/C
;
_chemical_formula_sum "Si O2"
_cell_formula_units_Z 28
_cell_length_a 8.695148
_cell_length_b 4.798088
_cell_length_c 28.217457
_cell_angle_alpha 90.000000
_cell_angle_beta 63.163437
_cell_angle_gamma 90.000000
_cell_volume 1050.444075
_symmetry_space_group_name_H-M "C 2/C"
_symmetry_group_IT_number 15
_symmetry_cell_setting 'monoclinic'
loop_
_space_group_symop_operation_xyz
x,y,z
-x,y,1/2-z
-x,-y,-z
x,-y,1/2+z
1/2+x,1/2+y,z
1/2-x,1/2+y,1/2-z
1/2-x,1/2-y,-z
1/2+x,1/2-y,1/2+z
loop_
_atom_site_type_symbol
_atom_site_label
_atom_site_fract_x
_atom_site_fract_y
_atom_site_fract_z
Si Si1 0.825987 0.149250 0.539045
Si Si2 0.000000 0.167856 0.750000
Si Si3 0.160661 0.996963 0.821465
Si Si4 0.539715 0.997490 0.893466
O O1 0.750000 0.250000 0.500000
O O2 0.881584 0.388843 0.568297
O O3 0.667009 0.963030 0.580782
O O4 0.000000 0.000000 0.500000
O O5 0.152506 0.367911 0.710876
O O6 0.065669 0.982007 0.784416
O O7 0.068695 0.817302 0.875296
O O8 0.140006 0.314838 0.840473
#
# Coordination Sequence:
#
# PCOD9308345 Si02
#       4
#     8   4   8   8
#     4  12  27  50  78 114 154 202 255 316 381 455
#     4  12  28  52  78 114 152 202 256 318 382 456
#     4  12  28  50  78 112 154 201 255 316 382 455
#     4  12  27  50  77 113 154 202 254 315 382 455
#
# _framework density 26.655397000000001
#
# number of rings (size 3 to 8) (size 9 to 14) (size 15 to 20)
#    0.000    0.000    0.000    8.571    0.000   12.571 
#    0.000    0.000    0.000    0.000    0.000    0.000 
#    0.000    0.000    0.000    0.000    0.000    0.000 
#
# Total GULP energy -78672.508991 kJ/mol
# GULP energy per Si atom -5619.464928 kJ/mol
# Density = 2.659473 g / cm^3
# Si number density = 26.655397 Si / 1000 Ang^3
#
#
#
# Elastic Constant Matrix: (Units=GPa)
#
#
# Indices 1 2 3 4 5 6 
#
# 1 187.7937 34.3670 66.4684 0.0000 -32.1458 0.0000
# 2 34.3670 81.1423 14.4060 0.0000 -13.1480 0.0000
# 3 66.4684 14.4060 113.9412 0.0000 -13.7534 0.0000
# 4 0.0000 0.0000 0.0000 33.0713 0.0000 5.9035
# 5 -32.1458 -13.1480 -13.7534 0.0000 62.1302 0.0000
# 6 0.0000 0.0000 0.0000 5.9035 0.0000 60.8222
#
#
#
# Elastic Compliance Matrix: (Units=1/GPa)
#
#
# Indices 1 2 3 4 5 6 
#
# 1 0.007493 -0.002079 -0.003795 0.000000 0.002597 0.000000
# 2 -0.002079 0.013536 -0.000290 0.000000 0.001724 0.000000
# 3 -0.003795 -0.000290 0.011079 0.000000 0.000428 0.000000
# 4 0.000000 0.000000 0.000000 0.030771 0.000000 -0.002987
# 5 0.002597 0.001724 0.000428 0.000000 0.017898 0.000000
# 6 0.000000 0.000000 0.000000 -0.002987 0.000000 0.016731
#
#
# Mechanical properties :
#
#
# Convention : Reuss Voigt Hill
#
# Bulk Modulus (GPa) = 50.55961 68.15112 59.35537
# Shear Modulus (GPa) = 42.94450 49.04711 45.99580
#
# Velocity S-wave (km/s) = 4.01820 4.29423 4.15851
# Velocity P-wave (km/s) = 6.36687 7.08591 6.73599
#
# Compressibility (1/GPa) = 0.01977863
#
# Stress axis : x y z
#
# Youngs Moduli (GPa) = 133.45482 73.87936 90.26468
#
# Poissons Ratio (x) = 0.15360 0.34254
# Poissons Ratio (y) = 0.27747 0.02621
# Poissons Ratio (z) = 0.50644 0.02145
#
# Static dielectric constant tensor:
#      x y z
#    x 1.991160 0.000000 0.007340 
#    y 0.000000 2.028400 0.000000 
#    z 0.007340 0.000000 2.098580 
# 
# From -- ./inp_files/284950.got.cif
#   From: 2010.05.17/outbox.cif.g08.bks.cpg/sg15_143_cif.got.tgz:284950.got - 2010.06.03 18:47:42.
