data_PCOD9308194
_publ_section_title
;
Structure prediction by ZEFSAII (Michael W. Deem and Ramdas Pophale) SiO2 
 PCOD9308194
Probable space group: C 2/C
;
_chemical_formula_sum "Si O2"
_cell_formula_units_Z 40
_cell_length_a 23.022054
_cell_length_b 4.724833
_cell_length_c 13.802861
_cell_angle_alpha 90.000000
_cell_angle_beta 80.845914
_cell_angle_gamma 90.000000
_cell_volume 1482.289312
_symmetry_space_group_name_H-M "C 2/C"
_symmetry_group_IT_number 15
_symmetry_cell_setting 'monoclinic'
loop_
_space_group_symop_operation_xyz
x,y,z
-x,y,1/2-z
-x,-y,-z
x,-y,1/2+z
1/2+x,1/2+y,z
1/2-x,1/2+y,1/2-z
1/2-x,1/2-y,-z
1/2+x,1/2-y,1/2+z
loop_
_atom_site_type_symbol
_atom_site_label
_atom_site_fract_x
_atom_site_fract_y
_atom_site_fract_z
Si Si1 0.780721 0.035844 0.286422
Si Si2 0.386110 0.273985 0.035546
Si Si3 0.500000 0.567206 0.250000
Si Si4 0.750000 0.750000 0.000000
Si Si5 0.887737 0.551315 0.733036
Si Si6 0.425315 0.207247 0.410947
O O1 0.729172 0.222690 0.249191
O O2 0.772606 0.058736 0.402485
O O3 0.838131 0.207192 0.239147
O O4 0.391916 0.158065 0.141784
O O5 0.319257 0.215255 0.019392
O O6 0.399268 0.594935 0.002160
O O7 0.432688 0.093688 0.959435
O O8 0.552720 0.770014 0.268334
O O9 0.478051 0.365336 0.343022
O O10 0.881384 0.364785 0.833064
#
# Coordination Sequence:
#
# PCOD9308194 Si02
#       6
#     8   8   4   4   8   8
#     4  12  29  49  81 118 160 212 263 331 405 483
#     4  12  30  46  85 114 163 212 267 329 405 485
#     4  12  28  54  84 110 170 214 266 350 386 484
#     4  12  26  48  80 118 160 210 262 322 402 480
#     4  12  29  55  79 119 163 213 271 334 410 474
#     4  12  28  53  75 119 155 210 272 332 397 476
#
# _framework density 26.985285999999999
#
# number of rings (size 3 to 8) (size 9 to 14) (size 15 to 20)
#    0.000    0.000    6.000    0.600   11.200    3.200 
#    0.000    0.000    0.000    0.000    0.000    0.000 
#    0.000    0.000    0.000    0.000    0.000    0.000 
#
# Total GULP energy -111768.673153 kJ/mol
# GULP energy per Si atom -5588.433658 kJ/mol
# Density = 2.692387 g / cm^3
# Si number density = 26.985286 Si / 1000 Ang^3
#
#
#
# Elastic Constant Matrix: (Units=GPa)
#
#
# Indices 1 2 3 4 5 6 
#
# 1 129.5599 10.0689 -30.6740 0.0000 -3.8648 0.0000
# 2 10.0689 106.3282 -13.4679 0.0000 -0.0358 0.0000
# 3 -30.6740 -13.4679 75.3311 0.0000 -2.5525 0.0000
# 4 0.0000 0.0000 0.0000 23.8394 0.0000 -9.7893
# 5 -3.8648 -0.0358 -2.5525 0.0000 33.7371 0.0000
# 6 0.0000 0.0000 0.0000 -9.7893 0.0000 33.7020
#
#
#
# Elastic Compliance Matrix: (Units=1/GPa)
#
#
# Indices 1 2 3 4 5 6 
#
# 1 0.008609 -0.000374 0.003481 0.000000 0.001249 0.000000
# 2 -0.000374 0.009640 0.001574 0.000000 0.000086 0.000000
# 3 0.003481 0.001574 0.015026 0.000000 0.001537 0.000000
# 4 0.000000 0.000000 0.000000 0.047628 0.000000 0.013834
# 5 0.001249 0.000086 0.001537 0.000000 0.029900 0.000000
# 6 0.000000 0.000000 0.000000 0.013834 0.000000 0.033690
#
#
# Mechanical properties :
#
#
# Convention : Reuss Voigt Hill
#
# Bulk Modulus (GPa) = 23.45415 27.00814 25.23115
# Shear Modulus (GPa) = 33.47998 41.27518 37.37758
#
# Velocity S-wave (km/s) = 3.52614 3.91518 3.72574
# Velocity P-wave (km/s) = 5.02877 5.51982 5.28001
#
# Compressibility (1/GPa) = 0.04263638
#
# Stress axis : x y z
#
# Youngs Moduli (GPa) = 116.15904 103.73809 66.55292
#
# Poissons Ratio (x) = 0.03879 -0.23167
# Poissons Ratio (y) = 0.04343 -0.10476
# Poissons Ratio (z) = -0.40434 -0.16329
#
# Static dielectric constant tensor:
#      x y z
#    x 2.122900 0.000000 0.000160 
#    y 0.000000 2.036130 0.000000 
#    z 0.000160 0.000000 2.095940 
# 
# From -- ./inp_files/170573.got.cif
#   From: 2010.05.17/outbox.cif.g08.bks.cpg/sg15_86_cif.got.tgz:170573.got - 2010.06.03 18:47:42.
