data_PCOD9308402
_publ_section_title
;
Structure prediction by ZEFSAII (Michael W. Deem and Ramdas Pophale) SiO2 
 PCOD9308402
Probable space group: C 2/C
;
_chemical_formula_sum "Si O2"
_cell_formula_units_Z 28
_cell_length_a 10.884536
_cell_length_b 13.652889
_cell_length_c 8.565339
_cell_angle_alpha 90.000000
_cell_angle_beta 58.961452
_cell_angle_gamma 90.000000
_cell_volume 1090.608636
_symmetry_space_group_name_H-M "C 2/C"
_symmetry_group_IT_number 15
_symmetry_cell_setting 'monoclinic'
loop_
_space_group_symop_operation_xyz
x,y,z
-x,y,1/2-z
-x,-y,-z
x,-y,1/2+z
1/2+x,1/2+y,z
1/2-x,1/2+y,1/2-z
1/2-x,1/2-y,-z
1/2+x,1/2-y,1/2+z
loop_
_atom_site_type_symbol
_atom_site_label
_atom_site_fract_x
_atom_site_fract_y
_atom_site_fract_z
Si Si1 0.635953 0.068887 0.427607
Si Si2 0.500000 0.784653 0.250000
Si Si3 0.749395 0.260357 0.813504
Si Si4 0.600723 0.564873 0.820587
O O1 0.605547 0.142269 0.588460
O O2 0.658411 0.142406 0.270847
O O3 0.500000 0.000000 0.500000
O O4 0.777489 0.003590 0.336171
O O5 0.401939 0.728872 0.184112
O O6 0.820650 0.165277 0.684679
O O7 0.750000 0.250000 0.000000
O O8 0.500000 0.600628 0.750000
O O9 0.500000 0.500000 0.000000
#
# Coordination Sequence:
#
# PCOD9308402 Si02
#       4
#     8   4   8   8
#     4  12  29  52  86 125 172 224 283 353 429 506
#     4  12  28  54  84 124 174 224 284 358 422 512
#     4  12  30  54  87 124 168 222 288 348 428 508
#     4  12  28  51  82 122 170 219 281 350 427 505
#
# _framework density 25.673738
#
# number of rings (size 3 to 8) (size 9 to 14) (size 15 to 20)
#    0.000    0.000    2.857    4.286   14.000    0.000 
#    0.000    0.000    0.000    0.000    0.000    0.000 
#    0.000    0.000    0.000    0.000    0.000    0.000 
#
# Total GULP energy -78378.110367 kJ/mol
# GULP energy per Si atom -5598.436455 kJ/mol
# Density = 2.561530 g / cm^3
# Si number density = 25.673738 Si / 1000 Ang^3
#
#
#
# Elastic Constant Matrix: (Units=GPa)
#
#
# Indices 1 2 3 4 5 6 
#
# 1 186.9964 53.0819 77.3073 0.0000 8.3625 0.0000
# 2 53.0819 134.8448 37.2940 0.0000 -12.1265 0.0000
# 3 77.3073 37.2940 120.5966 0.0000 -13.5073 0.0000
# 4 0.0000 0.0000 0.0000 64.4923 0.0000 -22.9277
# 5 8.3625 -12.1265 -13.5073 0.0000 49.1293 0.0000
# 6 0.0000 0.0000 0.0000 -22.9277 0.0000 36.3334
#
#
#
# Elastic Compliance Matrix: (Units=1/GPa)
#
#
# Indices 1 2 3 4 5 6 
#
# 1 0.008133 -0.002135 -0.004919 0.000000 -0.003264 0.000000
# 2 -0.002135 0.008758 -0.001091 0.000000 0.002225 0.000000
# 3 -0.004919 -0.001091 0.012223 0.000000 0.003929 0.000000
# 4 0.000000 0.000000 0.000000 0.019990 0.000000 0.012615
# 5 -0.003264 0.002225 0.003929 0.000000 0.022539 0.000000
# 6 0.000000 0.000000 0.000000 0.012615 0.000000 0.035483
#
#
# Mechanical properties :
#
#
# Convention : Reuss Voigt Hill
#
# Bulk Modulus (GPa) = 77.97307 86.42270 82.19789
# Shear Modulus (GPa) = 39.15695 48.30796 43.73246
#
# Velocity S-wave (km/s) = 3.90959 4.34246 4.13170
# Velocity P-wave (km/s) = 7.12857 7.67317 7.40588
#
# Compressibility (1/GPa) = 0.01282494
#
# Stress axis : x y z
#
# Youngs Moduli (GPa) = 122.95150 114.18084 81.81418
#
# Poissons Ratio (x) = 0.24374 0.40246
# Poissons Ratio (y) = 0.26246 0.08924
# Poissons Ratio (z) = 0.60482 0.12454
#
# Static dielectric constant tensor:
#      x y z
#    x 2.017810 0.000000 0.025110 
#    y 0.000000 2.006770 0.000000 
#    z 0.025110 0.000000 2.113990 
# 
# From -- ./inp_files/27817.got.cif
#   From: 2010.05.17/outbox.cif.g08.bks.cpg/sg15_14_cif.got.tgz:27817.got - 2010.06.03 18:47:42.
