data_PCOD9308671
_publ_section_title
;
Structure prediction by ZEFSAII (Michael W. Deem and Ramdas Pophale) SiO2 
 PCOD9308671
Probable space group: C 2/C
;
_chemical_formula_sum "Si O2"
_cell_formula_units_Z 28
_cell_length_a 24.000000
_cell_length_b 15.000000
_cell_length_c 24.000000
_cell_angle_alpha 90.000000
_cell_angle_beta 160.000000
_cell_angle_gamma 90.000000
_cell_volume 2955.054038
_symmetry_space_group_name_H-M "C 2/C"
_symmetry_group_IT_number 15
_symmetry_cell_setting 'monoclinic'
loop_
_space_group_symop_operation_xyz
x,y,z
-x,y,1/2-z
-x,-y,-z
x,-y,1/2+z
1/2+x,1/2+y,z
1/2-x,1/2+y,1/2-z
1/2-x,1/2-y,-z
1/2+x,1/2-y,1/2+z
loop_
_atom_site_type_symbol
_atom_site_label
_atom_site_fract_x
_atom_site_fract_y
_atom_site_fract_z
Si Si1 0.894447 0.317739 0.568429
Si Si2 0.966047 0.681321 0.014461
Si Si3 0.838722 0.125442 0.374173
Si Si4 0.547964 0.850211 0.128427
Si Si5 0.254350 0.869703 0.550329
Si Si6 0.847207 0.856251 0.753831
Si Si7 0.834484 0.030952 0.957172
O O1 0.868528 0.344502 0.479315
O O2 0.867549 0.210905 0.548044
O O3 0.779218 0.362896 0.506906
O O4 0.075233 0.342447 0.759608
O O5 0.947723 0.788014 0.990351
O O6 0.925510 0.641863 0.914616
O O7 0.150775 0.656087 0.203235
O O8 0.852157 0.107073 0.321534
O O9 0.873987 0.041566 0.445985
O O10 0.602133 0.748789 0.195182
O O11 0.675782 0.913547 0.283196
O O12 0.347521 0.862931 0.948154
O O13 0.209733 0.966659 0.532141
O O14 0.005677 0.908852 0.877824
#
# Coordination Sequence:
#
# PCOD9308671 Si02
#       7
#     8   8   8   8   8   8   8
#     4  10  18  40  58  82 128 160 211 246 317 368
#     4  10  18  35  56  79 125 165 208 244 324 369
#     4  10  21  34  52  88 117 169 211 253 299 384
#     4  10  22  37  60  86 124 175 205 256 323 383
#     4  10  22  35  61  90 117 174 208 256 305 374
#     4  10  21  39  56  83 127 172 206 260 322 368
#     4  12  21  39  57  90 128 159 225 258 308 376
#
# _framework density 9.4752919999999996
#
# number of rings (size 3 to 8) (size 9 to 14) (size 15 to 20)
#    0.000    1.714    4.286    0.429    2.000    2.286 
#    5.143    0.000    0.000    0.000    0.000    4.000 
#    0.000    0.000    0.000    0.000    0.000    0.000 
#
# Total GULP energy -156072.301731 kJ/mol
# GULP energy per Si atom -5574.010776 kJ/mol
# Density = 0.945373 g / cm^3
# Si number density = 9.475292 Si / 1000 Ang^3
#
#
#
# Elastic Constant Matrix: (Units=GPa)
#
#
# Indices 1 2 3 4 5 6 
#
# 1 88.6398 44.4258 39.6558 0.0010 7.4363 -0.0001
# 2 44.4258 96.9621 35.5543 0.0012 4.0869 0.0035
# 3 39.6558 35.5543 76.0506 0.0054 10.4343 0.0026
# 4 0.0010 0.0012 0.0054 43.7420 0.0014 0.6358
# 5 7.4363 4.0869 10.4343 0.0014 20.4946 0.0008
# 6 -0.0001 0.0035 0.0026 0.6358 0.0008 32.6058
#
#
#
# Elastic Compliance Matrix: (Units=1/GPa)
#
#
# Indices 1 2 3 4 5 6 
#
# 1 0.016848 -0.005448 -0.005965 0.000001 -0.001990 0.000001
# 2 -0.005448 0.014214 -0.003963 0.000000 0.001160 -0.000001
# 3 -0.005965 -0.003963 0.019037 -0.000002 -0.006737 -0.000001
# 4 0.000001 0.000000 -0.000002 0.022868 -0.000001 -0.000446
# 5 -0.001990 0.001160 -0.006737 -0.000001 0.052714 -0.000001
# 6 0.000001 -0.000001 -0.000001 -0.000446 -0.000001 0.030678
#
#
# Mechanical properties :
#
#
# Convention : Reuss Voigt Hill
#
# Bulk Modulus (GPa) = 51.69206 55.65824 53.67515
# Shear Modulus (GPa) = 25.83173 28.83624 27.33399
#
# Velocity S-wave (km/s) = 3.69604 3.90507 3.80199
# Velocity P-wave (km/s) = 6.74913 7.05455 6.90353
#
# Compressibility (1/GPa) = 0.01934533
#
# Stress axis : x y z
#
# Youngs Moduli (GPa) = 59.35504 70.35346 52.52953
#
# Poissons Ratio (x) = 0.38329 0.31334
# Poissons Ratio (y) = 0.32337 0.20820
# Poissons Ratio (z) = 0.35406 0.27884
#
# Static dielectric constant tensor:
#      x y z
#    x 1.730790 0.000000 0.041780 
#    y 0.000000 1.657200 0.000000 
#    z 0.041780 0.000000 1.680640 
# 
# From -- ./inp_files/282116.got.cif
#   From: 2010.05.17/outbox.ucp.g08.bks.cvg/sg15_142_cif.got.tgz:282116.got - 2010.06.11 12:40:34.
