data_PCOD9308803
_publ_section_title
;
Structure prediction by ZEFSAII (Michael W. Deem and Ramdas Pophale) SiO2 
 PCOD9308803
Probable space group: C 2/C
;
_chemical_formula_sum "Si O2"
_cell_formula_units_Z 30
_cell_length_a 15.000000
_cell_length_b 21.000000
_cell_length_c 30.000000
_cell_angle_alpha 90.000000
_cell_angle_beta 160.000000
_cell_angle_gamma 90.000000
_cell_volume 3232.090354
_symmetry_space_group_name_H-M "C 2/C"
_symmetry_group_IT_number 15
_symmetry_cell_setting 'monoclinic'
loop_
_space_group_symop_operation_xyz
x,y,z
-x,y,1/2-z
-x,-y,-z
x,-y,1/2+z
1/2+x,1/2+y,z
1/2-x,1/2+y,1/2-z
1/2-x,1/2-y,-z
1/2+x,1/2-y,1/2+z
loop_
_atom_site_type_symbol
_atom_site_label
_atom_site_fract_x
_atom_site_fract_y
_atom_site_fract_z
Si Si1 0.708211 0.642260 0.038405
Si Si2 0.666958 0.357156 0.949659
Si Si3 0.094861 0.617196 0.141189
Si Si4 0.825654 0.729305 0.600240
Si Si5 0.372211 0.526055 0.868485
Si Si6 0.867924 0.744355 0.391447
Si Si7 0.500000 0.062087 0.250000
Si Si8 0.575768 0.016511 0.916254
O O1 0.863655 0.638554 0.065363
O O2 0.893352 0.608117 0.161376
O O3 0.448298 0.598063 0.917351
O O4 0.628088 0.714898 0.007653
O O5 0.372168 0.376949 0.797657
O O6 0.743132 0.294394 0.957874
O O7 0.706693 0.331850 0.019089
O O8 0.853713 0.416793 0.027916
O O9 0.109173 0.669047 0.108339
O O10 0.018720 0.543048 0.097788
O O11 0.723652 0.739375 0.601953
O O12 0.140636 0.729444 0.751624
O O13 0.234425 0.482845 0.841656
O O14 0.157108 0.525633 0.728423
O O15 0.652351 0.499922 0.982234
#
# Coordination Sequence:
#
# PCOD9308803 Si02
#       8
#     8   8   8   8   8   8   4   8
#     4  11  23  34  55  81 115 156 186 236 287 347
#     4  10  19  37  62  83 116 146 191 241 286 352
#     4  10  21  38  56  82 114 153 191 234 288 343
#     4   9  21  37  59  87 108 149 194 239 290 337
#     4  11  22  35  53  82 119 146 195 226 289 350
#     4  10  21  38  58  81 113 149 196 238 283 346
#     4  12  22  36  50  86 118 156 188 240 296 354
#     4  11  20  36  58  84 110 156 185 239 286 351
#
# _framework density 9.2819190000000003
#
# number of rings (size 3 to 8) (size 9 to 14) (size 15 to 20)
#    0.000    1.600    4.000    1.600    3.733    1.067 
#    0.000    0.667    0.000    0.000    0.000    0.000 
#    0.000    0.000    0.000    0.000    0.000    0.000 
#
# Total GULP energy -167256.059630 kJ/mol
# GULP energy per Si atom -5575.201988 kJ/mol
# Density = 0.926079 g / cm^3
# Si number density = 9.281919 Si / 1000 Ang^3
#
#
#
# Elastic Constant Matrix: (Units=GPa)
#
#
# Indices 1 2 3 4 5 6 
#
# 1 10.0178 2.2970 11.0022 0.0084 -6.3980 0.0060
# 2 2.2970 114.8848 32.2410 -0.0024 -5.2234 -0.0011
# 3 11.0022 32.2410 77.9224 0.0378 5.1192 -0.0388
# 4 0.0084 -0.0024 0.0378 33.5314 -0.0234 4.3351
# 5 -6.3980 -5.2234 5.1192 -0.0234 18.9775 0.0049
# 6 0.0060 -0.0011 -0.0388 4.3351 0.0049 20.6681
#
#
#
# Elastic Compliance Matrix: (Units=1/GPa)
#
#
# Indices 1 2 3 4 5 6 
#
# 1 0.182324 0.009351 -0.034430 0.000064 0.073329 -0.000148
# 2 0.009351 0.010616 -0.006222 0.000013 0.007753 -0.000018
# 3 -0.034430 -0.006222 0.021526 -0.000038 -0.019127 0.000063
# 4 0.000064 0.000013 -0.000038 0.030654 0.000075 -0.006430
# 5 0.073329 0.007753 -0.019127 0.000075 0.084709 -0.000093
# 6 -0.000148 -0.000018 0.000063 -0.006430 -0.000093 0.049732
#
#
# Mechanical properties :
#
#
# Convention : Reuss Voigt Hill
#
# Bulk Modulus (GPa) = 6.58483 32.65613 19.62048
# Shear Modulus (GPa) = 10.14642 25.12107 17.63375
#
# Velocity S-wave (km/s) = 2.34042 3.68261 3.08538
# Velocity P-wave (km/s) = 3.29518 5.97592 4.82545
#
# Compressibility (1/GPa) = 0.15186416
#
# Stress axis : x y z
#
# Youngs Moduli (GPa) = 5.48473 94.19691 46.45638
#
# Poissons Ratio (x) = -0.88082 1.59948
# Poissons Ratio (y) = -0.05129 0.28906
# Poissons Ratio (z) = 0.18884 0.58610
#
# Static dielectric constant tensor:
#      x y z
#    x 1.654270 0.000000 -0.020350 
#    y 0.000000 1.684250 -0.000020 
#    z -0.020350 -0.000020 1.652320 
# 
# From -- ./inp_files/314474.got.cif
#   From: 2010.05.17/outbox.ucp.g08.bks.cvg/sg15_158_cif.got.tgz:314474.got - 2010.06.11 12:40:34.
