data_PCOD9308914
_publ_section_title
;
Structure prediction by ZEFSAII (Michael W. Deem and Ramdas Pophale) SiO2 
 PCOD9308914
Probable space group: C 2/C
;
_chemical_formula_sum "Si O2"
_cell_formula_units_Z 28
_cell_length_a 18.000000
_cell_length_b 27.000000
_cell_length_c 9.000000
_cell_angle_alpha 90.000000
_cell_angle_beta 40.000000
_cell_angle_gamma 90.000000
_cell_volume 2811.553005
_symmetry_space_group_name_H-M "C 2/C"
_symmetry_group_IT_number 15
_symmetry_cell_setting 'monoclinic'
loop_
_space_group_symop_operation_xyz
x,y,z
-x,y,1/2-z
-x,-y,-z
x,-y,1/2+z
1/2+x,1/2+y,z
1/2-x,1/2+y,1/2-z
1/2-x,1/2-y,-z
1/2+x,1/2-y,1/2+z
loop_
_atom_site_type_symbol
_atom_site_label
_atom_site_fract_x
_atom_site_fract_y
_atom_site_fract_z
Si Si1 0.934649 0.569548 0.118543
Si Si2 0.798923 0.815518 0.085878
Si Si3 0.827905 0.218887 0.211200
Si Si4 0.319328 0.822054 0.797269
Si Si5 0.713647 0.928272 0.187059
Si Si6 0.676614 0.006733 0.476651
Si Si7 0.915564 0.214017 0.690946
O O1 0.876041 0.623963 0.230432
O O2 0.892734 0.542645 0.030832
O O3 0.895965 0.530506 0.305026
O O4 0.072962 0.575452 0.906338
O O5 0.696750 0.776647 0.288716
O O6 0.763199 0.873052 0.131736
O O7 0.900241 0.805298 0.046358
O O8 0.831443 0.793232 0.877910
O O9 0.720240 0.187735 0.311645
O O10 0.953897 0.204586 0.959849
O O11 0.394200 0.773700 0.727147
O O12 0.194815 0.813337 0.066409
O O13 0.745594 0.967645 0.267551
O O14 0.741972 0.955821 0.988231
#
# Coordination Sequence:
#
# PCOD9308914 Si02
#       7
#     8   8   8   8   8   8   8
#     4  11  19  33  51  77 108 136 166 208 255 308
#     4  10  21  33  54  79 103 138 173 200 256 306
#     4  10  20  36  52  77 108 135 169 212 246 300
#     4  10  21  33  54  79 103 138 173 200 256 306
#     4  11  19  33  51  77 108 136 166 208 255 308
#     4  10  21  32  50  76 107 136 167 208 260 308
#     4  10  20  36  52  77 108 135 169 212 246 300
#
# _framework density 9.9589090000000002
#
# number of rings (size 3 to 8) (size 9 to 14) (size 15 to 20)
#    0.000    1.714    0.000    6.857    0.000    0.000 
#    0.000    8.571    0.000    0.000    0.000   70.000 
#    0.000    0.000    0.000    0.000    0.000    0.000 
#
# Total GULP energy -156149.281781 kJ/mol
# GULP energy per Si atom -5576.760064 kJ/mol
# Density = 0.993624 g / cm^3
# Si number density = 9.958909 Si / 1000 Ang^3
#
#
#
# Elastic Constant Matrix: (Units=GPa)
#
#
# Indices 1 2 3 4 5 6 
#
# 1 47.0335 21.8131 26.5429 0.0000 10.6088 0.0000
# 2 21.8131 171.9523 19.8522 0.0000 -3.4124 0.0000
# 3 26.5429 19.8522 39.3187 0.0000 5.2230 0.0000
# 4 0.0000 0.0000 0.0000 26.0096 0.0000 1.5296
# 5 10.6088 -3.4124 5.2230 0.0000 35.1676 0.0000
# 6 0.0000 0.0000 0.0000 1.5296 0.0000 26.8615
#
#
#
# Elastic Compliance Matrix: (Units=1/GPa)
#
#
# Indices 1 2 3 4 5 6 
#
# 1 0.036927 -0.002216 -0.022750 0.000000 -0.007976 0.000000
# 2 -0.002216 0.006349 -0.001918 0.000000 0.001570 0.000000
# 3 -0.022750 -0.001918 0.041695 0.000000 0.000484 0.000000
# 4 0.000000 0.000000 0.000000 0.038577 0.000000 -0.002197
# 5 -0.007976 0.001570 0.000484 0.000000 0.030922 0.000000
# 6 0.000000 0.000000 0.000000 -0.002197 0.000000 0.037353
#
#
# Mechanical properties :
#
#
# Convention : Reuss Voigt Hill
#
# Bulk Modulus (GPa) = 32.04830 43.85789 37.95309
# Shear Modulus (GPa) = 19.53185 30.28084 24.90634
#
# Velocity S-wave (km/s) = 3.13489 3.90332 3.54001
# Velocity P-wave (km/s) = 5.40634 6.51013 5.98374
#
# Compressibility (1/GPa) = 0.03120290
#
# Stress axis : x y z
#
# Youngs Moduli (GPa) = 27.08048 157.49755 23.98361
#
# Poissons Ratio (x) = 0.34904 0.54562
# Poissons Ratio (y) = 0.06001 0.04601
# Poissons Ratio (z) = 0.61608 0.30211
#
# Static dielectric constant tensor:
#      x y z
#    x 1.770810 0.000000 0.092290 
#    y 0.000000 1.656120 0.000000 
#    z 0.092290 0.000000 1.799390 
# 
# From -- ./inp_files/51579.got.cif
#   From: 2010.05.17/outbox.ucp.g08.bks.cvg/sg15_26_cif.got.tgz:51579.got - 2010.06.11 12:40:34.
