data_PCOD9308246
_publ_section_title
;
Structure prediction by ZEFSAII (Michael W. Deem and Ramdas Pophale) SiO2 
 PCOD9308246
Probable space group: C 2/C
;
_chemical_formula_sum "Si O2"
_cell_formula_units_Z 40
_cell_length_a 11.138658
_cell_length_b 19.957410
_cell_length_c 7.765734
_cell_angle_alpha 90.000000
_cell_angle_beta 58.807897
_cell_angle_gamma 90.000000
_cell_volume 1476.749748
_symmetry_space_group_name_H-M "C 2/C"
_symmetry_group_IT_number 15
_symmetry_cell_setting 'monoclinic'
loop_
_space_group_symop_operation_xyz
x,y,z
-x,y,1/2-z
-x,-y,-z
x,-y,1/2+z
1/2+x,1/2+y,z
1/2-x,1/2+y,1/2-z
1/2-x,1/2-y,-z
1/2+x,1/2-y,1/2+z
loop_
_atom_site_type_symbol
_atom_site_label
_atom_site_fract_x
_atom_site_fract_y
_atom_site_fract_z
Si Si1 0.546464 0.678809 0.011649
Si Si2 0.337437 0.982900 0.173500
Si Si3 0.685284 0.598672 0.484356
Si Si4 0.618810 0.193748 0.261575
Si Si5 0.843458 0.357112 0.396403
O O1 0.500000 0.680559 0.250000
O O2 0.529693 0.616989 0.529471
O O3 0.530591 0.743994 0.902109
O O4 0.715047 0.675429 0.892933
O O5 0.344364 0.933420 0.333811
O O6 0.252040 0.047959 0.293937
O O7 0.242524 0.940846 0.109045
O O8 0.500000 0.000000 0.000000
O O9 0.748440 0.674930 0.454822
O O10 0.500000 0.151222 0.250000
O O11 0.677971 0.162094 0.391918
O O12 0.000000 0.331034 0.250000
#
# Coordination Sequence:
#
# PCOD9308246 Si02
#       5
#     8   8   8   8   8
#     4  12  30  51  77 120 167 217 268 338 419 479
#     4  12  27  51  86 120 163 212 274 336 411 493
#     4  12  27  50  80 124 160 215 274 338 408 487
#     4  12  27  48  79 116 162 214 271 328 404 494
#     4  12  26  50  82 111 160 217 270 333 409 485
#
# _framework density 27.086511999999999
#
# number of rings (size 3 to 8) (size 9 to 14) (size 15 to 20)
#    0.000    0.000    2.000    7.800    5.600    1.600 
#    0.000    0.000    0.000    0.000    0.000    0.000 
#    0.000    0.000    0.000    0.000    0.000    0.000 
#
# Total GULP energy -111491.805735 kJ/mol
# GULP energy per Si atom -5574.590287 kJ/mol
# Density = 2.702486 g / cm^3
# Si number density = 27.086512 Si / 1000 Ang^3
#
#
#
# Elastic Constant Matrix: (Units=GPa)
#
#
# Indices 1 2 3 4 5 6 
#
# 1 205.0796 44.5621 42.4188 0.0000 7.2946 0.0000
# 2 44.5621 133.4862 42.5098 0.0000 7.2909 0.0000
# 3 42.4188 42.5098 91.8675 0.0000 24.2036 0.0000
# 4 0.0000 0.0000 0.0000 -64.8123 0.0000 -39.9985
# 5 7.2946 7.2909 24.2036 0.0000 48.8604 0.0000
# 6 0.0000 0.0000 0.0000 -39.9985 0.0000 22.1653
#
#
#
# Elastic Compliance Matrix: (Units=1/GPa)
#
#
# Indices 1 2 3 4 5 6 
#
# 1 0.005561 -0.001205 -0.002115 0.000000 0.000397 0.000000
# 2 -0.001205 0.009075 -0.003834 0.000000 0.000725 0.000000
# 3 -0.002115 -0.003834 0.015414 0.000000 -0.006747 0.000000
# 4 0.000000 0.000000 0.000000 -0.007300 0.000000 -0.013173
# 5 0.000397 0.000725 -0.006747 0.000000 0.023641 0.000000
# 6 0.000000 0.000000 0.000000 -0.013173 0.000000 0.021345
#
#
# Mechanical properties :
#
#
# Convention : Reuss Voigt Hill
#
# Bulk Modulus (GPa) = 63.52264 76.60163 70.06214
# Shear Modulus (GPa) = 57.27956 21.30552 39.29254
#
# Velocity S-wave (km/s) = 4.60356 2.80763 3.81285
# Velocity P-wave (km/s) = 7.19442 6.23315 6.73097
#
# Compressibility (1/GPa) = 0.01574242
#
# Stress axis : x y z
#
# Youngs Moduli (GPa) = 179.81490 110.19359 64.87755
#
# Poissons Ratio (x) = 0.13275 0.13722
# Poissons Ratio (y) = 0.21662 0.24874
# Poissons Ratio (z) = 0.38032 0.42248
#
# Static dielectric constant tensor:
#      x y z
#    x 1.996340 0.000000 -0.068090 
#    y 0.000000 2.185720 0.000000 
#    z -0.068090 0.000000 2.341530 
# 
# From -- ./inp_files/30291.got.cif
#   From: 2010.05.17/outbox.cif.g08.bks.cpg/sg15_16_cif.got.tgz:30291.got - 2010.06.03 18:47:42.
