data_PCOD9308652
_publ_section_title
;
Structure prediction by ZEFSAII (Michael W. Deem and Ramdas Pophale) SiO2 
 PCOD9308652
Probable space group: C 2/C
;
_chemical_formula_sum "Si O2"
_cell_formula_units_Z 24
_cell_length_a 9.000000
_cell_length_b 24.000000
_cell_length_c 12.000000
_cell_angle_alpha 90.000000
_cell_angle_beta 100.000000
_cell_angle_gamma 90.000000
_cell_volume 2552.621696
_symmetry_space_group_name_H-M "C 2/C"
_symmetry_group_IT_number 15
_symmetry_cell_setting 'monoclinic'
loop_
_space_group_symop_operation_xyz
x,y,z
-x,y,1/2-z
-x,-y,-z
x,-y,1/2+z
1/2+x,1/2+y,z
1/2-x,1/2+y,1/2-z
1/2-x,1/2-y,-z
1/2+x,1/2-y,1/2+z
loop_
_atom_site_type_symbol
_atom_site_label
_atom_site_fract_x
_atom_site_fract_y
_atom_site_fract_z
Si Si1 0.644032 0.274676 0.192675
Si Si2 0.562655 0.324778 0.964343
Si Si3 0.184092 0.648293 0.172771
Si Si4 0.982067 0.536463 0.114276
Si Si5 0.139513 0.279871 0.076045
Si Si6 0.760841 0.374064 0.561727
O O1 0.500000 0.289357 0.250000
O O2 0.618537 0.210879 0.147285
O O3 0.783605 0.279920 0.293539
O O4 0.657465 0.314632 0.088668
O O5 0.661330 0.349652 0.877640
O O6 0.499916 0.262505 0.929275
O O7 0.416064 0.361607 0.975439
O O8 0.204978 0.648112 0.309025
O O9 0.090612 0.592339 0.129680
O O10 0.815277 0.562611 0.076825
O O11 0.000000 0.515355 0.250000
O O12 0.000000 0.500000 0.000000
O O13 0.250000 0.250000 0.000000
O O14 0.143662 0.341345 0.021464
#
# Coordination Sequence:
#
# PCOD9308652 Si02
#       6
#     8   8   8   8   8   8
#     4  12  19  32  53  84 126 166 191 221 281 351
#     4  11  21  33  51  88 122 150 194 238 277 347
#     4  11  21  35  58  84 116 153 198 235 288 347
#     4  10  23  45  68  85 108 152 205 259 309 358
#     4  10  18  32  54  82 122 161 192 222 276 354
#     4  10  19  37  61  80 114 159 194 233 288 353
#
# _framework density 9.4020980000000005
#
# number of rings (size 3 to 8) (size 9 to 14) (size 15 to 20)
#    0.000    1.333    6.667    3.500    0.000    0.000 
#    3.000    0.833    0.000    0.000    0.000    0.000 
#    0.000    0.000    0.000    0.000    0.000    0.000 
#
# Total GULP energy -133612.973439 kJ/mol
# GULP energy per Si atom -5567.207227 kJ/mol
# Density = 0.938070 g / cm^3
# Si number density = 9.402098 Si / 1000 Ang^3
#
#
#
# Elastic Constant Matrix: (Units=GPa)
#
#
# Indices 1 2 3 4 5 6 
#
# 1 61.2078 13.8556 36.7762 0.0000 -10.4723 0.0000
# 2 13.8556 50.5186 48.4570 0.0000 -3.7197 0.0000
# 3 36.7762 48.4570 130.2788 0.0000 14.7959 0.0000
# 4 0.0000 0.0000 0.0000 37.1005 0.0000 -5.2661
# 5 -10.4723 -3.7197 14.7959 0.0000 31.1850 0.0000
# 6 0.0000 0.0000 0.0000 -5.2661 0.0000 24.8591
#
#
#
# Elastic Compliance Matrix: (Units=1/GPa)
#
#
# Indices 1 2 3 4 5 6 
#
# 1 0.023311 0.003466 -0.009307 0.000000 0.012657 0.000000
# 2 0.003466 0.034285 -0.015143 0.000000 0.012438 0.000000
# 3 -0.009307 -0.015143 0.017435 0.000000 -0.013204 0.000000
# 4 0.000000 0.000000 0.000000 0.027789 0.000000 0.005887
# 5 0.012657 0.012438 -0.013204 0.000000 0.044065 0.000000
# 6 0.000000 0.000000 0.000000 0.005887 0.000000 0.041474
#
#
# Mechanical properties :
#
#
# Convention : Reuss Voigt Hill
#
# Bulk Modulus (GPa) = 30.24593 48.90921 39.57757
# Shear Modulus (GPa) = 20.71680 28.15668 24.43674
#
# Velocity S-wave (km/s) = 3.32280 3.87377 3.60882
# Velocity P-wave (km/s) = 5.55346 6.78781 6.20142
#
# Compressibility (1/GPa) = 0.03306230
#
# Stress axis : x y z
#
# Youngs Moduli (GPa) = 42.89852 29.16692 57.35516
#
# Poissons Ratio (x) = -0.10108 0.53380
# Poissons Ratio (y) = -0.14867 0.86855
# Poissons Ratio (z) = 0.39925 0.44169
#
# Static dielectric constant tensor:
#      x y z
#    x 1.741700 0.000000 0.048210 
#    y 0.000000 1.673470 0.000000 
#    z 0.048210 0.000000 1.700150 
# 
# From -- ./inp_files/79391.got.cif
#   From: 2010.05.17/outbox.ucp.g08.bks.cvg/sg15_40_cif.got.tgz:79391.got - 2010.06.11 12:40:34.
