data_PCOD9308521
_publ_section_title
;
Structure prediction by ZEFSAII (Michael W. Deem and Ramdas Pophale) SiO2 
 PCOD9308521
Probable space group: C 2/C
;
_chemical_formula_sum "Si O2"
_cell_formula_units_Z 40
_cell_length_a 11.289057
_cell_length_b 10.783938
_cell_length_c 20.447805
_cell_angle_alpha 90.000000
_cell_angle_beta 44.438267
_cell_angle_gamma 90.000000
_cell_volume 1742.877498
_symmetry_space_group_name_H-M "C 2/C"
_symmetry_group_IT_number 15
_symmetry_cell_setting 'monoclinic'
loop_
_space_group_symop_operation_xyz
x,y,z
-x,y,1/2-z
-x,-y,-z
x,-y,1/2+z
1/2+x,1/2+y,z
1/2-x,1/2+y,1/2-z
1/2-x,1/2-y,-z
1/2+x,1/2-y,1/2+z
loop_
_atom_site_type_symbol
_atom_site_label
_atom_site_fract_x
_atom_site_fract_y
_atom_site_fract_z
Si Si1 0.629548 0.210894 0.486945
Si Si2 0.466736 0.734203 0.870719
Si Si3 0.813505 0.046418 0.594433
Si Si4 0.797373 0.543550 0.496684
Si Si5 0.744343 0.700231 0.329737
O O1 0.750000 0.250000 0.500000
O O2 0.676757 0.304885 0.409051
O O3 0.440360 0.243821 0.585290
O O4 0.660086 0.063894 0.468972
O O5 0.390050 0.601375 0.920132
O O6 0.656018 0.742661 0.770244
O O7 0.352001 0.768543 0.852342
O O8 0.418108 0.836708 0.944275
O O9 0.696134 0.015278 0.578148
O O10 0.760470 0.950486 0.671621
O O11 0.000000 0.000000 0.500000
#
# Coordination Sequence:
#
# PCOD9308521 Si02
#       5
#     8   8   8   8   8
#     4   9  17  31  50  75 103 132 170 219 273 313
#     4   9  18  32  51  73 103 139 184 214 258 321
#     4   8  15  30  52  72  98 135 171 208 264 329
#     4   9  17  31  50  76 101 136 175 217 262 318
#     4   9  17  32  52  75  99 140 181 217 260 324
#
# _framework density 22.950551999999998
#
# number of rings (size 3 to 8) (size 9 to 14) (size 15 to 20)
#    0.000    3.200    0.000    0.000    0.000    0.800 
#   10.800    0.000    0.000   19.200    0.000    0.000 
#    0.000    0.000    0.000    0.000    0.000    0.000 
#
# Total GULP energy -111507.214056 kJ/mol
# GULP energy per Si atom -5575.360703 kJ/mol
# Density = 2.289832 g / cm^3
# Si number density = 22.950552 Si / 1000 Ang^3
#
#
#
# Elastic Constant Matrix: (Units=GPa)
#
#
# Indices 1 2 3 4 5 6 
#
# 1 54.1944 31.0746 14.4900 0.0000 -8.0799 0.0000
# 2 31.0746 192.3064 56.8857 0.0000 3.9465 0.0000
# 3 14.4900 56.8857 118.0148 0.0000 -4.8133 0.0000
# 4 0.0000 0.0000 0.0000 18.5846 0.0000 -3.5549
# 5 -8.0799 3.9465 -4.8133 0.0000 27.0873 0.0000
# 6 0.0000 0.0000 0.0000 -3.5549 0.0000 43.4966
#
#
#
# Elastic Compliance Matrix: (Units=1/GPa)
#
#
# Indices 1 2 3 4 5 6 
#
# 1 0.021624 -0.003418 -0.000729 0.000000 0.006819 0.000000
# 2 -0.003418 0.006659 -0.002892 0.000000 -0.002504 0.000000
# 3 -0.000729 -0.002892 0.010038 0.000000 0.001988 0.000000
# 4 0.000000 0.000000 0.000000 0.054663 0.000000 0.004468
# 5 0.006819 -0.002504 0.001988 0.000000 0.039670 0.000000
# 6 0.000000 0.000000 0.000000 0.004468 0.000000 0.023355
#
#
# Mechanical properties :
#
#
# Convention : Reuss Voigt Hill
#
# Bulk Modulus (GPa) = 41.25146 63.26845 52.25996
# Shear Modulus (GPa) = 28.06318 35.30471 31.68395
#
# Velocity S-wave (km/s) = 3.50060 3.92637 3.71958
# Velocity P-wave (km/s) = 5.86106 6.94134 6.42395
#
# Compressibility (1/GPa) = 0.02424157
#
# Stress axis : x y z
#
# Youngs Moduli (GPa) = 46.24548 150.16408 99.61855
#
# Poissons Ratio (x) = 0.51332 0.07264
# Poissons Ratio (y) = 0.15809 0.28813
# Poissons Ratio (z) = 0.03372 0.43433
#
# Static dielectric constant tensor:
#      x y z
#    x 1.966150 0.000000 0.017170 
#    y 0.000000 1.987940 0.000000 
#    z 0.017170 0.000000 1.829140 
# 
# From -- ./inp_files/196347.got.cif
#   From: 2010.05.17/outbox.cif.g08.bks.cpg/sg15_99_cif.got.tgz:196347.got - 2010.06.03 18:47:42.
