data_PCOD9308258
_publ_section_title
;
Structure prediction by ZEFSAII (Michael W. Deem and Ramdas Pophale) SiO2 
 PCOD9308258
Probable space group: C 2/C
;
_chemical_formula_sum "Si O2"
_cell_formula_units_Z 36
_cell_length_a 28.442824
_cell_length_b 8.412568
_cell_length_c 15.058622
_cell_angle_alpha 90.000000
_cell_angle_beta 23.433655
_cell_angle_gamma 90.000000
_cell_volume 1432.939391
_symmetry_space_group_name_H-M "C 2/C"
_symmetry_group_IT_number 15
_symmetry_cell_setting 'monoclinic'
loop_
_space_group_symop_operation_xyz
x,y,z
-x,y,1/2-z
-x,-y,-z
x,-y,1/2+z
1/2+x,1/2+y,z
1/2-x,1/2+y,1/2-z
1/2-x,1/2-y,-z
1/2+x,1/2-y,1/2+z
loop_
_atom_site_type_symbol
_atom_site_label
_atom_site_fract_x
_atom_site_fract_y
_atom_site_fract_z
Si Si1 0.431376 0.423515 0.701563
Si Si2 0.225430 0.564759 0.427027
Si Si3 0.207711 0.346885 0.310496
Si Si4 0.500000 0.630200 0.750000
Si Si5 0.514331 0.934393 0.073404
O O1 0.500000 0.500000 0.500000
O O2 0.299200 0.417818 0.889532
O O3 0.443740 0.525746 0.768767
O O4 0.487845 0.251508 0.618723
O O5 0.276883 0.429094 0.271806
O O6 0.226483 0.735070 0.374474
O O7 0.406416 0.993455 0.321923
O O8 0.103579 0.234105 0.527109
O O9 0.139882 0.499131 0.386717
O O10 0.500000 0.000000 0.000000
#
# Coordination Sequence:
#
# PCOD9308258 Si02
#       5
#     8   8   8   4   8
#     4  12  28  49  78 118 158 210 271 333 401 488
#     4  12  28  50  79 118 156 221 269 333 416 477
#     4  12  28  50  79 116 162 212 275 335 405 487
#     4  12  26  52  74 114 168 208 268 344 400 474
#     4  12  26  51  78 112 165 209 269 340 402 486
#
# _framework density 25.123184999999999
#
# number of rings (size 3 to 8) (size 9 to 14) (size 15 to 20)
#    0.000    0.000    6.667    0.667    9.333    0.889 
#    0.000    0.000    0.000    0.000    0.000    0.000 
#    0.000    0.000    0.000    0.000    0.000    0.000 
#
# Total GULP energy -100926.778285 kJ/mol
# GULP energy per Si atom -5607.043238 kJ/mol
# Density = 2.506600 g / cm^3
# Si number density = 25.123185 Si / 1000 Ang^3
#
#
#
# Elastic Constant Matrix: (Units=GPa)
#
#
# Indices 1 2 3 4 5 6 
#
# 1 180.8595 61.0581 18.4342 0.0000 -5.2745 0.0000
# 2 61.0581 113.8285 9.0662 0.0000 -3.9334 0.0000
# 3 18.4342 9.0662 84.8110 0.0000 3.8314 0.0000
# 4 0.0000 0.0000 0.0000 51.5721 0.0000 7.8075
# 5 -5.2745 -3.9334 3.8314 0.0000 35.5171 0.0000
# 6 0.0000 0.0000 0.0000 7.8075 0.0000 60.8532
#
#
#
# Elastic Compliance Matrix: (Units=1/GPa)
#
#
# Indices 1 2 3 4 5 6 
#
# 1 0.006873 -0.003569 -0.001146 0.000000 0.000749 0.000000
# 2 -0.003569 0.010757 -0.000406 0.000000 0.000705 0.000000
# 3 -0.001146 -0.000406 0.012152 0.000000 -0.001526 0.000000
# 4 0.000000 0.000000 0.000000 0.019774 0.000000 -0.002537
# 5 0.000749 0.000705 -0.001526 0.000000 0.028509 0.000000
# 6 0.000000 0.000000 0.000000 -0.002537 0.000000 0.016759
#
#
# Mechanical properties :
#
#
# Convention : Reuss Voigt Hill
#
# Bulk Modulus (GPa) = 51.18011 61.84623 56.51317
# Shear Modulus (GPa) = 44.81091 48.98448 46.89770
#
# Velocity S-wave (km/s) = 4.22791 4.42041 4.32523
# Velocity P-wave (km/s) = 6.65203 7.12208 6.89106
#
# Compressibility (1/GPa) = 0.01953884
#
# Stress axis : x y z
#
# Youngs Moduli (GPa) = 145.49959 92.96691 82.28847
#
# Poissons Ratio (x) = 0.33184 0.09431
# Poissons Ratio (y) = 0.51936 0.03340
# Poissons Ratio (z) = 0.16676 0.03773
#
# Static dielectric constant tensor:
#      x y z
#    x 1.967570 0.000000 0.022040 
#    y 0.000000 1.961890 0.000000 
#    z 0.022040 0.000000 1.936000 
# 
# From -- ./inp_files/176813.got.cif
#   From: 2010.05.17/outbox.cif.g08.bks.cpg/sg15_89_cif.got.tgz:176813.got - 2010.06.03 18:47:42.
