data_PCOD9308289
_publ_section_title
;
Structure prediction by ZEFSAII (Michael W. Deem and Ramdas Pophale) SiO2 
 PCOD9308289
Probable space group: C 2/C
;
_chemical_formula_sum "Si O2"
_cell_formula_units_Z 32
_cell_length_a 10.463426
_cell_length_b 10.375347
_cell_length_c 16.778092
_cell_angle_alpha 90.000000
_cell_angle_beta 39.575295
_cell_angle_gamma 90.000000
_cell_volume 1160.435630
_symmetry_space_group_name_H-M "C 2/C"
_symmetry_group_IT_number 15
_symmetry_cell_setting 'monoclinic'
loop_
_space_group_symop_operation_xyz
x,y,z
-x,y,1/2-z
-x,-y,-z
x,-y,1/2+z
1/2+x,1/2+y,z
1/2-x,1/2+y,1/2-z
1/2-x,1/2-y,-z
1/2+x,1/2-y,1/2+z
loop_
_atom_site_type_symbol
_atom_site_label
_atom_site_fract_x
_atom_site_fract_y
_atom_site_fract_z
Si Si1 0.922063 0.316514 0.511498
Si Si2 0.250000 0.250000 0.500000
Si Si3 0.957938 0.941662 0.605131
Si Si4 0.500000 0.439541 0.750000
Si Si5 0.507349 0.983302 0.831538
O O1 0.703429 0.356072 0.650024
O O2 0.084263 0.285874 0.503257
O O3 0.920376 0.189544 0.457262
O O4 0.010340 0.570857 0.581695
O O5 0.343201 0.128133 0.408067
O O6 0.010998 0.019583 0.661573
O O7 0.724507 0.920029 0.726999
O O8 0.000000 0.000000 0.500000
O O9 0.500000 0.057761 0.750000
#
# Coordination Sequence:
#
# PCOD9308289 Si02
#       5
#     8   4   8   4   8
#     4  12  29  53  88 132 180 244 311 379 474 553
#     4  12  26  54  86 128 174 242 300 378 460 554
#     4  12  29  51  87 132 181 241 303 383 464 561
#     4  12  28  52  84 126 188 238 298 394 456 552
#     4  12  27  55  90 134 186 239 313 385 462 562
#
# _framework density 27.575851
#
# number of rings (size 3 to 8) (size 9 to 14) (size 15 to 20)
#    0.000    0.000    5.000    3.000    5.250    0.000 
#    2.250    0.000    0.000    0.000    0.000    0.000 
#    0.000    0.000    0.000    0.000    0.000    0.000 
#
# Total GULP energy -89148.876427 kJ/mol
# GULP energy per Si atom -5571.804777 kJ/mol
# Density = 2.751309 g / cm^3
# Si number density = 27.575851 Si / 1000 Ang^3
#
#
#
# Elastic Constant Matrix: (Units=GPa)
#
#
# Indices 1 2 3 4 5 6 
#
# 1 250.1134 42.9475 112.2400 0.0000 44.4085 0.0000
# 2 42.9475 88.7577 71.6740 0.0000 9.3435 0.0000
# 3 112.2400 71.6740 237.3309 -0.0001 5.4332 0.0000
# 4 0.0000 0.0000 -0.0001 30.2464 0.0000 -2.0019
# 5 44.4085 9.3435 5.4332 0.0000 70.0205 0.0000
# 6 0.0000 0.0000 0.0000 -2.0019 0.0000 55.5029
#
#
#
# Elastic Compliance Matrix: (Units=1/GPa)
#
#
# Indices 1 2 3 4 5 6 
#
# 1 0.005824 -0.000390 -0.002558 0.000000 -0.003443 0.000000
# 2 -0.000390 0.015117 -0.004348 0.000000 -0.001432 0.000000
# 3 -0.002558 -0.004348 0.006698 0.000000 0.001683 0.000000
# 4 0.000000 0.000000 0.000000 0.033141 0.000000 0.001195
# 5 -0.003443 -0.001432 0.001683 0.000000 0.016526 0.000000
# 6 0.000000 0.000000 0.000000 0.001195 0.000000 0.018060
#
#
# Mechanical properties :
#
#
# Convention : Reuss Voigt Hill
#
# Bulk Modulus (GPa) = 76.64454 114.43610 95.54032
# Shear Modulus (GPa) = 43.74135 54.44333 49.09234
#
# Velocity S-wave (km/s) = 3.98706 4.44814 4.22390
# Velocity P-wave (km/s) = 7.00356 8.24440 7.64918
#
# Compressibility (1/GPa) = 0.01304724
#
# Stress axis : x y z
#
# Youngs Moduli (GPa) = 171.69024 66.14862 149.30269
#
# Poissons Ratio (x) = 0.02582 0.38189
# Poissons Ratio (y) = 0.06701 0.64918
# Poissons Ratio (z) = 0.43916 0.28762
#
# Static dielectric constant tensor:
#      x y z
#    x 2.375590 0.000000 -0.066640 
#    y 0.000000 2.278770 0.000000 
#    z -0.066640 0.000000 2.015790 
# 
# From -- ./inp_files/198193.got.cif
#   From: 2010.05.17/outbox.cif.g08.bks.cpg/sg15_100_cif.got.tgz:198193.got - 2010.06.03 18:47:42.
