data_PCOD9308839
_publ_section_title
;
Structure prediction by ZEFSAII (Michael W. Deem and Ramdas Pophale) SiO2 
 PCOD9308839
Probable space group: C 2/C
;
_chemical_formula_sum "Si O2"
_cell_formula_units_Z 32
_cell_length_a 9.000000
_cell_length_b 15.000000
_cell_length_c 30.000000
_cell_angle_alpha 90.000000
_cell_angle_beta 130.000000
_cell_angle_gamma 90.000000
_cell_volume 3102.479995
_symmetry_space_group_name_H-M "C 2/C"
_symmetry_group_IT_number 15
_symmetry_cell_setting 'monoclinic'
loop_
_space_group_symop_operation_xyz
x,y,z
-x,y,1/2-z
-x,-y,-z
x,-y,1/2+z
1/2+x,1/2+y,z
1/2-x,1/2+y,1/2-z
1/2-x,1/2-y,-z
1/2+x,1/2-y,1/2+z
loop_
_atom_site_type_symbol
_atom_site_label
_atom_site_fract_x
_atom_site_fract_y
_atom_site_fract_z
Si Si1 0.202274 0.489126 0.470918
Si Si2 0.951792 0.299164 0.050847
Si Si3 0.405830 0.244747 0.829405
Si Si4 0.772889 0.570555 0.208056
Si Si5 0.899395 0.001020 0.416919
Si Si6 0.286873 0.877913 0.234508
Si Si7 0.915265 0.321342 0.522452
Si Si8 0.330232 0.303499 0.377113
O O1 0.082383 0.400524 0.439808
O O2 0.287159 0.522642 0.440374
O O3 0.385087 0.461699 0.536771
O O4 0.107269 0.573970 0.475007
O O5 0.076468 0.254016 0.113834
O O6 0.750000 0.250000 0.000000
O O7 0.049124 0.305664 0.022275
O O8 0.348648 0.343030 0.802488
O O9 0.272678 0.173805 0.778097
O O10 0.612817 0.210711 0.852036
O O11 0.708471 0.537217 0.146723
O O12 0.741423 0.482023 0.231281
O O13 0.000000 0.593620 0.250000
O O14 0.912012 0.893051 0.416405
O O15 0.500000 0.878444 0.250000
O O16 0.159405 0.826590 0.172966
O O17 0.750000 0.250000 0.500000
O O18 0.073787 0.286209 0.587548
#
# Coordination Sequence:
#
# PCOD9308839 Si02
#       8
#     8   8   8   8   8   8   8   8
#     4  11  23  38  63  94 133 167 215 261 322 378
#     4  12  24  42  66  93 135 172 215 263 325 393
#     4  11  21  40  68  91 126 164 218 265 324 387
#     4  10  22  37  64  91 120 160 217 269 318 381
#     4  10  20  39  65  94 121 172 218 259 310 389
#     4   8  19  39  62  87 117 158 217 263 312 380
#     4  12  25  40  61 100 137 172 211 265 324 381
#     4  10  19  41  64  91 122 172 211 264 317 390
#
# _framework density 10.314329000000001
#
# number of rings (size 3 to 8) (size 9 to 14) (size 15 to 20)
#    0.000    1.500    3.750    1.875    3.500    1.000 
#    0.000    0.000    0.000    0.000    0.000    0.000 
#    0.000    0.000    0.000    0.000    0.000    0.000 
#
# Total GULP energy -178339.606670 kJ/mol
# GULP energy per Si atom -5573.112708 kJ/mol
# Density = 1.029085 g / cm^3
# Si number density = 10.314329 Si / 1000 Ang^3
#
#
#
# Elastic Constant Matrix: (Units=GPa)
#
#
# Indices 1 2 3 4 5 6 
#
# 1 16.4570 23.4497 5.8013 0.0000 -10.3103 0.0000
# 2 23.4497 103.0110 29.3233 0.0000 -24.8917 0.0000
# 3 5.8013 29.3233 66.6811 0.0000 -16.4700 0.0000
# 4 0.0000 0.0000 0.0000 34.5595 0.0000 -0.6754
# 5 -10.3103 -24.8917 -16.4700 0.0000 1.1048 0.0000
# 6 0.0000 0.0000 0.0000 -0.6754 0.0000 4.9393
#
#
#
# Elastic Compliance Matrix: (Units=1/GPa)
#
#
# Indices 1 2 3 4 5 6 
#
# 1 0.068159 -0.025755 -0.007151 0.000000 -0.050798 0.000000
# 2 -0.025755 0.014854 -0.007086 0.000000 -0.011312 0.000000
# 3 -0.007151 -0.007086 0.013862 0.000000 -0.019730 0.000000
# 4 0.000000 0.000000 0.000000 0.029013 0.000000 0.003968
# 5 -0.050798 -0.011312 -0.019730 0.000000 -0.117912 0.000000
# 6 0.000000 0.000000 0.000000 0.003968 0.000000 0.203000
#
#
# Mechanical properties :
#
#
# Convention : Reuss Voigt Hill
#
# Bulk Modulus (GPa) = 59.20098 33.69976 46.45037
# Shear Modulus (GPa) = 16.85825 16.62572 16.74198
#
# Velocity S-wave (km/s) = 2.86182 2.84201 2.85193
# Velocity P-wave (km/s) = 6.29926 5.20972 5.78022
#
# Compressibility (1/GPa) = 0.01689161
#
# Stress axis : x y z
#
# Youngs Moduli (GPa) = 14.67156 67.32109 72.14159
#
# Poissons Ratio (x) = 1.73387 0.51588
# Poissons Ratio (y) = 0.37787 0.51116
# Poissons Ratio (z) = 0.10491 0.47701
#
# Static dielectric constant tensor:
#      x y z
#    x 2.036700 0.000000 0.460900 
#    y 0.000000 1.473000 0.000000 
#    z 0.460900 0.000000 2.416160 
# 
# From -- ./inp_files/308274.got.cif
#   From: 2010.05.17/outbox.ucp.g08.bks.cvg/sg15_155_cif.got.tgz:308274.got - 2010.06.11 12:40:34.
