data_PCOD9308972
_publ_section_title
;
Structure prediction by ZEFSAII (Michael W. Deem and Ramdas Pophale) SiO2 
 PCOD9308972
Probable space group: C 2/C
;
_chemical_formula_sum "Si O2"
_cell_formula_units_Z 32
_cell_length_a 21.000000
_cell_length_b 9.000000
_cell_length_c 24.000000
_cell_angle_alpha 90.000000
_cell_angle_beta 50.000000
_cell_angle_gamma 90.000000
_cell_volume 3474.777594
_symmetry_space_group_name_H-M "C 2/C"
_symmetry_group_IT_number 15
_symmetry_cell_setting 'monoclinic'
loop_
_space_group_symop_operation_xyz
x,y,z
-x,y,1/2-z
-x,-y,-z
x,-y,1/2+z
1/2+x,1/2+y,z
1/2-x,1/2+y,1/2-z
1/2-x,1/2-y,-z
1/2+x,1/2-y,1/2+z
loop_
_atom_site_type_symbol
_atom_site_label
_atom_site_fract_x
_atom_site_fract_y
_atom_site_fract_z
Si Si1 0.462415 0.131122 0.563605
Si Si2 0.189734 0.609427 0.024459
Si Si3 0.339879 0.422021 0.748998
Si Si4 0.467029 0.383656 0.897817
Si Si5 0.389148 0.341648 0.509904
Si Si6 0.716351 0.025470 0.623066
Si Si7 0.807579 0.413807 0.233499
Si Si8 0.188184 0.870152 0.605018
O O1 0.523667 0.228679 0.570928
O O2 0.425727 0.263451 0.544710
O O3 0.387830 0.066325 0.646146
O O4 0.500000 0.000000 0.500000
O O5 0.122791 0.695752 0.023672
O O6 0.241930 0.477171 0.963672
O O7 0.250000 0.750000 0.000000
O O8 0.164923 0.549836 0.100201
O O9 0.439274 0.419103 0.678388
O O10 0.276962 0.533753 0.751150
O O11 0.306654 0.261570 0.747188
O O12 0.331307 0.433460 0.821495
O O13 0.393782 0.368456 0.890698
O O14 0.442020 0.527250 0.949935
O O15 0.303045 0.431656 0.571830
O O16 0.687071 0.020270 0.705077
O O17 0.719700 0.200216 0.601005
#
# Coordination Sequence:
#
# PCOD9308972 Si02
#       8
#     8   8   8   8   8   8   8   8
#     4  11  26  43  66  93 129 165 209 268 320 379
#     4  10  20  37  60  96 128 163 211 259 309 374
#     4  10  23  41  66  91 125 168 214 261 311 375
#     4  11  23  41  61  95 134 165 207 261 324 374
#     4  11  23  41  63  94 130 170 214 260 317 375
#     4  10  21  37  67  92 124 167 215 261 308 374
#     4  10  22  43  63  91 119 165 213 258 311 375
#     4  11  21  38  66  97 126 169 214 258 320 377
#
# _framework density 9.2092220000000005
#
# number of rings (size 3 to 8) (size 9 to 14) (size 15 to 20)
#    0.000    1.500    2.500    3.375    1.750    4.000 
#    0.000    0.000    0.000    0.000    0.000    0.000 
#    0.000    0.000    0.000    0.000    0.000    0.000 
#
# Total GULP energy -178177.579063 kJ/mol
# GULP energy per Si atom -5568.049346 kJ/mol
# Density = 0.918826 g / cm^3
# Si number density = 9.209222 Si / 1000 Ang^3
#
#
#
# Elastic Constant Matrix: (Units=GPa)
#
#
# Indices 1 2 3 4 5 6 
#
# 1 124.7006 42.5384 47.4782 0.0000 19.4224 -0.0001
# 2 42.5384 104.9506 48.8485 0.0000 4.8178 -0.0002
# 3 47.4782 48.8485 141.6604 0.0000 19.8757 0.0000
# 4 0.0000 0.0000 0.0000 39.3332 0.0000 4.6150
# 5 19.4224 4.8178 19.8757 0.0000 37.8935 0.0000
# 6 -0.0001 -0.0002 0.0000 4.6150 0.0000 51.2032
#
#
#
# Elastic Compliance Matrix: (Units=1/GPa)
#
#
# Indices 1 2 3 4 5 6 
#
# 1 0.010425 -0.003188 -0.001837 0.000000 -0.003975 0.000000
# 2 -0.003188 0.012340 -0.003450 0.000000 0.001875 0.000000
# 3 -0.001837 -0.003450 0.009360 0.000000 -0.003529 0.000000
# 4 0.000000 0.000000 0.000000 0.025696 0.000000 -0.002316
# 5 -0.003975 0.001875 -0.003529 0.000000 0.030040 0.000000
# 6 0.000000 0.000000 0.000000 -0.002316 0.000000 0.019739
#
#
# Mechanical properties :
#
#
# Convention : Reuss Voigt Hill
#
# Bulk Modulus (GPa) = 65.89721 72.11574 69.00648
# Shear Modulus (GPa) = 38.57826 41.18244 39.88035
#
# Velocity S-wave (km/s) = 4.58158 4.73370 4.65826
# Velocity P-wave (km/s) = 7.99021 8.31362 8.15352
#
# Compressibility (1/GPa) = 0.01517515
#
# Stress axis : x y z
#
# Youngs Moduli (GPa) = 95.92137 81.03705 106.84282
#
# Poissons Ratio (x) = 0.25835 0.19628
# Poissons Ratio (y) = 0.30580 0.36858
# Poissons Ratio (z) = 0.17622 0.27955
#
# Static dielectric constant tensor:
#      x y z
#    x 1.704420 0.000000 0.018040 
#    y 0.000000 1.640010 0.000000 
#    z 0.018040 0.000000 1.667210 
# 
# From -- ./inp_files/279572.got.cif
#   From: 2010.05.17/outbox.ucp.g08.bks.cvg/sg15_140_cif.got.tgz:279572.got - 2010.06.11 12:40:34.
