data_PCOD9308097
_publ_section_title
;
Structure prediction by ZEFSAII (Michael W. Deem and Ramdas Pophale) SiO2 
 PCOD9308097
Probable space group: C 2/C
;
_chemical_formula_sum "Si O2"
_cell_formula_units_Z 32
_cell_length_a 19.599263
_cell_length_b 11.820421
_cell_length_c 15.424835
_cell_angle_alpha 90.000000
_cell_angle_beta 158.952594
_cell_angle_gamma 90.000000
_cell_volume 1283.386033
_symmetry_space_group_name_H-M "C 2/C"
_symmetry_group_IT_number 15
_symmetry_cell_setting 'monoclinic'
loop_
_space_group_symop_operation_xyz
x,y,z
-x,y,1/2-z
-x,-y,-z
x,-y,1/2+z
1/2+x,1/2+y,z
1/2-x,1/2+y,1/2-z
1/2-x,1/2-y,-z
1/2+x,1/2-y,1/2+z
loop_
_atom_site_type_symbol
_atom_site_label
_atom_site_fract_x
_atom_site_fract_y
_atom_site_fract_z
Si Si1 0.346938 0.779493 0.995184
Si Si2 0.675551 0.918647 0.702126
Si Si3 0.003016 0.940793 0.634965
Si Si4 0.197844 0.619639 0.432034
O O1 0.500000 0.817313 0.250000
O O2 0.351072 0.642579 0.004200
O O3 0.365647 0.823511 0.918164
O O4 0.151583 0.842074 0.787294
O O5 0.693003 0.887000 0.822715
O O6 0.500000 0.000000 0.500000
O O7 0.865336 0.990392 0.907070
O O8 0.137828 0.036262 0.837606
O O9 0.250000 0.750000 0.500000
O O10 0.000000 0.597555 0.250000
#
# Coordination Sequence:
#
# PCOD9308097 Si02
#       4
#     8   8   8   8
#     4  12  26  45  74 112 155 201 252 314 380 455
#     4  12  26  46  74 109 150 198 252 311 380 453
#     4  12  26  49  77 113 157 203 255 316 385 460
#     4  12  28  52  79 110 151 200 256 319 385 458
#
# _framework density 24.934042999999999
#
# number of rings (size 3 to 8) (size 9 to 14) (size 15 to 20)
#    0.000    0.000    0.000   10.500    0.000   10.000 
#    0.000    0.000    0.000    0.000    0.000    0.000 
#    0.000    0.000    0.000    0.000    0.000    0.000 
#
# Total GULP energy -89350.338762 kJ/mol
# GULP energy per Si atom -5584.396173 kJ/mol
# Density = 2.487729 g / cm^3
# Si number density = 24.934043 Si / 1000 Ang^3
#
#
#
# Elastic Constant Matrix: (Units=GPa)
#
#
# Indices 1 2 3 4 5 6 
#
# 1 111.1200 41.1726 59.6091 0.0001 19.7831 -0.0007
# 2 41.1726 212.7902 106.0737 0.0003 -2.7481 -0.0006
# 3 59.6091 106.0737 202.2251 0.0001 -1.6905 -0.0010
# 4 0.0001 0.0003 0.0001 54.4879 0.0001 -14.8811
# 5 19.7831 -2.7481 -1.6905 0.0001 31.2902 -0.0005
# 6 -0.0007 -0.0006 -0.0010 -14.8811 -0.0005 7.2692
#
#
#
# Elastic Compliance Matrix: (Units=1/GPa)
#
#
# Indices 1 2 3 4 5 6 
#
# 1 0.012561 -0.000889 -0.003305 0.000000 -0.008198 0.000000
# 2 -0.000889 0.006431 -0.003103 0.000000 0.000959 0.000000
# 3 -0.003305 -0.003103 0.007565 0.000000 0.002226 0.000001
# 4 0.000000 0.000000 0.000000 0.041624 0.000001 0.085211
# 5 -0.008198 0.000959 0.002226 0.000001 0.037347 0.000005
# 6 0.000000 0.000000 0.000001 0.085211 0.000005 0.312004
#
#
# Mechanical properties :
#
#
# Convention : Reuss Voigt Hill
#
# Bulk Modulus (GPa) = 83.58732 104.42737 94.00735
# Shear Modulus (GPa) = 11.46490 39.89479 25.67984
#
# Velocity S-wave (km/s) = 2.14664 4.00436 3.21270
# Velocity P-wave (km/s) = 6.30399 7.95941 7.17957
#
# Compressibility (1/GPa) = 0.01196354
#
# Stress axis : x y z
#
# Youngs Moduli (GPa) = 79.61113 155.50420 132.18030
#
# Poissons Ratio (x) = 0.13822 0.43684
# Poissons Ratio (y) = 0.07076 0.41017
# Poissons Ratio (z) = 0.26310 0.48254
#
# Static dielectric constant tensor:
#      x y z
#    x 2.161220 0.000000 0.116340 
#    y 0.000000 1.881080 0.000000 
#    z 0.116340 0.000000 1.977270 
# 
# From -- ./inp_files/219379.got.cif
#   From: 2010.05.17/outbox.cif.g08.bks.cpg/sg15_110_cif.got.tgz:219379.got - 2010.06.03 18:47:42.
