data_PCOD9308354
_publ_section_title
;
Structure prediction by ZEFSAII (Michael W. Deem and Ramdas Pophale) SiO2 
 PCOD9308354
Probable space group: C 2/C
;
_chemical_formula_sum "Si O2"
_cell_formula_units_Z 24
_cell_length_a 10.285710
_cell_length_b 9.700942
_cell_length_c 8.333628
_cell_angle_alpha 90.000000
_cell_angle_beta 82.594918
_cell_angle_gamma 90.000000
_cell_volume 824.603119
_symmetry_space_group_name_H-M "C 2/C"
_symmetry_group_IT_number 15
_symmetry_cell_setting 'monoclinic'
loop_
_space_group_symop_operation_xyz
x,y,z
-x,y,1/2-z
-x,-y,-z
x,-y,1/2+z
1/2+x,1/2+y,z
1/2-x,1/2+y,1/2-z
1/2-x,1/2-y,-z
1/2+x,1/2-y,1/2+z
loop_
_atom_site_type_symbol
_atom_site_label
_atom_site_fract_x
_atom_site_fract_y
_atom_site_fract_z
Si Si1 0.000976 0.647538 0.085103
Si Si2 0.118014 0.905573 0.555550
Si Si3 0.257999 0.351238 0.619681
O O1 0.147114 0.728986 0.984679
O O2 0.893009 0.641373 0.269548
O O3 0.000000 0.500000 0.000000
O O4 0.905923 0.759362 0.017625
O O5 0.149878 0.878777 0.735400
O O6 0.232519 0.001630 0.471767
O O7 0.000000 0.000000 0.500000
#
# Coordination Sequence:
#
# PCOD9308354 Si02
#       3
#     8   8   8
#     4  12  29  48  77 115 156 202 266 330 393 477
#     4  12  27  50  80 114 160 208 266 330 399 474
#     4  12  28  49  80 114 155 211 262 327 403 471
#
# _framework density 29.104911999999999
#
# number of rings (size 3 to 8) (size 9 to 14) (size 15 to 20)
#    0.000    0.000    3.333    5.000    9.333    2.667 
#    0.000    0.000    0.000    0.000    0.000    0.000 
#    0.000    0.000    0.000    0.000    0.000    0.000 
#
# Total GULP energy -66972.702721 kJ/mol
# GULP energy per Si atom -5581.058560 kJ/mol
# Density = 2.903867 g / cm^3
# Si number density = 29.104912 Si / 1000 Ang^3
#
#
#
# Elastic Constant Matrix: (Units=GPa)
#
#
# Indices 1 2 3 4 5 6 
#
# 1 282.8434 97.0311 115.9268 0.0000 -4.7261 0.0000
# 2 97.0311 347.2109 185.8402 0.0000 27.7955 0.0000
# 3 115.9268 185.8402 356.1752 0.0000 45.0012 0.0000
# 4 0.0000 0.0000 0.0000 93.5834 0.0000 6.8890
# 5 -4.7261 27.7955 45.0012 0.0000 58.8612 0.0000
# 6 0.0000 0.0000 0.0000 6.8890 0.0000 67.2398
#
#
#
# Elastic Compliance Matrix: (Units=1/GPa)
#
#
# Indices 1 2 3 4 5 6 
#
# 1 0.004306 -0.000657 -0.001264 0.000000 0.001622 0.000000
# 2 -0.000657 0.004102 -0.001854 0.000000 -0.000572 0.000000
# 3 -0.001264 -0.001854 0.004526 0.000000 -0.002686 0.000000
# 4 0.000000 0.000000 0.000000 0.010767 0.000000 -0.001103
# 5 0.001622 -0.000572 -0.002686 0.000000 0.019443 0.000000
# 6 0.000000 0.000000 0.000000 -0.001103 0.000000 0.014985
#
#
# Mechanical properties :
#
#
# Convention : Reuss Voigt Hill
#
# Bulk Modulus (GPa) = 185.73025 198.20288 191.96656
# Shear Modulus (GPa) = 74.10427 83.09899 78.60163
#
# Velocity S-wave (km/s) = 5.05137 5.34916 5.20240
# Velocity P-wave (km/s) = 9.89820 10.31497 10.10874
#
# Compressibility (1/GPa) = 0.00538415
#
# Stress axis : x y z
#
# Youngs Moduli (GPa) = 232.23993 243.79235 220.95981
#
# Poissons Ratio (x) = 0.16012 0.27923
# Poissons Ratio (y) = 0.15253 0.40969
# Poissons Ratio (z) = 0.29349 0.45203
#
# Static dielectric constant tensor:
#      x y z
#    x 2.754030 0.000000 -0.269450 
#    y 0.000000 1.941770 0.000000 
#    z -0.269450 0.000000 2.486300 
# 
# From -- ./inp_files/26898.got.cif
#   From: 2010.05.17/outbox.cif.g08.bks.cpg/sg15_14_cif.got.tgz:26898.got - 2010.06.03 18:47:42.
