data_PCOD9308486
_publ_section_title
;
Structure prediction by ZEFSAII (Michael W. Deem and Ramdas Pophale) SiO2 
 PCOD9308486
Probable space group: C 2/C
;
_chemical_formula_sum "Si O2"
_cell_formula_units_Z 48
_cell_length_a 6.735485
_cell_length_b 18.087133
_cell_length_c 18.500642
_cell_angle_alpha 90.000000
_cell_angle_beta 122.872227
_cell_angle_gamma 90.000000
_cell_volume 1892.972157
_symmetry_space_group_name_H-M "C 2/C"
_symmetry_group_IT_number 15
_symmetry_cell_setting 'monoclinic'
loop_
_space_group_symop_operation_xyz
x,y,z
-x,y,1/2-z
-x,-y,-z
x,-y,1/2+z
1/2+x,1/2+y,z
1/2-x,1/2+y,1/2-z
1/2-x,1/2-y,-z
1/2+x,1/2-y,1/2+z
loop_
_atom_site_type_symbol
_atom_site_label
_atom_site_fract_x
_atom_site_fract_y
_atom_site_fract_z
Si Si1 0.041174 0.059331 0.175464
Si Si2 0.949686 0.233633 0.929205
Si Si3 0.173938 0.560813 0.993435
Si Si4 0.249125 0.797507 0.756178
Si Si5 0.435373 0.198451 0.897039
Si Si6 0.052625 0.070282 0.941621
O O1 0.232393 0.124588 0.210852
O O2 0.000000 0.039936 0.250000
O O3 0.084895 0.984053 0.140352
O O4 0.793830 0.088639 0.091466
O O5 0.933357 0.287463 0.857227
O O6 0.686092 0.219740 0.908874
O O7 0.042481 0.154929 0.918138
O O8 0.074709 0.261828 0.026753
O O9 0.970923 0.610608 0.918353
O O10 0.404112 0.571495 0.986045
O O11 0.188970 0.470515 0.000078
O O12 0.000000 0.796736 0.750000
O O13 0.243360 0.731140 0.697130
#
# Coordination Sequence:
#
# PCOD9308486 Si02
#       6
#     8   8   8   8   8   8
#     4   9  14  21  33  53  75 102 132 165 199 242
#     4   9  15  23  33  52  81 111 132 167 199 243
#     4   8  14  23  34  52  79 111 133 161 207 249
#     4   9  15  20  33  54  76 103 135 161 201 244
#     4   9  14  21  35  52  79 109 134 163 202 246
#     4   8  15  23  33  49  81 110 134 163 205 242
#
# _framework density 25.356949
#
# number of rings (size 3 to 8) (size 9 to 14) (size 15 to 20)
#    1.000    2.333    0.000    5.000    0.000    0.000 
#    0.000    0.000    0.000    0.000    0.000    4.667 
#    0.000   18.667    0.000    0.167    0.000    0.000 
#
# Total GULP energy -133791.819725 kJ/mol
# GULP energy per Si atom -5574.659155 kJ/mol
# Density = 2.529924 g / cm^3
# Si number density = 25.356949 Si / 1000 Ang^3
#
#
#
# Elastic Constant Matrix: (Units=GPa)
#
#
# Indices 1 2 3 4 5 6 
#
# 1 50.0187 36.1172 52.0032 0.0000 3.4602 0.0000
# 2 36.1172 167.9737 66.5410 0.0000 -5.9231 0.0000
# 3 52.0032 66.5410 146.2748 0.0000 -13.2103 0.0000
# 4 0.0000 0.0000 0.0000 17.3094 0.0000 -15.7284
# 5 3.4602 -5.9231 -13.2103 0.0000 33.6786 0.0000
# 6 0.0000 0.0000 0.0000 -15.7284 0.0000 44.3628
#
#
#
# Elastic Compliance Matrix: (Units=1/GPa)
#
#
# Indices 1 2 3 4 5 6 
#
# 1 0.035262 -0.003185 -0.011886 0.000000 -0.008845 0.000000
# 2 -0.003185 0.007550 -0.002232 0.000000 0.000780 0.000000
# 3 -0.011886 -0.002232 0.012598 0.000000 0.005770 0.000000
# 4 0.000000 0.000000 0.000000 0.085229 0.000000 0.030217
# 5 -0.008845 0.000780 0.005770 0.000000 0.033002 0.000000
# 6 0.000000 0.000000 0.000000 0.030217 0.000000 0.033255
#
#
# Mechanical properties :
#
#
# Convention : Reuss Voigt Hill
#
# Bulk Modulus (GPa) = 48.06683 74.84333 61.45508
# Shear Modulus (GPa) = 20.12587 33.04389 26.58488
#
# Velocity S-wave (km/s) = 2.82033 3.61383 3.24145
# Velocity P-wave (km/s) = 5.44085 6.85515 6.18853
#
# Compressibility (1/GPa) = 0.02080437
#
# Stress axis : x y z
#
# Youngs Moduli (GPa) = 28.35898 132.45547 79.37490
#
# Poissons Ratio (x) = 0.42191 0.94346
# Poissons Ratio (y) = 0.09033 0.17713
# Poissons Ratio (z) = 0.33708 0.29558
#
# Static dielectric constant tensor:
#      x y z
#    x 2.202140 0.000000 0.027730 
#    y 0.000000 2.097960 0.000000 
#    z 0.027730 0.000000 1.939590 
# 
# From -- ./inp_files/240135.got.cif
#   From: 2010.05.17/outbox.cif.g08.bks.cpg/sg15_121_cif.got.tgz:240135.got - 2010.06.03 18:47:42.
