data_PCOD9308628
_publ_section_title
;
Structure prediction by ZEFSAII (Michael W. Deem and Ramdas Pophale) SiO2 
 PCOD9308628
Probable space group: C 2/C
;
_chemical_formula_sum "Si O2"
_cell_formula_units_Z 28
_cell_length_a 18.000000
_cell_length_b 21.000000
_cell_length_c 21.000000
_cell_angle_alpha 90.000000
_cell_angle_beta 20.000000
_cell_angle_gamma 90.000000
_cell_volume 2714.955898
_symmetry_space_group_name_H-M "C 2/C"
_symmetry_group_IT_number 15
_symmetry_cell_setting 'monoclinic'
loop_
_space_group_symop_operation_xyz
x,y,z
-x,y,1/2-z
-x,-y,-z
x,-y,1/2+z
1/2+x,1/2+y,z
1/2-x,1/2+y,1/2-z
1/2-x,1/2-y,-z
1/2+x,1/2-y,1/2+z
loop_
_atom_site_type_symbol
_atom_site_label
_atom_site_fract_x
_atom_site_fract_y
_atom_site_fract_z
Si Si1 0.629048 0.198746 0.550871
Si Si2 0.130595 0.195220 0.945859
Si Si3 0.676510 0.940607 0.050172
Si Si4 0.278105 0.105787 0.194996
Si Si5 0.811817 0.502285 0.269465
Si Si6 0.964293 0.991003 0.162125
Si Si7 0.255222 0.380627 0.267829
O O1 0.750000 0.250000 0.500000
O O2 0.377989 0.180944 0.768045
O O3 0.613693 0.235676 0.495018
O O4 0.734133 0.128669 0.473500
O O5 0.141684 0.175240 0.860714
O O6 0.929463 0.153365 0.135686
O O7 0.500000 0.929913 0.250000
O O8 0.543530 0.987843 0.112332
O O9 0.883427 0.980386 0.906232
O O10 0.303078 0.070139 0.242351
O O11 0.511560 0.134414 0.988283
O O12 0.223244 0.044069 0.195736
O O13 0.623657 0.501066 0.473027
O O14 0.769740 0.441053 0.259196
O O15 0.884077 0.917478 0.221467
#
# Coordination Sequence:
#
# PCOD9308628 Si02
#       7
#     8   8   8   8   8   8   8
#     4  12  25  41  60  86 127 184 224 254 315 382
#     4  12  25  43  61  82 123 174 224 272 302 385
#     4  10  20  36  61  93 133 174 210 261 331 398
#     4  11  21  38  62  86 117 166 219 276 325 379
#     4  10  17  35  63  90 121 160 213 272 335 390
#     4  10  17  34  60  89 122 159 210 269 332 389
#     4  11  21  38  58  87 115 165 223 269 323 377
#
# _framework density 10.313243
#
# number of rings (size 3 to 8) (size 9 to 14) (size 15 to 20)
#    0.000    1.143    4.286    5.571    2.000    0.000 
#    2.571    2.857    0.000    0.000    0.000    0.000 
#    0.000    4.571    0.000    0.286    0.000    0.000 
#
# Total GULP energy -156090.112561 kJ/mol
# GULP energy per Si atom -5574.646877 kJ/mol
# Density = 1.028977 g / cm^3
# Si number density = 10.313243 Si / 1000 Ang^3
#
#
#
# Elastic Constant Matrix: (Units=GPa)
#
#
# Indices 1 2 3 4 5 6 
#
# 1 79.3345 66.5600 38.5483 0.0348 -15.6393 -0.0357
# 2 66.5600 89.2052 35.2291 -0.1028 -11.6568 0.0949
# 3 38.5483 35.2291 121.8158 0.1157 5.4608 -0.1370
# 4 0.0348 -0.1028 0.1157 31.3715 -0.0940 -1.5892
# 5 -15.6393 -11.6568 5.4608 -0.0940 42.5226 0.1258
# 6 -0.0357 0.0949 -0.1370 -1.5892 0.1258 54.0817
#
#
#
# Elastic Compliance Matrix: (Units=1/GPa)
#
#
# Indices 1 2 3 4 5 6 
#
# 1 0.037530 -0.025050 -0.004971 -0.000081 0.007574 0.000036
# 2 -0.025050 0.030076 -0.000732 0.000123 -0.000874 -0.000065
# 3 -0.004971 -0.000732 0.010143 -0.000043 -0.003332 0.000030
# 4 -0.000081 0.000123 -0.000043 0.031924 0.000077 0.000938
# 5 0.007574 -0.000874 -0.003332 0.000077 0.026491 -0.000061
# 6 0.000036 -0.000065 0.000030 0.000938 -0.000061 0.018518
#
#
# Mechanical properties :
#
#
# Convention : Reuss Voigt Hill
#
# Bulk Modulus (GPa) = 61.56483 63.44782 62.50633
# Shear Modulus (GPa) = 22.56283 35.59638 29.07961
#
# Velocity S-wave (km/s) = 3.31097 4.15873 3.75883
# Velocity P-wave (km/s) = 6.67300 7.34079 7.01485
#
# Compressibility (1/GPa) = 0.01624304
#
# Stress axis : x y z
#
# Youngs Moduli (GPa) = 26.64562 33.24916 98.58632
#
# Poissons Ratio (x) = 0.83288 0.49009
# Poissons Ratio (y) = 0.66746 0.07217
# Poissons Ratio (z) = 0.13246 0.02434
#
# Static dielectric constant tensor:
#      x y z
#    x 2.403140 -0.002220 0.101960 
#    y -0.002220 1.752710 -0.000240 
#    z 0.101960 -0.000240 1.841310 
# 
# From -- ./inp_files/250013.got.cif
#   From: 2010.05.17/outbox.ucp.g08.bks.cvg/sg15_126_cif.got.tgz:250013.got - 2010.06.11 12:40:34.
