data_PCOD9308796
_publ_section_title
;
Structure prediction by ZEFSAII (Michael W. Deem and Ramdas Pophale) SiO2 
 PCOD9308796
Probable space group: C 2/C
;
_chemical_formula_sum "Si O2"
_cell_formula_units_Z 28
_cell_length_a 21.000000
_cell_length_b 24.000000
_cell_length_c 18.000000
_cell_angle_alpha 90.000000
_cell_angle_beta 20.000000
_cell_angle_gamma 90.000000
_cell_volume 3102.806740
_symmetry_space_group_name_H-M "C 2/C"
_symmetry_group_IT_number 15
_symmetry_cell_setting 'monoclinic'
loop_
_space_group_symop_operation_xyz
x,y,z
-x,y,1/2-z
-x,-y,-z
x,-y,1/2+z
1/2+x,1/2+y,z
1/2-x,1/2+y,1/2-z
1/2-x,1/2-y,-z
1/2+x,1/2-y,1/2+z
loop_
_atom_site_type_symbol
_atom_site_label
_atom_site_fract_x
_atom_site_fract_y
_atom_site_fract_z
Si Si1 0.538927 0.195979 0.373147
Si Si2 0.500000 0.860095 0.750000
Si Si3 0.212132 0.385118 0.050196
Si Si4 0.897139 0.907330 0.291929
Si Si5 0.692617 0.314018 0.696351
Si Si6 0.052268 0.824480 0.007812
Si Si7 0.500000 0.483823 0.750000
Si Si8 0.893357 0.315543 0.194371
O O1 0.506715 0.174061 0.322916
O O2 0.532959 0.263493 0.381054
O O3 0.400975 0.179150 0.594983
O O4 0.741749 0.177106 0.180512
O O5 0.680839 0.899085 0.545953
O O6 0.212653 0.355802 0.131219
O O7 0.000000 0.392127 0.250000
O O8 0.311831 0.346554 0.877138
O O9 0.322930 0.442896 0.939504
O O10 0.000000 0.879047 0.250000
O O11 0.945118 0.874071 0.165471
O O12 0.972583 0.970853 0.213279
O O13 0.665227 0.247554 0.720763
O O14 0.895664 0.322504 0.508992
O O15 0.559463 0.331913 0.910630
#
# Coordination Sequence:
#
# PCOD9308796 Si02
#       8
#     8   4   8   8   8   8   4   8
#     4  10  20  32  57  90 120 154 184 230 292 350
#     4  12  22  37  64  82 111 154 190 236 300 342
#     4  10  21  39  61  85 115 151 195 238 286 340
#     4  10  23  40  59  79 111 152 195 242 281 330
#     4   9  19  33  59  87 120 154 182 230 291 350
#     4  10  19  37  54  88 125 148 191 234 281 350
#     4  10  24  39  62  82 109 156 200 248 278 330
#     4   9  19  34  55  88 125 149 182 233 288 349
#
# _framework density 9.0240880000000008
#
# number of rings (size 3 to 8) (size 9 to 14) (size 15 to 20)
#    0.429    1.714    1.429    1.286    4.000    2.286 
#    0.000    0.714    0.000    3.429    0.000    0.000 
#    0.000    0.000    0.000    0.000    0.000    0.000 
#
# Total GULP energy -155871.665279 kJ/mol
# GULP energy per Si atom -5566.845189 kJ/mol
# Density = 0.900355 g / cm^3
# Si number density = 9.024088 Si / 1000 Ang^3
#
#
#
# Elastic Constant Matrix: (Units=GPa)
#
#
# Indices 1 2 3 4 5 6 
#
# 1 97.9601 45.4379 35.1600 0.0030 29.7154 -0.0223
# 2 45.4379 97.2531 39.6974 -0.0557 20.5386 0.0025
# 3 35.1600 39.6974 91.2831 -0.1119 3.5517 0.0334
# 4 0.0030 -0.0557 -0.1119 30.3962 0.0355 -0.8819
# 5 29.7154 20.5386 3.5517 0.0355 33.3243 -0.0342
# 6 -0.0223 0.0025 0.0334 -0.8819 -0.0342 36.0848
#
#
#
# Elastic Compliance Matrix: (Units=1/GPa)
#
#
# Indices 1 2 3 4 5 6 
#
# 1 0.017422 -0.003509 -0.004683 -0.000010 -0.012873 0.000003
# 2 -0.003509 0.015175 -0.005026 0.000016 -0.005688 -0.000004
# 3 -0.004683 -0.005026 0.014723 0.000039 0.005705 -0.000010
# 4 -0.000010 0.000016 0.000039 0.032922 -0.000039 0.000805
# 5 -0.012873 -0.005688 0.005705 -0.000039 0.044385 0.000028
# 6 0.000003 -0.000004 -0.000010 0.000805 0.000028 0.027732
#
#
# Mechanical properties :
#
#
# Convention : Reuss Voigt Hill
#
# Bulk Modulus (GPa) = 47.88943 58.56521 53.22732
# Shear Modulus (GPa) = 26.91680 31.04113 28.97897
#
# Velocity S-wave (km/s) = 3.86604 4.15167 4.01140
# Velocity P-wave (km/s) = 6.82057 7.44994 7.14219
#
# Compressibility (1/GPa) = 0.02088143
#
# Stress axis : x y z
#
# Youngs Moduli (GPa) = 57.39867 65.89829 67.92199
#
# Poissons Ratio (x) = 0.23127 0.31811
# Poissons Ratio (y) = 0.20144 0.34139
# Poissons Ratio (z) = 0.26882 0.33122
#
# Static dielectric constant tensor:
#      x y z
#    x 1.638000 -0.000170 -0.005140 
#    y -0.000170 1.499410 0.000250 
#    z -0.005140 0.000250 1.693710 
# 
# From -- ./inp_files/216897.got.cif
#   From: 2010.05.17/outbox.ucp.g08.bks.cvg/sg15_109_cif.got.tgz:216897.got - 2010.06.11 12:40:34.
