data_PCOD9308569
_publ_section_title
;
Structure prediction by ZEFSAII (Michael W. Deem and Ramdas Pophale) SiO2 
 PCOD9308569
Probable space group: C 2/C
;
_chemical_formula_sum "Si O2"
_cell_formula_units_Z 32
_cell_length_a 9.678895
_cell_length_b 10.214265
_cell_length_c 17.541901
_cell_angle_alpha 90.000000
_cell_angle_beta 44.479879
_cell_angle_gamma 90.000000
_cell_volume 1215.111416
_symmetry_space_group_name_H-M "C 2/C"
_symmetry_group_IT_number 15
_symmetry_cell_setting 'monoclinic'
loop_
_space_group_symop_operation_xyz
x,y,z
-x,y,1/2-z
-x,-y,-z
x,-y,1/2+z
1/2+x,1/2+y,z
1/2-x,1/2+y,1/2-z
1/2-x,1/2-y,-z
1/2+x,1/2-y,1/2+z
loop_
_atom_site_type_symbol
_atom_site_label
_atom_site_fract_x
_atom_site_fract_y
_atom_site_fract_z
Si Si1 0.614938 0.560395 0.593616
Si Si2 0.182806 0.532357 0.768498
Si Si3 0.996193 0.320320 0.554205
Si Si4 0.715106 0.135915 0.589488
O O1 0.401463 0.548255 0.715810
O O2 0.582872 0.683604 0.549776
O O3 0.657175 0.436375 0.523942
O O4 0.823124 0.596258 0.552312
O O5 0.085424 0.403162 0.842170
O O6 0.213578 0.540913 0.664866
O O7 0.013680 0.643033 0.845491
O O8 0.813467 0.271367 0.575917
#
# Coordination Sequence:
#
# PCOD9308569 Si02
#       4
#     8   8   8   8
#     4   9  17  30  50  78 107 139 181 218 262 326
#     4   9  16  27  48  77 103 133 178 221 258 314
#     4   9  16  27  48  78 106 136 177 223 265 312
#     4   9  17  30  50  78 107 139 181 218 262 325
#
# _framework density 26.335032999999999
#
# number of rings (size 3 to 8) (size 9 to 14) (size 15 to 20)
#    0.000    3.000    0.000    3.000    0.000    2.000 
#    0.000    0.000    0.000   54.000    0.000  259.000 
#    0.000    0.000    0.000    0.000    0.000    8.000 
#
# Total GULP energy -89420.534630 kJ/mol
# GULP energy per Si atom -5588.783414 kJ/mol
# Density = 2.627509 g / cm^3
# Si number density = 26.335033 Si / 1000 Ang^3
#
#
#
# Elastic Constant Matrix: (Units=GPa)
#
#
# Indices 1 2 3 4 5 6 
#
# 1 171.1844 48.7485 76.7636 0.0000 -35.9783 0.0000
# 2 48.7485 79.1175 54.7864 0.0000 17.2552 0.0000
# 3 76.7636 54.7864 162.2285 0.0000 -36.8717 0.0000
# 4 0.0000 0.0000 0.0000 30.9969 0.0000 -5.7541
# 5 -35.9783 17.2552 -36.8717 0.0000 51.9868 0.0000
# 6 0.0000 0.0000 0.0000 -5.7541 0.0000 54.4385
#
#
#
# Elastic Compliance Matrix: (Units=1/GPa)
#
#
# Indices 1 2 3 4 5 6 
#
# 1 0.010431 -0.009158 0.000582 0.000000 0.010672 0.000000
# 2 -0.009158 0.032807 -0.012710 0.000000 -0.026242 0.000000
# 3 0.000582 -0.012710 0.013390 0.000000 0.014118 0.000000
# 4 0.000000 0.000000 0.000000 0.032907 0.000000 0.003478
# 5 0.010672 -0.026242 0.014118 0.000000 0.045345 0.000000
# 6 0.000000 0.000000 0.000000 0.003478 0.000000 0.018737
#
#
# Mechanical properties :
#
#
# Convention : Reuss Voigt Hill
#
# Bulk Modulus (GPa) = 71.14206 85.90303 78.52254
# Shear Modulus (GPa) = 24.89124 42.96658 33.92891
#
# Velocity S-wave (km/s) = 3.07771 4.04361 3.59326
# Velocity P-wave (km/s) = 6.30100 7.38181 6.86272
#
# Compressibility (1/GPa) = 0.01405638
#
# Stress axis : x y z
#
# Youngs Moduli (GPa) = 95.86365 30.48149 74.68427
#
# Poissons Ratio (x) = 0.27916 -0.04350
# Poissons Ratio (y) = 0.87795 0.94924
# Poissons Ratio (z) = -0.05584 0.38742
#
# Static dielectric constant tensor:
#      x y z
#    x 2.255310 0.000000 -0.058610 
#    y 0.000000 1.955690 0.000000 
#    z -0.058610 0.000000 2.037140 
# 
# From -- ./inp_files/141231.got.cif
#   From: 2010.05.17/outbox.cif.g08.bks.cpg/sg15_71_cif.got.tgz:141231.got - 2010.06.03 18:47:42.
