data_PCOD9308904
_publ_section_title
;
Structure prediction by ZEFSAII (Michael W. Deem and Ramdas Pophale) SiO2 
 PCOD9308904
Probable space group: C 2/C
;
_chemical_formula_sum "Si O2"
_cell_formula_units_Z 28
_cell_length_a 18.000000
_cell_length_b 21.000000
_cell_length_c 15.000000
_cell_angle_alpha 90.000000
_cell_angle_beta 150.000000
_cell_angle_gamma 90.000000
_cell_volume 2835.000000
_symmetry_space_group_name_H-M "C 2/C"
_symmetry_group_IT_number 15
_symmetry_cell_setting 'monoclinic'
loop_
_space_group_symop_operation_xyz
x,y,z
-x,y,1/2-z
-x,-y,-z
x,-y,1/2+z
1/2+x,1/2+y,z
1/2-x,1/2+y,1/2-z
1/2-x,1/2-y,-z
1/2+x,1/2-y,1/2+z
loop_
_atom_site_type_symbol
_atom_site_label
_atom_site_fract_x
_atom_site_fract_y
_atom_site_fract_z
Si Si1 0.594923 0.233896 0.638489
Si Si2 0.147637 0.085095 0.741998
Si Si3 0.189986 0.663237 0.233252
Si Si4 0.918073 0.017242 0.069927
Si Si5 0.672056 0.983923 0.687262
Si Si6 0.819386 0.178812 0.561667
Si Si7 0.382755 0.339943 0.465759
O O1 0.697659 0.284024 0.690896
O O2 0.475285 0.193366 0.455376
O O3 0.495010 0.280839 0.596324
O O4 0.714539 0.185729 0.807707
O O5 0.205414 0.124189 0.888224
O O6 0.114882 0.140529 0.636436
O O7 0.254876 0.032926 0.807764
O O8 0.004729 0.039845 0.608564
O O9 0.195813 0.592089 0.196974
O O10 0.244829 0.655945 0.391984
O O11 0.000000 0.011070 0.250000
O O12 0.929715 0.092865 0.058758
O O13 0.748992 0.001944 0.862655
O O14 0.500000 0.000000 0.500000
O O15 0.750000 0.250000 0.500000
O O16 0.000000 0.184757 0.750000
#
# Coordination Sequence:
#
# PCOD9308904 Si02
#       7
#     8   8   8   8   8   8   8
#     4  10  20  35  60  84 112 152 196 240 296 361
#     4  11  22  38  60  85 117 162 202 236 296 371
#     4  11  20  36  56  84 118 153 194 246 299 358
#     4  11  22  40  62  85 116 158 201 243 295 360
#     4  11  23  39  62  88 118 157 206 258 301 355
#     4  12  24  37  57  89 127 163 198 243 305 372
#     4  10  20  37  58  83 110 147 193 240 291 351
#
# _framework density 9.8765429999999999
#
# number of rings (size 3 to 8) (size 9 to 14) (size 15 to 20)
#    0.000    1.143    0.000   10.714    0.000    1.143 
#    0.000    4.286    0.000    0.000    0.000    0.000 
#    0.000    0.000    0.000    0.000    0.000    0.000 
#
# Total GULP energy -156073.565497 kJ/mol
# GULP energy per Si atom -5574.055911 kJ/mol
# Density = 0.985406 g / cm^3
# Si number density = 9.876543 Si / 1000 Ang^3
#
#
#
# Elastic Constant Matrix: (Units=GPa)
#
#
# Indices 1 2 3 4 5 6 
#
# 1 31.2091 26.0969 38.9396 0.0000 9.6886 0.0000
# 2 26.0969 157.2005 38.1415 0.0000 8.2600 0.0000
# 3 38.9396 38.1415 134.9893 0.0000 21.7092 0.0000
# 4 0.0000 0.0000 0.0000 53.1375 0.0000 -0.5016
# 5 9.6886 8.2600 21.7092 0.0000 19.7857 0.0000
# 6 0.0000 0.0000 0.0000 -0.5016 0.0000 35.6562
#
#
#
# Elastic Compliance Matrix: (Units=1/GPa)
#
#
# Indices 1 2 3 4 5 6 
#
# 1 0.056218 -0.005634 -0.012842 0.000000 -0.011086 0.000000
# 2 -0.005634 0.007407 -0.000503 0.000000 0.000218 0.000000
# 3 -0.012842 -0.000503 0.012397 0.000000 -0.007104 0.000000
# 4 0.000000 0.000000 0.000000 0.018822 0.000000 0.000265
# 5 -0.011086 0.000218 -0.007104 0.000000 0.063674 0.000000
# 6 0.000000 0.000000 0.000000 0.000265 0.000000 0.028049
#
#
# Mechanical properties :
#
#
# Convention : Reuss Voigt Hill
#
# Bulk Modulus (GPa) = 26.27160 58.86165 42.56663
# Shear Modulus (GPa) = 21.07811 36.39728 28.73769
#
# Velocity S-wave (km/s) = 3.27016 4.29722 3.81838
# Velocity P-wave (km/s) = 5.25238 7.38139 6.40595
#
# Compressibility (1/GPa) = 0.03806392
#
# Stress axis : x y z
#
# Youngs Moduli (GPa) = 17.78789 135.00435 80.66500
#
# Poissons Ratio (x) = 0.76067 1.03590
# Poissons Ratio (y) = 0.10022 0.04055
# Poissons Ratio (z) = 0.22843 0.06787
#
# Static dielectric constant tensor:
#      x y z
#    x 1.784080 0.000000 0.005020 
#    y 0.000000 1.687760 0.000000 
#    z 0.005020 0.000000 1.724360 
# 
# From -- ./inp_files/163837.got.cif
#   From: 2010.05.17/outbox.ucp.g08.bks.cvg/sg15_82_cif.got.tgz:163837.got - 2010.06.11 12:40:34.
