data_PCOD9308153
_publ_section_title
;
Structure prediction by ZEFSAII (Michael W. Deem and Ramdas Pophale) SiO2 
 PCOD9308153
Probable space group: C 2/C
;
_chemical_formula_sum "Si O2"
_cell_formula_units_Z 28
_cell_length_a 10.175285
_cell_length_b 10.723962
_cell_length_c 14.540912
_cell_angle_alpha 90.000000
_cell_angle_beta 137.524319
_cell_angle_gamma 90.000000
_cell_volume 1071.459078
_symmetry_space_group_name_H-M "C 2/C"
_symmetry_group_IT_number 15
_symmetry_cell_setting 'monoclinic'
loop_
_space_group_symop_operation_xyz
x,y,z
-x,y,1/2-z
-x,-y,-z
x,-y,1/2+z
1/2+x,1/2+y,z
1/2-x,1/2+y,1/2-z
1/2-x,1/2-y,-z
1/2+x,1/2-y,1/2+z
loop_
_atom_site_type_symbol
_atom_site_label
_atom_site_fract_x
_atom_site_fract_y
_atom_site_fract_z
Si Si1 0.858521 0.891087 0.961839
Si Si2 0.202328 0.209376 0.738672
Si Si3 0.500000 0.276988 0.750000
Si Si4 0.782735 0.496705 0.424690
O O1 0.735920 0.939646 0.983850
O O2 0.009672 0.787881 0.077925
O O3 0.735295 0.831511 0.816875
O O4 0.000000 0.000000 0.000000
O O5 0.394465 0.197972 0.774320
O O6 0.182235 0.092618 0.796527
O O7 0.329032 0.371046 0.629575
O O8 0.000000 0.500000 0.500000
#
# Coordination Sequence:
#
# PCOD9308153 Si02
#       4
#     8   8   4   8
#     4  12  26  51  81 118 161 212 273 331 404 485
#     4  12  26  47  84 109 163 213 265 333 402 476
#     4  12  26  50  76 122 160 206 276 326 406 480
#     4  12  26  48  77 118 164 206 272 334 396 485
#
# _framework density 26.132588999999999
#
# number of rings (size 3 to 8) (size 9 to 14) (size 15 to 20)
#    0.000    0.000    5.714    2.571    4.000    4.571 
#    0.000    2.857    0.000    0.000    0.000    0.000 
#    0.000    0.000    0.000    0.000    0.000    0.000 
#
# Total GULP energy -78657.019668 kJ/mol
# GULP energy per Si atom -5618.358548 kJ/mol
# Density = 2.607311 g / cm^3
# Si number density = 26.132589 Si / 1000 Ang^3
#
#
#
# Elastic Constant Matrix: (Units=GPa)
#
#
# Indices 1 2 3 4 5 6 
#
# 1 271.1871 44.1025 50.9074 0.0000 -9.5899 0.0000
# 2 44.1025 87.8772 36.4474 0.0000 -6.1978 0.0000
# 3 50.9074 36.4474 96.9232 0.0000 6.2261 0.0000
# 4 0.0000 0.0000 0.0000 18.7341 0.0000 4.6329
# 5 -9.5899 -6.1978 6.2261 0.0000 51.5829 0.0000
# 6 0.0000 0.0000 0.0000 4.6329 0.0000 52.0040
#
#
#
# Elastic Compliance Matrix: (Units=1/GPa)
#
#
# Indices 1 2 3 4 5 6 
#
# 1 0.004272 -0.001340 -0.001795 0.000000 0.000850 0.000000
# 2 -0.001340 0.014166 -0.004754 0.000000 0.002027 0.000000
# 3 -0.001795 -0.004754 0.013208 0.000000 -0.002499 0.000000
# 4 0.000000 0.000000 0.000000 0.054581 0.000000 -0.004863
# 5 0.000850 0.002027 -0.002499 0.000000 0.020089 0.000000
# 6 0.000000 0.000000 0.000000 -0.004863 0.000000 0.019662
#
#
# Mechanical properties :
#
#
# Convention : Reuss Voigt Hill
#
# Bulk Modulus (GPa) = 63.00981 79.87801 71.44391
# Shear Modulus (GPa) = 34.00277 46.09955 40.05116
#
# Velocity S-wave (km/s) = 3.61108 4.20463 3.91911
# Velocity P-wave (km/s) = 6.44596 7.36238 6.91936
#
# Compressibility (1/GPa) = 0.01587054
#
# Stress axis : x y z
#
# Youngs Moduli (GPa) = 234.06318 70.58914 75.71023
#
# Poissons Ratio (x) = 0.09458 0.13588
# Poissons Ratio (y) = 0.31360 0.35990
# Poissons Ratio (z) = 0.42009 0.33556
#
# Static dielectric constant tensor:
#      x y z
#    x 1.976560 0.000000 0.014610 
#    y 0.000000 2.090890 0.000000 
#    z 0.014610 0.000000 2.060890 
# 
# From -- ./inp_files/131874.got.cif
#   From: 2010.05.17/outbox.cif.g08.bks.cpg/sg15_66_cif.got.tgz:131874.got - 2010.06.03 18:47:42.
