data_PCOD9308290
_publ_section_title
;
Structure prediction by ZEFSAII (Michael W. Deem and Ramdas Pophale) SiO2 
 PCOD9308290
Probable space group: C 2/C
;
_chemical_formula_sum "Si O2"
_cell_formula_units_Z 32
_cell_length_a 7.688860
_cell_length_b 16.288201
_cell_length_c 11.451073
_cell_angle_alpha 90.000000
_cell_angle_beta 49.369130
_cell_angle_gamma 90.000000
_cell_volume 1088.372554
_symmetry_space_group_name_H-M "C 2/C"
_symmetry_group_IT_number 15
_symmetry_cell_setting 'monoclinic'
loop_
_space_group_symop_operation_xyz
x,y,z
-x,y,1/2-z
-x,-y,-z
x,-y,1/2+z
1/2+x,1/2+y,z
1/2-x,1/2+y,1/2-z
1/2-x,1/2-y,-z
1/2+x,1/2-y,1/2+z
loop_
_atom_site_type_symbol
_atom_site_label
_atom_site_fract_x
_atom_site_fract_y
_atom_site_fract_z
Si Si1 0.973341 0.846119 0.605836
Si Si2 0.066637 0.740640 0.355268
Si Si3 0.631465 0.484474 0.317546
Si Si4 0.020474 0.594284 0.538325
O O1 0.992798 0.818273 0.464133
O O2 0.158398 0.772603 0.771029
O O3 0.226730 0.875424 0.532344
O O4 0.799767 0.919427 0.715361
O O5 0.952178 0.664036 0.475165
O O6 0.000000 0.743171 0.250000
O O7 0.500000 0.470108 0.250000
O O8 0.500000 0.500000 0.500000
O O9 0.836382 0.420123 0.222369
O O10 0.000000 0.500000 0.500000
#
# Coordination Sequence:
#
# PCOD9308290 Si02
#       4
#     8   8   8   8
#     4  12  28  57  89 139 192 248 322 394 496 578
#     4  12  29  54  93 141 196 255 320 400 496 590
#     4  12  29  53  90 135 186 247 319 400 485 574
#     4  12  26  54  87 133 188 247 318 403 474 574
#
# _framework density 29.401696000000001
#
# number of rings (size 3 to 8) (size 9 to 14) (size 15 to 20)
#    0.000    0.000    5.000    2.250    7.000    2.000 
#    4.500    0.000    0.000    1.500    0.000    0.000 
#    0.000    0.000    0.000    0.000    0.000    0.000 
#
# Total GULP energy -89350.314060 kJ/mol
# GULP energy per Si atom -5584.394629 kJ/mol
# Density = 2.933478 g / cm^3
# Si number density = 29.401696 Si / 1000 Ang^3
#
#
#
# Elastic Constant Matrix: (Units=GPa)
#
#
# Indices 1 2 3 4 5 6 
#
# 1 210.2545 84.9345 101.2027 0.0000 -10.1597 0.0000
# 2 84.9345 134.5398 98.1725 0.0000 0.1150 0.0000
# 3 101.2027 98.1725 272.0874 0.0000 1.8691 0.0000
# 4 0.0000 0.0000 0.0000 87.3571 0.0000 -32.3783
# 5 -10.1597 0.1150 1.8691 0.0000 62.6504 0.0000
# 6 0.0000 0.0000 0.0000 -32.3783 0.0000 56.1047
#
#
#
# Elastic Compliance Matrix: (Units=1/GPa)
#
#
# Indices 1 2 3 4 5 6 
#
# 1 0.006795 -0.003313 -0.001340 0.000000 0.001148 0.000000
# 2 -0.003313 0.011705 -0.002988 0.000000 -0.000470 0.000000
# 3 -0.001340 -0.002988 0.005254 0.000000 -0.000369 0.000000
# 4 0.000000 0.000000 0.000000 0.014562 0.000000 0.008404
# 5 0.001148 -0.000470 -0.000369 0.000000 0.016160 0.000000
# 6 0.000000 0.000000 0.000000 0.008404 0.000000 0.022674
#
#
# Mechanical properties :
#
#
# Convention : Reuss Voigt Hill
#
# Bulk Modulus (GPa) = 118.02573 131.72237 124.87405
# Shear Modulus (GPa) = 52.49109 63.39390 57.94250
#
# Velocity S-wave (km/s) = 4.22987 4.64845 4.44409
# Velocity P-wave (km/s) = 8.00534 8.58540 8.30044
#
# Compressibility (1/GPa) = 0.00847273
#
# Stress axis : x y z
#
# Youngs Moduli (GPa) = 147.17157 85.43618 190.32310
#
# Poissons Ratio (x) = 0.28303 0.25502
# Poissons Ratio (y) = 0.48755 0.56864
# Poissons Ratio (z) = 0.19720 0.25526
#
# Static dielectric constant tensor:
#      x y z
#    x 2.484630 0.000000 -0.136750 
#    y 0.000000 2.563220 0.000000 
#    z -0.136750 0.000000 2.599750 
# 
# From -- ./inp_files/76522.got.cif
#   From: 2010.05.17/outbox.cif.g08.bks.cpg/sg15_39_cif.got.tgz:76522.got - 2010.06.03 18:47:42.
