data_PCOD9308917
_publ_section_title
;
Structure prediction by ZEFSAII (Michael W. Deem and Ramdas Pophale) SiO2 
 PCOD9308917
Probable space group: C 2/C
;
_chemical_formula_sum "Si O2"
_cell_formula_units_Z 22
_cell_length_a 15.000000
_cell_length_b 30.000000
_cell_length_c 15.000000
_cell_angle_alpha 90.000000
_cell_angle_beta 160.000000
_cell_angle_gamma 90.000000
_cell_volume 2308.635967
_symmetry_space_group_name_H-M "C 2/C"
_symmetry_group_IT_number 15
_symmetry_cell_setting 'monoclinic'
loop_
_space_group_symop_operation_xyz
x,y,z
-x,y,1/2-z
-x,-y,-z
x,-y,1/2+z
1/2+x,1/2+y,z
1/2-x,1/2+y,1/2-z
1/2-x,1/2-y,-z
1/2+x,1/2-y,1/2+z
loop_
_atom_site_type_symbol
_atom_site_label
_atom_site_fract_x
_atom_site_fract_y
_atom_site_fract_z
Si Si1 0.100644 0.128673 0.100523
Si Si2 0.854945 0.402942 0.452603
Si Si3 0.028106 0.502241 0.669096
Si Si4 0.842285 0.781399 0.941824
Si Si5 0.968414 0.056750 0.327316
Si Si6 0.500000 0.159114 0.250000
O O1 0.405284 0.116936 0.378285
O O2 0.093767 0.181481 0.074034
O O3 0.006784 0.104802 0.102763
O O4 0.920171 0.104658 0.855249
O O5 0.941625 0.453517 0.554504
O O6 0.862787 0.373082 0.549337
O O7 0.000000 0.500944 0.750000
O O8 0.818175 0.535955 0.429756
O O9 0.317433 0.522678 0.929671
O O10 0.607816 0.746222 0.705093
O O11 0.719849 0.810630 0.908260
O O12 0.000000 0.059660 0.250000
#
# Coordination Sequence:
#
# PCOD9308917 Si02
#       6
#     8   8   8   8   8   4
#     4  11  24  38  57  86 110 149 194 243 293 336
#     4  11  22  36  56  84 123 153 191 231 270 335
#     4  10  20  36  56  84 116 159 192 230 271 332
#     4  11  23  40  60  84 116 150 193 241 289 347
#     4  10  22  39  59  80 113 151 195 238 292 340
#     4  10  22  38  58  88 120 162 190 224 278 348
#
# _framework density 9.5294369999999997
#
# number of rings (size 3 to 8) (size 9 to 14) (size 15 to 20)
#    0.000    1.455    0.909    4.909    0.000   10.182 
#    0.000    0.000    0.000    1.091    0.000    0.000 
#    0.000    0.000    0.000    0.000    0.000    0.000 
#
# Total GULP energy -122847.899238 kJ/mol
# GULP energy per Si atom -5583.995420 kJ/mol
# Density = 0.950775 g / cm^3
# Si number density = 9.529437 Si / 1000 Ang^3
#
#
#
# Elastic Constant Matrix: (Units=GPa)
#
#
# Indices 1 2 3 4 5 6 
#
# 1 31.4682 47.3650 15.1548 -0.0014 -7.7368 0.0007
# 2 47.3650 110.7296 12.1579 0.0004 -10.7015 0.0006
# 3 15.1548 12.1579 86.8610 0.0004 3.2327 0.0028
# 4 -0.0014 0.0004 0.0004 32.1737 -0.0018 0.6238
# 5 -7.7368 -10.7015 3.2327 -0.0018 17.1280 0.0014
# 6 0.0007 0.0006 0.0028 0.6238 0.0014 34.5650
#
#
#
# Elastic Compliance Matrix: (Units=1/GPa)
#
#
# Indices 1 2 3 4 5 6 
#
# 1 0.108706 -0.042536 -0.013949 0.000007 0.025159 -0.000001
# 2 -0.042536 0.026476 0.003842 -0.000002 -0.003397 0.000000
# 3 -0.013949 0.003842 0.013650 -0.000001 -0.006476 -0.000001
# 4 0.000007 -0.000002 -0.000001 0.031092 0.000005 -0.000561
# 5 0.025159 -0.003397 -0.006476 0.000005 0.068848 -0.000003
# 6 -0.000001 0.000000 -0.000001 -0.000561 -0.000003 0.028941
#
#
# Mechanical properties :
#
#
# Convention : Reuss Voigt Hill
#
# Bulk Modulus (GPa) = 22.96459 42.04602 32.50530
# Shear Modulus (GPa) = 12.57820 27.06542 19.82181
#
# Velocity S-wave (km/s) = 2.57177 3.77250 3.22845
# Velocity P-wave (km/s) = 4.57101 6.40974 5.56681
#
# Compressibility (1/GPa) = 0.04354530
#
# Stress axis : x y z
#
# Youngs Moduli (GPa) = 9.19916 37.77019 73.26240
#
# Poissons Ratio (x) = 1.60660 1.02191
# Poissons Ratio (y) = 0.39130 -0.28147
# Poissons Ratio (z) = 0.12832 -0.14511
#
# Static dielectric constant tensor:
#      x y z
#    x 1.699290 0.000000 -0.002610 
#    y 0.000000 1.670260 0.000000 
#    z -0.002610 0.000000 1.653390 
# 
# From -- ./inp_files/7987.got.cif
#   From: 2010.05.17/outbox.ucp.g08.bks.cvg/sg15_4_cif.got.tgz:7987.got - 2010.06.11 12:40:34.
