data_PCOD9308596
_publ_section_title
;
Structure prediction by ZEFSAII (Michael W. Deem and Ramdas Pophale) SiO2 
 PCOD9308596
Probable space group: C 2/C
;
_chemical_formula_sum "Si O2"
_cell_formula_units_Z 32
_cell_length_a 12.956074
_cell_length_b 6.938971
_cell_length_c 18.785566
_cell_angle_alpha 90.000000
_cell_angle_beta 139.851881
_cell_angle_gamma 90.000000
_cell_volume 1088.916998
_symmetry_space_group_name_H-M "C 2/C"
_symmetry_group_IT_number 15
_symmetry_cell_setting 'monoclinic'
loop_
_space_group_symop_operation_xyz
x,y,z
-x,y,1/2-z
-x,-y,-z
x,-y,1/2+z
1/2+x,1/2+y,z
1/2-x,1/2+y,1/2-z
1/2-x,1/2-y,-z
1/2+x,1/2-y,1/2+z
loop_
_atom_site_type_symbol
_atom_site_label
_atom_site_fract_x
_atom_site_fract_y
_atom_site_fract_z
Si Si1 0.208150 0.093207 0.905585
Si Si2 0.901035 0.696849 0.465939
Si Si3 0.163806 0.908226 0.644681
Si Si4 0.495041 0.901454 0.666967
O O1 0.275829 0.267527 0.889999
O O2 0.038442 0.170390 0.841438
O O3 0.336305 0.058074 0.037539
O O4 0.223124 0.885400 0.879319
O O5 0.000000 0.500000 0.500000
O O6 0.005540 0.793586 0.585158
O O7 0.887683 0.880944 0.407980
O O8 0.329873 0.929781 0.774031
O O9 0.500000 0.984173 0.750000
#
# Coordination Sequence:
#
# PCOD9308596 Si02
#       4
#     8   8   8   8
#     4   9  18  36  57  82 117 152 192 242 290 338
#     4   9  18  36  57  80 116 152 187 244 294 339
#     4   9  18  36  57  84 117 151 196 240 286 352
#     4   9  18  36  57  82 118 153 192 239 285 344
#
# _framework density 29.386994000000001
#
# number of rings (size 3 to 8) (size 9 to 14) (size 15 to 20)
#    0.000    3.000    0.000    0.000    0.000    0.000 
#   13.500   35.000    0.000    0.000    0.000    0.000 
#    0.000    0.000    0.000    0.000    0.000    0.000 
#
# Total GULP energy -89119.262961 kJ/mol
# GULP energy per Si atom -5569.953935 kJ/mol
# Density = 2.932011 g / cm^3
# Si number density = 29.386994 Si / 1000 Ang^3
#
#
#
# Elastic Constant Matrix: (Units=GPa)
#
#
# Indices 1 2 3 4 5 6 
#
# 1 61.2672 13.5307 16.2651 0.0000 1.3296 0.0000
# 2 13.5307 191.3312 49.2685 0.0000 29.3340 0.0000
# 3 16.2651 49.2685 147.8116 0.0000 17.7956 0.0000
# 4 0.0000 0.0000 0.0000 50.7716 0.0000 19.7150
# 5 1.3296 29.3340 17.7956 0.0000 64.1746 0.0000
# 6 0.0000 0.0000 0.0000 19.7150 0.0000 37.5262
#
#
#
# Elastic Compliance Matrix: (Units=1/GPa)
#
#
# Indices 1 2 3 4 5 6 
#
# 1 0.016934 -0.000851 -0.001639 0.000000 0.000493 0.000000
# 2 -0.000851 0.006064 -0.001651 0.000000 -0.002296 0.000000
# 3 -0.001639 -0.001651 0.007657 0.000000 -0.001335 0.000000
# 4 0.000000 0.000000 0.000000 0.024744 0.000000 -0.013000
# 5 0.000493 -0.002296 -0.001335 0.000000 0.016992 0.000000
# 6 0.000000 0.000000 0.000000 -0.013000 0.000000 0.033478
#
#
# Mechanical properties :
#
#
# Convention : Reuss Voigt Hill
#
# Bulk Modulus (GPa) = 44.69762 62.05984 53.37873
# Shear Modulus (GPa) = 41.11554 51.91753 46.51654
#
# Velocity S-wave (km/s) = 3.74452 4.20775 3.98288
# Velocity P-wave (km/s) = 5.82566 6.69111 6.27332
#
# Compressibility (1/GPa) = 0.02237256
#
# Stress axis : x y z
#
# Youngs Moduli (GPa) = 59.05159 164.90888 130.60363
#
# Poissons Ratio (x) = 0.14034 0.21407
# Poissons Ratio (y) = 0.05025 0.21564
# Poissons Ratio (z) = 0.09679 0.27229
#
# Static dielectric constant tensor:
#      x y z
#    x 2.815570 0.000000 -0.037230 
#    y 0.000000 2.286020 0.000000 
#    z -0.037230 0.000000 2.475940 
# 
# From -- ./inp_files/175200.got.cif
#   From: 2010.05.17/outbox.cif.g08.bks.cpg/sg15_88_cif.got.tgz:175200.got - 2010.06.03 18:47:42.
