data_PCOD9308739
_publ_section_title
;
Structure prediction by ZEFSAII (Michael W. Deem and Ramdas Pophale) SiO2 
 PCOD9308739
Probable space group: C 2/C
;
_chemical_formula_sum "Si O2"
_cell_formula_units_Z 24
_cell_length_a 24.000000
_cell_length_b 21.000000
_cell_length_c 15.000000
_cell_angle_alpha 90.000000
_cell_angle_beta 20.000000
_cell_angle_gamma 90.000000
_cell_volume 2585.672284
_symmetry_space_group_name_H-M "C 2/C"
_symmetry_group_IT_number 15
_symmetry_cell_setting 'monoclinic'
loop_
_space_group_symop_operation_xyz
x,y,z
-x,y,1/2-z
-x,-y,-z
x,-y,1/2+z
1/2+x,1/2+y,z
1/2-x,1/2+y,1/2-z
1/2-x,1/2-y,-z
1/2+x,1/2-y,1/2+z
loop_
_atom_site_type_symbol
_atom_site_label
_atom_site_fract_x
_atom_site_fract_y
_atom_site_fract_z
Si Si1 0.678147 0.474200 0.260932
Si Si2 0.784669 0.509829 0.411473
Si Si3 0.374310 0.716623 0.245423
Si Si4 0.377049 0.789825 0.519929
Si Si5 0.121557 0.566620 0.414018
Si Si6 0.976100 0.901039 0.689276
O O1 0.500000 0.500000 0.500000
O O2 0.778017 0.528127 0.162284
O O3 0.641011 0.420311 0.390409
O O4 0.763519 0.456508 0.039386
O O5 0.804067 0.554089 0.296074
O O6 0.629537 0.463791 0.631870
O O7 0.941790 0.464046 0.181122
O O8 0.250000 0.750000 0.500000
O O9 0.298721 0.725487 0.260811
O O10 0.378252 0.642886 0.267701
O O11 0.549395 0.743895 0.014046
O O12 0.379018 0.860180 0.557975
O O13 0.500000 0.789384 0.250000
O O14 0.000000 0.868666 0.750000
#
# Coordination Sequence:
#
# PCOD9308739 Si02
#       6
#     8   8   8   8   8   8
#     4  10  20  33  52  77 113 144 184 233 284 333
#     4  10  21  33  53  83 109 155 185 222 294 340
#     4  10  20  33  54  81 108 148 187 237 288 331
#     4  10  19  34  53  79 110 145 189 236 286 334
#     4  11  20  35  55  80 118 150 188 232 282 354
#     4  11  19  34  53  82 115 141 187 238 284 342
#
# _framework density 9.2819190000000003
#
# number of rings (size 3 to 8) (size 9 to 14) (size 15 to 20)
#    0.000    1.667    1.667    7.000    0.000    0.000 
#    0.000    0.000    0.000    1.000    0.000    2.333 
#    0.000    0.000    0.000    0.000    0.000    0.000 
#
# Total GULP energy -133804.436512 kJ/mol
# GULP energy per Si atom -5575.184855 kJ/mol
# Density = 0.926079 g / cm^3
# Si number density = 9.281919 Si / 1000 Ang^3
#
#
#
# Elastic Constant Matrix: (Units=GPa)
#
#
# Indices 1 2 3 4 5 6 
#
# 1 141.7557 26.8608 37.7816 -0.0002 -6.4924 0.0010
# 2 26.8608 55.8813 15.3020 -0.0063 2.1389 0.0003
# 3 37.7816 15.3020 52.5612 -0.0021 12.9839 -0.0017
# 4 -0.0002 -0.0063 -0.0021 20.6684 -0.0018 -4.7974
# 5 -6.4924 2.1389 12.9839 -0.0018 37.6374 0.0008
# 6 0.0010 0.0003 -0.0017 -4.7974 0.0008 36.1221
#
#
#
# Elastic Compliance Matrix: (Units=1/GPa)
#
#
# Indices 1 2 3 4 5 6 
#
# 1 0.009720 -0.002860 -0.007224 -0.000001 0.004331 -0.000001
# 2 -0.002860 0.020316 -0.003773 0.000006 -0.000346 0.000001
# 3 -0.007224 -0.003773 0.027954 0.000001 -0.010675 0.000002
# 4 -0.000001 0.000006 0.000001 0.049922 0.000001 0.006630
# 5 0.004331 -0.000346 -0.010675 0.000001 0.031019 -0.000001
# 6 -0.000001 0.000001 0.000002 0.006630 -0.000001 0.028564
#
#
# Mechanical properties :
#
#
# Convention : Reuss Voigt Hill
#
# Bulk Modulus (GPa) = 33.03039 45.56521 39.29780
# Shear Modulus (GPa) = 24.35432 30.23585 27.29509
#
# Velocity S-wave (km/s) = 3.62598 4.04016 3.83866
# Velocity P-wave (km/s) = 5.94658 6.80898 6.39234
#
# Compressibility (1/GPa) = 0.03027515
#
# Stress axis : x y z
#
# Youngs Moduli (GPa) = 102.87920 49.22175 35.77313
#
# Poissons Ratio (x) = 0.14076 0.25844
# Poissons Ratio (y) = 0.29421 0.13499
# Poissons Ratio (z) = 0.74324 0.18574
#
# Static dielectric constant tensor:
#      x y z
#    x 1.699230 0.000000 -0.017170 
#    y 0.000000 1.698360 0.000000 
#    z -0.017170 0.000000 1.649580 
# 
# From -- ./inp_files/79114.got.cif
#   From: 2010.05.17/outbox.ucp.g08.bks.cvg/sg15_40_cif.got.tgz:79114.got - 2010.06.11 12:40:34.
