data_PCOD9308854
_publ_section_title
;
Structure prediction by ZEFSAII (Michael W. Deem and Ramdas Pophale) SiO2 
 PCOD9308854
Probable space group: C 2/C
;
_chemical_formula_sum "Si O2"
_cell_formula_units_Z 26
_cell_length_a 15.000000
_cell_length_b 18.000000
_cell_length_c 15.000000
_cell_angle_alpha 90.000000
_cell_angle_beta 40.000000
_cell_angle_gamma 90.000000
_cell_volume 2603.289819
_symmetry_space_group_name_H-M "C 2/C"
_symmetry_group_IT_number 15
_symmetry_cell_setting 'monoclinic'
loop_
_space_group_symop_operation_xyz
x,y,z
-x,y,1/2-z
-x,-y,-z
x,-y,1/2+z
1/2+x,1/2+y,z
1/2-x,1/2+y,1/2-z
1/2-x,1/2-y,-z
1/2+x,1/2-y,1/2+z
loop_
_atom_site_type_symbol
_atom_site_label
_atom_site_fract_x
_atom_site_fract_y
_atom_site_fract_z
Si Si1 0.500000 0.357123 0.750000
Si Si2 0.370153 0.691066 0.163617
Si Si3 0.278714 0.517635 0.447377
Si Si4 0.847119 0.432122 0.644602
Si Si5 0.392163 0.091252 0.657872
Si Si6 0.000000 0.432366 0.250000
Si Si7 0.000000 0.112580 0.750000
Si Si8 0.629808 0.682235 0.827417
O O1 0.571485 0.313814 0.778586
O O2 0.616913 0.412458 0.618148
O O3 0.275746 0.617234 0.221929
O O4 0.251130 0.754090 0.238740
O O5 0.504086 0.694223 0.994929
O O6 0.218062 0.531116 0.394661
O O7 0.373980 0.443366 0.377131
O O8 0.140336 0.523476 0.613693
O O9 0.895047 0.501956 0.665008
O O10 0.990475 0.390197 0.506452
O O11 0.454572 0.119307 0.702421
O O12 0.233215 0.113109 0.767246
O O13 0.942288 0.163088 0.712598
#
# Coordination Sequence:
#
# PCOD9308854 Si02
#       8
#     4   8   8   8   8   4   4   8
#     4   9  20  41  68  92 128 158 200 262 319 377
#     4  11  25  42  63  94 124 170 207 258 318 378
#     4   9  18  38  61  96 124 155 204 260 314 362
#     4   9  19  39  63  89 126 154 201 257 312 369
#     4  10  20  37  62  94 123 158 201 259 314 371
#     4  10  20  31  61 101 125 152 194 260 324 377
#     4  11  24  42  61  87 125 170 214 264 299 364
#     4  12  26  43  63  89 127 172 216 257 311 372
#
# _framework density 9.9873630000000002
#
# number of rings (size 3 to 8) (size 9 to 14) (size 15 to 20)
#    0.000    1.846    1.538    1.846    2.154    2.462 
#    0.000    0.769    0.000    0.000    0.000    0.000 
#    0.000    0.000    0.000    0.000    0.000    0.000 
#
# Total GULP energy -144859.754637 kJ/mol
# GULP energy per Si atom -5571.529024 kJ/mol
# Density = 0.996463 g / cm^3
# Si number density = 9.987363 Si / 1000 Ang^3
#
#
#
# Elastic Constant Matrix: (Units=GPa)
#
#
# Indices 1 2 3 4 5 6 
#
# 1 129.9294 36.2015 54.8329 -0.0001 -9.8277 0.0001
# 2 36.2015 72.0442 48.1020 0.0000 -5.7398 0.0000
# 3 54.8329 48.1020 184.4984 0.0000 -32.8506 0.0000
# 4 -0.0001 0.0000 0.0000 25.9016 0.0000 -18.1194
# 5 -9.8277 -5.7398 -32.8506 0.0000 41.2138 0.0000
# 6 0.0001 0.0000 0.0000 -18.1194 0.0000 39.6205
#
#
#
# Elastic Compliance Matrix: (Units=1/GPa)
#
#
# Indices 1 2 3 4 5 6 
#
# 1 0.009476 -0.003502 -0.001850 0.000000 0.000297 0.000000
# 2 -0.003502 0.018164 -0.003954 0.000000 -0.001457 0.000000
# 3 -0.001850 -0.003954 0.007953 0.000000 0.005347 0.000000
# 4 0.000000 0.000000 0.000000 0.056769 0.000000 0.025962
# 5 0.000297 -0.001457 0.005347 0.000000 0.028394 0.000000
# 6 0.000000 0.000000 0.000000 0.025962 0.000000 0.037112
#
#
# Mechanical properties :
#
#
# Convention : Reuss Voigt Hill
#
# Bulk Modulus (GPa) = 58.89550 73.86054 66.37802
# Shear Modulus (GPa) = 27.45111 37.83622 32.64366
#
# Velocity S-wave (km/s) = 3.71117 4.35697 4.04697
# Velocity P-wave (km/s) = 6.92190 7.89735 7.42566
#
# Compressibility (1/GPa) = 0.01697923
#
# Stress axis : x y z
#
# Youngs Moduli (GPa) = 105.53400 55.05265 125.73836
#
# Poissons Ratio (x) = 0.19282 0.23263
# Poissons Ratio (y) = 0.36963 0.49721
# Poissons Ratio (z) = 0.19525 0.21770
#
# Static dielectric constant tensor:
#      x y z
#    x 1.737550 0.000000 0.023940 
#    y 0.000000 1.788040 0.000000 
#    z 0.023940 0.000000 1.714120 
# 
# From -- ./inp_files/155462.got.cif
#   From: 2010.05.17/outbox.ucp.g08.bks.cvg/sg15_78_cif.got.tgz:155462.got - 2010.06.11 12:40:34.
