data_PCOD9308902
_publ_section_title
;
Structure prediction by ZEFSAII (Michael W. Deem and Ramdas Pophale) SiO2 
 PCOD9308902
Probable space group: C 2/C
;
_chemical_formula_sum "Si O2"
_cell_formula_units_Z 26
_cell_length_a 15.000000
_cell_length_b 30.000000
_cell_length_c 9.000000
_cell_angle_alpha 90.000000
_cell_angle_beta 140.000000
_cell_angle_gamma 90.000000
_cell_volume 2603.289819
_symmetry_space_group_name_H-M "C 2/C"
_symmetry_group_IT_number 15
_symmetry_cell_setting 'monoclinic'
loop_
_space_group_symop_operation_xyz
x,y,z
-x,y,1/2-z
-x,-y,-z
x,-y,1/2+z
1/2+x,1/2+y,z
1/2-x,1/2+y,1/2-z
1/2-x,1/2-y,-z
1/2+x,1/2-y,1/2+z
loop_
_atom_site_type_symbol
_atom_site_label
_atom_site_fract_x
_atom_site_fract_y
_atom_site_fract_z
Si Si1 0.756366 0.616549 0.615414
Si Si2 0.662017 0.730798 0.246839
Si Si3 0.163278 0.354667 0.601235
Si Si4 0.820698 0.464495 0.367058
Si Si5 0.072639 0.319215 0.999524
Si Si6 0.000000 0.818473 0.750000
Si Si7 0.349212 0.945350 0.743257
O O1 0.839983 0.622661 0.567070
O O2 0.736757 0.566260 0.643385
O O3 0.627022 0.648229 0.422679
O O4 0.825661 0.639646 0.847148
O O5 0.750000 0.750000 0.500000
O O6 0.727066 0.685726 0.265128
O O7 0.517489 0.714077 0.132511
O O8 0.643185 0.771548 0.112344
O O9 0.186479 0.396162 0.742322
O O10 0.031210 0.328018 0.495611
O O11 0.793787 0.455300 0.506510
O O12 0.802873 0.515898 0.297904
O O13 0.982842 0.450772 0.548761
O O14 0.000000 0.321699 0.750000
#
# Coordination Sequence:
#
# PCOD9308902 Si02
#       7
#     8   8   8   8   8   4   8
#     4  11  22  38  63  89 120 167 198 252 301 375
#     4  11  22  40  61  85 119 169 210 257 298 374
#     4  11  22  37  63  84 124 161 207 251 307 361
#     4  10  20  35  59  92 125 157 191 249 320 356
#     4  12  24  38  58  90 123 156 203 264 316 356
#     4  10  22  40  62  84 118 162 222 238 300 376
#     4  10  20  35  58  93 127 152 195 253 307 376
#
# _framework density 9.9873630000000002
#
# number of rings (size 3 to 8) (size 9 to 14) (size 15 to 20)
#    0.000    1.231    4.615    3.231    0.000    1.846 
#    2.769    0.000    0.000    8.308    0.000    0.000 
#    0.000    0.000    0.000    0.000    0.000    0.000 
#
# Total GULP energy -144916.382163 kJ/mol
# GULP energy per Si atom -5573.707006 kJ/mol
# Density = 0.996463 g / cm^3
# Si number density = 9.987363 Si / 1000 Ang^3
#
#
#
# Elastic Constant Matrix: (Units=GPa)
#
#
# Indices 1 2 3 4 5 6 
#
# 1 51.9307 29.1080 21.3560 0.0000 -15.3181 0.0000
# 2 29.1080 152.9224 15.5652 0.0000 -14.0522 0.0000
# 3 21.3560 15.5652 53.5272 0.0000 -26.2528 0.0000
# 4 0.0000 0.0000 0.0000 -64.7270 0.0000 61.5287
# 5 -15.3181 -14.0522 -26.2528 0.0000 28.3614 0.0000
# 6 0.0000 0.0000 0.0000 61.5287 0.0000 -15.7195
#
#
#
# Elastic Compliance Matrix: (Units=1/GPa)
#
#
# Indices 1 2 3 4 5 6 
#
# 1 0.025707 -0.003685 -0.005990 0.000000 0.006514 0.000000
# 2 -0.003685 0.007390 0.000258 0.000000 0.001910 0.000000
# 3 -0.005990 0.000258 0.035664 0.000000 0.029905 0.000000
# 4 0.000000 0.000000 0.000000 0.005678 0.000000 0.022226
# 5 0.006514 0.001910 0.029905 0.000000 0.067406 0.000000
# 6 0.000000 0.000000 0.000000 0.022226 0.000000 0.023381
#
#
# Mechanical properties :
#
#
# Convention : Reuss Voigt Hill
#
# Bulk Modulus (GPa) = 20.02923 43.38211 31.70567
# Shear Modulus (GPa) = 24.91257 2.40638 13.65948
#
# Velocity S-wave (km/s) = 3.53541 1.09879 2.61787
# Velocity P-wave (km/s) = 5.16861 4.83481 5.00450
#
# Compressibility (1/GPa) = 0.04992703
#
# Stress axis : x y z
#
# Youngs Moduli (GPa) = 38.90052 135.31953 28.03944
#
# Poissons Ratio (x) = 0.49863 0.16796
# Poissons Ratio (y) = 0.14334 -0.00724
# Poissons Ratio (z) = 0.23301 -0.03493
#
# Static dielectric constant tensor:
#      x y z
#    x 2.369890 0.000000 -0.197970 
#    y 0.000000 1.693820 0.000000 
#    z -0.197970 0.000000 1.835890 
# 
# From -- ./inp_files/44910.got.cif
#   From: 2010.05.17/outbox.ucp.g08.bks.cvg/sg15_23_cif.got.tgz:44910.got - 2010.06.11 12:40:34.
