data_PCOD9308794
_publ_section_title
;
Structure prediction by ZEFSAII (Michael W. Deem and Ramdas Pophale) SiO2 
 PCOD9308794
Probable space group: C 2/C
;
_chemical_formula_sum "Si O2"
_cell_formula_units_Z 32
_cell_length_a 9.000000
_cell_length_b 24.000000
_cell_length_c 30.000000
_cell_angle_alpha 90.000000
_cell_angle_beta 150.000000
_cell_angle_gamma 90.000000
_cell_volume 3240.000000
_symmetry_space_group_name_H-M "C 2/C"
_symmetry_group_IT_number 15
_symmetry_cell_setting 'monoclinic'
loop_
_space_group_symop_operation_xyz
x,y,z
-x,y,1/2-z
-x,-y,-z
x,-y,1/2+z
1/2+x,1/2+y,z
1/2-x,1/2+y,1/2-z
1/2-x,1/2-y,-z
1/2+x,1/2-y,1/2+z
loop_
_atom_site_type_symbol
_atom_site_label
_atom_site_fract_x
_atom_site_fract_y
_atom_site_fract_z
Si Si1 0.771782 0.139431 0.562765
Si Si2 0.656945 0.956680 0.575477
Si Si3 0.326138 0.913498 0.250458
Si Si4 0.255456 0.778787 0.952653
Si Si5 0.817164 0.827507 0.406656
Si Si6 0.489142 0.003191 0.869920
Si Si7 0.457363 0.416981 0.966056
Si Si8 0.856635 0.119374 0.342091
O O1 0.577732 0.094628 0.484668
O O2 0.539772 0.180088 0.525976
O O3 0.993198 0.104384 0.651776
O O4 0.987513 0.175116 0.587143
O O5 0.966221 0.928072 0.640027
O O6 0.500000 0.000000 0.500000
O O7 0.685476 0.985141 0.631197
O O8 0.500000 0.931971 0.250000
O O9 0.510304 0.859324 0.315026
O O10 0.341582 0.960089 0.292759
O O11 0.282538 0.730014 0.923246
O O12 0.980243 0.818246 0.865810
O O13 0.250000 0.750000 0.000000
O O14 0.990285 0.870405 0.483567
O O15 0.646399 0.948615 0.890758
O O16 0.770631 0.039947 0.959492
O O17 0.468733 0.390488 0.921073
O O18 0.500000 0.115200 0.250000
#
# Coordination Sequence:
#
# PCOD9308794 Si02
#       8
#     8   8   8   8   8   8   8   8
#     4  10  22  40  63  95 128 166 218 277 322 393
#     4  11  22  40  65  92 134 177 218 260 323 406
#     4   9  21  37  64 103 133 159 215 273 323 392
#     4  11  23  40  68  88 119 172 222 271 334 392
#     4  10  19  40  65  91 126 167 212 264 336 390
#     4  10  20  37  68  95 131 178 209 254 329 395
#     4  10  19  36  64  94 127 173 209 258 321 402
#     4  11  25  42  61  91 135 169 218 276 328 385
#
# _framework density 9.8765429999999999
#
# number of rings (size 3 to 8) (size 9 to 14) (size 15 to 20)
#    0.000    1.750    3.750    0.375    1.750    2.500 
#    0.000    3.750    0.000    0.000    0.000    0.000 
#    0.000    0.000    0.000    0.000    0.000    0.000 
#
# Total GULP energy -178694.706777 kJ/mol
# GULP energy per Si atom -5584.209587 kJ/mol
# Density = 0.985406 g / cm^3
# Si number density = 9.876543 Si / 1000 Ang^3
#
#
#
# Elastic Constant Matrix: (Units=GPa)
#
#
# Indices 1 2 3 4 5 6 
#
# 1 88.0301 40.4493 56.2462 -0.0012 13.1343 0.0137
# 2 40.4493 85.9451 43.3287 -0.0019 18.6649 0.0125
# 3 56.2462 43.3287 110.4402 -0.0047 12.0804 0.0082
# 4 -0.0012 -0.0019 -0.0047 4.7385 0.0024 -9.8047
# 5 13.1343 18.6649 12.0804 0.0024 29.4867 0.0017
# 6 0.0137 0.0125 0.0082 -9.8047 0.0017 41.4708
#
#
#
# Elastic Compliance Matrix: (Units=1/GPa)
#
#
# Indices 1 2 3 4 5 6 
#
# 1 0.018497 -0.004450 -0.007414 -0.000019 -0.002385 -0.000008
# 2 -0.004450 0.017184 -0.003667 0.000000 -0.007393 -0.000003
# 3 -0.007414 -0.003667 0.014294 0.000024 -0.000233 0.000006
# 4 -0.000019 0.000000 0.000024 0.413141 -0.000041 0.097676
# 5 -0.002385 -0.007393 -0.000233 -0.000041 0.039751 -0.000008
# 6 -0.000008 -0.000003 0.000006 0.097676 -0.000008 0.047206
#
#
# Mechanical properties :
#
#
# Convention : Reuss Voigt Hill
#
# Bulk Modulus (GPa) = 52.86899 62.71821 57.79360
# Shear Modulus (GPa) = 8.51151 24.76528 16.63839
#
# Velocity S-wave (km/s) = 2.07805 3.54466 2.90542
# Velocity P-wave (km/s) = 5.70796 6.96942 6.36999
#
# Compressibility (1/GPa) = 0.01891468
#
# Stress axis : x y z
#
# Youngs Moduli (GPa) = 54.06176 58.19458 69.95725
#
# Poissons Ratio (x) = 0.25897 0.51865
# Poissons Ratio (y) = 0.24058 0.25651
# Poissons Ratio (z) = 0.40080 0.21338
#
# Static dielectric constant tensor:
#      x y z
#    x 1.717680 0.000000 0.015100 
#    y 0.000000 1.754410 0.000000 
#    z 0.015100 0.000000 1.684830 
# 
# From -- ./inp_files/309133.got.cif
#   From: 2010.05.17/outbox.ucp.g08.bks.cvg/sg15_155_cif.got.tgz:309133.got - 2010.06.11 12:40:34.
