data_PCOD9308881
_publ_section_title
;
Structure prediction by ZEFSAII (Michael W. Deem and Ramdas Pophale) SiO2 
 PCOD9308881
Probable space group: C 2/C
;
_chemical_formula_sum "Si O2"
_cell_formula_units_Z 26
_cell_length_a 9.000000
_cell_length_b 18.000000
_cell_length_c 18.000000
_cell_angle_alpha 90.000000
_cell_angle_beta 60.000000
_cell_angle_gamma 90.000000
_cell_volume 2525.330077
_symmetry_space_group_name_H-M "C 2/C"
_symmetry_group_IT_number 15
_symmetry_cell_setting 'monoclinic'
loop_
_space_group_symop_operation_xyz
x,y,z
-x,y,1/2-z
-x,-y,-z
x,-y,1/2+z
1/2+x,1/2+y,z
1/2-x,1/2+y,1/2-z
1/2-x,1/2-y,-z
1/2+x,1/2-y,1/2+z
loop_
_atom_site_type_symbol
_atom_site_label
_atom_site_fract_x
_atom_site_fract_y
_atom_site_fract_z
Si Si1 0.684094 0.593122 0.894381
Si Si2 0.192591 0.411993 0.974192
Si Si3 0.622029 0.678402 0.453297
Si Si4 0.000000 0.328153 0.250000
Si Si5 0.524283 0.316514 0.660051
Si Si6 0.171741 0.647747 0.964681
Si Si7 0.424907 0.464133 0.349310
O O1 0.569420 0.534991 0.877550
O O2 0.828304 0.625081 0.803382
O O3 0.773617 0.568503 0.948224
O O4 0.549297 0.654129 0.959422
O O5 0.292611 0.337786 0.920679
O O6 0.283744 0.475144 0.903925
O O7 0.995205 0.399426 0.009787
O O8 0.604541 0.656431 0.371652
O O9 0.775146 0.642737 0.462017
O O10 0.641089 0.766652 0.453738
O O11 0.999370 0.271417 0.180225
O O12 0.500000 0.347219 0.750000
O O13 0.330414 0.615058 0.878994
O O14 0.500000 0.474714 0.250000
#
# Coordination Sequence:
#
# PCOD9308881 Si02
#       7
#     8   8   8   4   8   8   8
#     4  10  22  38  63  86 119 159 203 257 300 362
#     4  11  21  41  62  84 119 168 208 235 301 379
#     4   9  19  39  58  90 121 154 197 249 317 361
#     4  10  20  34  62  96 114 150 216 254 312 352
#     4   9  20  34  61  87 121 154 198 252 304 358
#     4  10  21  37  62  86 119 161 200 248 302 372
#     4  11  25  39  58  87 125 161 201 257 304 348
#
# _framework density 10.295684
#
# number of rings (size 3 to 8) (size 9 to 14) (size 15 to 20)
#    0.462    1.538    0.000    3.231    4.308    2.462 
#    0.000    0.769    0.000    0.000    0.000    0.000 
#    0.000    0.000    0.000    0.000    0.000    0.000 
#
# Total GULP energy -144976.486883 kJ/mol
# GULP energy per Si atom -5576.018726 kJ/mol
# Density = 1.027225 g / cm^3
# Si number density = 10.295684 Si / 1000 Ang^3
#
#
#
# Elastic Constant Matrix: (Units=GPa)
#
#
# Indices 1 2 3 4 5 6 
#
# 1 145.7320 24.7071 60.1213 0.0000 20.1138 0.0000
# 2 24.7071 54.9141 19.8810 0.0000 -1.0483 0.0000
# 3 60.1213 19.8810 86.1588 0.0000 16.5979 0.0000
# 4 0.0000 0.0000 0.0000 28.6856 0.0000 68.2623
# 5 20.1138 -1.0483 16.5979 0.0000 19.8996 0.0000
# 6 0.0000 0.0000 0.0000 68.2623 0.0000 635.9983
#
#
#
# Elastic Compliance Matrix: (Units=1/GPa)
#
#
# Indices 1 2 3 4 5 6 
#
# 1 0.010440 -0.002845 -0.005441 0.000000 -0.006164 0.000000
# 2 -0.002845 0.021224 -0.004387 0.000000 0.007652 0.000000
# 3 -0.005441 -0.004387 0.018349 0.000000 -0.010036 0.000000
# 4 0.000000 0.000000 0.000000 0.046819 0.000000 -0.005025
# 5 -0.006164 0.007652 -0.010036 0.000000 0.065256 0.000000
# 6 0.000000 0.000000 0.000000 -0.005025 0.000000 0.002112
#
#
# Mechanical properties :
#
#
# Convention : Reuss Voigt Hill
#
# Bulk Modulus (GPa) = 40.53821 55.13598 47.83710
# Shear Modulus (GPa) = 25.28239 149.05640 87.16939
#
# Velocity S-wave (km/s) = 3.50782 8.51733 6.51344
# Velocity P-wave (km/s) = 6.01133 11.11580 8.93580
#
# Compressibility (1/GPa) = 0.02466808
#
# Stress axis : x y z
#
# Youngs Moduli (GPa) = 95.78980 47.11559 54.49998
#
# Poissons Ratio (x) = 0.13404 0.29653
# Poissons Ratio (y) = 0.27251 0.23907
# Poissons Ratio (z) = 0.52118 0.20667
#
# Static dielectric constant tensor:
#      x y z
#    x 1.780910 0.000000 0.030030 
#    y 0.000000 1.782790 0.000000 
#    z 0.030030 0.000000 1.682350 
# 
# From -- ./inp_files/190842.got.cif
#   From: 2010.05.17/outbox.ucp.g08.bks.cvg/sg15_96_cif.got.tgz:190842.got - 2010.06.11 12:40:34.
