data_PCOD9308299
_publ_section_title
;
Structure prediction by ZEFSAII (Michael W. Deem and Ramdas Pophale) SiO2 
 PCOD9308299
Probable space group: C 2/C
;
_chemical_formula_sum "Si O2"
_cell_formula_units_Z 24
_cell_length_a 9.312111
_cell_length_b 5.196767
_cell_length_c 18.733910
_cell_angle_alpha 90.000000
_cell_angle_beta 75.755497
_cell_angle_gamma 90.000000
_cell_volume 878.714220
_symmetry_space_group_name_H-M "C 2/C"
_symmetry_group_IT_number 15
_symmetry_cell_setting 'monoclinic'
loop_
_space_group_symop_operation_xyz
x,y,z
-x,y,1/2-z
-x,-y,-z
x,-y,1/2+z
1/2+x,1/2+y,z
1/2-x,1/2+y,1/2-z
1/2-x,1/2-y,-z
1/2+x,1/2-y,1/2+z
loop_
_atom_site_type_symbol
_atom_site_label
_atom_site_fract_x
_atom_site_fract_y
_atom_site_fract_z
Si Si1 0.731550 0.686837 0.659271
Si Si2 0.323518 0.501867 0.526983
Si Si3 0.076077 0.698050 0.310148
O O1 0.565445 0.629068 0.651115
O O2 0.702500 0.668390 0.747863
O O3 0.778811 0.949689 0.615266
O O4 0.864241 0.484287 0.635593
O O5 0.500000 0.500000 0.500000
O O6 0.250000 0.250000 0.500000
O O7 0.250000 0.750000 0.500000
O O8 0.000000 0.548404 0.250000
#
# Coordination Sequence:
#
# PCOD9308299 Si02
#       3
#     8   8   8
#     4   9  20  41  61  97 127 172 221 271 340 392
#     4  12  27  46  71 100 140 185 228 279 335 411
#     4   8  20  37  62  88 127 164 216 278 334 382
#
# _framework density 27.312633999999999
#
# number of rings (size 3 to 8) (size 9 to 14) (size 15 to 20)
#    2.000    0.000    0.000    3.000    0.000    8.000 
#    6.000    0.000    0.000    0.000    0.000    0.000 
#    0.000    0.000    0.000    0.000    0.000    0.000 
#
# Total GULP energy -66910.601780 kJ/mol
# GULP energy per Si atom -5575.883482 kJ/mol
# Density = 2.725047 g / cm^3
# Si number density = 27.312634 Si / 1000 Ang^3
#
#
#
# Elastic Constant Matrix: (Units=GPa)
#
#
# Indices 1 2 3 4 5 6 
#
# 1 195.5577 83.2289 39.8410 0.0000 -7.7289 0.0000
# 2 83.2289 130.9073 3.7212 0.0000 11.9301 0.0000
# 3 39.8410 3.7212 138.4355 0.0000 3.5816 0.0000
# 4 0.0000 0.0000 0.0000 37.8850 0.0000 21.7587
# 5 -7.7289 11.9301 3.5816 0.0000 39.8931 0.0000
# 6 0.0000 0.0000 0.0000 21.7587 0.0000 72.2758
#
#
#
# Elastic Compliance Matrix: (Units=1/GPa)
#
#
# Indices 1 2 3 4 5 6 
#
# 1 0.007954 -0.005297 -0.002233 0.000000 0.003326 0.000000
# 2 -0.005297 0.011383 0.001336 0.000000 -0.004550 0.000000
# 3 -0.002233 0.001336 0.007870 0.000000 -0.001539 0.000000
# 4 0.000000 0.000000 0.000000 0.031914 0.000000 -0.009608
# 5 0.003326 -0.004550 -0.001539 0.000000 0.027210 0.000000
# 6 0.000000 0.000000 0.000000 -0.009608 0.000000 0.016728
#
#
# Mechanical properties :
#
#
# Convention : Reuss Voigt Hill
#
# Bulk Modulus (GPa) = 67.47352 79.83138 73.65245
# Shear Modulus (GPa) = 41.53278 52.55142 47.04210
#
# Velocity S-wave (km/s) = 3.90377 4.39118 4.15463
# Velocity P-wave (km/s) = 6.71394 7.41634 7.07387
#
# Compressibility (1/GPa) = 0.01482063
#
# Stress axis : x y z
#
# Youngs Moduli (GPa) = 125.71989 87.84803 127.06359
#
# Poissons Ratio (x) = 0.46531 0.28371
# Poissons Ratio (y) = 0.66591 -0.16977
# Poissons Ratio (z) = 0.28071 -0.11738
#
# Static dielectric constant tensor:
#      x y z
#    x 2.306100 0.000000 0.022770 
#    y 0.000000 2.254650 0.000000 
#    z 0.022770 0.000000 2.346810 
# 
# From -- ./inp_files/228941.got.cif
#   From: 2010.05.17/outbox.cif.g08.bks.cpg/sg15_115_cif.got.tgz:228941.got - 2010.06.03 18:47:42.
