data_PCOD9308816
_publ_section_title
;
Structure prediction by ZEFSAII (Michael W. Deem and Ramdas Pophale) SiO2 
 PCOD9308816
Probable space group: C 2/C
;
_chemical_formula_sum "Si O2"
_cell_formula_units_Z 28
_cell_length_a 21.000000
_cell_length_b 9.000000
_cell_length_c 30.000000
_cell_angle_alpha 90.000000
_cell_angle_beta 150.000000
_cell_angle_gamma 90.000000
_cell_volume 2835.000000
_symmetry_space_group_name_H-M "C 2/C"
_symmetry_group_IT_number 15
_symmetry_cell_setting 'monoclinic'
loop_
_space_group_symop_operation_xyz
x,y,z
-x,y,1/2-z
-x,-y,-z
x,-y,1/2+z
1/2+x,1/2+y,z
1/2-x,1/2+y,1/2-z
1/2-x,1/2-y,-z
1/2+x,1/2-y,1/2+z
loop_
_atom_site_type_symbol
_atom_site_label
_atom_site_fract_x
_atom_site_fract_y
_atom_site_fract_z
Si Si1 0.301739 0.623051 0.637510
Si Si2 0.525662 0.122791 0.834269
Si Si3 0.135707 0.653295 0.675773
Si Si4 0.658400 0.877349 0.962781
Si Si5 0.000000 0.875481 0.750000
Si Si6 0.500000 0.879657 0.750000
Si Si7 0.951981 0.670128 0.968699
Si Si8 0.096349 0.695539 0.143994
O O1 0.216718 0.570515 0.544711
O O2 0.394490 0.487623 0.706000
O O3 0.384440 0.765390 0.672422
O O4 0.198045 0.670803 0.610505
O O5 0.437888 0.170025 0.822167
O O6 0.552728 0.264459 0.819853
O O7 0.642754 0.024372 0.923566
O O8 0.459962 0.993696 0.764483
O O9 0.050263 0.722634 0.583848
O O10 0.138479 0.477014 0.667269
O O11 0.278836 0.713823 0.766834
O O12 0.519615 0.807461 0.890405
O O13 0.750000 0.750000 0.000000
O O14 0.000000 0.500000 0.000000
O O15 0.034025 0.743638 0.058453
#
# Coordination Sequence:
#
# PCOD9308816 Si02
#       8
#     8   8   8   8   4   4   8   8
#     4  10  21  37  65  86 114 159 204 241 291 370
#     4  10  22  39  58  88 125 151 192 255 306 345
#     4  10  21  38  63  86 121 160 196 249 302 359
#     4  10  19  38  63  87 119 159 205 245 291 363
#     4  10  24  38  58  92 122 154 194 250 310 354
#     4  10  20  38  62  88 114 158 204 242 292 360
#     4   9  20  37  60  87 118 154 199 244 298 355
#     4   9  21  38  61  91 118 156 203 248 299 358
#
# _framework density 9.8765429999999999
#
# number of rings (size 3 to 8) (size 9 to 14) (size 15 to 20)
#    0.000    2.286    1.429    0.857    8.000    0.571 
#    0.000    0.714    0.000    0.000    0.000    0.000 
#    0.000    0.000    0.000    0.000    0.000    0.000 
#
# Total GULP energy -155949.908510 kJ/mol
# GULP energy per Si atom -5569.639590 kJ/mol
# Density = 0.985406 g / cm^3
# Si number density = 9.876543 Si / 1000 Ang^3
#
#
#
# Elastic Constant Matrix: (Units=GPa)
#
#
# Indices 1 2 3 4 5 6 
#
# 1 63.7716 6.6145 16.9104 0.0000 -15.6380 0.0000
# 2 6.6145 44.3873 -1.2494 0.0000 -1.1766 0.0000
# 3 16.9104 -1.2494 45.4981 0.0003 -6.3094 0.0000
# 4 0.0000 0.0000 0.0003 34.6329 0.0000 4.9135
# 5 -15.6380 -1.1766 -6.3094 0.0000 33.6518 0.0000
# 6 0.0000 0.0000 0.0000 4.9135 0.0000 12.5628
#
#
#
# Elastic Compliance Matrix: (Units=1/GPa)
#
#
# Indices 1 2 3 4 5 6 
#
# 1 0.019557 -0.002884 -0.006265 0.000000 0.007813 0.000000
# 2 -0.002884 0.023000 0.001673 0.000000 -0.000222 0.000000
# 3 -0.006265 0.001673 0.024597 0.000000 0.001759 0.000000
# 4 0.000000 0.000000 0.000000 0.030571 0.000000 -0.011957
# 5 0.007813 -0.000222 0.001759 0.000000 0.033669 0.000000
# 6 0.000000 0.000000 0.000000 -0.011957 0.000000 0.084277
#
#
# Mechanical properties :
#
#
# Convention : Reuss Voigt Hill
#
# Bulk Modulus (GPa) = 19.15607 22.02312 20.58959
# Shear Modulus (GPa) = 20.15947 24.92827 22.54387
#
# Velocity S-wave (km/s) = 3.19811 3.55631 3.38195
# Velocity P-wave (km/s) = 4.83280 5.29495 5.06915
#
# Compressibility (1/GPa) = 0.05220278
#
# Stress axis : x y z
#
# Youngs Moduli (GPa) = 51.13239 43.47851 40.65506
#
# Poissons Ratio (x) = 0.12538 0.25469
# Poissons Ratio (y) = 0.14745 -0.06800
# Poissons Ratio (z) = 0.32032 -0.07272
#
# Static dielectric constant tensor:
#      x y z
#    x 1.759650 0.000000 -0.081140 
#    y 0.000000 1.651780 0.000000 
#    z -0.081140 0.000000 1.728060 
# 
# From -- ./inp_files/251846.got.cif
#   From: 2010.05.17/outbox.ucp.g08.bks.cvg/sg15_126_cif.got.tgz:251846.got - 2010.06.11 12:40:34.
