data_PCOD9308147
_publ_section_title
;
Structure prediction by ZEFSAII (Michael W. Deem and Ramdas Pophale) SiO2 
 PCOD9308147
Probable space group: C 2/C
;
_chemical_formula_sum "Si O2"
_cell_formula_units_Z 36
_cell_length_a 13.292773
_cell_length_b 15.253789
_cell_length_c 9.399411
_cell_angle_alpha 90.000000
_cell_angle_beta 134.999986
_cell_angle_gamma 90.000000
_cell_volume 1347.656069
_symmetry_space_group_name_H-M "C 2/C"
_symmetry_group_IT_number 15
_symmetry_cell_setting 'monoclinic'
loop_
_space_group_symop_operation_xyz
x,y,z
-x,y,1/2-z
-x,-y,-z
x,-y,1/2+z
1/2+x,1/2+y,z
1/2-x,1/2+y,1/2-z
1/2-x,1/2-y,-z
1/2+x,1/2-y,1/2+z
loop_
_atom_site_type_symbol
_atom_site_label
_atom_site_fract_x
_atom_site_fract_y
_atom_site_fract_z
Si Si1 0.071034 0.732681 0.112177
Si Si2 0.610142 0.936393 0.029954
Si Si3 0.330188 0.313607 0.690329
Si Si4 0.500000 0.625000 0.750000
Si Si5 0.791144 0.982681 0.470109
O O1 0.216560 0.688638 0.206456
O O2 0.093142 0.808946 0.248883
O O3 0.962758 0.657507 0.054440
O O4 0.980183 0.777258 0.893930
O O5 0.739897 0.938639 0.273336
O O6 0.663748 0.972742 0.933564
O O7 0.500000 0.000000 0.000000
O O8 0.250000 0.250000 0.500000
O O9 0.341682 0.407507 0.628924
O O10 0.405741 0.558946 0.562598
#
# Coordination Sequence:
#
# PCOD9308147 Si02
#       5
#     8   8   8   4   8
#     4  12  28  50  77 114 158 201 264 317 404 473
#     4  12  26  47  78 111 148 203 262 323 379 472
#     4  12  26  47  78 111 148 203 262 323 379 472
#     4  12  32  48  76 120 166 204 240 344 420 464
#     4  12  28  50  77 114 158 201 264 317 404 473
#
# _framework density 26.713048000000001
#
# number of rings (size 3 to 8) (size 9 to 14) (size 15 to 20)
#    0.000    0.000    4.444    4.000    6.222    3.556 
#    0.000    0.000    0.000    0.000    0.000    0.000 
#    0.000    0.000    0.000    0.000    0.000    0.000 
#
# Total GULP energy -101122.464185 kJ/mol
# GULP energy per Si atom -5617.914677 kJ/mol
# Density = 2.665225 g / cm^3
# Si number density = 26.713048 Si / 1000 Ang^3
#
#
#
# Elastic Constant Matrix: (Units=GPa)
#
#
# Indices 1 2 3 4 5 6 
#
# 1 112.1252 40.0773 24.6296 0.0000 6.0370 0.0000
# 2 40.0773 177.4326 40.0775 0.0000 -0.0001 0.0000
# 3 24.6296 40.0775 112.1263 0.0000 -6.0377 0.0000
# 4 0.0000 0.0000 0.0000 50.0815 0.0000 0.0000
# 5 6.0370 -0.0001 -6.0377 0.0000 47.6695 0.0000
# 6 0.0000 0.0000 0.0000 0.0000 0.0000 50.0811
#
#
#
# Elastic Compliance Matrix: (Units=1/GPa)
#
#
# Indices 1 2 3 4 5 6 
#
# 1 0.010030 -0.001904 -0.001602 0.000000 -0.001473 0.000000
# 2 -0.001904 0.006496 -0.001904 0.000000 0.000000 0.000000
# 3 -0.001602 -0.001904 0.010030 0.000000 0.001473 0.000000
# 4 0.000000 0.000000 0.000000 0.019967 0.000000 0.000000
# 5 -0.001473 0.000000 0.001473 0.000000 0.021351 0.000000
# 6 0.000000 0.000000 0.000000 0.000000 0.000000 0.019968
#
#
# Mechanical properties :
#
#
# Convention : Reuss Voigt Hill
#
# Bulk Modulus (GPa) = 63.54291 67.91699 65.72995
# Shear Modulus (GPa) = 48.11984 49.35975 48.73979
#
# Velocity S-wave (km/s) = 4.24885 4.30324 4.27613
# Velocity P-wave (km/s) = 6.92164 7.08310 7.00284
#
# Compressibility (1/GPa) = 0.01573740
#
# Stress axis : x y z
#
# Youngs Moduli (GPa) = 99.69802 153.94251 99.69888
#
# Poissons Ratio (x) = 0.29306 0.15973
# Poissons Ratio (y) = 0.18979 0.18980
# Poissons Ratio (z) = 0.15973 0.29306
#
# Static dielectric constant tensor:
#      x y z
#    x 2.135780 0.000000 0.000000 
#    y 0.000000 1.989760 0.000000 
#    z 0.000000 0.000000 2.135770 
# 
# From -- ./inp_files/96773.got.cif
#   From: 2010.05.17/outbox.cif.g08.bks.cpg/sg15_49_cif.got.tgz:96773.got - 2010.06.03 18:47:42.
