data_PCOD9308604
_publ_section_title
;
Structure prediction by ZEFSAII (Michael W. Deem and Ramdas Pophale) SiO2 
 PCOD9308604
Probable space group: C 2/C
;
_chemical_formula_sum "Si O2"
_cell_formula_units_Z 30
_cell_length_a 15.000000
_cell_length_b 12.000000
_cell_length_c 18.000000
_cell_angle_alpha 90.000000
_cell_angle_beta 90.000000
_cell_angle_gamma 90.000000
_cell_volume 3240.000000
_symmetry_space_group_name_H-M "C 2/C"
_symmetry_group_IT_number 15
_symmetry_cell_setting 'monoclinic'
loop_
_space_group_symop_operation_xyz
x,y,z
-x,y,1/2-z
-x,-y,-z
x,-y,1/2+z
1/2+x,1/2+y,z
1/2-x,1/2+y,1/2-z
1/2-x,1/2-y,-z
1/2+x,1/2-y,1/2+z
loop_
_atom_site_type_symbol
_atom_site_label
_atom_site_fract_x
_atom_site_fract_y
_atom_site_fract_z
Si Si1 0.863534 0.351092 0.178500
Si Si2 0.825844 0.966800 0.134195
Si Si3 0.301281 0.486495 0.813185
Si Si4 0.517970 0.596170 0.665111
Si Si5 0.225599 0.188786 0.424852
Si Si6 0.500000 0.992664 0.250000
Si Si7 0.240560 0.260124 0.186942
Si Si8 0.116078 0.691012 0.193187
O O1 0.783074 0.438044 0.166638
O O2 0.852606 0.257005 0.116873
O O3 0.955166 0.415897 0.187602
O O4 0.838422 0.297321 0.258007
O O5 0.810955 0.009972 0.221378
O O6 0.801472 0.060528 0.075317
O O7 0.764343 0.857620 0.130644
O O8 0.928867 0.935465 0.123466
O O9 0.388730 0.537025 0.851547
O O10 0.283289 0.362000 0.839338
O O11 0.500000 0.561669 0.750000
O O12 0.537306 0.727719 0.667670
O O13 0.250000 0.250000 0.500000
O O14 0.311557 0.188460 0.371272
O O15 0.576473 0.073144 0.217306
O O16 0.329968 0.246486 0.238192
#
# Coordination Sequence:
#
# PCOD9308604 Si02
#       8
#     8   8   8   8   8   4   8   8
#     4  10  20  31  51  84 110 140 178 222 281 325
#     4  10  18  31  51  82 103 138 181 224 269 319
#     4  10  16  30  52  81 116 131 165 231 289 324
#     4  10  17  27  52  84 111 129 166 223 283 327
#     4  11  23  41  56  70 111 164 191 204 257 348
#     4  12  20  30  58  94 114 126 174 250 292 318
#     4  10  16  31  51  79 113 137 169 224 286 328
#     4  11  17  33  55  85 110 145 173 217 288 332
#
# _framework density 9.2592590000000001
#
# number of rings (size 3 to 8) (size 9 to 14) (size 15 to 20)
#    0.000    1.600   10.000    0.800    0.000    1.067 
#    0.000    1.333    0.000    0.800    0.000    0.000 
#    0.000    0.000    0.000    0.000    0.000    0.000 
#
# Total GULP energy -167196.281272 kJ/mol
# GULP energy per Si atom -5573.209376 kJ/mol
# Density = 0.923818 g / cm^3
# Si number density = 9.259259 Si / 1000 Ang^3
#
#
#
# Elastic Constant Matrix: (Units=GPa)
#
#
# Indices 1 2 3 4 5 6 
#
# 1 44.1251 10.9041 3.1646 0.0000 3.0921 0.0000
# 2 10.9041 95.0651 -2.8199 0.0000 1.8626 0.0000
# 3 3.1646 -2.8199 4.0172 0.0000 -0.5522 0.0000
# 4 0.0000 0.0000 0.0000 -4.5527 0.0000 4.5701
# 5 3.0921 1.8626 -0.5522 0.0000 4.1202 0.0000
# 6 0.0000 0.0000 0.0000 4.5701 0.0000 37.4414
#
#
#
# Elastic Compliance Matrix: (Units=1/GPa)
#
#
# Indices 1 2 3 4 5 6 
#
# 1 0.026997 -0.003454 -0.026755 0.000000 -0.022285 0.000000
# 2 -0.003454 0.011247 0.010466 0.000000 -0.001090 0.000000
# 3 -0.026755 0.010466 0.284708 0.000000 0.053507 0.000000
# 4 0.000000 0.000000 0.000000 -0.195675 0.000000 0.023884
# 5 -0.022285 -0.001090 0.053507 0.000000 0.267098 0.000000
# 6 0.000000 0.000000 0.000000 0.023884 0.000000 0.023793
#
#
# Mechanical properties :
#
#
# Convention : Reuss Voigt Hill
#
# Bulk Modulus (GPa) = 3.52775 18.41167 10.96971
# Shear Modulus (GPa) = 9.05564 16.19901 12.62732
#
# Velocity S-wave (km/s) = 2.21374 2.96082 2.61411
# Velocity P-wave (km/s) = 2.90574 4.65322 3.87916
#
# Compressibility (1/GPa) = 0.28346658
#
# Stress axis : x y z
#
# Youngs Moduli (GPa) = 37.04149 88.91241 3.51237
#
# Poissons Ratio (x) = 0.30706 0.09397
# Poissons Ratio (y) = 0.12792 -0.03676
# Poissons Ratio (z) = 0.99103 -0.93053
#
# Static dielectric constant tensor:
#      x y z
#    x 1.668260 0.000000 -0.010240 
#    y 0.000000 1.694180 0.000000 
#    z -0.010240 0.000000 1.633150 
# 
# From -- ./inp_files/204061.got.cif
#   From: 2010.05.17/outbox.ucp.g08.bks.cvg/sg15_103_cif.got.tgz:204061.got - 2010.06.11 12:40:34.
