data_PCOD9308587
_publ_section_title
;
Structure prediction by ZEFSAII (Michael W. Deem and Ramdas Pophale) SiO2 
 PCOD9308587
Probable space group: C 2/C
;
_chemical_formula_sum "Si O2"
_cell_formula_units_Z 48
_cell_length_a 9.405724
_cell_length_b 10.255598
_cell_length_c 27.578740
_cell_angle_alpha 90.000000
_cell_angle_beta 108.293081
_cell_angle_gamma 90.000000
_cell_volume 2525.840154
_symmetry_space_group_name_H-M "C 2/C"
_symmetry_group_IT_number 15
_symmetry_cell_setting 'monoclinic'
loop_
_space_group_symop_operation_xyz
x,y,z
-x,y,1/2-z
-x,-y,-z
x,-y,1/2+z
1/2+x,1/2+y,z
1/2-x,1/2+y,1/2-z
1/2-x,1/2-y,-z
1/2+x,1/2-y,1/2+z
loop_
_atom_site_type_symbol
_atom_site_label
_atom_site_fract_x
_atom_site_fract_y
_atom_site_fract_z
Si Si1 0.616434 0.308986 0.516737
Si Si2 0.463552 0.459869 0.634749
Si Si3 0.827663 0.037428 0.714768
Si Si4 0.367307 0.720732 0.271748
Si Si5 0.127544 0.746500 0.944543
Si Si6 0.351037 0.426980 0.422531
O O1 0.750000 0.250000 0.500000
O O2 0.530720 0.217042 0.546604
O O3 0.485415 0.356343 0.466256
O O4 0.669800 0.433939 0.553309
O O5 0.344829 0.522172 0.658712
O O6 0.730876 0.158282 0.721969
O O7 0.387171 0.388338 0.581226
O O8 0.587240 0.555238 0.625045
O O9 0.783725 0.898237 0.734341
O O10 0.000000 0.057102 0.750000
O O11 0.052460 0.849456 0.674244
O O12 0.500000 0.764550 0.250000
O O13 0.196978 0.650765 0.912207
O O14 0.250000 0.750000 0.000000
#
# Coordination Sequence:
#
# PCOD9308587 Si02
#       6
#     8   8   8   8   8   8
#     4   9  18  32  50  70  96 137 183 223 263 308
#     4   9  19  33  54  80 108 140 178 223 270 321
#     4   9  20  38  59  80 107 140 177 222 275 331
#     4   9  20  38  58  83 112 141 177 224 276 332
#     4   9  18  34  52  73 106 145 181 220 263 308
#     4   9  18  33  49  69 103 137 172 220 266 310
#
# _framework density 19.003577
#
# number of rings (size 3 to 8) (size 9 to 14) (size 15 to 20)
#    0.000    3.333    0.000    1.000    0.000    9.333 
#    0.000    3.333    0.000    0.000    0.000    0.000 
#    0.000    0.000    0.000    0.000    0.000    0.000 
#
# Total GULP energy -133649.121185 kJ/mol
# GULP energy per Si atom -5568.713383 kJ/mol
# Density = 1.896032 g / cm^3
# Si number density = 19.003577 Si / 1000 Ang^3
#
#
#
# Elastic Constant Matrix: (Units=GPa)
#
#
# Indices 1 2 3 4 5 6 
#
# 1 118.9620 80.9620 26.4882 0.0000 -43.4177 0.0000
# 2 80.9620 93.4936 19.3038 0.0000 -35.0608 0.0000
# 3 26.4882 19.3038 60.7163 0.0000 -29.6367 0.0000
# 4 0.0000 0.0000 0.0000 15.0131 0.0000 -15.0140
# 5 -43.4177 -35.0608 -29.6367 0.0000 31.2883 0.0000
# 6 0.0000 0.0000 0.0000 -15.0140 0.0000 48.8791
#
#
#
# Elastic Compliance Matrix: (Units=1/GPa)
#
#
# Indices 1 2 3 4 5 6 
#
# 1 0.026269 -0.014186 0.005736 0.000000 0.025988 0.000000
# 2 -0.014186 0.028373 0.005726 0.000000 0.017532 0.000000
# 3 0.005736 0.005726 0.035644 0.000000 0.048138 0.000000
# 4 0.000000 0.000000 0.000000 0.096141 0.000000 0.029531
# 5 0.025988 0.017532 0.048138 0.000000 0.133267 0.000000
# 6 0.000000 0.000000 0.000000 0.029531 0.000000 0.029530
#
#
# Mechanical properties :
#
#
# Convention : Reuss Voigt Hill
#
# Bulk Modulus (GPa) = 11.78737 58.52001 35.15369
# Shear Modulus (GPa) = 13.05646 28.79729 20.92688
#
# Velocity S-wave (km/s) = 2.62401 3.89699 3.32204
# Velocity P-wave (km/s) = 3.92387 7.14911 5.76656
#
# Compressibility (1/GPa) = 0.08483656
#
# Stress axis : x y z
#
# Youngs Moduli (GPa) = 38.06839 35.24496 28.05485
#
# Poissons Ratio (x) = 0.49998 -0.16091
# Poissons Ratio (y) = 0.54004 -0.16063
# Poissons Ratio (z) = -0.21835 -0.20180
#
# Static dielectric constant tensor:
#      x y z
#    x 1.613290 0.000000 -0.101480 
#    y 0.000000 1.676080 0.000000 
#    z -0.101480 0.000000 1.636030 
# 
# From -- ./inp_files/287385.got.cif
#   From: 2010.05.17/outbox.cif.g08.bks.cpg/sg15_144_cif.got.tgz:287385.got - 2010.06.03 18:47:42.
