data_PCOD9308464
_publ_section_title
;
Structure prediction by ZEFSAII (Michael W. Deem and Ramdas Pophale) SiO2 
 PCOD9308464
Probable space group: C 2/C
;
_chemical_formula_sum "Si O2"
_cell_formula_units_Z 48
_cell_length_a 14.678931
_cell_length_b 24.576186
_cell_length_c 17.903617
_cell_angle_alpha 90.000000
_cell_angle_beta 157.940273
_cell_angle_gamma 90.000000
_cell_volume 2425.738380
_symmetry_space_group_name_H-M "C 2/C"
_symmetry_group_IT_number 15
_symmetry_cell_setting 'monoclinic'
loop_
_space_group_symop_operation_xyz
x,y,z
-x,y,1/2-z
-x,-y,-z
x,-y,1/2+z
1/2+x,1/2+y,z
1/2-x,1/2+y,1/2-z
1/2-x,1/2-y,-z
1/2+x,1/2-y,1/2+z
loop_
_atom_site_type_symbol
_atom_site_label
_atom_site_fract_x
_atom_site_fract_y
_atom_site_fract_z
Si Si1 0.598524 0.471975 0.429981
Si Si2 0.519026 0.022078 0.141061
Si Si3 0.877859 0.080512 0.317191
Si Si4 0.239146 0.588003 0.753703
Si Si5 0.583111 0.686551 0.419964
Si Si6 0.022501 0.691728 0.650830
O O1 0.121169 0.564292 0.157853
O O2 0.469367 0.530367 0.337078
O O3 0.399047 0.427727 0.303046
O O4 0.756104 0.466453 0.475160
O O5 0.556691 0.961547 0.135995
O O6 0.705122 0.026204 0.352629
O O7 0.063754 0.084949 0.528708
O O8 0.906135 0.136124 0.294794
O O9 0.108651 0.646478 0.657219
O O10 0.796168 0.679776 0.643013
O O11 0.454925 0.743424 0.343070
O O12 0.742670 0.687142 0.465413
#
# Coordination Sequence:
#
# PCOD9308464 Si02
#       6
#     8   8   8   8   8   8
#     4   8  12  18  30  49  71  92 114 143 179 215
#     4   8  12  18  30  49  71  92 114 143 179 215
#     4   8  13  20  31  49  72  94 114 141 179 215
#     4   8  13  20  31  49  72  94 114 141 179 215
#     4   9  16  25  37  53  73  96 120 146 176 209
#     4   9  16  25  37  53  73  96 120 146 176 209
#
# _framework density 19.787789
#
# number of rings (size 3 to 8) (size 9 to 14) (size 15 to 20)
#    0.000    3.667    0.000    3.000    0.000    4.000 
#    0.000    0.000    0.000    1.000    0.000    4.667 
#    0.000    2.667    0.000    0.000    0.000    0.000 
#
# Total GULP energy -133877.149927 kJ/mol
# GULP energy per Si atom -5578.214580 kJ/mol
# Density = 1.974275 g / cm^3
# Si number density = 19.787789 Si / 1000 Ang^3
#
#
#
# Elastic Constant Matrix: (Units=GPa)
#
#
# Indices 1 2 3 4 5 6 
#
# 1 78.6528 59.6919 38.9697 -0.0012 32.2961 -0.0006
# 2 59.6919 175.5723 50.2816 -0.0006 56.1971 -0.0010
# 3 38.9697 50.2816 110.3177 -0.0051 25.4785 -0.0061
# 4 -0.0012 -0.0006 -0.0051 -1.2460 -0.0011 -10.5998
# 5 32.2961 56.1971 25.4785 -0.0011 51.6284 0.0000
# 6 -0.0006 -0.0010 -0.0061 -10.5998 0.0000 10.7478
#
#
#
# Elastic Compliance Matrix: (Units=1/GPa)
#
#
# Indices 1 2 3 4 5 6 
#
# 1 0.020146 -0.003547 -0.003929 0.000002 -0.006803 0.000000
# 2 -0.003547 0.009782 -0.001421 0.000001 -0.007728 0.000001
# 3 -0.003929 -0.001421 0.011484 -0.000010 -0.001663 -0.000004
# 4 0.000002 0.000001 -0.000010 -0.085471 0.000000 -0.084294
# 5 -0.006803 -0.007728 -0.001663 0.000000 0.032857 -0.000002
# 6 0.000000 0.000001 -0.000004 -0.084294 -0.000002 0.009908
#
#
# Mechanical properties :
#
#
# Convention : Reuss Voigt Hill
#
# Bulk Modulus (GPa) = 42.33834 73.60324 57.97079
# Shear Modulus (GPa) = 205.15554 26.59935 115.87745
#
# Velocity S-wave (km/s) = 10.19328 3.67035 7.66076
# Velocity P-wave (km/s) = 12.64832 7.43230 10.37350
#
# Compressibility (1/GPa) = 0.02361925
#
# Stress axis : x y z
#
# Youngs Moduli (GPa) = 49.63853 102.23014 87.07531
#
# Poissons Ratio (x) = 0.36257 0.34210
# Poissons Ratio (y) = 0.17605 0.12372
# Poissons Ratio (z) = 0.19502 0.14525
#
# Static dielectric constant tensor:
#      x y z
#    x 1.745450 0.000000 -0.073940 
#    y 0.000000 1.668850 0.000000 
#    z -0.073940 0.000000 1.771270 
# 
# From -- ./inp_files/299442.got.cif
#   From: 2010.05.17/outbox.cif.g08.bks.cpg/sg15_150_cif.got.tgz:299442.got - 2010.06.03 18:47:42.
