data_PCOD9308556
_publ_section_title
;
Structure prediction by ZEFSAII (Michael W. Deem and Ramdas Pophale) SiO2 
 PCOD9308556
Probable space group: C 2/C
;
_chemical_formula_sum "Si O2"
_cell_formula_units_Z 40
_cell_length_a 7.831494
_cell_length_b 13.732137
_cell_length_c 13.108673
_cell_angle_alpha 90.000000
_cell_angle_beta 101.045006
_cell_angle_gamma 90.000000
_cell_volume 1383.635205
_symmetry_space_group_name_H-M "C 2/C"
_symmetry_group_IT_number 15
_symmetry_cell_setting 'monoclinic'
loop_
_space_group_symop_operation_xyz
x,y,z
-x,y,1/2-z
-x,-y,-z
x,-y,1/2+z
1/2+x,1/2+y,z
1/2-x,1/2+y,1/2-z
1/2-x,1/2-y,-z
1/2+x,1/2-y,1/2+z
loop_
_atom_site_type_symbol
_atom_site_label
_atom_site_fract_x
_atom_site_fract_y
_atom_site_fract_z
Si Si1 0.189473 0.848835 0.317620
Si Si2 0.460744 0.229946 0.588645
Si Si3 0.164113 0.390042 0.963184
Si Si4 0.815825 0.911112 0.467641
Si Si5 0.656376 0.455273 0.702453
O O1 0.367398 0.787280 0.325725
O O2 0.189735 0.846463 0.442563
O O3 0.232704 0.959285 0.283678
O O4 0.000000 0.822510 0.250000
O O5 0.502720 0.171890 0.485724
O O6 0.297024 0.168197 0.608310
O O7 0.410011 0.339906 0.556888
O O8 0.181976 0.505064 0.988973
O O9 0.206915 0.391275 0.847077
O O10 0.920581 0.977136 0.398362
O O11 0.500000 0.411737 0.750000
#
# Coordination Sequence:
#
# PCOD9308556 Si02
#       5
#     8   8   8   8   8
#     4   9  19  35  60  94 134 187 251 302 375 443
#     4   9  18  36  65  91 136 192 241 307 384 438
#     4   8  19  35  64  92 137 187 246 302 371 460
#     4   9  18  36  65  92 138 185 245 310 369 451
#     4   9  19  35  60  93 135 185 248 304 366 443
#
# _framework density 28.909352999999999
#
# number of rings (size 3 to 8) (size 9 to 14) (size 15 to 20)
#    2.400    0.800    0.000    0.600    0.000    4.000 
#    0.000    4.000   17.600    0.000    0.000    0.000 
#    0.000    0.000    0.000   12.000    0.000    5.200 
#
# Total GULP energy -111370.958572 kJ/mol
# GULP energy per Si atom -5568.547929 kJ/mol
# Density = 2.884355 g / cm^3
# Si number density = 28.909353 Si / 1000 Ang^3
#
#
#
# Elastic Constant Matrix: (Units=GPa)
#
#
# Indices 1 2 3 4 5 6 
#
# 1 121.4537 44.2030 43.7410 0.0000 9.3193 0.0000
# 2 44.2030 149.5921 61.2666 0.0000 -8.1422 0.0000
# 3 43.7410 61.2666 154.1124 0.0000 -7.3281 0.0000
# 4 0.0000 0.0000 0.0000 31.1440 0.0000 -3.3716
# 5 9.3193 -8.1422 -7.3281 0.0000 45.8224 0.0000
# 6 0.0000 0.0000 0.0000 -3.3716 0.0000 51.7396
#
#
#
# Elastic Compliance Matrix: (Units=1/GPa)
#
#
# Indices 1 2 3 4 5 6 
#
# 1 0.010017 -0.002260 -0.002076 0.000000 -0.002771 0.000000
# 2 -0.002260 0.008534 -0.002677 0.000000 0.001548 0.000000
# 3 -0.002076 -0.002677 0.008202 0.000000 0.001258 0.000000
# 4 0.000000 0.000000 0.000000 0.032337 0.000000 0.002107
# 5 -0.002771 0.001548 0.001258 0.000000 0.022863 0.000000
# 6 0.000000 0.000000 0.000000 0.002107 0.000000 0.019465
#
#
# Mechanical properties :
#
#
# Convention : Reuss Voigt Hill
#
# Bulk Modulus (GPa) = 78.58697 80.39769 79.49233
# Shear Modulus (GPa) = 41.77583 44.13771 42.95677
#
# Velocity S-wave (km/s) = 3.80552 3.91162 3.85894
# Velocity P-wave (km/s) = 6.82292 6.94778 6.88564
#
# Compressibility (1/GPa) = 0.01272476
#
# Stress axis : x y z
#
# Youngs Moduli (GPa) = 99.83485 117.18510 121.91830
#
# Poissons Ratio (x) = 0.26487 0.25312
# Poissons Ratio (y) = 0.22566 0.32641
# Poissons Ratio (z) = 0.20727 0.31374
#
# Static dielectric constant tensor:
#      x y z
#    x 2.321230 0.000000 -0.056730 
#    y 0.000000 2.325450 0.000000 
#    z -0.056730 0.000000 2.347180 
# 
# From -- ./inp_files/76837.got.cif
#   From: 2010.05.17/outbox.cif.g08.bks.cpg/sg15_39_cif.got.tgz:76837.got - 2010.06.03 18:47:42.
