data_PCOD9308717
_publ_section_title
;
Structure prediction by ZEFSAII (Michael W. Deem and Ramdas Pophale) SiO2 
 PCOD9308717
Probable space group: C 2/C
;
_chemical_formula_sum "Si O2"
_cell_formula_units_Z 28
_cell_length_a 15.000000
_cell_length_b 30.000000
_cell_length_c 15.000000
_cell_angle_alpha 90.000000
_cell_angle_beta 150.000000
_cell_angle_gamma 90.000000
_cell_volume 3375.000000
_symmetry_space_group_name_H-M "C 2/C"
_symmetry_group_IT_number 15
_symmetry_cell_setting 'monoclinic'
loop_
_space_group_symop_operation_xyz
x,y,z
-x,y,1/2-z
-x,-y,-z
x,-y,1/2+z
1/2+x,1/2+y,z
1/2-x,1/2+y,1/2-z
1/2-x,1/2-y,-z
1/2+x,1/2-y,1/2+z
loop_
_atom_site_type_symbol
_atom_site_label
_atom_site_fract_x
_atom_site_fract_y
_atom_site_fract_z
Si Si1 0.664861 0.223716 0.843153
Si Si2 0.980110 0.421920 0.839248
Si Si3 0.981666 0.184953 0.341511
Si Si4 0.767781 0.929446 0.227892
Si Si5 0.892930 0.523548 0.746748
Si Si6 0.118360 0.101425 0.130891
Si Si7 0.480327 0.515902 0.339188
O O1 0.500000 0.200013 0.750000
O O2 0.604494 0.265008 0.728558
O O3 0.750000 0.250000 0.000000
O O4 0.818655 0.190819 0.945908
O O5 0.979126 0.476085 0.846156
O O6 0.794321 0.404309 0.721543
O O7 0.000000 0.411979 0.750000
O O8 0.148939 0.407721 0.046454
O O9 0.883113 0.146479 0.310839
O O10 0.000000 0.174502 0.250000
O O11 0.630320 0.943591 0.188796
O O12 0.934356 0.901907 0.413710
O O13 0.865739 0.973624 0.272679
O O14 0.686003 0.512293 0.547430
O O15 0.000000 0.539562 0.750000
O O16 0.103093 0.059456 0.185859
O O17 0.500000 0.519484 0.250000
#
# Coordination Sequence:
#
# PCOD9308717 Si02
#       7
#     8   8   8   8   8   8   8
#     4   7  13  29  54  76 102 142 172 193 246 331
#     4  11  22  36  55  70  97 143 189 233 268 308
#     4   9  17  34  54  82 114 145 170 210 262 327
#     4  11  22  37  50  75 104 146 192 226 271 318
#     4  10  19  33  51  72  98 139 190 226 269 319
#     4  11  22  36  49  82 113 134 181 234 268 315
#     4  11  20  33  52  72 107 152 186 229 271 309
#
# _framework density 8.2962959999999999
#
# number of rings (size 3 to 8) (size 9 to 14) (size 15 to 20)
#    0.000    2.286    2.857    3.429    2.000    0.000 
#    7.714    0.714    0.000    0.000    0.000    1.000 
#    0.000    0.000    0.000    0.000    0.000    0.000 
#
# Total GULP energy -155928.592182 kJ/mol
# GULP energy per Si atom -5568.878292 kJ/mol
# Density = 0.827741 g / cm^3
# Si number density = 8.296296 Si / 1000 Ang^3
#
#
#
# Elastic Constant Matrix: (Units=GPa)
#
#
# Indices 1 2 3 4 5 6 
#
# 1 134.0408 28.7238 35.3430 0.0000 5.7152 0.0000
# 2 28.7238 43.9997 13.6258 0.0000 3.7090 0.0000
# 3 35.3430 13.6258 75.0476 0.0000 -2.9624 0.0000
# 4 0.0000 0.0000 0.0000 14.0014 0.0000 0.7329
# 5 5.7152 3.7090 -2.9624 0.0000 31.3407 0.0000
# 6 0.0000 0.0000 0.0000 0.7329 0.0000 24.8189
#
#
#
# Elastic Compliance Matrix: (Units=1/GPa)
#
#
# Indices 1 2 3 4 5 6 
#
# 1 0.009555 -0.004980 -0.003655 0.000000 -0.001499 0.000000
# 2 -0.004980 0.027016 -0.002660 0.000000 -0.002541 0.000000
# 3 -0.003655 -0.002660 0.015626 0.000000 0.002458 0.000000
# 4 0.000000 0.000000 0.000000 0.071532 0.000000 -0.002112
# 5 -0.001499 -0.002541 0.002458 0.000000 0.032714 0.000000
# 6 0.000000 0.000000 0.000000 -0.002112 0.000000 0.040354
#
#
# Mechanical properties :
#
#
# Convention : Reuss Voigt Hill
#
# Bulk Modulus (GPa) = 33.77485 45.38592 39.58038
# Shear Modulus (GPa) = 21.80967 25.72526 23.76746
#
# Velocity S-wave (km/s) = 3.62943 3.94179 3.78883
# Velocity P-wave (km/s) = 6.16143 6.93754 6.56097
#
# Compressibility (1/GPa) = 0.02960783
#
# Stress axis : x y z
#
# Youngs Moduli (GPa) = 104.65621 37.01488 63.99519
#
# Poissons Ratio (x) = 0.18432 0.23390
# Poissons Ratio (y) = 0.52114 0.17025
# Poissons Ratio (z) = 0.38251 0.09847
#
# Static dielectric constant tensor:
#      x y z
#    x 1.574420 0.000000 0.006450 
#    y 0.000000 1.555520 0.000000 
#    z 0.006450 0.000000 1.657110 
# 
# From -- ./inp_files/157471.got.cif
#   From: 2010.05.17/outbox.ucp.g08.bks.cvg/sg15_79_cif.got.tgz:157471.got - 2010.06.11 12:40:34.
