data_PCOD9308395
_publ_section_title
;
Structure prediction by ZEFSAII (Michael W. Deem and Ramdas Pophale) SiO2 
 PCOD9308395
Probable space group: C 2/C
;
_chemical_formula_sum "Si O2"
_cell_formula_units_Z 28
_cell_length_a 8.526587
_cell_length_b 5.060387
_cell_length_c 28.604618
_cell_angle_alpha 90.000000
_cell_angle_beta 116.159868
_cell_angle_gamma 90.000000
_cell_volume 1107.802089
_symmetry_space_group_name_H-M "C 2/C"
_symmetry_group_IT_number 15
_symmetry_cell_setting 'monoclinic'
loop_
_space_group_symop_operation_xyz
x,y,z
-x,y,1/2-z
-x,-y,-z
x,-y,1/2+z
1/2+x,1/2+y,z
1/2-x,1/2+y,1/2-z
1/2-x,1/2-y,-z
1/2+x,1/2-y,1/2+z
loop_
_atom_site_type_symbol
_atom_site_label
_atom_site_fract_x
_atom_site_fract_y
_atom_site_fract_z
Si Si1 0.000000 0.815469 0.250000
Si Si2 0.327694 0.849329 0.461879
Si Si3 0.161454 0.388368 0.679183
Si Si4 0.972120 0.887131 0.890821
O O1 0.143331 0.999783 0.293607
O O2 0.905974 0.640626 0.276773
O O3 0.250000 0.750000 0.500000
O O4 0.389962 0.638397 0.431688
O O5 0.500000 0.000000 0.500000
O O6 0.673229 0.524656 0.419329
O O7 0.049635 0.602851 0.635984
O O8 0.135324 0.105500 0.651937
#
# Coordination Sequence:
#
# PCOD9308395 Si02
#       4
#     4   8   8   8
#     4  12  30  52  80 116 156 204 258 318 384 456
#     4  12  28  50  78 114 154 202 255 316 382 455
#     4  12  30  52  80 115 156 204 257 318 384 457
#     4  12  29  52  80 115 156 204 257 317 384 457
#
# _framework density 25.275272999999999
#
# number of rings (size 3 to 8) (size 9 to 14) (size 15 to 20)
#    0.000    0.000    0.000    6.857    0.000   30.857 
#    0.000    0.000    0.000    0.000    0.000    0.000 
#    0.000    0.000    0.000    0.000    0.000    0.000 
#
# Total GULP energy -78742.103371 kJ/mol
# GULP energy per Si atom -5624.435955 kJ/mol
# Density = 2.521775 g / cm^3
# Si number density = 25.275273 Si / 1000 Ang^3
#
#
#
# Elastic Constant Matrix: (Units=GPa)
#
#
# Indices 1 2 3 4 5 6 
#
# 1 132.8082 20.9146 32.5845 0.0000 20.4415 0.0000
# 2 20.9146 71.2261 8.2162 0.0000 -18.8619 0.0000
# 3 32.5845 8.2162 95.0954 0.0000 2.4621 0.0000
# 4 0.0000 0.0000 0.0000 38.4486 0.0000 -11.2247
# 5 20.4415 -18.8619 2.4621 0.0000 51.2297 0.0000
# 6 0.0000 0.0000 0.0000 -11.2247 0.0000 53.7603
#
#
#
# Elastic Compliance Matrix: (Units=1/GPa)
#
#
# Indices 1 2 3 4 5 6 
#
# 1 0.009619 -0.003854 -0.002830 0.000000 -0.005121 0.000000
# 2 -0.003854 0.017316 -0.000381 0.000000 0.007932 0.000000
# 3 -0.002830 -0.000381 0.011507 0.000000 0.000436 0.000000
# 4 0.000000 0.000000 0.000000 0.027697 0.000000 0.005783
# 5 -0.005121 0.007932 0.000436 0.000000 0.024463 0.000000
# 6 0.000000 0.000000 0.000000 0.005783 0.000000 0.019809
#
#
# Mechanical properties :
#
#
# Convention : Reuss Voigt Hill
#
# Bulk Modulus (GPa) = 41.13293 46.95113 44.04203
# Shear Modulus (GPa) = 37.69445 44.51537 41.10491
#
# Velocity S-wave (km/s) = 3.86600 4.20124 4.03710
# Velocity P-wave (km/s) = 6.01974 6.49232 6.26049
#
# Compressibility (1/GPa) = 0.02431142
#
# Stress axis : x y z
#
# Youngs Moduli (GPa) = 103.95721 57.75036 86.90196
#
# Poissons Ratio (x) = 0.22259 0.24597
# Poissons Ratio (y) = 0.40068 0.03309
# Poissons Ratio (z) = 0.29425 0.02199
#
# Static dielectric constant tensor:
#      x y z
#    x 1.913670 0.000000 -0.014300 
#    y 0.000000 1.937570 0.000000 
#    z -0.014300 0.000000 1.972030 
# 
# From -- ./inp_files/266825.got.cif
#   From: 2010.05.17/outbox.cif.g08.bks.cpg/sg15_134_cif.got.tgz:266825.got - 2010.06.03 18:47:42.
