data_PCOD9308919
_publ_section_title
;
Structure prediction by ZEFSAII (Michael W. Deem and Ramdas Pophale) SiO2 
 PCOD9308919
Probable space group: C 2/C
;
_chemical_formula_sum "Si O2"
_cell_formula_units_Z 24
_cell_length_a 18.000000
_cell_length_b 9.000000
_cell_length_c 30.000000
_cell_angle_alpha 90.000000
_cell_angle_beta 30.000000
_cell_angle_gamma 90.000000
_cell_volume 2430.000000
_symmetry_space_group_name_H-M "C 2/C"
_symmetry_group_IT_number 15
_symmetry_cell_setting 'monoclinic'
loop_
_space_group_symop_operation_xyz
x,y,z
-x,y,1/2-z
-x,-y,-z
x,-y,1/2+z
1/2+x,1/2+y,z
1/2-x,1/2+y,1/2-z
1/2-x,1/2-y,-z
1/2+x,1/2-y,1/2+z
loop_
_atom_site_type_symbol
_atom_site_label
_atom_site_fract_x
_atom_site_fract_y
_atom_site_fract_z
Si Si1 0.184704 0.532114 0.570951
Si Si2 0.334766 0.063515 0.589519
Si Si3 0.845000 0.476951 0.754032
Si Si4 0.799905 0.649131 0.031254
Si Si5 0.154238 0.311349 0.327700
Si Si6 0.849353 0.083448 0.063820
O O1 0.217509 0.540456 0.501724
O O2 0.198951 0.704913 0.578947
O O3 0.309732 0.449461 0.533775
O O4 0.023410 0.459788 0.663016
O O5 0.285807 0.071643 0.666313
O O6 0.343265 0.238289 0.572457
O O7 0.500000 0.000000 0.500000
O O8 0.257327 0.948534 0.596393
O O9 0.827533 0.617543 0.730296
O O10 0.748570 0.339179 0.784248
O O11 0.777338 0.488340 0.838595
O O12 0.976340 0.701025 0.933508
O O13 0.000000 0.000000 0.000000
#
# Coordination Sequence:
#
# PCOD9308919 Si02
#       6
#     8   8   8   8   8   8
#     4  10  20  36  57  84 115 147 188 238 283 332
#     4   9  18  35  57  81 109 146 191 231 273 338
#     4  10  21  36  56  83 116 148 186 234 281 336
#     4   9  19  37  59  83 114 149 188 233 283 341
#     4   9  19  36  57  83 114 149 187 230 282 338
#     4  11  22  36  58  84 113 150 192 235 285 342
#
# _framework density 9.8765429999999999
#
# number of rings (size 3 to 8) (size 9 to 14) (size 15 to 20)
#    0.000    2.333    0.000    3.500    0.000    6.000 
#    0.000    5.000    0.000    6.000    0.000    0.000 
#    0.000    0.000    0.000    0.000    0.000    0.000 
#
# Total GULP energy -133662.521281 kJ/mol
# GULP energy per Si atom -5569.271720 kJ/mol
# Density = 0.985406 g / cm^3
# Si number density = 9.876543 Si / 1000 Ang^3
#
#
#
# Elastic Constant Matrix: (Units=GPa)
#
#
# Indices 1 2 3 4 5 6 
#
# 1 70.5007 -1.9396 0.9609 0.0000 -12.5901 -0.0004
# 2 -1.9396 31.5994 11.9619 0.0000 -5.8158 -0.0008
# 3 0.9609 11.9619 38.0420 -0.0002 -7.5344 0.0000
# 4 0.0000 0.0000 -0.0002 29.2513 0.0000 -1.5589
# 5 -12.5901 -5.8158 -7.5344 0.0000 23.1631 0.0000
# 6 -0.0004 -0.0008 0.0000 -1.5589 0.0000 44.9656
#
#
#
# Elastic Compliance Matrix: (Units=1/GPa)
#
#
# Indices 1 2 3 4 5 6 
#
# 1 0.015941 0.002462 0.000707 0.000000 0.009513 0.000000
# 2 0.002462 0.037024 -0.010259 0.000000 0.007297 0.000001
# 3 0.000707 -0.010259 0.031062 0.000000 0.007912 0.000000
# 4 0.000000 0.000000 0.000000 0.034250 0.000000 0.001187
# 5 0.009513 0.007297 0.007912 0.000000 0.052749 0.000000
# 6 0.000000 0.000001 0.000000 0.001187 0.000000 0.022280
#
#
# Mechanical properties :
#
#
# Convention : Reuss Voigt Hill
#
# Bulk Modulus (GPa) = 14.31702 18.01206 16.16454
# Shear Modulus (GPa) = 21.66688 28.08660 24.87674
#
# Velocity S-wave (km/s) = 3.31552 3.77488 3.55263
# Velocity P-wave (km/s) = 4.68195 5.30453 5.00293
#
# Compressibility (1/GPa) = 0.06984692
#
# Stress axis : x y z
#
# Youngs Moduli (GPa) = 62.73074 27.00977 32.19405
#
# Poissons Ratio (x) = -0.06648 -0.02277
# Poissons Ratio (y) = -0.15441 0.33027
# Poissons Ratio (z) = -0.04438 0.27708
#
# Static dielectric constant tensor:
#      x y z
#    x 1.818000 0.000000 -0.003250 
#    y 0.000000 1.686260 0.000000 
#    z -0.003250 0.000000 1.669790 
# 
# From -- ./inp_files/213711.got.cif
#   From: 2010.05.17/outbox.ucp.g08.bks.cvg/sg15_107_cif.got.tgz:213711.got - 2010.06.11 12:40:34.
