data_PCOD9308423
_publ_section_title
;
Structure prediction by ZEFSAII (Michael W. Deem and Ramdas Pophale) SiO2 
 PCOD9308423
Probable space group: C 2/C
;
_chemical_formula_sum "Si O2"
_cell_formula_units_Z 20
_cell_length_a 11.382653
_cell_length_b 10.278860
_cell_length_c 8.048755
_cell_angle_alpha 90.000000
_cell_angle_beta 134.999978
_cell_angle_gamma 90.000000
_cell_volume 665.889742
_symmetry_space_group_name_H-M "C 2/C"
_symmetry_group_IT_number 15
_symmetry_cell_setting 'monoclinic'
loop_
_space_group_symop_operation_xyz
x,y,z
-x,y,1/2-z
-x,-y,-z
x,-y,1/2+z
1/2+x,1/2+y,z
1/2-x,1/2+y,1/2-z
1/2-x,1/2-y,-z
1/2+x,1/2-y,1/2+z
loop_
_atom_site_type_symbol
_atom_site_label
_atom_site_fract_x
_atom_site_fract_y
_atom_site_fract_z
Si Si1 0.000000 0.125000 0.250000
Si Si2 0.108110 0.754902 0.188104
Si Si3 0.829994 0.504903 0.471883
O O1 0.827121 0.052001 0.080054
O O2 0.002933 0.198000 0.425811
O O3 0.154123 0.610198 0.163983
O O4 0.000000 0.484468 0.250000
O O5 0.259859 0.860198 0.355737
O O6 0.500000 0.265531 0.250000
#
# Coordination Sequence:
#
# PCOD9308423 Si02
#       3
#     4   8   8
#     4  12  28  68  92 138 216 244 328 442 468 608
#     4  12  30  65  97 142 203 259 333 419 500 603
#     4  12  30  65  97 142 203 259 333 419 500 603
#
# _framework density 30.035001000000001
#
# number of rings (size 3 to 8) (size 9 to 14) (size 15 to 20)
#    0.000    0.000    4.000    2.400    0.000    3.200 
#   21.600    0.000    0.000    0.000    0.000    0.000 
#    0.000    0.000    0.000    0.000    0.000    0.000 
#
# Total GULP energy -55973.715532 kJ/mol
# GULP energy per Si atom -5597.371553 kJ/mol
# Density = 2.996664 g / cm^3
# Si number density = 30.035001 Si / 1000 Ang^3
#
#
#
# Elastic Constant Matrix: (Units=GPa)
#
#
# Indices 1 2 3 4 5 6 
#
# 1 279.7278 158.7034 160.5293 0.0000 -9.3228 0.0000
# 2 158.7034 271.9107 158.7034 0.0000 0.0000 0.0000
# 3 160.5293 158.7034 279.7272 0.0000 9.3225 0.0000
# 4 0.0000 0.0000 0.0000 55.5146 0.0000 -0.0006
# 5 -9.3228 0.0000 9.3225 0.0000 73.6216 0.0000
# 6 0.0000 0.0000 0.0000 -0.0006 0.0000 55.5126
#
#
#
# Elastic Compliance Matrix: (Units=1/GPa)
#
#
# Indices 1 2 3 4 5 6 
#
# 1 0.006240 -0.002289 -0.002319 0.000000 0.001084 0.000000
# 2 -0.002289 0.006350 -0.002289 0.000000 0.000000 0.000000
# 3 -0.002319 -0.002289 0.006240 0.000000 -0.001084 0.000000
# 4 0.000000 0.000000 0.000000 0.018013 0.000000 0.000000
# 5 0.001084 0.000000 -0.001084 0.000000 0.013857 0.000000
# 6 0.000000 0.000000 0.000000 0.000000 0.000000 0.018014
#
#
# Mechanical properties :
#
#
# Convention : Reuss Voigt Hill
#
# Bulk Modulus (GPa) = 198.52283 198.58199 198.55241
# Shear Modulus (GPa) = 59.39188 60.49172 59.94180
#
# Velocity S-wave (km/s) = 4.45165 4.49268 4.47221
# Velocity P-wave (km/s) = 9.62619 9.65259 9.63940
#
# Compressibility (1/GPa) = 0.00503720
#
# Stress axis : x y z
#
# Youngs Moduli (GPa) = 160.25014 157.49214 160.24973
#
# Poissons Ratio (x) = 0.36048 0.37157
# Poissons Ratio (y) = 0.36679 0.36679
# Poissons Ratio (z) = 0.37157 0.36048
#
# Static dielectric constant tensor:
#      x y z
#    x 2.358440 0.000000 0.000000 
#    y 0.000000 2.516250 0.000000 
#    z 0.000000 0.000000 2.358440 
# 
# From -- ./inp_files/26478.got.cif
#   From: 2010.05.17/outbox.cif.g08.bks.cpg/sg15_14_cif.got.tgz:26478.got - 2010.06.03 18:47:42.
