data_PCOD9308396
_publ_section_title
;
Structure prediction by ZEFSAII (Michael W. Deem and Ramdas Pophale) SiO2 
 PCOD9308396
Probable space group: C 2/C
;
_chemical_formula_sum "Si O2"
_cell_formula_units_Z 40
_cell_length_a 5.055603
_cell_length_b 8.579296
_cell_length_c 39.090585
_cell_angle_alpha 90.000000
_cell_angle_beta 110.104483
_cell_angle_gamma 90.000000
_cell_volume 1592.185008
_symmetry_space_group_name_H-M "C 2/C"
_symmetry_group_IT_number 15
_symmetry_cell_setting 'monoclinic'
loop_
_space_group_symop_operation_xyz
x,y,z
-x,y,1/2-z
-x,-y,-z
x,-y,1/2+z
1/2+x,1/2+y,z
1/2-x,1/2+y,1/2-z
1/2-x,1/2-y,-z
1/2+x,1/2-y,1/2+z
loop_
_atom_site_type_symbol
_atom_site_label
_atom_site_fract_x
_atom_site_fract_y
_atom_site_fract_z
Si Si1 0.422940 0.117077 0.526608
Si Si2 0.177081 0.366398 0.924020
Si Si3 0.677366 0.134046 0.225066
Si Si4 0.216688 0.121821 0.825402
Si Si5 0.046991 0.110669 0.374868
O O1 0.250000 0.250000 0.500000
O O2 0.270425 0.010922 0.548110
O O3 0.500000 0.000000 0.500000
O O4 0.342398 0.151549 0.405834
O O5 0.311786 0.406025 0.893439
O O6 0.679684 0.790835 0.055774
O O7 0.500000 0.081271 0.250000
O O8 0.533516 0.291616 0.205509
O O9 0.000000 0.156007 0.250000
O O10 0.055445 0.248438 0.154494
O O11 0.839180 0.490469 0.806078
O O12 0.102172 0.041167 0.854583
#
# Coordination Sequence:
#
# PCOD9308396 Si02
#       5
#     8   8   8   8   8
#     4  12  28  50  78 114 154 202 256 316 382 455
#     4  12  29  52  80 115 156 204 257 318 384 457
#     4  12  30  52  80 115 156 204 257 318 384 457
#     4  12  30  52  80 116 156 204 258 318 384 458
#     4  12  30  52  80 116 156 204 257 318 384 457
#
# _framework density 25.122710000000001
#
# number of rings (size 3 to 8) (size 9 to 14) (size 15 to 20)
#    0.000    0.000    0.000    6.600    0.000   33.600 
#    0.000    0.000    0.000    0.000    0.000    0.000 
#    0.000    0.000    0.000    0.000    0.000    0.000 
#
# Total GULP energy -112509.533234 kJ/mol
# GULP energy per Si atom -5625.476662 kJ/mol
# Density = 2.506553 g / cm^3
# Si number density = 25.122710 Si / 1000 Ang^3
#
#
#
# Elastic Constant Matrix: (Units=GPa)
#
#
# Indices 1 2 3 4 5 6 
#
# 1 81.9914 26.8588 20.2138 0.0000 -5.3761 0.0000
# 2 26.8588 115.3088 29.7404 0.0000 -9.3497 0.0000
# 3 20.2138 29.7404 102.9917 0.0000 -12.1631 0.0000
# 4 0.0000 0.0000 0.0000 40.2092 0.0000 6.6024
# 5 -5.3761 -9.3497 -12.1631 0.0000 38.1691 0.0000
# 6 0.0000 0.0000 0.0000 6.6024 0.0000 38.3994
#
#
#
# Elastic Compliance Matrix: (Units=1/GPa)
#
#
# Indices 1 2 3 4 5 6 
#
# 1 0.013552 -0.002632 -0.001819 0.000000 0.000684 0.000000
# 2 -0.002632 0.009964 -0.002199 0.000000 0.001369 0.000000
# 3 -0.001819 -0.002199 0.011022 0.000000 0.002718 0.000000
# 4 0.000000 0.000000 0.000000 0.025592 0.000000 -0.004400
# 5 0.000684 0.001369 0.002718 0.000000 0.027497 0.000000
# 6 0.000000 0.000000 0.000000 -0.004400 0.000000 0.026799
#
#
# Mechanical properties :
#
#
# Convention : Reuss Voigt Hill
#
# Bulk Modulus (GPa) = 47.08467 50.43532 48.75999
# Shear Modulus (GPa) = 37.09060 38.25415 37.67237
#
# Velocity S-wave (km/s) = 3.84653 3.90640 3.87658
# Velocity P-wave (km/s) = 6.20567 6.36127 6.28395
#
# Compressibility (1/GPa) = 0.02123833
#
# Stress axis : x y z
#
# Youngs Moduli (GPa) = 73.79045 100.36551 90.72416
#
# Poissons Ratio (x) = 0.26416 0.16502
# Poissons Ratio (y) = 0.19422 0.19949
# Poissons Ratio (z) = 0.13422 0.22069
#
# Static dielectric constant tensor:
#      x y z
#    x 1.936680 0.000000 0.022590 
#    y 0.000000 1.907380 0.000000 
#    z 0.022590 0.000000 1.951120 
# 
# From -- ./inp_files/285260.got.cif
#   From: 2010.05.17/outbox.cif.g08.bks.cpg/sg15_143_cif.got.tgz:285260.got - 2010.06.03 18:47:42.
