data_PCOD9308811
_publ_section_title
;
Structure prediction by ZEFSAII (Michael W. Deem and Ramdas Pophale) SiO2 
 PCOD9308811
Probable space group: C 2/C
;
_chemical_formula_sum "Si O2"
_cell_formula_units_Z 20
_cell_length_a 15.000000
_cell_length_b 15.000000
_cell_length_c 18.000000
_cell_angle_alpha 90.000000
_cell_angle_beta 150.000000
_cell_angle_gamma 90.000000
_cell_volume 2025.000000
_symmetry_space_group_name_H-M "C 2/C"
_symmetry_group_IT_number 15
_symmetry_cell_setting 'monoclinic'
loop_
_space_group_symop_operation_xyz
x,y,z
-x,y,1/2-z
-x,-y,-z
x,-y,1/2+z
1/2+x,1/2+y,z
1/2-x,1/2+y,1/2-z
1/2-x,1/2-y,-z
1/2+x,1/2-y,1/2+z
loop_
_atom_site_type_symbol
_atom_site_label
_atom_site_fract_x
_atom_site_fract_y
_atom_site_fract_z
Si Si1 0.407687 0.943753 0.601476
Si Si2 0.806033 0.302388 0.731593
Si Si3 0.121289 0.823482 0.443904
Si Si4 0.045308 0.197652 0.183528
Si Si5 0.291435 0.864023 0.998236
O O1 0.500000 0.944241 0.750000
O O2 0.536719 0.877144 0.648455
O O3 0.202902 0.909931 0.463119
O O4 0.388583 0.042662 0.557910
O O5 0.681116 0.327110 0.572345
O O6 0.673481 0.296159 0.705033
O O7 0.919674 0.212341 0.794661
O O8 0.250000 0.750000 0.500000
O O9 0.177954 0.166433 0.344490
O O10 0.867135 0.134622 0.053794
O O11 0.945295 0.291757 0.124702
#
# Coordination Sequence:
#
# PCOD9308811 Si02
#       5
#     8   8   8   8   8
#     4   9  20  37  58  83 115 146 185 234 286 336
#     4  10  19  38  60  87 114 145 190 234 280 342
#     4   9  18  36  59  85 117 149 175 228 294 336
#     4  10  22  38  59  81 112 151 193 228 285 335
#     4  10  22  40  56  81 113 155 187 233 284 337
#
# _framework density 9.8765429999999999
#
# number of rings (size 3 to 8) (size 9 to 14) (size 15 to 20)
#    0.000    2.400    0.000    3.000    5.600    0.800 
#   18.000    2.000    0.000    0.000    0.000    0.000 
#    0.000    0.000    0.000    0.000    0.000    0.000 
#
# Total GULP energy -111367.275072 kJ/mol
# GULP energy per Si atom -5568.363754 kJ/mol
# Density = 0.985406 g / cm^3
# Si number density = 9.876543 Si / 1000 Ang^3
#
#
#
# Elastic Constant Matrix: (Units=GPa)
#
#
# Indices 1 2 3 4 5 6 
#
# 1 125.3619 9.8617 20.7512 -0.0002 27.3338 -0.0002
# 2 9.8617 87.6372 16.6005 -0.0012 10.1063 -0.0004
# 3 20.7512 16.6005 46.7906 -0.0014 20.3741 -0.0004
# 4 -0.0002 -0.0012 -0.0014 23.3532 -0.0001 4.8676
# 5 27.3338 10.1063 20.3741 -0.0001 26.3975 0.0000
# 6 -0.0002 -0.0004 -0.0004 4.8676 0.0000 10.4688
#
#
#
# Elastic Compliance Matrix: (Units=1/GPa)
#
#
# Indices 1 2 3 4 5 6 
#
# 1 0.010304 0.000064 0.000096 0.000000 -0.010768 0.000000
# 2 0.000064 0.012304 -0.003485 0.000000 -0.002087 0.000000
# 3 0.000096 -0.003485 0.033178 0.000002 -0.024373 0.000000
# 4 0.000000 0.000000 0.000002 0.047416 -0.000001 -0.022047
# 5 -0.010768 -0.002087 -0.024373 -0.000001 0.068643 -0.000001
# 6 0.000000 0.000000 0.000000 -0.022047 -0.000001 0.105773
#
#
# Mechanical properties :
#
#
# Convention : Reuss Voigt Hill
#
# Bulk Modulus (GPa) = 20.35093 39.35737 29.85415
# Shear Modulus (GPa) = 16.63082 26.21566 21.42324
#
# Velocity S-wave (km/s) = 2.90476 3.64698 3.29683
# Velocity P-wave (km/s) = 4.64491 6.14019 5.44413
#
# Compressibility (1/GPa) = 0.04913780
#
# Stress axis : x y z
#
# Youngs Moduli (GPa) = 97.05161 81.27246 30.14014
#
# Poissons Ratio (x) = -0.00521 -0.00291
# Poissons Ratio (y) = -0.00622 0.10503
# Poissons Ratio (z) = -0.00936 0.28322
#
# Static dielectric constant tensor:
#      x y z
#    x 1.733850 0.000000 -0.033400 
#    y 0.000000 1.784410 0.000000 
#    z -0.033400 0.000000 1.701000 
# 
# From -- ./inp_files/37964.got.cif
#   From: 2010.05.17/outbox.ucp.g08.bks.cvg/sg15_19_cif.got.tgz:37964.got - 2010.06.11 12:40:34.
