data_PCOD9308022
_publ_section_title
;
Structure prediction by ZEFSAII (Michael W. Deem and Ramdas Pophale) SiO2 
 PCOD9308022
Probable space group: C 2/C
;
_chemical_formula_sum "Si O2"
_cell_formula_units_Z 40
_cell_length_a 27.053423
_cell_length_b 11.842846
_cell_length_c 7.774347
_cell_angle_alpha 90.000000
_cell_angle_beta 40.970181
_cell_angle_gamma 90.000000
_cell_volume 1633.145938
_symmetry_space_group_name_H-M "C 2/C"
_symmetry_group_IT_number 15
_symmetry_cell_setting 'monoclinic'
loop_
_space_group_symop_operation_xyz
x,y,z
-x,y,1/2-z
-x,-y,-z
x,-y,1/2+z
1/2+x,1/2+y,z
1/2-x,1/2+y,1/2-z
1/2-x,1/2-y,-z
1/2+x,1/2-y,1/2+z
loop_
_atom_site_type_symbol
_atom_site_label
_atom_site_fract_x
_atom_site_fract_y
_atom_site_fract_z
Si Si1 0.571166 0.081326 0.845045
Si Si2 0.341982 0.110248 0.541255
Si Si3 0.676734 0.430123 0.468072
Si Si4 0.027564 0.822871 0.979150
Si Si5 0.634008 0.345463 0.206982
O O1 0.595916 0.111991 0.972809
O O2 0.641416 0.010173 0.590415
O O3 0.548410 0.203023 0.835682
O O4 0.500000 0.000000 0.000000
O O5 0.354112 0.216614 0.383963
O O6 0.256589 0.110681 0.830255
O O7 0.666746 0.375105 0.306948
O O8 0.673475 0.565773 0.474960
O O9 0.604317 0.392229 0.766837
O O10 0.000000 0.815273 0.250000
O O11 0.955530 0.868655 0.066256
#
# Coordination Sequence:
#
# PCOD9308022 Si02
#       5
#     8   8   8   8   8
#     4  12  25  48  79 110 154 204 262 320 390 462
#     4  12  28  48  79 115 160 204 264 326 398 466
#     4  12  29  47  79 112 161 207 262 327 396 468
#     4  12  25  49  78 109 154 207 265 322 386 468
#     4  12  26  51  73 115 157 207 267 317 393 473
#
# _framework density 24.492607
#
# number of rings (size 3 to 8) (size 9 to 14) (size 15 to 20)
#    0.000    0.000    4.000    4.800    5.600    2.400 
#    0.000    0.000    0.000    0.000    0.000    0.000 
#    0.000    0.000    0.000    0.000    0.000    0.000 
#
# Total GULP energy -111980.892743 kJ/mol
# GULP energy per Si atom -5599.044637 kJ/mol
# Density = 2.443686 g / cm^3
# Si number density = 24.492607 Si / 1000 Ang^3
#
#
#
# Elastic Constant Matrix: (Units=GPa)
#
#
# Indices 1 2 3 4 5 6 
#
# 1 136.2847 29.1086 36.9309 0.0000 -16.0121 0.0000
# 2 29.1086 112.4735 43.6582 0.0000 -12.1791 0.0000
# 3 36.9309 43.6582 110.2427 0.0000 -34.9908 0.0000
# 4 0.0000 0.0000 0.0000 37.3836 0.0000 2.8226
# 5 -16.0121 -12.1791 -34.9908 0.0000 36.3393 0.0000
# 6 0.0000 0.0000 0.0000 2.8226 0.0000 19.3356
#
#
#
# Elastic Compliance Matrix: (Units=1/GPa)
#
#
# Indices 1 2 3 4 5 6 
#
# 1 0.008272 -0.001285 -0.001789 0.000000 0.001492 0.000000
# 2 -0.001285 0.010718 -0.004110 0.000000 -0.000931 0.000000
# 3 -0.001789 -0.004110 0.015280 0.000000 0.012548 0.000000
# 4 0.000000 0.000000 0.000000 0.027048 0.000000 -0.003948
# 5 0.001492 -0.000931 0.012548 0.000000 0.039946 0.000000
# 6 0.000000 0.000000 0.000000 -0.003948 0.000000 0.052295
#
#
# Mechanical properties :
#
#
# Convention : Reuss Voigt Hill
#
# Bulk Modulus (GPa) = 50.24218 64.26628 57.25423
# Shear Modulus (GPa) = 28.64354 35.23188 31.93771
#
# Velocity S-wave (km/s) = 3.42347 3.79683 3.61497
# Velocity P-wave (km/s) = 6.01536 6.74665 6.39147
#
# Compressibility (1/GPa) = 0.01990359
#
# Stress axis : x y z
#
# Youngs Moduli (GPa) = 120.88940 93.30177 65.44419
#
# Poissons Ratio (x) = 0.11989 0.11706
# Poissons Ratio (y) = 0.15534 0.26895
# Poissons Ratio (z) = 0.21623 0.38343
#
# Static dielectric constant tensor:
#      x y z
#    x 1.945600 0.000000 0.063100 
#    y 0.000000 1.993710 0.000000 
#    z 0.063100 0.000000 1.952450 
# 
# From -- ./inp_files/68943.got.cif
#   From: 2010.05.17/outbox.cif.g08.bks.cpg/sg15_35_cif.got.tgz:68943.got - 2010.06.03 18:47:42.
