data_PCOD9308468
_publ_section_title
;
Structure prediction by ZEFSAII (Michael W. Deem and Ramdas Pophale) SiO2 
 PCOD9308468
Probable space group: C 2/C
;
_chemical_formula_sum "Si O2"
_cell_formula_units_Z 40
_cell_length_a 7.524799
_cell_length_b 7.498947
_cell_length_c 26.025378
_cell_angle_alpha 90.000000
_cell_angle_beta 88.139863
_cell_angle_gamma 90.000000
_cell_volume 1467.787951
_symmetry_space_group_name_H-M "C 2/C"
_symmetry_group_IT_number 15
_symmetry_cell_setting 'monoclinic'
loop_
_space_group_symop_operation_xyz
x,y,z
-x,y,1/2-z
-x,-y,-z
x,-y,1/2+z
1/2+x,1/2+y,z
1/2-x,1/2+y,1/2-z
1/2-x,1/2-y,-z
1/2+x,1/2-y,1/2+z
loop_
_atom_site_type_symbol
_atom_site_label
_atom_site_fract_x
_atom_site_fract_y
_atom_site_fract_z
Si Si1 0.600175 0.791340 0.576467
Si Si2 0.196064 0.616422 0.176780
Si Si3 0.315703 0.500098 0.775326
Si Si4 0.506484 0.698252 0.475832
Si Si5 0.412473 0.396452 0.875066
O O1 0.587260 0.921335 0.625698
O O2 0.482956 0.820148 0.526521
O O3 0.797992 0.786754 0.550755
O O4 0.575611 0.597102 0.602296
O O5 0.191425 0.490157 0.226465
O O6 0.149673 0.803617 0.203550
O O7 0.395019 0.637057 0.151940
O O8 0.500000 0.430251 0.750000
O O9 0.278084 0.389480 0.827932
O O10 0.500000 0.500000 0.500000
O O11 0.382015 0.717794 0.426970
#
# Coordination Sequence:
#
# PCOD9308468 Si02
#       5
#     8   8   8   8   8
#     4   8  13  21  36  60  90 120 151 189 230 274
#     4   9  16  27  42  60  86 117 150 190 232 275
#     4   9  17  29  43  61  86 115 149 189 231 276
#     4   8  12  19  34  60  92 121 151 188 229 274
#     4   8  14  24  39  59  87 118 149 189 231 273
#
# _framework density 27.251894
#
# number of rings (size 3 to 8) (size 9 to 14) (size 15 to 20)
#    0.000    3.600    0.000    0.000    0.000    0.000 
#    0.000    3.000    0.000    0.000    0.000    1.400 
#    0.000  312.000    0.000   80.000    0.000   19.600 
#
# Total GULP energy -111496.826341 kJ/mol
# GULP energy per Si atom -5574.841317 kJ/mol
# Density = 2.718987 g / cm^3
# Si number density = 27.251894 Si / 1000 Ang^3
#
#
#
# Elastic Constant Matrix: (Units=GPa)
#
#
# Indices 1 2 3 4 5 6 
#
# 1 72.6230 16.1644 20.4309 0.0000 -69.0324 0.0000
# 2 16.1644 4.3357 104.4450 0.0000 68.9413 0.0000
# 3 20.4309 104.4450 324.3445 0.0000 11.1669 0.0000
# 4 0.0000 0.0000 0.0000 34.1845 0.0000 -0.7256
# 5 -69.0324 68.9413 11.1669 0.0000 -5.1719 0.0000
# 6 0.0000 0.0000 0.0000 -0.7256 0.0000 14.8458
#
#
#
# Elastic Compliance Matrix: (Units=1/GPa)
#
#
# Indices 1 2 3 4 5 6 
#
# 1 0.017303 0.018974 -0.007405 0.000000 0.005969 0.000000
# 2 0.018974 0.022158 -0.009103 0.000000 0.022455 0.000000
# 3 -0.007405 -0.009103 0.006754 0.000000 -0.007923 0.000000
# 4 0.000000 0.000000 0.000000 0.029283 0.000000 0.001431
# 5 0.005969 0.022455 -0.007923 0.000000 0.009192 0.000000
# 6 0.000000 0.000000 0.000000 0.001431 0.000000 0.067429
#
#
# Mechanical properties :
#
#
# Convention : Reuss Voigt Hill
#
# Bulk Modulus (GPa) = 19.55240 75.93154 47.74197
# Shear Modulus (GPa) = 30.44357 26.12253 28.28305
#
# Velocity S-wave (km/s) = 3.34596 3.09942 3.22504
# Velocity P-wave (km/s) = 4.70293 6.38215 5.60577
#
# Compressibility (1/GPa) = 0.05114462
#
# Stress axis : x y z
#
# Youngs Moduli (GPa) = 57.79196 45.13107 148.06298
#
# Poissons Ratio (x) = -0.85630 1.09645
# Poissons Ratio (y) = -1.09652 1.34788
# Poissons Ratio (z) = 0.42797 0.41085
#
# Static dielectric constant tensor:
#      x y z
#    x 2.160690 0.000000 0.240640 
#    y 0.000000 2.272620 0.000000 
#    z 0.240640 0.000000 2.299270 
# 
# From -- ./inp_files/267333.got.cif
#   From: 2010.05.17/outbox.cif.g08.bks.cpg/sg15_134_cif.got.tgz:267333.got - 2010.06.03 18:47:42.
