data_PCOD9308037
_publ_section_title
;
Structure prediction by ZEFSAII (Michael W. Deem and Ramdas Pophale) SiO2 
 PCOD9308037
Probable space group: C 2/C
;
_chemical_formula_sum "Si O2"
_cell_formula_units_Z 40
_cell_length_a 22.516410
_cell_length_b 8.366610
_cell_length_c 14.311998
_cell_angle_alpha 90.000000
_cell_angle_beta 143.794411
_cell_angle_gamma 90.000000
_cell_volume 1592.591625
_symmetry_space_group_name_H-M "C 2/C"
_symmetry_group_IT_number 15
_symmetry_cell_setting 'monoclinic'
loop_
_space_group_symop_operation_xyz
x,y,z
-x,y,1/2-z
-x,-y,-z
x,-y,1/2+z
1/2+x,1/2+y,z
1/2-x,1/2+y,1/2-z
1/2-x,1/2-y,-z
1/2+x,1/2-y,1/2+z
loop_
_atom_site_type_symbol
_atom_site_label
_atom_site_fract_x
_atom_site_fract_y
_atom_site_fract_z
Si Si1 0.590189 0.579469 0.172968
Si Si2 0.606232 0.882268 0.904671
Si Si3 0.263507 0.564106 0.987701
Si Si4 0.733937 0.631261 0.183117
Si Si5 0.044947 0.623954 0.983304
O O1 0.640971 0.504185 0.329400
O O2 0.680372 0.605066 0.214004
O O3 0.500000 0.500000 0.000000
O O4 0.538231 0.743518 0.138799
O O5 0.500000 0.798860 0.750000
O O6 0.674889 0.766891 0.052524
O O7 0.669735 0.954318 0.900485
O O8 0.574454 0.031940 0.927662
O O9 0.250000 0.750000 0.000000
O O10 0.274623 0.527873 0.892294
O O11 0.849121 0.682522 0.341087
O O12 0.000000 0.500000 0.000000
#
# Coordination Sequence:
#
# PCOD9308037 Si02
#       5
#     8   8   8   8   8
#     4  12  28  47  76 114 152 196 254 314 377 450
#     4  12  26  47  74 109 153 200 251 307 375 452
#     4  12  28  48  74 111 150 196 253 314 376 446
#     4  12  28  49  77 109 154 200 254 310 377 460
#     4  12  25  49  79 109 150 200 249 314 383 444
#
# _framework density 25.116295999999998
#
# number of rings (size 3 to 8) (size 9 to 14) (size 15 to 20)
#    0.000    0.000    4.000    5.400    5.600    0.000 
#    0.000    0.000    0.000    0.000    0.000    0.000 
#    0.000    0.000    0.000    0.000    0.000    0.000 
#
# Total GULP energy -112220.151207 kJ/mol
# GULP energy per Si atom -5611.007560 kJ/mol
# Density = 2.505913 g / cm^3
# Si number density = 25.116296 Si / 1000 Ang^3
#
#
#
# Elastic Constant Matrix: (Units=GPa)
#
#
# Indices 1 2 3 4 5 6 
#
# 1 110.9599 23.9739 45.4115 0.0000 8.8446 0.0000
# 2 23.9739 59.5678 11.3919 0.0000 8.5741 0.0000
# 3 45.4115 11.3919 183.2659 0.0000 28.0693 0.0000
# 4 0.0000 0.0000 0.0000 52.7192 0.0000 3.2223
# 5 8.8446 8.5741 28.0693 0.0000 42.8380 0.0000
# 6 0.0000 0.0000 0.0000 3.2223 0.0000 42.4896
#
#
#
# Elastic Compliance Matrix: (Units=1/GPa)
#
#
# Indices 1 2 3 4 5 6 
#
# 1 0.010858 -0.003921 -0.002472 0.000000 0.000162 0.000000
# 2 -0.003921 0.018762 0.000285 0.000000 -0.003132 0.000000
# 3 -0.002472 0.000285 0.006649 0.000000 -0.003904 0.000000
# 4 0.000000 0.000000 0.000000 0.019057 0.000000 -0.001445
# 5 0.000162 -0.003132 -0.003904 0.000000 0.026495 0.000000
# 6 0.000000 0.000000 0.000000 -0.001445 0.000000 0.023645
#
#
# Mechanical properties :
#
#
# Convention : Reuss Voigt Hill
#
# Bulk Modulus (GPa) = 41.57238 57.26092 49.41665
# Shear Modulus (GPa) = 39.77782 45.81045 42.79414
#
# Velocity S-wave (km/s) = 3.98395 4.27539 4.13224
# Velocity P-wave (km/s) = 6.14413 6.87166 6.51805
#
# Compressibility (1/GPa) = 0.02405443
#
# Stress axis : x y z
#
# Youngs Moduli (GPa) = 92.09831 53.29958 150.39483
#
# Poissons Ratio (x) = 0.20897 0.37173
# Poissons Ratio (y) = 0.36108 -0.04287
# Poissons Ratio (z) = 0.22764 -0.01519
#
# Static dielectric constant tensor:
#      x y z
#    x 1.823060 0.000000 0.076420 
#    y 0.000000 2.032190 0.000000 
#    z 0.076420 0.000000 2.078930 
# 
# From -- ./inp_files/221967.got.cif
#   From: 2010.05.17/outbox.cif.g08.bks.cpg/sg15_111_cif.got.tgz:221967.got - 2010.06.03 18:47:42.
