data_PCOD9308288
_publ_section_title
;
Structure prediction by ZEFSAII (Michael W. Deem and Ramdas Pophale) SiO2 
 PCOD9308288
Probable space group: C 2/C
;
_chemical_formula_sum "Si O2"
_cell_formula_units_Z 28
_cell_length_a 16.402877
_cell_length_b 7.696567
_cell_length_c 8.055892
_cell_angle_alpha 90.000000
_cell_angle_beta 103.642603
_cell_angle_gamma 90.000000
_cell_volume 988.328471
_symmetry_space_group_name_H-M "C 2/C"
_symmetry_group_IT_number 15
_symmetry_cell_setting 'monoclinic'
loop_
_space_group_symop_operation_xyz
x,y,z
-x,y,1/2-z
-x,-y,-z
x,-y,1/2+z
1/2+x,1/2+y,z
1/2-x,1/2+y,1/2-z
1/2-x,1/2-y,-z
1/2+x,1/2-y,1/2+z
loop_
_atom_site_type_symbol
_atom_site_label
_atom_site_fract_x
_atom_site_fract_y
_atom_site_fract_z
Si Si1 0.500000 0.787013 0.250000
Si Si2 0.065912 0.160127 0.934941
Si Si3 0.188895 0.134044 0.577815
Si Si4 0.149971 0.433710 0.799682
O O1 0.479102 0.678652 0.407629
O O2 0.419975 0.917586 0.213525
O O3 0.131733 0.321897 0.957150
O O4 0.000000 0.171969 0.750000
O O5 0.124948 0.991589 0.953484
O O6 0.250000 0.250000 0.500000
O O7 0.141297 0.276512 0.664393
O O8 0.257674 0.993645 0.191801
#
# Coordination Sequence:
#
# PCOD9308288 Si02
#       4
#     4   8   8   8
#     4  12  28  56  92 132 182 222 300 374 436 528
#     4  12  29  55  92 131 175 235 298 363 447 525
#     4  12  28  54  88 126 182 233 295 365 445 533
#     4  12  26  54  85 131 173 239 295 364 446 525
#
# _framework density 28.330662
#
# number of rings (size 3 to 8) (size 9 to 14) (size 15 to 20)
#    0.000    0.000    1.429    6.857    4.000    2.286 
#    2.571    1.429    0.000    0.000    0.000    0.000 
#    0.000    0.000    0.000    0.000    0.000    0.000 
#
# Total GULP energy -78414.447404 kJ/mol
# GULP energy per Si atom -5601.031957 kJ/mol
# Density = 2.826618 g / cm^3
# Si number density = 28.330662 Si / 1000 Ang^3
#
#
#
# Elastic Constant Matrix: (Units=GPa)
#
#
# Indices 1 2 3 4 5 6 
#
# 1 205.5298 80.7297 78.6360 0.0000 -12.7426 0.0000
# 2 80.7297 158.7558 65.8515 0.0000 2.9163 0.0000
# 3 78.6360 65.8515 166.4287 0.0000 -32.7270 0.0000
# 4 0.0000 0.0000 0.0000 74.1112 0.0000 -7.5493
# 5 -12.7426 2.9163 -32.7270 0.0000 62.4926 0.0000
# 6 0.0000 0.0000 0.0000 -7.5493 0.0000 85.5047
#
#
#
# Elastic Compliance Matrix: (Units=1/GPa)
#
#
# Indices 1 2 3 4 5 6 
#
# 1 0.006683 -0.002546 -0.002072 0.000000 0.000396 0.000000
# 2 -0.002546 0.008770 -0.002731 0.000000 -0.002358 0.000000
# 3 -0.002072 -0.002731 0.008930 0.000000 0.004381 0.000000
# 4 0.000000 0.000000 0.000000 0.013616 0.000000 0.001202
# 5 0.000396 -0.002358 0.004381 0.000000 0.018487 0.000000
# 6 0.000000 0.000000 0.000000 0.001202 0.000000 0.011801
#
#
# Mechanical properties :
#
#
# Convention : Reuss Voigt Hill
#
# Bulk Modulus (GPa) = 103.26065 109.01652 106.13858
# Shear Modulus (GPa) = 57.99582 64.78818 61.39200
#
# Velocity S-wave (km/s) = 4.52940 4.78730 4.66013
# Velocity P-wave (km/s) = 7.99259 8.31392 8.15484
#
# Compressibility (1/GPa) = 0.00968423
#
# Stress axis : x y z
#
# Youngs Moduli (GPa) = 149.63375 114.02863 111.98513
#
# Poissons Ratio (x) = 0.29033 0.23207
# Poissons Ratio (y) = 0.38098 0.30580
# Poissons Ratio (z) = 0.31009 0.31138
#
# Static dielectric constant tensor:
#      x y z
#    x 2.295370 0.000000 0.031040 
#    y 0.000000 2.300130 0.000000 
#    z 0.031040 0.000000 2.421050 
# 
# From -- ./inp_files/45423.got.cif
#   From: 2010.05.17/outbox.cif.g08.bks.cpg/sg15_23_cif.got.tgz:45423.got - 2010.06.03 18:47:42.
