data_PCOD9308631
_publ_section_title
;
Structure prediction by ZEFSAII (Michael W. Deem and Ramdas Pophale) SiO2 
 PCOD9308631
Probable space group: C 2/C
;
_chemical_formula_sum "Si O2"
_cell_formula_units_Z 28
_cell_length_a 21.000000
_cell_length_b 9.000000
_cell_length_c 18.000000
_cell_angle_alpha 90.000000
_cell_angle_beta 60.000000
_cell_angle_gamma 90.000000
_cell_volume 2946.218424
_symmetry_space_group_name_H-M "C 2/C"
_symmetry_group_IT_number 15
_symmetry_cell_setting 'monoclinic'
loop_
_space_group_symop_operation_xyz
x,y,z
-x,y,1/2-z
-x,-y,-z
x,-y,1/2+z
1/2+x,1/2+y,z
1/2-x,1/2+y,1/2-z
1/2-x,1/2-y,-z
1/2+x,1/2-y,1/2+z
loop_
_atom_site_type_symbol
_atom_site_label
_atom_site_fract_x
_atom_site_fract_y
_atom_site_fract_z
Si Si1 0.938876 0.797237 0.898419
Si Si2 0.540250 0.845676 0.965965
Si Si3 0.584578 0.378613 0.017384
Si Si4 0.814014 0.953486 0.683208
Si Si5 0.093225 0.853141 0.735211
Si Si6 0.337183 0.207450 0.222907
Si Si7 0.581649 0.694037 0.684499
O O1 0.888430 0.777820 0.854594
O O2 0.020449 0.785741 0.815758
O O3 0.936893 0.959934 0.937791
O O4 0.923714 0.690323 0.975502
O O5 0.482884 0.713491 0.978780
O O6 0.598271 0.855036 0.866137
O O7 0.500000 0.000000 0.000000
O O8 0.602865 0.297266 0.085344
O O9 0.644231 0.406970 0.917541
O O10 0.849897 0.866273 0.731761
O O11 0.730881 0.901630 0.733576
O O12 0.821316 0.128999 0.696694
O O13 0.079389 0.022719 0.715161
O O14 0.363015 0.228882 0.292107
O O15 0.500000 0.753203 0.750000
#
# Coordination Sequence:
#
# PCOD9308631 Si02
#       7
#     8   8   8   8   8   8   8
#     4  10  17  35  63  91 111 153 208 250 307 353
#     4  12  24  37  61  95 125 156 212 262 306 356
#     4  11  19  37  68  87 116 162 210 255 301 376
#     4  11  23  39  62  91 126 169 205 245 319 380
#     4   9  17  32  63  93 115 150 204 255 293 378
#     4  11  25  41  62  90 131 167 200 257 312 374
#     4  10  17  35  64  96 117 148 215 266 297 351
#
# _framework density 9.5037079999999996
#
# number of rings (size 3 to 8) (size 9 to 14) (size 15 to 20)
#    0.000    1.429    7.143    1.286    2.000    0.571 
#    0.000    5.000    0.000    0.000    0.000    0.000 
#    0.000    0.000    0.000    0.000    0.000    0.000 
#
# Total GULP energy -156033.348241 kJ/mol
# GULP energy per Si atom -5572.619580 kJ/mol
# Density = 0.948208 g / cm^3
# Si number density = 9.503708 Si / 1000 Ang^3
#
#
#
# Elastic Constant Matrix: (Units=GPa)
#
#
# Indices 1 2 3 4 5 6 
#
# 1 59.2628 35.3643 45.2486 0.0000 10.6985 0.0000
# 2 35.3643 20.7292 40.4678 0.0000 5.2199 -0.0001
# 3 45.2486 40.4678 137.7031 0.0000 21.6428 0.0000
# 4 0.0000 0.0000 0.0000 9.0866 0.0000 -12.9106
# 5 10.6985 5.2199 21.6428 0.0000 38.4551 0.0000
# 6 0.0000 -0.0001 0.0000 -12.9106 0.0000 14.6979
#
#
#
# Elastic Compliance Matrix: (Units=1/GPa)
#
#
# Indices 1 2 3 4 5 6 
#
# 1 -0.084058 0.211908 -0.037089 -0.000008 0.015495 -0.000006
# 2 0.211908 -0.420572 0.059523 0.000015 -0.035366 0.000011
# 3 -0.037089 0.059523 0.001761 -0.000002 0.001248 -0.000001
# 4 -0.000008 0.000015 -0.000002 -0.443657 0.000001 -0.389706
# 5 0.015495 -0.035366 0.001248 0.000001 0.025792 0.000001
# 6 -0.000006 0.000011 -0.000001 -0.389706 0.000001 -0.274278
#
#
# Mechanical properties :
#
#
# Convention : Reuss Voigt Hill
#
# Bulk Modulus (GPa) = -29.25189 51.09514 10.92162
# Shear Modulus (GPa) = -2.98491 18.88890 7.95199
#
# Velocity S-wave (km/s) = -1.25451 3.15582 2.04761
# Velocity P-wave (km/s) = 4.18587 6.34185 3.36879
#
# Compressibility (1/GPa) = -0.03418582
#
# Stress axis : x y z
#
# Youngs Moduli (GPa) = -11.89655 -2.37771 567.95020
#
# Poissons Ratio (x) = 0.50386 21.06488
# Poissons Ratio (y) = 2.52097 -33.80622
# Poissons Ratio (z) = -0.44123 0.14153
#
# Static dielectric constant tensor:
#      x y z
#    x 1.787020 0.000000 0.050130 
#    y 0.000000 1.675610 0.000000 
#    z 0.050130 0.000000 1.637640 
# 
# From -- ./inp_files/213788.got.cif
#   From: 2010.05.17/outbox.ucp.g08.bks.cvg/sg15_107_cif.got.tgz:213788.got - 2010.06.11 12:40:34.
