data_PCOD9308426
_publ_section_title
;
Structure prediction by ZEFSAII (Michael W. Deem and Ramdas Pophale) SiO2 
 PCOD9308426
Probable space group: C 2/C
;
_chemical_formula_sum "Si O2"
_cell_formula_units_Z 28
_cell_length_a 11.549608
_cell_length_b 10.306848
_cell_length_c 22.144177
_cell_angle_alpha 90.000000
_cell_angle_beta 152.644926
_cell_angle_gamma 90.000000
_cell_volume 1211.271461
_symmetry_space_group_name_H-M "C 2/C"
_symmetry_group_IT_number 15
_symmetry_cell_setting 'monoclinic'
loop_
_space_group_symop_operation_xyz
x,y,z
-x,y,1/2-z
-x,-y,-z
x,-y,1/2+z
1/2+x,1/2+y,z
1/2-x,1/2+y,1/2-z
1/2-x,1/2-y,-z
1/2+x,1/2-y,1/2+z
loop_
_atom_site_type_symbol
_atom_site_label
_atom_site_fract_x
_atom_site_fract_y
_atom_site_fract_z
Si Si1 0.851561 0.930263 0.007111
Si Si2 0.226343 0.974105 0.901203
Si Si3 0.500000 0.814270 0.750000
Si Si4 0.545255 0.286084 0.994741
O O1 0.596735 0.899132 0.851572
O O2 0.817382 0.931417 0.062381
O O3 0.929181 0.076115 0.026010
O O4 0.045563 0.828316 0.066221
O O5 0.000000 0.983380 0.750000
O O6 0.257357 0.821496 0.932643
O O7 0.500000 0.000000 0.000000
O O8 0.755433 0.741582 0.849990
#
# Coordination Sequence:
#
# PCOD9308426 Si02
#       4
#     8   8   4   8
#     4   9  21  43  70  99 133 171 237 279 337 418
#     4  12  29  43  63 104 143 182 222 281 346 413
#     4   8  18  40  74  98 122 176 232 292 338 394
#     4   9  21  42  72  98 124 187 223 283 341 398
#
# _framework density 23.116206999999999
#
# number of rings (size 3 to 8) (size 9 to 14) (size 15 to 20)
#    1.714    0.571    0.000    0.857    8.000    1.143 
#    5.143    0.000    0.000    0.000    0.000    0.000 
#    0.000    0.000    0.000    0.000    0.000    0.000 
#
# Total GULP energy -78060.553600 kJ/mol
# GULP energy per Si atom -5575.753829 kJ/mol
# Density = 2.306359 g / cm^3
# Si number density = 23.116207 Si / 1000 Ang^3
#
#
#
# Elastic Constant Matrix: (Units=GPa)
#
#
# Indices 1 2 3 4 5 6 
#
# 1 95.6787 -5.1275 34.7203 0.0004 -16.8951 0.0002
# 2 -5.1275 73.0224 17.4143 0.0002 9.2226 -0.0001
# 3 34.7203 17.4143 143.7812 0.0009 -1.6691 -0.0004
# 4 0.0004 0.0002 0.0009 28.5153 -0.0002 12.3939
# 5 -16.8951 9.2226 -1.6691 -0.0002 26.7928 0.0000
# 6 0.0002 -0.0001 -0.0004 12.3939 0.0000 37.9719
#
#
#
# Elastic Compliance Matrix: (Units=1/GPa)
#
#
# Indices 1 2 3 4 5 6 
#
# 1 0.012995 0.000678 -0.003130 0.000000 0.007766 0.000000
# 2 0.000678 0.014829 -0.002016 0.000000 -0.004802 0.000000
# 3 -0.003130 -0.002016 0.007946 0.000000 -0.000785 0.000000
# 4 0.000000 0.000000 0.000000 0.040866 0.000000 -0.013339
# 5 0.007766 -0.004802 -0.000785 0.000000 0.043825 0.000000
# 6 0.000000 0.000000 0.000000 -0.013339 0.000000 0.030689
#
#
# Mechanical properties :
#
#
# Convention : Reuss Voigt Hill
#
# Bulk Modulus (GPa) = 37.26438 45.16628 41.21533
# Shear Modulus (GPa) = 29.58040 36.35433 32.96737
#
# Velocity S-wave (km/s) = 3.58109 3.97000 3.78055
# Velocity P-wave (km/s) = 5.76666 6.37148 6.07660
#
# Compressibility (1/GPa) = 0.02683528
#
# Stress axis : x y z
#
# Youngs Moduli (GPa) = 76.95151 67.43425 125.85156
#
# Poissons Ratio (x) = -0.04573 0.39392
# Poissons Ratio (y) = -0.05218 0.25366
# Poissons Ratio (z) = 0.24086 0.13592
#
# Static dielectric constant tensor:
#      x y z
#    x 1.956660 0.000000 -0.036160 
#    y 0.000000 2.036170 0.000000 
#    z -0.036160 0.000000 1.816820 
# 
# From -- ./inp_files/83645.got.cif
#   From: 2010.05.17/outbox.cif.g08.bks.cpg/sg15_42_cif.got.tgz:83645.got - 2010.06.03 18:47:42.
