data_PCOD9308967
_publ_section_title
;
Structure prediction by ZEFSAII (Michael W. Deem and Ramdas Pophale) SiO2 
 PCOD9308967
Probable space group: C 2/C
;
_chemical_formula_sum "Si O2"
_cell_formula_units_Z 32
_cell_length_a 15.000000
_cell_length_b 18.000000
_cell_length_c 24.000000
_cell_angle_alpha 90.000000
_cell_angle_beta 30.000000
_cell_angle_gamma 90.000000
_cell_volume 3240.000000
_symmetry_space_group_name_H-M "C 2/C"
_symmetry_group_IT_number 15
_symmetry_cell_setting 'monoclinic'
loop_
_space_group_symop_operation_xyz
x,y,z
-x,y,1/2-z
-x,-y,-z
x,-y,1/2+z
1/2+x,1/2+y,z
1/2-x,1/2+y,1/2-z
1/2-x,1/2-y,-z
1/2+x,1/2-y,1/2+z
loop_
_atom_site_type_symbol
_atom_site_label
_atom_site_fract_x
_atom_site_fract_y
_atom_site_fract_z
Si Si1 0.110344 0.920816 0.340128
Si Si2 0.193869 0.166624 0.976407
Si Si3 0.107908 0.227423 0.911856
Si Si4 0.045578 0.178092 0.660990
Si Si5 0.998212 0.215847 0.187167
Si Si6 0.237338 0.997981 0.925663
Si Si7 0.439801 0.174153 0.418595
Si Si8 0.379439 0.038058 0.230803
O O1 0.100804 0.854058 0.389678
O O2 0.095052 0.877217 0.290901
O O3 0.937790 0.969841 0.448457
O O4 0.283509 0.972072 0.249903
O O5 0.095349 0.218702 0.984665
O O6 0.381857 0.209155 0.881798
O O7 0.223447 0.087034 0.932651
O O8 0.084088 0.164186 0.093263
O O9 0.295201 0.261039 0.789699
O O10 0.966822 0.282269 0.961750
O O11 0.236842 0.147002 0.535287
O O12 0.000000 0.181232 0.750000
O O13 0.043061 0.261379 0.637144
O O14 0.000000 0.186864 0.250000
O O15 0.421573 0.981524 0.857197
O O16 0.261619 0.959577 0.851698
O O17 0.585317 0.111982 0.324210
#
# Coordination Sequence:
#
# PCOD9308967 Si02
#       8
#     8   8   8   8   8   8   8   8
#     4  11  22  40  60  93 126 165 212 256 325 376
#     4  10  20  37  60  89 124 164 211 264 316 379
#     4  10  21  35  60  88 124 161 208 261 314 378
#     4  10  23  44  65  86 127 173 209 264 315 385
#     4   9  20  37  58  88 124 163 211 257 318 375
#     4  11  23  37  64  96 130 158 210 266 320 375
#     4  10  23  40  63  95 126 161 219 262 322 377
#     4  11  23  38  65  96 127 163 207 268 318 378
#
# _framework density 9.8765429999999999
#
# number of rings (size 3 to 8) (size 9 to 14) (size 15 to 20)
#    0.000    1.750    2.500    1.125    7.000    2.000 
#    0.000    2.500    2.750    0.000    0.000    0.000 
#    0.000    0.000    0.000    0.000    0.000    0.000 
#
# Total GULP energy -178377.059621 kJ/mol
# GULP energy per Si atom -5574.283113 kJ/mol
# Density = 0.985406 g / cm^3
# Si number density = 9.876543 Si / 1000 Ang^3
#
#
#
# Elastic Constant Matrix: (Units=GPa)
#
#
# Indices 1 2 3 4 5 6 
#
# 1 58.7688 15.6725 15.1880 0.0009 3.1239 -0.0004
# 2 15.6725 64.7473 6.3161 0.0034 0.0619 -0.0016
# 3 15.1880 6.3161 37.7015 0.0046 16.0438 -0.0004
# 4 0.0009 0.0034 0.0046 20.0937 0.0000 -19.7465
# 5 3.1239 0.0619 16.0438 0.0000 25.2410 -0.0002
# 6 -0.0004 -0.0016 -0.0004 -19.7465 -0.0002 23.1137
#
#
#
# Elastic Compliance Matrix: (Units=1/GPa)
#
#
# Indices 1 2 3 4 5 6 
#
# 1 0.020195 -0.004036 -0.008773 0.000011 0.003087 0.000009
# 2 -0.004036 0.016601 -0.001851 -0.000007 0.001636 -0.000005
# 3 -0.008773 -0.001851 0.040993 -0.000053 -0.024966 -0.000045
# 4 0.000011 -0.000007 -0.000053 0.310185 0.000034 0.264997
# 5 0.003087 0.001636 -0.024966 0.000034 0.055101 0.000029
# 6 0.000009 -0.000005 -0.000045 0.264997 0.000029 0.269657
#
#
# Mechanical properties :
#
#
# Convention : Reuss Voigt Hill
#
# Bulk Modulus (GPa) = 20.63205 26.17452 23.40328
# Shear Modulus (GPa) = 6.59450 21.95909 14.27679
#
# Velocity S-wave (km/s) = 1.82913 3.33780 2.69134
# Velocity P-wave (km/s) = 3.86375 5.30417 4.64019
#
# Compressibility (1/GPa) = 0.04846828
#
# Stress axis : x y z
#
# Youngs Moduli (GPa) = 49.51658 60.23904 24.39460
#
# Poissons Ratio (x) = 0.24310 0.21402
# Poissons Ratio (y) = 0.19982 0.04516
# Poissons Ratio (z) = 0.43442 0.11153
#
# Static dielectric constant tensor:
#      x y z
#    x 2.036220 0.000070 -0.176310 
#    y 0.000070 1.503310 -0.000050 
#    z -0.176310 -0.000050 1.736980 
# 
# From -- ./inp_files/274808.got.cif
#   From: 2010.05.17/outbox.ucp.g08.bks.cvg/sg15_138_cif.got.tgz:274808.got - 2010.06.11 12:40:34.
