data_PCOD9308222
_publ_section_title
;
Structure prediction by ZEFSAII (Michael W. Deem and Ramdas Pophale) SiO2 
 PCOD9308222
Probable space group: C 2/C
;
_chemical_formula_sum "Si O2"
_cell_formula_units_Z 40
_cell_length_a 16.444074
_cell_length_b 9.528460
_cell_length_c 12.047263
_cell_angle_alpha 90.000000
_cell_angle_beta 72.934732
_cell_angle_gamma 90.000000
_cell_volume 1804.534895
_symmetry_space_group_name_H-M "C 2/C"
_symmetry_group_IT_number 15
_symmetry_cell_setting 'monoclinic'
loop_
_space_group_symop_operation_xyz
x,y,z
-x,y,1/2-z
-x,-y,-z
x,-y,1/2+z
1/2+x,1/2+y,z
1/2-x,1/2+y,1/2-z
1/2-x,1/2-y,-z
1/2+x,1/2-y,1/2+z
loop_
_atom_site_type_symbol
_atom_site_label
_atom_site_fract_x
_atom_site_fract_y
_atom_site_fract_z
Si Si1 0.328534 0.480261 0.816329
Si Si2 0.047578 0.365291 0.431565
Si Si3 0.500000 0.308561 0.750000
Si Si4 0.909724 0.730598 0.350755
Si Si5 0.811361 0.465698 0.294719
Si Si6 0.250000 0.250000 0.000000
O O1 0.418451 0.404125 0.765231
O O2 0.350801 0.640645 0.837824
O O3 0.273877 0.474847 0.726318
O O4 0.277643 0.402998 0.934250
O O5 0.989817 0.286952 0.363528
O O6 0.070957 0.268231 0.526006
O O7 0.129394 0.416647 0.331371
O O8 0.000000 0.500000 0.500000
O O9 0.863223 0.585349 0.338535
O O10 0.000000 0.736147 0.250000
O O11 0.789826 0.331366 0.376447
#
# Coordination Sequence:
#
# PCOD9308222 Si02
#       6
#     8   8   4   8   8   4
#     4  12  29  49  76 117 161 207 270 334 409 485
#     4  12  26  49  82 115 159 208 273 328 406 491
#     4  12  28  50  74 116 154 216 260 338 410 480
#     4  12  27  50  80 119 157 209 267 337 403 486
#     4  12  27  51  78 117 158 217 267 332 408 485
#     4  12  28  48  80 112 162 210 266 336 408 486
#
# _framework density 22.166376
#
# number of rings (size 3 to 8) (size 9 to 14) (size 15 to 20)
#    0.000    0.000    5.000    3.600    5.600    4.000 
#    0.000    0.000    0.000    0.000    0.000    0.000 
#    0.000    0.000    0.000    0.000    0.000    0.000 
#
# Total GULP energy -111596.243122 kJ/mol
# GULP energy per Si atom -5579.812156 kJ/mol
# Density = 2.211592 g / cm^3
# Si number density = 22.166376 Si / 1000 Ang^3
#
#
#
# Elastic Constant Matrix: (Units=GPa)
#
#
# Indices 1 2 3 4 5 6 
#
# 1 105.3803 26.5987 41.3594 0.0000 14.7497 0.0000
# 2 26.5987 92.1393 41.6331 0.0000 -1.2810 0.0000
# 3 41.3594 41.6331 143.0576 0.0000 -1.8135 0.0000
# 4 0.0000 0.0000 0.0000-1055.8695 0.0000 640.2055
# 5 14.7497 -1.2810 -1.8135 0.0000 32.3530 0.0000
# 6 0.0000 0.0000 0.0000 640.2055 0.0000 -343.6645
#
#
#
# Elastic Compliance Matrix: (Units=1/GPa)
#
#
# Indices 1 2 3 4 5 6 
#
# 1 0.011987 -0.002235 -0.002887 0.000000 -0.005715 0.000000
# 2 -0.002235 0.012916 -0.003095 0.000000 0.001357 0.000000
# 3 -0.002887 -0.003095 0.008747 0.000000 0.001684 0.000000
# 4 0.000000 0.000000 0.000000 0.007312 0.000000 0.013622
# 5 -0.005715 0.001357 0.001684 0.000000 0.033663 0.000000
# 6 0.000000 0.000000 0.000000 0.013622 0.000000 0.022466
#
#
# Mechanical properties :
#
#
# Convention : Reuss Voigt Hill
#
# Bulk Modulus (GPa) = 58.09278 62.19551 60.14415
# Shear Modulus (GPa) = 41.92346 -258.03714 -108.05684
#
# Velocity S-wave (km/s) = 4.35364 -10.80102 -6.98956
# Velocity P-wave (km/s) = 7.17891 11.28848 6.16008
#
# Compressibility (1/GPa) = 0.01721384
#
# Stress axis : x y z
#
# Youngs Moduli (GPa) = 83.42511 77.42404 114.32250
#
# Poissons Ratio (x) = 0.17305 0.33011
# Poissons Ratio (y) = 0.18646 0.35388
# Poissons Ratio (z) = 0.24089 0.23966
#
# Static dielectric constant tensor:
#      x y z
#    x 1.857850 0.000000 0.022240 
#    y 0.000000 1.783770 0.000000 
#    z 0.022240 0.000000 1.781800 
# 
# From -- ./inp_files/109607.got.cif
#   From: 2010.05.17/outbox.cif.g08.bks.cpg/sg15_55_cif.got.tgz:109607.got - 2010.06.03 18:47:42.
