data_PCOD9308595
_publ_section_title
;
Structure prediction by ZEFSAII (Michael W. Deem and Ramdas Pophale) SiO2 
 PCOD9308595
Probable space group: C 2/C
;
_chemical_formula_sum "Si O2"
_cell_formula_units_Z 32
_cell_length_a 25.165519
_cell_length_b 5.343546
_cell_length_c 10.143153
_cell_angle_alpha 90.000000
_cell_angle_beta 53.309732
_cell_angle_gamma 90.000000
_cell_volume 1093.745438
_symmetry_space_group_name_H-M "C 2/C"
_symmetry_group_IT_number 15
_symmetry_cell_setting 'monoclinic'
loop_
_space_group_symop_operation_xyz
x,y,z
-x,y,1/2-z
-x,-y,-z
x,-y,1/2+z
1/2+x,1/2+y,z
1/2-x,1/2+y,1/2-z
1/2-x,1/2-y,-z
1/2+x,1/2-y,1/2+z
loop_
_atom_site_type_symbol
_atom_site_label
_atom_site_fract_x
_atom_site_fract_y
_atom_site_fract_z
Si Si1 0.959519 0.737384 0.474241
Si Si2 0.833480 0.515447 0.112507
Si Si3 0.919232 0.983798 0.285781
Si Si4 0.206647 0.011475 0.170415
O O1 0.912229 0.522769 0.486957
O O2 0.937239 0.968826 0.411809
O O3 0.038274 0.745958 0.334581
O O4 0.943292 0.803841 0.648542
O O5 0.815110 0.767506 0.215115
O O6 0.786469 0.510003 0.052438
O O7 0.812457 0.268604 0.227095
O O8 0.840165 0.986999 0.387147
#
# Coordination Sequence:
#
# PCOD9308595 Si02
#       4
#     8   8   8   8
#     4   9  18  34  57  85 116 151 191 235 284 338
#     4   9  18  34  56  83 114 148 187 232 282 335
#     4   9  18  34  57  85 116 151 191 235 284 338
#     4   9  18  34  56  83 114 148 187 232 282 335
#
# _framework density 29.257265
#
# number of rings (size 3 to 8) (size 9 to 14) (size 15 to 20)
#    0.000    3.000    0.000    0.000    0.000    2.000 
#    0.000   10.000    0.000   64.500    0.000    0.000 
#    0.000    0.000    0.000    0.000    0.000    0.000 
#
# Total GULP energy -89430.663249 kJ/mol
# GULP energy per Si atom -5589.416453 kJ/mol
# Density = 2.919067 g / cm^3
# Si number density = 29.257265 Si / 1000 Ang^3
#
#
#
# Elastic Constant Matrix: (Units=GPa)
#
#
# Indices 1 2 3 4 5 6 
#
# 1 245.6508 37.8268 26.8947 0.0000 8.4316 0.0000
# 2 37.8268 183.4388 73.4149 0.0000 -16.6345 0.0000
# 3 26.8947 73.4149 82.0160 0.0000 11.7662 0.0000
# 4 0.0000 0.0000 0.0000 26.2327 0.0000 4.3499
# 5 8.4316 -16.6345 11.7662 0.0000 40.8453 0.0000
# 6 0.0000 0.0000 0.0000 4.3499 0.0000 17.2842
#
#
#
# Elastic Compliance Matrix: (Units=1/GPa)
#
#
# Indices 1 2 3 4 5 6 
#
# 1 0.004284 -0.000733 -0.000604 0.000000 -0.001009 0.000000
# 2 -0.000733 0.010239 -0.009956 0.000000 0.007190 0.000000
# 3 -0.000604 -0.009956 0.022809 0.000000 -0.010501 0.000000
# 4 0.000000 0.000000 0.000000 0.039780 0.000000 -0.010012
# 5 -0.001009 0.007190 -0.010501 0.000000 0.030644 0.000000
# 6 0.000000 0.000000 0.000000 -0.010012 0.000000 0.060376
#
#
# Mechanical properties :
#
#
# Convention : Reuss Voigt Hill
#
# Bulk Modulus (GPa) = 67.81401 87.48648 77.65025
# Shear Modulus (GPa) = 25.55766 41.73706 33.64736
#
# Velocity S-wave (km/s) = 2.95879 3.78107 3.39492
# Velocity P-wave (km/s) = 5.90774 7.00210 6.47807
#
# Compressibility (1/GPa) = 0.01474621
#
# Stress axis : x y z
#
# Youngs Moduli (GPa) = 233.40012 97.66288 43.84146
#
# Poissons Ratio (x) = 0.07163 0.02647
# Poissons Ratio (y) = 0.17118 0.43650
# Poissons Ratio (z) = 0.14090 0.97237
#
# Static dielectric constant tensor:
#      x y z
#    x 2.357830 0.000000 -0.097460 
#    y 0.000000 2.236080 0.000000 
#    z -0.097460 0.000000 2.277300 
# 
# From -- ./inp_files/115309.got.cif
#   From: 2010.05.17/outbox.cif.g08.bks.cpg/sg15_58_cif.got.tgz:115309.got - 2010.06.03 18:47:42.
