data_PCOD9308823
_publ_section_title
;
Structure prediction by ZEFSAII (Michael W. Deem and Ramdas Pophale) SiO2 
 PCOD9308823
Probable space group: C 2/C
;
_chemical_formula_sum "Si O2"
_cell_formula_units_Z 28
_cell_length_a 15.000000
_cell_length_b 12.000000
_cell_length_c 30.000000
_cell_angle_alpha 90.000000
_cell_angle_beta 30.000000
_cell_angle_gamma 90.000000
_cell_volume 2700.000000
_symmetry_space_group_name_H-M "C 2/C"
_symmetry_group_IT_number 15
_symmetry_cell_setting 'monoclinic'
loop_
_space_group_symop_operation_xyz
x,y,z
-x,y,1/2-z
-x,-y,-z
x,-y,1/2+z
1/2+x,1/2+y,z
1/2-x,1/2+y,1/2-z
1/2-x,1/2-y,-z
1/2+x,1/2-y,1/2+z
loop_
_atom_site_type_symbol
_atom_site_label
_atom_site_fract_x
_atom_site_fract_y
_atom_site_fract_z
Si Si1 0.607194 0.583144 0.848407
Si Si2 0.850703 0.037853 0.774690
Si Si3 0.200750 0.739220 0.573261
Si Si4 0.214713 0.505419 0.044697
Si Si5 0.714804 0.305357 0.740451
Si Si6 0.411951 0.095641 0.237776
Si Si7 0.029673 0.426020 0.031490
O O1 0.590348 0.571163 0.801292
O O2 0.663058 0.709400 0.832625
O O3 0.774549 0.510391 0.795349
O O4 0.415454 0.548390 0.950604
O O5 0.781912 0.912937 0.793029
O O6 0.000000 0.041885 0.750000
O O7 0.672005 0.104308 0.866146
O O8 0.250000 0.750000 0.500000
O O9 0.223658 0.608150 0.570041
O O10 0.338510 0.823056 0.537074
O O11 0.994050 0.771537 0.668120
O O12 0.124697 0.481984 0.034503
O O13 0.080718 0.580133 0.131617
O O14 0.785878 0.324393 0.760722
O O15 0.500000 0.116220 0.250000
O O16 0.000000 0.500000 0.000000
#
# Coordination Sequence:
#
# PCOD9308823 Si02
#       7
#     8   8   8   8   8   8   8
#     4  11  23  43  70  95 135 176 223 288 334 403
#     4  11  22  40  65 100 136 169 218 279 341 400
#     4  10  19  38  69  95 129 182 225 266 339 410
#     4  11  22  44  68  95 135 180 226 281 338 411
#     4  11  22  43  66  96 133 178 219 284 339 398
#     4  11  24  45  66  95 137 178 228 279 339 410
#     4  11  20  37  64 104 135 170 225 284 337 404
#
# _framework density 10.370369999999999
#
# number of rings (size 3 to 8) (size 9 to 14) (size 15 to 20)
#    0.000    1.143    4.286    6.000    0.000    2.286 
#    2.571    4.286    3.143    0.000    0.000    0.000 
#    0.000    0.000    0.000    0.000    0.000    0.000 
#
# Total GULP energy -156125.205600 kJ/mol
# GULP energy per Si atom -5575.900200 kJ/mol
# Density = 1.034677 g / cm^3
# Si number density = 10.370370 Si / 1000 Ang^3
#
#
#
# Elastic Constant Matrix: (Units=GPa)
#
#
# Indices 1 2 3 4 5 6 
#
# 1 137.2440 28.5686 43.1352 0.0000 -24.9218 0.0000
# 2 28.5686 90.5940 34.2823 0.0001 -19.0173 -0.0001
# 3 43.1352 34.2823 153.7778 0.0007 -29.2140 -0.0003
# 4 0.0000 0.0001 0.0007 29.6943 -0.0001 -2.5504
# 5 -24.9218 -19.0173 -29.2140 -0.0001 42.3786 0.0000
# 6 0.0000 -0.0001 -0.0003 -2.5504 0.0000 26.8234
#
#
#
# Elastic Compliance Matrix: (Units=1/GPa)
#
#
# Indices 1 2 3 4 5 6 
#
# 1 0.008672 -0.001463 -0.001453 0.000000 0.003442 0.000000
# 2 -0.001463 0.012952 -0.001768 0.000000 0.003733 0.000000
# 3 -0.001453 -0.001768 0.008045 0.000000 0.003898 0.000000
# 4 0.000000 0.000000 0.000000 0.033954 0.000000 0.003228
# 5 0.003442 0.003733 0.003898 0.000000 0.029984 0.000000
# 6 0.000000 0.000000 0.000000 0.003228 0.000000 0.037588
#
#
# Mechanical properties :
#
#
# Convention : Reuss Voigt Hill
#
# Bulk Modulus (GPa) = 49.25281 65.95424 57.60353
# Shear Modulus (GPa) = 33.93760 38.15457 36.04608
#
# Velocity S-wave (km/s) = 4.04948 4.29370 4.17338
# Velocity P-wave (km/s) = 6.75743 7.51329 7.14536
#
# Compressibility (1/GPa) = 0.02030341
#
# Stress axis : x y z
#
# Youngs Moduli (GPa) = 115.30878 77.20696 124.29951
#
# Poissons Ratio (x) = 0.11292 0.18056
# Poissons Ratio (y) = 0.16864 0.21976
# Poissons Ratio (z) = 0.16750 0.13650
#
# Static dielectric constant tensor:
#      x y z
#    x 1.722990 0.000000 0.001780 
#    y 0.000000 1.988040 0.000000 
#    z 0.001780 0.000000 1.747960 
# 
# From -- ./inp_files/313698.got.cif
#   From: 2010.05.17/outbox.ucp.g08.bks.cvg/sg15_157_cif.got.tgz:313698.got - 2010.06.11 12:40:34.
