data_PCOD9308704
_publ_section_title
;
Structure prediction by ZEFSAII (Michael W. Deem and Ramdas Pophale) SiO2 
 PCOD9308704
Probable space group: C 2/C
;
_chemical_formula_sum "Si O2"
_cell_formula_units_Z 28
_cell_length_a 15.000000
_cell_length_b 12.000000
_cell_length_c 18.000000
_cell_angle_alpha 90.000000
_cell_angle_beta 120.000000
_cell_angle_gamma 90.000000
_cell_volume 2805.922308
_symmetry_space_group_name_H-M "C 2/C"
_symmetry_group_IT_number 15
_symmetry_cell_setting 'monoclinic'
loop_
_space_group_symop_operation_xyz
x,y,z
-x,y,1/2-z
-x,-y,-z
x,-y,1/2+z
1/2+x,1/2+y,z
1/2-x,1/2+y,1/2-z
1/2-x,1/2-y,-z
1/2+x,1/2-y,1/2+z
loop_
_atom_site_type_symbol
_atom_site_label
_atom_site_fract_x
_atom_site_fract_y
_atom_site_fract_z
Si Si1 0.930443 0.067122 0.571847
Si Si2 0.367100 0.708165 0.850365
Si Si3 0.266830 0.413133 0.877392
Si Si4 0.207672 0.841203 0.347323
Si Si5 0.737488 0.934768 0.689659
Si Si6 0.793875 0.375544 0.089776
Si Si7 0.131727 0.854256 0.889148
O O1 0.865370 0.056928 0.468828
O O2 0.862734 0.120189 0.612046
O O3 0.025201 0.146928 0.592027
O O4 0.950958 0.941259 0.611934
O O5 0.346966 0.678367 0.755361
O O6 0.353016 0.842104 0.852502
O O7 0.282637 0.663205 0.874675
O O8 0.250807 0.281371 0.882833
O O9 0.269312 0.437236 0.789965
O O10 0.181139 0.497307 0.877243
O O11 0.283087 0.944195 0.355966
O O12 0.831930 0.890611 0.677758
O O13 0.880850 0.279677 0.118305
O O14 0.729516 0.372990 0.985840
#
# Coordination Sequence:
#
# PCOD9308704 Si02
#       7
#     8   8   8   8   8   8   8
#     4  10  20  33  52  83 108 136 179 237 278 320
#     4  10  19  32  56  77 106 138 182 229 279 321
#     4  10  19  31  54  78 106 143 185 224 266 339
#     4  10  19  35  53  76 106 144 185 220 272 340
#     4   9  18  34  51  77 103 146 184 223 268 334
#     4   9  16  32  51  80 102 140 176 216 269 335
#     4   8  17  30  52  74 109 136 175 216 274 327
#
# _framework density 9.9788940000000004
#
# number of rings (size 3 to 8) (size 9 to 14) (size 15 to 20)
#    0.000    2.571    1.429    0.857    0.000    2.286 
#    0.000    0.714    0.000    1.714    0.000    4.000 
#    0.000    0.000    0.000    0.000    0.000    0.000 
#
# Total GULP energy -155896.591466 kJ/mol
# GULP energy per Si atom -5567.735410 kJ/mol
# Density = 0.995618 g / cm^3
# Si number density = 9.978894 Si / 1000 Ang^3
#
#
#
# Elastic Constant Matrix: (Units=GPa)
#
#
# Indices 1 2 3 4 5 6 
#
# 1 51.6527 34.7116 13.4012 0.0000 -11.2400 0.0000
# 2 34.7116 191.4017 15.7664 0.0000 6.4539 0.0000
# 3 13.4012 15.7664 66.3488 0.0000 -19.6678 0.0000
# 4 0.0000 0.0000 0.0000 29.3332 0.0000 -12.4997
# 5 -11.2400 6.4539 -19.6678 0.0000 25.4715 0.0000
# 6 0.0000 0.0000 0.0000 -12.4997 0.0000 31.1971
#
#
#
# Elastic Compliance Matrix: (Units=1/GPa)
#
#
# Indices 1 2 3 4 5 6 
#
# 1 0.025477 -0.005007 -0.000321 0.000000 0.012264 0.000000
# 2 -0.005007 0.006498 -0.002173 0.000000 -0.005534 0.000000
# 3 -0.000321 -0.002173 0.020457 0.000000 0.016205 0.000000
# 4 0.000000 0.000000 0.000000 0.041110 0.000000 0.016472
# 5 0.012264 -0.005534 0.016205 0.000000 0.058586 0.000000
# 6 0.000000 0.000000 0.000000 0.016472 0.000000 0.038654
#
#
# Mechanical properties :
#
#
# Convention : Reuss Voigt Hill
#
# Bulk Modulus (GPa) = 26.71717 48.57351 37.64534
# Shear Modulus (GPa) = 22.90830 33.56863 28.23846
#
# Velocity S-wave (km/s) = 3.39165 4.10565 3.76561
# Velocity P-wave (km/s) = 5.36224 6.84588 6.14897
#
# Compressibility (1/GPa) = 0.03742911
#
# Stress axis : x y z
#
# Youngs Moduli (GPa) = 39.25104 153.88435 48.88378
#
# Poissons Ratio (x) = 0.77057 0.01568
# Poissons Ratio (y) = 0.19655 0.10624
# Poissons Ratio (z) = 0.01259 0.33444
#
# Static dielectric constant tensor:
#      x y z
#    x 1.693820 0.000000 0.018440 
#    y 0.000000 1.827590 0.000000 
#    z 0.018440 0.000000 1.706900 
# 
# From -- ./inp_files/181934.got.cif
#   From: 2010.05.17/outbox.ucp.g08.bks.cvg/sg15_91_cif.got.tgz:181934.got - 2010.06.11 12:40:34.
