data_PCOD9308988
_publ_section_title
;
Structure prediction by ZEFSAII (Michael W. Deem and Ramdas Pophale) SiO2 
 PCOD9308988
Probable space group: C 2/C
;
_chemical_formula_sum "Si O2"
_cell_formula_units_Z 28
_cell_length_a 24.000000
_cell_length_b 9.000000
_cell_length_c 15.000000
_cell_angle_alpha 90.000000
_cell_angle_beta 120.000000
_cell_angle_gamma 90.000000
_cell_volume 2805.922308
_symmetry_space_group_name_H-M "C 2/C"
_symmetry_group_IT_number 15
_symmetry_cell_setting 'monoclinic'
loop_
_space_group_symop_operation_xyz
x,y,z
-x,y,1/2-z
-x,-y,-z
x,-y,1/2+z
1/2+x,1/2+y,z
1/2-x,1/2+y,1/2-z
1/2-x,1/2-y,-z
1/2+x,1/2-y,1/2+z
loop_
_atom_site_type_symbol
_atom_site_label
_atom_site_fract_x
_atom_site_fract_y
_atom_site_fract_z
Si Si1 0.216351 0.379524 0.795468
Si Si2 0.150367 0.793575 0.868909
Si Si3 0.664733 0.582839 0.667460
Si Si4 0.920084 0.816545 0.869440
Si Si5 0.134140 0.457797 0.081055
Si Si6 0.230653 0.507695 0.998263
Si Si7 0.569891 0.753633 0.465290
O O1 0.282660 0.457296 0.815069
O O2 0.199835 0.209635 0.754671
O O3 0.162583 0.473084 0.696288
O O4 0.221607 0.398300 0.906598
O O5 0.122535 0.767654 0.749268
O O6 0.194598 0.655987 0.934001
O O7 0.086632 0.787049 0.877806
O O8 0.196828 0.938177 0.918190
O O9 0.602071 0.488330 0.645895
O O10 0.632305 0.676014 0.561791
O O11 0.894777 0.705389 0.926223
O O12 0.997208 0.797033 0.927088
O O13 0.191243 0.457077 0.053662
O O14 0.080804 0.573743 0.000506
#
# Coordination Sequence:
#
# PCOD9308988 Si02
#       7
#     8   8   8   8   8   8   8
#     4  11  21  42  63  95 129 163 215 283 324 393
#     4  10  20  37  65  96 123 169 213 268 324 385
#     4  11  24  39  65  92 127 170 213 270 340 377
#     4  12  22  40  60  94 131 173 215 260 318 406
#     4  10  22  38  67  97 123 172 216 264 335 382
#     4  10  20  39  65  96 133 158 216 277 327 381
#     4  10  22  41  63  90 130 174 215 261 318 396
#
# _framework density 9.9788940000000004
#
# number of rings (size 3 to 8) (size 9 to 14) (size 15 to 20)
#    0.000    1.429    2.857    3.000    2.000    0.000 
#    2.571    2.143    0.000    0.000    0.000    0.000 
#    0.000    0.000    0.000    0.000    0.000    0.000 
#
# Total GULP energy -156056.468440 kJ/mol
# GULP energy per Si atom -5573.445301 kJ/mol
# Density = 0.995618 g / cm^3
# Si number density = 9.978894 Si / 1000 Ang^3
#
#
#
# Elastic Constant Matrix: (Units=GPa)
#
#
# Indices 1 2 3 4 5 6 
#
# 1 63.4371 49.4036 33.5952 0.0000 4.9137 0.0000
# 2 49.4036 104.2016 28.8975 0.0000 -3.5030 0.0000
# 3 33.5952 28.8975 81.4109 0.0000 -5.7105 0.0000
# 4 0.0000 0.0000 0.0000 21.7360 0.0000 7.1857
# 5 4.9137 -3.5030 -5.7105 0.0000 32.2841 0.0000
# 6 0.0000 0.0000 0.0000 7.1857 0.0000 25.6198
#
#
#
# Elastic Compliance Matrix: (Units=1/GPa)
#
#
# Indices 1 2 3 4 5 6 
#
# 1 0.030597 -0.012325 -0.008781 0.000000 -0.007547 0.000000
# 2 -0.012325 0.015617 -0.000210 0.000000 0.003533 0.000000
# 3 -0.008781 -0.000210 0.016275 0.000000 0.004192 0.000000
# 4 0.000000 0.000000 0.000000 0.050709 0.000000 -0.014223
# 5 -0.007547 0.003533 0.004192 0.000000 0.033249 0.000000
# 6 0.000000 0.000000 0.000000 -0.014223 0.000000 0.043021
#
#
# Mechanical properties :
#
#
# Convention : Reuss Voigt Hill
#
# Bulk Modulus (GPa) = 50.35558 52.53802 51.44680
# Shear Modulus (GPa) = 20.94520 25.07152 23.00836
#
# Velocity S-wave (km/s) = 3.24307 3.54818 3.39905
# Velocity P-wave (km/s) = 6.26970 6.57022 6.42172
#
# Compressibility (1/GPa) = 0.01985877
#
# Stress axis : x y z
#
# Youngs Moduli (GPa) = 32.68305 64.03194 61.44297
#
# Poissons Ratio (x) = 0.78920 0.53951
# Poissons Ratio (y) = 0.40282 0.01287
# Poissons Ratio (z) = 0.28698 0.01342
#
# Static dielectric constant tensor:
#      x y z
#    x 1.721040 0.000000 -0.068150 
#    y 0.000000 1.789730 0.000000 
#    z -0.068150 0.000000 1.773930 
# 
# From -- ./inp_files/172304.got.cif
#   From: 2010.05.17/outbox.ucp.g08.bks.cvg/sg15_87_cif.got.tgz:172304.got - 2010.06.11 12:40:34.
