data_PCOD9308866
_publ_section_title
;
Structure prediction by ZEFSAII (Michael W. Deem and Ramdas Pophale) SiO2 
 PCOD9308866
Probable space group: C 2/C
;
_chemical_formula_sum "Si O2"
_cell_formula_units_Z 32
_cell_length_a 12.000000
_cell_length_b 15.000000
_cell_length_c 18.000000
_cell_angle_alpha 90.000000
_cell_angle_beta 90.000000
_cell_angle_gamma 90.000000
_cell_volume 3240.000000
_symmetry_space_group_name_H-M "C 2/C"
_symmetry_group_IT_number 15
_symmetry_cell_setting 'monoclinic'
loop_
_space_group_symop_operation_xyz
x,y,z
-x,y,1/2-z
-x,-y,-z
x,-y,1/2+z
1/2+x,1/2+y,z
1/2-x,1/2+y,1/2-z
1/2-x,1/2-y,-z
1/2+x,1/2-y,1/2+z
loop_
_atom_site_type_symbol
_atom_site_label
_atom_site_fract_x
_atom_site_fract_y
_atom_site_fract_z
Si Si1 0.582758 0.611699 0.436344
Si Si2 0.249608 0.950823 0.712220
Si Si3 0.338620 0.351129 0.308514
Si Si4 0.534824 0.413511 0.407400
Si Si5 0.928501 0.797117 0.825801
Si Si6 0.791863 0.201469 0.641073
Si Si7 0.543188 0.144527 0.333633
Si Si8 0.700720 0.153111 0.133987
O O1 0.553133 0.518025 0.396738
O O2 0.535730 0.603505 0.518603
O O3 0.517352 0.685676 0.389925
O O4 0.713446 0.631077 0.430900
O O5 0.152009 0.884209 0.683424
O O6 0.374250 0.937182 0.680374
O O7 0.263139 0.911611 0.796793
O O8 0.217639 0.051017 0.690289
O O9 0.460217 0.368745 0.343258
O O10 0.328284 0.329848 0.222352
O O11 0.292015 0.259056 0.345331
O O12 0.658075 0.371391 0.414031
O O13 0.838056 0.723422 0.851447
O O14 0.000000 0.781457 0.750000
O O15 0.870838 0.286948 0.629056
O O16 0.500000 0.172657 0.250000
O O17 0.429695 0.134207 0.378636
#
# Coordination Sequence:
#
# PCOD9308866 Si02
#       8
#     8   8   8   8   8   8   8   8
#     4  11  24  41  56  88 129 156 201 244 310 347
#     4  10  20  33  60  92 115 152 190 254 306 341
#     4  12  20  36  64  91 115 153 212 244 299 362
#     4  11  24  38  61  89 116 167 205 247 285 371
#     4  11  20  38  60  87 122 152 186 257 306 353
#     4  11  20  35  61  90 112 145 206 248 295 351
#     4   9  16  34  54  82 119 143 184 245 297 342
#     4  11  20  38  60  88 124 151 196 254 297 360
#
# _framework density 9.8765429999999999
#
# number of rings (size 3 to 8) (size 9 to 14) (size 15 to 20)
#    0.000    1.250    7.500    1.125    0.000    1.000 
#    0.000    8.125    0.000    0.750    0.000    0.000 
#    0.000    0.000    0.000    0.000    0.000    0.000 
#
# Total GULP energy -178180.917105 kJ/mol
# GULP energy per Si atom -5568.153660 kJ/mol
# Density = 0.985406 g / cm^3
# Si number density = 9.876543 Si / 1000 Ang^3
#
#
#
# Elastic Constant Matrix: (Units=GPa)
#
#
# Indices 1 2 3 4 5 6 
#
# 1 143.2088 31.4236 19.3784 0.0000 -33.9186 0.0000
# 2 31.4236 67.3963 8.4331 0.0000 -19.8605 0.0000
# 3 19.3784 8.4331 -4.3719 0.0000 -14.5119 0.0000
# 4 0.0000 0.0000 0.0000 4.9038 0.0000 -7.0346
# 5 -33.9186 -19.8605 -14.5119 0.0000 28.1388 0.0000
# 6 0.0000 0.0000 0.0000 -7.0346 0.0000 173.7236
#
#
#
# Elastic Compliance Matrix: (Units=1/GPa)
#
#
# Indices 1 2 3 4 5 6 
#
# 1 0.009837 -0.001319 0.001766 0.000000 0.011837 0.000000
# 2 -0.001319 0.018815 -0.003081 0.000000 0.010100 0.000000
# 3 0.001766 -0.003081 -0.083593 0.000000 -0.043158 0.000000
# 4 0.000000 0.000000 0.000000 0.216498 0.000000 0.008767
# 5 0.011837 0.010100 -0.043158 0.000000 0.034678 0.000000
# 6 0.000000 0.000000 0.000000 0.008767 0.000000 0.006111
#
#
# Mechanical properties :
#
#
# Convention : Reuss Voigt Hill
#
# Bulk Modulus (GPa) = -16.60812 36.07816 9.73502
# Shear Modulus (GPa) = 26.66044 51.15310 38.90677
#
# Velocity S-wave (km/s) = 3.67779 5.09436 4.44289
# Velocity P-wave (km/s) = 3.09980 7.27376 5.59090
#
# Compressibility (1/GPa) = -0.06021151
#
# Stress axis : x y z
#
# Youngs Moduli (GPa) = 101.65796 53.15022 -11.96266
#
# Poissons Ratio (x) = 0.07012 0.02112
# Poissons Ratio (y) = 0.13411 -0.03686
# Poissons Ratio (z) = -0.17951 0.16378
#
# Static dielectric constant tensor:
#      x y z
#    x 1.717360 0.000000 -0.033660 
#    y 0.000000 1.781230 0.000000 
#    z -0.033660 0.000000 1.718470 
# 
# From -- ./inp_files/198317.got.cif
#   From: 2010.05.17/outbox.ucp.g08.bks.cvg/sg15_100_cif.got.tgz:198317.got - 2010.06.11 12:40:34.
