data_PCOD9308810
_publ_section_title
;
Structure prediction by ZEFSAII (Michael W. Deem and Ramdas Pophale) SiO2 
 PCOD9308810
Probable space group: C 2/C
;
_chemical_formula_sum "Si O2"
_cell_formula_units_Z 28
_cell_length_a 24.000000
_cell_length_b 18.000000
_cell_length_c 21.000000
_cell_angle_alpha 90.000000
_cell_angle_beta 20.000000
_cell_angle_gamma 90.000000
_cell_volume 3102.806740
_symmetry_space_group_name_H-M "C 2/C"
_symmetry_group_IT_number 15
_symmetry_cell_setting 'monoclinic'
loop_
_space_group_symop_operation_xyz
x,y,z
-x,y,1/2-z
-x,-y,-z
x,-y,1/2+z
1/2+x,1/2+y,z
1/2-x,1/2+y,1/2-z
1/2-x,1/2-y,-z
1/2+x,1/2-y,1/2+z
loop_
_atom_site_type_symbol
_atom_site_label
_atom_site_fract_x
_atom_site_fract_y
_atom_site_fract_z
Si Si1 0.386054 0.501114 0.240296
Si Si2 0.000000 0.968408 0.250000
Si Si3 0.360498 0.647768 0.689055
Si Si4 0.500000 0.219526 0.250000
Si Si5 0.255233 0.041348 0.796872
Si Si6 0.886408 0.423399 0.553652
Si Si7 0.761184 0.811075 0.700409
Si Si8 0.264427 0.344628 0.557098
O O1 0.402835 0.509236 0.298211
O O2 0.346469 0.415602 0.259807
O O3 0.241976 0.552149 0.364291
O O4 0.573633 0.518323 0.016594
O O5 0.867870 0.915378 0.425420
O O6 0.292754 0.608128 0.698893
O O7 0.264940 0.725502 0.791769
O O8 0.551599 0.669798 0.483797
O O9 0.383838 0.273991 0.415977
O O10 0.389687 0.170693 0.321982
O O11 0.417232 0.062863 0.665090
O O12 0.323071 0.976375 0.678769
O O13 0.848612 0.341565 0.623435
O O14 0.718128 0.851772 0.680261
#
# Coordination Sequence:
#
# PCOD9308810 Si02
#       8
#     8   4   8   4   8   8   8   8
#     4  11  21  42  57  78 120 157 197 249 282 339
#     4  11  22  38  56  78 104 166 207 226 288 333
#     4  11  21  33  55  85 121 152 187 238 292 348
#     4   9  20  32  46  66 110 168 191 226 274 319
#     4  10  19  38  59  80 112 154 191 244 296 344
#     4  10  20  36  60  81 109 153 194 242 307 341
#     4  12  20  34  54  87 119 152 194 243 294 350
#     4  10  20  34  48  72 115 156 197 235 271 333
#
# _framework density 9.0240880000000008
#
# number of rings (size 3 to 8) (size 9 to 14) (size 15 to 20)
#    0.000    1.429    4.286    2.571    4.000    0.000 
#    7.714    0.000    0.000    0.000    0.000    1.000 
#    0.000    0.000    0.000    0.000    0.000    0.000 
#
# Total GULP energy -156052.922138 kJ/mol
# GULP energy per Si atom -5573.318648 kJ/mol
# Density = 0.900355 g / cm^3
# Si number density = 9.024088 Si / 1000 Ang^3
#
#
#
# Elastic Constant Matrix: (Units=GPa)
#
#
# Indices 1 2 3 4 5 6 
#
# 1 134.9111 37.3748 39.8987 -0.0024 -25.9289 -0.0011
# 2 37.3748 48.4970 18.1268 0.0438 1.5946 -0.0382
# 3 39.8987 18.1268 45.4851 -0.0124 -28.5918 0.0031
# 4 -0.0024 0.0438 -0.0124 22.5941 -0.0078 -9.9029
# 5 -25.9289 1.5946 -28.5918 -0.0078 34.3203 0.0069
# 6 -0.0011 -0.0382 0.0031 -9.9029 0.0069 24.4826
#
#
#
# Elastic Compliance Matrix: (Units=1/GPa)
#
#
# Indices 1 2 3 4 5 6 
#
# 1 0.011902 -0.008517 -0.002404 0.000015 0.007385 -0.000008
# 2 -0.008517 0.038402 -0.027291 -0.000085 -0.030955 0.000037
# 3 -0.002404 -0.027291 0.072693 0.000101 0.060012 -0.000028
# 4 0.000015 -0.000085 0.000101 0.053797 0.000107 0.021760
# 5 0.007385 -0.030955 0.060012 0.000107 0.086150 -0.000036
# 6 -0.000008 0.000037 -0.000028 0.021760 -0.000036 0.049647
#
#
# Mechanical properties :
#
#
# Convention : Reuss Voigt Hill
#
# Bulk Modulus (GPa) = 21.47156 46.63264 34.05210
# Shear Modulus (GPa) = 12.35973 25.17893 18.76933
#
# Velocity S-wave (km/s) = 2.61974 3.73915 3.22834
# Velocity P-wave (km/s) = 4.59057 6.67350 5.72752
#
# Compressibility (1/GPa) = 0.04657324
#
# Stress axis : x y z
#
# Youngs Moduli (GPa) = 84.01983 26.04034 13.75639
#
# Poissons Ratio (x) = 0.22178 0.03307
# Poissons Ratio (y) = 0.71557 0.37543
# Poissons Ratio (z) = 0.20199 0.71068
#
# Static dielectric constant tensor:
#      x y z
#    x 1.635910 0.000000 0.010950 
#    y 0.000000 1.687130 0.000010 
#    z 0.010950 0.000010 1.658390 
# 
# From -- ./inp_files/255921.got.cif
#   From: 2010.05.17/outbox.ucp.g08.bks.cvg/sg15_128_cif.got.tgz:255921.got - 2010.06.11 12:40:34.
