data_PCOD9308420
_publ_section_title
;
Structure prediction by ZEFSAII (Michael W. Deem and Ramdas Pophale) SiO2 
 PCOD9308420
Probable space group: C 2/C
;
_chemical_formula_sum "Si O2"
_cell_formula_units_Z 32
_cell_length_a 10.535123
_cell_length_b 7.852527
_cell_length_c 22.415046
_cell_angle_alpha 90.000000
_cell_angle_beta 34.855270
_cell_angle_gamma 90.000000
_cell_volume 1059.763690
_symmetry_space_group_name_H-M "C 2/C"
_symmetry_group_IT_number 15
_symmetry_cell_setting 'monoclinic'
loop_
_space_group_symop_operation_xyz
x,y,z
-x,y,1/2-z
-x,-y,-z
x,-y,1/2+z
1/2+x,1/2+y,z
1/2-x,1/2+y,1/2-z
1/2-x,1/2-y,-z
1/2+x,1/2-y,1/2+z
loop_
_atom_site_type_symbol
_atom_site_label
_atom_site_fract_x
_atom_site_fract_y
_atom_site_fract_z
Si Si1 0.171185 0.756195 0.751463
Si Si2 0.111209 0.905862 0.079127
Si Si3 0.336745 0.653076 0.539366
Si Si4 0.296646 0.106322 0.636037
O O1 0.355763 0.622267 0.660110
O O2 0.085422 0.697790 0.658790
O O3 0.209627 0.748201 0.808605
O O4 0.263284 0.929358 0.685182
O O5 0.131981 0.902643 0.142825
O O6 0.202778 0.071670 0.011081
O O7 0.250000 0.750000 0.000000
O O8 0.500000 0.500000 0.500000
O O9 0.486223 0.822557 0.483203
#
# Coordination Sequence:
#
# PCOD9308420 Si02
#       4
#     8   8   8   8
#     4  12  30  56  95 139 189 258 312 397 488 562
#     4  12  28  59  95 137 192 249 325 399 468 573
#     4  12  29  61  94 140 193 249 329 400 477 575
#     4  12  29  60  94 140 192 248 323 393 482 576
#
# _framework density 30.195411
#
# number of rings (size 3 to 8) (size 9 to 14) (size 15 to 20)
#    0.000    0.000    2.500    4.500    0.000    9.000 
#   27.000    0.000    0.000    0.000    0.000    0.000 
#    0.000    0.000    0.000    0.000    0.000    0.000 
#
# Total GULP energy -89528.716070 kJ/mol
# GULP energy per Si atom -5595.544754 kJ/mol
# Density = 3.012669 g / cm^3
# Si number density = 30.195411 Si / 1000 Ang^3
#
#
#
# Elastic Constant Matrix: (Units=GPa)
#
#
# Indices 1 2 3 4 5 6 
#
# 1 208.4787 100.5075 92.1423 0.0000 -11.6432 0.0000
# 2 100.5075 263.4532 133.9176 0.0000 -11.0194 0.0000
# 3 92.1423 133.9176 274.4378 0.0000 -19.5411 0.0000
# 4 0.0000 0.0000 0.0000 102.6683 0.0000 4.2704
# 5 -11.6432 -11.0194 -19.5411 0.0000 91.2704 0.0000
# 6 0.0000 0.0000 0.0000 4.2704 0.0000 48.3057
#
#
#
# Elastic Compliance Matrix: (Units=1/GPa)
#
#
# Indices 1 2 3 4 5 6 
#
# 1 0.006183 -0.001731 -0.001208 0.000000 0.000321 0.000000
# 2 -0.001731 0.005533 -0.002119 0.000000 -0.000007 0.000000
# 3 -0.001208 -0.002119 0.005133 0.000000 0.000689 0.000000
# 4 0.000000 0.000000 0.000000 0.009776 0.000000 -0.000864
# 5 0.000321 -0.000007 0.000689 0.000000 0.011144 0.000000
# 6 0.000000 0.000000 0.000000 -0.000864 0.000000 0.020778
#
#
# Mechanical properties :
#
#
# Convention : Reuss Voigt Hill
#
# Bulk Modulus (GPa) = 148.55637 155.50049 152.02843
# Shear Modulus (GPa) = 70.51314 76.43570 73.47442
#
# Velocity S-wave (km/s) = 4.83766 5.03673 4.93820
# Velocity P-wave (km/s) = 8.97269 9.24309 9.10889
#
# Compressibility (1/GPa) = 0.00673145
#
# Stress axis : x y z
#
# Youngs Moduli (GPa) = 161.72608 180.72783 194.82941
#
# Poissons Ratio (x) = 0.31289 0.23543
# Poissons Ratio (y) = 0.27999 0.41289
# Poissons Ratio (z) = 0.19542 0.38300
#
# Static dielectric constant tensor:
#      x y z
#    x 2.547520 0.000000 0.132680 
#    y 0.000000 2.321890 0.000000 
#    z 0.132680 0.000000 2.799630 
# 
# From -- ./inp_files/102383.got.cif
#   From: 2010.05.17/outbox.cif.g08.bks.cpg/sg15_52_cif.got.tgz:102383.got - 2010.06.03 18:47:42.
