data_PCOD9308559
_publ_section_title
;
Structure prediction by ZEFSAII (Michael W. Deem and Ramdas Pophale) SiO2 
 PCOD9308559
Probable space group: C 2/C
;
_chemical_formula_sum "Si O2"
_cell_formula_units_Z 48
_cell_length_a 17.461949
_cell_length_b 31.066273
_cell_length_c 9.671170
_cell_angle_alpha 90.000000
_cell_angle_beta 23.176940
_cell_angle_gamma 90.000000
_cell_volume 2064.833447
_symmetry_space_group_name_H-M "C 2/C"
_symmetry_group_IT_number 15
_symmetry_cell_setting 'monoclinic'
loop_
_space_group_symop_operation_xyz
x,y,z
-x,y,1/2-z
-x,-y,-z
x,-y,1/2+z
1/2+x,1/2+y,z
1/2-x,1/2+y,1/2-z
1/2-x,1/2-y,-z
1/2+x,1/2-y,1/2+z
loop_
_atom_site_type_symbol
_atom_site_label
_atom_site_fract_x
_atom_site_fract_y
_atom_site_fract_z
Si Si1 0.842959 0.466106 0.701448
Si Si2 0.490181 0.705858 0.528198
Si Si3 0.521142 0.873976 0.954813
Si Si4 0.263401 0.034237 0.624640
Si Si5 0.689856 0.624281 0.792403
Si Si6 0.814745 0.290173 0.705834
O O1 0.942155 0.419359 0.528596
O O2 0.755961 0.488277 0.711090
O O3 0.702111 0.465774 0.066818
O O4 0.000000 0.500000 0.500000
O O5 0.461877 0.661545 0.491287
O O6 0.694777 0.710267 0.264142
O O7 0.436179 0.746932 0.526174
O O8 0.336641 0.707401 0.912390
O O9 0.672936 0.874688 0.573143
O O10 0.565874 0.833819 0.976422
O O11 0.317910 0.866649 0.214960
O O12 0.500000 0.045854 0.250000
O O13 0.142720 0.073763 0.887066
#
# Coordination Sequence:
#
# PCOD9308559 Si02
#       6
#     8   8   8   8   8   8
#     4   9  14  23  37  59  82 108 138 174 205 236
#     4   9  16  23  34  49  75 103 134 165 197 250
#     4   9  14  22  36  51  74 102 134 165 200 238
#     4   9  14  23  37  59  82 109 138 174 205 237
#     4   9  13  22  35  52  72 103 133 162 201 239
#     4   9  16  24  32  51  73 104 134 164 202 241
#
# _framework density 23.246426
#
# number of rings (size 3 to 8) (size 9 to 14) (size 15 to 20)
#    0.000    3.000    5.000    1.000    0.000    4.000 
#    0.000    0.000    0.000    1.000    0.000    0.000 
#    0.000    1.333    0.333    0.000    0.000    0.333 
#
# Total GULP energy -133836.968052 kJ/mol
# GULP energy per Si atom -5576.540336 kJ/mol
# Density = 2.319352 g / cm^3
# Si number density = 23.246426 Si / 1000 Ang^3
#
#
#
# Elastic Constant Matrix: (Units=GPa)
#
#
# Indices 1 2 3 4 5 6 
#
# 1 110.8471 91.7868 32.2997 0.0012 -26.2134 -0.0010
# 2 91.7868 202.9163 35.2670 0.0033 -34.3513 -0.0011
# 3 32.2997 35.2670 39.6525 -0.0189 10.2853 0.0069
# 4 0.0012 0.0033 -0.0189 -2.3694 0.0060 -9.6934
# 5 -26.2134 -34.3513 10.2853 0.0060 28.1174 -0.0018
# 6 -0.0010 -0.0011 0.0069 -9.6934 -0.0018 43.5260
#
#
#
# Elastic Compliance Matrix: (Units=1/GPa)
#
#
# Indices 1 2 3 4 5 6 
#
# 1 0.026767 -0.001083 -0.029796 0.000162 0.034530 0.000043
# 2 -0.001083 0.010332 -0.012505 0.000075 0.016187 0.000019
# 3 -0.029796 -0.012505 0.079305 -0.000407 -0.072066 -0.000107
# 4 0.000162 0.000075 -0.000407 -0.220837 0.000435 -0.049181
# 5 0.034530 0.016187 -0.072066 0.000435 0.113894 0.000114
# 6 0.000043 0.000019 -0.000107 -0.049181 0.000114 0.012022
#
#
# Mechanical properties :
#
#
# Convention : Reuss Voigt Hill
#
# Bulk Modulus (GPa) = 33.74507 74.68032 54.21270
# Shear Modulus (GPa) = 42.32570 26.79227 34.55899
#
# Velocity S-wave (km/s) = 4.27164 3.39858 3.85988
# Velocity P-wave (km/s) = 6.23514 6.89896 6.57544
#
# Compressibility (1/GPa) = 0.02963395
#
# Stress axis : x y z
#
# Youngs Moduli (GPa) = 37.35999 96.78719 12.60947
#
# Poissons Ratio (x) = 0.10487 0.37571
# Poissons Ratio (y) = 0.04048 0.15769
# Poissons Ratio (z) = 1.11319 1.21036
#
# Static dielectric constant tensor:
#      x y z
#    x 1.964650 -0.000010 0.127650 
#    y -0.000010 1.895260 0.000000 
#    z 0.127650 0.000000 2.089080 
# 
# From -- ./inp_files/108483.got.cif
#   From: 2010.05.17/outbox.cif.g08.bks.cpg/sg15_55_cif.got.tgz:108483.got - 2010.06.03 18:47:42.
