data_PCOD9308480
_publ_section_title
;
Structure prediction by ZEFSAII (Michael W. Deem and Ramdas Pophale) SiO2 
 PCOD9308480
Probable space group: C 2/C
;
_chemical_formula_sum "Si O2"
_cell_formula_units_Z 64
_cell_length_a 15.858465
_cell_length_b 10.627730
_cell_length_c 18.065275
_cell_angle_alpha 90.000000
_cell_angle_beta 131.703706
_cell_angle_gamma 90.000000
_cell_volume 2273.167317
_symmetry_space_group_name_H-M "C 2/C"
_symmetry_group_IT_number 15
_symmetry_cell_setting 'monoclinic'
loop_
_space_group_symop_operation_xyz
x,y,z
-x,y,1/2-z
-x,-y,-z
x,-y,1/2+z
1/2+x,1/2+y,z
1/2-x,1/2+y,1/2-z
1/2-x,1/2-y,-z
1/2+x,1/2-y,1/2+z
loop_
_atom_site_type_symbol
_atom_site_label
_atom_site_fract_x
_atom_site_fract_y
_atom_site_fract_z
Si Si1 0.614674 0.141048 0.003992
Si Si2 0.515529 0.139324 0.438191
Si Si3 0.298505 0.740876 0.340845
Si Si4 0.519462 0.449582 0.181535
Si Si5 0.654869 0.195404 0.389044
Si Si6 0.055082 0.240746 0.205180
Si Si7 0.219111 0.050917 0.511631
Si Si8 0.874926 0.041974 0.899224
O O1 0.544821 0.237318 0.912378
O O2 0.548369 0.007302 0.953021
O O3 0.601302 0.153950 0.084891
O O4 0.734051 0.122375 0.032579
O O5 0.604523 0.202213 0.547746
O O6 0.541096 0.196654 0.372209
O O7 0.188753 0.753340 0.329625
O O8 0.336533 0.787299 0.280569
O O9 0.313801 0.589906 0.348014
O O10 0.500000 0.392696 0.250000
O O11 0.568936 0.591084 0.224450
O O12 0.392729 0.474799 0.076962
O O13 0.597813 0.396086 0.162679
O O14 0.750000 0.250000 0.500000
O O15 0.685646 0.047287 0.406474
O O16 0.000000 0.292018 0.250000
O O17 0.186261 0.115157 0.570277
O O18 0.000000 0.000000 0.000000
#
# Coordination Sequence:
#
# PCOD9308480 Si02
#       8
#     8   8   8   8   8   8   8   8
#     4   9  16  26  42  62  92 115 149 187 226 273
#     4   8  14  24  40  64  89 110 144 190 222 254
#     4   8  13  23  41  64  85 111 149 188 221 261
#     4   9  17  29  45  64  89 116 146 190 240 283
#     4   8  13  23  42  67  89 106 148 189 220 256
#     4   9  17  28  42  61  89 123 152 183 231 283
#     4   9  16  26  44  66  89 117 149 188 228 277
#     4   8  14  25  42  63  85 112 147 182 224 276
#
# _framework density 28.154548999999999
#
# number of rings (size 3 to 8) (size 9 to 14) (size 15 to 20)
#    0.000    3.500    0.000    0.000    0.000    0.500 
#    0.000    0.000   16.500    0.000    0.000   21.875 
#    0.000    0.000    0.000    0.000    0.000    0.000 
#
# Total GULP energy -178605.069925 kJ/mol
# GULP energy per Si atom -5581.408435 kJ/mol
# Density = 2.809047 g / cm^3
# Si number density = 28.154549 Si / 1000 Ang^3
#
#
#
# Elastic Constant Matrix: (Units=GPa)
#
#
# Indices 1 2 3 4 5 6 
#
# 1 281.6427 33.3670 90.1372 0.0000 -99.8174 0.0000
# 2 33.3670 62.3872 29.2707 0.0000 -23.3704 0.0000
# 3 90.1372 29.2707 126.8142 0.0000 -58.5260 0.0000
# 4 0.0000 0.0000 0.0000 29.2109 0.0000 -22.0405
# 5 -99.8174 -23.3704 -58.5260 0.0000 78.1974 0.0000
# 6 0.0000 0.0000 0.0000 -22.0405 0.0000 46.8050
#
#
#
# Elastic Compliance Matrix: (Units=1/GPa)
#
#
# Indices 1 2 3 4 5 6 
#
# 1 0.006608 -0.000165 -0.001205 0.000000 0.007484 0.000000
# 2 -0.000165 0.018615 -0.002611 0.000000 0.003398 0.000000
# 3 -0.001205 -0.002611 0.012641 0.000000 0.007143 0.000000
# 4 0.000000 0.000000 0.000000 0.053101 0.000000 0.025005
# 5 0.007484 0.003398 0.007143 0.000000 0.028703 0.000000
# 6 0.000000 0.000000 0.000000 0.025005 0.000000 0.033140
#
#
# Mechanical properties :
#
#
# Convention : Reuss Voigt Hill
#
# Bulk Modulus (GPa) = 33.44218 86.26600 59.85409
# Shear Modulus (GPa) = 29.28454 52.04727 40.66591
#
# Velocity S-wave (km/s) = 3.22861 4.30423 3.80462
# Velocity P-wave (km/s) = 5.07961 7.44369 6.37224
#
# Compressibility (1/GPa) = 0.02990236
#
# Stress axis : x y z
#
# Youngs Moduli (GPa) = 151.32588 53.71919 79.10765
#
# Poissons Ratio (x) = 0.00889 0.09531
# Poissons Ratio (y) = 0.02504 0.20653
# Poissons Ratio (z) = 0.18232 0.14025
#
# Static dielectric constant tensor:
#      x y z
#    x 2.236940 0.000000 0.211270 
#    y 0.000000 2.321580 0.000000 
#    z 0.211270 0.000000 1.924280 
# 
# From -- ./inp_files/210974.got.cif
#   From: 2010.05.17/outbox.cif.g08.bks.cpg/sg15_106_cif.got.tgz:210974.got - 2010.06.03 18:47:42.
