data_PCOD9308219
_publ_section_title
;
Structure prediction by ZEFSAII (Michael W. Deem and Ramdas Pophale) SiO2 
 PCOD9308219
Probable space group: C 2/C
;
_chemical_formula_sum "Si O2"
_cell_formula_units_Z 36
_cell_length_a 23.239338
_cell_length_b 4.939621
_cell_length_c 16.432677
_cell_angle_alpha 90.000000
_cell_angle_beta 135.000017
_cell_angle_gamma 90.000000
_cell_volume 1333.860995
_symmetry_space_group_name_H-M "C 2/C"
_symmetry_group_IT_number 15
_symmetry_cell_setting 'monoclinic'
loop_
_space_group_symop_operation_xyz
x,y,z
-x,y,1/2-z
-x,-y,-z
x,-y,1/2+z
1/2+x,1/2+y,z
1/2-x,1/2+y,1/2-z
1/2-x,1/2-y,-z
1/2+x,1/2-y,1/2+z
loop_
_atom_site_type_symbol
_atom_site_label
_atom_site_fract_x
_atom_site_fract_y
_atom_site_fract_z
Si Si1 0.963040 0.642237 0.544221
Si Si2 0.637514 0.665973 0.081240
Si Si3 0.331181 0.607767 0.618142
Si Si4 0.500000 0.624998 0.250000
Si Si5 0.306273 0.915970 0.193786
O O1 0.890950 0.433113 0.494740
O O2 0.000000 0.500000 0.500000
O O3 0.158553 0.724019 0.691300
O O4 0.928794 0.931689 0.483330
O O5 0.717252 0.525982 0.125803
O O6 0.250000 0.750000 0.500000
O O7 0.416059 0.544803 0.657024
O O8 0.353790 0.816892 0.712840
O O9 0.195463 0.181685 0.374257
O O10 0.490965 0.794799 0.324907
#
# Coordination Sequence:
#
# PCOD9308219 Si02
#       5
#     8   8   8   4   8
#     4  12  28  52  79 118 170 225 283 356 433 514
#     4  12  26  49  81 118 163 219 285 353 429 514
#     4  12  28  52  79 118 170 225 283 356 433 514
#     4  12  32  54  84 126 172 226 292 354 432 522
#     4  12  26  49  81 118 163 219 285 353 429 514
#
# _framework density 26.989318999999998
#
# number of rings (size 3 to 8) (size 9 to 14) (size 15 to 20)
#    0.000    0.000    0.000    9.333    0.000    8.889 
#    0.000    4.444    0.000    0.000    0.000    0.000 
#    0.000    0.000    0.000    0.000    0.000    0.000 
#
# Total GULP energy -100963.719935 kJ/mol
# GULP energy per Si atom -5609.095552 kJ/mol
# Density = 2.692789 g / cm^3
# Si number density = 26.989319 Si / 1000 Ang^3
#
#
#
# Elastic Constant Matrix: (Units=GPa)
#
#
# Indices 1 2 3 4 5 6 
#
# 1 153.9238 52.7559 62.2463 0.0000 4.5692 -0.0002
# 2 52.7559 180.2808 52.7559 -0.0002 0.0013 -0.0011
# 3 62.2463 52.7559 153.9246 -0.0003 -4.5679 0.0001
# 4 0.0000 -0.0002 -0.0003 65.3545 0.0000 -0.0002
# 5 4.5692 0.0013 -4.5679 0.0000 33.5535 0.0001
# 6 -0.0002 -0.0011 0.0001 -0.0002 0.0001 65.3549
#
#
#
# Elastic Compliance Matrix: (Units=1/GPa)
#
#
# Indices 1 2 3 4 5 6 
#
# 1 0.008227 -0.001579 -0.002830 0.000000 -0.001506 0.000000
# 2 -0.001579 0.006471 -0.001579 0.000000 0.000000 0.000000
# 3 -0.002830 -0.001579 0.008227 0.000000 0.001506 0.000000
# 4 0.000000 0.000000 0.000000 0.015301 0.000000 0.000000
# 5 -0.001506 0.000000 0.001506 0.000000 0.030213 0.000000
# 6 0.000000 0.000000 0.000000 0.000000 0.000000 0.015301
#
#
# Mechanical properties :
#
#
# Convention : Reuss Voigt Hill
#
# Bulk Modulus (GPa) = 91.34333 91.51619 91.42976
# Shear Modulus (GPa) = 50.31772 54.21064 52.26418
#
# Velocity S-wave (km/s) = 4.32250 4.48660 4.40532
# Velocity P-wave (km/s) = 7.67006 7.79880 7.73470
#
# Compressibility (1/GPa) = 0.01094771
#
# Stress axis : x y z
#
# Youngs Moduli (GPa) = 121.54590 154.53087 121.54673
#
# Poissons Ratio (x) = 0.24405 0.34404
# Poissons Ratio (y) = 0.19195 0.19196
# Poissons Ratio (z) = 0.34404 0.24405
#
# Static dielectric constant tensor:
#      x y z
#    x 2.219170 0.000000 0.000000 
#    y 0.000000 1.998420 0.000000 
#    z 0.000000 0.000000 2.219160 
# 
# From -- ./inp_files/302769.got.cif
#   From: 2010.05.17/outbox.cif.g08.bks.cpg/sg15_152_cif.got.tgz:302769.got - 2010.06.03 18:47:42.
