data_PCOD9308029
_publ_section_title
;
Structure prediction by ZEFSAII (Michael W. Deem and Ramdas Pophale) SiO2 
 PCOD9308029
Probable space group: C 2/C
;
_chemical_formula_sum "Si O2"
_cell_formula_units_Z 40
_cell_length_a 11.432365
_cell_length_b 11.254039
_cell_length_c 13.414092
_cell_angle_alpha 90.000000
_cell_angle_beta 82.759829
_cell_angle_gamma 90.000000
_cell_volume 1712.099848
_symmetry_space_group_name_H-M "C 2/C"
_symmetry_group_IT_number 15
_symmetry_cell_setting 'monoclinic'
loop_
_space_group_symop_operation_xyz
x,y,z
-x,y,1/2-z
-x,-y,-z
x,-y,1/2+z
1/2+x,1/2+y,z
1/2-x,1/2+y,1/2-z
1/2-x,1/2-y,-z
1/2+x,1/2-y,1/2+z
loop_
_atom_site_type_symbol
_atom_site_label
_atom_site_fract_x
_atom_site_fract_y
_atom_site_fract_z
Si Si1 0.678125 0.709685 0.819894
Si Si2 0.544251 0.523374 0.384559
Si Si3 0.268080 0.190372 0.390812
Si Si4 0.931706 0.747162 0.855881
Si Si5 0.991935 0.373162 0.551946
O O1 0.583709 0.604067 0.838726
O O2 0.720171 0.719925 0.701947
O O3 0.799147 0.697724 0.869266
O O4 0.616993 0.829027 0.869282
O O5 0.500000 0.500000 0.500000
O O6 0.664151 0.600252 0.375442
O O7 0.443202 0.608641 0.348736
O O8 0.250000 0.250000 0.500000
O O9 0.395300 0.132107 0.389330
O O10 0.000000 0.702047 0.750000
O O11 0.990479 0.713200 0.954871
O O12 0.000000 0.500000 0.500000
#
# Coordination Sequence:
#
# PCOD9308029 Si02
#       5
#     8   8   8   8   8
#     4  12  27  50  76 113 154 199 257 312 383 461
#     4  12  26  48  81 109 152 204 256 315 384 460
#     4  12  25  49  72 112 149 193 253 315 380 455
#     4  12  25  50  74 111 150 199 254 313 384 457
#     4  12  27  46  75 106 153 197 248 314 384 453
#
# _framework density 23.363122000000001
#
# number of rings (size 3 to 8) (size 9 to 14) (size 15 to 20)
#    0.000    0.000    6.000    2.400    2.800    8.000 
#    0.000    0.000    0.000    0.000    0.000    0.000 
#    0.000    0.000    0.000    0.000    0.000    0.000 
#
# Total GULP energy -111835.258740 kJ/mol
# GULP energy per Si atom -5591.762937 kJ/mol
# Density = 2.330995 g / cm^3
# Si number density = 23.363122 Si / 1000 Ang^3
#
#
#
# Elastic Constant Matrix: (Units=GPa)
#
#
# Indices 1 2 3 4 5 6 
#
# 1 104.8691 6.8801 -3.6942 0.0000 6.5811 0.0000
# 2 6.8801 92.3874 15.5386 0.0000 -6.4483 0.0000
# 3 -3.6942 15.5386 129.1555 0.0000 -11.7948 0.0000
# 4 0.0000 0.0000 0.0000 24.9701 0.0000 -15.0036
# 5 6.5811 -6.4483 -11.7948 0.0000 43.3822 0.0000
# 6 0.0000 0.0000 0.0000 -15.0036 0.0000 42.0292
#
#
#
# Elastic Compliance Matrix: (Units=1/GPa)
#
#
# Indices 1 2 3 4 5 6 
#
# 1 0.009698 -0.000870 0.000242 0.000000 -0.001535 0.000000
# 2 -0.000870 0.011199 -0.001239 0.000000 0.001460 0.000000
# 3 0.000242 -0.001239 0.008079 0.000000 0.001976 0.000000
# 4 0.000000 0.000000 0.000000 0.050984 0.000000 0.018200
# 5 -0.001535 0.001460 0.001976 0.000000 0.024038 0.000000
# 6 0.000000 0.000000 0.000000 0.018200 0.000000 0.030290
#
#
# Mechanical properties :
#
#
# Convention : Reuss Voigt Hill
#
# Bulk Modulus (GPa) = 39.61711 40.42899 40.02305
# Shear Modulus (GPa) = 34.14479 42.58879 38.36679
#
# Velocity S-wave (km/s) = 3.82708 4.27418 4.05680
# Velocity P-wave (km/s) = 6.04340 6.45758 6.25392
#
# Compressibility (1/GPa) = 0.02524162
#
# Stress axis : x y z
#
# Youngs Moduli (GPa) = 103.11825 89.29342 123.77766
#
# Poissons Ratio (x) = 0.07768 -0.02994
# Poissons Ratio (y) = 0.08971 0.15335
# Poissons Ratio (z) = -0.02494 0.11063
#
# Static dielectric constant tensor:
#      x y z
#    x 1.988840 0.000000 -0.075100 
#    y 0.000000 1.972630 0.000000 
#    z -0.075100 0.000000 2.619150 
# 
# From -- ./inp_files/141731.got.cif
#   From: 2010.05.17/outbox.cif.g08.bks.cpg/sg15_71_cif.got.tgz:141731.got - 2010.06.03 18:47:42.
