data_PCOD9308609
_publ_section_title
;
Structure prediction by ZEFSAII (Michael W. Deem and Ramdas Pophale) SiO2 
 PCOD9308609
Probable space group: C 2/C
;
_chemical_formula_sum "Si O2"
_cell_formula_units_Z 18
_cell_length_a 15.000000
_cell_length_b 18.000000
_cell_length_c 9.000000
_cell_angle_alpha 90.000000
_cell_angle_beta 50.000000
_cell_angle_gamma 90.000000
_cell_volume 1861.487997
_symmetry_space_group_name_H-M "C 2/C"
_symmetry_group_IT_number 15
_symmetry_cell_setting 'monoclinic'
loop_
_space_group_symop_operation_xyz
x,y,z
-x,y,1/2-z
-x,-y,-z
x,-y,1/2+z
1/2+x,1/2+y,z
1/2-x,1/2+y,1/2-z
1/2-x,1/2-y,-z
1/2+x,1/2-y,1/2+z
loop_
_atom_site_type_symbol
_atom_site_label
_atom_site_fract_x
_atom_site_fract_y
_atom_site_fract_z
Si Si1 0.861227 0.649139 0.923678
Si Si2 0.188803 0.954812 0.754870
Si Si3 0.192847 0.795571 0.348479
Si Si4 0.000000 0.126051 0.250000
Si Si5 0.862652 0.103206 0.855237
O O1 0.800952 0.672396 0.830765
O O2 0.000000 0.648170 0.750000
O O3 0.805927 0.573078 0.046454
O O4 0.816864 0.708579 0.096866
O O5 0.084080 0.918448 0.770706
O O6 0.165211 0.041230 0.742628
O O7 0.186165 0.928121 0.931520
O O8 0.080173 0.826718 0.555310
O O9 0.184074 0.823295 0.185686
O O10 0.000000 0.111774 0.750000
#
# Coordination Sequence:
#
# PCOD9308609 Si02
#       5
#     8   8   8   4   8
#     4  10  22  42  63  87 126 174 209 252 312 383
#     4  11  22  36  61  95 126 163 205 254 321 372
#     4  10  21  36  64  90 122 161 214 255 317 368
#     4  10  16  34  58  90 118 154 196 256 306 366
#     4  12  22  38  63 100 131 156 208 273 318 365
#
# _framework density 9.6696840000000002
#
# number of rings (size 3 to 8) (size 9 to 14) (size 15 to 20)
#    0.000    1.333    4.444    3.333    0.000    0.889 
#    0.000    5.556    0.000    0.000    0.000    0.000 
#    0.000    0.000    0.000    0.000    0.000    0.000 
#
# Total GULP energy -100320.967618 kJ/mol
# GULP energy per Si atom -5573.387090 kJ/mol
# Density = 0.964767 g / cm^3
# Si number density = 9.669684 Si / 1000 Ang^3
#
#
#
# Elastic Constant Matrix: (Units=GPa)
#
#
# Indices 1 2 3 4 5 6 
#
# 1 121.2938 17.7447 45.6807 0.0000 6.3867 0.0000
# 2 17.7447 53.1179 -1.8548 0.0000 6.8873 0.0000
# 3 45.6807 -1.8548 77.9109 0.0000 9.0696 0.0000
# 4 0.0000 0.0000 0.0000 22.8310 0.0000 14.4106
# 5 6.3867 6.8873 9.0696 0.0000 53.2083 0.0000
# 6 0.0000 0.0000 0.0000 14.4106 0.0000 28.9133
#
#
#
# Elastic Compliance Matrix: (Units=1/GPa)
#
#
# Indices 1 2 3 4 5 6 
#
# 1 0.011391 -0.004085 -0.006814 0.000000 0.000323 0.000000
# 2 -0.004085 0.020657 0.003205 0.000000 -0.002730 0.000000
# 3 -0.006814 0.003205 0.017201 0.000000 -0.002529 0.000000
# 4 0.000000 0.000000 0.000000 0.063903 0.000000 -0.031850
# 5 0.000323 -0.002730 -0.002529 0.000000 0.019540 0.000000
# 6 0.000000 0.000000 0.000000 -0.031850 0.000000 0.050461
#
#
# Mechanical properties :
#
#
# Convention : Reuss Voigt Hill
#
# Bulk Modulus (GPa) = 29.53305 41.71822 35.62563
# Shear Modulus (GPa) = 23.82910 33.70731 28.76820
#
# Velocity S-wave (km/s) = 3.51401 4.17938 3.86106
# Velocity P-wave (km/s) = 5.63636 6.70135 6.19179
#
# Compressibility (1/GPa) = 0.03386037
#
# Stress axis : x y z
#
# Youngs Moduli (GPa) = 87.78692 48.41067 58.13651
#
# Poissons Ratio (x) = 0.19777 0.39613
# Poissons Ratio (y) = 0.35862 -0.18631
# Poissons Ratio (z) = 0.59816 -0.15514
#
# Static dielectric constant tensor:
#      x y z
#    x 1.660400 0.000000 -0.001380 
#    y 0.000000 1.793570 0.000000 
#    z -0.001380 0.000000 1.679050 
# 
# From -- ./inp_files/30112.got.cif
#   From: 2010.05.17/outbox.ucp.g08.bks.cvg/sg15_16_cif.got.tgz:30112.got - 2010.06.11 12:40:34.
