data_PCOD9308759
_publ_section_title
;
Structure prediction by ZEFSAII (Michael W. Deem and Ramdas Pophale) SiO2 
 PCOD9308759
Probable space group: C 2/C
;
_chemical_formula_sum "Si O2"
_cell_formula_units_Z 28
_cell_length_a 21.000000
_cell_length_b 6.000000
_cell_length_c 27.000000
_cell_angle_alpha 90.000000
_cell_angle_beta 60.000000
_cell_angle_gamma 90.000000
_cell_volume 2946.218424
_symmetry_space_group_name_H-M "C 2/C"
_symmetry_group_IT_number 15
_symmetry_cell_setting 'monoclinic'
loop_
_space_group_symop_operation_xyz
x,y,z
-x,y,1/2-z
-x,-y,-z
x,-y,1/2+z
1/2+x,1/2+y,z
1/2-x,1/2+y,1/2-z
1/2-x,1/2-y,-z
1/2+x,1/2-y,1/2+z
loop_
_atom_site_type_symbol
_atom_site_label
_atom_site_fract_x
_atom_site_fract_y
_atom_site_fract_z
Si Si1 0.837088 0.002599 0.224396
Si Si2 0.013030 0.773325 0.802491
Si Si3 0.112292 0.101518 0.634211
Si Si4 0.761318 0.327073 0.569460
Si Si5 0.894500 0.383872 0.764929
Si Si6 0.747277 0.168685 0.675022
Si Si7 0.686836 0.928489 0.537171
O O1 0.856322 0.759322 0.237144
O O2 0.799376 0.990272 0.186199
O O3 0.914107 0.129519 0.200417
O O4 0.778113 0.122359 0.282417
O O5 0.036153 0.513690 0.785927
O O6 0.000000 0.836628 0.750000
O O7 0.943247 0.895593 0.854628
O O8 0.092264 0.222812 0.693581
O O9 0.121317 0.293257 0.588815
O O10 0.193896 0.996491 0.606735
O O11 0.789846 0.246906 0.610538
O O12 0.821984 0.438133 0.510706
O O13 0.723492 0.114284 0.558065
O O14 0.831516 0.556352 0.807522
O O15 0.750000 0.750000 0.500000
#
# Coordination Sequence:
#
# PCOD9308759 Si02
#       7
#     8   8   8   8   8   8   8
#     4  11  22  35  52  84 115 155 191 226 286 357
#     4  11  24  34  50  82 115 153 194 222 286 360
#     4  11  20  37  58  79 120 156 186 240 295 335
#     4  10  19  35  58  90 111 146 197 240 296 342
#     4  11  21  34  53  79 115 154 185 234 283 348
#     4  11  20  35  57  80 117 150 191 236 290 348
#     4   9  20  34  57  88 114 145 195 244 294 335
#
# _framework density 9.5037079999999996
#
# number of rings (size 3 to 8) (size 9 to 14) (size 15 to 20)
#    0.000    1.429    5.714    0.857    2.000    0.000 
#    0.000    0.000    0.000    0.857    0.000   10.000 
#    0.000    0.000    0.000    0.000    0.000    0.000 
#
# Total GULP energy -155913.599752 kJ/mol
# GULP energy per Si atom -5568.342848 kJ/mol
# Density = 0.948208 g / cm^3
# Si number density = 9.503708 Si / 1000 Ang^3
#
#
#
# Elastic Constant Matrix: (Units=GPa)
#
#
# Indices 1 2 3 4 5 6 
#
# 1 59.1571 14.3445 17.4601 0.0013 3.2147 -0.0493
# 2 14.3445 76.6057 18.6399 0.0037 1.3482 -0.0060
# 3 17.4601 18.6399 47.5821 0.0116 8.9210 0.0033
# 4 0.0013 0.0037 0.0116 33.0076 0.0044 -4.2798
# 5 3.2147 1.3482 8.9210 0.0044 22.2752 -0.0039
# 6 -0.0493 -0.0060 0.0033 -4.2798 -0.0039 28.5332
#
#
#
# Elastic Compliance Matrix: (Units=1/GPa)
#
#
# Indices 1 2 3 4 5 6 
#
# 1 0.019254 -0.002090 -0.006216 0.000006 -0.000163 0.000034
# 2 -0.002090 0.014703 -0.005279 0.000000 0.001526 0.000000
# 3 -0.006216 -0.005279 0.027178 -0.000010 -0.009668 -0.000018
# 4 0.000006 0.000000 -0.000010 0.030897 -0.000002 0.004634
# 5 -0.000163 0.001526 -0.009668 -0.000002 0.048696 0.000007
# 6 0.000034 0.000000 -0.000018 0.004634 0.000007 0.035742
#
#
# Mechanical properties :
#
#
# Convention : Reuss Voigt Hill
#
# Bulk Modulus (GPa) = 29.44194 31.58153 30.51173
# Shear Modulus (GPa) = 23.25993 25.62323 24.44158
#
# Velocity S-wave (km/s) = 3.50198 3.67558 3.58983
# Velocity P-wave (km/s) = 5.64581 5.88767 5.76801
#
# Compressibility (1/GPa) = 0.03396516
#
# Stress axis : x y z
#
# Youngs Moduli (GPa) = 51.93595 68.01409 36.79469
#
# Poissons Ratio (x) = 0.14215 0.22872
# Poissons Ratio (y) = 0.10855 0.19423
# Poissons Ratio (z) = 0.32284 0.35904
#
# Static dielectric constant tensor:
#      x y z
#    x 1.668470 -0.000010 0.011300 
#    y -0.000010 1.769660 -0.000010 
#    z 0.011300 -0.000010 1.701670 
# 
# From -- ./inp_files/278688.got.cif
#   From: 2010.05.17/outbox.ucp.g08.bks.cvg/sg15_140_cif.got.tgz:278688.got - 2010.06.11 12:40:34.
