data_PCOD9308431
_publ_section_title
;
Structure prediction by ZEFSAII (Michael W. Deem and Ramdas Pophale) SiO2 
 PCOD9308431
Probable space group: C 2/C
;
_chemical_formula_sum "Si O2"
_cell_formula_units_Z 20
_cell_length_a 13.570598
_cell_length_b 5.120745
_cell_length_c 9.567004
_cell_angle_alpha 90.000000
_cell_angle_beta 85.146616
_cell_angle_gamma 90.000000
_cell_volume 662.442386
_symmetry_space_group_name_H-M "C 2/C"
_symmetry_group_IT_number 15
_symmetry_cell_setting 'monoclinic'
loop_
_space_group_symop_operation_xyz
x,y,z
-x,y,1/2-z
-x,-y,-z
x,-y,1/2+z
1/2+x,1/2+y,z
1/2-x,1/2+y,1/2-z
1/2-x,1/2-y,-z
1/2+x,1/2-y,1/2+z
loop_
_atom_site_type_symbol
_atom_site_label
_atom_site_fract_x
_atom_site_fract_y
_atom_site_fract_z
Si Si1 0.903753 0.175779 0.977583
Si Si2 0.250000 0.250000 0.000000
Si Si3 0.609467 0.067251 0.754706
O O1 0.883608 0.440462 0.077694
O O2 0.813284 0.003219 0.033300
O O3 0.899690 0.293371 0.823978
O O4 0.000000 0.000000 0.000000
O O5 0.311525 0.234624 0.837888
O O6 0.500000 0.189151 0.750000
#
# Coordination Sequence:
#
# PCOD9308431 Si02
#       3
#     8   4   8
#     4  12  30  57  90 128 182 241 304 377 457 546
#     4  12  30  52  90 130 176 244 306 372 456 546
#     4  12  29  54  88 128 186 237 303 381 458 536
#
# _framework density 30.191303999999999
#
# number of rings (size 3 to 8) (size 9 to 14) (size 15 to 20)
#    0.000    0.000    4.000    2.400   11.200    0.000 
#    0.000    0.000    0.000    0.000    0.000    0.000 
#    0.000    0.000    0.000    0.000    0.000    0.000 
#
# Total GULP energy -55730.501771 kJ/mol
# GULP energy per Si atom -5573.050177 kJ/mol
# Density = 3.012259 g / cm^3
# Si number density = 30.191304 Si / 1000 Ang^3
#
#
#
# Elastic Constant Matrix: (Units=GPa)
#
#
# Indices 1 2 3 4 5 6 
#
# 1 129.9751 31.6024 59.6136 0.0000 -41.4610 0.0000
# 2 31.6024 179.7831 76.1517 0.0000 -12.8132 0.0000
# 3 59.6136 76.1517 201.4097 0.0000 -13.1568 0.0000
# 4 0.0000 0.0000 0.0000 77.6630 0.0000 -16.3462
# 5 -41.4610 -12.8132 -13.1568 0.0000 58.0355 0.0000
# 6 0.0000 0.0000 0.0000 -16.3462 0.0000 27.9477
#
#
#
# Elastic Compliance Matrix: (Units=1/GPa)
#
#
# Indices 1 2 3 4 5 6 
#
# 1 0.011423 -0.000298 -0.002781 0.000000 0.007464 0.000000
# 2 -0.000298 0.006678 -0.002390 0.000000 0.000720 0.000000
# 3 -0.002781 -0.002390 0.006625 0.000000 -0.001012 0.000000
# 4 0.000000 0.000000 0.000000 0.014684 0.000000 0.008588
# 5 0.007464 0.000720 -0.001012 0.000000 0.022493 0.000000
# 6 0.000000 0.000000 0.000000 0.008588 0.000000 0.040804
#
#
# Mechanical properties :
#
#
# Convention : Reuss Voigt Hill
#
# Bulk Modulus (GPa) = 72.51959 93.98926 83.25443
# Shear Modulus (GPa) = 42.28676 55.64927 48.96802
#
# Velocity S-wave (km/s) = 3.74656 4.29793 4.03168
# Velocity P-wave (km/s) = 6.54123 7.47184 7.02197
#
# Compressibility (1/GPa) = 0.01378938
#
# Stress axis : x y z
#
# Youngs Moduli (GPa) = 87.54571 149.74132 150.93352
#
# Poissons Ratio (x) = 0.04464 0.41968
# Poissons Ratio (y) = 0.02610 0.36069
# Poissons Ratio (z) = 0.24343 0.35784
#
# Static dielectric constant tensor:
#      x y z
#    x 5.562920 0.000000 -0.110510 
#    y 0.000000 2.833550 0.000000 
#    z -0.110510 0.000000 2.221030 
# 
# From -- ./inp_files/45091.got.cif
#   From: 2010.05.17/outbox.cif.g08.bks.cpg/sg15_23_cif.got.tgz:45091.got - 2010.06.03 18:47:42.
