data_PCOD9308090
_publ_section_title
;
Structure prediction by ZEFSAII (Michael W. Deem and Ramdas Pophale) SiO2 
 PCOD9308090
Probable space group: C 2/C
;
_chemical_formula_sum "Si O2"
_cell_formula_units_Z 44
_cell_length_a 20.211599
_cell_length_b 10.945663
_cell_length_c 9.260785
_cell_angle_alpha 90.000000
_cell_angle_beta 111.183517
_cell_angle_gamma 90.000000
_cell_volume 1910.318401
_symmetry_space_group_name_H-M "C 2/C"
_symmetry_group_IT_number 15
_symmetry_cell_setting 'monoclinic'
loop_
_space_group_symop_operation_xyz
x,y,z
-x,y,1/2-z
-x,-y,-z
x,-y,1/2+z
1/2+x,1/2+y,z
1/2-x,1/2+y,1/2-z
1/2-x,1/2-y,-z
1/2+x,1/2-y,1/2+z
loop_
_atom_site_type_symbol
_atom_site_label
_atom_site_fract_x
_atom_site_fract_y
_atom_site_fract_z
Si Si1 0.300599 0.941349 0.387671
Si Si2 0.205054 0.950759 0.054690
Si Si3 0.064494 0.405740 0.559221
Si Si4 0.000000 0.233266 0.750000
Si Si5 0.421564 0.292020 0.674250
Si Si6 0.627455 0.300516 0.539726
O O1 0.245894 0.894858 0.223030
O O2 0.335544 0.822560 0.488449
O O3 0.259163 0.026760 0.466754
O O4 0.362816 0.020718 0.364539
O O5 0.178952 0.084887 0.080579
O O6 0.137565 0.873780 0.950478
O O7 0.044120 0.315124 0.671944
O O8 0.069632 0.329048 0.415174
O O9 0.000000 0.500000 0.500000
O O10 0.941235 0.164967 0.609224
O O11 0.500000 0.349971 0.750000
O O12 0.396287 0.268739 0.816878
#
# Coordination Sequence:
#
# PCOD9308090 Si02
#       6
#     8   8   8   4   8   8
#     4  12  26  48  75 106 155 191 251 305 375 450
#     4  12  29  47  74 110 150 204 243 310 379 449
#     4  12  27  47  78 113 148 193 249 310 373 440
#     4  12  26  44  78 112 142 196 250 314 366 440
#     4  12  27  50  76 106 151 197 249 311 378 446
#     4  12  27  48  75 108 149 197 256 307 374 449
#
# _framework density 23.032810000000001
#
# number of rings (size 3 to 8) (size 9 to 14) (size 15 to 20)
#    0.000    0.000    5.455    2.727   10.182    2.182 
#    0.000    0.000    0.000    0.000    0.000    0.000 
#    0.000    0.000    0.000    0.000    0.000    0.000 
#
# Total GULP energy -123301.833586 kJ/mol
# GULP energy per Si atom -5604.628799 kJ/mol
# Density = 2.298039 g / cm^3
# Si number density = 23.032810 Si / 1000 Ang^3
#
#
#
# Elastic Constant Matrix: (Units=GPa)
#
#
# Indices 1 2 3 4 5 6 
#
# 1 114.1778 25.9621 16.1573 0.0000 9.9664 0.0000
# 2 25.9621 36.0951 -10.9756 0.0000 0.1752 0.0000
# 3 16.1573 -10.9756 97.3514 0.0000 15.1818 0.0000
# 4 0.0000 0.0000 0.0000 52.4430 0.0000 31.6752
# 5 9.9664 0.1752 15.1818 0.0000 46.9184 0.0000
# 6 0.0000 0.0000 0.0000 31.6752 0.0000 41.4600
#
#
#
# Elastic Compliance Matrix: (Units=1/GPa)
#
#
# Indices 1 2 3 4 5 6 
#
# 1 0.011292 -0.008919 -0.002644 0.000000 -0.001510 0.000000
# 2 -0.008919 0.035798 0.005520 0.000000 -0.000025 0.000000
# 3 -0.002644 0.005520 0.011847 0.000000 -0.003292 0.000000
# 4 0.000000 0.000000 0.000000 0.035407 0.000000 -0.027050
# 5 -0.001510 -0.000025 -0.003292 0.000000 0.022700 0.000000
# 6 0.000000 0.000000 0.000000 -0.027050 0.000000 0.044786
#
#
# Mechanical properties :
#
#
# Convention : Reuss Voigt Hill
#
# Bulk Modulus (GPa) = 21.34407 34.43465 27.88936
# Shear Modulus (GPa) = 26.38069 42.59631 34.48850
#
# Velocity S-wave (km/s) = 3.38798 4.30510 3.87378
# Velocity P-wave (km/s) = 4.95898 6.30036 5.66948
#
# Compressibility (1/GPa) = 0.04685142
#
# Stress axis : x y z
#
# Youngs Moduli (GPa) = 88.55637 27.93424 84.41163
#
# Poissons Ratio (x) = 0.24914 0.22320
# Poissons Ratio (y) = 0.78982 -0.46597
# Poissons Ratio (z) = 0.23416 -0.15420
#
# Static dielectric constant tensor:
#      x y z
#    x 1.838330 0.000000 0.010990 
#    y 0.000000 1.817590 0.000000 
#    z 0.010990 0.000000 1.876710 
# 
# From -- ./inp_files/54521.got.cif
#   From: 2010.05.17/outbox.cif.g08.bks.cpg/sg15_28_cif.got.tgz:54521.got - 2010.06.03 18:47:42.
