data_PCOD9308515
_publ_section_title
;
Structure prediction by ZEFSAII (Michael W. Deem and Ramdas Pophale) SiO2 
 PCOD9308515
Probable space group: C 2/C
;
_chemical_formula_sum "Si O2"
_cell_formula_units_Z 40
_cell_length_a 11.336515
_cell_length_b 24.321852
_cell_length_c 7.525037
_cell_angle_alpha 90.000000
_cell_angle_beta 134.861963
_cell_angle_gamma 90.000000
_cell_volume 1470.664590
_symmetry_space_group_name_H-M "C 2/C"
_symmetry_group_IT_number 15
_symmetry_cell_setting 'monoclinic'
loop_
_space_group_symop_operation_xyz
x,y,z
-x,y,1/2-z
-x,-y,-z
x,-y,1/2+z
1/2+x,1/2+y,z
1/2-x,1/2+y,1/2-z
1/2-x,1/2-y,-z
1/2+x,1/2-y,1/2+z
loop_
_atom_site_type_symbol
_atom_site_label
_atom_site_fract_x
_atom_site_fract_y
_atom_site_fract_z
Si Si1 0.297832 0.739992 0.753085
Si Si2 0.000221 0.663200 0.467757
Si Si3 0.311730 0.065250 0.734190
Si Si4 0.987827 0.861619 0.520603
Si Si5 0.331470 0.461824 0.799225
O O1 0.250000 0.750000 0.500000
O O2 0.155752 0.702477 0.687529
O O3 0.346012 0.800339 0.873269
O O4 0.458779 0.699749 0.924308
O O5 0.026297 0.603237 0.579017
O O6 0.000000 0.658813 0.250000
O O7 0.179852 0.103342 0.700118
O O8 0.217661 0.054954 0.450386
O O9 0.314524 0.003170 0.804323
O O10 0.000000 0.857217 0.750000
O O11 0.125727 0.901650 0.578515
O O12 0.500000 0.500000 0.000000
#
# Coordination Sequence:
#
# PCOD9308515 Si02
#       5
#     8   8   8   8   8
#     4   9  17  32  53  77 104 140 181 222 275 337
#     4   9  18  34  55  78 109 145 181 228 283 338
#     4   9  17  31  52  78 107 141 182 232 279 324
#     4   8  15  29  50  75 104 136 177 227 272 319
#     4   9  16  30  51  76 105 142 185 227 274 330
#
# _framework density 27.198588000000001
#
# number of rings (size 3 to 8) (size 9 to 14) (size 15 to 20)
#    0.000    3.200    0.000    1.800    0.000    0.000 
#    0.000   30.000    0.000    0.000    0.000    0.000 
#    0.000    0.000    0.000    1.200    0.000    0.000 
#
# Total GULP energy -111580.364036 kJ/mol
# GULP energy per Si atom -5579.018202 kJ/mol
# Density = 2.713668 g / cm^3
# Si number density = 27.198588 Si / 1000 Ang^3
#
#
#
# Elastic Constant Matrix: (Units=GPa)
#
#
# Indices 1 2 3 4 5 6 
#
# 1 50.2577 23.5556 45.7195 0.0000 1.3737 0.0000
# 2 23.5556 249.7612 85.3208 0.0000 19.2670 0.0000
# 3 45.7195 85.3208 110.3140 0.0000 -2.6939 0.0000
# 4 0.0000 0.0000 0.0000 72.6615 0.0000 17.3219
# 5 1.3737 19.2670 -2.6939 0.0000 41.0813 0.0000
# 6 0.0000 0.0000 0.0000 17.3219 0.0000 33.1730
#
#
#
# Elastic Compliance Matrix: (Units=1/GPa)
#
#
# Indices 1 2 3 4 5 6 
#
# 1 0.033152 0.002516 -0.015767 0.000000 -0.003322 0.000000
# 2 0.002516 0.005983 -0.005750 0.000000 -0.003267 0.000000
# 3 -0.015767 -0.005750 0.020158 0.000000 0.004546 0.000000
# 4 0.000000 0.000000 0.000000 0.015719 0.000000 -0.008208
# 5 -0.003322 -0.003267 0.004546 0.000000 0.026283 0.000000
# 6 0.000000 0.000000 0.000000 -0.008208 0.000000 0.034431
#
#
# Mechanical properties :
#
#
# Convention : Reuss Voigt Hill
#
# Bulk Modulus (GPa) = 46.96810 79.94716 63.45763
# Shear Modulus (GPa) = 27.65114 46.43230 37.04172
#
# Velocity S-wave (km/s) = 3.19194 4.13626 3.69439
# Velocity P-wave (km/s) = 5.55794 7.22974 6.44825
#
# Compressibility (1/GPa) = 0.02129104
#
# Stress axis : x y z
#
# Youngs Moduli (GPa) = 30.16392 167.14783 49.60924
#
# Poissons Ratio (x) = -0.42049 0.78218
# Poissons Ratio (y) = -0.07588 0.28524
# Poissons Ratio (z) = 0.47559 0.96104
#
# Static dielectric constant tensor:
#      x y z
#    x 2.208570 0.000000 0.119080 
#    y 0.000000 2.186710 0.000000 
#    z 0.119080 0.000000 2.205890 
# 
# From -- ./inp_files/42429.got.cif
#   From: 2010.05.17/outbox.cif.g08.bks.cpg/sg15_22_cif.got.tgz:42429.got - 2010.06.03 18:47:42.
