data_PCOD9308357
_publ_section_title
;
Structure prediction by ZEFSAII (Michael W. Deem and Ramdas Pophale) SiO2 
 PCOD9308357
Probable space group: C 2/C
;
_chemical_formula_sum "Si O2"
_cell_formula_units_Z 32
_cell_length_a 16.374662
_cell_length_b 11.286781
_cell_length_c 7.914140
_cell_angle_alpha 90.000000
_cell_angle_beta 63.849836
_cell_angle_gamma 90.000000
_cell_volume 1312.953549
_symmetry_space_group_name_H-M "C 2/C"
_symmetry_group_IT_number 15
_symmetry_cell_setting 'monoclinic'
loop_
_space_group_symop_operation_xyz
x,y,z
-x,y,1/2-z
-x,-y,-z
x,-y,1/2+z
1/2+x,1/2+y,z
1/2-x,1/2+y,1/2-z
1/2-x,1/2-y,-z
1/2+x,1/2-y,1/2+z
loop_
_atom_site_type_symbol
_atom_site_label
_atom_site_fract_x
_atom_site_fract_y
_atom_site_fract_z
Si Si1 0.293035 0.239662 0.776447
Si Si2 0.621248 0.190213 0.288456
Si Si3 0.474775 0.366935 0.576757
Si Si4 0.899141 0.463536 0.032636
O O1 0.211352 0.230362 0.715471
O O2 0.367278 0.340150 0.660495
O O3 0.352985 0.121597 0.709891
O O4 0.250000 0.250000 0.000000
O O5 0.535697 0.272434 0.416082
O O6 0.606646 0.112725 0.133173
O O7 0.645212 0.091891 0.409584
O O8 0.500000 0.349630 0.750000
O O9 0.500000 0.500000 0.500000
O O10 0.000000 0.500000 0.000000
#
# Coordination Sequence:
#
# PCOD9308357 Si02
#       4
#     8   8   8   8
#     4  12  27  51  80 120 165 214 279 340 421 499
#     4  12  28  51  83 121 167 219 283 348 423 501
#     4  12  30  52  80 116 168 220 273 342 425 506
#     4  12  27  50  84 119 164 215 278 350 416 497
#
# _framework density 24.372530000000001
#
# number of rings (size 3 to 8) (size 9 to 14) (size 15 to 20)
#    0.000    0.000    5.000    3.000    7.000    2.000 
#    0.000    0.000    0.000    0.000    0.000    0.000 
#    0.000    0.000    0.000    0.000    0.000    0.000 
#
# Total GULP energy -89507.529639 kJ/mol
# GULP energy per Si atom -5594.220602 kJ/mol
# Density = 2.431706 g / cm^3
# Si number density = 24.372530 Si / 1000 Ang^3
#
#
#
# Elastic Constant Matrix: (Units=GPa)
#
#
# Indices 1 2 3 4 5 6 
#
# 1 129.8035 23.0627 68.5490 0.0000 -1.6640 0.0000
# 2 23.0627 162.0226 80.9605 0.0000 7.0158 0.0000
# 3 68.5490 80.9605 191.6017 0.0000 0.7548 0.0000
# 4 0.0000 0.0000 0.0000 55.7459 0.0000 1.6704
# 5 -1.6640 7.0158 0.7548 0.0000 58.8312 0.0000
# 6 0.0000 0.0000 0.0000 1.6704 0.0000 50.9989
#
#
#
# Elastic Compliance Matrix: (Units=1/GPa)
#
#
# Indices 1 2 3 4 5 6 
#
# 1 0.009527 0.000426 -0.003590 0.000000 0.000265 0.000000
# 2 0.000426 0.007890 -0.003483 0.000000 -0.000884 0.000000
# 3 -0.003590 -0.003483 0.007974 0.000000 0.000211 0.000000
# 4 0.000000 0.000000 0.000000 0.017956 0.000000 -0.000588
# 5 0.000265 -0.000884 0.000211 0.000000 0.017108 0.000000
# 6 0.000000 0.000000 0.000000 -0.000588 0.000000 0.019628
#
#
# Mechanical properties :
#
#
# Convention : Reuss Voigt Hill
#
# Bulk Modulus (GPa) = 82.65325 92.06358 87.35841
# Shear Modulus (GPa) = 51.33004 53.83893 52.58449
#
# Velocity S-wave (km/s) = 4.59416 4.70510 4.64996
# Velocity P-wave (km/s) = 7.88212 8.20809 8.04676
#
# Compressibility (1/GPa) = 0.01209874
#
# Stress axis : x y z
#
# Youngs Moduli (GPa) = 104.96119 126.74386 125.40375
#
# Poissons Ratio (x) = -0.05401 0.45016
# Poissons Ratio (y) = -0.04472 0.43676
# Poissons Ratio (z) = 0.37678 0.44143
#
# Static dielectric constant tensor:
#      x y z
#    x 2.017060 0.000000 -0.043410 
#    y 0.000000 2.070480 0.000000 
#    z -0.043410 0.000000 2.032560 
# 
# From -- ./inp_files/69261.got.cif
#   From: 2010.05.17/outbox.cif.g08.bks.cpg/sg15_35_cif.got.tgz:69261.got - 2010.06.03 18:47:42.
