data_PCOD9308326
_publ_section_title
;
Structure prediction by ZEFSAII (Michael W. Deem and Ramdas Pophale) SiO2 
 PCOD9308326
Probable space group: C 2/C
;
_chemical_formula_sum "Si O2"
_cell_formula_units_Z 32
_cell_length_a 11.958931
_cell_length_b 8.336159
_cell_length_c 11.765290
_cell_angle_alpha 90.000000
_cell_angle_beta 76.232764
_cell_angle_gamma 90.000000
_cell_volume 1139.203197
_symmetry_space_group_name_H-M "C 2/C"
_symmetry_group_IT_number 15
_symmetry_cell_setting 'monoclinic'
loop_
_space_group_symop_operation_xyz
x,y,z
-x,y,1/2-z
-x,-y,-z
x,-y,1/2+z
1/2+x,1/2+y,z
1/2-x,1/2+y,1/2-z
1/2-x,1/2-y,-z
1/2+x,1/2-y,1/2+z
loop_
_atom_site_type_symbol
_atom_site_label
_atom_site_fract_x
_atom_site_fract_y
_atom_site_fract_z
Si Si1 0.379129 0.054119 0.465104
Si Si2 0.150810 0.248402 0.746836
Si Si3 0.172040 0.104778 0.139814
Si Si4 0.500451 0.689258 0.006379
O O1 0.375088 0.106079 0.334553
O O2 0.376133 0.228970 0.528285
O O3 0.500000 0.000000 0.500000
O O4 0.272552 0.943326 0.525256
O O5 0.271421 0.290059 0.776041
O O6 0.066262 0.241535 0.875701
O O7 0.140057 0.071201 0.695519
O O8 0.071978 0.207876 0.104879
O O9 0.500000 0.500000 0.000000
#
# Coordination Sequence:
#
# PCOD9308326 Si02
#       4
#     8   8   8   8
#     4  12  27  49  76 108 153 197 255 314 375 456
#     4  12  27  50  73 112 152 196 251 310 385 450
#     4  12  28  48  78 110 156 198 254 314 380 454
#     4  12  27  49  76 108 153 197 255 314 375 456
#
# _framework density 28.089811000000001
#
# number of rings (size 3 to 8) (size 9 to 14) (size 15 to 20)
#    0.000    0.000    5.000    3.750    7.000    0.000 
#    0.000    0.000    0.000    0.000    0.000    0.000 
#    0.000    0.000    0.000    0.000    0.000    0.000 
#
# Total GULP energy -89551.003948 kJ/mol
# GULP energy per Si atom -5596.937747 kJ/mol
# Density = 2.802588 g / cm^3
# Si number density = 28.089811 Si / 1000 Ang^3
#
#
#
# Elastic Constant Matrix: (Units=GPa)
#
#
# Indices 1 2 3 4 5 6 
#
# 1 101.5736 3.4162 49.8796 0.0000 47.6235 0.0000
# 2 3.4162 63.2969 33.0256 0.0000 -2.7866 0.0000
# 3 49.8796 33.0256 193.5861 0.0000 15.4449 0.0000
# 4 0.0000 0.0000 0.0000 68.0665 0.0000 12.7000
# 5 47.6235 -2.7866 15.4449 0.0000 60.7685 0.0000
# 6 0.0000 0.0000 0.0000 12.7000 0.0000 69.3274
#
#
#
# Elastic Compliance Matrix: (Units=1/GPa)
#
#
# Indices 1 2 3 4 5 6 
#
# 1 0.017635 0.000345 -0.003574 0.000000 -0.012896 0.000000
# 2 0.000345 0.017499 -0.003181 0.000000 0.001340 0.000000
# 3 -0.003574 -0.003181 0.006550 0.000000 0.000990 0.000000
# 4 0.000000 0.000000 0.000000 0.015211 0.000000 -0.002787
# 5 -0.012896 0.001340 0.000990 0.000000 0.026372 0.000000
# 6 0.000000 0.000000 0.000000 -0.002787 0.000000 0.014935
#
#
# Mechanical properties :
#
#
# Convention : Reuss Voigt Hill
#
# Bulk Modulus (GPa) = 34.64498 59.01103 46.82801
# Shear Modulus (GPa) = 41.44448 57.77481 49.60965
#
# Velocity S-wave (km/s) = 3.84530 4.54010 4.20707
# Velocity P-wave (km/s) = 5.66352 6.96685 6.34872
#
# Compressibility (1/GPa) = 0.02886421
#
# Stress axis : x y z
#
# Youngs Moduli (GPa) = 56.70576 57.14699 152.66708
#
# Poissons Ratio (x) = -0.01972 0.54560
# Poissons Ratio (y) = -0.01957 0.48566
# Poissons Ratio (z) = 0.20266 0.18179
#
# Static dielectric constant tensor:
#      x y z
#    x 2.422100 0.000000 0.004960 
#    y 0.000000 2.706650 0.000000 
#    z 0.004960 0.000000 2.178560 
# 
# From -- ./inp_files/93230.got.cif
#   From: 2010.05.17/outbox.cif.g08.bks.cpg/sg15_47_cif.got.tgz:93230.got - 2010.06.03 18:47:42.
