data_PCOD9308655
_publ_section_title
;
Structure prediction by ZEFSAII (Michael W. Deem and Ramdas Pophale) SiO2 
 PCOD9308655
Probable space group: C 2/C
;
_chemical_formula_sum "Si O2"
_cell_formula_units_Z 28
_cell_length_a 15.000000
_cell_length_b 24.000000
_cell_length_c 24.000000
_cell_angle_alpha 90.000000
_cell_angle_beta 160.000000
_cell_angle_gamma 90.000000
_cell_volume 2955.054038
_symmetry_space_group_name_H-M "C 2/C"
_symmetry_group_IT_number 15
_symmetry_cell_setting 'monoclinic'
loop_
_space_group_symop_operation_xyz
x,y,z
-x,y,1/2-z
-x,-y,-z
x,-y,1/2+z
1/2+x,1/2+y,z
1/2-x,1/2+y,1/2-z
1/2-x,1/2-y,-z
1/2+x,1/2-y,1/2+z
loop_
_atom_site_type_symbol
_atom_site_label
_atom_site_fract_x
_atom_site_fract_y
_atom_site_fract_z
Si Si1 0.454546 0.556567 0.050863
Si Si2 0.500000 0.305594 0.750000
Si Si3 0.687317 0.564398 0.062416
Si Si4 0.997398 0.743165 0.581741
Si Si5 0.353801 0.329075 0.358639
Si Si6 0.692067 0.223424 0.571754
Si Si7 0.759723 0.851044 0.716996
Si Si8 0.500000 0.132326 0.750000
O O1 0.582126 0.559286 0.064123
O O2 0.654826 0.589568 0.208539
O O3 0.379016 0.491534 0.011225
O O4 0.184398 0.591531 0.894823
O O5 0.348125 0.342851 0.705152
O O6 0.309351 0.265634 0.603432
O O7 0.000000 0.573532 0.250000
O O8 0.516540 0.616028 0.939929
O O9 0.106195 0.689982 0.678391
O O10 0.115722 0.734503 0.590560
O O11 0.088780 0.801934 0.660182
O O12 0.556152 0.278418 0.466406
O O13 0.216797 0.336619 0.339116
O O14 0.540527 0.169601 0.458576
O O15 0.000000 0.220499 0.750000
#
# Coordination Sequence:
#
# PCOD9308655 Si02
#       8
#     8   4   8   8   8   8   8   4
#     4  10  20  34  54  81 113 144 176 226 281 324
#     4  10  20  35  52  80 114 142 188 225 274 326
#     4  10  20  35  54  85 112 139 181 227 279 337
#     4  10  20  33  52  82 110 147 182 223 271 326
#     4  10  21  33  56  82 110 145 178 221 279 327
#     4  10  22  37  52  78 116 149 185 221 265 334
#     4  10  21  34  55  82 110 149 182 226 277 327
#     4  10  18  33  52  80 114 140 170 223 272 336
#
# _framework density 9.4752919999999996
#
# number of rings (size 3 to 8) (size 9 to 14) (size 15 to 20)
#    0.000    2.000    0.714    3.429    0.000   11.429 
#    0.000    0.000    0.000    3.429    3.714    0.000 
#    0.000    0.000    0.000    0.000    0.000    0.000 
#
# Total GULP energy -155992.737560 kJ/mol
# GULP energy per Si atom -5571.169199 kJ/mol
# Density = 0.945373 g / cm^3
# Si number density = 9.475292 Si / 1000 Ang^3
#
#
#
# Elastic Constant Matrix: (Units=GPa)
#
#
# Indices 1 2 3 4 5 6 
#
# 1 6.8442 7.2285 13.7522 0.0070 2.1195 0.0156
# 2 7.2285 98.4747 55.0718 -0.0051 -0.4487 0.0076
# 3 13.7522 55.0718 135.8813 0.0298 19.8976 -0.0073
# 4 0.0070 -0.0051 0.0298 35.0624 -0.0261 -4.4754
# 5 2.1195 -0.4487 19.8976 -0.0261 31.7866 0.0043
# 6 0.0156 0.0076 -0.0073 -4.4754 0.0043 22.1485
#
#
#
# Elastic Compliance Matrix: (Units=1/GPa)
#
#
# Indices 1 2 3 4 5 6 
#
# 1 0.184728 -0.004229 -0.016700 -0.000043 -0.001923 -0.000143
# 2 -0.004229 0.013676 -0.005707 0.000010 0.004048 -0.000002
# 3 -0.016700 -0.005707 0.012343 -0.000011 -0.006693 0.000017
# 4 -0.000043 0.000010 -0.000011 0.029276 0.000033 0.005916
# 5 -0.001923 0.004048 -0.006693 0.000033 0.035835 -0.000002
# 6 -0.000143 -0.000002 0.000017 0.005916 -0.000002 0.046345
#
#
# Mechanical properties :
#
#
# Convention : Reuss Voigt Hill
#
# Bulk Modulus (GPa) = 6.35030 43.70060 25.02545
# Shear Modulus (GPa) = 11.68315 28.80934 20.24624
#
# Velocity S-wave (km/s) = 2.48565 3.90325 3.27214
# Velocity P-wave (km/s) = 3.40532 6.58970 5.24501
#
# Compressibility (1/GPa) = 0.15747298
#
# Stress axis : x y z
#
# Youngs Moduli (GPa) = 5.41336 73.12305 81.01865
#
# Poissons Ratio (x) = 0.30925 1.35304
# Poissons Ratio (y) = 0.02289 0.46240
# Poissons Ratio (z) = 0.09040 0.41734
#
# Static dielectric constant tensor:
#      x y z
#    x 1.694220 -0.000020 -0.044950 
#    y -0.000020 1.686440 -0.000050 
#    z -0.044950 -0.000050 1.760250 
# 
# From -- ./inp_files/275231.got.cif
#   From: 2010.05.17/outbox.ucp.g08.bks.cvg/sg15_138_cif.got.tgz:275231.got - 2010.06.11 12:40:34.
