data_PCOD9308005
_publ_section_title
;
Structure prediction by ZEFSAII (Michael W. Deem and Ramdas Pophale) SiO2 
 PCOD9308005
Probable space group: C 2/C
;
_chemical_formula_sum "Si O2"
_cell_formula_units_Z 56
_cell_length_a 29.821395
_cell_length_b 12.026018
_cell_length_c 14.803148
_cell_angle_alpha 90.000000
_cell_angle_beta 28.069519
_cell_angle_gamma 90.000000
_cell_volume 2498.059440
_symmetry_space_group_name_H-M "C 2/C"
_symmetry_group_IT_number 15
_symmetry_cell_setting 'monoclinic'
loop_
_space_group_symop_operation_xyz
x,y,z
-x,y,1/2-z
-x,-y,-z
x,-y,1/2+z
1/2+x,1/2+y,z
1/2-x,1/2+y,1/2-z
1/2-x,1/2-y,-z
1/2+x,1/2-y,1/2+z
loop_
_atom_site_type_symbol
_atom_site_label
_atom_site_fract_x
_atom_site_fract_y
_atom_site_fract_z
Si Si1 0.341031 0.470975 0.885272
Si Si2 0.773673 0.132277 0.316555
Si Si3 0.348328 0.271776 0.375224
Si Si4 0.101216 0.279468 0.523997
Si Si5 0.316904 0.995221 0.683837
Si Si6 0.035934 0.622261 0.462426
Si Si7 0.924582 0.757578 0.802790
O O1 0.300628 0.424404 0.862830
O O2 0.374220 0.598488 0.819251
O O3 0.419479 0.386405 0.783821
O O4 0.255454 0.468756 0.109706
O O5 0.682224 0.214262 0.486215
O O6 0.741210 0.042453 0.300257
O O7 0.863691 0.198871 0.117017
O O8 0.250000 0.250000 0.500000
O O9 0.331272 0.242211 0.509911
O O10 0.425534 0.191036 0.191378
O O11 0.113717 0.404815 0.468188
O O12 0.000000 0.256360 0.750000
O O13 0.378353 0.897224 0.618960
O O14 0.000000 0.500000 0.500000
O O15 0.956864 0.688205 0.658066
O O16 0.000000 0.740230 0.750000
#
# Coordination Sequence:
#
# PCOD9308005 Si02
#       7
#     8   8   8   8   8   8   8
#     4  12  27  48  79 110 156 210 256 315 395 464
#     4  12  26  49  75 109 157 203 257 320 390 460
#     4  12  26  50  74 112 152 203 255 317 387 454
#     4  12  28  46  75 110 148 196 259 317 380 456
#     4  12  25  48  74 112 150 202 257 321 381 460
#     4  12  27  46  79 111 150 198 265 320 382 467
#     4  12  28  48  76 115 154 202 254 325 395 457
#
# _framework density 22.417401000000002
#
# number of rings (size 3 to 8) (size 9 to 14) (size 15 to 20)
#    0.000    0.000    5.714    3.000    8.000    2.286 
#    0.000    0.000    0.000    0.000    0.000    0.000 
#    0.000    0.000    0.000    0.000    0.000    0.000 
#
# Total GULP energy -156841.731803 kJ/mol
# GULP energy per Si atom -5601.490422 kJ/mol
# Density = 2.236638 g / cm^3
# Si number density = 22.417401 Si / 1000 Ang^3
#
#
#
# Elastic Constant Matrix: (Units=GPa)
#
#
# Indices 1 2 3 4 5 6 
#
# 1 104.0329 24.4243 12.4225 0.0000 26.1340 0.0000
# 2 24.4243 143.5631 63.9559 0.0000 22.9232 0.0000
# 3 12.4225 63.9559 109.5815 0.0000 11.0658 0.0000
# 4 0.0000 0.0000 0.0000 45.1389 0.0000 3.7313
# 5 26.1340 22.9232 11.0658 0.0000 29.2108 0.0000
# 6 0.0000 0.0000 0.0000 3.7313 0.0000 44.7052
#
#
#
# Elastic Compliance Matrix: (Units=1/GPa)
#
#
# Indices 1 2 3 4 5 6 
#
# 1 0.012419 -0.000333 -0.000122 0.000000 -0.010803 0.000000
# 2 -0.000333 0.010362 -0.005427 0.000000 -0.005778 0.000000
# 3 -0.000122 -0.005427 0.012338 0.000000 -0.000306 0.000000
# 4 0.000000 0.000000 0.000000 0.022308 0.000000 -0.001862
# 5 -0.010803 -0.005778 -0.000306 0.000000 0.048549 0.000000
# 6 0.000000 0.000000 0.000000 -0.001862 0.000000 0.022524
#
#
# Mechanical properties :
#
#
# Convention : Reuss Voigt Hill
#
# Bulk Modulus (GPa) = 42.81880 62.08698 52.45289
# Shear Modulus (GPa) = 33.77251 40.90263 37.33757
#
# Velocity S-wave (km/s) = 3.88562 4.27616 4.08556
# Velocity P-wave (km/s) = 6.26681 7.22058 6.76053
#
# Compressibility (1/GPa) = 0.02335423
#
# Stress axis : x y z
#
# Youngs Moduli (GPa) = 80.52157 96.50293 81.05329
#
# Poissons Ratio (x) = 0.03217 0.00992
# Poissons Ratio (y) = 0.02684 0.43985
# Poissons Ratio (z) = 0.00985 0.52368
#
# Static dielectric constant tensor:
#      x y z
#    x 1.865000 0.000000 -0.039750 
#    y 0.000000 1.823650 0.000000 
#    z -0.039750 0.000000 1.828640 
# 
# From -- ./inp_files/181924.got.cif
#   From: 2010.05.17/outbox.cif.g08.bks.cpg/sg15_91_cif.got.tgz:181924.got - 2010.06.03 18:47:42.
