data_PCOD9308148
_publ_section_title
;
Structure prediction by ZEFSAII (Michael W. Deem and Ramdas Pophale) SiO2 
 PCOD9308148
Probable space group: C 2/C
;
_chemical_formula_sum "Si O2"
_cell_formula_units_Z 40
_cell_length_a 23.178405
_cell_length_b 10.134357
_cell_length_c 20.176557
_cell_angle_alpha 90.000000
_cell_angle_beta 19.125579
_cell_angle_gamma 90.000000
_cell_volume 1552.828025
_symmetry_space_group_name_H-M "C 2/C"
_symmetry_group_IT_number 15
_symmetry_cell_setting 'monoclinic'
loop_
_space_group_symop_operation_xyz
x,y,z
-x,y,1/2-z
-x,-y,-z
x,-y,1/2+z
1/2+x,1/2+y,z
1/2-x,1/2+y,1/2-z
1/2-x,1/2-y,-z
1/2+x,1/2-y,1/2+z
loop_
_atom_site_type_symbol
_atom_site_label
_atom_site_fract_x
_atom_site_fract_y
_atom_site_fract_z
Si Si1 0.994203 0.526263 0.185112
Si Si2 0.645670 0.623772 0.038106
Si Si3 0.955264 0.319263 0.594229
Si Si4 0.094964 0.024641 0.794911
Si Si5 0.270754 0.705356 0.280677
O O1 0.836430 0.417448 0.360851
O O2 0.938926 0.598516 0.178018
O O3 0.000000 0.598351 0.250000
O O4 0.202130 0.502572 0.947782
O O5 0.500000 0.667508 0.250000
O O6 0.546261 0.501455 0.109668
O O7 0.682428 0.732147 0.941346
O O8 0.842224 0.363050 0.653720
O O9 0.144840 0.321786 0.354011
O O10 0.925380 0.169241 0.652842
O O11 0.080169 0.898254 0.859204
#
# Coordination Sequence:
#
# PCOD9308148 Si02
#       5
#     8   8   8   8   8
#     4  12  28  50  80 114 155 210 267 319 394 465
#     4  12  28  50  80 114 158 209 261 327 391 465
#     4  12  26  47  78 114 153 207 260 327 386 464
#     4  12  27  50  75 114 160 203 266 324 390 460
#     4  12  26  47  78 113 156 205 258 324 393 466
#
# _framework density 25.759452
#
# number of rings (size 3 to 8) (size 9 to 14) (size 15 to 20)
#    0.000    0.000    6.000    3.000    2.800    4.800 
#    0.000    0.000    0.000    0.000    0.000    0.000 
#    0.000    0.000    0.000    0.000    0.000    0.000 
#
# Total GULP energy -111718.209391 kJ/mol
# GULP energy per Si atom -5585.910470 kJ/mol
# Density = 2.570082 g / cm^3
# Si number density = 25.759452 Si / 1000 Ang^3
#
#
#
# Elastic Constant Matrix: (Units=GPa)
#
#
# Indices 1 2 3 4 5 6 
#
# 1 142.0597 21.2226 50.3518 0.0005 32.0284 -0.0008
# 2 21.2226 69.7718 38.0587 0.0017 30.2040 -0.0052
# 3 50.3518 38.0587 171.8563 0.0016 18.6561 -0.0051
# 4 0.0005 0.0017 0.0016 -1.7153 -0.0003 -21.1469
# 5 32.0284 30.2040 18.6561 -0.0003 62.2487 0.0009
# 6 -0.0008 -0.0052 -0.0051 -21.1469 0.0009 16.0351
#
#
#
# Elastic Compliance Matrix: (Units=1/GPa)
#
#
# Indices 1 2 3 4 5 6 
#
# 1 0.008654 0.000247 -0.002164 0.000000 -0.003924 0.000000
# 2 0.000247 0.019985 -0.003547 -0.000003 -0.008761 0.000002
# 3 -0.002164 -0.003547 0.007164 -0.000001 0.000688 0.000000
# 4 0.000000 -0.000003 -0.000001 -0.033780 0.000002 -0.044548
# 5 -0.003924 -0.008761 0.000688 0.000002 0.022128 -0.000001
# 6 0.000000 0.000002 0.000000 -0.044548 -0.000001 0.003614
#
#
# Mechanical properties :
#
#
# Convention : Reuss Voigt Hill
#
# Bulk Modulus (GPa) = 40.20300 66.99489 53.59894
# Shear Modulus (GPa) = 106.41694 33.58402 70.00048
#
# Velocity S-wave (km/s) = 6.43440 3.61467 5.21859
# Velocity P-wave (km/s) = 8.41683 6.59435 7.56070
#
# Compressibility (1/GPa) = 0.02487377
#
# Stress axis : x y z
#
# Youngs Moduli (GPa) = 115.55077 50.03834 139.59101
#
# Poissons Ratio (x) = -0.01235 0.30211
# Poissons Ratio (y) = -0.02852 0.49513
# Poissons Ratio (z) = 0.25008 0.17749
#
# Static dielectric constant tensor:
#      x y z
#    x 2.260570 0.000000 -0.119730 
#    y 0.000000 2.056390 0.000000 
#    z -0.119730 0.000000 2.207810 
# 
# From -- ./inp_files/255403.got.cif
#   From: 2010.05.17/outbox.cif.g08.bks.cpg/sg15_128_cif.got.tgz:255403.got - 2010.06.03 18:47:42.
