data_PCOD9308358
_publ_section_title
;
Structure prediction by ZEFSAII (Michael W. Deem and Ramdas Pophale) SiO2 
 PCOD9308358
Probable space group: C 2/C
;
_chemical_formula_sum "Si O2"
_cell_formula_units_Z 28
_cell_length_a 12.763980
_cell_length_b 5.212144
_cell_length_c 18.011441
_cell_angle_alpha 90.000000
_cell_angle_beta 47.543053
_cell_angle_gamma 90.000000
_cell_volume 884.057823
_symmetry_space_group_name_H-M "C 2/C"
_symmetry_group_IT_number 15
_symmetry_cell_setting 'monoclinic'
loop_
_space_group_symop_operation_xyz
x,y,z
-x,y,1/2-z
-x,-y,-z
x,-y,1/2+z
1/2+x,1/2+y,z
1/2-x,1/2+y,1/2-z
1/2-x,1/2-y,-z
1/2+x,1/2-y,1/2+z
loop_
_atom_site_type_symbol
_atom_site_label
_atom_site_fract_x
_atom_site_fract_y
_atom_site_fract_z
Si Si1 0.812771 0.024316 0.465471
Si Si2 0.495786 0.727513 0.035117
Si Si3 0.500000 0.299338 0.250000
Si Si4 0.215128 0.510577 0.252723
O O1 0.750000 0.750000 0.500000
O O2 0.921816 0.951161 0.495043
O O3 0.916292 0.987362 0.344890
O O4 0.847876 0.315978 0.479155
O O5 0.360071 0.748700 0.158843
O O6 0.500000 0.000000 0.000000
O O7 0.604545 0.113218 0.244580
O O8 0.300777 0.255397 0.179839
#
# Coordination Sequence:
#
# PCOD9308358 Si02
#       4
#     8   8   4   8
#     4  12  29  51  83 120 162 228 269 355 445 488
#     4  12  27  51  76 121 165 206 285 348 419 533
#     4  12  30  58  84 128 180 206 316 354 414 556
#     4  12  29  51  87 122 163 230 276 357 451 492
#
# _framework density 31.672138
#
# number of rings (size 3 to 8) (size 9 to 14) (size 15 to 20)
#    0.000    0.000    0.000    8.571   12.000    8.000 
#    0.000    0.000    0.000    0.000    0.000    0.000 
#    0.000    0.000    0.000    0.000    0.000    0.000 
#
# Total GULP energy -78066.066123 kJ/mol
# GULP energy per Si atom -5576.147580 kJ/mol
# Density = 3.160005 g / cm^3
# Si number density = 31.672138 Si / 1000 Ang^3
#
#
#
# Elastic Constant Matrix: (Units=GPa)
#
#
# Indices 1 2 3 4 5 6 
#
# 1 334.3944 141.8244 71.6172 0.0023 21.5706 0.0061
# 2 141.8244 544.3448 140.6104 0.0056 2.5024 0.0187
# 3 71.6172 140.6104 242.1296 -0.0007 -14.7710 0.0003
# 4 0.0023 0.0056 -0.0007 75.9331 -0.0009 11.3587
# 5 21.5706 2.5024 -14.7710 -0.0009 48.3895 0.0014
# 6 0.0061 0.0187 0.0003 11.3587 0.0014 109.9867
#
#
#
# Elastic Compliance Matrix: (Units=1/GPa)
#
#
# Indices 1 2 3 4 5 6 
#
# 1 0.003574 -0.000732 -0.000741 0.000000 -0.001782 0.000000
# 2 -0.000732 0.002323 -0.001141 0.000000 -0.000142 0.000000
# 3 -0.000741 -0.001141 0.005131 0.000000 0.001956 0.000000
# 4 0.000000 0.000000 0.000000 0.013376 0.000000 -0.001381
# 5 -0.001782 -0.000142 0.001956 0.000000 0.022064 0.000000
# 6 0.000000 0.000000 0.000000 -0.001381 0.000000 0.009235
#
#
# Mechanical properties :
#
#
# Convention : Reuss Voigt Hill
#
# Bulk Modulus (GPa) = 172.39176 203.21920 187.80548
# Shear Modulus (GPa) = 79.53442 97.98299 88.75870
#
# Velocity S-wave (km/s) = 5.01660 5.56811 5.29953
# Velocity P-wave (km/s) = 9.38634 10.27819 9.84237
#
# Compressibility (1/GPa) = 0.00580074
#
# Stress axis : x y z
#
# Youngs Moduli (GPa) = 279.76354 430.44138 194.88032
#
# Poissons Ratio (x) = 0.31495 0.14441
# Poissons Ratio (y) = 0.20470 0.22244
# Poissons Ratio (z) = 0.20732 0.49131
#
# Static dielectric constant tensor:
#      x y z
#    x 4.081950 0.000000 -0.032210 
#    y 0.000000 3.500610 0.000000 
#    z -0.032210 0.000000 2.865310 
# 
# From -- ./inp_files/201633.got.cif
#   From: 2010.05.17/outbox.cif.g08.bks.cpg/sg15_101_cif.got.tgz:201633.got - 2010.06.03 18:47:42.
