data_PCOD9308218
_publ_section_title
;
Structure prediction by ZEFSAII (Michael W. Deem and Ramdas Pophale) SiO2 
 PCOD9308218
Probable space group: C 2/C
;
_chemical_formula_sum "Si O2"
_cell_formula_units_Z 28
_cell_length_a 8.933950
_cell_length_b 16.828654
_cell_length_c 9.917330
_cell_angle_alpha 90.000000
_cell_angle_beta 48.631238
_cell_angle_gamma 90.000000
_cell_volume 1118.978837
_symmetry_space_group_name_H-M "C 2/C"
_symmetry_group_IT_number 15
_symmetry_cell_setting 'monoclinic'
loop_
_space_group_symop_operation_xyz
x,y,z
-x,y,1/2-z
-x,-y,-z
x,-y,1/2+z
1/2+x,1/2+y,z
1/2-x,1/2+y,1/2-z
1/2-x,1/2-y,-z
1/2+x,1/2-y,1/2+z
loop_
_atom_site_type_symbol
_atom_site_label
_atom_site_fract_x
_atom_site_fract_y
_atom_site_fract_z
Si Si1 0.000000 0.441892 0.750000
Si Si2 0.653748 0.440537 0.544732
Si Si3 0.885706 0.156262 0.676708
Si Si4 0.065137 0.332764 0.963008
O O1 0.171081 0.497172 0.585843
O O2 0.082308 0.386135 0.818984
O O3 0.500000 0.467293 0.750000
O O4 0.557275 0.412305 0.462302
O O5 0.761842 0.361486 0.540704
O O6 0.928184 0.241549 0.584671
O O7 0.000000 0.152579 0.750000
O O8 0.649860 0.149793 0.844241
#
# Coordination Sequence:
#
# PCOD9308218 Si02
#       4
#     4   8   8   8
#     4  12  28  52  76 118 162 198 258 322 390 458
#     4  12  28  51  81 113 157 209 257 317 389 461
#     4  12  26  49  81 116 154 205 263 318 384 459
#     4  12  26  51  78 116 159 201 262 323 379 464
#
# _framework density 25.022814
#
# number of rings (size 3 to 8) (size 9 to 14) (size 15 to 20)
#    0.000    0.000    4.286    4.286    4.000    2.286 
#    0.000    0.000    0.000    0.000    0.000    0.000 
#    0.000    0.000    0.000    0.000    0.000    0.000 
#
# Total GULP energy -78721.377350 kJ/mol
# GULP energy per Si atom -5622.955525 kJ/mol
# Density = 2.496586 g / cm^3
# Si number density = 25.022814 Si / 1000 Ang^3
#
#
#
# Elastic Constant Matrix: (Units=GPa)
#
#
# Indices 1 2 3 4 5 6 
#
# 1 102.9958 27.2960 40.4473 0.0000 15.3925 0.0000
# 2 27.2960 142.9165 50.4537 0.0000 12.2699 0.0000
# 3 40.4473 50.4537 186.3912 0.0000 -13.8803 0.0000
# 4 0.0000 0.0000 0.0000 49.0236 0.0000 7.6888
# 5 15.3925 12.2699 -13.8803 0.0000 54.2873 0.0000
# 6 0.0000 0.0000 0.0000 7.6888 0.0000 40.7115
#
#
#
# Elastic Compliance Matrix: (Units=1/GPa)
#
#
# Indices 1 2 3 4 5 6 
#
# 1 0.011505 -0.000999 -0.002500 0.000000 -0.003675 0.000000
# 2 -0.000999 0.008123 -0.002138 0.000000 -0.002099 0.000000
# 3 -0.002500 -0.002138 0.006703 0.000000 0.002906 0.000000
# 4 0.000000 0.000000 0.000000 0.021021 0.000000 -0.003970
# 5 -0.003675 -0.002099 0.002906 0.000000 0.020680 0.000000
# 6 0.000000 0.000000 0.000000 -0.003970 0.000000 0.025313
#
#
# Mechanical properties :
#
#
# Convention : Reuss Voigt Hill
#
# Bulk Modulus (GPa) = 66.41901 74.29972 70.35937
# Shear Modulus (GPa) = 45.60457 49.74491 47.67474
#
# Velocity S-wave (km/s) = 4.27373 4.46352 4.36965
# Velocity P-wave (km/s) = 7.13821 7.50475 7.32377
#
# Compressibility (1/GPa) = 0.01505593
#
# Stress axis : x y z
#
# Youngs Moduli (GPa) = 86.91916 123.10616 149.19310
#
# Poissons Ratio (x) = 0.12302 0.37295
# Poissons Ratio (y) = 0.08686 0.31902
# Poissons Ratio (z) = 0.21728 0.26324
#
# Static dielectric constant tensor:
#      x y z
#    x 1.980540 0.000000 0.024480 
#    y 0.000000 1.925570 0.000000 
#    z 0.024480 0.000000 1.936120 
# 
# From -- ./inp_files/22485.got.cif
#   From: 2010.05.17/outbox.cif.g08.bks.cpg/sg15_12_cif.got.tgz:22485.got - 2010.06.03 18:47:42.
