data_PCOD9308560
_publ_section_title
;
Structure prediction by ZEFSAII (Michael W. Deem and Ramdas Pophale) SiO2 
 PCOD9308560
Probable space group: C 2/C
;
_chemical_formula_sum "Si O2"
_cell_formula_units_Z 48
_cell_length_a 6.701807
_cell_length_b 18.117547
_cell_length_c 16.712139
_cell_angle_alpha 90.000000
_cell_angle_beta 76.983342
_cell_angle_gamma 90.000000
_cell_volume 1977.052106
_symmetry_space_group_name_H-M "C 2/C"
_symmetry_group_IT_number 15
_symmetry_cell_setting 'monoclinic'
loop_
_space_group_symop_operation_xyz
x,y,z
-x,y,1/2-z
-x,-y,-z
x,-y,1/2+z
1/2+x,1/2+y,z
1/2-x,1/2+y,1/2-z
1/2-x,1/2-y,-z
1/2+x,1/2-y,1/2+z
loop_
_atom_site_type_symbol
_atom_site_label
_atom_site_fract_x
_atom_site_fract_y
_atom_site_fract_z
Si Si1 0.328105 0.291489 0.108532
Si Si2 0.232356 0.789897 0.762450
Si Si3 0.250949 0.458346 0.768813
Si Si4 0.248289 0.454450 0.110302
Si Si5 0.994892 0.817868 0.566732
Si Si6 0.320405 0.482392 0.930999
O O1 0.362053 0.266868 0.196923
O O2 0.200222 0.368065 0.119947
O O3 0.187922 0.227854 0.082899
O O4 0.509805 0.302824 0.027632
O O5 0.298338 0.872263 0.732291
O O6 0.000000 0.779216 0.750000
O O7 0.196450 0.793598 0.861311
O O8 0.500000 0.463583 0.750000
O O9 0.186401 0.500232 0.694292
O O10 0.191464 0.487977 0.861588
O O11 0.498506 0.458410 0.089486
O O12 0.206144 0.485862 0.025751
O O13 0.058160 0.903068 0.577907
#
# Coordination Sequence:
#
# PCOD9308560 Si02
#       6
#     8   8   8   8   8   8
#     4   9  16  21  34  60  85 101 132 168 199 239
#     4   9  13  23  37  52  78 110 127 153 205 247
#     4   9  13  23  37  52  78 110 127 153 205 247
#     4   9  16  21  34  60  85 101 132 168 199 239
#     4   9  14  24  37  54  84 110 125 158 213 247
#     4   9  14  24  37  54  84 110 125 158 213 247
#
# _framework density 24.278569999999998
#
# number of rings (size 3 to 8) (size 9 to 14) (size 15 to 20)
#    0.000    3.000    6.667    0.000    0.000    0.000 
#    0.000    0.000    0.000    0.000    0.000    2.333 
#    0.000    0.000    0.000    0.000    0.000    0.000 
#
# Total GULP energy -133850.846662 kJ/mol
# GULP energy per Si atom -5577.118611 kJ/mol
# Density = 2.422331 g / cm^3
# Si number density = 24.278570 Si / 1000 Ang^3
#
#
#
# Elastic Constant Matrix: (Units=GPa)
#
#
# Indices 1 2 3 4 5 6 
#
# 1 65.9644 -11.2933 33.5759 0.0000 8.2755 0.0000
# 2 -11.2933 42.6966 13.5724 0.0000 4.7403 0.0000
# 3 33.5759 13.5724 259.8291 0.0000 8.5225 0.0000
# 4 0.0000 0.0000 0.0000 46.7642 0.0000 0.9625
# 5 8.2755 4.7403 8.5225 0.0000 41.4156 0.0000
# 6 0.0000 0.0000 0.0000 0.9625 0.0000 -6.9363
#
#
#
# Elastic Compliance Matrix: (Units=1/GPa)
#
#
# Indices 1 2 3 4 5 6 
#
# 1 0.017924 0.005953 -0.002504 0.000000 -0.003747 0.000000
# 2 0.005953 0.026051 -0.002007 0.000000 -0.003758 0.000000
# 3 -0.002504 -0.002007 0.004282 0.000000 -0.000151 0.000000
# 4 0.000000 0.000000 0.000000 0.021323 0.000000 0.002959
# 5 -0.003747 -0.003758 -0.000151 0.000000 0.025356 0.000000
# 6 0.000000 0.000000 0.000000 0.002959 0.000000 -0.143759
#
#
# Mechanical properties :
#
#
# Convention : Reuss Voigt Hill
#
# Bulk Modulus (GPa) = 19.55405 48.91113 34.23259
# Shear Modulus (GPa) = -144.25444 38.42438 -52.91503
#
# Velocity S-wave (km/s) = -7.71656 3.98256 -4.67357
# Velocity P-wave (km/s) = 8.44525 6.42941 3.87201
#
# Compressibility (1/GPa) = 0.05114029
#
# Stress axis : x y z
#
# Youngs Moduli (GPa) = 55.79239 38.38660 233.53234
#
# Poissons Ratio (x) = -0.22851 0.58481
# Poissons Ratio (y) = -0.33213 0.46864
# Poissons Ratio (z) = 0.13971 0.07703
#
# Static dielectric constant tensor:
#      x y z
#    x 2.004410 0.000000 -0.015000 
#    y 0.000000 1.863230 0.000000 
#    z -0.015000 0.000000 2.051710 
# 
# From -- ./inp_files/197181.got.cif
#   From: 2010.05.17/outbox.cif.g08.bks.cpg/sg15_99_cif.got.tgz:197181.got - 2010.06.03 18:47:42.
