data_PCOD9308434
_publ_section_title
;
Structure prediction by ZEFSAII (Michael W. Deem and Ramdas Pophale) SiO2 
 PCOD9308434
Probable space group: C 2/C
;
_chemical_formula_sum "Si O2"
_cell_formula_units_Z 28
_cell_length_a 9.279620
_cell_length_b 10.978751
_cell_length_c 9.281476
_cell_angle_alpha 90.000000
_cell_angle_beta 91.629277
_cell_angle_gamma 90.000000
_cell_volume 945.201844
_symmetry_space_group_name_H-M "C 2/C"
_symmetry_group_IT_number 15
_symmetry_cell_setting 'monoclinic'
loop_
_space_group_symop_operation_xyz
x,y,z
-x,y,1/2-z
-x,-y,-z
x,-y,1/2+z
1/2+x,1/2+y,z
1/2-x,1/2+y,1/2-z
1/2-x,1/2-y,-z
1/2+x,1/2-y,1/2+z
loop_
_atom_site_type_symbol
_atom_site_label
_atom_site_fract_x
_atom_site_fract_y
_atom_site_fract_z
Si Si1 0.177741 0.594987 0.006052
Si Si2 0.500000 0.218584 0.250000
Si Si3 0.491885 0.380400 0.593687
Si Si4 0.299382 0.154037 0.826355
O O1 0.059157 0.642917 0.115999
O O2 0.329509 0.659993 0.053138
O O3 0.195053 0.454458 0.058136
O O4 0.155590 0.603722 0.832463
O O5 0.363479 0.297808 0.196091
O O6 0.500000 0.437292 0.750000
O O7 0.500000 0.500000 0.500000
O O8 0.602840 0.268089 0.617565
#
# Coordination Sequence:
#
# PCOD9308434 Si02
#       4
#     8   4   8   8
#     4  12  31  58  92 146 191 257 324 394 485 565
#     4  12  30  52  98 138 192 260 316 396 470 568
#     4  12  29  60  96 136 189 252 315 396 483 570
#     4  12  32  60  94 142 199 250 326 397 479 582
#
# _framework density 29.623301999999999
#
# number of rings (size 3 to 8) (size 9 to 14) (size 15 to 20)
#    0.000    0.000    2.857    2.571    8.000    6.857 
#    0.000    4.286    0.000    0.000    0.000    0.000 
#    0.000    0.000    0.000    0.000    0.000    0.000 
#
# Total GULP energy -78677.968707 kJ/mol
# GULP energy per Si atom -5619.854908 kJ/mol
# Density = 2.955588 g / cm^3
# Si number density = 29.623302 Si / 1000 Ang^3
#
#
#
# Elastic Constant Matrix: (Units=GPa)
#
#
# Indices 1 2 3 4 5 6 
#
# 1 273.4603 152.9669 106.3951 0.0000 12.0329 0.0000
# 2 152.9669 242.7269 131.5052 0.0000 8.2005 0.0000
# 3 106.3951 131.5052 268.1514 0.0000 27.2431 0.0000
# 4 0.0000 0.0000 0.0000 74.8109 0.0000 11.6600
# 5 12.0329 8.2005 27.2431 0.0000 65.0114 0.0000
# 6 0.0000 0.0000 0.0000 11.6600 0.0000 46.9037
#
#
#
# Elastic Compliance Matrix: (Units=1/GPa)
#
#
# Indices 1 2 3 4 5 6 
#
# 1 0.005748 -0.003261 -0.000642 0.000000 -0.000383 0.000000
# 2 -0.003261 0.007475 -0.002441 0.000000 0.000684 0.000000
# 3 -0.000642 -0.002441 0.005366 0.000000 -0.001822 0.000000
# 4 0.000000 0.000000 0.000000 0.013906 0.000000 -0.003457
# 5 -0.000383 0.000684 -0.001822 0.000000 0.016130 0.000000
# 6 0.000000 0.000000 0.000000 -0.003457 0.000000 0.022180
#
#
# Mechanical properties :
#
#
# Convention : Reuss Voigt Hill
#
# Bulk Modulus (GPa) = 169.50931 174.00811 171.75871
# Shear Modulus (GPa) = 58.50649 63.57662 61.04155
#
# Velocity S-wave (km/s) = 4.44894 4.63770 4.54430
# Velocity P-wave (km/s) = 9.15077 9.35658 9.25424
#
# Compressibility (1/GPa) = 0.00589938
#
# Stress axis : x y z
#
# Youngs Moduli (GPa) = 173.97458 133.78474 186.34820
#
# Poissons Ratio (x) = 0.43634 0.11967
# Poissons Ratio (y) = 0.56742 0.45489
# Poissons Ratio (z) = 0.11173 0.32658
#
# Static dielectric constant tensor:
#      x y z
#    x 2.389330 0.000000 -0.111640 
#    y 0.000000 2.374630 0.000000 
#    z -0.111640 0.000000 2.319370 
# 
# From -- ./inp_files/27564.got.cif
#   From: 2010.05.17/outbox.cif.g08.bks.cpg/sg15_14_cif.got.tgz:27564.got - 2010.06.03 18:47:42.
