data_PCOD9308157
_publ_section_title
;
Structure prediction by ZEFSAII (Michael W. Deem and Ramdas Pophale) SiO2 
 PCOD9308157
Probable space group: C 2/C
;
_chemical_formula_sum "Si O2"
_cell_formula_units_Z 24
_cell_length_a 5.685619
_cell_length_b 8.357619
_cell_length_c 20.020345
_cell_angle_alpha 90.000000
_cell_angle_beta 90.441897
_cell_angle_gamma 90.000000
_cell_volume 951.303212
_symmetry_space_group_name_H-M "C 2/C"
_symmetry_group_IT_number 15
_symmetry_cell_setting 'monoclinic'
loop_
_space_group_symop_operation_xyz
x,y,z
-x,y,1/2-z
-x,-y,-z
x,-y,1/2+z
1/2+x,1/2+y,z
1/2-x,1/2+y,1/2-z
1/2-x,1/2-y,-z
1/2+x,1/2-y,1/2+z
loop_
_atom_site_type_symbol
_atom_site_label
_atom_site_fract_x
_atom_site_fract_y
_atom_site_fract_z
Si Si1 0.746810 0.020413 0.239771
Si Si2 0.352882 0.385208 0.952394
Si Si3 0.954151 0.618466 0.635236
O O1 0.500000 0.115348 0.250000
O O2 0.718434 0.894111 0.301185
O O3 0.701648 0.935687 0.168839
O O4 0.000000 0.095440 0.250000
O O5 0.510618 0.287579 0.899552
O O6 0.150934 0.488262 0.915751
O O7 0.500000 0.500000 0.000000
O O8 0.250000 0.250000 0.000000
#
# Coordination Sequence:
#
# PCOD9308157 Si02
#       3
#     8   8   8
#     4   8  20  46  76 112 146 196 246 330 376 446
#     4  12  26  48  72 108 152 203 248 306 370 457
#     4   9  24  46  74 111 146 197 252 314 376 453
#
# _framework density 25.228549999999998
#
# number of rings (size 3 to 8) (size 9 to 14) (size 15 to 20)
#    2.000    0.000    0.000    2.000    4.667    0.000 
#   12.000    0.000    0.000    0.000    0.000    0.000 
#    0.000    0.000    0.000    0.000    0.000    0.000 
#
# Total GULP energy -67051.425736 kJ/mol
# GULP energy per Si atom -5587.618811 kJ/mol
# Density = 2.517113 g / cm^3
# Si number density = 25.228550 Si / 1000 Ang^3
#
#
#
# Elastic Constant Matrix: (Units=GPa)
#
#
# Indices 1 2 3 4 5 6 
#
# 1 172.3231 76.4656 58.6613 0.0000 32.4886 0.0000
# 2 76.4656 155.0445 91.8496 0.0000 12.6122 0.0000
# 3 58.6613 91.8496 172.0389 0.0000 38.8312 0.0000
# 4 0.0000 0.0000 0.0000 50.5922 0.0000 -9.3681
# 5 32.4886 12.6122 38.8312 0.0000 43.9737 0.0000
# 6 0.0000 0.0000 0.0000 -9.3681 0.0000 47.3540
#
#
#
# Elastic Compliance Matrix: (Units=1/GPa)
#
#
# Indices 1 2 3 4 5 6 
#
# 1 0.008461 -0.004029 0.000520 0.000000 -0.005555 0.000000
# 2 -0.004029 0.011521 -0.005874 0.000000 0.004859 0.000000
# 3 0.000520 -0.005874 0.010588 0.000000 -0.008049 0.000000
# 4 0.000000 0.000000 0.000000 0.020518 0.000000 0.004059
# 5 -0.005555 0.004859 -0.008049 0.000000 0.032559 0.000000
# 6 0.000000 0.000000 0.000000 0.004059 0.000000 0.021921
#
#
# Mechanical properties :
#
#
# Convention : Reuss Voigt Hill
#
# Bulk Modulus (GPa) = 84.71631 105.92881 95.32256
# Shear Modulus (GPa) = 38.98040 46.54598 42.76319
#
# Velocity S-wave (km/s) = 3.93503 4.29997 4.12154
# Velocity P-wave (km/s) = 7.36874 8.16896 7.77915
#
# Compressibility (1/GPa) = 0.01180410
#
# Stress axis : x y z
#
# Youngs Moduli (GPa) = 118.18733 86.79503 94.44267
#
# Poissons Ratio (x) = 0.34969 -0.04908
# Poissons Ratio (y) = 0.47617 0.55477
# Poissons Ratio (z) = -0.06142 0.50985
#
# Static dielectric constant tensor:
#      x y z
#    x 1.992060 0.000000 -0.077280 
#    y 0.000000 1.963030 0.000000 
#    z -0.077280 0.000000 2.014750 
# 
# From -- ./inp_files/259604.got.cif
#   From: 2010.05.17/outbox.cif.g08.bks.cpg/sg15_130_cif.got.tgz:259604.got - 2010.06.03 18:47:42.
