data_PCOD9308221
_publ_section_title
;
Structure prediction by ZEFSAII (Michael W. Deem and Ramdas Pophale) SiO2 
 PCOD9308221
Probable space group: C 2/C
;
_chemical_formula_sum "Si O2"
_cell_formula_units_Z 44
_cell_length_a 24.901626
_cell_length_b 10.955645
_cell_length_c 14.554151
_cell_angle_alpha 90.000000
_cell_angle_beta 24.499029
_cell_angle_gamma 90.000000
_cell_volume 1646.506092
_symmetry_space_group_name_H-M "C 2/C"
_symmetry_group_IT_number 15
_symmetry_cell_setting 'monoclinic'
loop_
_space_group_symop_operation_xyz
x,y,z
-x,y,1/2-z
-x,-y,-z
x,-y,1/2+z
1/2+x,1/2+y,z
1/2-x,1/2+y,1/2-z
1/2-x,1/2-y,-z
1/2+x,1/2-y,1/2+z
loop_
_atom_site_type_symbol
_atom_site_label
_atom_site_fract_x
_atom_site_fract_y
_atom_site_fract_z
Si Si1 0.983807 0.309843 0.873567
Si Si2 0.250000 0.750000 0.000000
Si Si3 0.207363 0.905153 0.817572
Si Si4 0.726704 0.036905 0.493870
Si Si5 0.501751 0.379540 0.847952
Si Si6 0.976066 0.637487 0.984730
O O1 0.102658 0.215564 0.696971
O O2 0.986036 0.377556 0.967929
O O3 0.854549 0.228335 0.073562
O O4 0.041701 0.217780 0.007886
O O5 0.277880 0.891220 0.989013
O O6 0.254763 0.923271 0.639971
O O7 0.332662 0.912907 0.687587
O O8 0.098810 0.008478 0.001552
O O9 0.853232 0.082823 0.351414
O O10 0.596262 0.096753 0.736329
O O11 0.500000 0.319662 0.750000
O O12 0.000000 0.375915 0.750000
#
# Coordination Sequence:
#
# PCOD9308221 Si02
#       6
#     8   4   8   8   8   8
#     4  12  27  51  81 120 173 224 284 352 428 502
#     4  12  28  50  82 116 166 210 284 350 422 506
#     4  12  26  52  83 120 170 229 285 351 428 505
#     4  12  27  53  80 125 164 224 280 353 429 511
#     4  12  26  49  81 121 166 220 282 354 420 504
#     4  12  29  50  87 126 168 225 289 352 421 514
#
# _framework density 26.723255000000002
#
# number of rings (size 3 to 8) (size 9 to 14) (size 15 to 20)
#    0.000    0.000    3.636    5.455    5.091    3.636 
#    0.000    0.000    0.000    0.000    0.000    1.273 
#    0.000    0.000    0.000    0.000    0.000    0.000 
#
# Total GULP energy -123026.993267 kJ/mol
# GULP energy per Si atom -5592.136058 kJ/mol
# Density = 2.666243 g / cm^3
# Si number density = 26.723255 Si / 1000 Ang^3
#
#
#
# Elastic Constant Matrix: (Units=GPa)
#
#
# Indices 1 2 3 4 5 6 
#
# 1 192.8883 44.9389 84.3678 0.0000 -0.8466 0.0000
# 2 44.9389 90.1760 43.3928 0.0000 -19.3075 0.0000
# 3 84.3678 43.3928 169.1420 0.0000 -25.6323 0.0000
# 4 0.0000 0.0000 0.0000 47.3071 0.0000 -16.5784
# 5 -0.8466 -19.3075 -25.6323 0.0000 74.5731 0.0000
# 6 0.0000 0.0000 0.0000 -16.5784 0.0000 37.5638
#
#
#
# Elastic Compliance Matrix: (Units=1/GPa)
#
#
# Indices 1 2 3 4 5 6 
#
# 1 0.007125 -0.002362 -0.003195 0.000000 -0.001629 0.000000
# 2 -0.002362 0.013812 -0.001928 0.000000 0.002887 0.000000
# 3 -0.003195 -0.001928 0.008354 0.000000 0.002336 0.000000
# 4 0.000000 0.000000 0.000000 0.025006 0.000000 0.011036
# 5 -0.001629 0.002887 0.002336 0.000000 0.014942 0.000000
# 6 0.000000 0.000000 0.000000 0.011036 0.000000 0.031492
#
#
# Mechanical properties :
#
#
# Convention : Reuss Voigt Hill
#
# Bulk Modulus (GPa) = 69.82169 88.62282 79.22226
# Shear Modulus (GPa) = 41.50259 50.52256 46.01258
#
# Velocity S-wave (km/s) = 3.94515 4.35280 4.15398
# Velocity P-wave (km/s) = 6.85104 7.64838 7.26066
#
# Compressibility (1/GPa) = 0.01432220
#
# Stress axis : x y z
#
# Youngs Moduli (GPa) = 140.35369 72.39921 119.69856
#
# Poissons Ratio (x) = 0.17101 0.38240
# Poissons Ratio (y) = 0.33153 0.23076
# Poissons Ratio (z) = 0.44839 0.13957
#
# Static dielectric constant tensor:
#      x y z
#    x 2.148130 0.000000 0.042500 
#    y 0.000000 2.138780 0.000000 
#    z 0.042500 0.000000 2.139130 
# 
# From -- ./inp_files/225085.got.cif
#   From: 2010.05.17/outbox.cif.g08.bks.cpg/sg15_113_cif.got.tgz:225085.got - 2010.06.03 18:47:42.
