data_PCOD9308128
_publ_section_title
;
Structure prediction by ZEFSAII (Michael W. Deem and Ramdas Pophale) SiO2 
 PCOD9308128
Probable space group: C 2/C
;
_chemical_formula_sum "Si O2"
_cell_formula_units_Z 36
_cell_length_a 26.390877
_cell_length_b 6.578057
_cell_length_c 21.186100
_cell_angle_alpha 90.000000
_cell_angle_beta 25.330956
_cell_angle_gamma 90.000000
_cell_volume 1573.585030
_symmetry_space_group_name_H-M "C 2/C"
_symmetry_group_IT_number 15
_symmetry_cell_setting 'monoclinic'
loop_
_space_group_symop_operation_xyz
x,y,z
-x,y,1/2-z
-x,-y,-z
x,-y,1/2+z
1/2+x,1/2+y,z
1/2-x,1/2+y,1/2-z
1/2-x,1/2-y,-z
1/2+x,1/2-y,1/2+z
loop_
_atom_site_type_symbol
_atom_site_label
_atom_site_fract_x
_atom_site_fract_y
_atom_site_fract_z
Si Si1 0.000000 0.930947 0.250000
Si Si2 0.946424 0.614180 0.402163
Si Si3 0.231423 0.276171 0.850371
Si Si4 0.412831 0.416298 0.544822
Si Si5 0.134020 0.729668 0.674068
O O1 0.940270 0.076650 0.265999
O O2 0.914495 0.778789 0.384551
O O3 0.840706 0.467632 0.541666
O O4 0.975686 0.747013 0.431160
O O5 0.053038 0.470453 0.258599
O O6 0.301139 0.322298 0.707738
O O7 0.324983 0.227700 0.799789
O O8 0.139407 0.096717 0.939299
O O9 0.500000 0.500000 0.500000
O O10 0.250000 0.750000 0.500000
#
# Coordination Sequence:
#
# PCOD9308128 Si02
#       5
#     4   8   8   8   8
#     4  12  26  48  72 108 142 196 254 312 386 450
#     4  12  26  47  75 105 154 194 247 320 376 452
#     4  12  26  47  73 110 152 199 251 310 381 450
#     4  12  27  45  74 111 151 202 254 306 379 456
#     4  12  27  47  75 109 148 197 258 315 381 452
#
# _framework density 22.877696
#
# number of rings (size 3 to 8) (size 9 to 14) (size 15 to 20)
#    0.000    0.000    2.222    8.667    3.111    8.889 
#    0.000    0.000    0.000    0.000    0.000    0.000 
#    0.000    0.000    0.000    0.000    0.000    0.000 
#
# Total GULP energy -100777.068843 kJ/mol
# GULP energy per Si atom -5598.726047 kJ/mol
# Density = 2.282563 g / cm^3
# Si number density = 22.877696 Si / 1000 Ang^3
#
#
#
# Elastic Constant Matrix: (Units=GPa)
#
#
# Indices 1 2 3 4 5 6 
#
# 1 137.8543 72.4653 4.7093 0.0027 1.6080 0.0001
# 2 72.4653 157.4185 60.4773 -0.0125 4.7112 0.0071
# 3 4.7093 60.4773 119.9017 -0.0140 18.3174 0.0067
# 4 0.0027 -0.0125 -0.0140 45.5280 0.0027 27.0711
# 5 1.6080 4.7112 18.3174 0.0027 33.5413 -0.0002
# 6 0.0001 0.0071 0.0067 27.0711 -0.0002 34.3400
#
#
#
# Elastic Compliance Matrix: (Units=1/GPa)
#
#
# Indices 1 2 3 4 5 6 
#
# 1 0.010143 -0.005642 0.002619 -0.000003 -0.001124 0.000003
# 2 -0.005642 0.011059 -0.005630 0.000004 0.001792 -0.000004
# 3 0.002619 -0.005630 0.011975 0.000006 -0.005874 -0.000006
# 4 -0.000003 0.000004 0.000006 0.041344 -0.000007 -0.032593
# 5 -0.001124 0.001792 -0.005874 -0.000007 0.032824 0.000007
# 6 0.000003 -0.000004 -0.000006 -0.032593 0.000007 0.054814
#
#
# Mechanical properties :
#
#
# Convention : Reuss Voigt Hill
#
# Bulk Modulus (GPa) = 63.00859 76.71982 69.86420
# Shear Modulus (GPa) = 27.06267 41.18335 34.12301
#
# Velocity S-wave (km/s) = 3.44310 4.24742 3.86624
# Velocity P-wave (km/s) = 6.58847 7.59353 7.10878
#
# Compressibility (1/GPa) = 0.01587085
#
# Stress axis : x y z
#
# Youngs Moduli (GPa) = 98.58570 90.42333 83.51051
#
# Poissons Ratio (x) = 0.51016 -0.21872
# Poissons Ratio (y) = 0.55622 0.47018
# Poissons Ratio (z) = -0.25820 0.50911
#
# Static dielectric constant tensor:
#      x y z
#    x 3.992410 0.000180 1.007330 
#    y 0.000180 1.853960 0.000090 
#    z 1.007330 0.000090 2.341090 
# 
# From -- ./inp_files/115611.got.cif
#   From: 2010.05.17/outbox.cif.g08.bks.cpg/sg15_58_cif.got.tgz:115611.got - 2010.06.03 18:47:42.
