data_PCOD9308662
_publ_section_title
;
Structure prediction by ZEFSAII (Michael W. Deem and Ramdas Pophale) SiO2 
 PCOD9308662
Probable space group: C 2/C
;
_chemical_formula_sum "Si O2"
_cell_formula_units_Z 30
_cell_length_a 12.000000
_cell_length_b 18.000000
_cell_length_c 30.000000
_cell_angle_alpha 90.000000
_cell_angle_beta 30.000000
_cell_angle_gamma 90.000000
_cell_volume 3240.000000
_symmetry_space_group_name_H-M "C 2/C"
_symmetry_group_IT_number 15
_symmetry_cell_setting 'monoclinic'
loop_
_space_group_symop_operation_xyz
x,y,z
-x,y,1/2-z
-x,-y,-z
x,-y,1/2+z
1/2+x,1/2+y,z
1/2-x,1/2+y,1/2-z
1/2-x,1/2-y,-z
1/2+x,1/2-y,1/2+z
loop_
_atom_site_type_symbol
_atom_site_label
_atom_site_fract_x
_atom_site_fract_y
_atom_site_fract_z
Si Si1 0.637177 0.560269 0.925462
Si Si2 0.664587 0.192523 0.964777
Si Si3 0.210668 0.360560 0.750264
Si Si4 0.889168 0.342420 0.410951
Si Si5 0.500000 0.037057 0.250000
Si Si6 0.781093 0.649559 0.453183
Si Si7 0.103927 0.189114 0.763247
Si Si8 0.211708 0.832323 0.568484
O O1 0.764421 0.615318 0.914823
O O2 0.826114 0.516597 0.834045
O O3 0.500000 0.500000 0.000000
O O4 0.441665 0.600805 0.965764
O O5 0.700754 0.281856 0.949497
O O6 0.897391 0.160626 0.864767
O O7 0.652102 0.176644 0.021236
O O8 0.437564 0.166092 0.019766
O O9 0.148962 0.409170 0.728947
O O10 0.165227 0.273277 0.756639
O O11 0.477075 0.366606 0.667728
O O12 0.010887 0.383173 0.853444
O O13 0.842741 0.254826 0.420116
O O14 0.781232 0.363831 0.495940
O O15 0.158153 0.352941 0.317748
O O16 0.000000 0.191256 0.750000
#
# Coordination Sequence:
#
# PCOD9308662 Si02
#       8
#     8   8   8   8   4   8   8   8
#     4  12  24  40  61  85 124 159 196 249 290 356
#     4  10  20  36  59  88 122 156 188 247 308 357
#     4  10  21  36  58  87 113 159 206 237 296 351
#     4  10  21  34  55  93 121 148 195 249 306 343
#     4  12  24  38  62  86 118 166 202 244 288 362
#     4  10  22  39  55  85 127 157 195 238 304 358
#     4  10  18  33  60  88 120 150 189 256 296 349
#     4  10  19  34  62  88 118 148 195 259 293 355
#
# _framework density 9.2592590000000001
#
# number of rings (size 3 to 8) (size 9 to 14) (size 15 to 20)
#    0.000    1.600    4.667    0.800    1.867    0.533 
#    0.000    0.000    0.000    4.800    0.000    0.000 
#    0.000    0.000    0.000    0.000    0.000    0.000 
#
# Total GULP energy -167089.162259 kJ/mol
# GULP energy per Si atom -5569.638742 kJ/mol
# Density = 0.923818 g / cm^3
# Si number density = 9.259259 Si / 1000 Ang^3
#
#
#
# Elastic Constant Matrix: (Units=GPa)
#
#
# Indices 1 2 3 4 5 6 
#
# 1 74.8069 -0.7642 52.1417 -0.0047 -25.7951 0.0013
# 2 -0.7642 8.6888 16.0410 -0.0130 -9.6873 0.0055
# 3 52.1417 16.0410 153.0773 -0.0137 -37.3196 0.0081
# 4 -0.0047 -0.0130 -0.0137 26.9346 0.0018 2.6855
# 5 -25.7951 -9.6873 -37.3196 0.0018 35.7833 0.0014
# 6 0.0013 0.0055 0.0081 2.6855 0.0014 -6.7365
#
#
#
# Elastic Compliance Matrix: (Units=1/GPa)
#
#
# Indices 1 2 3 4 5 6 
#
# 1 0.027493 0.043265 -0.008329 0.000016 0.022845 0.000042
# 2 0.043265 0.241775 -0.022142 0.000086 0.073550 0.000228
# 3 -0.008329 -0.022142 0.011753 -0.000005 0.000260 -0.000008
# 4 0.000016 0.000086 -0.000005 0.035708 0.000026 0.014235
# 5 0.022845 0.073550 0.000260 0.000026 0.064596 0.000089
# 6 0.000042 0.000228 -0.000008 0.014235 0.000089 -0.142771
#
#
# Mechanical properties :
#
#
# Convention : Reuss Voigt Hill
#
# Bulk Modulus (GPa) = 3.26148 41.26778 22.26463
# Shear Modulus (GPa) = 15.86452 22.47326 19.16889
#
# Velocity S-wave (km/s) = 2.93009 3.48739 3.22082
# Velocity P-wave (km/s) = 3.63487 6.20877 5.08729
#
# Compressibility (1/GPa) = 0.30660946
#
# Stress axis : x y z
#
# Youngs Moduli (GPa) = 36.37355 4.13607 85.08362
#
# Poissons Ratio (x) = -0.17895 0.70865
# Poissons Ratio (y) = -1.57369 1.88388
# Poissons Ratio (z) = 0.30295 0.09158
#
# Static dielectric constant tensor:
#      x y z
#    x 1.638980 0.000010 -0.000190 
#    y 0.000010 1.763940 -0.000010 
#    z -0.000190 -0.000010 1.709620 
# 
# From -- ./inp_files/311557.got.cif
#   From: 2010.05.17/outbox.ucp.g08.bks.cvg/sg15_156_cif.got.tgz:311557.got - 2010.06.11 12:40:34.
