data_PCOD9308273
_publ_section_title
;
Structure prediction by ZEFSAII (Michael W. Deem and Ramdas Pophale) SiO2 
 PCOD9308273
Probable space group: C 2/C
;
_chemical_formula_sum "Si O2"
_cell_formula_units_Z 40
_cell_length_a 8.982672
_cell_length_b 15.556814
_cell_length_c 14.330021
_cell_angle_alpha 90.000000
_cell_angle_beta 47.350777
_cell_angle_gamma 90.000000
_cell_volume 1472.871113
_symmetry_space_group_name_H-M "C 2/C"
_symmetry_group_IT_number 15
_symmetry_cell_setting 'monoclinic'
loop_
_space_group_symop_operation_xyz
x,y,z
-x,y,1/2-z
-x,-y,-z
x,-y,1/2+z
1/2+x,1/2+y,z
1/2-x,1/2+y,1/2-z
1/2-x,1/2-y,-z
1/2+x,1/2-y,1/2+z
loop_
_atom_site_type_symbol
_atom_site_label
_atom_site_fract_x
_atom_site_fract_y
_atom_site_fract_z
Si Si1 0.654690 0.159590 0.993351
Si Si2 0.811784 0.780690 0.258069
Si Si3 0.901936 0.006935 0.443278
Si Si4 0.706727 0.176993 0.598826
Si Si5 0.686264 0.622382 0.235522
O O1 0.664188 0.158476 0.877060
O O2 0.000000 0.220264 0.750000
O O3 0.789475 0.079227 0.966412
O O4 0.750000 0.250000 0.000000
O O5 0.843244 0.802596 0.135460
O O6 0.694640 0.689541 0.316355
O O7 0.758809 0.090059 0.519607
O O8 0.577353 0.131388 0.387641
O O9 0.097315 0.030128 0.296914
O O10 0.000000 0.000000 0.500000
O O11 0.500000 0.167902 0.750000
O O12 0.750000 0.250000 0.500000
O O13 0.500000 0.655957 0.250000
#
# Coordination Sequence:
#
# PCOD9308273 Si02
#       5
#     8   8   8   8   8
#     4  12  29  58  94 138 190 260 325 408 492 589
#     4  12  26  51  97 132 186 250 330 386 490 580
#     4  12  30  53  87 136 186 247 328 398 485 578
#     4  12  30  57  92 139 191 253 310 402 499 580
#     4  12  30  54  88 133 193 240 325 403 494 568
#
# _framework density 27.157838999999999
#
# number of rings (size 3 to 8) (size 9 to 14) (size 15 to 20)
#    0.000    0.000    2.000    5.400   11.200    4.000 
#    0.000    2.000    0.000    0.000    0.000    0.000 
#    0.000    0.000    0.000    0.000    0.000    0.000 
#
# Total GULP energy -111356.573029 kJ/mol
# GULP energy per Si atom -5567.828651 kJ/mol
# Density = 2.709603 g / cm^3
# Si number density = 27.157839 Si / 1000 Ang^3
#
#
#
# Elastic Constant Matrix: (Units=GPa)
#
#
# Indices 1 2 3 4 5 6 
#
# 1 184.1973 71.3627 90.7110 0.0001 -25.1392 -0.0002
# 2 71.3627 207.7780 85.2939 0.0000 -14.5339 0.0000
# 3 90.7110 85.2939 189.5164 0.0000 -5.0908 0.0000
# 4 0.0001 0.0000 0.0000 42.0578 0.0000 7.0816
# 5 -25.1392 -14.5339 -5.0908 0.0000 68.3838 0.0001
# 6 -0.0002 0.0000 0.0000 7.0816 0.0001 61.5606
#
#
#
# Elastic Compliance Matrix: (Units=1/GPa)
#
#
# Indices 1 2 3 4 5 6 
#
# 1 0.007750 -0.001227 -0.003094 0.000000 0.002358 0.000000
# 2 -0.001227 0.006175 -0.002173 0.000000 0.000700 0.000000
# 3 -0.003094 -0.002173 0.007708 0.000000 -0.001025 0.000000
# 4 0.000000 0.000000 0.000000 0.024246 0.000000 -0.002789
# 5 0.002358 0.000700 -0.001025 0.000000 0.015563 0.000000
# 6 0.000000 0.000000 0.000000 -0.002789 0.000000 0.016565
#
#
# Mechanical properties :
#
#
# Convention : Reuss Voigt Hill
#
# Bulk Modulus (GPa) = 115.67157 119.58078 117.62618
# Shear Modulus (GPa) = 53.26151 56.67536 54.96844
#
# Velocity S-wave (km/s) = 4.43333 4.57320 4.50381
# Velocity P-wave (km/s) = 8.30004 8.48604 8.39356
#
# Compressibility (1/GPa) = 0.00864517
#
# Stress axis : x y z
#
# Youngs Moduli (GPa) = 129.03799 161.93731 129.73458
#
# Poissons Ratio (x) = 0.19864 0.40139
# Poissons Ratio (y) = 0.15829 0.28195
# Poissons Ratio (z) = 0.39923 0.35194
#
# Static dielectric constant tensor:
#      x y z
#    x 2.265650 0.000000 -0.183730 
#    y 0.000000 2.438050 0.000000 
#    z -0.183730 0.000000 2.337110 
# 
# From -- ./inp_files/143305.got.cif
#   From: 2010.05.17/outbox.cif.g08.bks.cpg/sg15_72_cif.got.tgz:143305.got - 2010.06.03 18:47:42.
