data_PCOD9308784
_publ_section_title
;
Structure prediction by ZEFSAII (Michael W. Deem and Ramdas Pophale) SiO2 
 PCOD9308784
Probable space group: C 2/C
;
_chemical_formula_sum "Si O2"
_cell_formula_units_Z 24
_cell_length_a 15.000000
_cell_length_b 30.000000
_cell_length_c 15.000000
_cell_angle_alpha 90.000000
_cell_angle_beta 160.000000
_cell_angle_gamma 90.000000
_cell_volume 2308.635967
_symmetry_space_group_name_H-M "C 2/C"
_symmetry_group_IT_number 15
_symmetry_cell_setting 'monoclinic'
loop_
_space_group_symop_operation_xyz
x,y,z
-x,y,1/2-z
-x,-y,-z
x,-y,1/2+z
1/2+x,1/2+y,z
1/2-x,1/2+y,1/2-z
1/2-x,1/2-y,-z
1/2+x,1/2-y,1/2+z
loop_
_atom_site_type_symbol
_atom_site_label
_atom_site_fract_x
_atom_site_fract_y
_atom_site_fract_z
Si Si1 0.296828 0.148808 0.700098
Si Si2 0.500000 0.218904 0.750000
Si Si3 0.657726 0.001176 0.493952
Si Si4 0.070712 0.218357 0.623339
Si Si5 0.000000 0.780902 0.250000
Si Si6 0.309952 0.593233 0.226575
Si Si7 0.890531 0.963367 0.964411
O O1 0.433381 0.185543 0.766837
O O2 0.139025 0.178947 0.621513
O O3 0.073456 0.118663 0.441870
O O4 0.539412 0.120551 0.967145
O O5 0.250000 0.250000 0.500000
O O6 0.500000 0.996668 0.250000
O O7 0.744702 0.951979 0.609292
O O8 0.414511 0.024276 0.314599
O O9 0.918562 0.030475 0.769338
O O10 0.810165 0.246020 0.353184
O O11 0.040060 0.196464 0.692846
O O12 0.250000 0.750000 0.500000
O O13 0.389286 0.581155 0.403605
O O14 0.000000 0.000000 0.000000
#
# Coordination Sequence:
#
# PCOD9308784 Si02
#       7
#     8   4   8   8   4   8   8
#     4  12  24  39  62  90 127 175 213 264 337 378
#     4  12  26  46  62  88 132 180 232 276 326 398
#     4  11  22  39  67  96 122 165 216 263 313 384
#     4  10  19  36  60  87 116 156 210 255 309 385
#     4   8  16  30  56  86 108 132 188 258 292 342
#     4  11  23  40  62  93 130 162 214 270 319 381
#     4  10  20  40  63  88 124 165 203 256 318 381
#
# _framework density 10.395749
#
# number of rings (size 3 to 8) (size 9 to 14) (size 15 to 20)
#    0.000    1.333    0.000    8.500    1.167    0.000 
#    3.000    0.000    7.333    0.000    2.167    0.000 
#    0.000    0.000    0.000    0.000    0.000    0.000 
#
# Total GULP energy -133687.270170 kJ/mol
# GULP energy per Si atom -5570.302924 kJ/mol
# Density = 1.037209 g / cm^3
# Si number density = 10.395749 Si / 1000 Ang^3
#
#
#
# Elastic Constant Matrix: (Units=GPa)
#
#
# Indices 1 2 3 4 5 6 
#
# 1 74.9791 22.5565 11.4901 0.0005 -10.9989 0.0009
# 2 22.5565 75.1808 36.6255 0.0033 -0.4689 0.0005
# 3 11.4901 36.6255 184.8031 0.0067 2.9287 0.0043
# 4 0.0005 0.0033 0.0067 31.7941 0.0009 -13.8796
# 5 -10.9989 -0.4689 2.9287 0.0009 39.7040 0.0020
# 6 0.0009 0.0005 0.0043 -13.8796 0.0020 -2.0228
#
#
#
# Elastic Compliance Matrix: (Units=1/GPa)
#
#
# Indices 1 2 3 4 5 6 
#
# 1 0.015330 -0.004512 -0.000126 0.000001 0.004203 0.000002
# 2 -0.004512 0.016057 -0.002888 -0.000001 -0.000847 0.000000
# 3 -0.000126 -0.002888 0.005999 0.000001 -0.000511 0.000004
# 4 0.000001 -0.000001 0.000001 0.007872 0.000003 -0.054015
# 5 0.004203 -0.000847 -0.000511 0.000003 0.026378 0.000008
# 6 0.000002 0.000000 0.000004 -0.054015 0.000008 -0.123733
#
#
# Mechanical properties :
#
#
# Convention : Reuss Voigt Hill
#
# Bulk Modulus (GPa) = 44.77350 52.92302 48.84826
# Shear Modulus (GPa) = -168.92597 31.51446 -68.70575
#
# Velocity S-wave (km/s) = -9.02352 3.89747 -5.75472
# Velocity P-wave (km/s) = 9.32652 6.76485 4.53987
#
# Compressibility (1/GPa) = 0.02233464
#
# Stress axis : x y z
#
# Youngs Moduli (GPa) = 65.23059 62.27870 166.68076
#
# Poissons Ratio (x) = 0.28101 0.02092
# Poissons Ratio (y) = 0.29433 0.48142
# Poissons Ratio (z) = 0.00819 0.17988
#
# Static dielectric constant tensor:
#      x y z
#    x 1.858770 0.000010 -0.039470 
#    y 0.000010 1.724530 0.000000 
#    z -0.039470 0.000000 1.712920 
# 
# From -- ./inp_files/157764.got.cif
#   From: 2010.05.17/outbox.ucp.g08.bks.cvg/sg15_79_cif.got.tgz:157764.got - 2010.06.11 12:40:34.
