data_PCOD9308182
_publ_section_title
;
Structure prediction by ZEFSAII (Michael W. Deem and Ramdas Pophale) SiO2 
 PCOD9308182
Probable space group: C 2/C
;
_chemical_formula_sum "Si O2"
_cell_formula_units_Z 36
_cell_length_a 4.943418
_cell_length_b 13.850822
_cell_length_c 19.748830
_cell_angle_alpha 90.000000
_cell_angle_beta 76.886941
_cell_angle_gamma 90.000000
_cell_volume 1316.950491
_symmetry_space_group_name_H-M "C 2/C"
_symmetry_group_IT_number 15
_symmetry_cell_setting 'monoclinic'
loop_
_space_group_symop_operation_xyz
x,y,z
-x,y,1/2-z
-x,-y,-z
x,-y,1/2+z
1/2+x,1/2+y,z
1/2-x,1/2+y,1/2-z
1/2-x,1/2-y,-z
1/2+x,1/2-y,1/2+z
loop_
_atom_site_type_symbol
_atom_site_label
_atom_site_fract_x
_atom_site_fract_y
_atom_site_fract_z
Si Si1 0.500000 0.442820 0.750000
Si Si2 0.685914 0.810665 0.853852
Si Si3 0.532196 0.698216 0.461152
Si Si4 0.760673 0.400517 0.321576
Si Si5 0.817465 0.524546 0.446551
O O1 0.255616 0.371975 0.783859
O O2 0.440155 0.514639 0.692211
O O3 0.608719 0.701424 0.840135
O O4 0.463964 0.877794 0.904252
O O5 0.968716 0.799671 0.883171
O O6 0.750000 0.750000 0.500000
O O7 0.533636 0.584162 0.478985
O O8 0.250000 0.750000 0.500000
O O9 0.855117 0.441730 0.388394
O O10 0.000000 0.391258 0.250000
O O11 0.000000 0.500000 0.500000
#
# Coordination Sequence:
#
# PCOD9308182 Si02
#       5
#     4   8   8   8   8
#     4  12  26  48  78 116 162 218 286 360 432 520
#     4  12  27  50  79 118 168 217 285 357 432 515
#     4  12  26  49  81 120 167 222 276 349 434 509
#     4  12  27  47  79 118 160 222 283 353 432 515
#     4  12  28  51  85 121 172 222 293 356 437 527
#
# _framework density 27.335875999999999
#
# number of rings (size 3 to 8) (size 9 to 14) (size 15 to 20)
#    0.000    0.000    7.778    1.333    0.000    6.222 
#    0.000    0.000    0.000    0.000    0.000    0.000 
#    0.000    0.000    0.000    0.000    0.000    0.000 
#
# Total GULP energy -100735.831035 kJ/mol
# GULP energy per Si atom -5596.435058 kJ/mol
# Density = 2.727366 g / cm^3
# Si number density = 27.335876 Si / 1000 Ang^3
#
#
#
# Elastic Constant Matrix: (Units=GPa)
#
#
# Indices 1 2 3 4 5 6 
#
# 1 -751.6996 -835.2822 -890.0878 0.0000 595.6087 0.0000
# 2 -835.2822 -592.8960 -842.4327 0.0000 555.6530 0.0000
# 3 -890.0878 -842.4327 -821.7124 0.0000 601.2475 0.0000
# 4 0.0000 0.0000 0.0000 70.3910 0.0000 -13.7156
# 5 595.6087 555.6530 601.2475 0.0000 -329.8069 0.0000
# 6 0.0000 0.0000 0.0000 -13.7156 0.0000 43.3101
#
#
#
# Elastic Compliance Matrix: (Units=1/GPa)
#
#
# Indices 1 2 3 4 5 6 
#
# 1 0.005708 -0.001120 -0.003376 0.000000 0.002268 0.000000
# 2 -0.001120 0.004434 -0.001957 0.000000 0.001880 0.000000
# 3 -0.003376 -0.001957 0.007269 0.000000 0.003858 0.000000
# 4 0.000000 0.000000 0.000000 0.015141 0.000000 0.004795
# 5 0.002268 0.001880 0.003858 0.000000 0.011264 0.000000
# 6 0.000000 0.000000 0.000000 0.004795 0.000000 0.024608
#
#
# Mechanical properties :
#
#
# Convention : Reuss Voigt Hill
#
# Bulk Modulus (GPa) = 221.93293 -811.32369 -294.69538
# Shear Modulus (GPa) = 60.36242 -16.45485 21.95379
#
# Velocity S-wave (km/s) = 4.70422 -2.45613 2.83700
# Velocity P-wave (km/s) = 10.52948 17.47815 9.86448
#
# Compressibility (1/GPa) = 0.00450587
#
# Stress axis : x y z
#
# Youngs Moduli (GPa) = 175.18400 225.51065 137.56184
#
# Poissons Ratio (x) = 0.25250 0.46441
# Poissons Ratio (y) = 0.19615 0.26927
# Poissons Ratio (z) = 0.59142 0.44143
#
# Static dielectric constant tensor:
#      x y z
#    x 3.877320 0.000000 -0.633510 
#    y 0.000000 2.257430 0.000000 
#    z -0.633510 0.000000 2.534330 
# 
# From -- ./inp_files/226445.got.cif
#   From: 2010.05.17/outbox.cif.g08.bks.cpg/sg15_114_cif.got.tgz:226445.got - 2010.06.03 18:47:42.
