data_PCOD9308151
_publ_section_title
;
Structure prediction by ZEFSAII (Michael W. Deem and Ramdas Pophale) SiO2 
 PCOD9308151
Probable space group: C 2/C
;
_chemical_formula_sum "Si O2"
_cell_formula_units_Z 40
_cell_length_a 21.277382
_cell_length_b 9.769400
_cell_length_c 13.999118
_cell_angle_alpha 90.000000
_cell_angle_beta 146.376698
_cell_angle_gamma 90.000000
_cell_volume 1611.331903
_symmetry_space_group_name_H-M "C 2/C"
_symmetry_group_IT_number 15
_symmetry_cell_setting 'monoclinic'
loop_
_space_group_symop_operation_xyz
x,y,z
-x,y,1/2-z
-x,-y,-z
x,-y,1/2+z
1/2+x,1/2+y,z
1/2-x,1/2+y,1/2-z
1/2-x,1/2-y,-z
1/2+x,1/2-y,1/2+z
loop_
_atom_site_type_symbol
_atom_site_label
_atom_site_fract_x
_atom_site_fract_y
_atom_site_fract_z
Si Si1 0.967816 0.764001 0.602825
Si Si2 0.211934 0.970374 0.112139
Si Si3 0.024496 0.169856 0.967021
Si Si4 0.906621 0.535253 0.000800
Si Si5 0.719318 0.399931 0.420722
O O1 0.839227 0.820968 0.428491
O O2 0.033439 0.819451 0.593116
O O3 0.975864 0.600951 0.608892
O O4 0.000000 0.811755 0.750000
O O5 0.123691 0.079301 0.046244
O O6 0.333852 0.989201 0.313010
O O7 0.215921 0.997923 0.005347
O O8 0.902834 0.110345 0.783805
O O9 0.028418 0.323018 0.929600
O O10 0.814107 0.555499 0.966186
O O11 0.750000 0.250000 0.500000
#
# Coordination Sequence:
#
# PCOD9308151 Si02
#       5
#     8   8   8   8   8
#     4  12  28  44  72 111 147 187 232 310 373 407
#     4  12  26  49  74 105 146 196 241 298 363 436
#     4  12  26  52  75 103 151 197 246 293 358 450
#     4  12  28  48  75 109 148 189 249 302 358 436
#     4  12  26  47  80 106 141 199 253 288 361 446
#
# _framework density 24.824185
#
# number of rings (size 3 to 8) (size 9 to 14) (size 15 to 20)
#    0.000    0.000    4.000    5.400    8.400    0.800 
#    0.000    0.000    0.000    0.000    0.000    0.000 
#    0.000    0.000    0.000    0.000    0.000    0.000 
#
# Total GULP energy -112283.252099 kJ/mol
# GULP energy per Si atom -5614.162605 kJ/mol
# Density = 2.476768 g / cm^3
# Si number density = 24.824185 Si / 1000 Ang^3
#
#
#
# Elastic Constant Matrix: (Units=GPa)
#
#
# Indices 1 2 3 4 5 6 
#
# 1 167.1167 33.0380 40.0975 0.0000 -34.8593 0.0000
# 2 33.0380 117.8846 1.1161 0.0000 -4.7332 0.0000
# 3 40.0975 1.1161 77.4289 0.0000 -26.8385 0.0000
# 4 0.0000 0.0000 0.0000 27.0256 0.0000 3.5669
# 5 -34.8593 -4.7332 -26.8385 0.0000 36.5511 0.0000
# 6 0.0000 0.0000 0.0000 3.5669 0.0000 36.7836
#
#
#
# Elastic Compliance Matrix: (Units=1/GPa)
#
#
# Indices 1 2 3 4 5 6 
#
# 1 0.008131 -0.002020 -0.002125 0.000000 0.005932 0.000000
# 2 -0.002020 0.009036 0.000877 0.000000 -0.000113 0.000000
# 3 -0.002125 0.000877 0.017894 0.000000 0.011226 0.000000
# 4 0.000000 0.000000 0.000000 0.037482 0.000000 -0.003635
# 5 0.005932 -0.000113 0.011226 0.000000 0.041245 0.000000
# 6 0.000000 0.000000 0.000000 -0.003635 0.000000 0.027538
#
#
# Mechanical properties :
#
#
# Convention : Reuss Voigt Hill
#
# Bulk Modulus (GPa) = 35.05857 56.77039 45.91448
# Shear Modulus (GPa) = 31.77204 39.28396 35.52800
#
# Velocity S-wave (km/s) = 3.58143 3.98236 3.78720
# Velocity P-wave (km/s) = 5.59067 6.63809 6.13677
#
# Compressibility (1/GPa) = 0.02852370
#
# Stress axis : x y z
#
# Youngs Moduli (GPa) = 122.99263 110.66530 55.88433
#
# Poissons Ratio (x) = 0.22358 0.11876
# Poissons Ratio (y) = 0.24849 -0.04901
# Poissons Ratio (z) = 0.26138 -0.09704
#
# Static dielectric constant tensor:
#      x y z
#    x 1.926660 0.000000 -0.017850 
#    y 0.000000 1.944310 0.000000 
#    z -0.017850 0.000000 1.918400 
# 
# From -- ./inp_files/172147.got.cif
#   From: 2010.05.17/outbox.cif.g08.bks.cpg/sg15_87_cif.got.tgz:172147.got - 2010.06.03 18:47:42.
