data_PCOD9308190
_publ_section_title
;
Structure prediction by ZEFSAII (Michael W. Deem and Ramdas Pophale) SiO2 
 PCOD9308190
Probable space group: C 2/C
;
_chemical_formula_sum "Si O2"
_cell_formula_units_Z 28
_cell_length_a 14.427773
_cell_length_b 12.224667
_cell_length_c 7.761806
_cell_angle_alpha 90.000000
_cell_angle_beta 111.945878
_cell_angle_gamma 90.000000
_cell_volume 1269.785911
_symmetry_space_group_name_H-M "C 2/C"
_symmetry_group_IT_number 15
_symmetry_cell_setting 'monoclinic'
loop_
_space_group_symop_operation_xyz
x,y,z
-x,y,1/2-z
-x,-y,-z
x,-y,1/2+z
1/2+x,1/2+y,z
1/2-x,1/2+y,1/2-z
1/2-x,1/2-y,-z
1/2+x,1/2-y,1/2+z
loop_
_atom_site_type_symbol
_atom_site_label
_atom_site_fract_x
_atom_site_fract_y
_atom_site_fract_z
Si Si1 0.538470 0.617468 0.969435
Si Si2 0.735288 0.876034 0.954580
Si Si3 0.000000 0.711411 0.750000
Si Si4 0.608117 0.976691 0.159625
O O1 0.500000 0.645879 0.750000
O O2 0.656959 0.595521 0.043237
O O3 0.500000 0.500000 0.000000
O O4 0.505838 0.709822 0.086204
O O5 0.696843 0.936468 0.098412
O O6 0.750000 0.750000 0.000000
O O7 0.646394 0.910776 0.766474
O O8 0.090239 0.624318 0.780388
O O9 0.500000 0.000000 0.000000
#
# Coordination Sequence:
#
# PCOD9308190 Si02
#       4
#     8   8   4   8
#     4  12  27  50  75 114 161 200 258 328 394 463
#     4  12  27  46  76 114 150 202 262 328 392 468
#     4  12  26  48  80 110 156 212 258 326 392 472
#     4  12  26  50  75 112 155 207 267 320 397 478
#
# _framework density 22.050961999999998
#
# number of rings (size 3 to 8) (size 9 to 14) (size 15 to 20)
#    0.000    0.000    7.143    1.714    4.000    0.000 
#    0.000    5.714    0.000    0.000    0.000    0.000 
#    0.000    0.000    0.000    0.000    0.000    0.000 
#
# Total GULP energy -78126.572862 kJ/mol
# GULP energy per Si atom -5580.469490 kJ/mol
# Density = 2.200077 g / cm^3
# Si number density = 22.050962 Si / 1000 Ang^3
#
#
#
# Elastic Constant Matrix: (Units=GPa)
#
#
# Indices 1 2 3 4 5 6 
#
# 1 158.1410 73.4151 57.0392 0.0000 2.0102 0.0000
# 2 73.4151 176.9786 69.6636 0.0000 2.7136 0.0000
# 3 57.0392 69.6636 137.8927 0.0000 -1.0590 0.0000
# 4 0.0000 0.0000 0.0000 44.1530 0.0000 -7.2894
# 5 2.0102 2.7136 -1.0590 0.0000 43.7439 0.0000
# 6 0.0000 0.0000 0.0000 -7.2894 0.0000 44.6928
#
#
#
# Elastic Compliance Matrix: (Units=1/GPa)
#
#
# Indices 1 2 3 4 5 6 
#
# 1 0.008301 -0.002605 -0.002120 0.000000 -0.000271 0.000000
# 2 -0.002605 0.007882 -0.002908 0.000000 -0.000440 0.000000
# 3 -0.002120 -0.002908 0.009602 0.000000 0.000510 0.000000
# 4 0.000000 0.000000 0.000000 0.023275 0.000000 0.003796
# 5 -0.000271 -0.000440 0.000510 0.000000 0.022912 0.000000
# 6 0.000000 0.000000 0.000000 0.003796 0.000000 0.022994
#
#
# Mechanical properties :
#
#
# Convention : Reuss Voigt Hill
#
# Bulk Modulus (GPa) = 95.05889 97.02759 96.04324
# Shear Modulus (GPa) = 43.96041 44.71089 44.33565
#
# Velocity S-wave (km/s) = 4.46980 4.50779 4.48884
# Velocity P-wave (km/s) = 8.35710 8.43745 8.39737
#
# Compressibility (1/GPa) = 0.01051980
#
# Stress axis : x y z
#
# Youngs Moduli (GPa) = 120.47145 126.86506 104.14573
#
# Poissons Ratio (x) = 0.33046 0.22076
# Poissons Ratio (y) = 0.31381 0.30287
# Poissons Ratio (z) = 0.25537 0.36894
#
# Static dielectric constant tensor:
#      x y z
#    x 1.685550 0.000000 -0.057660 
#    y 0.000000 1.765560 0.000000 
#    z -0.057660 0.000000 1.920070 
# 
# From -- ./inp_files/36618.got.cif
#   From: 2010.05.17/outbox.cif.g08.bks.cpg/sg15_19_cif.got.tgz:36618.got - 2010.06.03 18:47:42.
