data_PCOD9308406
_publ_section_title
;
Structure prediction by ZEFSAII (Michael W. Deem and Ramdas Pophale) SiO2 
 PCOD9308406
Probable space group: C 2/C
;
_chemical_formula_sum "Si O2"
_cell_formula_units_Z 24
_cell_length_a 11.438511
_cell_length_b 7.737292
_cell_length_c 10.308716
_cell_angle_alpha 90.000000
_cell_angle_beta 93.107883
_cell_angle_gamma 90.000000
_cell_volume 911.011449
_symmetry_space_group_name_H-M "C 2/C"
_symmetry_group_IT_number 15
_symmetry_cell_setting 'monoclinic'
loop_
_space_group_symop_operation_xyz
x,y,z
-x,y,1/2-z
-x,-y,-z
x,-y,1/2+z
1/2+x,1/2+y,z
1/2-x,1/2+y,1/2-z
1/2-x,1/2-y,-z
1/2+x,1/2-y,1/2+z
loop_
_atom_site_type_symbol
_atom_site_label
_atom_site_fract_x
_atom_site_fract_y
_atom_site_fract_z
Si Si1 0.000000 0.584733 0.250000
Si Si2 0.886752 0.191921 0.336294
Si Si3 0.500000 0.000000 0.500000
Si Si4 0.808476 0.191645 0.871754
O O1 0.917856 0.336367 0.443334
O O2 0.074039 0.486027 0.361790
O O3 0.773313 0.261685 0.253575
O O4 0.000000 0.163482 0.250000
O O5 0.855771 0.001373 0.384731
O O6 0.578998 0.818923 0.647266
O O7 0.750000 0.250000 0.000000
#
# Coordination Sequence:
#
# PCOD9308406 Si02
#       4
#     4   8   4   8
#     4  12  28  52  84 130 176 234 294 374 448 528
#     4  12  28  56  83 130 175 235 302 366 456 529
#     4  12  28  52  86 124 180 230 296 376 434 546
#     4  12  30  53  89 131 179 239 296 375 452 540
#
# _framework density 26.344344
#
# number of rings (size 3 to 8) (size 9 to 14) (size 15 to 20)
#    0.000    0.000    3.333    4.000    9.333    4.000 
#    0.000    0.000    0.000    0.000    0.000    0.000 
#    0.000    0.000    0.000    0.000    0.000    0.000 
#
# Total GULP energy -66840.397902 kJ/mol
# GULP energy per Si atom -5570.033159 kJ/mol
# Density = 2.628438 g / cm^3
# Si number density = 26.344344 Si / 1000 Ang^3
#
#
#
# Elastic Constant Matrix: (Units=GPa)
#
#
# Indices 1 2 3 4 5 6 
#
# 1 99.9481 51.1261 25.7996 0.0000 -4.4535 0.0000
# 2 51.1261 236.8749 18.1589 0.0000 -17.0315 0.0000
# 3 25.7996 18.1589 158.4256 0.0000 -19.6734 0.0000
# 4 0.0000 0.0000 0.0000 -14.9078 0.0000 -0.1061
# 5 -4.4535 -17.0315 -19.6734 0.0000 62.3784 0.0000
# 6 0.0000 0.0000 0.0000 -0.1061 0.0000 64.0396
#
#
#
# Elastic Compliance Matrix: (Units=1/GPa)
#
#
# Indices 1 2 3 4 5 6 
#
# 1 0.011654 -0.002413 -0.001665 0.000000 -0.000352 0.000000
# 2 -0.002413 0.004826 -0.000019 0.000000 0.001139 0.000000
# 3 -0.001665 -0.000019 0.006838 0.000000 0.002033 0.000000
# 4 0.000000 0.000000 0.000000 -0.067078 0.000000 -0.000111
# 5 -0.000352 0.001139 0.002033 0.000000 0.016958 0.000000
# 6 0.000000 0.000000 0.000000 -0.000111 0.000000 0.015615
#
#
# Mechanical properties :
#
#
# Convention : Reuss Voigt Hill
#
# Bulk Modulus (GPa) = 66.11972 76.15753 71.13862
# Shear Modulus (GPa) = 2442.89560 48.97964 1245.93762
#
# Velocity S-wave (km/s) = 30.48454 4.31653 21.77085
# Velocity P-wave (km/s) = 35.55600 7.33584 25.67142
#
# Compressibility (1/GPa) = 0.01512408
#
# Stress axis : x y z
#
# Youngs Moduli (GPa) = 85.81081 207.21980 146.24601
#
# Poissons Ratio (x) = 0.50001 0.24349
# Poissons Ratio (y) = 0.20705 0.00273
# Poissons Ratio (z) = 0.14287 0.00387
#
# Static dielectric constant tensor:
#      x y z
#    x 1.970960 0.000000 -0.265810 
#    y 0.000000 1.391950 0.000000 
#    z -0.265810 0.000000 1.717850 
# 
# From -- ./inp_files/36133.got.cif
#   From: 2010.05.17/outbox.cif.g08.bks.cpg/sg15_19_cif.got.tgz:36133.got - 2010.06.03 18:47:42.
