data_PCOD9308186
_publ_section_title
;
Structure prediction by ZEFSAII (Michael W. Deem and Ramdas Pophale) SiO2 
 PCOD9308186
Probable space group: C 2/C
;
_chemical_formula_sum "Si O2"
_cell_formula_units_Z 36
_cell_length_a 26.209581
_cell_length_b 6.658102
_cell_length_c 15.012026
_cell_angle_alpha 90.000000
_cell_angle_beta 33.315128
_cell_angle_gamma 90.000000
_cell_volume 1438.847413
_symmetry_space_group_name_H-M "C 2/C"
_symmetry_group_IT_number 15
_symmetry_cell_setting 'monoclinic'
loop_
_space_group_symop_operation_xyz
x,y,z
-x,y,1/2-z
-x,-y,-z
x,-y,1/2+z
1/2+x,1/2+y,z
1/2-x,1/2+y,1/2-z
1/2-x,1/2-y,-z
1/2+x,1/2-y,1/2+z
loop_
_atom_site_type_symbol
_atom_site_label
_atom_site_fract_x
_atom_site_fract_y
_atom_site_fract_z
Si Si1 0.991986 0.843726 0.158080
Si Si2 0.184143 0.510852 0.734087
Si Si3 0.500000 0.000000 0.000000
Si Si4 0.666498 0.602532 0.838299
Si Si5 0.794516 0.031335 0.412254
O O1 0.000000 0.793781 0.250000
O O2 0.900961 0.980722 0.278124
O O3 0.982871 0.642768 0.114018
O O4 0.081529 0.970449 0.995843
O O5 0.094726 0.635331 0.838218
O O6 0.256247 0.606094 0.697277
O O7 0.131153 0.328255 0.864963
O O8 0.237029 0.417682 0.573928
O O9 0.714961 0.519550 0.678035
O O10 0.750000 0.250000 0.500000
#
# Coordination Sequence:
#
# PCOD9308186 Si02
#       5
#     8   8   4   8   8
#     4  12  27  52  82 116 161 214 270 337 411 489
#     4  12  27  47  76 115 154 210 269 329 404 487
#     4  12  28  48  78 116 160 210 264 340 402 474
#     4  12  26  50  76 112 160 210 266 331 405 481
#     4  12  26  48  79 114 158 207 266 329 404 479
#
# _framework density 25.020026000000001
#
# number of rings (size 3 to 8) (size 9 to 14) (size 15 to 20)
#    0.000    0.000    4.444    5.333    3.111    0.000 
#    0.000    3.333    0.000    0.000    0.000    0.000 
#    0.000    0.000    0.000    0.000    0.000    0.000 
#
# Total GULP energy -100295.933552 kJ/mol
# GULP energy per Si atom -5571.996308 kJ/mol
# Density = 2.496308 g / cm^3
# Si number density = 25.020026 Si / 1000 Ang^3
#
#
#
# Elastic Constant Matrix: (Units=GPa)
#
#
# Indices 1 2 3 4 5 6 
#
# 1 145.1608 32.0394 75.0828 0.0014 18.2745 -0.0001
# 2 32.0394 113.7116 33.0761 0.0023 20.9037 0.0003
# 3 75.0828 33.0761 186.7492 0.0016 10.1834 0.0005
# 4 0.0014 0.0023 0.0016 23.6528 0.0005 34.1796
# 5 18.2745 20.9037 10.1834 0.0005 46.3195 -0.0009
# 6 -0.0001 0.0003 0.0005 34.1796 -0.0009 1.4589
#
#
#
# Elastic Compliance Matrix: (Units=1/GPa)
#
#
# Indices 1 2 3 4 5 6 
#
# 1 0.009180 -0.001179 -0.003354 0.000000 -0.002353 0.000000
# 2 -0.001179 0.010163 -0.001115 0.000000 -0.003876 0.000000
# 3 -0.003354 -0.001115 0.006884 0.000000 0.000313 0.000000
# 4 0.000000 0.000000 0.000000 -0.001287 0.000001 0.030148
# 5 -0.002353 -0.003876 0.000313 0.000001 0.024198 0.000000
# 6 0.000000 0.000000 0.000000 0.030148 0.000000 -0.020863
#
#
# Mechanical properties :
#
#
# Convention : Reuss Voigt Hill
#
# Bulk Modulus (GPa) = 66.96878 80.66870 73.81874
# Shear Modulus (GPa) = 112.24160 34.64781 73.44471
#
# Velocity S-wave (km/s) = 6.70508 3.72533 5.42384
# Velocity P-wave (km/s) = 9.31495 7.12852 8.29410
#
# Compressibility (1/GPa) = 0.01493233
#
# Stress axis : x y z
#
# Youngs Moduli (GPa) = 108.93364 98.39482 145.27381
#
# Poissons Ratio (x) = 0.11596 0.48722
# Poissons Ratio (y) = 0.12838 0.16196
# Poissons Ratio (z) = 0.36534 0.10969
#
# Static dielectric constant tensor:
#      x y z
#    x 1.795680 0.000000 0.232660 
#    y 0.000000 2.058780 0.000000 
#    z 0.232660 0.000000 1.908230 
# 
# From -- ./inp_files/176807.got.cif
#   From: 2010.05.17/outbox.cif.g08.bks.cpg/sg15_89_cif.got.tgz:176807.got - 2010.06.03 18:47:42.
