data_PCOD9308579
_publ_section_title
;
Structure prediction by ZEFSAII (Michael W. Deem and Ramdas Pophale) SiO2 
 PCOD9308579
Probable space group: C 2/C
;
_chemical_formula_sum "Si O2"
_cell_formula_units_Z 32
_cell_length_a 13.732499
_cell_length_b 9.727897
_cell_length_c 17.873107
_cell_angle_alpha 90.000000
_cell_angle_beta 148.851695
_cell_angle_gamma 90.000000
_cell_volume 1235.018129
_symmetry_space_group_name_H-M "C 2/C"
_symmetry_group_IT_number 15
_symmetry_cell_setting 'monoclinic'
loop_
_space_group_symop_operation_xyz
x,y,z
-x,y,1/2-z
-x,-y,-z
x,-y,1/2+z
1/2+x,1/2+y,z
1/2-x,1/2+y,1/2-z
1/2-x,1/2-y,-z
1/2+x,1/2-y,1/2+z
loop_
_atom_site_type_symbol
_atom_site_label
_atom_site_fract_x
_atom_site_fract_y
_atom_site_fract_z
Si Si1 0.459014 0.233062 0.104369
Si Si2 0.604687 0.070194 0.890106
Si Si3 0.094842 0.646838 0.050002
Si Si4 0.029007 0.026328 0.181715
O O1 0.477841 0.244969 0.026924
O O2 0.578843 0.363989 0.209545
O O3 0.496856 0.076545 0.156793
O O4 0.250000 0.250000 0.000000
O O5 0.500000 0.131480 0.750000
O O6 0.605016 0.158183 0.967025
O O7 0.822691 0.044233 0.011199
O O8 0.299499 0.626514 0.223543
O O9 0.000000 0.500000 0.000000
O O10 0.000000 0.048637 0.250000
#
# Coordination Sequence:
#
# PCOD9308579 Si02
#       4
#     8   8   8   8
#     4   9  17  31  54  85 118 154 194 237 285 343
#     4   9  17  30  52  82 114 153 194 238 289 343
#     4   9  18  32  51  83 119 151 194 242 289 341
#     4   9  17  31  54  84 115 152 192 237 289 341
#
# _framework density 25.910551000000002
#
# number of rings (size 3 to 8) (size 9 to 14) (size 15 to 20)
#    0.000    3.000    0.000    2.250    0.000    4.000 
#    0.000    5.000    0.000   12.000    0.000   77.000 
#    0.000    0.000    0.000    0.500    0.000    0.000 
#
# Total GULP energy -89305.969099 kJ/mol
# GULP energy per Si atom -5581.623069 kJ/mol
# Density = 2.585158 g / cm^3
# Si number density = 25.910551 Si / 1000 Ang^3
#
#
#
# Elastic Constant Matrix: (Units=GPa)
#
#
# Indices 1 2 3 4 5 6 
#
# 1 144.5705 24.0518 55.3151 0.0000 -10.4157 0.0000
# 2 24.0518 108.5572 20.2835 -0.0001 -1.7060 0.0000
# 3 55.3151 20.2835 165.4892 0.0001 4.0250 0.0000
# 4 0.0000 -0.0001 0.0001 17.3050 -0.0003 4.1176
# 5 -10.4157 -1.7060 4.0250 -0.0003 23.2382 -0.0001
# 6 0.0000 0.0000 0.0000 4.1176 -0.0001 32.1578
#
#
#
# Elastic Compliance Matrix: (Units=1/GPa)
#
#
# Indices 1 2 3 4 5 6 
#
# 1 0.008501 -0.001297 -0.002784 0.000000 0.004197 0.000000
# 2 -0.001297 0.009644 -0.000755 0.000000 0.000257 0.000000
# 3 -0.002784 -0.000755 0.007128 0.000000 -0.002538 0.000000
# 4 0.000000 0.000000 0.000000 0.059603 0.000001 -0.007632
# 5 0.004197 0.000257 -0.002538 0.000001 0.045372 0.000000
# 6 0.000000 0.000000 0.000000 -0.007632 0.000000 0.032074
#
#
# Mechanical properties :
#
#
# Convention : Reuss Voigt Hill
#
# Bulk Modulus (GPa) = 64.10359 68.65754 66.38057
# Shear Modulus (GPa) = 28.21773 35.80465 32.01119
#
# Velocity S-wave (km/s) = 3.30365 3.72137 3.51871
# Velocity P-wave (km/s) = 6.27265 6.70971 6.49486
#
# Compressibility (1/GPa) = 0.01559975
#
# Stress axis : x y z
#
# Youngs Moduli (GPa) = 117.63869 103.68926 140.29915
#
# Poissons Ratio (x) = 0.13450 0.39065
# Poissons Ratio (y) = 0.15260 0.10589
# Poissons Ratio (z) = 0.32756 0.07826
#
# Static dielectric constant tensor:
#      x y z
#    x 2.148520 0.000000 0.040950 
#    y 0.000000 2.119620 0.000000 
#    z 0.040950 0.000000 2.170890 
# 
# From -- ./inp_files/55083.got.cif
#   From: 2010.05.17/outbox.cif.g08.bks.cpg/sg15_28_cif.got.tgz:55083.got - 2010.06.03 18:47:42.
