data_PCOD9308779
_publ_section_title
;
Structure prediction by ZEFSAII (Michael W. Deem and Ramdas Pophale) SiO2 
 PCOD9308779
Probable space group: C 2/C
;
_chemical_formula_sum "Si O2"
_cell_formula_units_Z 20
_cell_length_a 24.000000
_cell_length_b 9.000000
_cell_length_c 9.000000
_cell_angle_alpha 90.000000
_cell_angle_beta 80.000000
_cell_angle_gamma 90.000000
_cell_volume 1914.466272
_symmetry_space_group_name_H-M "C 2/C"
_symmetry_group_IT_number 15
_symmetry_cell_setting 'monoclinic'
loop_
_space_group_symop_operation_xyz
x,y,z
-x,y,1/2-z
-x,-y,-z
x,-y,1/2+z
1/2+x,1/2+y,z
1/2-x,1/2+y,1/2-z
1/2-x,1/2-y,-z
1/2+x,1/2-y,1/2+z
loop_
_atom_site_type_symbol
_atom_site_label
_atom_site_fract_x
_atom_site_fract_y
_atom_site_fract_z
Si Si1 0.456744 0.448557 0.143526
Si Si2 0.854131 0.843275 0.673017
Si Si3 0.360934 0.211118 0.196289
Si Si4 0.163039 0.444932 0.493227
Si Si5 0.204857 0.950893 0.096917
O O1 0.500000 0.404820 0.250000
O O2 0.413591 0.585161 0.194485
O O3 0.415397 0.310504 0.136677
O O4 0.500000 0.500000 0.000000
O O5 0.854300 0.672113 0.627777
O O6 0.835102 0.920887 0.525957
O O7 0.809329 0.893068 0.818545
O O8 0.366268 0.107618 0.341135
O O9 0.312406 0.327465 0.271473
O O10 0.348308 0.108165 0.062553
O O11 0.230768 0.432414 0.480568
#
# Coordination Sequence:
#
# PCOD9308779 Si02
#       5
#     8   8   8   8   8
#     4  11  23  44  64  81 110 154 205 258 298 341
#     4  10  21  36  59  88 115 156 205 238 285 355
#     4  10  23  37  58  89 121 158 198 237 295 356
#     4  11  20  37  58  91 131 156 185 241 293 355
#     4  10  19  36  58  89 128 164 189 228 288 359
#
# _framework density 10.446776
#
# number of rings (size 3 to 8) (size 9 to 14) (size 15 to 20)
#    0.000    1.600    0.000    8.400    0.000    4.800 
#    0.000   12.000    0.000    0.000    0.000    0.000 
#    0.000    0.000    0.000    0.000    0.000    0.000 
#
# Total GULP energy -111697.814833 kJ/mol
# GULP energy per Si atom -5584.890742 kJ/mol
# Density = 1.042300 g / cm^3
# Si number density = 10.446776 Si / 1000 Ang^3
#
#
#
# Elastic Constant Matrix: (Units=GPa)
#
#
# Indices 1 2 3 4 5 6 
#
# 1 101.4049 39.0698 5.0432 0.0000 -15.7344 0.0000
# 2 39.0698 66.3099 34.3663 0.0000 0.2361 0.0000
# 3 5.0432 34.3663 48.6447 0.0000 -26.1345 0.0000
# 4 0.0000 0.0000 0.0000 44.2702 0.0000 -0.2155
# 5 -15.7344 0.2361 -26.1345 0.0000 27.9273 0.0000
# 6 0.0000 0.0000 0.0000 -0.2155 0.0000 24.7691
#
#
#
# Elastic Compliance Matrix: (Units=1/GPa)
#
#
# Indices 1 2 3 4 5 6 
#
# 1 -0.012766 0.040190 -0.062579 0.000000 -0.066094 0.000000
# 2 0.040190 -0.067177 0.112145 0.000000 0.128157 0.000000
# 3 -0.062579 0.112145 -0.144064 0.000000 -0.171022 0.000000
# 4 0.000000 0.000000 0.000000 0.022589 0.000000 0.000197
# 5 -0.066094 0.128157 -0.171022 0.000000 -0.162557 0.000000
# 6 0.000000 0.000000 0.000000 0.000197 0.000000 0.040375
#
#
# Mechanical properties :
#
#
# Convention : Reuss Voigt Hill
#
# Bulk Modulus (GPa) = -22.47384 41.47979 9.50298
# Shear Modulus (GPa) = -9.65357 28.58533 9.46588
#
# Velocity S-wave (km/s) = -2.15183 3.70285 2.13081
# Velocity P-wave (km/s) = 4.11747 6.17879 3.25760
#
# Compressibility (1/GPa) = -0.04449618
#
# Stress axis : x y z
#
# Youngs Moduli (GPa) = -78.33105 -14.88613 -6.94135
#
# Poissons Ratio (x) = 0.59827 -0.43438
# Poissons Ratio (y) = 3.14813 0.77843
# Poissons Ratio (z) = -4.90189 1.66940
#
# Static dielectric constant tensor:
#      x y z
#    x 1.730420 0.000000 0.000070 
#    y 0.000000 1.662300 0.000000 
#    z 0.000070 0.000000 1.787750 
# 
# From -- ./inp_files/59915.got.cif
#   From: 2010.05.17/outbox.ucp.g08.bks.cvg/sg15_30_cif.got.tgz:59915.got - 2010.06.11 12:40:34.
