data_PCOD9308174
_publ_section_title
;
Structure prediction by ZEFSAII (Michael W. Deem and Ramdas Pophale) SiO2 
 PCOD9308174
Probable space group: C 2/C
;
_chemical_formula_sum "Si O2"
_cell_formula_units_Z 44
_cell_length_a 17.321328
_cell_length_b 13.331896
_cell_length_c 9.667282
_cell_angle_alpha 90.000000
_cell_angle_beta 57.909768
_cell_angle_gamma 90.000000
_cell_volume 1891.341043
_symmetry_space_group_name_H-M "C 2/C"
_symmetry_group_IT_number 15
_symmetry_cell_setting 'monoclinic'
loop_
_space_group_symop_operation_xyz
x,y,z
-x,y,1/2-z
-x,-y,-z
x,-y,1/2+z
1/2+x,1/2+y,z
1/2-x,1/2+y,1/2-z
1/2-x,1/2-y,-z
1/2+x,1/2-y,1/2+z
loop_
_atom_site_type_symbol
_atom_site_label
_atom_site_fract_x
_atom_site_fract_y
_atom_site_fract_z
Si Si1 0.900267 0.049993 0.304276
Si Si2 0.345878 0.855742 0.718146
Si Si3 0.856896 0.272812 0.405139
Si Si4 0.500000 0.254985 0.250000
Si Si5 0.063511 0.454011 0.320027
Si Si6 0.852248 0.114492 0.043649
O O1 0.897145 0.161871 0.368365
O O2 0.877377 0.061159 0.164843
O O3 0.000000 0.012299 0.250000
O O4 0.837105 0.969315 0.439921
O O5 0.370250 0.831120 0.536352
O O6 0.424190 0.806393 0.736747
O O7 0.241659 0.824110 0.845975
O O8 0.349729 0.973908 0.747185
O O9 0.750000 0.250000 0.500000
O O10 0.899393 0.341054 0.241727
O O11 0.437285 0.317830 0.415733
O O12 0.000000 0.473906 0.250000
O O13 0.000000 0.500000 0.500000
#
# Coordination Sequence:
#
# PCOD9308174 Si02
#       6
#     8   8   8   4   8   8
#     4  12  26  48  79 111 156 203 260 322 391 474
#     4  12  27  48  78 116 153 206 262 330 391 480
#     4  12  26  49  76 115 156 209 261 321 400 474
#     4  12  28  52  76 114 154 210 260 330 396 468
#     4  12  26  48  77 113 159 204 262 326 403 475
#     4  12  28  50  77 117 154 203 266 328 393 473
#
# _framework density 23.263915999999998
#
# number of rings (size 3 to 8) (size 9 to 14) (size 15 to 20)
#    0.000    0.000    5.455    3.818    5.091    0.000 
#    3.273    0.000    0.000    0.000    0.000    0.000 
#    0.000    0.000    0.000    0.000    0.000    0.000 
#
# Total GULP energy -122939.625034 kJ/mol
# GULP energy per Si atom -5588.164774 kJ/mol
# Density = 2.321097 g / cm^3
# Si number density = 23.263916 Si / 1000 Ang^3
#
#
#
# Elastic Constant Matrix: (Units=GPa)
#
#
# Indices 1 2 3 4 5 6 
#
# 1 112.0430 5.7162 58.6128 0.0000 -4.5067 0.0000
# 2 5.7162 90.2999 43.1439 0.0000 -0.7138 0.0000
# 3 58.6128 43.1439 143.7477 0.0000 -13.9627 0.0000
# 4 0.0000 0.0000 0.0000 42.9875 0.0000 -6.6486
# 5 -4.5067 -0.7138 -13.9627 0.0000 53.6368 0.0000
# 6 0.0000 0.0000 0.0000 -6.6486 0.0000 33.4206
#
#
#
# Elastic Compliance Matrix: (Units=1/GPa)
#
#
# Indices 1 2 3 4 5 6 
#
# 1 0.011592 0.001797 -0.005303 0.000000 -0.000383 0.000000
# 2 0.001797 0.013245 -0.004798 0.000000 -0.000922 0.000000
# 3 -0.005303 -0.004798 0.010782 0.000000 0.002297 0.000000
# 4 0.000000 0.000000 0.000000 0.024001 0.000000 0.004775
# 5 -0.000383 -0.000922 0.002297 0.000000 0.019198 0.000000
# 6 0.000000 0.000000 0.000000 0.004775 0.000000 0.030872
#
#
# Mechanical properties :
#
#
# Convention : Reuss Voigt Hill
#
# Bulk Modulus (GPa) = 52.59836 62.33737 57.46787
# Shear Modulus (GPa) = 37.69737 41.91683 39.80710
#
# Velocity S-wave (km/s) = 4.02981 4.24936 4.14104
# Velocity P-wave (km/s) = 6.65665 7.13653 6.90076
#
# Compressibility (1/GPa) = 0.01901200
#
# Stress axis : x y z
#
# Youngs Moduli (GPa) = 86.26377 75.49775 92.74611
#
# Poissons Ratio (x) = -0.13567 0.49186
# Poissons Ratio (y) = -0.15501 0.44496
# Poissons Ratio (z) = 0.45748 0.36221
#
# Static dielectric constant tensor:
#      x y z
#    x 1.797880 0.000000 0.052830 
#    y 0.000000 1.932670 0.000000 
#    z 0.052830 0.000000 2.094610 
# 
# From -- ./inp_files/47389.got.cif
#   From: 2010.05.17/outbox.cif.g08.bks.cpg/sg15_24_cif.got.tgz:47389.got - 2010.06.03 18:47:42.
