data_PCOD9308401
_publ_section_title
;
Structure prediction by ZEFSAII (Michael W. Deem and Ramdas Pophale) SiO2 
 PCOD9308401
Probable space group: C 2/C
;
_chemical_formula_sum "Si O2"
_cell_formula_units_Z 44
_cell_length_a 26.350987
_cell_length_b 7.928017
_cell_length_c 8.335413
_cell_angle_alpha 90.000000
_cell_angle_beta 111.248909
_cell_angle_gamma 90.000000
_cell_volume 1622.973309
_symmetry_space_group_name_H-M "C 2/C"
_symmetry_group_IT_number 15
_symmetry_cell_setting 'monoclinic'
loop_
_space_group_symop_operation_xyz
x,y,z
-x,y,1/2-z
-x,-y,-z
x,-y,1/2+z
1/2+x,1/2+y,z
1/2-x,1/2+y,1/2-z
1/2-x,1/2-y,-z
1/2+x,1/2-y,1/2+z
loop_
_atom_site_type_symbol
_atom_site_label
_atom_site_fract_x
_atom_site_fract_y
_atom_site_fract_z
Si Si1 0.706247 0.850840 0.848650
Si Si2 0.788234 0.869669 0.440022
Si Si3 0.563044 0.184476 0.113404
Si Si4 0.000000 0.221117 0.250000
Si Si5 0.108179 0.631554 0.483174
Si Si6 0.393659 0.441534 0.771846
O O1 0.688834 0.736049 0.680846
O O2 0.659827 0.893206 0.924576
O O3 0.743634 0.999847 0.822625
O O4 0.750000 0.750000 0.000000
O O5 0.750000 0.750000 0.500000
O O6 0.912678 0.875167 0.353448
O O7 0.838009 0.941603 0.603490
O O8 0.559616 0.147248 0.298579
O O9 0.512227 0.187755 0.933212
O O10 0.598840 0.032222 0.079801
O O11 0.944933 0.120240 0.224829
O O12 0.113995 0.799387 0.598130
#
# Coordination Sequence:
#
# PCOD9308401 Si02
#       6
#     8   8   8   4   8   8
#     4  12  28  51  81 124 170 228 280 353 434 523
#     4  12  29  54  84 121 176 225 283 354 438 516
#     4  12  29  53  85 126 169 225 285 357 430 517
#     4  12  28  54  96 124 172 228 292 362 444 518
#     4  12  30  53  87 123 178 223 293 357 433 526
#     4  12  29  59  86 127 172 230 290 361 441 519
#
# _framework density 27.110733
#
# number of rings (size 3 to 8) (size 9 to 14) (size 15 to 20)
#    0.000    0.000    0.000    7.091   10.182    8.000 
#    9.818    0.909    0.000    0.000    0.000    0.000 
#    0.000    0.000    0.000    0.000    0.000    0.000 
#
# Total GULP energy -123377.630766 kJ/mol
# GULP energy per Si atom -5608.074126 kJ/mol
# Density = 2.704903 g / cm^3
# Si number density = 27.110733 Si / 1000 Ang^3
#
#
#
# Elastic Constant Matrix: (Units=GPa)
#
#
# Indices 1 2 3 4 5 6 
#
# 1 149.1801 27.7936 32.3590 0.0000 1.2014 0.0000
# 2 27.7936 148.2798 69.6665 0.0000 -17.6563 0.0000
# 3 32.3590 69.6665 202.4206 0.0000 -8.4953 0.0000
# 4 0.0000 0.0000 0.0000 57.6570 0.0000 -11.9761
# 5 1.2014 -17.6563 -8.4953 0.0000 43.3433 0.0000
# 6 0.0000 0.0000 0.0000 -11.9761 0.0000 34.7963
#
#
#
# Elastic Compliance Matrix: (Units=1/GPa)
#
#
# Indices 1 2 3 4 5 6 
#
# 1 0.007078 -0.001041 -0.000806 0.000000 -0.000778 0.000000
# 2 -0.001041 0.008538 -0.002647 0.000000 0.002988 0.000000
# 3 -0.000806 -0.002647 0.005985 0.000000 0.000117 0.000000
# 4 0.000000 0.000000 0.000000 0.018679 0.000000 0.006429
# 5 -0.000778 0.002988 0.000117 0.000000 0.024333 0.000000
# 6 0.000000 0.000000 0.000000 0.006429 0.000000 0.030951
#
#
# Mechanical properties :
#
#
# Convention : Reuss Voigt Hill
#
# Bulk Modulus (GPa) = 79.27386 84.39099 81.83243
# Shear Modulus (GPa) = 45.97363 51.83008 48.90186
#
# Velocity S-wave (km/s) = 4.12244 4.37715 4.25170
# Velocity P-wave (km/s) = 7.20858 7.53271 7.37243
#
# Compressibility (1/GPa) = 0.01261450
#
# Stress axis : x y z
#
# Youngs Moduli (GPa) = 141.27682 117.11662 167.08588
#
# Poissons Ratio (x) = 0.12189 0.13467
# Poissons Ratio (y) = 0.14703 0.44226
# Poissons Ratio (z) = 0.11387 0.30999
#
# Static dielectric constant tensor:
#      x y z
#    x 0.907980 0.000000 -0.442420 
#    y 0.000000 2.847900 0.000000 
#    z -0.442420 0.000000 1.934140 
# 
# From -- ./inp_files/40375.got.cif
#   From: 2010.05.17/outbox.cif.g08.bks.cpg/sg15_21_cif.got.tgz:40375.got - 2010.06.03 18:47:42.
