data_PCOD9308008
_publ_section_title
;
Structure prediction by ZEFSAII (Michael W. Deem and Ramdas Pophale) SiO2 
 PCOD9308008
Probable space group: C 2/C
;
_chemical_formula_sum "Si O2"
_cell_formula_units_Z 44
_cell_length_a 15.715549
_cell_length_b 12.602087
_cell_length_c 10.858564
_cell_angle_alpha 90.000000
_cell_angle_beta 78.912693
_cell_angle_gamma 90.000000
_cell_volume 2110.385736
_symmetry_space_group_name_H-M "C 2/C"
_symmetry_group_IT_number 15
_symmetry_cell_setting 'monoclinic'
loop_
_space_group_symop_operation_xyz
x,y,z
-x,y,1/2-z
-x,-y,-z
x,-y,1/2+z
1/2+x,1/2+y,z
1/2-x,1/2+y,1/2-z
1/2-x,1/2-y,-z
1/2+x,1/2-y,1/2+z
loop_
_atom_site_type_symbol
_atom_site_label
_atom_site_fract_x
_atom_site_fract_y
_atom_site_fract_z
Si Si1 0.906878 0.444075 0.027407
Si Si2 0.980346 0.213489 0.018030
Si Si3 0.836625 0.243224 0.396085
Si Si4 0.180814 0.477196 0.195086
Si Si5 0.500000 0.615619 0.750000
Si Si6 0.134607 0.053594 0.295864
O O1 0.853505 0.495591 0.156010
O O2 0.923877 0.319833 0.046498
O O3 0.864158 0.460882 0.905293
O O4 0.000000 0.500000 0.000000
O O5 0.992397 0.186197 0.872654
O O6 0.931968 0.114876 0.096143
O O7 0.074281 0.231252 0.052746
O O8 0.750000 0.250000 0.500000
O O9 0.839404 0.354276 0.324313
O O10 0.832860 0.143069 0.307175
O O11 0.282504 0.503291 0.161288
O O12 0.417504 0.538689 0.758295
#
# Coordination Sequence:
#
# PCOD9308008 Si02
#       6
#     8   8   8   8   4   8
#     4  12  27  48  77 109 155 195 257 313 386 453
#     4  12  27  49  78 109 149 205 252 312 385 458
#     4  12  25  48  75 107 150 200 248 305 386 455
#     4  12  28  46  77 112 146 200 251 317 377 453
#     4  12  28  44  78 110 152 194 258 310 380 450
#     4  12  27  49  76 110 153 196 252 315 381 455
#
# _framework density 20.849269
#
# number of rings (size 3 to 8) (size 9 to 14) (size 15 to 20)
#    0.000    0.000    5.455    3.273    7.636    2.182 
#    0.000    0.000    0.000    0.000    0.000    0.000 
#    0.000    0.000    0.000    0.000    0.000    0.000 
#
# Total GULP energy -123165.287844 kJ/mol
# GULP energy per Si atom -5598.422175 kJ/mol
# Density = 2.080182 g / cm^3
# Si number density = 20.849269 Si / 1000 Ang^3
#
#
#
# Elastic Constant Matrix: (Units=GPa)
#
#
# Indices 1 2 3 4 5 6 
#
# 1 163.6831 51.3058 43.8230 0.0000 19.8637 0.0000
# 2 51.3058 69.2576 38.3414 0.0000 15.4604 0.0000
# 3 43.8230 38.3414 121.0369 0.0000 -2.4214 0.0000
# 4 0.0000 0.0000 0.0000 40.0120 0.0000 1.5599
# 5 19.8637 15.4604 -2.4214 0.0000 40.8338 0.0000
# 6 0.0000 0.0000 0.0000 1.5599 0.0000 42.0300
#
#
#
# Elastic Compliance Matrix: (Units=1/GPa)
#
#
# Indices 1 2 3 4 5 6 
#
# 1 0.008301 -0.004780 -0.001538 0.000000 -0.002319 0.000000
# 2 -0.004780 0.022494 -0.005525 0.000000 -0.006519 0.000000
# 3 -0.001538 -0.005525 0.010638 0.000000 0.003471 0.000000
# 4 0.000000 0.000000 0.000000 0.025029 0.000000 -0.000929
# 5 -0.002319 -0.006519 0.003471 0.000000 0.028292 0.000000
# 6 0.000000 0.000000 0.000000 -0.000929 0.000000 0.023827
#
#
# Mechanical properties :
#
#
# Convention : Reuss Voigt Hill
#
# Bulk Modulus (GPa) = 56.34713 68.99087 62.66900
# Shear Modulus (GPa) = 33.74222 39.27567 36.50895
#
# Velocity S-wave (km/s) = 4.02728 4.34498 4.18914
# Velocity P-wave (km/s) = 6.97925 7.63766 7.31587
#
# Compressibility (1/GPa) = 0.01774713
#
# Stress axis : x y z
#
# Youngs Moduli (GPa) = 120.46982 44.45616 94.00010
#
# Poissons Ratio (x) = 0.21251 0.14453
# Poissons Ratio (y) = 0.57588 0.51937
# Poissons Ratio (z) = 0.18523 0.24563
#
# Static dielectric constant tensor:
#      x y z
#    x 1.556480 0.000000 -0.043240 
#    y 0.000000 1.734090 0.000000 
#    z -0.043240 0.000000 1.764940 
# 
# From -- ./inp_files/94956.got.cif
#   From: 2010.05.17/outbox.cif.g08.bks.cpg/sg15_48_cif.got.tgz:94956.got - 2010.06.03 18:47:42.
