data_PCOD9308131
_publ_section_title
;
Structure prediction by ZEFSAII (Michael W. Deem and Ramdas Pophale) SiO2 
 PCOD9308131
Probable space group: C 2/C
;
_chemical_formula_sum "Si O2"
_cell_formula_units_Z 32
_cell_length_a 8.618573
_cell_length_b 17.669389
_cell_length_c 8.111867
_cell_angle_alpha 90.000000
_cell_angle_beta 98.399520
_cell_angle_gamma 90.000000
_cell_volume 1222.064472
_symmetry_space_group_name_H-M "C 2/C"
_symmetry_group_IT_number 15
_symmetry_cell_setting 'monoclinic'
loop_
_space_group_symop_operation_xyz
x,y,z
-x,y,1/2-z
-x,-y,-z
x,-y,1/2+z
1/2+x,1/2+y,z
1/2-x,1/2+y,1/2-z
1/2-x,1/2-y,-z
1/2+x,1/2-y,1/2+z
loop_
_atom_site_type_symbol
_atom_site_label
_atom_site_fract_x
_atom_site_fract_y
_atom_site_fract_z
Si Si1 0.355207 0.812356 0.111877
Si Si2 0.359522 0.296929 0.138044
Si Si3 0.356583 0.443262 0.969149
Si Si4 0.140752 0.552358 0.141110
O O1 0.500000 0.783816 0.250000
O O2 0.240276 0.838586 0.238109
O O3 0.250000 0.750000 0.000000
O O4 0.397977 0.880039 0.993589
O O5 0.500000 0.252364 0.250000
O O6 0.425903 0.365148 0.044490
O O7 0.250000 0.250000 0.000000
O O8 0.213209 0.481448 0.051325
O O9 0.500000 0.500000 0.000000
O O10 0.285508 0.425193 0.780284
O O11 0.000000 0.536969 0.250000
#
# Coordination Sequence:
#
# PCOD9308131 Si02
#       4
#     8   8   8   8
#     4  12  27  48  75 111 151 200 257 321 394 472
#     4  12  26  48  76 111 149 195 253 320 392 468
#     4  12  26  47  77 111 151 203 258 320 390 469
#     4  12  26  47  74 111 153 200 258 325 393 469
#
# _framework density 26.185199000000001
#
# number of rings (size 3 to 8) (size 9 to 14) (size 15 to 20)
#    0.000    0.000    0.000   10.500    0.000    6.000 
#    0.000    0.000    0.000    0.000    0.000    0.000 
#    0.000    0.000    0.000    0.000    0.000    0.000 
#
# Total GULP energy -89536.362969 kJ/mol
# GULP energy per Si atom -5596.022686 kJ/mol
# Density = 2.612560 g / cm^3
# Si number density = 26.185199 Si / 1000 Ang^3
#
#
#
# Elastic Constant Matrix: (Units=GPa)
#
#
# Indices 1 2 3 4 5 6 
#
# 1 136.7660 52.6650 83.9583 0.0000 31.2128 0.0000
# 2 52.6650 124.4781 63.3152 0.0000 19.6616 0.0000
# 3 83.9583 63.3152 184.7355 0.0000 41.0950 0.0000
# 4 0.0000 0.0000 0.0000 50.8668 0.0000 -1.5594
# 5 31.2128 19.6616 41.0950 0.0000 71.6785 0.0000
# 6 0.0000 0.0000 0.0000 -1.5594 0.0000 42.7135
#
#
#
# Elastic Compliance Matrix: (Units=1/GPa)
#
#
# Indices 1 2 3 4 5 6 
#
# 1 0.010986 -0.002446 -0.003713 0.000000 -0.001984 0.000000
# 2 -0.002446 0.010322 -0.002330 0.000000 -0.000430 0.000000
# 3 -0.003713 -0.002330 0.008479 0.000000 -0.002605 0.000000
# 4 0.000000 0.000000 0.000000 0.019681 0.000000 0.000719
# 5 -0.001984 -0.000430 -0.002605 0.000000 0.016427 0.000000
# 6 0.000000 0.000000 0.000000 0.000719 0.000000 0.023438
#
#
# Mechanical properties :
#
#
# Convention : Reuss Voigt Hill
#
# Bulk Modulus (GPa) = 78.07840 93.98407 86.03124
# Shear Modulus (GPa) = 45.21607 49.45450 47.33528
#
# Velocity S-wave (km/s) = 4.15996 4.35057 4.25633
# Velocity P-wave (km/s) = 7.27710 7.82346 7.55522
#
# Compressibility (1/GPa) = 0.01280764
#
# Stress axis : x y z
#
# Youngs Moduli (GPa) = 91.02594 96.88431 117.94042
#
# Poissons Ratio (x) = 0.23697 0.43793
# Poissons Ratio (y) = 0.22264 0.27483
# Poissons Ratio (z) = 0.33800 0.22577
#
# Static dielectric constant tensor:
#      x y z
#    x 2.130860 0.000000 -0.007080 
#    y 0.000000 1.947830 0.000000 
#    z -0.007080 0.000000 2.066180 
# 
# From -- ./inp_files/22361.got.cif
#   From: 2010.05.17/outbox.cif.g08.bks.cpg/sg15_12_cif.got.tgz:22361.got - 2010.06.03 18:47:42.
