data_PCOD9308433
_publ_section_title
;
Structure prediction by ZEFSAII (Michael W. Deem and Ramdas Pophale) SiO2 
 PCOD9308433
Probable space group: C 2/C
;
_chemical_formula_sum "Si O2"
_cell_formula_units_Z 20
_cell_length_a 4.845653
_cell_length_b 19.247247
_cell_length_c 8.021512
_cell_angle_alpha 90.000000
_cell_angle_beta 71.640324
_cell_angle_gamma 90.000000
_cell_volume 710.048791
_symmetry_space_group_name_H-M "C 2/C"
_symmetry_group_IT_number 15
_symmetry_cell_setting 'monoclinic'
loop_
_space_group_symop_operation_xyz
x,y,z
-x,y,1/2-z
-x,-y,-z
x,-y,1/2+z
1/2+x,1/2+y,z
1/2-x,1/2+y,1/2-z
1/2-x,1/2-y,-z
1/2+x,1/2-y,1/2+z
loop_
_atom_site_type_symbol
_atom_site_label
_atom_site_fract_x
_atom_site_fract_y
_atom_site_fract_z
Si Si1 0.447286 0.193590 0.066398
Si Si2 0.000000 0.856185 0.250000
Si Si3 0.240715 0.553180 0.520919
O O1 0.500000 0.209332 0.250000
O O2 0.739845 0.320304 0.081822
O O3 0.282166 0.119298 0.096761
O O4 0.250000 0.250000 0.000000
O O5 0.213940 0.903847 0.316866
O O6 0.500000 0.500000 0.500000
O O7 0.000000 0.500000 0.500000
#
# Coordination Sequence:
#
# PCOD9308433 Si02
#       3
#     8   4   8
#     4  12  33  62  97 144 201 266 338 409 504 599
#     4  12  30  62 100 142 206 256 338 422 498 598
#     4  12  29  58  99 142 194 256 330 411 499 593
#
# _framework density 28.167079000000001
#
# number of rings (size 3 to 8) (size 9 to 14) (size 15 to 20)
#    0.000    0.000    4.000    1.200    8.400    4.800 
#    7.200    0.000    0.000    0.000    0.000    0.000 
#    0.000    0.000    0.000    0.000    0.000    0.000 
#
# Total GULP energy -55881.434811 kJ/mol
# GULP energy per Si atom -5588.143481 kJ/mol
# Density = 2.810297 g / cm^3
# Si number density = 28.167079 Si / 1000 Ang^3
#
#
#
# Elastic Constant Matrix: (Units=GPa)
#
#
# Indices 1 2 3 4 5 6 
#
# 1 310.9100 143.1902 143.4849 0.0000 38.9069 0.0000
# 2 143.1902 254.7449 103.8355 0.0000 -0.2411 0.0000
# 3 143.4849 103.8355 255.2563 0.0000 10.9761 0.0000
# 4 0.0000 0.0000 0.0000 50.5493 0.0000 34.3815
# 5 38.9069 -0.2411 10.9761 0.0000 70.7844 0.0000
# 6 0.0000 0.0000 0.0000 34.3815 0.0000 53.7671
#
#
#
# Elastic Compliance Matrix: (Units=1/GPa)
#
#
# Indices 1 2 3 4 5 6 
#
# 1 0.005576 -0.002287 -0.002086 0.000000 -0.002749 0.000000
# 2 -0.002287 0.005650 -0.001075 0.000000 0.001443 0.000000
# 3 -0.002086 -0.001075 0.005515 0.000000 0.000288 0.000000
# 4 0.000000 0.000000 0.000000 0.035009 0.000000 -0.022387
# 5 -0.002749 0.001443 0.000288 0.000000 0.015599 0.000000
# 6 0.000000 0.000000 0.000000 -0.022387 0.000000 0.032914
#
#
# Mechanical properties :
#
#
# Convention : Reuss Voigt Hill
#
# Bulk Modulus (GPa) = 171.05645 177.99246 174.52446
# Shear Modulus (GPa) = 44.20535 63.71355 53.95945
#
# Velocity S-wave (km/s) = 3.96586 4.76119 4.38161
# Velocity P-wave (km/s) = 9.04609 9.67234 9.36445
#
# Compressibility (1/GPa) = 0.00584602
#
# Stress axis : x y z
#
# Youngs Moduli (GPa) = 179.33050 176.97737 181.31400
#
# Poissons Ratio (x) = 0.40469 0.37825
# Poissons Ratio (y) = 0.41007 0.19495
# Poissons Ratio (z) = 0.37411 0.19028
#
# Static dielectric constant tensor:
#      x y z
#    x 2.361210 0.000000 -0.104360 
#    y 0.000000 2.251220 0.000000 
#    z -0.104360 0.000000 2.262180 
# 
# From -- ./inp_files/19094.got.cif
#   From: 2010.05.17/outbox.cif.g08.bks.cpg/sg15_10_cif.got.tgz:19094.got - 2010.06.03 18:47:42.
