data_PCOD9308637
_publ_section_title
;
Structure prediction by ZEFSAII (Michael W. Deem and Ramdas Pophale) SiO2 
 PCOD9308637
Probable space group: C 2/C
;
_chemical_formula_sum "Si O2"
_cell_formula_units_Z 28
_cell_length_a 18.000000
_cell_length_b 21.000000
_cell_length_c 24.000000
_cell_angle_alpha 90.000000
_cell_angle_beta 160.000000
_cell_angle_gamma 90.000000
_cell_volume 3102.806740
_symmetry_space_group_name_H-M "C 2/C"
_symmetry_group_IT_number 15
_symmetry_cell_setting 'monoclinic'
loop_
_space_group_symop_operation_xyz
x,y,z
-x,y,1/2-z
-x,-y,-z
x,-y,1/2+z
1/2+x,1/2+y,z
1/2-x,1/2+y,1/2-z
1/2-x,1/2-y,-z
1/2+x,1/2-y,1/2+z
loop_
_atom_site_type_symbol
_atom_site_label
_atom_site_fract_x
_atom_site_fract_y
_atom_site_fract_z
Si Si1 0.542831 0.503859 0.400074
Si Si2 0.102295 0.131948 0.659298
Si Si3 0.500000 0.035826 0.250000
Si Si4 0.458360 0.076385 0.538690
Si Si5 0.008244 0.226037 0.818112
Si Si6 0.814981 0.360806 0.703087
Si Si7 0.500000 0.561389 0.250000
Si Si8 0.367283 0.063880 0.344592
O O1 0.462039 0.432872 0.354294
O O2 0.511284 0.520386 0.313782
O O3 0.386787 0.546891 0.327613
O O4 0.792687 0.506410 0.591364
O O5 0.343997 0.122159 0.807353
O O6 0.070113 0.184615 0.684506
O O7 0.936331 0.134626 0.490941
O O8 0.560085 0.084081 0.242795
O O9 0.445766 0.077935 0.462350
O O10 0.230454 0.096141 0.405059
O O11 0.515037 0.001842 0.592248
O O12 0.876385 0.291542 0.724976
O O13 0.000000 0.195862 0.750000
O O14 0.250000 0.250000 0.000000
O O15 0.881070 0.377158 0.812629
#
# Coordination Sequence:
#
# PCOD9308637 Si02
#       8
#     8   8   4   8   8   8   4   8
#     4   9  19  32  48  78 102 138 177 214 267 316
#     4  10  22  35  50  78 108 142 185 215 272 322
#     4  10  18  30  47  72 103 136 178 208 260 316
#     4   9  19  34  51  80 101 141 180 217 277 319
#     4  12  23  38  53  80 112 144 184 221 260 323
#     4  11  21  36  50  75 109 145 176 222 259 321
#     4  10  18  32  51  76 105 128 178 224 262 328
#     4   9  19  33  51  72 108 138 178 218 267 324
#
# _framework density 9.0240880000000008
#
# number of rings (size 3 to 8) (size 9 to 14) (size 15 to 20)
#    0.000    2.000    2.143    2.571    3.000    6.286 
#    0.000    0.000    0.000    0.000    0.000   10.000 
#    0.000    0.000    0.000    0.000    0.000    0.000 
#
# Total GULP energy -155984.965625 kJ/mol
# GULP energy per Si atom -5570.891629 kJ/mol
# Density = 0.900355 g / cm^3
# Si number density = 9.024088 Si / 1000 Ang^3
#
#
#
# Elastic Constant Matrix: (Units=GPa)
#
#
# Indices 1 2 3 4 5 6 
#
# 1 35.5334 -2.7256 26.9955 1.4307 -2.5993 0.6036
# 2 -2.7256 13.1915 6.4871 -1.2839 -3.1650 -0.5443
# 3 26.9955 6.4871 81.4146 2.6840 35.7130 1.0885
# 4 1.4307 -1.2839 2.6840 343.3458 0.1542 122.1167
# 5 -2.5993 -3.1650 35.7130 0.1542 28.5598 0.0659
# 6 0.6036 -0.5443 1.0885 122.1167 0.0659 56.8460
#
#
#
# Elastic Compliance Matrix: (Units=1/GPa)
#
#
# Indices 1 2 3 4 5 6 
#
# 1 -0.306123 -0.360499 0.354524 -0.001437 -0.511115 -0.003311
# 2 -0.360499 -0.323116 0.388636 -0.001433 -0.554577 -0.002987
# 3 0.354524 0.388636 -0.375144 0.001479 0.544423 0.003331
# 4 -0.001437 -0.001433 0.001479 0.012338 -0.002145 -0.026528
# 5 -0.511115 -0.554577 0.544423 -0.002145 -0.753719 -0.004827
# 6 -0.003311 -0.002987 0.003331 -0.026528 -0.004827 0.074528
#
#
# Mechanical properties :
#
#
# Convention : Reuss Voigt Hill
#
# Bulk Modulus (GPa) = -4.18302 21.29485 8.55591
# Shear Modulus (GPa) = -1.98709 92.37582 45.19437
#
# Velocity S-wave (km/s) = -1.05042 7.16198 5.00952
# Velocity P-wave (km/s) = 1.94779 8.95637 6.18153
#
# Compressibility (1/GPa) = -0.23906182
#
# Stress axis : x y z
#
# Youngs Moduli (GPa) = -3.26666 -3.09486 -2.66564
#
# Poissons Ratio (x) = -1.11569 0.94503
# Poissons Ratio (y) = -1.17763 1.03596
# Poissons Ratio (z) = 1.15811 1.20277
#
# Static dielectric constant tensor:
#      x y z
#    x 1.795940 -0.001880 -0.189190 
#    y -0.001880 1.549550 0.001980 
#    z -0.189190 0.001980 1.918820 
# 
# From -- ./inp_files/278066.got.cif
#   From: 2010.05.17/outbox.ucp.g08.bks.cvg/sg15_140_cif.got.tgz:278066.got - 2010.06.11 12:40:34.
