data_PCOD9308688
_publ_section_title
;
Structure prediction by ZEFSAII (Michael W. Deem and Ramdas Pophale) SiO2 
 PCOD9308688
Probable space group: C 2/C
;
_chemical_formula_sum "Si O2"
_cell_formula_units_Z 28
_cell_length_a 15.000000
_cell_length_b 12.000000
_cell_length_c 18.000000
_cell_angle_alpha 90.000000
_cell_angle_beta 60.000000
_cell_angle_gamma 90.000000
_cell_volume 2805.922308
_symmetry_space_group_name_H-M "C 2/C"
_symmetry_group_IT_number 15
_symmetry_cell_setting 'monoclinic'
loop_
_space_group_symop_operation_xyz
x,y,z
-x,y,1/2-z
-x,-y,-z
x,-y,1/2+z
1/2+x,1/2+y,z
1/2-x,1/2+y,1/2-z
1/2-x,1/2-y,-z
1/2+x,1/2-y,1/2+z
loop_
_atom_site_type_symbol
_atom_site_label
_atom_site_fract_x
_atom_site_fract_y
_atom_site_fract_z
Si Si1 0.441012 0.109656 0.543607
Si Si2 0.286420 0.901379 0.408738
Si Si3 0.300272 0.828024 0.236308
Si Si4 0.589167 0.264003 0.539635
Si Si5 0.250748 0.380772 0.482451
Si Si6 0.110842 0.116928 0.714369
Si Si7 0.935342 0.872721 0.707837
O O1 0.388676 0.120884 0.646296
O O2 0.522177 0.208897 0.503126
O O3 0.349486 0.109713 0.525201
O O4 0.500000 0.000000 0.500000
O O5 0.298842 0.892743 0.314955
O O6 0.376178 0.836609 0.418418
O O7 0.188414 0.825552 0.469208
O O8 0.262278 0.026246 0.448145
O O9 0.196184 0.826872 0.231130
O O10 0.335229 0.701961 0.238504
O O11 0.513559 0.353233 0.608518
O O12 0.250000 0.250000 0.500000
O O13 0.343954 0.405220 0.386698
O O14 0.000000 0.174314 0.750000
O O15 0.090884 0.998481 0.762244
O O16 0.000000 0.825407 0.750000
#
# Coordination Sequence:
#
# PCOD9308688 Si02
#       7
#     8   8   8   8   8   8   8
#     4  10  21  42  63  91 131 178 207 254 330 388
#     4  11  21  37  63  98 125 159 216 272 315 373
#     4  10  23  35  63  98 126 157 222 270 315 379
#     4  10  21  35  66  96 123 161 213 268 321 380
#     4  11  25  44  63  89 133 175 213 260 327 396
#     4  10  23  43  65  89 127 177 210 261 331 387
#     4  10  18  37  63  91 124 159 209 264 322 379
#
# _framework density 9.9788940000000004
#
# number of rings (size 3 to 8) (size 9 to 14) (size 15 to 20)
#    0.000    1.714    2.857    1.714    2.000    4.571 
#    0.000    3.571    0.000    0.000    0.000    0.000 
#    0.000    0.000    0.000    0.000    0.000    0.000 
#
# Total GULP energy -156027.881079 kJ/mol
# GULP energy per Si atom -5572.424324 kJ/mol
# Density = 0.995618 g / cm^3
# Si number density = 9.978894 Si / 1000 Ang^3
#
#
#
# Elastic Constant Matrix: (Units=GPa)
#
#
# Indices 1 2 3 4 5 6 
#
# 1 90.0817 12.6275 40.3861 0.0000 -23.5232 0.0000
# 2 12.6275 44.3045 28.6683 0.0000 -15.5372 0.0000
# 3 40.3861 28.6683 8.2400 0.0000 2.5569 0.0000
# 4 0.0000 0.0000 0.0000 -13.6246 0.0000 -35.1316
# 5 -23.5232 -15.5372 2.5569 0.0000 22.3678 0.0000
# 6 0.0000 0.0000 0.0000 -35.1316 0.0000 -4.1888
#
#
#
# Elastic Compliance Matrix: (Units=1/GPa)
#
#
# Indices 1 2 3 4 5 6 
#
# 1 0.005734 -0.011641 0.013513 0.000000 -0.003600 0.000000
# 2 -0.011641 0.011600 0.018659 0.000000 -0.006318 0.000000
# 3 0.013513 0.018659 -0.018891 0.000000 0.029332 0.000000
# 4 0.000000 0.000000 0.000000 0.003558 0.000000 -0.029844
# 5 -0.003600 -0.006318 0.029332 0.000000 0.033179 0.000000
# 6 0.000000 0.000000 0.000000 -0.029844 0.000000 0.011574
#
#
# Mechanical properties :
#
#
# Convention : Reuss Voigt Hill
#
# Bulk Modulus (GPa) = 25.31336 33.99889 29.65613
# Shear Modulus (GPa) = 265.10041 4.97384 135.03713
#
# Velocity S-wave (km/s) = 11.53772 1.58038 8.23458
# Velocity P-wave (km/s) = 13.79141 4.51691 10.26171
#
# Compressibility (1/GPa) = 0.03950483
#
# Stress axis : x y z
#
# Youngs Moduli (GPa) = 174.38844 86.20927 -52.93452
#
# Poissons Ratio (x) = 1.00357 0.71532
# Poissons Ratio (y) = 2.03007 0.98770
# Poissons Ratio (z) = -2.35656 -1.60857
#
# Static dielectric constant tensor:
#      x y z
#    x 1.748320 0.000000 -0.004030 
#    y 0.000000 1.706460 0.000000 
#    z -0.004030 0.000000 1.670430 
# 
# From -- ./inp_files/204375.got.cif
#   From: 2010.05.17/outbox.ucp.g08.bks.cvg/sg15_103_cif.got.tgz:204375.got - 2010.06.11 12:40:34.
