data_PCOD9308777
_publ_section_title
;
Structure prediction by ZEFSAII (Michael W. Deem and Ramdas Pophale) SiO2 
 PCOD9308777
Probable space group: C 2/C
;
_chemical_formula_sum "Si O2"
_cell_formula_units_Z 32
_cell_length_a 12.000000
_cell_length_b 15.000000
_cell_length_c 21.000000
_cell_angle_alpha 90.000000
_cell_angle_beta 70.000000
_cell_angle_gamma 90.000000
_cell_volume 3552.038107
_symmetry_space_group_name_H-M "C 2/C"
_symmetry_group_IT_number 15
_symmetry_cell_setting 'monoclinic'
loop_
_space_group_symop_operation_xyz
x,y,z
-x,y,1/2-z
-x,-y,-z
x,-y,1/2+z
1/2+x,1/2+y,z
1/2-x,1/2+y,1/2-z
1/2-x,1/2-y,-z
1/2+x,1/2-y,1/2+z
loop_
_atom_site_type_symbol
_atom_site_label
_atom_site_fract_x
_atom_site_fract_y
_atom_site_fract_z
Si Si1 0.279375 0.161549 0.333277
Si Si2 0.682510 0.147356 0.576459
Si Si3 0.652960 0.858636 0.823592
Si Si4 0.038288 0.498222 0.671172
Si Si5 0.808319 0.147494 0.419180
Si Si6 0.573578 0.602575 0.920098
Si Si7 0.460666 0.398423 0.572263
Si Si8 0.529388 0.299249 0.171428
O O1 0.280621 0.152555 0.256668
O O2 0.146468 0.159241 0.382285
O O3 0.345514 0.249372 0.346105
O O4 0.358503 0.077008 0.341403
O O5 0.584918 0.079867 0.620895
O O6 0.729047 0.123696 0.496557
O O7 0.649014 0.250417 0.580856
O O8 0.794191 0.141276 0.603264
O O9 0.735904 0.859608 0.868545
O O10 0.559879 0.777073 0.837689
O O11 0.573979 0.947708 0.836617
O O12 0.000000 0.525746 0.750000
O O13 0.929151 0.093114 0.401508
O O14 0.588162 0.497639 0.927809
O O15 0.495606 0.623338 0.873670
O O16 0.508552 0.637934 0.995888
O O17 0.500000 0.324216 0.250000
#
# Coordination Sequence:
#
# PCOD9308777 Si02
#       8
#     8   8   8   8   8   8   8   8
#     4   9  18  35  57  79 107 140 179 223 265 313
#     4  10  19  36  58  77 106 148 181 212 262 326
#     4   9  18  35  57  79 107 140 179 223 265 313
#     4   9  18  35  58  80 101 141 186 217 262 321
#     4  10  21  35  54  81 110 142 178 217 271 319
#     4  10  19  36  58  77 106 148 181 212 262 326
#     4  10  21  35  54  81 110 142 178 217 271 319
#     4   9  18  35  58  80 101 141 186 217 262 321
#
# _framework density 9.0089120000000005
#
# number of rings (size 3 to 8) (size 9 to 14) (size 15 to 20)
#    0.000    2.500    2.500    1.500    0.000    1.500 
#    4.500    1.250    0.000    0.000    0.000    0.000 
#    0.000    0.000    0.000    0.000    0.000    0.000 
#
# Total GULP energy -178173.735414 kJ/mol
# GULP energy per Si atom -5567.929232 kJ/mol
# Density = 0.898841 g / cm^3
# Si number density = 9.008912 Si / 1000 Ang^3
#
#
#
# Elastic Constant Matrix: (Units=GPa)
#
#
# Indices 1 2 3 4 5 6 
#
# 1 69.8712 -5.2149 44.5949 0.0000 16.5055 0.0000
# 2 -5.2149 22.3440 1.2239 0.0000 -4.0657 0.0000
# 3 44.5949 1.2239 25.0873 0.0000 11.7175 0.0000
# 4 0.0000 0.0000 0.0000 26.8801 0.0000 7.0656
# 5 16.5055 -4.0657 11.7175 0.0000 34.0752 0.0000
# 6 0.0000 0.0000 0.0000 7.0656 0.0000 15.9660
#
#
#
# Elastic Compliance Matrix: (Units=1/GPa)
#
#
# Indices 1 2 3 4 5 6 
#
# 1 -0.076368 -0.028698 0.144716 0.000000 -0.016196 0.000000
# 2 -0.028698 0.035658 0.048599 0.000000 0.001443 0.000000
# 3 0.144716 0.048599 -0.226026 0.000000 0.013424 0.000000
# 4 0.000000 0.000000 0.000000 0.042099 0.000000 -0.018631
# 5 -0.016196 0.001443 0.013424 0.000000 0.032748 0.000000
# 6 0.000000 0.000000 0.000000 -0.018631 0.000000 0.070878
#
#
# Mechanical properties :
#
#
# Convention : Reuss Voigt Hill
#
# Bulk Modulus (GPa) = 16.00055 22.05672 19.02863
# Shear Modulus (GPa) = -11.64377 20.49748 4.42685
#
# Velocity S-wave (km/s) = -2.54488 3.37653 1.56916
# Velocity P-wave (km/s) = 0.51428 5.24113 3.72384
#
# Compressibility (1/GPa) = 0.06249786
#
# Stress axis : x y z
#
# Youngs Moduli (GPa) = -13.09445 28.04449 -4.42426
#
# Poissons Ratio (x) = 0.80481 0.64026
# Poissons Ratio (y) = -0.37578 0.21501
# Poissons Ratio (z) = 1.89498 -1.36293
#
# Static dielectric constant tensor:
#      x y z
#    x 1.597680 0.000000 -0.016260 
#    y 0.000000 1.635140 0.000000 
#    z -0.016260 0.000000 1.642330 
# 
# From -- ./inp_files/238728.got.cif
#   From: 2010.05.17/outbox.ucp.g08.bks.cvg/sg15_120_cif.got.tgz:238728.got - 2010.06.11 12:40:34.
