data_PCOD9308619
_publ_section_title
;
Structure prediction by ZEFSAII (Michael W. Deem and Ramdas Pophale) SiO2 
 PCOD9308619
Probable space group: C 2/C
;
_chemical_formula_sum "Si O2"
_cell_formula_units_Z 24
_cell_length_a 15.000000
_cell_length_b 12.000000
_cell_length_c 21.000000
_cell_angle_alpha 90.000000
_cell_angle_beta 140.000000
_cell_angle_gamma 90.000000
_cell_volume 2429.737165
_symmetry_space_group_name_H-M "C 2/C"
_symmetry_group_IT_number 15
_symmetry_cell_setting 'monoclinic'
loop_
_space_group_symop_operation_xyz
x,y,z
-x,y,1/2-z
-x,-y,-z
x,-y,1/2+z
1/2+x,1/2+y,z
1/2-x,1/2+y,1/2-z
1/2-x,1/2-y,-z
1/2+x,1/2-y,1/2+z
loop_
_atom_site_type_symbol
_atom_site_label
_atom_site_fract_x
_atom_site_fract_y
_atom_site_fract_z
Si Si1 0.353076 0.566188 0.926047
Si Si2 0.353249 0.996068 0.797088
Si Si3 0.901214 0.728417 0.142770
Si Si4 0.319122 0.002782 0.546143
Si Si5 0.447312 0.774451 0.899582
Si Si6 0.705098 0.908491 0.096215
O O1 0.244124 0.515088 0.816293
O O2 0.278966 0.563391 0.955459
O O3 0.383673 0.687961 0.913605
O O4 0.500000 0.500000 0.000000
O O5 0.513639 0.026337 0.865407
O O6 0.347768 0.866300 0.814001
O O7 0.303615 0.058397 0.834686
O O8 0.811882 0.627486 0.064646
O O9 0.821045 0.819387 0.140070
O O10 0.000000 0.673670 0.250000
O O11 0.979969 0.777569 0.123857
O O12 0.276910 0.005050 0.448078
O O13 0.560424 0.848757 0.998866
#
# Coordination Sequence:
#
# PCOD9308619 Si02
#       6
#     8   8   8   8   8   8
#     4  12  23  36  59  91 118 144 189 246 286 324
#     4  10  22  41  60  82 115 157 191 226 283 350
#     4  10  17  30  55  84 111 144 185 234 285 334
#     4  10  20  37  57  81 112 151 191 230 281 344
#     4  10  21  36  57  86 113 147 190 234 284 337
#     4  10  19  36  59  82 112 149 192 234 278 337
#
# _framework density 9.8776119999999992
#
# number of rings (size 3 to 8) (size 9 to 14) (size 15 to 20)
#    0.000    2.000    0.000    9.500    0.000    1.333 
#    0.000    3.333    0.000   10.000    0.000    0.000 
#    0.000    0.000    0.000    0.000    0.000    0.000 
#
# Total GULP energy -133804.176531 kJ/mol
# GULP energy per Si atom -5575.174022 kJ/mol
# Density = 0.985513 g / cm^3
# Si number density = 9.877612 Si / 1000 Ang^3
#
#
#
# Elastic Constant Matrix: (Units=GPa)
#
#
# Indices 1 2 3 4 5 6 
#
# 1 164.6594 35.7596 11.7145 0.0000 -13.9280 0.0000
# 2 35.7596 51.3504 -5.6688 0.0000 4.7061 0.0000
# 3 11.7145 -5.6688 57.2322 0.0000 -10.8398 0.0000
# 4 0.0000 0.0000 0.0000 15.4957 0.0000 -2.9494
# 5 -13.9280 4.7061 -10.8398 0.0000 25.2127 0.0000
# 6 0.0000 0.0000 0.0000 -2.9494 0.0000 46.3183
#
#
#
# Elastic Compliance Matrix: (Units=1/GPa)
#
#
# Indices 1 2 3 4 5 6 
#
# 1 0.007909 -0.006104 -0.001285 0.000000 0.004956 0.000000
# 2 -0.006104 0.024623 0.002372 0.000000 -0.006948 0.000000
# 3 -0.001285 0.002372 0.019326 0.000000 0.007156 0.000000
# 4 0.000000 0.000000 0.000000 0.065326 0.000000 0.004160
# 5 0.004956 -0.006948 0.007156 0.000000 0.046774 0.000000
# 6 0.000000 0.000000 0.000000 0.004160 0.000000 0.021855
#
#
# Mechanical properties :
#
#
# Convention : Reuss Voigt Hill
#
# Bulk Modulus (GPa) = 23.90860 39.65029 31.77944
# Shear Modulus (GPa) = 23.83355 32.83445 28.33400
#
# Velocity S-wave (km/s) = 3.47716 4.08127 3.79126
# Velocity P-wave (km/s) = 5.31503 6.50564 5.94024
#
# Compressibility (1/GPa) = 0.04182595
#
# Stress axis : x y z
#
# Youngs Moduli (GPa) = 126.43155 40.61166 51.74358
#
# Poissons Ratio (x) = 0.24790 0.06648
# Poissons Ratio (y) = 0.77174 -0.12275
# Poissons Ratio (z) = 0.16244 -0.09635
#
# Static dielectric constant tensor:
#      x y z
#    x 1.714100 0.000000 0.022890 
#    y 0.000000 1.746330 0.000000 
#    z 0.022890 0.000000 1.774050 
# 
# From -- ./inp_files/243974.got.cif
#   From: 2010.05.17/outbox.ucp.g08.bks.cvg/sg15_122_cif.got.tgz:243974.got - 2010.06.11 12:40:34.
