data_PCOD9308002
_publ_section_title
;
Structure prediction by ZEFSAII (Michael W. Deem and Ramdas Pophale) SiO2 
 PCOD9308002
Probable space group: C 2/C
;
_chemical_formula_sum "Si O2"
_cell_formula_units_Z 40
_cell_length_a 11.652883
_cell_length_b 16.203256
_cell_length_c 11.026200
_cell_angle_alpha 90.000000
_cell_angle_beta 46.439095
_cell_angle_gamma 90.000000
_cell_volume 1508.638527
_symmetry_space_group_name_H-M "C 2/C"
_symmetry_group_IT_number 15
_symmetry_cell_setting 'monoclinic'
loop_
_space_group_symop_operation_xyz
x,y,z
-x,y,1/2-z
-x,-y,-z
x,-y,1/2+z
1/2+x,1/2+y,z
1/2-x,1/2+y,1/2-z
1/2-x,1/2-y,-z
1/2+x,1/2-y,1/2+z
loop_
_atom_site_type_symbol
_atom_site_label
_atom_site_fract_x
_atom_site_fract_y
_atom_site_fract_z
Si Si1 0.190091 0.338244 0.093838
Si Si2 0.852869 0.912959 0.215935
Si Si3 0.625613 0.287838 0.989616
Si Si4 0.957483 0.384820 0.921186
Si Si5 0.770686 0.914593 0.786845
O O1 0.269511 0.371737 0.159127
O O2 0.000000 0.339063 0.250000
O O3 0.250000 0.250000 0.000000
O O4 0.250329 0.396656 0.941957
O O5 0.003240 0.855325 0.126754
O O6 0.719250 0.911915 0.419167
O O7 0.887529 0.009937 0.178474
O O8 0.530754 0.205183 0.024592
O O9 0.750000 0.250000 0.000000
O O10 0.691913 0.333765 0.822204
O O11 0.000000 0.373804 0.750000
O O12 0.097988 0.441536 0.865289
#
# Coordination Sequence:
#
# PCOD9308002 Si02
#       5
#     8   8   8   8   8
#     4  12  28  52  84 116 172 229 287 348 434 541
#     4  12  30  49  83 124 169 223 285 364 444 503
#     4  12  27  52  79 122 167 223 289 355 423 516
#     4  12  25  47  83 119 164 218 290 348 427 520
#     4  12  28  50  81 125 171 220 286 361 439 507
#
# _framework density 26.513971000000002
#
# number of rings (size 3 to 8) (size 9 to 14) (size 15 to 20)
#    0.000    0.000    4.000    4.800    5.600    0.000 
#    0.000    2.000    0.000    0.000    0.000    0.000 
#    0.000    0.000    0.000    0.000    0.000    0.000 
#
# Total GULP energy -112038.245034 kJ/mol
# GULP energy per Si atom -5601.912252 kJ/mol
# Density = 2.645362 g / cm^3
# Si number density = 26.513971 Si / 1000 Ang^3
#
#
#
# Elastic Constant Matrix: (Units=GPa)
#
#
# Indices 1 2 3 4 5 6 
#
# 1 124.6677 35.2966 66.6029 -0.0004 5.2003 0.0005
# 2 35.2966 154.9354 54.5290 -0.0002 2.6981 0.0001
# 3 66.6029 54.5290 225.5999 -0.0003 5.7461 0.0004
# 4 -0.0004 -0.0002 -0.0003 45.9480 0.0003 5.2823
# 5 5.2003 2.6981 5.7461 0.0003 43.1210 -0.0004
# 6 0.0005 0.0001 0.0004 5.2823 -0.0004 -56.5452
#
#
#
# Elastic Compliance Matrix: (Units=1/GPa)
#
#
# Indices 1 2 3 4 5 6 
#
# 1 0.009790 -0.001319 -0.002552 0.000000 -0.000758 0.000000
# 2 -0.001319 0.007234 -0.001356 0.000000 -0.000113 0.000000
# 3 -0.002552 -0.001356 0.005523 0.000000 -0.000343 0.000000
# 4 0.000000 0.000000 0.000000 0.021532 0.000000 0.002011
# 5 -0.000758 -0.000113 -0.000343 0.000000 0.023335 0.000000
# 6 0.000000 0.000000 0.000000 0.002011 0.000000 -0.017497
#
#
# Mechanical properties :
#
#
# Convention : Reuss Voigt Hill
#
# Bulk Modulus (GPa) = 82.69936 90.89554 86.79745
# Shear Modulus (GPa) = 77.63749 29.75640 53.69694
#
# Velocity S-wave (km/s) = 5.41713 3.35370 4.50514
# Velocity P-wave (km/s) = 8.38961 7.02516 7.73752
#
# Compressibility (1/GPa) = 0.01209199
#
# Stress axis : x y z
#
# Youngs Moduli (GPa) = 102.14714 138.23495 181.07270
#
# Poissons Ratio (x) = 0.18231 0.46212
# Poissons Ratio (y) = 0.13472 0.24559
# Poissons Ratio (z) = 0.26069 0.18749
#
# Static dielectric constant tensor:
#      x y z
#    x 2.165250 0.000000 0.013690 
#    y 0.000000 2.159730 0.000000 
#    z 0.013690 0.000000 2.094010 
# 
# From -- ./inp_files/96030.got.cif
#   From: 2010.05.17/outbox.cif.g08.bks.cpg/sg15_49_cif.got.tgz:96030.got - 2010.06.03 18:47:42.
