data_PCOD9308367
_publ_section_title
;
Structure prediction by ZEFSAII (Michael W. Deem and Ramdas Pophale) SiO2 
 PCOD9308367
Probable space group: C 2/C
;
_chemical_formula_sum "Si O2"
_cell_formula_units_Z 44
_cell_length_a 21.174815
_cell_length_b 5.445113
_cell_length_c 15.575140
_cell_angle_alpha 90.000000
_cell_angle_beta 72.851043
_cell_angle_gamma 90.000000
_cell_volume 1715.963311
_symmetry_space_group_name_H-M "C 2/C"
_symmetry_group_IT_number 15
_symmetry_cell_setting 'monoclinic'
loop_
_space_group_symop_operation_xyz
x,y,z
-x,y,1/2-z
-x,-y,-z
x,-y,1/2+z
1/2+x,1/2+y,z
1/2-x,1/2+y,1/2-z
1/2-x,1/2-y,-z
1/2+x,1/2-y,1/2+z
loop_
_atom_site_type_symbol
_atom_site_label
_atom_site_fract_x
_atom_site_fract_y
_atom_site_fract_z
Si Si1 0.577527 0.057936 0.488983
Si Si2 0.282816 0.438976 0.703639
Si Si3 0.603303 0.133232 0.796546
Si Si4 0.500000 0.405122 0.750000
Si Si5 0.310330 0.426172 0.001490
Si Si6 0.384045 0.755114 0.860268
O O1 0.617925 0.299422 0.505651
O O2 0.500000 0.000000 0.500000
O O3 0.610333 0.004770 0.383254
O O4 0.595273 0.873989 0.557845
O O5 0.256353 0.698712 0.747773
O O6 0.354860 0.381107 0.712710
O O7 0.289373 0.447667 0.598606
O O8 0.528858 0.223250 0.810135
O O9 0.624680 0.965655 0.707801
O O10 0.442946 0.578654 0.807152
O O11 0.321769 0.596154 0.914322
O O12 0.250000 0.250000 0.000000
#
# Coordination Sequence:
#
# PCOD9308367 Si02
#       6
#     8   8   8   4   8   8
#     4  12  27  51  84 123 172 229 296 364 449 540
#     4  12  31  56  88 124 175 237 298 361 446 540
#     4  12  28  52  82 124 170 228 287 365 441 526
#     4  12  28  48  86 128 170 226 290 364 438 538
#     4  12  31  54  85 128 176 231 298 376 455 541
#     4  12  28  51  84 125 175 224 292 366 444 531
#
# _framework density 25.641573999999999
#
# number of rings (size 3 to 8) (size 9 to 14) (size 15 to 20)
#    0.000    0.000    1.818    6.000   12.727    3.636 
#    0.000    0.909    0.000    0.000    0.000    0.000 
#    0.000    0.000    0.000    0.000    0.000    0.000 
#
# Total GULP energy -123302.700952 kJ/mol
# GULP energy per Si atom -5604.668225 kJ/mol
# Density = 2.558321 g / cm^3
# Si number density = 25.641574 Si / 1000 Ang^3
#
#
#
# Elastic Constant Matrix: (Units=GPa)
#
#
# Indices 1 2 3 4 5 6 
#
# 1 120.2711 48.3021 43.8389 0.0000 3.5744 0.0000
# 2 48.3021 117.6211 68.3183 0.0000 -2.4026 0.0000
# 3 43.8389 68.3183 198.0230 0.0000 5.1729 0.0000
# 4 0.0000 0.0000 0.0000 51.4996 0.0000 6.5201
# 5 3.5744 -2.4026 5.1729 0.0000 44.8878 0.0000
# 6 0.0000 0.0000 0.0000 6.5201 0.0000 47.9969
#
#
#
# Elastic Compliance Matrix: (Units=1/GPa)
#
#
# Indices 1 2 3 4 5 6 
#
# 1 0.010150 -0.003620 -0.000975 0.000000 -0.000890 0.000000
# 2 -0.003620 0.011968 -0.003362 0.000000 0.001316 0.000000
# 3 -0.000975 -0.003362 0.006448 0.000000 -0.000845 0.000000
# 4 0.000000 0.000000 0.000000 0.019757 0.000000 -0.002684
# 5 -0.000890 0.001316 -0.000845 0.000000 0.022517 0.000000
# 6 0.000000 0.000000 0.000000 -0.002684 0.000000 0.021199
#
#
# Mechanical properties :
#
#
# Convention : Reuss Voigt Hill
#
# Bulk Modulus (GPa) = 79.03882 84.09264 81.56573
# Shear Modulus (GPa) = 44.57487 47.24059 45.90773
#
# Velocity S-wave (km/s) = 4.17392 4.29691 4.23586
# Velocity P-wave (km/s) = 7.35664 7.58186 7.47010
#
# Compressibility (1/GPa) = 0.01265201
#
# Stress axis : x y z
#
# Youngs Moduli (GPa) = 98.51975 83.55484 155.09394
#
# Poissons Ratio (x) = 0.30249 0.15120
# Poissons Ratio (y) = 0.35666 0.52142
# Poissons Ratio (z) = 0.09604 0.28091
#
# Static dielectric constant tensor:
#      x y z
#    x 3.430760 0.000000 -0.864210 
#    y 0.000000 2.047100 0.000000 
#    z -0.864210 0.000000 2.449140 
# 
# From -- ./inp_files/170799.got.cif
#   From: 2010.05.17/outbox.cif.g08.bks.cpg/sg15_86_cif.got.tgz:170799.got - 2010.06.03 18:47:42.
