data_PCOD9308946
_publ_section_title
;
Structure prediction by ZEFSAII (Michael W. Deem and Ramdas Pophale) SiO2 
 PCOD9308946
Probable space group: C 2/C
;
_chemical_formula_sum "Si O2"
_cell_formula_units_Z 22
_cell_length_a 12.000000
_cell_length_b 21.000000
_cell_length_c 15.000000
_cell_angle_alpha 90.000000
_cell_angle_beta 140.000000
_cell_angle_gamma 90.000000
_cell_volume 2429.737165
_symmetry_space_group_name_H-M "C 2/C"
_symmetry_group_IT_number 15
_symmetry_cell_setting 'monoclinic'
loop_
_space_group_symop_operation_xyz
x,y,z
-x,y,1/2-z
-x,-y,-z
x,-y,1/2+z
1/2+x,1/2+y,z
1/2-x,1/2+y,1/2-z
1/2-x,1/2-y,-z
1/2+x,1/2-y,1/2+z
loop_
_atom_site_type_symbol
_atom_site_label
_atom_site_fract_x
_atom_site_fract_y
_atom_site_fract_z
Si Si1 0.000000 0.215896 0.250000
Si Si2 0.071294 0.974911 0.691435
Si Si3 0.850569 0.690848 0.811122
Si Si4 0.028175 0.895263 0.045498
Si Si5 0.814965 0.691992 0.192148
Si Si6 0.327155 0.131927 0.394721
O O1 0.956601 0.262596 0.307331
O O2 0.830488 0.169192 0.149440
O O3 0.255565 0.938820 0.825358
O O4 0.000000 0.980576 0.750000
O O5 0.982858 0.926519 0.562295
O O6 0.054440 0.044121 0.630463
O O7 0.692361 0.652351 0.664984
O O8 0.766272 0.737690 0.835420
O O9 0.994681 0.643016 0.941479
O O10 0.845682 0.853876 0.942964
O O11 0.853717 0.665413 0.315068
O O12 0.000000 0.692864 0.250000
#
# Coordination Sequence:
#
# PCOD9308946 Si02
#       6
#     4   8   8   8   8   8
#     4  10  20  36  62  96 134 160 202 266 328 382
#     4  10  22  43  67  84 129 178 212 267 317 376
#     4  11  23  36  64 101 128 160 211 267 326 386
#     4  10  24  43  62  96 127 167 224 263 320 387
#     4  10  22  41  62  90 131 170 210 264 325 385
#     4  10  21  37  63  92 125 170 212 259 322 378
#
# _framework density 9.0544770000000003
#
# number of rings (size 3 to 8) (size 9 to 14) (size 15 to 20)
#    0.000    1.818    0.909    2.727    2.545    5.818 
#    0.000    3.636    2.000    0.000    0.000    0.000 
#    0.000    0.000    0.000    0.000    0.000    0.000 
#
# Total GULP energy -122471.432277 kJ/mol
# GULP energy per Si atom -5566.883285 kJ/mol
# Density = 0.903387 g / cm^3
# Si number density = 9.054477 Si / 1000 Ang^3
#
#
#
# Elastic Constant Matrix: (Units=GPa)
#
#
# Indices 1 2 3 4 5 6 
#
# 1 142.1730 35.1045 42.9528 0.0000 6.2519 0.0000
# 2 35.1045 106.3635 43.2095 0.0000 4.2066 0.0000
# 3 42.9528 43.2095 137.3709 0.0000 14.4598 0.0000
# 4 0.0000 0.0000 0.0000 40.3000 0.0000 -5.3765
# 5 6.2519 4.2066 14.4598 0.0000 35.2472 0.0000
# 6 0.0000 0.0000 0.0000 -5.3765 0.0000 26.2567
#
#
#
# Elastic Compliance Matrix: (Units=1/GPa)
#
#
# Indices 1 2 3 4 5 6 
#
# 1 0.008089 -0.001884 -0.001891 0.000000 -0.000434 0.000000
# 2 -0.001884 0.011219 -0.002962 0.000000 0.000210 0.000000
# 3 -0.001891 -0.002962 0.009124 0.000000 -0.003054 0.000000
# 4 0.000000 0.000000 0.000000 0.025511 0.000000 0.005224
# 5 -0.000434 0.000210 -0.003054 0.000000 0.029676 0.000000
# 6 0.000000 0.000000 0.000000 0.005224 0.000000 0.039155
#
#
# Mechanical properties :
#
#
# Convention : Reuss Voigt Hill
#
# Bulk Modulus (GPa) = 66.85541 69.82679 68.34110
# Shear Modulus (GPa) = 35.40236 38.00348 36.70292
#
# Velocity S-wave (km/s) = 4.42629 4.58602 4.50686
# Velocity P-wave (km/s) = 7.94489 8.16609 8.05625
#
# Compressibility (1/GPa) = 0.01495765
#
# Stress axis : x y z
#
# Youngs Moduli (GPa) = 123.61921 89.13834 109.60279
#
# Poissons Ratio (x) = 0.16798 0.20725
# Poissons Ratio (y) = 0.23296 0.32460
# Poissons Ratio (z) = 0.23375 0.26400
#
# Static dielectric constant tensor:
#      x y z
#    x 1.634720 0.000000 -0.003290 
#    y 0.000000 1.667250 0.000000 
#    z -0.003290 0.000000 1.638400 
# 
# From -- ./inp_files/147286.got.cif
#   From: 2010.05.17/outbox.ucp.g08.bks.cvg/sg15_74_cif.got.tgz:147286.got - 2010.06.11 12:40:34.
