data_PCOD9308896
_publ_section_title
;
Structure prediction by ZEFSAII (Michael W. Deem and Ramdas Pophale) SiO2 
 PCOD9308896
Probable space group: C 2/C
;
_chemical_formula_sum "Si O2"
_cell_formula_units_Z 28
_cell_length_a 21.000000
_cell_length_b 12.000000
_cell_length_c 24.000000
_cell_angle_alpha 90.000000
_cell_angle_beta 30.000000
_cell_angle_gamma 90.000000
_cell_volume 3024.000000
_symmetry_space_group_name_H-M "C 2/C"
_symmetry_group_IT_number 15
_symmetry_cell_setting 'monoclinic'
loop_
_space_group_symop_operation_xyz
x,y,z
-x,y,1/2-z
-x,-y,-z
x,-y,1/2+z
1/2+x,1/2+y,z
1/2-x,1/2+y,1/2-z
1/2-x,1/2-y,-z
1/2+x,1/2-y,1/2+z
loop_
_atom_site_type_symbol
_atom_site_label
_atom_site_fract_x
_atom_site_fract_y
_atom_site_fract_z
Si Si1 0.620245 0.536136 0.274511
Si Si2 0.078420 0.870856 0.135146
Si Si3 0.102367 0.723578 0.832513
Si Si4 0.085790 0.533227 0.489519
Si Si5 0.850988 0.670477 0.485910
Si Si6 0.880560 0.834337 0.566312
Si Si7 0.661130 0.424755 0.363465
O O1 0.499837 0.464479 0.341525
O O2 0.577345 0.663871 0.316841
O O3 0.760451 0.539629 0.138191
O O4 0.656268 0.479549 0.305940
O O5 0.227256 0.872855 0.044183
O O6 0.000000 0.872471 0.250000
O O7 0.066373 0.750053 0.115997
O O8 0.160580 0.769472 0.846825
O O9 0.213034 0.647048 0.722668
O O10 0.980029 0.645940 0.937726
O O11 0.077263 0.433162 0.540706
O O12 0.000000 0.500000 0.500000
O O13 0.830129 0.759666 0.553122
O O14 0.034402 0.847465 0.459250
O O15 0.842705 0.965503 0.593904
#
# Coordination Sequence:
#
# PCOD9308896 Si02
#       7
#     8   8   8   8   8   8   8
#     4  11  22  41  63  86 131 171 205 256 325 380
#     4  11  24  43  64  86 121 174 217 257 313 364
#     4  11  23  35  60  96 130 166 198 258 319 391
#     4  12  22  39  63 100 129 158 208 260 327 391
#     4  11  23  39  67  94 121 163 219 264 304 380
#     4  10  20  35  59  91 129 159 202 256 321 381
#     4  10  20  35  57  94 130 161 195 256 330 379
#
# _framework density 9.2592590000000001
#
# number of rings (size 3 to 8) (size 9 to 14) (size 15 to 20)
#    0.000    1.143    5.714    0.857    0.000    1.143 
#    0.000    0.714    0.000    0.000    0.000    0.000 
#    0.000    0.000    0.000    0.000    0.000    0.000 
#
# Total GULP energy -155951.098782 kJ/mol
# GULP energy per Si atom -5569.682099 kJ/mol
# Density = 0.923818 g / cm^3
# Si number density = 9.259259 Si / 1000 Ang^3
#
#
#
# Elastic Constant Matrix: (Units=GPa)
#
#
# Indices 1 2 3 4 5 6 
#
# 1 59.5756 37.3539 -22.0465 0.0001 -18.3884 0.0000
# 2 37.3539 135.9026 18.3600 -0.0001 -17.6822 0.0000
# 3 -22.0465 18.3600 13.4593 -0.0001 -25.2990 -0.0001
# 4 0.0001 -0.0001 -0.0001 34.7614 0.0000 -4.7864
# 5 -18.3884 -17.6822 -25.2990 0.0000 27.1769 0.0001
# 6 0.0000 0.0000 -0.0001 -4.7864 0.0001 36.6364
#
#
#
# Elastic Compliance Matrix: (Units=1/GPa)
#
#
# Indices 1 2 3 4 5 6 
#
# 1 0.005088 -0.000735 -0.019886 0.000000 -0.015547 0.000000
# 2 -0.000735 0.008122 0.004381 0.000000 0.008865 0.000000
# 3 -0.019886 0.004381 -0.021092 0.000000 -0.030240 0.000000
# 4 0.000000 0.000000 0.000000 0.029295 0.000000 0.003827
# 5 -0.015547 0.008865 -0.030240 0.000000 0.003894 0.000000
# 6 0.000000 0.000000 0.000000 0.003827 0.000000 0.027795
#
#
# Mechanical properties :
#
#
# Convention : Reuss Voigt Hill
#
# Bulk Modulus (GPa) = -24.77566 30.69689 2.96062
# Shear Modulus (GPa) = 69.32139 31.39961 50.36050
#
# Velocity S-wave (km/s) = 6.12493 4.12221 5.22051
# Velocity P-wave (km/s) = 6.05077 6.26651 6.15958
#
# Compressibility (1/GPa) = -0.04036220
#
# Stress axis : x y z
#
# Youngs Moduli (GPa) = 196.52230 123.12514 -47.41043
#
# Poissons Ratio (x) = 0.09049 -0.94280
# Poissons Ratio (y) = 0.14442 0.20770
# Poissons Ratio (z) = 3.90804 -0.53939
#
# Static dielectric constant tensor:
#      x y z
#    x 1.688970 0.000000 0.028820 
#    y 0.000000 1.685450 0.000000 
#    z 0.028820 0.000000 1.724780 
# 
# From -- ./inp_files/279984.got.cif
#   From: 2010.05.17/outbox.ucp.g08.bks.cvg/sg15_140_cif.got.tgz:279984.got - 2010.06.11 12:40:34.
