data_PCOD9308821
_publ_section_title
;
Structure prediction by ZEFSAII (Michael W. Deem and Ramdas Pophale) SiO2 
 PCOD9308821
Probable space group: C 2/C
;
_chemical_formula_sum "Si O2"
_cell_formula_units_Z 16
_cell_length_a 15.000000
_cell_length_b 15.000000
_cell_length_c 21.000000
_cell_angle_alpha 90.000000
_cell_angle_beta 20.000000
_cell_angle_gamma 90.000000
_cell_volume 1616.045177
_symmetry_space_group_name_H-M "C 2/C"
_symmetry_group_IT_number 15
_symmetry_cell_setting 'monoclinic'
loop_
_space_group_symop_operation_xyz
x,y,z
-x,y,1/2-z
-x,-y,-z
x,-y,1/2+z
1/2+x,1/2+y,z
1/2-x,1/2+y,1/2-z
1/2-x,1/2-y,-z
1/2+x,1/2-y,1/2+z
loop_
_atom_site_type_symbol
_atom_site_label
_atom_site_fract_x
_atom_site_fract_y
_atom_site_fract_z
Si Si1 0.230363 0.467775 0.043505
Si Si2 0.127970 0.311063 0.022518
Si Si3 0.768568 0.158328 0.279611
Si Si4 0.256176 0.844384 0.034585
O O1 0.127801 0.408278 0.053166
O O2 0.259346 0.570119 0.002378
O O3 0.000000 0.460274 0.250000
O O4 0.504229 0.418360 0.880258
O O5 0.870237 0.253380 0.184920
O O6 0.250000 0.250000 0.000000
O O7 0.239347 0.325485 0.876141
O O8 0.506782 0.141643 0.414005
O O9 0.250000 0.750000 0.000000
O O10 0.000000 0.845870 0.250000
#
# Coordination Sequence:
#
# PCOD9308821 Si02
#       4
#     8   8   8   8
#     4  11  24  42  66  96 129 170 222 267 317 388
#     4  10  19  38  66  97 128 163 213 264 318 383
#     4  11  23  41  68  97 132 173 211 270 329 376
#     4  12  27  45  65  94 132 173 219 267 324 391
#
# _framework density 9.9007129999999997
#
# number of rings (size 3 to 8) (size 9 to 14) (size 15 to 20)
#    0.000    1.000    0.000    9.750    0.000    7.000 
#    0.000    0.000    0.000    0.000    0.000    0.000 
#    0.000    0.000    0.000    0.000    0.000    0.000 
#
# Total GULP energy -89162.665549 kJ/mol
# GULP energy per Si atom -5572.666597 kJ/mol
# Density = 0.987818 g / cm^3
# Si number density = 9.900713 Si / 1000 Ang^3
#
#
#
# Elastic Constant Matrix: (Units=GPa)
#
#
# Indices 1 2 3 4 5 6 
#
# 1 111.7716 42.4963 78.8469 0.0681 -0.7185 -0.0416
# 2 42.4963 165.9314 60.9375 -0.0483 6.0123 0.0080
# 3 78.8469 60.9375 172.9028 -0.0085 7.1396 -0.0433
# 4 0.0681 -0.0483 -0.0085 36.4418 -0.0381 9.5760
# 5 -0.7185 6.0123 7.1396 -0.0381 57.4497 0.0241
# 6 -0.0416 0.0080 -0.0433 9.5760 0.0241 37.6762
#
#
#
# Elastic Compliance Matrix: (Units=1/GPa)
#
#
# Indices 1 2 3 4 5 6 
#
# 1 0.013515 -0.001401 -0.005712 -0.000032 0.001025 0.000016
# 2 -0.001401 0.007078 -0.001834 0.000013 -0.000530 -0.000008
# 3 -0.005712 -0.001834 0.009076 0.000009 -0.001007 0.000003
# 4 -0.000032 0.000013 0.000009 0.029405 0.000020 -0.007474
# 5 0.001025 -0.000530 -0.001007 0.000020 0.017600 -0.000016
# 6 0.000016 -0.000008 0.000003 -0.007474 -0.000016 0.028442
#
#
# Mechanical properties :
#
#
# Convention : Reuss Voigt Hill
#
# Bulk Modulus (GPa) = 84.91528 90.57413 87.74471
# Shear Modulus (GPa) = 39.39018 44.20186 41.79602
#
# Velocity S-wave (km/s) = 4.46495 4.72980 4.59928
# Velocity P-wave (km/s) = 8.34012 8.69877 8.52133
#
# Compressibility (1/GPa) = 0.01177644
#
# Stress axis : x y z
#
# Youngs Moduli (GPa) = 73.98967 141.28172 110.17774
#
# Poissons Ratio (x) = 0.19792 0.62932
# Poissons Ratio (y) = 0.10365 0.20205
# Poissons Ratio (z) = 0.42262 0.25909
#
# Static dielectric constant tensor:
#      x y z
#    x 1.697560 -0.000010 -0.020770 
#    y -0.000010 1.708600 -0.000030 
#    z -0.020770 -0.000030 1.777860 
# 
# From -- ./inp_files/37357.got.cif
#   From: 2010.05.17/outbox.ucp.g08.bks.cvg/sg15_19_cif.got.tgz:37357.got - 2010.06.11 12:40:34.
