data_PCOD9308766
_publ_section_title
;
Structure prediction by ZEFSAII (Michael W. Deem and Ramdas Pophale) SiO2 
 PCOD9308766
Probable space group: C 2/C
;
_chemical_formula_sum "Si O2"
_cell_formula_units_Z 28
_cell_length_a 9.000000
_cell_length_b 24.000000
_cell_length_c 15.000000
_cell_angle_alpha 90.000000
_cell_angle_beta 120.000000
_cell_angle_gamma 90.000000
_cell_volume 2805.922308
_symmetry_space_group_name_H-M "C 2/C"
_symmetry_group_IT_number 15
_symmetry_cell_setting 'monoclinic'
loop_
_space_group_symop_operation_xyz
x,y,z
-x,y,1/2-z
-x,-y,-z
x,-y,1/2+z
1/2+x,1/2+y,z
1/2-x,1/2+y,1/2-z
1/2-x,1/2-y,-z
1/2+x,1/2-y,1/2+z
loop_
_atom_site_type_symbol
_atom_site_label
_atom_site_fract_x
_atom_site_fract_y
_atom_site_fract_z
Si Si1 0.813773 0.454788 0.646169
Si Si2 0.481642 0.162055 0.602722
Si Si3 0.644000 0.466556 0.217994
Si Si4 0.152258 0.674595 0.371877
Si Si5 0.792167 0.845881 0.322343
Si Si6 0.024244 0.754969 0.489679
Si Si7 0.515905 0.040300 0.922873
O O1 0.662309 0.477158 0.664751
O O2 0.798218 0.391432 0.605114
O O3 0.838092 0.508824 0.589908
O O4 0.000000 0.452014 0.750000
O O5 0.353340 0.151052 0.645743
O O6 0.677960 0.167201 0.699237
O O7 0.430418 0.217769 0.535960
O O8 0.460624 0.104316 0.542577
O O9 0.500000 0.472575 0.250000
O O10 0.618320 0.406298 0.162699
O O11 0.836371 0.460372 0.315668
O O12 0.089419 0.705373 0.443358
O O13 0.328638 0.709983 0.413467
O O14 0.000000 0.679705 0.250000
O O15 0.920903 0.798102 0.395712
O O16 0.500000 0.000000 0.000000
#
# Coordination Sequence:
#
# PCOD9308766 Si02
#       7
#     8   8   8   8   8   8   8
#     4   9  18  38  61  80 116 158 195 237 299 363
#     4  10  20  38  61  85 121 163 204 248 305 360
#     4  10  21  38  61  89 120 156 198 251 311 356
#     4  10  22  39  60  85 122 162 197 251 307 358
#     4  10  21  38  60  87 123 162 200 256 302 361
#     4  11  22  36  60  92 119 157 211 246 297 367
#     4  10  19  35  61  89 116 158 200 239 299 373
#
# _framework density 9.9788940000000004
#
# number of rings (size 3 to 8) (size 9 to 14) (size 15 to 20)
#    0.000    2.000    1.429    2.143    0.000    6.286 
#    2.571    1.429    9.429    0.000    0.000    0.000 
#    0.000    0.000    0.000    0.000    0.000    0.000 
#
# Total GULP energy -155870.992687 kJ/mol
# GULP energy per Si atom -5566.821167 kJ/mol
# Density = 0.995618 g / cm^3
# Si number density = 9.978894 Si / 1000 Ang^3
#
#
#
# Elastic Constant Matrix: (Units=GPa)
#
#
# Indices 1 2 3 4 5 6 
#
# 1 85.2598 55.4776 4.3655 0.0000 -9.3398 0.0000
# 2 55.4776 199.2159 50.1621 0.0000 -0.2361 0.0000
# 3 4.3655 50.1621 42.9859 0.0000 -1.1361 0.0000
# 4 0.0000 0.0000 0.0000 41.6604 0.0000 -9.9114
# 5 -9.3398 -0.2361 -1.1361 0.0000 14.4582 0.0000
# 6 0.0000 0.0000 0.0000 -9.9114 0.0000 24.5417
#
#
#
# Elastic Compliance Matrix: (Units=1/GPa)
#
#
# Indices 1 2 3 4 5 6 
#
# 1 0.016567 -0.006019 0.005633 0.000000 0.011046 0.000000
# 2 -0.006019 0.009299 -0.010361 0.000000 -0.004550 0.000000
# 3 0.005633 -0.010361 0.034946 0.000000 0.006216 0.000000
# 4 0.000000 0.000000 0.000000 0.026555 0.000000 0.010725
# 5 0.011046 -0.004550 0.006216 0.000000 0.076715 0.000000
# 6 0.000000 0.000000 0.000000 0.010725 0.000000 0.045078
#
#
# Mechanical properties :
#
#
# Convention : Reuss Voigt Hill
#
# Bulk Modulus (GPa) = 25.43279 60.83024 43.13151
# Shear Modulus (GPa) = 20.51200 30.62914 25.57057
#
# Velocity S-wave (km/s) = 3.20936 3.92177 3.58331
# Velocity P-wave (km/s) = 5.14823 7.14511 6.22724
#
# Compressibility (1/GPa) = 0.03931932
#
# Stress axis : x y z
#
# Youngs Moduli (GPa) = 60.36124 107.53595 28.61560
#
# Poissons Ratio (x) = 0.64725 -0.16120
# Poissons Ratio (y) = 0.36331 0.29648
# Poissons Ratio (z) = -0.34002 1.11414
#
# Static dielectric constant tensor:
#      x y z
#    x 1.782070 0.000000 -0.096750 
#    y 0.000000 1.712590 0.000000 
#    z -0.096750 0.000000 1.739260 
# 
# From -- ./inp_files/137989.got.cif
#   From: 2010.05.17/outbox.ucp.g08.bks.cvg/sg15_69_cif.got.tgz:137989.got - 2010.06.11 12:40:34.
