data_PCOD9308225
_publ_section_title
;
Structure prediction by ZEFSAII (Michael W. Deem and Ramdas Pophale) SiO2 
 PCOD9308225
Probable space group: C 2/C
;
_chemical_formula_sum "Si O2"
_cell_formula_units_Z 36
_cell_length_a 17.363558
_cell_length_b 4.751976
_cell_length_c 16.648806
_cell_angle_alpha 90.000000
_cell_angle_beta 69.179807
_cell_angle_gamma 90.000000
_cell_volume 1284.010315
_symmetry_space_group_name_H-M "C 2/C"
_symmetry_group_IT_number 15
_symmetry_cell_setting 'monoclinic'
loop_
_space_group_symop_operation_xyz
x,y,z
-x,y,1/2-z
-x,-y,-z
x,-y,1/2+z
1/2+x,1/2+y,z
1/2-x,1/2+y,1/2-z
1/2-x,1/2-y,-z
1/2+x,1/2-y,1/2+z
loop_
_atom_site_type_symbol
_atom_site_label
_atom_site_fract_x
_atom_site_fract_y
_atom_site_fract_z
Si Si1 0.500000 0.021668 0.750000
Si Si2 0.248695 0.956718 0.142609
Si Si3 0.874062 0.726394 0.923011
Si Si4 0.750000 0.750000 0.500000
Si Si5 0.500000 0.500000 0.500000
Si Si6 0.117490 0.171934 0.823305
O O1 0.549819 0.835686 0.795243
O O2 0.431374 0.191878 0.824221
O O3 0.202980 0.067849 0.074724
O O4 0.327664 0.108091 0.146707
O O5 0.182105 0.963811 0.237275
O O6 0.263634 0.658241 0.095437
O O7 0.928383 0.851885 0.972643
O O8 0.839781 0.428984 0.965167
O O9 0.435563 0.475079 0.600513
#
# Coordination Sequence:
#
# PCOD9308225 Si02
#       6
#     4   8   8   4   4   8
#     4  12  26  50  72 114 160 210 260 350 412 490
#     4  12  27  51  79 114 159 215 271 337 419 525
#     4  12  27  50  80 114 165 210 277 343 423 507
#     4  12  26  50  84 112 158 218 268 340 414 526
#     4  12  28  46  80 124 160 216 280 366 422 500
#     4  12  27  47  79 114 162 213 277 339 423 501
#
# _framework density 28.037154999999998
#
# number of rings (size 3 to 8) (size 9 to 14) (size 15 to 20)
#    0.000    0.000    4.444    4.667    0.000    2.667 
#    0.000    0.000    0.000    0.000    0.000    0.000 
#    0.000    0.000    0.000    0.000    0.000    0.000 
#
# Total GULP energy -100252.838286 kJ/mol
# GULP energy per Si atom -5569.602127 kJ/mol
# Density = 2.797334 g / cm^3
# Si number density = 28.037155 Si / 1000 Ang^3
#
#
#
# Elastic Constant Matrix: (Units=GPa)
#
#
# Indices 1 2 3 4 5 6 
#
# 1 216.6493 81.8134 58.8288 -0.0022 9.0008 -0.0053
# 2 81.8134 89.2381 21.9681 -0.0058 6.6214 -0.0137
# 3 58.8288 21.9681 230.8433 -0.0018 -45.1951 -0.0035
# 4 -0.0022 -0.0058 -0.0018 31.7032 -0.0010 3.0510
# 5 9.0008 6.6214 -45.1951 -0.0010 68.6596 -0.0021
# 6 -0.0053 -0.0137 -0.0035 3.0510 -0.0021 37.5978
#
#
#
# Elastic Compliance Matrix: (Units=1/GPa)
#
#
# Indices 1 2 3 4 5 6 
#
# 1 0.007522 -0.006401 -0.001584 -0.000001 -0.001411 -0.000001
# 2 -0.006401 0.017191 -0.000189 0.000002 -0.000943 0.000005
# 3 -0.001584 -0.000189 0.005508 0.000000 0.003851 0.000000
# 4 -0.000001 0.000002 0.000000 0.031791 0.000000 -0.002580
# 5 -0.001411 -0.000943 0.003851 0.000000 0.017376 0.000001
# 6 -0.000001 0.000005 0.000000 -0.002580 0.000001 0.026807
#
#
# Mechanical properties :
#
#
# Convention : Reuss Voigt Hill
#
# Bulk Modulus (GPa) = 72.09100 95.77236 83.93168
# Shear Modulus (GPa) = 39.31823 52.53349 45.92586
#
# Velocity S-wave (km/s) = 3.74887 4.33333 4.05166
# Velocity P-wave (km/s) = 6.67137 7.69872 7.20338
#
# Compressibility (1/GPa) = 0.01387136
#
# Stress axis : x y z
#
# Youngs Moduli (GPa) = 132.94557 58.16876 181.56492
#
# Poissons Ratio (x) = 0.37236 0.28761
# Poissons Ratio (y) = 0.85103 0.03438
# Poissons Ratio (z) = 0.21059 0.01101
#
# Static dielectric constant tensor:
#      x y z
#    x 2.146250 0.000000 0.033450 
#    y 0.000000 2.483720 0.000000 
#    z 0.033450 0.000000 2.279850 
# 
# From -- ./inp_files/207966.got.cif
#   From: 2010.05.17/outbox.cif.g08.bks.cpg/sg15_104_cif.got.tgz:207966.got - 2010.06.03 18:47:42.
