data_PCOD9308096
_publ_section_title
;
Structure prediction by ZEFSAII (Michael W. Deem and Ramdas Pophale) SiO2 
 PCOD9308096
Probable space group: C 2/C
;
_chemical_formula_sum "Si O2"
_cell_formula_units_Z 44
_cell_length_a 19.215746
_cell_length_b 6.794809
_cell_length_c 14.893619
_cell_angle_alpha 90.000000
_cell_angle_beta 71.278665
_cell_angle_gamma 90.000000
_cell_volume 1841.731740
_symmetry_space_group_name_H-M "C 2/C"
_symmetry_group_IT_number 15
_symmetry_cell_setting 'monoclinic'
loop_
_space_group_symop_operation_xyz
x,y,z
-x,y,1/2-z
-x,-y,-z
x,-y,1/2+z
1/2+x,1/2+y,z
1/2-x,1/2+y,1/2-z
1/2-x,1/2-y,-z
1/2+x,1/2-y,1/2+z
loop_
_atom_site_type_symbol
_atom_site_label
_atom_site_fract_x
_atom_site_fract_y
_atom_site_fract_z
Si Si1 0.006027 0.508849 0.107773
Si Si2 0.150741 0.451374 0.856868
Si Si3 0.000000 0.844067 0.750000
Si Si4 0.257117 0.316519 0.669408
Si Si5 0.610724 0.644467 0.640745
Si Si6 0.816831 0.150878 0.523911
O O1 0.922526 0.572913 0.169891
O O2 0.013166 0.302585 0.159621
O O3 0.062082 0.674953 0.121345
O O4 0.000000 0.500000 0.000000
O O5 0.223155 0.366409 0.779434
O O6 0.172505 0.676232 0.861091
O O7 0.139788 0.332360 0.952215
O O8 0.067878 0.998980 0.727498
O O9 0.188726 0.221909 0.644644
O O10 0.280789 0.516338 0.614219
O O11 0.632826 0.494552 0.552795
O O12 0.750000 0.250000 0.500000
#
# Coordination Sequence:
#
# PCOD9308096 Si02
#       6
#     8   8   4   8   8   8
#     4  12  29  49  77 112 156 202 257 318 384 463
#     4  12  26  45  74 109 144 198 252 310 375 448
#     4  12  28  50  80 106 160 202 248 318 384 454
#     4  12  26  45  74 109 149 192 255 308 375 454
#     4  12  28  48  75 112 150 201 254 308 388 458
#     4  12  27  45  75 109 148 192 249 312 374 443
#
# _framework density 23.890557999999999
#
# number of rings (size 3 to 8) (size 9 to 14) (size 15 to 20)
#    0.000    0.000    3.636    5.455   10.182    5.818 
#    0.000    0.000    0.000    0.000    0.000    0.000 
#    0.000    0.000    0.000    0.000    0.000    0.000 
#
# Total GULP energy -123047.721888 kJ/mol
# GULP energy per Si atom -5593.078268 kJ/mol
# Density = 2.383618 g / cm^3
# Si number density = 23.890558 Si / 1000 Ang^3
#
#
#
# Elastic Constant Matrix: (Units=GPa)
#
#
# Indices 1 2 3 4 5 6 
#
# 1 98.0178 34.8251 -9.2670 0.0000 -0.7672 0.0000
# 2 34.8251 144.2609 40.5982 0.0000 6.3619 0.0000
# 3 -9.2670 40.5982 83.5178 0.0000 1.0639 0.0000
# 4 0.0000 0.0000 0.0000 76.3841 0.0000 -7.7797
# 5 -0.7672 6.3619 1.0639 0.0000 32.5764 0.0000
# 6 0.0000 0.0000 0.0000 -7.7797 0.0000 49.6694
#
#
#
# Elastic Compliance Matrix: (Units=1/GPa)
#
#
# Indices 1 2 3 4 5 6 
#
# 1 0.011852 -0.003786 0.003144 0.000000 0.000916 0.000000
# 2 -0.003786 0.009308 -0.004923 0.000000 -0.001746 0.000000
# 3 0.003144 -0.004923 0.014708 0.000000 0.000555 0.000000
# 4 0.000000 0.000000 0.000000 0.013304 0.000000 0.002084
# 5 0.000916 -0.001746 0.000555 0.000000 0.031042 0.000000
# 6 0.000000 0.000000 0.000000 0.002084 0.000000 0.020460
#
#
# Mechanical properties :
#
#
# Convention : Reuss Voigt Hill
#
# Bulk Modulus (GPa) = 40.42311 50.90103 45.66207
# Shear Modulus (GPa) = 41.64954 49.03531 45.34242
#
# Velocity S-wave (km/s) = 4.17987 4.53536 4.36124
# Velocity P-wave (km/s) = 6.34444 6.98414 6.67196
#
# Compressibility (1/GPa) = 0.02473833
#
# Stress axis : x y z
#
# Youngs Moduli (GPa) = 84.37493 107.43169 67.98943
#
# Poissons Ratio (x) = 0.40676 -0.21375
# Poissons Ratio (y) = 0.31946 0.33469
# Poissons Ratio (z) = -0.26527 0.52885
#
# Static dielectric constant tensor:
#      x y z
#    x 1.939520 0.000000 -0.084700 
#    y 0.000000 1.849600 0.000000 
#    z -0.084700 0.000000 2.017480 
# 
# From -- ./inp_files/212811.got.cif
#   From: 2010.05.17/outbox.cif.g08.bks.cpg/sg15_107_cif.got.tgz:212811.got - 2010.06.03 18:47:42.
