data_PCOD9308073
_publ_section_title
;
Structure prediction by ZEFSAII (Michael W. Deem and Ramdas Pophale) SiO2 
 PCOD9308073
Probable space group: C 2/C
;
_chemical_formula_sum "Si O2"
_cell_formula_units_Z 36
_cell_length_a 15.585101
_cell_length_b 21.635524
_cell_length_c 8.328144
_cell_angle_alpha 90.000000
_cell_angle_beta 31.101412
_cell_angle_gamma 90.000000
_cell_volume 1450.578900
_symmetry_space_group_name_H-M "C 2/C"
_symmetry_group_IT_number 15
_symmetry_cell_setting 'monoclinic'
loop_
_space_group_symop_operation_xyz
x,y,z
-x,y,1/2-z
-x,-y,-z
x,-y,1/2+z
1/2+x,1/2+y,z
1/2-x,1/2+y,1/2-z
1/2-x,1/2-y,-z
1/2+x,1/2-y,1/2+z
loop_
_atom_site_type_symbol
_atom_site_label
_atom_site_fract_x
_atom_site_fract_y
_atom_site_fract_z
Si Si1 0.000000 0.768762 0.750000
Si Si2 0.302714 0.418313 0.344680
Si Si3 0.811844 0.695363 0.287263
Si Si4 0.336677 0.641487 0.292148
Si Si5 0.320781 0.031777 0.794135
O O1 0.856610 0.814594 0.916205
O O2 0.029243 0.724165 0.553050
O O3 0.186601 0.366364 0.611528
O O4 0.306559 0.477479 0.453907
O O5 0.225287 0.441428 0.303845
O O6 0.483253 0.389707 0.023692
O O7 0.750000 0.750000 0.500000
O O8 0.700827 0.678895 0.309416
O O9 0.203893 0.587663 0.540170
O O10 0.500000 0.000000 0.500000
#
# Coordination Sequence:
#
# PCOD9308073 Si02
#       5
#     4   8   8   8   8
#     4  12  26  50  84 118 162 218 270 340 404 496
#     4  12  26  50  80 115 162 217 271 336 416 496
#     4  12  27  48  79 120 163 212 275 334 405 491
#     4  12  25  52  81 119 158 219 273 336 413 492
#     4  12  27  50  80 120 161 211 274 351 412 480
#
# _framework density 24.817678000000001
#
# number of rings (size 3 to 8) (size 9 to 14) (size 15 to 20)
#    0.000    0.000    4.444    4.000    3.111    1.778 
#    4.000    0.000    0.000    0.000    0.000    0.000 
#    0.000    0.000    0.000    0.000    0.000    0.000 
#
# Total GULP energy -100914.867154 kJ/mol
# GULP energy per Si atom -5606.381509 kJ/mol
# Density = 2.476119 g / cm^3
# Si number density = 24.817678 Si / 1000 Ang^3
#
#
#
# Elastic Constant Matrix: (Units=GPa)
#
#
# Indices 1 2 3 4 5 6 
#
# 1 138.5209 68.3129 32.4573 0.0001 10.1122 0.0000
# 2 68.3129 177.0579 49.4643 0.0001 20.2374 0.0000
# 3 32.4573 49.4643 101.2837 0.0002 8.8039 0.0001
# 4 0.0001 0.0001 0.0002 71.0070 -0.0001 18.9476
# 5 10.1122 20.2374 8.8039 -0.0001 49.9027 0.0000
# 6 0.0000 0.0000 0.0001 18.9476 0.0000 64.5510
#
#
#
# Elastic Compliance Matrix: (Units=1/GPa)
#
#
# Indices 1 2 3 4 5 6 
#
# 1 0.009087 -0.003081 -0.001377 0.000000 -0.000349 0.000000
# 2 -0.003081 0.007814 -0.002648 0.000000 -0.002077 0.000000
# 3 -0.001377 -0.002648 0.011669 0.000000 -0.000706 0.000000
# 4 0.000000 0.000000 0.000000 0.015280 0.000000 -0.004485
# 5 -0.000349 -0.002077 -0.000706 0.000000 0.021077 0.000000
# 6 0.000000 0.000000 0.000000 -0.004485 0.000000 0.016808
#
#
# Mechanical properties :
#
#
# Convention : Reuss Voigt Hill
#
# Bulk Modulus (GPa) = 69.65097 79.70352 74.67725
# Shear Modulus (GPa) = 49.63626 54.86734 52.25180
#
# Velocity S-wave (km/s) = 4.47703 4.70703 4.59347
# Velocity P-wave (km/s) = 7.40615 7.85665 7.63472
#
# Compressibility (1/GPa) = 0.01435730
#
# Stress axis : x y z
#
# Youngs Moduli (GPa) = 110.04963 127.97586 85.69660
#
# Poissons Ratio (x) = 0.39435 0.11798
# Poissons Ratio (y) = 0.33911 0.22693
# Poissons Ratio (z) = 0.15151 0.33889
#
# Static dielectric constant tensor:
#      x y z
#    x 1.887010 0.000000 -0.009650 
#    y 0.000000 1.975170 0.000000 
#    z -0.009650 0.000000 2.002440 
# 
# From -- ./inp_files/50531.got.cif
#   From: 2010.05.17/outbox.cif.g08.bks.cpg/sg15_26_cif.got.tgz:50531.got - 2010.06.03 18:47:42.
