data_PCOD9308633
_publ_section_title
;
Structure prediction by ZEFSAII (Michael W. Deem and Ramdas Pophale) SiO2 
 PCOD9308633
Probable space group: C 2/C
;
_chemical_formula_sum "Si O2"
_cell_formula_units_Z 24
_cell_length_a 18.000000
_cell_length_b 15.000000
_cell_length_c 18.000000
_cell_angle_alpha 90.000000
_cell_angle_beta 150.000000
_cell_angle_gamma 90.000000
_cell_volume 2430.000000
_symmetry_space_group_name_H-M "C 2/C"
_symmetry_group_IT_number 15
_symmetry_cell_setting 'monoclinic'
loop_
_space_group_symop_operation_xyz
x,y,z
-x,y,1/2-z
-x,-y,-z
x,-y,1/2+z
1/2+x,1/2+y,z
1/2-x,1/2+y,1/2-z
1/2-x,1/2-y,-z
1/2+x,1/2-y,1/2+z
loop_
_atom_site_type_symbol
_atom_site_label
_atom_site_fract_x
_atom_site_fract_y
_atom_site_fract_z
Si Si1 0.328463 0.467008 0.626934
Si Si2 0.603794 0.596143 0.162923
Si Si3 0.144718 0.454552 0.161152
Si Si4 0.714643 0.656105 0.832394
Si Si5 0.226382 0.029498 0.580521
Si Si6 0.878579 0.830857 0.982539
O O1 0.500000 0.477012 0.750000
O O2 0.328860 0.395794 0.695120
O O3 0.280327 0.564994 0.614944
O O4 0.244906 0.442222 0.479173
O O5 0.707035 0.514342 0.224284
O O6 0.613957 0.662368 0.101712
O O7 0.431499 0.570939 0.027719
O O8 0.181903 0.365571 0.149168
O O9 0.144912 0.446083 0.249838
O O10 0.000000 0.500000 0.000000
O O11 0.784063 0.745541 0.925821
O O12 0.545178 0.670703 0.659496
O O13 0.197842 0.922822 0.557066
#
# Coordination Sequence:
#
# PCOD9308633 Si02
#       6
#     8   8   8   8   8   8
#     4   9  17  34  58  80 101 138 184 222 260 316
#     4   9  17  35  56  73  99 138 185 222 250 310
#     4  10  19  33  54  77 102 136 186 227 252 303
#     4  11  22  34  49  82 113 139 177 215 266 327
#     4  10  17  36  59  75 100 141 182 221 264 308
#     4  11  20  33  52  77 110 142 174 217 266 315
#
# _framework density 9.8765429999999999
#
# number of rings (size 3 to 8) (size 9 to 14) (size 15 to 20)
#    0.000    2.000    6.667    1.000    4.667    0.667 
#    0.000    3.333    0.000    1.000    0.000    0.000 
#    0.000    0.000    0.000    0.000    0.000    0.000 
#
# Total GULP energy -133671.573471 kJ/mol
# GULP energy per Si atom -5569.648895 kJ/mol
# Density = 0.985406 g / cm^3
# Si number density = 9.876543 Si / 1000 Ang^3
#
#
#
# Elastic Constant Matrix: (Units=GPa)
#
#
# Indices 1 2 3 4 5 6 
#
# 1 58.0313 -15.7830 21.8641 -0.0001 -32.3460 -0.0001
# 2 -15.7830 10.5260 -10.0115 0.0003 12.0799 0.0001
# 3 21.8641 -10.0115 73.3173 0.0005 -34.8747 0.0002
# 4 -0.0001 0.0003 0.0005 18.2460 0.0002 3.3747
# 5 -32.3460 12.0799 -34.8747 0.0002 33.3430 0.0001
# 6 -0.0001 0.0001 0.0002 3.3747 0.0001 18.0440
#
#
#
# Elastic Compliance Matrix: (Units=1/GPa)
#
#
# Indices 1 2 3 4 5 6 
#
# 1 0.047541 0.025610 0.013621 -0.000001 0.051088 0.000000
# 2 0.025610 0.181504 -0.004605 -0.000002 -0.045729 0.000000
# 3 0.013621 -0.004605 0.031897 -0.000001 0.048243 0.000000
# 4 -0.000001 -0.000002 -0.000001 0.056770 -0.000002 -0.010618
# 5 0.051088 -0.045729 0.048243 -0.000002 0.146578 0.000000
# 6 0.000000 0.000000 0.000000 -0.010618 0.000000 0.057406
#
#
# Mechanical properties :
#
#
# Convention : Reuss Voigt Hill
#
# Bulk Modulus (GPa) = 3.02852 14.89042 8.95947
# Shear Modulus (GPa) = 8.88873 23.64692 16.26783
#
# Velocity S-wave (km/s) = 2.12360 3.46370 2.87288
# Velocity P-wave (km/s) = 2.74762 4.85293 3.94337
#
# Compressibility (1/GPa) = 0.33019451
#
# Stress axis : x y z
#
# Youngs Moduli (GPa) = 21.03430 5.50951 31.35123
#
# Poissons Ratio (x) = -0.14110 -0.42702
# Poissons Ratio (y) = -0.53869 0.14436
# Poissons Ratio (z) = -0.28650 0.02537
#
# Static dielectric constant tensor:
#      x y z
#    x 1.784760 0.000000 -0.080430 
#    y 0.000000 1.673720 0.000000 
#    z -0.080430 0.000000 1.728870 
# 
# From -- ./inp_files/47934.got.cif
#   From: 2010.05.17/outbox.ucp.g08.bks.cvg/sg15_24_cif.got.tgz:47934.got - 2010.06.11 12:40:34.
