data_PCOD9308364
_publ_section_title
;
Structure prediction by ZEFSAII (Michael W. Deem and Ramdas Pophale) SiO2 
 PCOD9308364
Probable space group: C 2/C
;
_chemical_formula_sum "Si O2"
_cell_formula_units_Z 40
_cell_length_a 16.968642
_cell_length_b 5.752838
_cell_length_c 19.782544
_cell_angle_alpha 90.000000
_cell_angle_beta 130.014705
_cell_angle_gamma 90.000000
_cell_volume 1479.012302
_symmetry_space_group_name_H-M "C 2/C"
_symmetry_group_IT_number 15
_symmetry_cell_setting 'monoclinic'
loop_
_space_group_symop_operation_xyz
x,y,z
-x,y,1/2-z
-x,-y,-z
x,-y,1/2+z
1/2+x,1/2+y,z
1/2-x,1/2+y,1/2-z
1/2-x,1/2-y,-z
1/2+x,1/2-y,1/2+z
loop_
_atom_site_type_symbol
_atom_site_label
_atom_site_fract_x
_atom_site_fract_y
_atom_site_fract_z
Si Si1 0.612954 0.666062 0.821359
Si Si2 0.290645 0.383466 0.740135
Si Si3 0.054030 0.077992 0.418913
Si Si4 0.775553 0.995713 0.881610
Si Si5 0.458458 0.061907 0.402770
O O1 0.500000 0.775353 0.750000
O O2 0.647318 0.575113 0.766794
O O3 0.600990 0.469805 0.871073
O O4 0.708498 0.828498 0.891379
O O5 0.319236 0.386141 0.835271
O O6 0.165915 0.412393 0.667129
O O7 0.303863 0.169006 0.697241
O O8 0.495309 0.172406 0.882992
O O9 0.137968 0.106240 0.524516
O O10 0.007170 0.816946 0.411413
O O11 0.500000 0.000000 0.500000
#
# Coordination Sequence:
#
# PCOD9308364 Si02
#       5
#     8   8   8   8   8
#     4  12  30  51  77 118 165 216 268 341 408 481
#     4  12  28  48  85 112 162 218 274 331 405 497
#     4  12  30  52  84 124 162 208 271 340 410 476
#     4  12  27  51  82 116 160 214 275 332 406 489
#     4  12  27  51  84 120 158 213 270 332 403 490
#
# _framework density 27.045076000000002
#
# number of rings (size 3 to 8) (size 9 to 14) (size 15 to 20)
#    0.000    0.000    4.000    3.600    8.400    1.600 
#    0.000    0.000    0.000    0.000    0.000    0.000 
#    0.000    0.000    0.000    0.000    0.000    0.000 
#
# Total GULP energy -111711.750422 kJ/mol
# GULP energy per Si atom -5585.587521 kJ/mol
# Density = 2.698352 g / cm^3
# Si number density = 27.045076 Si / 1000 Ang^3
#
#
#
# Elastic Constant Matrix: (Units=GPa)
#
#
# Indices 1 2 3 4 5 6 
#
# 1 139.3821 51.1605 39.1963 0.0000 -8.8804 0.0000
# 2 51.1605 130.0229 1.3840 0.0000 -2.3587 -0.0001
# 3 39.1963 1.3840 164.5745 0.0000 -17.1257 0.0000
# 4 0.0000 0.0000 0.0000 37.5947 0.0000 -5.0813
# 5 -8.8804 -2.3587 -17.1257 0.0000 36.5840 0.0000
# 6 0.0000 -0.0001 0.0000 -5.0813 0.0000 64.2076
#
#
#
# Elastic Compliance Matrix: (Units=1/GPa)
#
#
# Indices 1 2 3 4 5 6 
#
# 1 0.009113 -0.003546 -0.002033 0.000000 0.001032 0.000000
# 2 -0.003546 0.009079 0.000777 0.000000 0.000089 0.000000
# 3 -0.002033 0.000777 0.006841 0.000000 0.002759 0.000000
# 4 0.000000 0.000000 0.000000 0.026887 0.000000 0.002128
# 5 0.001032 0.000089 0.002759 0.000000 0.028882 0.000000
# 6 0.000000 0.000000 0.000000 0.002128 0.000000 0.015743
#
#
# Mechanical properties :
#
#
# Convention : Reuss Voigt Hill
#
# Bulk Modulus (GPa) = 64.80560 68.60677 66.70618
# Shear Modulus (GPa) = 44.92658 50.49318 47.70988
#
# Velocity S-wave (km/s) = 4.08017 4.32557 4.20466
# Velocity P-wave (km/s) = 6.79788 7.09718 6.94914
#
# Compressibility (1/GPa) = 0.01543077
#
# Stress axis : x y z
#
# Youngs Moduli (GPa) = 109.72778 110.13989 146.17489
#
# Poissons Ratio (x) = 0.39051 0.29722
# Poissons Ratio (y) = 0.38904 -0.11362
# Poissons Ratio (z) = 0.22311 -0.08561
#
# Static dielectric constant tensor:
#      x y z
#    x 2.154080 0.000000 0.070140 
#    y 0.000000 2.426850 0.000000 
#    z 0.070140 0.000000 2.107550 
# 
# From -- ./inp_files/251704.got.cif
#   From: 2010.05.17/outbox.cif.g08.bks.cpg/sg15_126_cif.got.tgz:251704.got - 2010.06.03 18:47:42.
