data_PCOD9308561
_publ_section_title
;
Structure prediction by ZEFSAII (Michael W. Deem and Ramdas Pophale) SiO2 
 PCOD9308561
Probable space group: C 2/C
;
_chemical_formula_sum "Si O2"
_cell_formula_units_Z 32
_cell_length_a 6.675113
_cell_length_b 18.656722
_cell_length_c 10.977471
_cell_angle_alpha 90.000000
_cell_angle_beta 73.146130
_cell_angle_gamma 90.000000
_cell_volume 1308.367279
_symmetry_space_group_name_H-M "C 2/C"
_symmetry_group_IT_number 15
_symmetry_cell_setting 'monoclinic'
loop_
_space_group_symop_operation_xyz
x,y,z
-x,y,1/2-z
-x,-y,-z
x,-y,1/2+z
1/2+x,1/2+y,z
1/2-x,1/2+y,1/2-z
1/2-x,1/2-y,-z
1/2+x,1/2-y,1/2+z
loop_
_atom_site_type_symbol
_atom_site_label
_atom_site_fract_x
_atom_site_fract_y
_atom_site_fract_z
Si Si1 0.276652 0.457476 0.573378
Si Si2 0.564244 0.703203 0.477008
Si Si3 0.212363 0.282751 0.797267
Si Si4 0.224191 0.443341 0.861505
O O1 0.374691 0.380056 0.525891
O O2 0.297292 0.470911 0.715351
O O3 0.322542 0.517011 0.461455
O O4 0.025777 0.450483 0.597654
O O5 0.750000 0.750000 0.500000
O O6 0.602051 0.729398 0.332122
O O7 0.361447 0.723392 0.592626
O O8 0.257799 0.357943 0.856883
O O9 0.000000 0.295110 0.750000
#
# Coordination Sequence:
#
# PCOD9308561 Si02
#       4
#     8   8   8   8
#     4   9  15  23  39  61  86 107 138 179 217 248
#     4   9  14  24  38  64  85 106 138 183 215 246
#     4   9  14  24  39  63  86 105 138 183 216 244
#     4   9  14  24  37  63  86 107 135 182 217 247
#
# _framework density 24.457962999999999
#
# number of rings (size 3 to 8) (size 9 to 14) (size 15 to 20)
#    0.000    3.000    7.500    0.000    0.000    0.000 
#    0.000    0.000    0.000    0.000    0.000  129.500 
#    0.000    0.000    0.000    0.000    0.000    0.000 
#
# Total GULP energy -89347.802032 kJ/mol
# GULP energy per Si atom -5584.237627 kJ/mol
# Density = 2.440230 g / cm^3
# Si number density = 24.457963 Si / 1000 Ang^3
#
#
#
# Elastic Constant Matrix: (Units=GPa)
#
#
# Indices 1 2 3 4 5 6 
#
# 1 75.5934 48.9082 65.7711 0.0000 21.4321 0.0000
# 2 48.9082 117.6472 136.5185 0.0000 11.7453 0.0000
# 3 65.7711 136.5185 246.8158 0.0000 -3.6281 0.0000
# 4 0.0000 0.0000 0.0000 59.2491 0.0000 -1.7966
# 5 21.4321 11.7453 -3.6281 0.0000 79.2814 0.0000
# 6 0.0000 0.0000 0.0000 -1.7966 0.0000 45.6676
#
#
#
# Elastic Compliance Matrix: (Units=1/GPa)
#
#
# Indices 1 2 3 4 5 6 
#
# 1 0.020058 -0.004360 -0.003005 0.000000 -0.004914 0.000000
# 2 -0.004360 0.026106 -0.013326 0.000000 -0.003299 0.000000
# 3 -0.003005 -0.013326 0.012273 0.000000 0.003348 0.000000
# 4 0.000000 0.000000 0.000000 0.016898 0.000000 0.000665
# 5 -0.004914 -0.003299 0.003348 0.000000 0.014584 0.000000
# 6 0.000000 0.000000 0.000000 0.000665 0.000000 0.021924
#
#
# Mechanical properties :
#
#
# Convention : Reuss Voigt Hill
#
# Bulk Modulus (GPa) = 58.64285 104.71688 81.67986
# Shear Modulus (GPa) = 31.46457 49.43020 40.44738
#
# Velocity S-wave (km/s) = 3.59064 4.50046 4.07105
# Velocity P-wave (km/s) = 6.42023 8.36143 7.45429
#
# Compressibility (1/GPa) = 0.01705238
#
# Stress axis : x y z
#
# Youngs Moduli (GPa) = 49.85592 38.30591 81.48233
#
# Poissons Ratio (x) = 0.16703 0.24489
# Poissons Ratio (y) = 0.21739 1.08584
# Poissons Ratio (z) = 0.14984 0.51047
#
# Static dielectric constant tensor:
#      x y z
#    x 1.889560 0.000000 0.013690 
#    y 0.000000 1.870650 0.000000 
#    z 0.013690 0.000000 1.995200 
# 
# From -- ./inp_files/49533.got.cif
#   From: 2010.05.17/outbox.cif.g08.bks.cpg/sg15_25_cif.got.tgz:49533.got - 2010.06.03 18:47:42.
