data_PCOD9308315
_publ_section_title
;
Structure prediction by ZEFSAII (Michael W. Deem and Ramdas Pophale) SiO2 
 PCOD9308315
Probable space group: C 2/C
;
_chemical_formula_sum "Si O2"
_cell_formula_units_Z 20
_cell_length_a 7.781029
_cell_length_b 23.969463
_cell_length_c 4.969524
_cell_angle_alpha 90.000000
_cell_angle_beta 64.281668
_cell_angle_gamma 90.000000
_cell_volume 835.035894
_symmetry_space_group_name_H-M "C 2/C"
_symmetry_group_IT_number 15
_symmetry_cell_setting 'monoclinic'
loop_
_space_group_symop_operation_xyz
x,y,z
-x,y,1/2-z
-x,-y,-z
x,-y,1/2+z
1/2+x,1/2+y,z
1/2-x,1/2+y,1/2-z
1/2-x,1/2-y,-z
1/2+x,1/2-y,1/2+z
loop_
_atom_site_type_symbol
_atom_site_label
_atom_site_fract_x
_atom_site_fract_y
_atom_site_fract_z
Si Si1 0.000000 0.958831 0.250000
Si Si2 0.801889 0.629107 0.740115
Si Si3 0.000000 0.282419 0.750000
Si Si4 0.500000 0.698331 0.250000
O O1 0.818152 0.918984 0.323048
O O2 0.000000 0.000000 0.500000
O O3 0.845639 0.675472 0.482437
O O4 0.000000 0.612357 0.750000
O O5 0.673706 0.656987 0.061307
O O6 0.978449 0.240820 0.513947
#
# Coordination Sequence:
#
# PCOD9308315 Si02
#       4
#     4   8   4   4
#     4  12  32  58  82 110 154 208 276 356 408 446
#     4  12  30  51  84 120 164 211 272 322 395 487
#     4  12  27  48  76 128 170 212 255 314 386 494
#     4  12  27  48  78 122 180 210 245 314 396 484
#
# _framework density 23.951069
#
# number of rings (size 3 to 8) (size 9 to 14) (size 15 to 20)
#    0.000    0.000    2.000    4.800   16.800    1.600 
#    0.000    0.000    0.000    0.000    0.000    0.000 
#    0.000    0.000    0.000    0.000    0.000    0.000 
#
# Total GULP energy -55929.326956 kJ/mol
# GULP energy per Si atom -5592.932696 kJ/mol
# Density = 2.389656 g / cm^3
# Si number density = 23.951069 Si / 1000 Ang^3
#
#
#
# Elastic Constant Matrix: (Units=GPa)
#
#
# Indices 1 2 3 4 5 6 
#
# 1 198.4565 123.5355 96.5370 0.0000 1.4862 0.0000
# 2 123.5355 167.2615 67.4552 0.0000 2.3455 0.0000
# 3 96.5370 67.4552 205.0619 0.0000 13.0541 0.0000
# 4 0.0000 0.0000 0.0000 68.7991 0.0000 -37.4464
# 5 1.4862 2.3455 13.0541 0.0000 56.9031 0.0000
# 6 0.0000 0.0000 0.0000 -37.4464 0.0000 80.0234
#
#
#
# Elastic Compliance Matrix: (Units=1/GPa)
#
#
# Indices 1 2 3 4 5 6 
#
# 1 0.010556 -0.006669 -0.002816 0.000000 0.000645 0.000000
# 2 -0.006669 0.011110 -0.000504 0.000000 -0.000168 0.000000
# 3 -0.002816 -0.000504 0.006457 0.000000 -0.001387 0.000000
# 4 0.000000 0.000000 0.000000 0.019502 0.000000 0.009126
# 5 0.000645 -0.000168 -0.001387 0.000000 0.017882 0.000000
# 6 0.000000 0.000000 0.000000 0.009126 0.000000 0.016767
#
#
# Mechanical properties :
#
#
# Convention : Reuss Voigt Hill
#
# Bulk Modulus (GPa) = 122.81529 127.31503 125.06516
# Shear Modulus (GPa) = 47.63371 60.02861 53.83116
#
# Velocity S-wave (km/s) = 4.46443 5.01173 4.74597
# Velocity P-wave (km/s) = 8.82971 9.31459 9.07539
#
# Compressibility (1/GPa) = 0.00814231
#
# Stress axis : x y z
#
# Youngs Moduli (GPa) = 94.73614 90.00733 154.87884
#
# Poissons Ratio (x) = 0.60029 0.43621
# Poissons Ratio (y) = 0.63183 0.07810
# Poissons Ratio (z) = 0.26682 0.04539
#
# Static dielectric constant tensor:
#      x y z
#    x 2.342780 0.000000 0.020750 
#    y 0.000000 1.864670 0.000000 
#    z 0.020750 0.000000 1.852100 
# 
# From -- ./inp_files/1302.got.cif
#   From: 2010.05.17/outbox.cif.g08.bks.cpg/sg15_1_cif.got.tgz:1302.got - 2010.06.03 18:47:42.
