data_PCOD9308863
_publ_section_title
;
Structure prediction by ZEFSAII (Michael W. Deem and Ramdas Pophale) SiO2 
 PCOD9308863
Probable space group: C 2/C
;
_chemical_formula_sum "Si O2"
_cell_formula_units_Z 30
_cell_length_a 21.000000
_cell_length_b 21.000000
_cell_length_c 15.000000
_cell_angle_alpha 90.000000
_cell_angle_beta 30.000000
_cell_angle_gamma 90.000000
_cell_volume 3307.500000
_symmetry_space_group_name_H-M "C 2/C"
_symmetry_group_IT_number 15
_symmetry_cell_setting 'monoclinic'
loop_
_space_group_symop_operation_xyz
x,y,z
-x,y,1/2-z
-x,-y,-z
x,-y,1/2+z
1/2+x,1/2+y,z
1/2-x,1/2+y,1/2-z
1/2-x,1/2-y,-z
1/2+x,1/2-y,1/2+z
loop_
_atom_site_type_symbol
_atom_site_label
_atom_site_fract_x
_atom_site_fract_y
_atom_site_fract_z
Si Si1 0.999113 0.200161 0.606718
Si Si2 0.295301 0.511106 0.224850
Si Si3 0.500000 0.583554 0.250000
Si Si4 0.482088 0.163305 0.165539
Si Si5 0.486172 0.603047 0.467740
Si Si6 0.981654 0.519249 0.419517
Si Si7 0.768733 0.986714 0.544397
Si Si8 0.186435 0.847949 0.030454
O O1 0.986461 0.164539 0.529469
O O2 0.098707 0.165264 0.551482
O O3 0.038175 0.273667 0.553320
O O4 0.868115 0.193365 0.822145
O O5 0.390105 0.560853 0.155943
O O6 0.278377 0.526240 0.139729
O O7 0.155913 0.509365 0.438896
O O8 0.366494 0.442653 0.137305
O O9 0.487209 0.617577 0.361050
O O10 0.371955 0.540454 0.398253
O O11 0.500000 0.168205 0.250000
O O12 0.532292 0.095356 0.073085
O O13 0.331576 0.164212 0.330436
O O14 0.117895 0.502031 0.208512
O O15 0.000000 0.500000 0.500000
O O16 0.816332 0.922268 0.439593
#
# Coordination Sequence:
#
# PCOD9308863 Si02
#       8
#     8   8   4   8   8   8   8   8
#     4  11  21  34  54  79 115 152 179 221 280 335
#     4   9  18  32  52  79 107 142 195 226 279 332
#     4  10  20  34  52  80 112 138 200 244 266 322
#     4  11  23  34  53  86 115 147 178 220 279 337
#     4  10  21  32  54  80 106 150 188 235 283 322
#     4   9  20  36  54  78 112 147 185 222 276 334
#     4   9  17  32  52  78 111 150 178 234 280 321
#     4  10  20  33  51  80 121 144 179 218 273 342
#
# _framework density 9.0702949999999998
#
# number of rings (size 3 to 8) (size 9 to 14) (size 15 to 20)
#    0.000    2.133    2.667    1.200    5.600    1.067 
#    0.000    0.000    0.000    0.000    1.733    9.333 
#    0.000    0.000    0.000    0.000    0.000    0.400 
#
# Total GULP energy -167318.835835 kJ/mol
# GULP energy per Si atom -5577.294528 kJ/mol
# Density = 0.904965 g / cm^3
# Si number density = 9.070295 Si / 1000 Ang^3
#
#
#
# Elastic Constant Matrix: (Units=GPa)
#
#
# Indices 1 2 3 4 5 6 
#
# 1 58.5495 19.6017 15.9905 0.0001 11.4248 -0.0001
# 2 19.6017 69.6430 9.1351 -0.0001 12.6719 0.0000
# 3 15.9905 9.1351 58.9591 0.0001 -14.0258 -0.0005
# 4 0.0001 -0.0001 0.0001 17.8384 -0.0003 10.1876
# 5 11.4248 12.6719 -14.0258 -0.0003 40.0785 0.0003
# 6 -0.0001 0.0000 -0.0005 10.1876 0.0003 5.5032
#
#
#
# Elastic Compliance Matrix: (Units=1/GPa)
#
#
# Indices 1 2 3 4 5 6 
#
# 1 0.021755 -0.003835 -0.007082 0.000003 -0.007467 -0.000006
# 2 -0.003835 0.016746 -0.002786 -0.000002 -0.005176 0.000003
# 3 -0.007082 -0.002786 0.021820 0.000014 0.010536 -0.000024
# 4 0.000003 -0.000002 0.000014 -0.979557 -0.000016 1.813356
# 5 -0.007467 -0.005176 0.010536 -0.000016 0.032403 0.000028
# 6 -0.000006 0.000003 -0.000024 1.813356 0.000028 -3.175174
#
#
# Mechanical properties :
#
#
# Convention : Reuss Voigt Hill
#
# Bulk Modulus (GPa) = 30.38284 30.73403 30.55843
# Shear Modulus (GPa) = -1.24266 22.17898 10.46816
#
# Velocity S-wave (km/s) = -0.82855 3.50039 2.40481
# Velocity P-wave (km/s) = 3.98366 5.77199 4.95910
#
# Compressibility (1/GPa) = 0.03291332
#
# Stress axis : x y z
#
# Youngs Moduli (GPa) = 45.96643 59.71686 45.83014
#
# Poissons Ratio (x) = 0.22904 0.32459
# Poissons Ratio (y) = 0.17630 0.12767
# Poissons Ratio (z) = 0.32555 0.16635
#
# Static dielectric constant tensor:
#      x y z
#    x 1.637930 0.000000 -0.023360 
#    y 0.000000 1.629230 0.000000 
#    z -0.023360 0.000000 1.644530 
# 
# From -- ./inp_files/169470.got.cif
#   From: 2010.05.17/outbox.ucp.g08.bks.cvg/sg15_85_cif.got.tgz:169470.got - 2010.06.11 12:40:34.
