data_PCOD9308507
_publ_section_title
;
Structure prediction by ZEFSAII (Michael W. Deem and Ramdas Pophale) SiO2 
 PCOD9308507
Probable space group: C 2/C
;
_chemical_formula_sum "Si O2"
_cell_formula_units_Z 60
_cell_length_a 11.292318
_cell_length_b 11.012082
_cell_length_c 22.499034
_cell_angle_alpha 90.000000
_cell_angle_beta 119.413413
_cell_angle_gamma 90.000000
_cell_volume 2437.158963
_symmetry_space_group_name_H-M "C 2/C"
_symmetry_group_IT_number 15
_symmetry_cell_setting 'monoclinic'
loop_
_space_group_symop_operation_xyz
x,y,z
-x,y,1/2-z
-x,-y,-z
x,-y,1/2+z
1/2+x,1/2+y,z
1/2-x,1/2+y,1/2-z
1/2-x,1/2-y,-z
1/2+x,1/2-y,1/2+z
loop_
_atom_site_type_symbol
_atom_site_label
_atom_site_fract_x
_atom_site_fract_y
_atom_site_fract_z
Si Si1 0.794490 0.129204 0.616104
Si Si2 0.992290 0.784907 0.413849
Si Si3 0.580084 0.917632 0.147115
Si Si4 0.193615 0.806907 0.814470
Si Si5 0.452731 0.363591 0.834447
Si Si6 0.500000 0.080117 0.750000
Si Si7 0.652204 0.038639 0.469442
Si Si8 0.633332 0.612498 0.060532
O O1 0.735194 0.079281 0.663582
O O2 0.731891 0.041935 0.550146
O O3 0.717002 0.261131 0.592977
O O4 0.948908 0.151770 0.632105
O O5 0.846282 0.722524 0.370329
O O6 0.095393 0.673645 0.448292
O O7 0.020851 0.859801 0.481847
O O8 0.542966 0.778824 0.148944
O O9 0.537637 0.986183 0.197666
O O10 0.478514 0.956083 0.069714
O O11 0.166901 0.868505 0.743787
O O12 0.095754 0.879778 0.835957
O O13 0.125691 0.672163 0.791718
O O14 0.422447 0.427147 0.889191
O O15 0.759322 0.020561 0.442635
#
# Coordination Sequence:
#
# PCOD9308507 Si02
#       8
#     8   8   8   8   8   4   8   8
#     4   8  15  27  45  65  93 124 146 188 237 287
#     4   9  16  27  45  72  94 115 151 201 235 284
#     4   9  15  29  46  62  86 121 157 183 229 287
#     4   8  15  29  47  63  82 123 167 187 218 290
#     4   8  16  30  47  62  86 128 162 193 229 281
#     4   8  18  32  46  60  84 118 158 196 218 266
#     4   9  16  26  44  71  96 113 145 195 247 278
#     4   8  15  28  42  67  99 117 147 197 246 265
#
# _framework density 24.618829999999999
#
# number of rings (size 3 to 8) (size 9 to 14) (size 15 to 20)
#    0.000    4.000    0.000    2.000    0.000    0.533 
#    2.400   10.000    0.000   16.000    6.933    0.000 
#    0.000    0.000    0.000    0.000    0.000    0.000 
#
# Total GULP energy -167300.364131 kJ/mol
# GULP energy per Si atom -5576.678804 kJ/mol
# Density = 2.456280 g / cm^3
# Si number density = 24.618830 Si / 1000 Ang^3
#
#
#
# Elastic Constant Matrix: (Units=GPa)
#
#
# Indices 1 2 3 4 5 6 
#
# 1 128.7958 1.8571 52.0842 0.0000 -9.7904 0.0000
# 2 1.8571 32.7539 8.5693 0.0000 1.4604 0.0000
# 3 52.0842 8.5693 73.9290 0.0000 -2.6997 0.0000
# 4 0.0000 0.0000 0.0000 24.2454 0.0000 3.7503
# 5 -9.7904 1.4604 -2.6997 0.0000 44.1689 0.0000
# 6 0.0000 0.0000 0.0000 3.7503 0.0000 31.8351
#
#
#
# Elastic Compliance Matrix: (Units=1/GPa)
#
#
# Indices 1 2 3 4 5 6 
#
# 1 0.011084 0.001351 -0.007895 0.000000 0.001930 0.000000
# 2 0.001351 0.031721 -0.004666 0.000000 -0.001035 0.000000
# 3 -0.007895 -0.004666 0.019615 0.000000 -0.000397 0.000000
# 4 0.000000 0.000000 0.000000 0.042010 0.000000 -0.004949
# 5 0.001930 -0.001035 -0.000397 0.000000 0.023078 0.000000
# 6 0.000000 0.000000 0.000000 -0.004949 0.000000 0.031995
#
#
# Mechanical properties :
#
#
# Convention : Reuss Voigt Hill
#
# Bulk Modulus (GPa) = 25.00042 40.05554 32.52798
# Shear Modulus (GPa) = 25.60715 31.58108 28.59412
#
# Velocity S-wave (km/s) = 3.22863 3.58551 3.41174
# Velocity P-wave (km/s) = 4.90670 5.78332 5.36295
#
# Compressibility (1/GPa) = 0.03999932
#
# Stress axis : x y z
#
# Youngs Moduli (GPa) = 90.21875 31.52478 50.98099
#
# Poissons Ratio (x) = -0.04259 0.40250
# Poissons Ratio (y) = -0.12189 0.23790
# Poissons Ratio (z) = 0.71229 0.14711
#
# Static dielectric constant tensor:
#      x y z
#    x 2.034540 0.000000 -0.078050 
#    y 0.000000 1.997440 0.000000 
#    z -0.078050 0.000000 2.011740 
# 
# From -- ./inp_files/289288.got.cif
#   From: 2010.05.17/outbox.cif.g08.bks.cpg/sg15_145_cif.got.tgz:289288.got - 2010.06.03 18:47:42.
