data_PCOD9308334
_publ_section_title
;
Structure prediction by ZEFSAII (Michael W. Deem and Ramdas Pophale) SiO2 
 PCOD9308334
Probable space group: C 2/C
;
_chemical_formula_sum "Si O2"
_cell_formula_units_Z 32
_cell_length_a 13.878298
_cell_length_b 5.034380
_cell_length_c 23.192964
_cell_angle_alpha 90.000000
_cell_angle_beta 132.042265
_cell_angle_gamma 90.000000
_cell_volume 1203.436678
_symmetry_space_group_name_H-M "C 2/C"
_symmetry_group_IT_number 15
_symmetry_cell_setting 'monoclinic'
loop_
_space_group_symop_operation_xyz
x,y,z
-x,y,1/2-z
-x,-y,-z
x,-y,1/2+z
1/2+x,1/2+y,z
1/2-x,1/2+y,1/2-z
1/2-x,1/2-y,-z
1/2+x,1/2-y,1/2+z
loop_
_atom_site_type_symbol
_atom_site_label
_atom_site_fract_x
_atom_site_fract_y
_atom_site_fract_z
Si Si1 0.254313 0.998734 0.544165
Si Si2 0.548239 0.064631 0.177027
Si Si3 0.900408 0.296058 0.930945
Si Si4 0.868026 0.924978 0.728881
O O1 0.250000 0.250000 0.500000
O O2 0.137456 0.045412 0.543213
O O3 0.254722 0.091149 0.361958
O O4 0.250000 0.750000 0.500000
O O5 0.553486 0.208772 0.116757
O O6 0.886557 0.775355 0.255481
O O7 0.628117 0.789733 0.216941
O O8 0.396784 0.019134 0.128896
O O9 0.000000 0.500000 0.000000
O O10 0.000000 0.853428 0.750000
#
# Coordination Sequence:
#
# PCOD9308334 Si02
#       4
#     8   8   8   8
#     4  12  27  49  78 120 164 212 274 352 430 507
#     4  12  27  51  80 114 162 218 283 343 424 515
#     4  12  28  51  83 122 166 221 282 356 430 514
#     4  12  27  52  79 115 162 219 279 350 426 509
#
# _framework density 26.590513000000001
#
# number of rings (size 3 to 8) (size 9 to 14) (size 15 to 20)
#    0.000    0.000    5.000    3.750    0.000    3.000 
#    0.000    0.000    0.000    0.000    0.000    0.000 
#    0.000    0.000    0.000    0.000    0.000    0.000 
#
# Total GULP energy -89635.232710 kJ/mol
# GULP energy per Si atom -5602.202044 kJ/mol
# Density = 2.652999 g / cm^3
# Si number density = 26.590513 Si / 1000 Ang^3
#
#
#
# Elastic Constant Matrix: (Units=GPa)
#
#
# Indices 1 2 3 4 5 6 
#
# 1 192.0587 35.6357 47.5127 -0.0002 11.0264 0.0003
# 2 35.6357 172.8217 45.8168 -0.0003 9.3079 0.0004
# 3 47.5127 45.8168 116.4199 0.0002 20.0318 0.0000
# 4 -0.0002 -0.0003 0.0002 45.3083 0.0000 -9.5974
# 5 11.0264 9.3079 20.0318 0.0000 58.9584 0.0000
# 6 0.0003 0.0004 0.0000 -9.5974 0.0000 34.5396
#
#
#
# Elastic Compliance Matrix: (Units=1/GPa)
#
#
# Indices 1 2 3 4 5 6 
#
# 1 0.005859 -0.000638 -0.002091 0.000000 -0.000285 0.000000
# 2 -0.000638 0.006531 -0.002287 0.000000 -0.000135 0.000000
# 3 -0.002091 -0.002287 0.010848 0.000000 -0.002934 0.000000
# 4 0.000000 0.000000 0.000000 0.023451 0.000000 0.006516
# 5 -0.000285 -0.000135 -0.002934 0.000000 0.018032 0.000000
# 6 0.000000 0.000000 0.000000 0.006516 0.000000 0.030763
#
#
# Mechanical properties :
#
#
# Convention : Reuss Voigt Hill
#
# Bulk Modulus (GPa) = 75.72392 82.13675 78.93033
# Shear Modulus (GPa) = 45.48834 51.25027 48.36931
#
# Velocity S-wave (km/s) = 4.14055 4.39497 4.26965
# Velocity P-wave (km/s) = 7.16927 7.53066 7.35219
#
# Compressibility (1/GPa) = 0.01320587
#
# Stress axis : x y z
#
# Youngs Moduli (GPa) = 170.68391 153.10558 92.18651
#
# Poissons Ratio (x) = 0.09775 0.19275
# Poissons Ratio (y) = 0.10897 0.21080
# Poissons Ratio (z) = 0.35687 0.35010
#
# Static dielectric constant tensor:
#      x y z
#    x 2.153580 0.000000 -0.037980 
#    y 0.000000 2.101540 0.000000 
#    z -0.037980 0.000000 2.073290 
# 
# From -- ./inp_files/266975.got.cif
#   From: 2010.05.17/outbox.cif.g08.bks.cpg/sg15_134_cif.got.tgz:266975.got - 2010.06.03 18:47:42.
