data_PCOD9308908
_publ_section_title
;
Structure prediction by ZEFSAII (Michael W. Deem and Ramdas Pophale) SiO2 
 PCOD9308908
Probable space group: C 2/C
;
_chemical_formula_sum "Si O2"
_cell_formula_units_Z 22
_cell_length_a 9.000000
_cell_length_b 18.000000
_cell_length_c 18.000000
_cell_angle_alpha 90.000000
_cell_angle_beta 50.000000
_cell_angle_gamma 90.000000
_cell_volume 2233.785596
_symmetry_space_group_name_H-M "C 2/C"
_symmetry_group_IT_number 15
_symmetry_cell_setting 'monoclinic'
loop_
_space_group_symop_operation_xyz
x,y,z
-x,y,1/2-z
-x,-y,-z
x,-y,1/2+z
1/2+x,1/2+y,z
1/2-x,1/2+y,1/2-z
1/2-x,1/2-y,-z
1/2+x,1/2-y,1/2+z
loop_
_atom_site_type_symbol
_atom_site_label
_atom_site_fract_x
_atom_site_fract_y
_atom_site_fract_z
Si Si1 0.324735 0.948327 0.583900
Si Si2 0.119503 0.923372 0.509077
Si Si3 0.557017 0.168811 0.095078
Si Si4 0.983506 0.159713 0.900013
Si Si5 0.196307 0.451586 0.648604
Si Si6 0.000000 0.059596 0.750000
O O1 0.245011 0.900098 0.539517
O O2 0.397883 0.889718 0.620410
O O3 0.500000 0.000000 0.500000
O O4 0.172167 0.005314 0.668656
O O5 0.071244 0.874289 0.450033
O O6 0.912119 0.945679 0.613159
O O7 0.240755 0.994689 0.439893
O O8 0.477048 0.252212 0.121817
O O9 0.641730 0.132307 0.142645
O O10 0.747467 0.160797 0.981201
O O11 0.044257 0.111573 0.808380
O O12 0.000000 0.481683 0.750000
#
# Coordination Sequence:
#
# PCOD9308908 Si02
#       6
#     8   8   8   8   8   4
#     4  12  23  41  65  98 128 172 218 271 322 385
#     4  10  22  39  61  93 128 164 213 261 327 373
#     4  10  22  42  64  92 130 170 211 260 337 379
#     4  10  23  43  64  96 129 169 213 272 323 389
#     4  10  20  35  63  91 119 167 211 259 307 392
#     4  12  24  40  70  94 128 164 228 266 314 388
#
# _framework density 9.8487519999999993
#
# number of rings (size 3 to 8) (size 9 to 14) (size 15 to 20)
#    0.000    1.455    3.636    2.182    6.364    0.727 
#    0.000    0.000    6.000    0.000    0.000    0.000 
#    0.000    0.000    0.000    0.000    0.000    0.000 
#
# Total GULP energy -122475.844546 kJ/mol
# GULP energy per Si atom -5567.083843 kJ/mol
# Density = 0.982634 g / cm^3
# Si number density = 9.848752 Si / 1000 Ang^3
#
#
#
# Elastic Constant Matrix: (Units=GPa)
#
#
# Indices 1 2 3 4 5 6 
#
# 1 81.8747 28.7227 33.0324 0.0000 -1.8727 0.0001
# 2 28.7227 138.7134 41.5097 0.0000 -5.3474 0.0000
# 3 33.0324 41.5097 116.8798 0.0000 -20.5698 0.0000
# 4 0.0000 0.0000 0.0000 24.4967 0.0000 1.6662
# 5 -1.8727 -5.3474 -20.5698 0.0000 26.0980 0.0000
# 6 0.0001 0.0000 0.0000 1.6662 0.0000 27.1986
#
#
#
# Elastic Compliance Matrix: (Units=1/GPa)
#
#
# Indices 1 2 3 4 5 6 
#
# 1 0.014366 -0.001932 -0.003788 0.000000 -0.002350 0.000000
# 2 -0.001932 0.008337 -0.002483 0.000000 -0.000388 0.000000
# 3 -0.003788 -0.002483 0.012041 0.000000 0.008710 0.000000
# 4 0.000000 0.000000 0.000000 0.040993 0.000000 -0.002511
# 5 -0.002350 -0.000388 0.008710 0.000000 0.044934 0.000000
# 6 0.000000 0.000000 0.000000 -0.002511 0.000000 0.036920
#
#
# Mechanical properties :
#
#
# Convention : Reuss Voigt Hill
#
# Bulk Modulus (GPa) = 54.52901 60.44415 57.48658
# Shear Modulus (GPa) = 27.76095 31.17222 29.46658
#
# Velocity S-wave (km/s) = 3.75822 3.98244 3.87195
# Velocity P-wave (km/s) = 6.82463 7.20411 7.01694
#
# Compressibility (1/GPa) = 0.01833886
#
# Stress axis : x y z
#
# Youngs Moduli (GPa) = 69.60953 119.94320 83.04966
#
# Poissons Ratio (x) = 0.23171 0.31456
# Poissons Ratio (y) = 0.13447 0.20623
# Poissons Ratio (z) = 0.26365 0.29784
#
# Static dielectric constant tensor:
#      x y z
#    x 1.734570 0.000000 0.014890 
#    y 0.000000 1.697030 0.000000 
#    z 0.014890 0.000000 1.735150 
# 
# From -- ./inp_files/190774.got.cif
#   From: 2010.05.17/outbox.ucp.g08.bks.cvg/sg15_96_cif.got.tgz:190774.got - 2010.06.11 12:40:34.
