data_PCOD9308798
_publ_section_title
;
Structure prediction by ZEFSAII (Michael W. Deem and Ramdas Pophale) SiO2 
 PCOD9308798
Probable space group: C 2/C
;
_chemical_formula_sum "Si O2"
_cell_formula_units_Z 32
_cell_length_a 21.000000
_cell_length_b 18.000000
_cell_length_c 27.000000
_cell_angle_alpha 90.000000
_cell_angle_beta 20.000000
_cell_angle_gamma 90.000000
_cell_volume 3490.657583
_symmetry_space_group_name_H-M "C 2/C"
_symmetry_group_IT_number 15
_symmetry_cell_setting 'monoclinic'
loop_
_space_group_symop_operation_xyz
x,y,z
-x,y,1/2-z
-x,-y,-z
x,-y,1/2+z
1/2+x,1/2+y,z
1/2-x,1/2+y,1/2-z
1/2-x,1/2-y,-z
1/2+x,1/2-y,1/2+z
loop_
_atom_site_type_symbol
_atom_site_label
_atom_site_fract_x
_atom_site_fract_y
_atom_site_fract_z
Si Si1 0.407623 0.350260 0.894573
Si Si2 0.402422 0.961039 0.024016
Si Si3 0.412508 0.463805 0.172526
Si Si4 0.411474 0.769388 0.177879
Si Si5 0.283118 0.036096 0.892549
Si Si6 0.274490 0.616690 0.228738
Si Si7 0.706908 0.885891 0.938877
Si Si8 0.632529 0.395498 0.403270
O O1 0.453134 0.267380 0.879896
O O2 0.285993 0.366853 0.935122
O O3 0.615541 0.377259 0.726784
O O4 0.297377 0.392303 0.018923
O O5 0.207670 0.934923 0.192500
O O6 0.363197 0.029449 0.015348
O O7 0.552190 0.902684 0.891350
O O8 0.500000 0.000000 0.000000
O O9 0.350739 0.548784 0.206567
O O10 0.363454 0.423432 0.156447
O O11 0.636574 0.470739 0.014999
O O12 0.323090 0.698256 0.214454
O O13 0.245221 0.818229 0.322227
O O14 0.540040 0.826628 0.052170
O O15 0.500000 0.025203 0.750000
O O16 0.240873 0.053088 0.864941
O O17 0.415809 0.609705 0.078489
#
# Coordination Sequence:
#
# PCOD9308798 Si02
#       8
#     8   8   8   8   8   8   8   8
#     4  11  22  37  52  79 116 160 197 235 279 359
#     4  10  19  37  58  77 105 153 202 255 290 337
#     4  10  20  39  58  80 109 154 201 254 295 348
#     4  12  21  37  53  82 119 159 195 240 286 352
#     4  11  21  37  56  81 117 151 196 248 297 347
#     4  10  20  34  57  76 112 147 193 245 294 332
#     4  11  23  36  55  77 115 162 203 232 290 355
#     4  11  23  37  57  82 118 157 204 242 300 351
#
# _framework density 9.1673270000000002
#
# number of rings (size 3 to 8) (size 9 to 14) (size 15 to 20)
#    0.000    1.250    3.750    5.625    0.000    2.000 
#    0.000    0.000    0.000    0.000    0.000    0.000 
#    3.750    6.250    0.000    0.250    0.000    0.000 
#
# Total GULP energy -178299.116640 kJ/mol
# GULP energy per Si atom -5571.847395 kJ/mol
# Density = 0.914646 g / cm^3
# Si number density = 9.167327 Si / 1000 Ang^3
#
#
#
# Elastic Constant Matrix: (Units=GPa)
#
#
# Indices 1 2 3 4 5 6 
#
# 1 69.5282 45.2186 42.2297 -0.0068 4.2218 0.0041
# 2 45.2186 71.8654 49.3000 0.0214 -3.1990 0.0060
# 3 42.2297 49.3000 159.8558 -0.0587 -12.8106 0.0307
# 4 -0.0068 0.0214 -0.0587 40.6189 0.0108 -0.0264
# 5 4.2218 -3.1990 -12.8106 0.0108 22.5649 -0.0110
# 6 0.0041 0.0060 0.0307 -0.0264 -0.0110 26.2888
#
#
#
# Elastic Compliance Matrix: (Units=1/GPa)
#
#
# Indices 1 2 3 4 5 6 
#
# 1 0.026536 -0.014960 -0.003105 0.000010 -0.008849 -0.000001
# 2 -0.014960 0.026091 -0.003744 -0.000023 0.004372 0.000003
# 3 -0.003105 -0.003744 0.008627 0.000013 0.004948 -0.000007
# 4 0.000010 -0.000023 0.000013 0.024619 -0.000010 0.000025
# 5 -0.008849 0.004372 0.004948 -0.000010 0.049401 0.000015
# 6 -0.000001 0.000003 -0.000007 0.000025 0.000015 0.038039
#
#
# Mechanical properties :
#
#
# Convention : Reuss Voigt Hill
#
# Bulk Modulus (GPa) = 56.70633 63.86066 60.28349
# Shear Modulus (GPa) = 22.44057 28.86126 25.65092
#
# Velocity S-wave (km/s) = 3.50229 3.97184 3.74443
# Velocity P-wave (km/s) = 6.88116 7.47932 7.18646
#
# Compressibility (1/GPa) = 0.01763472
#
# Stress axis : x y z
#
# Youngs Moduli (GPa) = 37.68528 38.32722 115.91195
#
# Poissons Ratio (x) = 0.57338 0.35995
# Poissons Ratio (y) = 0.56378 0.43399
# Poissons Ratio (z) = 0.11703 0.14350
#
# Static dielectric constant tensor:
#      x y z
#    x 1.677250 0.000010 0.004650 
#    y 0.000010 1.647970 0.000080 
#    z 0.004650 0.000080 1.731130 
# 
# From -- ./inp_files/301341.got.cif
#   From: 2010.05.17/outbox.ucp.g08.bks.cvg/sg15_151_cif.got.tgz:301341.got - 2010.06.11 12:40:34.
