data_PCOD9308298
_publ_section_title
;
Structure prediction by ZEFSAII (Michael W. Deem and Ramdas Pophale) SiO2 
 PCOD9308298
Probable space group: C 2/C
;
_chemical_formula_sum "Si O2"
_cell_formula_units_Z 36
_cell_length_a 5.002553
_cell_length_b 25.846918
_cell_length_c 12.128555
_cell_angle_alpha 90.000000
_cell_angle_beta 78.667367
_cell_angle_gamma 90.000000
_cell_volume 1537.653238
_symmetry_space_group_name_H-M "C 2/C"
_symmetry_group_IT_number 15
_symmetry_cell_setting 'monoclinic'
loop_
_space_group_symop_operation_xyz
x,y,z
-x,y,1/2-z
-x,-y,-z
x,-y,1/2+z
1/2+x,1/2+y,z
1/2-x,1/2+y,1/2-z
1/2-x,1/2-y,-z
1/2+x,1/2-y,1/2+z
loop_
_atom_site_type_symbol
_atom_site_label
_atom_site_fract_x
_atom_site_fract_y
_atom_site_fract_z
Si Si1 0.500000 0.793896 0.750000
Si Si2 0.500000 0.037504 0.750000
Si Si3 0.851059 0.379848 0.443037
Si Si4 0.000000 0.967720 0.750000
Si Si5 0.816896 0.268673 0.370880
Si Si6 0.713188 0.382523 0.902032
O O1 0.465465 0.753046 0.654999
O O2 0.282583 0.836033 0.813864
O O3 0.626262 0.073686 0.645003
O O4 0.263330 0.003878 0.710986
O O5 0.931554 0.326170 0.379463
O O6 0.540068 0.369590 0.500649
O O7 0.027491 0.390676 0.538954
O O8 0.108201 0.931305 0.839884
O O9 0.750000 0.250000 0.500000
O O10 0.000000 0.249104 0.250000
#
# Coordination Sequence:
#
# PCOD9308298 Si02
#       6
#     4   4   8   4   8   8
#     4  12  27  45  82 110 170 205 273 318 408 476
#     4  12  27  50  77 114 153 206 259 346 396 474
#     4  12  27  48  78 112 160 202 262 328 404 469
#     4  12  28  49  79 110 151 203 276 326 412 470
#     4  12  27  48  77 120 160 218 261 323 398 487
#     4  12  27  49  76 113 151 211 262 334 389 486
#
# _framework density 23.412299999999998
#
# number of rings (size 3 to 8) (size 9 to 14) (size 15 to 20)
#    0.000    0.000    3.333    6.000    4.667    8.000 
#    0.000    0.000    0.000    0.000    0.000    0.000 
#    0.000    0.000    0.000    0.000    0.000    0.000 
#
# Total GULP energy -100287.041580 kJ/mol
# GULP energy per Si atom -5571.502310 kJ/mol
# Density = 2.335901 g / cm^3
# Si number density = 23.412300 Si / 1000 Ang^3
#
#
#
# Elastic Constant Matrix: (Units=GPa)
#
#
# Indices 1 2 3 4 5 6 
#
# 1 69.4109 30.3180 4.2784 0.0000 13.3568 0.0000
# 2 30.3180 124.5623 40.8308 0.0000 29.3369 0.0000
# 3 4.2784 40.8308 120.4143 0.0000 18.4814 0.0000
# 4 0.0000 0.0000 0.0000 22.0635 0.0000 -0.2845
# 5 13.3568 29.3369 18.4814 0.0000 41.1254 0.0000
# 6 0.0000 0.0000 0.0000 -0.2845 0.0000 48.3733
#
#
#
# Elastic Compliance Matrix: (Units=1/GPa)
#
#
# Indices 1 2 3 4 5 6 
#
# 1 0.016557 -0.003628 0.001149 0.000000 -0.003306 0.000000
# 2 -0.003628 0.011124 -0.002799 0.000000 -0.005499 0.000000
# 3 0.001149 -0.002799 0.009628 0.000000 -0.002703 0.000000
# 4 0.000000 0.000000 0.000000 0.045327 0.000000 0.000267
# 5 -0.003306 -0.005499 -0.002703 0.000000 0.030527 0.000000
# 6 0.000000 0.000000 0.000000 0.000267 0.000000 0.020674
#
#
# Mechanical properties :
#
#
# Convention : Reuss Voigt Hill
#
# Bulk Modulus (GPa) = 37.37884 51.69353 44.53619
# Shear Modulus (GPa) = 32.61360 38.24312 35.42836
#
# Velocity S-wave (km/s) = 3.73636 4.04600 3.89426
# Velocity P-wave (km/s) = 5.88336 6.62981 6.26771
#
# Compressibility (1/GPa) = 0.02675310
#
# Stress axis : x y z
#
# Youngs Moduli (GPa) = 60.39754 89.89740 103.86550
#
# Poissons Ratio (x) = 0.32615 -0.11938
# Poissons Ratio (y) = 0.21913 0.29072
# Poissons Ratio (z) = -0.06942 0.25162
#
# Static dielectric constant tensor:
#      x y z
#    x 4.387820 0.000000 1.534320 
#    y 0.000000 1.965960 0.000000 
#    z 1.534320 0.000000 2.964200 
# 
# From -- ./inp_files/72552.got.cif
#   From: 2010.05.17/outbox.cif.g08.bks.cpg/sg15_37_cif.got.tgz:72552.got - 2010.06.03 18:47:42.
