data_PCOD9308161
_publ_section_title
;
Structure prediction by ZEFSAII (Michael W. Deem and Ramdas Pophale) SiO2 
 PCOD9308161
Probable space group: C 2/C
;
_chemical_formula_sum "Si O2"
_cell_formula_units_Z 52
_cell_length_a 25.689748
_cell_length_b 10.822816
_cell_length_c 9.074877
_cell_angle_alpha 90.000000
_cell_angle_beta 54.737637
_cell_angle_gamma 90.000000
_cell_volume 2060.184423
_symmetry_space_group_name_H-M "C 2/C"
_symmetry_group_IT_number 15
_symmetry_cell_setting 'monoclinic'
loop_
_space_group_symop_operation_xyz
x,y,z
-x,y,1/2-z
-x,-y,-z
x,-y,1/2+z
1/2+x,1/2+y,z
1/2-x,1/2+y,1/2-z
1/2-x,1/2-y,-z
1/2+x,1/2-y,1/2+z
loop_
_atom_site_type_symbol
_atom_site_label
_atom_site_fract_x
_atom_site_fract_y
_atom_site_fract_z
Si Si1 0.421428 0.229145 0.125519
Si Si2 0.500000 0.661892 0.750000
Si Si3 0.000000 0.413046 0.250000
Si Si4 0.368876 0.002959 0.827014
Si Si5 0.905966 0.011911 0.094634
Si Si6 0.178964 0.014322 0.520307
Si Si7 0.250000 0.750000 0.000000
Si Si8 0.203163 0.614555 0.800180
O O1 0.450250 0.256727 0.240003
O O2 0.363890 0.131909 0.251243
O O3 0.408479 0.363509 0.080691
O O4 0.468810 0.163485 0.934603
O O5 0.532538 0.578190 0.571385
O O6 0.059560 0.483558 0.227980
O O7 0.351628 0.109003 0.737553
O O8 0.322370 0.989892 0.041939
O O9 0.883791 0.039263 0.296120
O O10 0.848726 0.059580 0.088200
O O11 0.209438 0.120223 0.570237
O O12 0.234814 0.921051 0.393279
O O13 0.222428 0.724704 0.875434
#
# Coordination Sequence:
#
# PCOD9308161 Si02
#       8
#     8   4   4   8   8   8   4   8
#     4  12  27  47  77 107 153 201 250 314 394 448
#     4  12  28  46  76 112 150 204 252 318 388 448
#     4  12  28  48  78 118 154 200 262 312 384 468
#     4  12  26  50  77 113 160 198 256 321 381 464
#     4  12  26  49  73 109 152 194 253 314 378 461
#     4  12  26  48  76 106 147 196 253 311 374 459
#     4  12  26  50  78 106 150 204 254 314 390 442
#     4  12  26  48  79 111 153 202 258 316 381 461
#
# _framework density 25.240456999999999
#
# number of rings (size 3 to 8) (size 9 to 14) (size 15 to 20)
#    0.000    0.000    6.154    2.769    4.308    0.000 
#    0.000    1.538    0.000    0.000    0.000    0.000 
#    0.000    0.000    0.000    0.000    0.000    0.000 
#
# Total GULP energy -144949.603985 kJ/mol
# GULP energy per Si atom -5574.984769 kJ/mol
# Density = 2.518301 g / cm^3
# Si number density = 25.240457 Si / 1000 Ang^3
#
#
#
# Elastic Constant Matrix: (Units=GPa)
#
#
# Indices 1 2 3 4 5 6 
#
# 1 101.7133 37.4118 -4.6813 0.0000 21.0576 0.0000
# 2 37.4118 90.1399 47.2715 0.0000 2.1097 0.0000
# 3 -4.6813 47.2715 148.2497 0.0000 -8.6692 0.0000
# 4 0.0000 0.0000 0.0000 3.2059 0.0000 18.8236
# 5 21.0576 2.1097 -8.6692 0.0000 45.8543 0.0000
# 6 0.0000 0.0000 0.0000 18.8236 0.0000 44.4041
#
#
#
# Elastic Compliance Matrix: (Units=1/GPa)
#
#
# Indices 1 2 3 4 5 6 
#
# 1 0.013514 -0.006648 0.002226 0.000000 -0.005479 0.000000
# 2 -0.006648 0.016685 -0.005457 0.000000 0.001253 0.000000
# 3 0.002226 -0.005457 0.008606 0.000000 0.000856 0.000000
# 4 0.000000 0.000000 0.000000 -0.209482 0.000000 0.088802
# 5 -0.005479 0.001253 0.000856 0.000000 0.024428 0.000000
# 6 0.000000 0.000000 0.000000 0.088802 0.000000 -0.015124
#
#
# Mechanical properties :
#
#
# Convention : Reuss Voigt Hill
#
# Bulk Modulus (GPa) = 52.50122 55.56743 54.03433
# Shear Modulus (GPa) = -36.96416 36.03293 -0.46562
#
# Velocity S-wave (km/s) = -3.83100 3.78244 -0.42997
# Velocity P-wave (km/s) = 1.12995 6.41396 4.60519
#
# Compressibility (1/GPa) = 0.01904718
#
# Stress axis : x y z
#
# Youngs Moduli (GPa) = 73.99997 59.93250 116.20133
#
# Poissons Ratio (x) = 0.39842 -0.25867
# Poissons Ratio (y) = 0.49194 0.63411
# Poissons Ratio (z) = -0.16473 0.32705
#
# Static dielectric constant tensor:
#      x y z
#    x 2.004030 0.000000 -0.020200 
#    y 0.000000 2.069490 0.000000 
#    z -0.020200 0.000000 1.925660 
# 
# From -- ./inp_files/65398.got.cif
#   From: 2010.05.17/outbox.cif.g08.bks.cpg/sg15_33_cif.got.tgz:65398.got - 2010.06.03 18:47:42.
