data_PCOD9308412
_publ_section_title
;
Structure prediction by ZEFSAII (Michael W. Deem and Ramdas Pophale) SiO2 
 PCOD9308412
Probable space group: C 2/C
;
_chemical_formula_sum "Si O2"
_cell_formula_units_Z 32
_cell_length_a 20.140925
_cell_length_b 9.628194
_cell_length_c 13.394020
_cell_angle_alpha 90.000000
_cell_angle_beta 21.527918
_cell_angle_gamma 90.000000
_cell_volume 953.119714
_symmetry_space_group_name_H-M "C 2/C"
_symmetry_group_IT_number 15
_symmetry_cell_setting 'monoclinic'
loop_
_space_group_symop_operation_xyz
x,y,z
-x,y,1/2-z
-x,-y,-z
x,-y,1/2+z
1/2+x,1/2+y,z
1/2-x,1/2+y,1/2-z
1/2-x,1/2-y,-z
1/2+x,1/2-y,1/2+z
loop_
_atom_site_type_symbol
_atom_site_label
_atom_site_fract_x
_atom_site_fract_y
_atom_site_fract_z
Si Si1 0.750000 0.250000 0.500000
Si Si2 0.250000 0.250000 0.500000
Si Si3 0.500000 0.481501 0.250000
Si Si4 0.954996 0.358607 0.007197
Si Si5 0.045004 0.858607 0.492803
Si Si6 0.000000 0.518499 0.750000
O O1 0.557415 0.400104 0.751830
O O2 0.842800 0.368476 0.452935
O O3 0.091114 0.282409 0.311591
O O4 0.091114 0.217591 0.811591
O O5 0.657200 0.368476 0.047065
O O6 0.057415 0.400104 0.751829
O O7 0.750000 0.359222 0.250000
O O8 0.000000 0.500000 0.000000
O O9 0.000000 0.000000 0.500000
#
# Coordination Sequence:
#
# PCOD9308412 Si02
#       6
#     4   4   4   8   8   4
#     4  12  28  58  86 132 180 234 302 376 438 562
#     4  12  28  58  86 132 180 234 302 376 438 562
#     4  12  28  56  90 132 184 226 308 372 450 556
#     4  12  28  54  85 127 176 241 288 370 452 530
#     4  12  28  54  85 127 176 241 288 370 452 530
#     4  12  28  56  90 132 184 226 308 372 450 556
#
# _framework density 33.573957999999998
#
# number of rings (size 3 to 8) (size 9 to 14) (size 15 to 20)
#    0.000    0.000    5.000    3.000    0.000    2.000 
#    9.000    0.000    0.000    0.000    0.000    0.000 
#    0.000    0.000    0.000    0.000    0.000    0.000 
#
# Total GULP energy -89189.454900 kJ/mol
# GULP energy per Si atom -5574.340931 kJ/mol
# Density = 3.349754 g / cm^3
# Si number density = 33.573958 Si / 1000 Ang^3
#
#
#
# Elastic Constant Matrix: (Units=GPa)
#
#
# Indices 1 2 3 4 5 6 
#
# 1 250.0591 152.2271 44.0261 0.0000 -36.8075 0.0000
# 2 152.2271 443.4219 102.1819 -0.0002 -32.8089 0.0000
# 3 44.0261 102.1819 258.9328 -0.0003 -6.1456 0.0000
# 4 0.0000 -0.0002 -0.0003 79.5435 0.0000 17.7873
# 5 -36.8075 -32.8089 -6.1456 0.0000 143.5320 0.0000
# 6 0.0000 0.0000 0.0000 17.7873 0.0000 142.0676
#
#
#
# Elastic Compliance Matrix: (Units=1/GPa)
#
#
# Indices 1 2 3 4 5 6 
#
# 1 0.005186 -0.001664 -0.000203 0.000000 0.000941 0.000000
# 2 -0.001664 0.003055 -0.000917 0.000000 0.000232 0.000000
# 3 -0.000203 -0.000917 0.004257 0.000000 -0.000079 0.000000
# 4 0.000000 0.000000 0.000000 0.012934 0.000000 -0.001619
# 5 0.000941 0.000232 -0.000079 0.000000 0.007258 0.000000
# 6 0.000000 0.000000 0.000000 -0.001619 0.000000 0.007242
#
#
# Mechanical properties :
#
#
# Convention : Reuss Voigt Hill
#
# Bulk Modulus (GPa) = 144.30466 172.14268 158.22367
# Shear Modulus (GPa) = 104.58189 116.62720 110.60455
#
# Velocity S-wave (km/s) = 5.58725 5.90024 5.74587
# Velocity P-wave (km/s) = 9.20313 9.88944 9.55245
#
# Compressibility (1/GPa) = 0.00692978
#
# Stress axis : x y z
#
# Youngs Moduli (GPa) = 192.81535 327.33098 234.93342
#
# Poissons Ratio (x) = 0.54472 0.04764
# Poissons Ratio (y) = 0.32087 0.21546
# Poissons Ratio (z) = 0.03910 0.30020
#
# Static dielectric constant tensor:
#      x y z
#    x 2.623330 0.000000 0.464110 
#    y 0.000000 -1.446820 0.000000 
#    z 0.464110 0.000000 1.815140 
# 
# From -- ./inp_files/160659.got.cif
#   From: 2010.05.17/outbox.cif.g08.bks.cpg/sg15_81_cif.got.tgz:160659.got - 2010.06.03 18:47:42.
