data_PCOD9308344
_publ_section_title
;
Structure prediction by ZEFSAII (Michael W. Deem and Ramdas Pophale) SiO2 
 PCOD9308344
Probable space group: C 2/C
;
_chemical_formula_sum "Si O2"
_cell_formula_units_Z 28
_cell_length_a 13.629645
_cell_length_b 4.793975
_cell_length_c 19.097531
_cell_angle_alpha 90.000000
_cell_angle_beta 126.640703
_cell_angle_gamma 90.000000
_cell_volume 1001.255813
_symmetry_space_group_name_H-M "C 2/C"
_symmetry_group_IT_number 15
_symmetry_cell_setting 'monoclinic'
loop_
_space_group_symop_operation_xyz
x,y,z
-x,y,1/2-z
-x,-y,-z
x,-y,1/2+z
1/2+x,1/2+y,z
1/2-x,1/2+y,1/2-z
1/2-x,1/2-y,-z
1/2+x,1/2-y,1/2+z
loop_
_atom_site_type_symbol
_atom_site_label
_atom_site_fract_x
_atom_site_fract_y
_atom_site_fract_z
Si Si1 0.371044 0.069143 0.906441
Si Si2 0.000000 0.514820 0.250000
Si Si3 0.165928 0.917467 0.912056
Si Si4 0.418157 0.594969 0.836889
O O1 0.258852 0.115549 0.910080
O O2 0.340164 0.779345 0.855933
O O3 0.383606 0.286085 0.847997
O O4 0.500000 0.000000 0.000000
O O5 0.086566 0.300949 0.330724
O O6 0.076306 0.730790 0.233188
O O7 0.064476 0.087059 0.911884
O O8 0.250000 0.750000 0.000000
#
# Coordination Sequence:
#
# PCOD9308344 Si02
#       4
#     8   4   8   8
#     4  12  27  49  87 122 159 220 283 346 436 510
#     4  12  28  56  80 128 178 228 288 362 434 506
#     4  12  28  55  89 121 174 224 285 361 422 511
#     4  12  27  53  78 124 167 216 284 348 427 510
#
# _framework density 27.964877999999999
#
# number of rings (size 3 to 8) (size 9 to 14) (size 15 to 20)
#    0.000    0.000    5.714    1.714    4.000    2.286 
#   10.286    0.000    0.000    0.000    0.000    0.000 
#    0.000    0.000    0.000    0.000    0.000    0.000 
#
# Total GULP energy -78308.051207 kJ/mol
# GULP energy per Si atom -5593.432229 kJ/mol
# Density = 2.790123 g / cm^3
# Si number density = 27.964878 Si / 1000 Ang^3
#
#
#
# Elastic Constant Matrix: (Units=GPa)
#
#
# Indices 1 2 3 4 5 6 
#
# 1 142.5549 23.8806 -0.2009 0.0000 10.7773 0.0000
# 2 23.8806 146.0146 58.1820 0.0000 -5.2659 0.0002
# 3 -0.2009 58.1820 195.1195 0.0000 18.1736 0.0000
# 4 0.0000 0.0000 0.0000 60.5646 0.0000 -9.0735
# 5 10.7773 -5.2659 18.1736 0.0000 27.5630 0.0000
# 6 0.0000 0.0002 0.0000 -9.0735 0.0000 42.7321
#
#
#
# Elastic Compliance Matrix: (Units=1/GPa)
#
#
# Indices 1 2 3 4 5 6 
#
# 1 0.007601 -0.001737 0.000888 0.000000 -0.003890 0.000000
# 2 -0.001737 0.008445 -0.002912 0.000000 0.004213 0.000000
# 3 0.000888 -0.002912 0.006476 0.000000 -0.005174 0.000000
# 4 0.000000 0.000000 0.000000 0.017054 0.000000 0.003621
# 5 -0.003890 0.004213 -0.005174 0.000000 0.042018 0.000000
# 6 0.000000 0.000000 0.000000 0.003621 0.000000 0.024171
#
#
# Mechanical properties :
#
#
# Convention : Reuss Voigt Hill
#
# Bulk Modulus (GPa) = 66.66899 71.93470 69.30184
# Shear Modulus (GPa) = 42.26978 52.96042 47.61510
#
# Velocity S-wave (km/s) = 3.89206 4.35652 4.13082
# Velocity P-wave (km/s) = 6.63999 7.14736 6.89834
#
# Compressibility (1/GPa) = 0.01499948
#
# Stress axis : x y z
#
# Youngs Moduli (GPa) = 131.55829 118.41004 154.40853
#
# Poissons Ratio (x) = 0.20572 -0.13714
# Poissons Ratio (y) = 0.22856 0.44971
# Poissons Ratio (z) = -0.11685 0.34486
#
# Static dielectric constant tensor:
#      x y z
#    x 2.076830 0.000000 -0.045140 
#    y 0.000000 2.480720 0.000000 
#    z -0.045140 0.000000 2.280330 
# 
# From -- ./inp_files/241595.got.cif
#   From: 2010.05.17/outbox.cif.g08.bks.cpg/sg15_121_cif.got.tgz:241595.got - 2010.06.03 18:47:42.
