data_PCOD9308669
_publ_section_title
;
Structure prediction by ZEFSAII (Michael W. Deem and Ramdas Pophale) SiO2 
 PCOD9308669
Probable space group: C 2/C
;
_chemical_formula_sum "Si O2"
_cell_formula_units_Z 18
_cell_length_a 18.000000
_cell_length_b 9.000000
_cell_length_c 21.000000
_cell_angle_alpha 90.000000
_cell_angle_beta 150.000000
_cell_angle_gamma 90.000000
_cell_volume 1701.000000
_symmetry_space_group_name_H-M "C 2/C"
_symmetry_group_IT_number 15
_symmetry_cell_setting 'monoclinic'
loop_
_space_group_symop_operation_xyz
x,y,z
-x,y,1/2-z
-x,-y,-z
x,-y,1/2+z
1/2+x,1/2+y,z
1/2-x,1/2+y,1/2-z
1/2-x,1/2-y,-z
1/2+x,1/2-y,1/2+z
loop_
_atom_site_type_symbol
_atom_site_label
_atom_site_fract_x
_atom_site_fract_y
_atom_site_fract_z
Si Si1 0.000000 0.789880 0.750000
Si Si2 0.907298 0.365427 0.311185
Si Si3 0.150051 0.967675 0.439609
Si Si4 0.590758 0.625643 0.528607
Si Si5 0.968294 0.346002 0.651529
O O1 0.959837 0.694967 0.781326
O O2 0.879622 0.903438 0.633319
O O3 0.730735 0.334176 0.177561
O O4 0.993725 0.266575 0.429167
O O5 0.942235 0.543120 0.329508
O O6 0.030035 0.832863 0.357222
O O7 0.297914 0.895423 0.521728
O O8 0.155821 0.045718 0.512917
O O9 0.500000 0.500000 0.500000
O O10 0.000000 0.369710 0.750000
#
# Coordination Sequence:
#
# PCOD9308669 Si02
#       5
#     4   8   8   8   8
#     4  10  18  34  62  94 122 152 194 260 310 360
#     4  11  22  41  66  92 122 161 208 254 309 364
#     4  10  21  35  59  93 127 157 199 250 311 359
#     4  11  25  44  61  88 125 168 208 248 300 371
#     4  11  19  35  61  93 123 153 200 255 310 355
#
# _framework density 10.582011
#
# number of rings (size 3 to 8) (size 9 to 14) (size 15 to 20)
#    0.000    1.333    4.444    1.333    0.000    5.333 
#    0.000    2.222    0.000    0.000    0.000    0.000 
#    0.000    0.000    0.000    0.000    0.000    0.000 
#
# Total GULP energy -100347.671748 kJ/mol
# GULP energy per Si atom -5574.870653 kJ/mol
# Density = 1.055793 g / cm^3
# Si number density = 10.582011 Si / 1000 Ang^3
#
#
#
# Elastic Constant Matrix: (Units=GPa)
#
#
# Indices 1 2 3 4 5 6 
#
# 1 9.7690 -22.3409 -0.0259 -0.0001 -2.9734 0.0000
# 2 -22.3409 90.5690 28.5394 -0.0002 -2.7131 -0.0001
# 3 -0.0259 28.5394 86.3340 -0.0008 11.1220 -0.0002
# 4 -0.0001 -0.0002 -0.0008 39.6628 -0.0001 0.6665
# 5 -2.9734 -2.7131 11.1220 -0.0001 17.5573 0.0000
# 6 0.0000 -0.0001 -0.0002 0.6665 0.0000 23.5082
#
#
#
# Elastic Compliance Matrix: (Units=1/GPa)
#
#
# Indices 1 2 3 4 5 6 
#
# 1 0.456517 0.136540 -0.062802 0.000001 0.138196 0.000001
# 2 0.136540 0.053560 -0.023639 0.000000 0.046375 0.000000
# 3 -0.062802 -0.023639 0.023105 0.000000 -0.028925 0.000000
# 4 0.000001 0.000000 0.000000 0.025225 0.000000 -0.000715
# 5 0.138196 0.046375 -0.028925 0.000000 0.105850 0.000000
# 6 0.000001 0.000000 0.000000 -0.000715 0.000000 0.042559
#
#
# Mechanical properties :
#
#
# Convention : Reuss Voigt Hill
#
# Bulk Modulus (GPa) = 1.57883 22.11303 11.84593
# Shear Modulus (GPa) = 6.11439 28.17894 17.14667
#
# Velocity S-wave (km/s) = 1.70156 3.65287 2.84945
# Velocity P-wave (km/s) = 2.14664 5.31624 4.05404
#
# Compressibility (1/GPa) = 0.63337988
#
# Stress axis : x y z
#
# Youngs Moduli (GPa) = 2.19050 18.67065 43.28155
#
# Poissons Ratio (x) = -2.54929 2.71818
# Poissons Ratio (y) = -0.29909 1.02312
# Poissons Ratio (z) = 0.13757 0.44135
#
# Static dielectric constant tensor:
#      x y z
#    x 1.727510 0.000000 0.045940 
#    y 0.000000 1.837940 0.000000 
#    z 0.045940 0.000000 1.926120 
# 
# From -- ./inp_files/53597.got.cif
#   From: 2010.05.17/outbox.ucp.g08.bks.cvg/sg15_27_cif.got.tgz:53597.got - 2010.06.11 12:40:34.
