data_PCOD9308645
_publ_section_title
;
Structure prediction by ZEFSAII (Michael W. Deem and Ramdas Pophale) SiO2 
 PCOD9308645
Probable space group: C 2/C
;
_chemical_formula_sum "Si O2"
_cell_formula_units_Z 28
_cell_length_a 9.000000
_cell_length_b 30.000000
_cell_length_c 21.000000
_cell_angle_alpha 90.000000
_cell_angle_beta 30.000000
_cell_angle_gamma 90.000000
_cell_volume 2835.000000
_symmetry_space_group_name_H-M "C 2/C"
_symmetry_group_IT_number 15
_symmetry_cell_setting 'monoclinic'
loop_
_space_group_symop_operation_xyz
x,y,z
-x,y,1/2-z
-x,-y,-z
x,-y,1/2+z
1/2+x,1/2+y,z
1/2-x,1/2+y,1/2-z
1/2-x,1/2-y,-z
1/2+x,1/2-y,1/2+z
loop_
_atom_site_type_symbol
_atom_site_label
_atom_site_fract_x
_atom_site_fract_y
_atom_site_fract_z
Si Si1 0.703366 0.966023 0.738288
Si Si2 0.767714 0.393866 0.954100
Si Si3 0.835435 0.809071 0.959905
Si Si4 0.717565 0.067954 0.731317
Si Si5 0.520502 0.251323 0.487119
Si Si6 0.662711 0.404304 0.509862
Si Si7 0.929099 0.704410 0.161981
O O1 0.500000 0.968044 0.750000
O O2 0.517766 0.932554 0.852603
O O3 0.016031 0.945081 0.601205
O O4 0.757449 0.016768 0.737934
O O5 0.565449 0.394843 0.964504
O O6 0.931379 0.345691 0.898994
O O7 0.524510 0.407659 0.098130
O O8 0.567765 0.784903 0.024289
O O9 0.838174 0.860919 0.947408
O O10 0.145832 0.794548 0.812790
O O11 0.827232 0.794772 0.037163
O O12 0.500000 0.067053 0.750000
O O13 0.499375 0.090073 0.862877
O O14 0.188698 0.266165 0.596296
O O15 0.643386 0.228479 0.377872
#
# Coordination Sequence:
#
# PCOD9308645 Si02
#       7
#     8   8   8   8   8   8   8
#     4   9  16  28  52  76 110 153 190 229 289 345
#     4  10  18  31  53  80 113 153 187 236 289 346
#     4  11  21  41  59  85 115 154 197 241 293 355
#     4   9  18  30  44  82 120 145 186 237 287 343
#     4  10  24  38  58  86 110 148 200 246 290 340
#     4  10  18  31  53  80 113 153 187 236 289 346
#     4  11  21  41  59  85 115 154 197 241 293 355
#
# _framework density 9.8765429999999999
#
# number of rings (size 3 to 8) (size 9 to 14) (size 15 to 20)
#    0.000    2.000    2.857    1.714    0.000    3.429 
#   15.429    0.000    0.000    0.000    0.000    6.000 
#    0.000    0.000    0.000    0.000    0.000    0.000 
#
# Total GULP energy -155987.460348 kJ/mol
# GULP energy per Si atom -5570.980727 kJ/mol
# Density = 0.985406 g / cm^3
# Si number density = 9.876543 Si / 1000 Ang^3
#
#
#
# Elastic Constant Matrix: (Units=GPa)
#
#
# Indices 1 2 3 4 5 6 
#
# 1 37.6130 20.5914 15.5813 0.0000 -6.0700 0.0000
# 2 20.5914 72.8953 41.1350 0.0002 -3.4447 0.0002
# 3 15.5813 41.1350 127.2810 0.0002 2.6828 0.0009
# 4 0.0000 0.0002 0.0002 34.0412 0.0000 0.1903
# 5 -6.0700 -3.4447 2.6828 0.0000 6.4384 0.0001
# 6 0.0000 0.0002 0.0009 0.1903 0.0001 7.9565
#
#
#
# Elastic Compliance Matrix: (Units=1/GPa)
#
#
# Indices 1 2 3 4 5 6 
#
# 1 0.036948 -0.007321 -0.002833 0.000000 0.032098 0.000000
# 2 -0.007321 0.019091 -0.005391 0.000000 0.005558 0.000000
# 3 -0.002833 -0.005391 0.010152 0.000000 -0.009786 -0.000001
# 4 0.000000 0.000000 0.000000 0.029380 0.000000 -0.000703
# 5 0.032098 0.005558 -0.009786 0.000000 0.192630 0.000000
# 6 0.000000 0.000000 -0.000001 -0.000703 0.000000 0.125700
#
#
# Mechanical properties :
#
#
# Convention : Reuss Voigt Hill
#
# Bulk Modulus (GPa) = 28.48995 43.60054 36.04525
# Shear Modulus (GPa) = 10.94828 20.38601 15.66714
#
# Velocity S-wave (km/s) = 2.35682 3.21603 2.81935
# Velocity P-wave (km/s) = 4.67552 5.99259 5.37455
#
# Compressibility (1/GPa) = 0.03510009
#
# Stress axis : x y z
#
# Youngs Moduli (GPa) = 27.06472 52.38034 98.50310
#
# Poissons Ratio (x) = 0.38350 0.27911
# Poissons Ratio (y) = 0.19815 0.53101
# Poissons Ratio (z) = 0.07669 0.28237
#
# Static dielectric constant tensor:
#      x y z
#    x 1.719600 0.000000 0.025120 
#    y 0.000000 1.708490 0.000000 
#    z 0.025120 0.000000 1.691720 
# 
# From -- ./inp_files/234931.got.cif
#   From: 2010.05.17/outbox.ucp.g08.bks.cvg/sg15_118_cif.got.tgz:234931.got - 2010.06.11 12:40:34.
