data_PCOD9308906
_publ_section_title
;
Structure prediction by ZEFSAII (Michael W. Deem and Ramdas Pophale) SiO2 
 PCOD9308906
Probable space group: C 2/C
;
_chemical_formula_sum "Si O2"
_cell_formula_units_Z 30
_cell_length_a 12.000000
_cell_length_b 18.000000
_cell_length_c 27.000000
_cell_angle_alpha 90.000000
_cell_angle_beta 150.000000
_cell_angle_gamma 90.000000
_cell_volume 2916.000000
_symmetry_space_group_name_H-M "C 2/C"
_symmetry_group_IT_number 15
_symmetry_cell_setting 'monoclinic'
loop_
_space_group_symop_operation_xyz
x,y,z
-x,y,1/2-z
-x,-y,-z
x,-y,1/2+z
1/2+x,1/2+y,z
1/2-x,1/2+y,1/2-z
1/2-x,1/2-y,-z
1/2+x,1/2-y,1/2+z
loop_
_atom_site_type_symbol
_atom_site_label
_atom_site_fract_x
_atom_site_fract_y
_atom_site_fract_z
Si Si1 0.000000 0.319539 0.750000
Si Si2 0.883610 0.641004 0.825450
Si Si3 0.364085 0.148251 0.035822
Si Si4 0.291393 0.704459 0.937314
Si Si5 0.306314 0.808816 0.402706
Si Si6 0.305679 0.997734 0.566683
Si Si7 0.389342 0.294012 0.367551
Si Si8 0.376432 0.426234 0.902858
O O1 0.865923 0.261240 0.663660
O O2 0.809134 0.376170 0.696478
O O3 0.782373 0.647686 0.841525
O O4 0.705416 0.660563 0.714804
O O5 0.075827 0.702445 0.888610
O O6 0.018727 0.565128 0.867532
O O7 0.305294 0.149497 0.954633
O O8 0.137584 0.176197 0.975126
O O9 0.409495 0.068363 0.075075
O O10 0.559867 0.207092 0.122075
O O11 0.242119 0.698715 0.860006
O O12 0.445104 0.775346 0.004220
O O13 0.449763 0.634354 0.009318
O O14 0.248810 0.969382 0.600611
O O15 0.058825 0.018349 0.449177
#
# Coordination Sequence:
#
# PCOD9308906 Si02
#       8
#     4   8   8   8   8   8   8   8
#     4  10  20  36  60  86 118 152 206 262 276 338
#     4  11  22  34  57  89 122 151 199 249 292 352
#     4  10  21  38  62  82 121 160 199 238 300 365
#     4   9  18  37  57  81 117 152 194 249 302 343
#     4  10  21  35  57  88 114 161 204 237 292 354
#     4  10  21  37  56  87 123 159 189 239 316 361
#     4  10  20  35  62  87 109 156 205 250 286 350
#     4   9  19  36  57  86 121 149 195 246 310 355
#
# _framework density 10.288066000000001
#
# number of rings (size 3 to 8) (size 9 to 14) (size 15 to 20)
#    0.000    2.133    1.333    1.600    3.733    1.600 
#    0.000    0.000    2.933    0.000    6.933    0.000 
#    0.000    0.000    0.000    0.000    0.000    0.000 
#
# Total GULP energy -167220.368720 kJ/mol
# GULP energy per Si atom -5574.012291 kJ/mol
# Density = 1.026465 g / cm^3
# Si number density = 10.288066 Si / 1000 Ang^3
#
#
#
# Elastic Constant Matrix: (Units=GPa)
#
#
# Indices 1 2 3 4 5 6 
#
# 1 86.9968 14.7816 15.4702 -0.0002 -9.8859 -0.0001
# 2 14.7816 66.5090 32.4261 -0.0002 0.0703 -0.0001
# 3 15.4702 32.4261 75.6235 -0.0029 4.7850 -0.0007
# 4 -0.0002 -0.0002 -0.0029 27.7379 -0.0005 3.6552
# 5 -9.8859 0.0703 4.7850 -0.0005 29.8725 -0.0001
# 6 -0.0001 -0.0001 -0.0007 3.6552 -0.0001 21.9553
#
#
#
# Elastic Compliance Matrix: (Units=1/GPa)
#
#
# Indices 1 2 3 4 5 6 
#
# 1 0.012692 -0.001795 -0.002114 0.000000 0.004543 0.000000
# 2 -0.001795 0.019311 -0.007953 -0.000001 0.000635 0.000000
# 3 -0.002114 -0.007953 0.017284 0.000002 -0.003450 0.000000
# 4 0.000000 -0.000001 0.000002 0.036861 0.000000 -0.006137
# 5 0.004543 0.000635 -0.003450 0.000000 0.035530 0.000000
# 6 0.000000 0.000000 0.000000 -0.006137 0.000000 0.046569
#
#
# Mechanical properties :
#
#
# Convention : Reuss Voigt Hill
#
# Bulk Modulus (GPa) = 39.11924 39.38725 39.25324
# Shear Modulus (GPa) = 24.93852 27.00988 25.97420
#
# Velocity S-wave (km/s) = 3.48517 3.62702 3.55681
# Velocity P-wave (km/s) = 5.93704 6.06005 5.99886
#
# Compressibility (1/GPa) = 0.02556287
#
# Stress axis : x y z
#
# Youngs Moduli (GPa) = 78.79076 51.78281 57.85538
#
# Poissons Ratio (x) = 0.09294 0.12232
# Poissons Ratio (y) = 0.14141 0.46015
# Poissons Ratio (z) = 0.16658 0.41185
#
# Static dielectric constant tensor:
#      x y z
#    x 1.744630 0.000000 -0.003540 
#    y 0.000000 1.815920 0.000000 
#    z -0.003540 0.000000 1.782990 
# 
# From -- ./inp_files/293566.got.cif
#   From: 2010.05.17/outbox.ucp.g08.bks.cvg/sg15_147_cif.got.tgz:293566.got - 2010.06.11 12:40:34.
