data_PCOD9308620
_publ_section_title
;
Structure prediction by ZEFSAII (Michael W. Deem and Ramdas Pophale) SiO2 
 PCOD9308620
Probable space group: C 2/C
;
_chemical_formula_sum "Si O2"
_cell_formula_units_Z 24
_cell_length_a 9.000000
_cell_length_b 21.000000
_cell_length_c 15.000000
_cell_angle_alpha 90.000000
_cell_angle_beta 70.000000
_cell_angle_gamma 90.000000
_cell_volume 2664.028580
_symmetry_space_group_name_H-M "C 2/C"
_symmetry_group_IT_number 15
_symmetry_cell_setting 'monoclinic'
loop_
_space_group_symop_operation_xyz
x,y,z
-x,y,1/2-z
-x,-y,-z
x,-y,1/2+z
1/2+x,1/2+y,z
1/2-x,1/2+y,1/2-z
1/2-x,1/2-y,-z
1/2+x,1/2-y,1/2+z
loop_
_atom_site_type_symbol
_atom_site_label
_atom_site_fract_x
_atom_site_fract_y
_atom_site_fract_z
Si Si1 0.317149 0.304869 0.549956
Si Si2 0.692001 0.441800 0.014697
Si Si3 0.686053 0.733813 0.734731
Si Si4 0.812646 0.203725 0.561971
Si Si5 0.804328 0.937793 0.097666
Si Si6 0.692122 0.411520 0.207010
O O1 0.250000 0.250000 0.500000
O O2 0.254948 0.374549 0.537113
O O3 0.278159 0.285588 0.658732
O O4 0.502015 0.304330 0.492872
O O5 0.748277 0.502224 0.948158
O O6 0.498099 0.439681 0.054691
O O7 0.742603 0.445445 0.106912
O O8 0.500000 0.740265 0.750000
O O9 0.710654 0.733399 0.835275
O O10 0.736477 0.662908 0.693461
O O11 0.750000 0.250000 0.500000
O O12 0.748675 0.131316 0.574869
O O13 0.754798 0.941093 0.211007
O O14 0.500000 0.411398 0.250000
#
# Coordination Sequence:
#
# PCOD9308620 Si02
#       6
#     8   8   8   8   8   8
#     4  11  18  31  56  82  97 131 181 213 254 299
#     4   9  15  27  47  73  97 122 169 219 240 290
#     4  10  17  31  53  78 101 133 174 214 251 304
#     4  10  21  35  51  76 111 137 165 212 265 308
#     4   8  16  29  45  68 100 133 161 200 259 303
#     4   8  13  24  44  66  93 127 162 200 247 293
#
# _framework density 9.0089120000000005
#
# number of rings (size 3 to 8) (size 9 to 14) (size 15 to 20)
#    0.000    2.667    3.333    2.000    0.000    0.667 
#    3.000    0.000    0.000    1.000    8.667    0.000 
#    0.000    0.000    0.000    0.000    0.000    0.000 
#
# Total GULP energy -133671.735670 kJ/mol
# GULP energy per Si atom -5569.655653 kJ/mol
# Density = 0.898841 g / cm^3
# Si number density = 9.008912 Si / 1000 Ang^3
#
#
#
# Elastic Constant Matrix: (Units=GPa)
#
#
# Indices 1 2 3 4 5 6 
#
# 1 5.4160 26.7350 14.8681 0.0000 16.5059 0.0000
# 2 26.7350 139.2252 107.9185 0.0000 35.3176 0.0000
# 3 14.8681 107.9185 148.6400 0.0000 32.9402 0.0000
# 4 0.0000 0.0000 0.0000 31.8636 0.0000 4.6298
# 5 16.5059 35.3176 32.9402 0.0000 25.7941 0.0000
# 6 0.0000 0.0000 0.0000 4.6298 0.0000 17.7808
#
#
#
# Elastic Compliance Matrix: (Units=1/GPa)
#
#
# Indices 1 2 3 4 5 6 
#
# 1 -0.150671 0.021815 -0.021639 0.000000 0.094181 0.000000
# 2 0.021815 0.015414 -0.007814 0.000000 -0.025086 0.000000
# 3 -0.021639 -0.007814 0.012728 0.000000 0.008292 0.000000
# 4 0.000000 0.000000 0.000000 0.032618 0.000000 -0.008493
# 5 0.094181 -0.025086 0.008292 0.000000 0.002260 0.000000
# 6 0.000000 0.000000 0.000000 -0.008493 0.000000 0.058452
#
#
# Mechanical properties :
#
#
# Convention : Reuss Voigt Hill
#
# Bulk Modulus (GPa) = -7.25663 65.81382 29.27860
# Shear Modulus (GPa) = -83.53026 24.67167 -29.42930
#
# Velocity S-wave (km/s) = -6.81619 3.70441 -4.04585
# Velocity P-wave (km/s) = 8.12302 7.40967 2.35375
#
# Compressibility (1/GPa) = -0.13780500
#
# Stress axis : x y z
#
# Youngs Moduli (GPa) = -6.63697 64.87542 78.56775
#
# Poissons Ratio (x) = -1.41524 1.70009
# Poissons Ratio (y) = 0.14478 0.61393
# Poissons Ratio (z) = -0.14361 0.50694
#
# Static dielectric constant tensor:
#      x y z
#    x 1.637560 0.000000 0.005960 
#    y 0.000000 1.611460 0.000000 
#    z 0.005960 0.000000 1.629690 
# 
# From -- ./inp_files/135871.got.cif
#   From: 2010.05.17/outbox.ucp.g08.bks.cvg/sg15_68_cif.got.tgz:135871.got - 2010.06.11 12:40:34.
