data_PCOD9308162
_publ_section_title
;
Structure prediction by ZEFSAII (Michael W. Deem and Ramdas Pophale) SiO2 
 PCOD9308162
Probable space group: C 2/C
;
_chemical_formula_sum "Si O2"
_cell_formula_units_Z 44
_cell_length_a 6.917603
_cell_length_b 17.802707
_cell_length_c 19.413456
_cell_angle_alpha 90.000000
_cell_angle_beta 114.411863
_cell_angle_gamma 90.000000
_cell_volume 2177.064410
_symmetry_space_group_name_H-M "C 2/C"
_symmetry_group_IT_number 15
_symmetry_cell_setting 'monoclinic'
loop_
_space_group_symop_operation_xyz
x,y,z
-x,y,1/2-z
-x,-y,-z
x,-y,1/2+z
1/2+x,1/2+y,z
1/2-x,1/2+y,1/2-z
1/2-x,1/2-y,-z
1/2+x,1/2-y,1/2+z
loop_
_atom_site_type_symbol
_atom_site_label
_atom_site_fract_x
_atom_site_fract_y
_atom_site_fract_z
Si Si1 0.863629 0.574580 0.488061
Si Si2 0.250071 0.687703 0.558483
Si Si3 0.000000 0.333733 0.250000
Si Si4 0.260244 0.780662 0.699815
Si Si5 0.006864 0.935451 0.669694
Si Si6 0.663769 0.420046 0.108266
O O1 0.720516 0.579729 0.398860
O O2 0.720292 0.569932 0.535997
O O3 0.000000 0.500000 0.500000
O O4 0.033101 0.640863 0.520869
O O5 0.250000 0.750000 0.500000
O O6 0.251133 0.734194 0.628573
O O7 0.455570 0.633180 0.584134
O O8 0.829126 0.277975 0.258092
O O9 0.869350 0.383143 0.175708
O O10 0.500000 0.801567 0.750000
O O11 0.129050 0.857115 0.680024
O O12 0.000000 0.955443 0.750000
O O13 0.110884 0.002730 0.640593
#
# Coordination Sequence:
#
# PCOD9308162 Si02
#       6
#     8   8   4   8   8   8
#     4  12  28  50  75 106 149 194 246 304 365 443
#     4  12  28  47  80 105 144 196 248 304 369 432
#     4  12  26  48  76 108 146 194 250 302 362 440
#     4  12  27  49  72 110 150 191 246 306 366 433
#     4  12  30  47  76 111 151 195 244 302 375 442
#     4  12  28  50  75 109 149 195 248 301 367 443
#
# _framework density 20.210702999999999
#
# number of rings (size 3 to 8) (size 9 to 14) (size 15 to 20)
#    0.000    0.000    6.364    1.636   14.000    1.455 
#    0.000    0.000    0.000    0.000    0.000    0.000 
#    0.000    0.000    0.000    0.000    0.000    0.000 
#
# Total GULP energy -123117.214810 kJ/mol
# GULP energy per Si atom -5596.237037 kJ/mol
# Density = 2.016470 g / cm^3
# Si number density = 20.210703 Si / 1000 Ang^3
#
#
#
# Elastic Constant Matrix: (Units=GPa)
#
#
# Indices 1 2 3 4 5 6 
#
# 1 82.3803 29.0865 50.2327 0.0000 1.4094 0.0000
# 2 29.0865 114.8395 39.1832 0.0000 1.0443 0.0000
# 3 50.2327 39.1832 142.5307 0.0000 7.4468 0.0000
# 4 0.0000 0.0000 0.0000 14.3137 0.0000 -7.4700
# 5 1.4094 1.0443 7.4468 0.0000 55.4339 0.0000
# 6 0.0000 0.0000 0.0000 -7.4700 0.0000 53.5327
#
#
#
# Elastic Compliance Matrix: (Units=1/GPa)
#
#
# Indices 1 2 3 4 5 6 
#
# 1 0.016022 -0.002349 -0.005017 0.000000 0.000311 0.000000
# 2 -0.002349 0.009955 -0.001916 0.000000 0.000130 0.000000
# 3 -0.005017 -0.001916 0.009368 0.000000 -0.001095 0.000000
# 4 0.000000 0.000000 0.000000 0.075351 0.000000 0.010514
# 5 0.000311 0.000130 -0.001095 0.000000 0.018176 0.000000
# 6 0.000000 0.000000 0.000000 0.010514 0.000000 0.020147
#
#
# Mechanical properties :
#
#
# Convention : Reuss Voigt Hill
#
# Bulk Modulus (GPa) = 59.58895 64.08391 61.83643
# Shear Modulus (GPa) = 28.87211 39.40595 34.13903
#
# Velocity S-wave (km/s) = 3.78372 4.42039 4.11439
# Velocity P-wave (km/s) = 6.97400 7.60460 7.29611
#
# Compressibility (1/GPa) = 0.01678164
#
# Stress axis : x y z
#
# Youngs Moduli (GPa) = 62.41325 100.44980 106.74502
#
# Poissons Ratio (x) = 0.23596 0.53557
# Poissons Ratio (y) = 0.14661 0.20449
# Poissons Ratio (z) = 0.31314 0.19243
#
# Static dielectric constant tensor:
#      x y z
#    x 1.657680 0.000000 -0.006800 
#    y 0.000000 1.680570 0.000000 
#    z -0.006800 0.000000 1.701640 
# 
# From -- ./inp_files/227048.got.cif
#   From: 2010.05.17/outbox.cif.g08.bks.cpg/sg15_114_cif.got.tgz:227048.got - 2010.06.03 18:47:42.
