data_PCOD9308437
_publ_section_title
;
Structure prediction by ZEFSAII (Michael W. Deem and Ramdas Pophale) SiO2 
 PCOD9308437
Probable space group: C 2/C
;
_chemical_formula_sum "Si O2"
_cell_formula_units_Z 32
_cell_length_a 19.073250
_cell_length_b 4.919970
_cell_length_c 12.800315
_cell_angle_alpha 90.000000
_cell_angle_beta 68.466635
_cell_angle_gamma 90.000000
_cell_volume 1117.341705
_symmetry_space_group_name_H-M "C 2/C"
_symmetry_group_IT_number 15
_symmetry_cell_setting 'monoclinic'
loop_
_space_group_symop_operation_xyz
x,y,z
-x,y,1/2-z
-x,-y,-z
x,-y,1/2+z
1/2+x,1/2+y,z
1/2-x,1/2+y,1/2-z
1/2-x,1/2-y,-z
1/2+x,1/2-y,1/2+z
loop_
_atom_site_type_symbol
_atom_site_label
_atom_site_fract_x
_atom_site_fract_y
_atom_site_fract_z
Si Si1 0.997081 0.738853 0.589371
Si Si2 0.144793 0.042389 0.786676
Si Si3 0.710200 0.906028 0.925311
Si Si4 0.086689 0.724488 0.104818
O O1 0.909621 0.790293 0.660152
O O2 0.049559 0.570112 0.638479
O O3 0.000000 0.500000 0.500000
O O4 0.964163 0.958770 0.424232
O O5 0.225956 0.981611 0.693159
O O6 0.103444 0.184225 0.712600
O O7 0.155068 0.216393 0.886370
O O8 0.664015 0.156027 0.000625
O O9 0.750000 0.750000 0.000000
#
# Coordination Sequence:
#
# PCOD9308437 Si02
#       4
#     8   8   8   8
#     4  12  32  58  95 134 186 246 317 395 477 559
#     4  12  31  57  97 137 194 247 313 388 480 557
#     4  12  30  56  97 137 193 256 318 385 471 572
#     4  12  30  59  92 136 191 249 317 392 469 570
#
# _framework density 28.639406000000001
#
# number of rings (size 3 to 8) (size 9 to 14) (size 15 to 20)
#    0.000    0.000    0.000    5.250   14.000    8.000 
#    4.500    0.000    0.000    0.000    0.000    0.000 
#    0.000    0.000    0.000    0.000    0.000    0.000 
#
# Total GULP energy -89751.213816 kJ/mol
# GULP energy per Si atom -5609.450863 kJ/mol
# Density = 2.857422 g / cm^3
# Si number density = 28.639406 Si / 1000 Ang^3
#
#
#
# Elastic Constant Matrix: (Units=GPa)
#
#
# Indices 1 2 3 4 5 6 
#
# 1 105.9121 79.3844 70.9685 0.0000 -9.7740 0.0000
# 2 79.3844 230.2184 91.2228 0.0001 7.4292 0.0000
# 3 70.9685 91.2228 179.5469 0.0000 -2.4660 0.0000
# 4 0.0000 0.0001 0.0000 74.7600 0.0000 -7.7740
# 5 -9.7740 7.4292 -2.4660 0.0000 85.6517 0.0000
# 6 0.0000 0.0000 0.0000 -7.7740 0.0000 53.7012
#
#
#
# Elastic Compliance Matrix: (Units=1/GPa)
#
#
# Indices 1 2 3 4 5 6 
#
# 1 0.015090 -0.003646 -0.004085 0.000000 0.001921 0.000000
# 2 -0.003646 0.006346 -0.001797 0.000000 -0.001018 0.000000
# 3 -0.004085 -0.001797 0.008096 0.000000 -0.000077 0.000000
# 4 0.000000 0.000000 0.000000 0.013581 0.000000 0.001966
# 5 0.001921 -0.001018 -0.000077 0.000000 0.011980 0.000000
# 6 0.000000 0.000000 0.000000 0.001966 0.000000 0.018906
#
#
# Mechanical properties :
#
#
# Convention : Reuss Voigt Hill
#
# Bulk Modulus (GPa) = 95.47006 110.98097 103.22552
# Shear Modulus (GPa) = 51.78783 61.09602 56.44192
#
# Velocity S-wave (km/s) = 4.25699 4.62376 4.44416
# Velocity P-wave (km/s) = 7.58750 8.20615 7.90288
#
# Compressibility (1/GPa) = 0.01047449
#
# Stress axis : x y z
#
# Youngs Moduli (GPa) = 66.27081 157.58148 123.51376
#
# Poissons Ratio (x) = 0.57460 0.50460
# Poissons Ratio (y) = 0.24165 0.22194
# Poissons Ratio (z) = 0.27074 0.28316
#
# Static dielectric constant tensor:
#      x y z
#    x 2.338320 0.000000 0.075850 
#    y 0.000000 2.142220 0.000000 
#    z 0.075850 0.000000 2.594150 
# 
# From -- ./inp_files/115552.got.cif
#   From: 2010.05.17/outbox.cif.g08.bks.cpg/sg15_58_cif.got.tgz:115552.got - 2010.06.03 18:47:42.
