data_PCOD9308995
_publ_section_title
;
Structure prediction by ZEFSAII (Michael W. Deem and Ramdas Pophale) SiO2 
 PCOD9308995
Probable space group: C 2/C
;
_chemical_formula_sum "Si O2"
_cell_formula_units_Z 32
_cell_length_a 21.000000
_cell_length_b 15.000000
_cell_length_c 30.000000
_cell_angle_alpha 90.000000
_cell_angle_beta 160.000000
_cell_angle_gamma 90.000000
_cell_volume 3232.090354
_symmetry_space_group_name_H-M "C 2/C"
_symmetry_group_IT_number 15
_symmetry_cell_setting 'monoclinic'
loop_
_space_group_symop_operation_xyz
x,y,z
-x,y,1/2-z
-x,-y,-z
x,-y,1/2+z
1/2+x,1/2+y,z
1/2-x,1/2+y,1/2-z
1/2-x,1/2-y,-z
1/2+x,1/2-y,1/2+z
loop_
_atom_site_type_symbol
_atom_site_label
_atom_site_fract_x
_atom_site_fract_y
_atom_site_fract_z
Si Si1 0.481517 0.523608 0.155256
Si Si2 0.746037 0.085336 0.322565
Si Si3 0.140034 0.569366 0.569560
Si Si4 0.593906 0.980704 0.942630
Si Si5 0.945289 0.779099 0.663532
Si Si6 0.478761 0.816077 0.107705
Si Si7 0.522228 0.442966 0.086573
Si Si8 0.755188 0.715576 0.790835
O O1 0.660285 0.477947 0.294816
O O2 0.493912 0.629320 0.170364
O O3 0.461283 0.497180 0.090377
O O4 0.303507 0.488250 0.064451
O O5 0.535373 0.049391 0.183061
O O6 0.715934 0.186701 0.285081
O O7 0.863617 0.082905 0.445928
O O8 0.845882 0.013779 0.354023
O O9 0.081940 0.578168 0.479631
O O10 0.159137 0.657321 0.612226
O O11 0.000000 0.500000 0.500000
O O12 0.533602 0.081765 0.914760
O O13 0.723722 0.773943 0.522842
O O14 0.042235 0.698813 0.700368
O O15 0.000000 0.786505 0.750000
O O16 0.596032 0.764515 0.149296
O O17 0.616504 0.353352 0.171739
#
# Coordination Sequence:
#
# PCOD9308995 Si02
#       8
#     8   8   8   8   8   8   8   8
#     4  10  21  40  65  90 131 170 208 271 326 388
#     4  11  24  42  67  93 129 174 216 273 330 395
#     4  11  21  38  66  96 125 163 214 271 323 381
#     4  11  21  41  63  90 128 169 215 261 333 386
#     4  10  21  35  58  93 133 161 208 253 327 399
#     4  10  20  38  55  93 125 163 204 261 321 394
#     4  10  23  45  61  95 131 168 218 269 330 395
#     4  11  23  40  67  95 125 166 224 271 326 386
#
# _framework density 9.9007129999999997
#
# number of rings (size 3 to 8) (size 9 to 14) (size 15 to 20)
#    0.000    1.500    2.500    3.375    1.750    1.500 
#    6.750    2.500    5.500    0.000    0.000    0.000 
#    0.000    0.000    0.000    0.000    0.000    0.000 
#
# Total GULP energy -178169.291005 kJ/mol
# GULP energy per Si atom -5567.790344 kJ/mol
# Density = 0.987818 g / cm^3
# Si number density = 9.900713 Si / 1000 Ang^3
#
#
#
# Elastic Constant Matrix: (Units=GPa)
#
#
# Indices 1 2 3 4 5 6 
#
# 1 76.9423 18.5800 23.1664 -0.0039 -36.0346 -0.0053
# 2 18.5800 38.1449 30.4648 0.0055 -8.8204 -0.0037
# 3 23.1664 30.4648 70.2713 0.0012 -26.2683 -0.0093
# 4 -0.0039 0.0055 0.0012 9.1767 -0.0047 -15.6032
# 5 -36.0346 -8.8204 -26.2683 -0.0047 24.7242 -0.0036
# 6 -0.0053 -0.0037 -0.0093 -15.6032 -0.0036 20.4367
#
#
#
# Elastic Compliance Matrix: (Units=1/GPa)
#
#
# Indices 1 2 3 4 5 6 
#
# 1 0.084333 -0.045626 0.052816 -0.000842 0.162749 -0.000577
# 2 -0.045626 0.065509 -0.048902 0.000558 -0.095084 0.000387
# 3 0.052816 -0.048902 0.066805 -0.000697 0.130508 -0.000474
# 4 -0.000842 0.000558 -0.000697 -0.365471 -0.001877 -0.279034
# 5 0.162749 -0.095084 0.130508 -0.001877 0.382383 -0.001282
# 6 -0.000577 0.000387 -0.000474 -0.279034 -0.001282 -0.164108
#
#
# Mechanical properties :
#
#
# Convention : Reuss Voigt Hill
#
# Bulk Modulus (GPa) = 7.50629 36.64231 22.07430
# Shear Modulus (GPa) = 25.34428 18.41066 21.87747
#
# Velocity S-wave (km/s) = 3.58148 3.05251 3.32752
# Velocity P-wave (km/s) = 4.57184 5.56496 5.09267
#
# Compressibility (1/GPa) = 0.13322165
#
# Stress axis : x y z
#
# Youngs Moduli (GPa) = 11.85779 15.26502 14.96897
#
# Poissons Ratio (x) = 0.69648 -0.79060
# Poissons Ratio (y) = 0.54103 0.73202
# Poissons Ratio (z) = -0.62628 0.74649
#
# Static dielectric constant tensor:
#      x y z
#    x 4.701990 0.000280 -2.131410 
#    y 0.000280 1.734480 -0.000230 
#    z -2.131410 -0.000230 3.246220 
# 
# From -- ./inp_files/318007.got.cif
#   From: 2010.05.17/outbox.ucp.g08.bks.cvg/sg15_160_cif.got.tgz:318007.got - 2010.06.11 12:40:34.
