data_PCOD9308894
_publ_section_title
;
Structure prediction by ZEFSAII (Michael W. Deem and Ramdas Pophale) SiO2 
 PCOD9308894
Probable space group: C 2/C
;
_chemical_formula_sum "Si O2"
_cell_formula_units_Z 24
_cell_length_a 30.000000
_cell_length_b 15.000000
_cell_length_c 30.000000
_cell_angle_alpha 90.000000
_cell_angle_beta 170.000000
_cell_angle_gamma 90.000000
_cell_volume 2344.250399
_symmetry_space_group_name_H-M "C 2/C"
_symmetry_group_IT_number 15
_symmetry_cell_setting 'monoclinic'
loop_
_space_group_symop_operation_xyz
x,y,z
-x,y,1/2-z
-x,-y,-z
x,-y,1/2+z
1/2+x,1/2+y,z
1/2-x,1/2+y,1/2-z
1/2-x,1/2-y,-z
1/2+x,1/2-y,1/2+z
loop_
_atom_site_type_symbol
_atom_site_label
_atom_site_fract_x
_atom_site_fract_y
_atom_site_fract_z
Si Si1 0.916794 0.694538 0.497628
Si Si2 0.976614 0.187019 0.522822
Si Si3 0.603137 0.706949 0.302066
Si Si4 0.711302 0.466947 0.599816
Si Si5 0.178428 0.572055 0.699928
Si Si6 0.775142 0.458497 0.927053
O O1 0.833973 0.616832 0.448485
O O2 0.191765 0.735818 0.777427
O O3 0.970986 0.650585 0.503528
O O4 0.078004 0.113387 0.586075
O O5 0.730659 0.251662 0.276286
O O6 0.887635 0.125781 0.477038
O O7 0.500000 0.727044 0.250000
O O8 0.831256 0.772728 0.510021
O O9 0.716986 0.606946 0.411636
O O10 0.736795 0.531613 0.668659
O O11 0.489741 0.497830 0.348282
O O12 0.982654 0.475528 0.840490
O O13 0.000000 0.500000 0.500000
#
# Coordination Sequence:
#
# PCOD9308894 Si02
#       6
#     8   8   8   8   8   8
#     4  11  21  33  49  72  98 133 181 221 260 310
#     4  12  24  39  56  76 103 137 183 235 287 330
#     4  10  20  35  57  88 123 155 184 216 260 317
#     4  11  24  39  55  77 105 142 184 230 277 330
#     4  11  23  39  54  74 104 142 184 233 285 328
#     4  11  21  37  56  77 110 145 179 219 265 317
#
# _framework density 10.237814
#
# number of rings (size 3 to 8) (size 9 to 14) (size 15 to 20)
#    0.000    1.000    0.000    9.500    0.000    4.000 
#    0.000    0.000    0.000    0.000    0.000    0.000 
#    0.000   13.333    0.000    0.000    0.000    0.000 
#
# Total GULP energy -133768.959412 kJ/mol
# GULP energy per Si atom -5573.706642 kJ/mol
# Density = 1.021451 g / cm^3
# Si number density = 10.237814 Si / 1000 Ang^3
#
#
#
# Elastic Constant Matrix: (Units=GPa)
#
#
# Indices 1 2 3 4 5 6 
#
# 1 11.1710 15.9029 43.4601 -0.1733 22.9679 -0.0368
# 2 15.9029 55.7173 26.2479 0.0069 -2.6412 0.0480
# 3 43.4601 26.2479 134.9280 0.3725 12.8141 0.0223
# 4 -0.1733 0.0069 0.3725 44.8812 0.1387 10.7255
# 5 22.9679 -2.6412 12.8141 0.1387 17.8619 0.0034
# 6 -0.0368 0.0480 0.0223 10.7255 0.0034 29.3521
#
#
#
# Elastic Compliance Matrix: (Units=1/GPa)
#
#
# Indices 1 2 3 4 5 6 
#
# 1 -0.036045 0.009748 0.005554 -0.000335 0.043809 0.000052
# 2 0.009748 0.017760 -0.006067 0.000115 -0.005557 -0.000054
# 3 0.005554 -0.006067 0.008119 -0.000006 -0.013864 0.000014
# 4 -0.000335 0.000115 -0.000006 0.024411 0.000263 -0.008921
# 5 0.043809 -0.005557 -0.013864 0.000263 0.008775 -0.000023
# 6 0.000052 -0.000054 0.000014 -0.008921 -0.000023 0.037329
#
#
# Mechanical properties :
#
#
# Convention : Reuss Voigt Hill
#
# Bulk Modulus (GPa) = 120.41923 41.44869 80.93396
# Shear Modulus (GPa) = 111.98911 26.16608 69.07759
#
# Velocity S-wave (km/s) = 7.40355 3.57867 5.81461
# Velocity P-wave (km/s) = 11.49009 6.11251 9.20285
#
# Compressibility (1/GPa) = 0.00830432
#
# Stress axis : x y z
#
# Youngs Moduli (GPa) = -27.74274 56.30530 123.16292
#
# Poissons Ratio (x) = -0.54888 -0.68408
# Poissons Ratio (y) = 0.27044 0.74728
# Poissons Ratio (z) = 0.15409 0.34163
#
# Static dielectric constant tensor:
#      x y z
#    x 1.815660 -0.000050 -0.045220 
#    y -0.000050 1.828270 -0.000410 
#    z -0.045220 -0.000410 1.814260 
# 
# From -- ./inp_files/320378.got.cif
#   From: 2010.05.17/outbox.ucp.g08.bks.cvg/sg15_161_cif.got.tgz:320378.got - 2010.06.11 12:40:34.
