data_PCOD9308193
_publ_section_title
;
Structure prediction by ZEFSAII (Michael W. Deem and Ramdas Pophale) SiO2 
 PCOD9308193
Probable space group: C 2/C
;
_chemical_formula_sum "Si O2"
_cell_formula_units_Z 40
_cell_length_a 22.332819
_cell_length_b 8.779158
_cell_length_c 12.232599
_cell_angle_alpha 90.000000
_cell_angle_beta 137.164941
_cell_angle_gamma 90.000000
_cell_volume 1630.624244
_symmetry_space_group_name_H-M "C 2/C"
_symmetry_group_IT_number 15
_symmetry_cell_setting 'monoclinic'
loop_
_space_group_symop_operation_xyz
x,y,z
-x,y,1/2-z
-x,-y,-z
x,-y,1/2+z
1/2+x,1/2+y,z
1/2-x,1/2+y,1/2-z
1/2-x,1/2-y,-z
1/2+x,1/2-y,1/2+z
loop_
_atom_site_type_symbol
_atom_site_label
_atom_site_fract_x
_atom_site_fract_y
_atom_site_fract_z
Si Si1 0.055876 0.657697 0.428272
Si Si2 0.767547 0.828239 0.904635
Si Si3 0.010337 0.171918 0.054343
Si Si4 0.821913 0.363640 0.138761
Si Si5 0.629329 0.148601 0.036906
O O1 0.090803 0.507214 0.536067
O O2 0.133847 0.776254 0.499144
O O3 0.984620 0.736776 0.411132
O O4 0.000000 0.612386 0.250000
O O5 0.708694 0.788689 0.717953
O O6 0.750000 0.750000 0.000000
O O7 0.103891 0.252819 0.207383
O O8 0.942893 0.218494 0.058171
O O9 0.000000 0.000000 0.000000
O O10 0.765688 0.498150 0.120509
O O11 0.750000 0.250000 0.000000
O O12 0.855770 0.415486 0.064744
#
# Coordination Sequence:
#
# PCOD9308193 Si02
#       5
#     8   8   8   8   8
#     4  12  26  48  80 113 154 208 268 325 398 475
#     4  12  27  49  79 115 154 210 262 325 405 483
#     4  12  29  48  76 113 158 208 267 332 400 476
#     4  12  28  48  76 114 161 204 264 328 400 478
#     4  12  27  50  79 111 157 204 266 331 402 474
#
# _framework density 24.530481999999999
#
# number of rings (size 3 to 8) (size 9 to 14) (size 15 to 20)
#    0.000    0.000    4.000    4.800    8.400    0.000 
#    0.000    0.000    0.000    0.000    0.000    0.000 
#    0.000    0.000    0.000    0.000    0.000    0.000 
#
# Total GULP energy -111438.314518 kJ/mol
# GULP energy per Si atom -5571.915726 kJ/mol
# Density = 2.447465 g / cm^3
# Si number density = 24.530482 Si / 1000 Ang^3
#
#
#
# Elastic Constant Matrix: (Units=GPa)
#
#
# Indices 1 2 3 4 5 6 
#
# 1 88.4157 30.2991 9.5215 0.0000 8.7642 0.0000
# 2 30.2991 139.9699 40.0024 0.0000 17.8081 0.0000
# 3 9.5215 40.0024 131.0173 0.0000 18.8311 0.0000
# 4 0.0000 0.0000 0.0000 42.0165 0.0000 4.2897
# 5 8.7642 17.8081 18.8311 0.0000 37.9305 0.0000
# 6 0.0000 0.0000 0.0000 4.2897 0.0000 57.0700
#
#
#
# Elastic Compliance Matrix: (Units=1/GPa)
#
#
# Indices 1 2 3 4 5 6 
#
# 1 0.012320 -0.002477 0.000111 0.000000 -0.001739 0.000000
# 2 -0.002477 0.008587 -0.002094 0.000000 -0.002420 0.000000
# 3 0.000111 -0.002094 0.008751 0.000000 -0.003387 0.000000
# 4 0.000000 0.000000 0.000000 0.023984 0.000000 -0.001803
# 5 -0.001739 -0.002420 -0.003387 0.000000 0.029583 0.000000
# 6 0.000000 0.000000 0.000000 -0.001803 0.000000 0.017658
#
#
# Mechanical properties :
#
#
# Convention : Reuss Voigt Hill
#
# Bulk Modulus (GPa) = 48.22430 57.67210 52.94820
# Shear Modulus (GPa) = 42.83935 46.04206 44.44070
#
# Velocity S-wave (km/s) = 4.18350 4.33706 4.26097
# Velocity P-wave (km/s) = 6.56027 6.97435 6.77047
#
# Compressibility (1/GPa) = 0.02073643
#
# Stress axis : x y z
#
# Youngs Moduli (GPa) = 81.17188 116.45612 114.27723
#
# Poissons Ratio (x) = 0.28850 -0.01268
# Poissons Ratio (y) = 0.20109 0.23929
# Poissons Ratio (z) = -0.00901 0.24386
#
# Static dielectric constant tensor:
#      x y z
#    x 1.820880 0.000000 0.055080 
#    y 0.000000 2.513270 0.000000 
#    z 0.055080 0.000000 1.948700 
# 
# From -- ./inp_files/112179.got.cif
#   From: 2010.05.17/outbox.cif.g08.bks.cpg/sg15_57_cif.got.tgz:112179.got - 2010.06.03 18:47:42.
