data_PCOD9308283
_publ_section_title
;
Structure prediction by ZEFSAII (Michael W. Deem and Ramdas Pophale) SiO2 
 PCOD9308283
Probable space group: C 2/C
;
_chemical_formula_sum "Si O2"
_cell_formula_units_Z 36
_cell_length_a 7.993712
_cell_length_b 13.536616
_cell_length_c 16.320195
_cell_angle_alpha 90.000000
_cell_angle_beta 52.849102
_cell_angle_gamma 90.000000
_cell_volume 1407.564473
_symmetry_space_group_name_H-M "C 2/C"
_symmetry_group_IT_number 15
_symmetry_cell_setting 'monoclinic'
loop_
_space_group_symop_operation_xyz
x,y,z
-x,y,1/2-z
-x,-y,-z
x,-y,1/2+z
1/2+x,1/2+y,z
1/2-x,1/2+y,1/2-z
1/2-x,1/2-y,-z
1/2+x,1/2-y,1/2+z
loop_
_atom_site_type_symbol
_atom_site_label
_atom_site_fract_x
_atom_site_fract_y
_atom_site_fract_z
Si Si1 0.780650 0.548619 0.780833
Si Si2 0.059550 0.875334 0.895625
Si Si3 0.500000 0.765466 0.750000
Si Si4 0.167849 0.435575 0.900300
Si Si5 0.054318 0.220829 0.898658
O O1 0.612563 0.491069 0.885316
O O2 0.757213 0.506828 0.695949
O O3 0.763879 0.663185 0.808943
O O4 0.000000 0.513899 0.750000
O O5 0.280106 0.825282 0.800329
O O6 0.858638 0.882835 0.894305
O O7 0.006751 0.821722 0.995777
O O8 0.434742 0.700042 0.848454
O O9 0.046564 0.338565 0.904895
O O10 0.000000 0.500000 0.000000
#
# Coordination Sequence:
#
# PCOD9308283 Si02
#       5
#     8   8   4   8   8
#     4  12  27  49  79 120 166 211 269 338 407 483
#     4  12  26  53  79 118 164 215 270 342 406 485
#     4  12  28  48  82 120 162 212 272 338 406 490
#     4  12  29  51  83 121 164 213 278 334 411 485
#     4  12  29  49  83 115 164 216 274 333 412 477
#
# _framework density 25.576093
#
# number of rings (size 3 to 8) (size 9 to 14) (size 15 to 20)
#    0.000    0.000    3.333    4.000    9.333    1.778 
#    0.000    0.000    0.000    0.000    0.000    0.000 
#    0.000    0.000    0.000    0.000    0.000    0.000 
#
# Total GULP energy -100341.882663 kJ/mol
# GULP energy per Si atom -5574.549037 kJ/mol
# Density = 2.551788 g / cm^3
# Si number density = 25.576093 Si / 1000 Ang^3
#
#
#
# Elastic Constant Matrix: (Units=GPa)
#
#
# Indices 1 2 3 4 5 6 
#
# 1 109.1587 -1.4756 70.2159 0.0001 11.6019 0.0000
# 2 -1.4756 115.5504 92.6352 0.0000 22.8420 0.0000
# 3 70.2159 92.6352 201.1623 -0.0001 34.2957 -0.0001
# 4 0.0001 0.0000 -0.0001 -10.3509 0.0000 -7.3000
# 5 11.6019 22.8420 34.2957 0.0000 28.5520 0.0000
# 6 0.0000 0.0000 -0.0001 -7.3000 0.0000 43.1768
#
#
#
# Elastic Compliance Matrix: (Units=1/GPa)
#
#
# Indices 1 2 3 4 5 6 
#
# 1 0.014580 0.006949 -0.007962 0.000000 -0.001920 0.000000
# 2 0.006949 0.017455 -0.009559 0.000000 -0.005306 0.000000
# 3 -0.007962 -0.009559 0.012948 0.000000 -0.004671 0.000000
# 4 0.000000 0.000000 0.000000 -0.086318 0.000000 -0.014594
# 5 -0.001920 -0.005306 -0.004671 0.000000 0.045659 0.000000
# 6 0.000000 0.000000 0.000000 -0.014594 0.000000 0.020693
#
#
# Mechanical properties :
#
#
# Convention : Reuss Voigt Hill
#
# Bulk Modulus (GPa) = 41.94677 83.18028 62.56352
# Shear Modulus (GPa) = 92.40581 29.90863 61.15722
#
# Velocity S-wave (km/s) = 6.01732 3.42336 4.89528
# Velocity P-wave (km/s) = 8.04450 6.94400 7.51442
#
# Compressibility (1/GPa) = 0.02383974
#
# Stress axis : x y z
#
# Youngs Moduli (GPa) = 68.58542 57.28986 77.23006
#
# Poissons Ratio (x) = -0.39809 0.61489
# Poissons Ratio (y) = -0.47657 0.73823
# Poissons Ratio (z) = 0.54606 0.54763
#
# Static dielectric constant tensor:
#      x y z
#    x 2.458030 0.000000 -0.047070 
#    y 0.000000 2.142370 0.000000 
#    z -0.047070 0.000000 2.044210 
# 
# From -- ./inp_files/188661.got.cif
#   From: 2010.05.17/outbox.cif.g08.bks.cpg/sg15_95_cif.got.tgz:188661.got - 2010.06.03 18:47:42.
