data_PCOD9308117
_publ_section_title
;
Structure prediction by ZEFSAII (Michael W. Deem and Ramdas Pophale) SiO2 
 PCOD9308117
Probable space group: C 2/C
;
_chemical_formula_sum "Si O2"
_cell_formula_units_Z 36
_cell_length_a 14.920554
_cell_length_b 18.974017
_cell_length_c 11.043974
_cell_angle_alpha 90.000000
_cell_angle_beta 29.371730
_cell_angle_gamma 90.000000
_cell_volume 1533.505903
_symmetry_space_group_name_H-M "C 2/C"
_symmetry_group_IT_number 15
_symmetry_cell_setting 'monoclinic'
loop_
_space_group_symop_operation_xyz
x,y,z
-x,y,1/2-z
-x,-y,-z
x,-y,1/2+z
1/2+x,1/2+y,z
1/2-x,1/2+y,1/2-z
1/2-x,1/2-y,-z
1/2+x,1/2-y,1/2+z
loop_
_atom_site_type_symbol
_atom_site_label
_atom_site_fract_x
_atom_site_fract_y
_atom_site_fract_z
Si Si1 0.701463 0.573679 0.454805
Si Si2 0.879085 0.847137 0.696974
Si Si3 0.203775 0.696806 0.778516
Si Si4 0.161132 0.422971 0.154268
Si Si5 0.000000 0.663678 0.250000
O O1 0.500000 0.572985 0.750000
O O2 0.682782 0.609530 0.346902
O O3 0.773677 0.493991 0.359280
O O4 0.842886 0.616156 0.373325
O O5 0.786767 0.770250 0.802362
O O6 0.094659 0.832784 0.436220
O O7 0.820082 0.888869 0.885352
O O8 0.105108 0.636569 0.816288
O O9 0.095270 0.708034 0.031356
O O10 0.000000 0.438904 0.250000
#
# Coordination Sequence:
#
# PCOD9308117 Si02
#       5
#     8   8   8   8   4
#     4  12  26  46  76 110 150 192 244 302 364 438
#     4  12  27  48  76 108 148 192 246 303 366 435
#     4  12  27  48  76 108 148 192 246 303 366 435
#     4  12  27  48  76 108 148 192 246 303 366 435
#     4  12  26  46  76 110 150 192 244 302 364 438
#
# _framework density 23.475618999999998
#
# number of rings (size 3 to 8) (size 9 to 14) (size 15 to 20)
#    0.000    0.000    3.333    6.667    4.667    5.333 
#    0.000    0.000    0.000    0.000    0.000    0.000 
#    0.000    0.000    0.000    0.000    0.000    0.000 
#
# Total GULP energy -101024.677030 kJ/mol
# GULP energy per Si atom -5612.482057 kJ/mol
# Density = 2.342219 g / cm^3
# Si number density = 23.475619 Si / 1000 Ang^3
#
#
#
# Elastic Constant Matrix: (Units=GPa)
#
#
# Indices 1 2 3 4 5 6 
#
# 1 102.1028 42.5815 21.3920 0.0472 -14.3595 -0.3161
# 2 42.5815 118.8518 -5.8740 0.0582 -9.8741 -0.3523
# 3 21.3920 -5.8740 89.0847 0.0503 -16.1892 -0.3437
# 4 0.0472 0.0582 0.0503 6.1153 -0.0126 108.7061
# 5 -14.3595 -9.8741 -16.1892 -0.0126 41.1162 0.1397
# 6 -0.3161 -0.3523 -0.3437 108.7061 0.1397 -543.7093
#
#
#
# Elastic Compliance Matrix: (Units=1/GPa)
#
#
# Indices 1 2 3 4 5 6 
#
# 1 0.012575 -0.004469 -0.002920 0.000002 0.002169 -0.000002
# 2 -0.004469 0.010259 0.002061 0.000002 0.001715 -0.000004
# 3 -0.002920 0.002061 0.012889 0.000005 0.004550 -0.000006
# 4 0.000002 0.000002 0.000005 0.035907 -0.000010 0.007179
# 5 0.002169 0.001715 0.004550 -0.000010 0.027282 0.000000
# 6 -0.000002 -0.000004 -0.000006 0.007179 0.000000 -0.000404
#
#
# Mechanical properties :
#
#
# Convention : Reuss Voigt Hill
#
# Bulk Modulus (GPa) = 39.89339 47.35983 43.62661
# Shear Modulus (GPa) = 42.54544 -82.49957 -19.97706
#
# Velocity S-wave (km/s) = 4.26176 -5.93456 -2.92030
# Velocity P-wave (km/s) = 6.42240 5.17115 2.69318
#
# Compressibility (1/GPa) = 0.02506681
#
# Stress axis : x y z
#
# Youngs Moduli (GPa) = 79.52414 97.47154 77.58368
#
# Poissons Ratio (x) = 0.43564 0.22656
# Poissons Ratio (y) = 0.35542 -0.15992
# Poissons Ratio (z) = 0.23223 -0.20092
#
# Static dielectric constant tensor:
#      x y z
#    x 1.863960 0.000000 -0.019180 
#    y 0.000000 1.828900 0.000000 
#    z -0.019180 0.000000 1.901390 
# 
# From -- ./inp_files/106826.got.cif
#   From: 2010.05.17/outbox.cif.g08.bks.cpg/sg15_54_cif.got.tgz:106826.got - 2010.06.03 18:47:42.
