data_PCOD9308710
_publ_section_title
;
Structure prediction by ZEFSAII (Michael W. Deem and Ramdas Pophale) SiO2 
 PCOD9308710
Probable space group: C 2/C
;
_chemical_formula_sum "Si O2"
_cell_formula_units_Z 24
_cell_length_a 21.000000
_cell_length_b 15.000000
_cell_length_c 24.000000
_cell_angle_alpha 90.000000
_cell_angle_beta 20.000000
_cell_angle_gamma 90.000000
_cell_volume 2585.672284
_symmetry_space_group_name_H-M "C 2/C"
_symmetry_group_IT_number 15
_symmetry_cell_setting 'monoclinic'
loop_
_space_group_symop_operation_xyz
x,y,z
-x,y,1/2-z
-x,-y,-z
x,-y,1/2+z
1/2+x,1/2+y,z
1/2-x,1/2+y,1/2-z
1/2-x,1/2-y,-z
1/2+x,1/2-y,1/2+z
loop_
_atom_site_type_symbol
_atom_site_label
_atom_site_fract_x
_atom_site_fract_y
_atom_site_fract_z
Si Si1 0.213616 0.737030 0.464369
Si Si2 0.454743 0.166988 0.588653
Si Si3 0.616010 0.574971 0.998292
Si Si4 0.744999 0.339882 0.754645
Si Si5 0.569170 0.007202 0.335475
Si Si6 0.368545 0.547906 0.308098
O O1 0.250000 0.750000 0.500000
O O2 0.221211 0.836326 0.433829
O O3 0.343527 0.655466 0.337083
O O4 0.017839 0.702493 0.598251
O O5 0.309408 0.238792 0.685402
O O6 0.636924 0.164506 0.399860
O O7 0.383372 0.067215 0.656128
O O8 0.453945 0.609367 0.089150
O O9 0.488780 0.534665 0.152878
O O10 0.782184 0.516079 0.835608
O O11 0.876060 0.395588 0.687873
O O12 0.343939 0.991846 0.513422
O O13 0.500000 0.515357 0.250000
#
# Coordination Sequence:
#
# PCOD9308710 Si02
#       6
#     8   8   8   8   8   8
#     4  10  19  32  53  82 121 165 194 227 287 372
#     4  10  21  36  57  87 123 161 201 245 297 365
#     4  11  22  35  55  84 118 163 204 235 298 357
#     4  11  21  40  59  87 124 161 205 254 304 360
#     4  11  24  39  60  86 123 163 205 256 302 354
#     4  11  23  38  54  84 123 164 204 243 301 368
#
# _framework density 9.2819190000000003
#
# number of rings (size 3 to 8) (size 9 to 14) (size 15 to 20)
#    0.000    1.333    5.000    3.000    4.667    0.667 
#    0.000    0.000    0.000    0.000    0.000    1.167 
#    0.000    0.000    0.000    0.000    0.000    0.000 
#
# Total GULP energy -133737.016886 kJ/mol
# GULP energy per Si atom -5572.375704 kJ/mol
# Density = 0.926079 g / cm^3
# Si number density = 9.281919 Si / 1000 Ang^3
#
#
#
# Elastic Constant Matrix: (Units=GPa)
#
#
# Indices 1 2 3 4 5 6 
#
# 1 58.0612 24.9216 42.9594 0.0060 -8.8171 -0.0163
# 2 24.9216 59.9446 29.0996 -0.0028 -12.7209 -0.0023
# 3 42.9594 29.0996 153.9701 -0.0178 5.3337 -0.0085
# 4 0.0060 -0.0028 -0.0178 22.0283 0.0034 -5.0910
# 5 -8.8171 -12.7209 5.3337 0.0034 30.0144 0.0071
# 6 -0.0163 -0.0023 -0.0085 -5.0910 0.0071 26.2143
#
#
#
# Elastic Compliance Matrix: (Units=1/GPa)
#
#
# Indices 1 2 3 4 5 6 
#
# 1 0.025321 -0.006345 -0.006068 -0.000011 0.005827 0.000009
# 2 -0.006345 0.022369 -0.002738 0.000000 0.008103 -0.000005
# 3 -0.006068 -0.002738 0.008862 0.000010 -0.004518 0.000002
# 4 -0.000011 0.000000 0.000010 0.047529 -0.000013 0.009231
# 5 0.005827 0.008103 -0.004518 -0.000013 0.039266 -0.000010
# 6 0.000009 -0.000005 0.000002 0.009231 -0.000010 0.039940
#
#
# Mechanical properties :
#
#
# Convention : Reuss Voigt Hill
#
# Bulk Modulus (GPa) = 38.09473 51.77079 44.93276
# Shear Modulus (GPa) = 22.48830 27.31774 24.90302
#
# Velocity S-wave (km/s) = 3.48430 3.84025 3.66660
# Velocity P-wave (km/s) = 6.06239 6.90014 6.49478
#
# Compressibility (1/GPa) = 0.02625035
#
# Stress axis : x y z
#
# Youngs Moduli (GPa) = 39.49298 44.70552 112.84594
#
# Poissons Ratio (x) = 0.28365 0.68470
# Poissons Ratio (y) = 0.25058 0.30897
# Poissons Ratio (z) = 0.23963 0.12240
#
# Static dielectric constant tensor:
#      x y z
#    x 1.689710 0.000000 0.016430 
#    y 0.000000 1.646240 0.000010 
#    z 0.016430 0.000010 1.690280 
# 
# From -- ./inp_files/280251.got.cif
#   From: 2010.05.17/outbox.ucp.g08.bks.cvg/sg15_141_cif.got.tgz:280251.got - 2010.06.11 12:40:34.
