data_PCOD9308446
_publ_section_title
;
Structure prediction by ZEFSAII (Michael W. Deem and Ramdas Pophale) SiO2 
 PCOD9308446
Probable space group: C 2/C
;
_chemical_formula_sum "Si O2"
_cell_formula_units_Z 52
_cell_length_a 17.753106
_cell_length_b 7.567364
_cell_length_c 18.682950
_cell_angle_alpha 90.000000
_cell_angle_beta 131.165125
_cell_angle_gamma 90.000000
_cell_volume 1889.526955
_symmetry_space_group_name_H-M "C 2/C"
_symmetry_group_IT_number 15
_symmetry_cell_setting 'monoclinic'
loop_
_space_group_symop_operation_xyz
x,y,z
-x,y,1/2-z
-x,-y,-z
x,-y,1/2+z
1/2+x,1/2+y,z
1/2-x,1/2+y,1/2-z
1/2-x,1/2-y,-z
1/2+x,1/2-y,1/2+z
loop_
_atom_site_type_symbol
_atom_site_label
_atom_site_fract_x
_atom_site_fract_y
_atom_site_fract_z
Si Si1 0.092740 0.066624 0.186406
Si Si2 0.267145 0.940600 0.471794
Si Si3 0.849937 0.237372 0.405136
Si Si4 0.000000 0.914229 0.250000
Si Si5 0.363693 0.627855 0.000829
Si Si6 0.420160 0.199650 0.403153
Si Si7 0.518223 0.060435 0.339741
O O1 0.083174 0.032142 0.264241
O O2 0.163795 0.197821 0.187324
O O3 0.103739 0.878675 0.154485
O O4 0.979806 0.128455 0.096169
O O5 0.250000 0.750000 0.500000
O O6 0.275195 0.874723 0.394556
O O7 0.196864 0.085000 0.465021
O O8 0.377899 0.003336 0.564943
O O9 0.842664 0.050800 0.441548
O O10 0.963775 0.298216 0.495922
O O11 0.964160 0.770591 0.168756
O O12 0.353649 0.779784 0.933273
O O13 0.430524 0.058070 0.344427
O O14 0.500000 0.979328 0.250000
#
# Coordination Sequence:
#
# PCOD9308446 Si02
#       7
#     8   8   8   4   8   8   8
#     4   8  11  17  24  36  50  75 107 134 151 184
#     4   9  13  18  26  40  55  78 110 135 151 192
#     4   7  11  16  24  34  52  71 101 132 156 179
#     4   8  12  16  24  32  48  74 108 126 148 176
#     4   8  12  16  27  37  52  72 108 136 157 178
#     4   7  10  18  25  35  49  74 104 132 152 183
#     4   8  14  19  26  37  57  82 111 130 154 192
#
# _framework density 27.520115000000001
#
# number of rings (size 3 to 8) (size 9 to 14) (size 15 to 20)
#    0.462    3.692    0.000    4.615    0.000    0.000 
#    0.000    0.000    0.000    0.000    0.000    0.000 
#    0.000    0.000    0.000    1.385    2.154  375.385 
#
# Total GULP energy -144921.936833 kJ/mol
# GULP energy per Si atom -5573.920647 kJ/mol
# Density = 2.745748 g / cm^3
# Si number density = 27.520115 Si / 1000 Ang^3
#
#
#
# Elastic Constant Matrix: (Units=GPa)
#
#
# Indices 1 2 3 4 5 6 
#
# 1 203.4474 62.4793 60.7951 0.0000 -51.1315 0.0000
# 2 62.4793 80.2919 23.4032 0.0000 -15.8538 0.0000
# 3 60.7951 23.4032 71.7065 0.0000 -28.6986 0.0000
# 4 0.0000 0.0000 0.0000 12.5279 0.0000 0.0827
# 5 -51.1315 -15.8538 -28.6986 0.0000 46.0112 0.0000
# 6 0.0000 0.0000 0.0000 0.0827 0.0000 29.7872
#
#
#
# Elastic Compliance Matrix: (Units=1/GPa)
#
#
# Indices 1 2 3 4 5 6 
#
# 1 0.008984 -0.004729 -0.003638 0.000000 0.006085 0.000000
# 2 -0.004729 0.016488 -0.001601 0.000000 -0.000573 0.000000
# 3 -0.003638 -0.001601 0.020942 0.000000 0.008467 0.000000
# 4 0.000000 0.000000 0.000000 0.079823 0.000000 -0.000222
# 5 0.006085 -0.000573 0.008467 0.000000 0.033580 0.000000
# 6 0.000000 0.000000 0.000000 -0.000222 0.000000 0.033572
#
#
# Mechanical properties :
#
#
# Convention : Reuss Voigt Hill
#
# Bulk Modulus (GPa) = 37.76831 72.08903 54.92867
# Shear Modulus (GPa) = 22.50718 31.58315 27.04517
#
# Velocity S-wave (km/s) = 2.86290 3.39136 3.13827
# Velocity P-wave (km/s) = 4.96809 6.44880 5.75625
#
# Compressibility (1/GPa) = 0.02647722
#
# Stress axis : x y z
#
# Youngs Moduli (GPa) = 111.30761 60.65000 47.75186
#
# Poissons Ratio (x) = 0.28682 0.17373
# Poissons Ratio (y) = 0.52638 0.07646
# Poissons Ratio (z) = 0.40495 0.09711
#
# Static dielectric constant tensor:
#      x y z
#    x 2.494410 0.000000 -0.320390 
#    y 0.000000 2.186950 0.000000 
#    z -0.320390 0.000000 2.437520 
# 
# From -- ./inp_files/244094.got.cif
#   From: 2010.05.17/outbox.cif.g08.bks.cpg/sg15_123_cif.got.tgz:244094.got - 2010.06.03 18:47:42.
