data_PCOD9308540
_publ_section_title
;
Structure prediction by ZEFSAII (Michael W. Deem and Ramdas Pophale) SiO2 
 PCOD9308540
Probable space group: C 2/C
;
_chemical_formula_sum "Si O2"
_cell_formula_units_Z 24
_cell_length_a 6.939054
_cell_length_b 7.753249
_cell_length_c 27.641529
_cell_angle_alpha 90.000000
_cell_angle_beta 35.646428
_cell_angle_gamma 90.000000
_cell_volume 866.666344
_symmetry_space_group_name_H-M "C 2/C"
_symmetry_group_IT_number 15
_symmetry_cell_setting 'monoclinic'
loop_
_space_group_symop_operation_xyz
x,y,z
-x,y,1/2-z
-x,-y,-z
x,-y,1/2+z
1/2+x,1/2+y,z
1/2-x,1/2+y,1/2-z
1/2-x,1/2-y,-z
1/2+x,1/2-y,1/2+z
loop_
_atom_site_type_symbol
_atom_site_label
_atom_site_fract_x
_atom_site_fract_y
_atom_site_fract_z
Si Si1 0.288824 0.844602 0.743284
Si Si2 0.583746 0.428210 0.930631
Si Si3 0.351899 0.430872 0.380282
O O1 0.500000 0.818563 0.750000
O O2 0.324910 0.671660 0.704766
O O3 0.530375 0.965657 0.661264
O O4 0.920103 0.900219 0.833928
O O5 0.374034 0.518132 0.931391
O O6 0.583821 0.218035 0.926801
O O7 0.500000 0.500000 0.000000
#
# Coordination Sequence:
#
# PCOD9308540 Si02
#       3
#     8   8   8
#     4   8  17  31  52  81 116 160 206 251 305 366
#     4   9  17  30  58  91 123 162 205 259 314 367
#     4   9  17  32  56  83 125 161 209 253 309 374
#
# _framework density 27.692318
#
# number of rings (size 3 to 8) (size 9 to 14) (size 15 to 20)
#    2.000    1.333    0.000    1.000    0.000    0.000 
#    0.000    5.000    0.000   10.000    0.000    0.000 
#    0.000    0.000    0.000    0.000    0.000    0.000 
#
# Total GULP energy -66916.551877 kJ/mol
# GULP energy per Si atom -5576.379323 kJ/mol
# Density = 2.762929 g / cm^3
# Si number density = 27.692318 Si / 1000 Ang^3
#
#
#
# Elastic Constant Matrix: (Units=GPa)
#
#
# Indices 1 2 3 4 5 6 
#
# 1 136.0763 32.2198 43.3048 -0.0019 22.0443 0.0027
# 2 32.2198 106.4136 55.8590 -0.0003 23.8070 0.0012
# 3 43.3048 55.8590 213.3141 0.0036 36.0445 0.0048
# 4 -0.0019 -0.0003 0.0036 76.9767 0.0045 4.0183
# 5 22.0443 23.8070 36.0445 0.0045 33.2373 -0.0036
# 6 0.0027 0.0012 0.0048 4.0183 -0.0036 39.1470
#
#
#
# Elastic Compliance Matrix: (Units=1/GPa)
#
#
# Indices 1 2 3 4 5 6 
#
# 1 0.008528 -0.001326 -0.000721 0.000001 -0.003925 -0.000001
# 2 -0.001326 0.012085 -0.001936 0.000000 -0.005677 -0.000001
# 3 -0.000721 -0.001936 0.006154 0.000000 -0.004809 -0.000001
# 4 0.000001 0.000000 0.000000 0.013061 -0.000003 -0.001341
# 5 -0.003925 -0.005677 -0.004809 -0.000003 0.041971 0.000005
# 6 -0.000001 -0.000001 -0.000001 -0.001341 0.000005 0.025682
#
#
# Mechanical properties :
#
#
# Convention : Reuss Voigt Hill
#
# Bulk Modulus (GPa) = 53.18757 79.84123 66.51440
# Shear Modulus (GPa) = 41.08000 51.50023 46.29012
#
# Velocity S-wave (km/s) = 3.85573 4.31714 4.09294
# Velocity P-wave (km/s) = 6.25064 7.33105 6.81230
#
# Compressibility (1/GPa) = 0.01880139
#
# Stress axis : x y z
#
# Youngs Moduli (GPa) = 117.26178 82.74601 162.50058
#
# Poissons Ratio (x) = 0.10969 0.11716
# Poissons Ratio (y) = 0.15544 0.31464
# Poissons Ratio (z) = 0.08454 0.16021
#
# Static dielectric constant tensor:
#      x y z
#    x 2.228280 -0.000030 -0.123240 
#    y -0.000030 2.437950 0.000020 
#    z -0.123240 0.000020 2.345540 
# 
# From -- ./inp_files/180415.got.cif
#   From: 2010.05.17/outbox.cif.g08.bks.cpg/sg15_91_cif.got.tgz:180415.got - 2010.06.03 18:47:42.
