data_PCOD9308558
_publ_section_title
;
Structure prediction by ZEFSAII (Michael W. Deem and Ramdas Pophale) SiO2 
 PCOD9308558
Probable space group: C 2/C
;
_chemical_formula_sum "Si O2"
_cell_formula_units_Z 64
_cell_length_a 28.226889
_cell_length_b 6.889040
_cell_length_c 17.214680
_cell_angle_alpha 90.000000
_cell_angle_beta 135.514170
_cell_angle_gamma 90.000000
_cell_volume 2345.703692
_symmetry_space_group_name_H-M "C 2/C"
_symmetry_group_IT_number 15
_symmetry_cell_setting 'monoclinic'
loop_
_space_group_symop_operation_xyz
x,y,z
-x,y,1/2-z
-x,-y,-z
x,-y,1/2+z
1/2+x,1/2+y,z
1/2-x,1/2+y,1/2-z
1/2-x,1/2-y,-z
1/2+x,1/2-y,1/2+z
loop_
_atom_site_type_symbol
_atom_site_label
_atom_site_fract_x
_atom_site_fract_y
_atom_site_fract_z
Si Si1 0.356160 0.256439 0.265932
Si Si2 0.130633 0.684560 0.581653
Si Si3 0.012378 0.835267 0.850570
Si Si4 0.841109 0.857208 0.418661
Si Si5 0.788402 0.663895 0.964469
Si Si6 0.799412 0.935919 0.528361
Si Si7 0.380254 0.711451 0.265482
Si Si8 0.490595 0.797825 0.830823
O O1 0.339653 0.235192 0.338164
O O2 0.282989 0.237553 0.141647
O O3 0.373925 0.486632 0.283412
O O4 0.418344 0.163303 0.289683
O O5 0.178576 0.583648 0.574500
O O6 0.142481 0.660249 0.687626
O O7 0.054356 0.647852 0.461311
O O8 0.150925 0.912933 0.592308
O O9 0.958883 0.742636 0.845505
O O10 0.000000 0.767083 0.750000
O O11 0.997545 0.064156 0.835614
O O12 0.088221 0.800255 0.960867
O O13 0.789620 0.849936 0.430975
O O14 0.765463 0.497754 0.996660
O O15 0.831433 0.846066 0.049099
O O16 0.845537 0.808658 0.640190
O O17 0.500000 0.857133 0.750000
#
# Coordination Sequence:
#
# PCOD9308558 Si02
#       8
#     8   8   8   8   8   8   8   8
#     4   9  17  26  37  57  84 115 140 174 209 252
#     4   9  17  26  37  57  84 115 140 174 209 252
#     4   9  13  19  35  57  80 108 137 160 187 241
#     4   9  15  24  37  57  83 111 144 166 201 250
#     4   9  18  26  40  57  84 116 143 174 216 244
#     4   9  16  25  40  58  78 110 144 176 202 248
#     4   9  15  24  37  57  83 111 144 166 201 250
#     4   9  17  23  37  56  85 114 143 168 205 250
#
# _framework density 27.283922
#
# number of rings (size 3 to 8) (size 9 to 14) (size 15 to 20)
#    0.000    3.000    1.250    0.750   12.250    3.000 
#    0.000    0.000    0.000    0.750    0.000    0.000 
#    0.000   18.000    0.000    0.000    0.000    0.000 
#
# Total GULP energy -178727.276046 kJ/mol
# GULP energy per Si atom -5585.227376 kJ/mol
# Density = 2.722182 g / cm^3
# Si number density = 27.283922 Si / 1000 Ang^3
#
#
#
# Elastic Constant Matrix: (Units=GPa)
#
#
# Indices 1 2 3 4 5 6 
#
# 1 219.2330 36.9887 101.1758 0.0000 -24.5772 0.0000
# 2 36.9887 83.5014 7.5419 0.0000 6.6990 -0.0001
# 3 101.1758 7.5419 123.1987 0.0000 -19.3218 0.0000
# 4 0.0000 0.0000 0.0000 7.6517 0.0000 -12.5777
# 5 -24.5772 6.6990 -19.3218 0.0000 46.8540 0.0000
# 6 0.0000 -0.0001 0.0000 -12.5777 0.0000 19.6548
#
#
#
# Elastic Compliance Matrix: (Units=1/GPa)
#
#
# Indices 1 2 3 4 5 6 
#
# 1 0.008225 -0.003261 -0.006207 0.000001 0.002221 0.000000
# 2 -0.003261 0.013544 0.001365 -0.000001 -0.003084 -0.000001
# 3 -0.006207 0.001365 0.013460 -0.000001 0.002100 0.000000
# 4 0.000001 -0.000001 -0.000001 -2.517330 0.000000 -1.610922
# 5 0.002221 -0.003084 0.002100 0.000000 0.023815 0.000000
# 6 0.000000 -0.000001 0.000000 -1.610922 0.000000 -0.980003
#
#
# Mechanical properties :
#
#
# Convention : Reuss Voigt Hill
#
# Bulk Modulus (GPa) = 52.56410 79.70508 66.13459
# Shear Modulus (GPa) = -1.46381 33.51386 16.02503
#
# Velocity S-wave (km/s) = -0.73326 3.50857 2.42615
# Velocity P-wave (km/s) = 4.31167 6.75944 5.66924
#
# Compressibility (1/GPa) = 0.01902439
#
# Stress axis : x y z
#
# Youngs Moduli (GPa) = 121.58191 73.83072 74.29496
#
# Poissons Ratio (x) = 0.24076 0.46112
# Poissons Ratio (y) = 0.39648 -0.10143
# Poissons Ratio (z) = 0.75462 -0.10079
#
# Static dielectric constant tensor:
#      x y z
#    x 2.156220 0.000000 -0.058710 
#    y 0.000000 2.214730 0.000000 
#    z -0.058710 0.000000 2.143580 
# 
# From -- ./inp_files/219159.got.cif
#   From: 2010.05.17/outbox.cif.g08.bks.cpg/sg15_110_cif.got.tgz:219159.got - 2010.06.03 18:47:42.
