data_PCOD9308033
_publ_section_title
;
Structure prediction by ZEFSAII (Michael W. Deem and Ramdas Pophale) SiO2 
 PCOD9308033
Probable space group: C 2/C
;
_chemical_formula_sum "Si O2"
_cell_formula_units_Z 40
_cell_length_a 24.132047
_cell_length_b 4.967461
_cell_length_c 14.209212
_cell_angle_alpha 90.000000
_cell_angle_beta 78.424967
_cell_angle_gamma 90.000000
_cell_volume 1668.688334
_symmetry_space_group_name_H-M "C 2/C"
_symmetry_group_IT_number 15
_symmetry_cell_setting 'monoclinic'
loop_
_space_group_symop_operation_xyz
x,y,z
-x,y,1/2-z
-x,-y,-z
x,-y,1/2+z
1/2+x,1/2+y,z
1/2-x,1/2+y,1/2-z
1/2-x,1/2-y,-z
1/2+x,1/2-y,1/2+z
loop_
_atom_site_type_symbol
_atom_site_label
_atom_site_fract_x
_atom_site_fract_y
_atom_site_fract_z
Si Si1 0.447687 0.867500 0.699393
Si Si2 0.829108 0.813281 0.517411
Si Si3 0.051766 0.134324 0.427870
Si Si4 0.725334 0.811158 0.864299
Si Si5 0.173392 0.438720 0.685334
O O1 0.500000 0.818310 0.750000
O O2 0.430973 0.589259 0.655080
O O3 0.465256 0.090276 0.617078
O O4 0.392320 0.983457 0.769660
O O5 0.894557 0.805012 0.525137
O O6 0.793489 0.600087 0.591201
O O7 0.823344 0.728133 0.411771
O O8 0.805218 0.101989 0.554916
O O9 0.000000 0.000000 0.500000
O O10 0.789740 0.709755 0.838867
O O11 0.700499 0.792830 0.767171
#
# Coordination Sequence:
#
# PCOD9308033 Si02
#       5
#     8   8   8   8   8
#     4  12  27  49  78 115 156 207 265 322 395 468
#     4  12  26  49  76 115 155 206 259 321 392 468
#     4  12  25  49  76 113 160 200 263 331 388 470
#     4  12  27  48  74 116 158 200 266 314 388 474
#     4  12  27  49  80 111 162 206 260 323 394 451
#
# _framework density 23.970922000000002
#
# number of rings (size 3 to 8) (size 9 to 14) (size 15 to 20)
#    0.000    0.000    4.000    4.800    0.000    8.000 
#    0.000    0.000    0.000    0.000    0.000    0.000 
#    0.000    0.000    0.000    0.000    0.000    0.000 
#
# Total GULP energy -112252.251453 kJ/mol
# GULP energy per Si atom -5612.612573 kJ/mol
# Density = 2.391636 g / cm^3
# Si number density = 23.970922 Si / 1000 Ang^3
#
#
#
# Elastic Constant Matrix: (Units=GPa)
#
#
# Indices 1 2 3 4 5 6 
#
# 1 187.5253 25.6045 69.9138 0.0000 11.3862 0.0000
# 2 25.6045 94.3858 22.7280 0.0000 22.6294 0.0000
# 3 69.9138 22.7280 145.3657 0.0000 21.4130 0.0000
# 4 0.0000 0.0000 0.0000 22.0806 0.0000 6.4259
# 5 11.3862 22.6294 21.4130 0.0000 44.0725 0.0000
# 6 0.0000 0.0000 0.0000 6.4259 0.0000 20.5036
#
#
#
# Elastic Compliance Matrix: (Units=1/GPa)
#
#
# Indices 1 2 3 4 5 6 
#
# 1 0.006604 -0.001144 -0.003051 0.000000 0.000364 0.000000
# 2 -0.001144 0.012431 -0.000535 0.000000 -0.005827 0.000000
# 3 -0.003051 -0.000535 0.008911 0.000000 -0.003267 0.000000
# 4 0.000000 0.000000 0.000000 0.049834 0.000000 -0.015618
# 5 0.000364 -0.005827 -0.003267 0.000000 0.027175 0.000000
# 6 0.000000 0.000000 0.000000 -0.015618 0.000000 0.053667
#
#
# Mechanical properties :
#
#
# Convention : Reuss Voigt Hill
#
# Bulk Modulus (GPa) = 54.09286 73.75216 63.92251
# Shear Modulus (GPa) = 28.69526 37.93338 33.31432
#
# Velocity S-wave (km/s) = 3.46365 3.98235 3.73202
# Velocity P-wave (km/s) = 6.21376 7.20969 6.73017
#
# Compressibility (1/GPa) = 0.01848673
#
# Stress axis : x y z
#
# Youngs Moduli (GPa) = 151.41818 80.44330 112.21541
#
# Poissons Ratio (x) = 0.09203 0.34237
# Poissons Ratio (y) = 0.17323 0.06003
# Poissons Ratio (z) = 0.46198 0.04304
#
# Static dielectric constant tensor:
#      x y z
#    x 1.881210 0.000000 -0.015940 
#    y 0.000000 1.900160 0.000000 
#    z -0.015940 0.000000 1.926950 
# 
# From -- ./inp_files/170484.got.cif
#   From: 2010.05.17/outbox.cif.g08.bks.cpg/sg15_86_cif.got.tgz:170484.got - 2010.06.03 18:47:42.
