data_PCOD9308536
_publ_section_title
;
Structure prediction by ZEFSAII (Michael W. Deem and Ramdas Pophale) SiO2 
 PCOD9308536
Probable space group: C 2/C
;
_chemical_formula_sum "Si O2"
_cell_formula_units_Z 36
_cell_length_a 18.316200
_cell_length_b 8.699560
_cell_length_c 21.555195
_cell_angle_alpha 90.000000
_cell_angle_beta 23.985668
_cell_angle_gamma 90.000000
_cell_volume 1396.219957
_symmetry_space_group_name_H-M "C 2/C"
_symmetry_group_IT_number 15
_symmetry_cell_setting 'monoclinic'
loop_
_space_group_symop_operation_xyz
x,y,z
-x,y,1/2-z
-x,-y,-z
x,-y,1/2+z
1/2+x,1/2+y,z
1/2-x,1/2+y,1/2-z
1/2-x,1/2-y,-z
1/2+x,1/2-y,1/2+z
loop_
_atom_site_type_symbol
_atom_site_label
_atom_site_fract_x
_atom_site_fract_y
_atom_site_fract_z
Si Si1 0.917772 0.633691 0.727433
Si Si2 0.405915 0.192464 0.596688
Si Si3 0.244187 0.535443 0.044516
Si Si4 0.792745 0.918307 0.770327
Si Si5 0.000000 0.818450 0.250000
O O1 0.914746 0.604612 0.656762
O O2 0.753834 0.570477 0.896072
O O3 0.896977 0.818723 0.741703
O O4 0.097494 0.556608 0.615835
O O5 0.597358 0.164536 0.418582
O O6 0.375369 0.366729 0.640408
O O7 0.249337 0.095748 0.685302
O O8 0.161363 0.695219 0.135010
O O9 0.413385 0.582161 0.872289
#
# Coordination Sequence:
#
# PCOD9308536 Si02
#       5
#     8   8   8   8   4
#     4   8  18  34  57  84 127 153 198 259 295 368
#     4   9  19  38  61  84 118 163 204 254 301 361
#     4   9  16  36  56  91 124 158 205 252 309 367
#     4   9  19  38  59  83 119 160 205 253 302 356
#     4   8  16  30  62  86 122 168 204 238 308 378
#
# _framework density 25.783902000000001
#
# number of rings (size 3 to 8) (size 9 to 14) (size 15 to 20)
#    1.333    2.222    0.000    0.000    0.000    0.889 
#    4.000   22.222    0.000    0.000    0.000    6.222 
#    0.000    7.111    0.000    0.000    0.000    0.000 
#
# Total GULP energy -100218.218747 kJ/mol
# GULP energy per Si atom -5567.678819 kJ/mol
# Density = 2.572522 g / cm^3
# Si number density = 25.783902 Si / 1000 Ang^3
#
#
#
# Elastic Constant Matrix: (Units=GPa)
#
#
# Indices 1 2 3 4 5 6 
#
# 1 59.6186 28.3165 46.2916 -0.0001 -2.1912 0.0000
# 2 28.3165 107.9823 47.6752 0.0004 -15.6959 -0.0002
# 3 46.2916 47.6752 143.8218 0.0027 14.9195 -0.0007
# 4 -0.0001 0.0004 0.0027 11.3055 0.0002 -5.5684
# 5 -2.1912 -15.6959 14.9195 0.0002 43.4566 0.0001
# 6 0.0000 -0.0002 -0.0007 -5.5684 0.0001 25.7395
#
#
#
# Elastic Compliance Matrix: (Units=1/GPa)
#
#
# Indices 1 2 3 4 5 6 
#
# 1 0.023560 -0.002737 -0.006944 0.000002 0.002583 0.000000
# 2 -0.002737 0.012511 -0.003858 0.000000 0.005706 0.000000
# 3 -0.006944 -0.003858 0.011041 -0.000003 -0.005534 0.000000
# 4 0.000002 0.000000 -0.000003 0.099002 0.000001 0.021418
# 5 0.002583 0.005706 -0.005534 0.000001 0.027103 0.000000
# 6 0.000000 0.000000 0.000000 0.021418 0.000000 0.043484
#
#
# Mechanical properties :
#
#
# Convention : Reuss Voigt Hill
#
# Bulk Modulus (GPa) = 49.91479 61.77660 55.84570
# Shear Modulus (GPa) = 19.96353 28.70963 24.33658
#
# Velocity S-wave (km/s) = 2.78558 3.34049 3.07558
# Velocity P-wave (km/s) = 5.45407 6.23618 5.85819
#
# Compressibility (1/GPa) = 0.02003414
#
# Stress axis : x y z
#
# Youngs Moduli (GPa) = 42.44518 79.92796 90.57019
#
# Poissons Ratio (x) = 0.21875 0.62891
# Poissons Ratio (y) = 0.11617 0.34945
# Poissons Ratio (z) = 0.29474 0.30839
#
# Static dielectric constant tensor:
#      x y z
#    x 2.055130 0.000000 -0.074860 
#    y 0.000000 2.069190 0.000000 
#    z -0.074860 0.000000 2.067640 
# 
# From -- ./inp_files/318384.got.cif
#   From: 2010.05.17/outbox.cif.g08.bks.cpg/sg15_160_cif.got.tgz:318384.got - 2010.06.03 18:47:42.
