data_PCOD9308965
_publ_section_title
;
Structure prediction by ZEFSAII (Michael W. Deem and Ramdas Pophale) SiO2 
 PCOD9308965
Probable space group: C 2/C
;
_chemical_formula_sum "Si O2"
_cell_formula_units_Z 20
_cell_length_a 12.000000
_cell_length_b 9.000000
_cell_length_c 18.000000
_cell_angle_alpha 90.000000
_cell_angle_beta 80.000000
_cell_angle_gamma 90.000000
_cell_volume 1914.466272
_symmetry_space_group_name_H-M "C 2/C"
_symmetry_group_IT_number 15
_symmetry_cell_setting 'monoclinic'
loop_
_space_group_symop_operation_xyz
x,y,z
-x,y,1/2-z
-x,-y,-z
x,-y,1/2+z
1/2+x,1/2+y,z
1/2-x,1/2+y,1/2-z
1/2-x,1/2-y,-z
1/2+x,1/2-y,1/2+z
loop_
_atom_site_type_symbol
_atom_site_label
_atom_site_fract_x
_atom_site_fract_y
_atom_site_fract_z
Si Si1 0.677497 0.849720 0.895890
Si Si2 0.250184 0.827922 0.112238
Si Si3 0.121060 0.921629 0.975857
Si Si4 0.331146 0.877777 0.427678
Si Si5 0.040145 0.635056 0.165762
O O1 0.800285 0.767957 0.883979
O O2 0.567773 0.792132 0.863920
O O3 0.702303 0.016666 0.864343
O O4 0.645774 0.851868 0.987770
O O5 0.356895 0.722129 0.078794
O O6 0.151740 0.737569 0.165628
O O7 0.178594 0.870661 0.046354
O O8 0.208928 0.042663 0.936056
O O9 0.000000 0.000000 0.000000
O O10 0.419944 0.994818 0.387129
O O11 0.000000 0.583305 0.250000
#
# Coordination Sequence:
#
# PCOD9308965 Si02
#       5
#     8   8   8   8   8
#     4  10  20  37  60  81 110 142 185 241 276 316
#     4   9  20  34  52  80 106 139 183 217 266 329
#     4   9  16  31  55  82 110 136 172 227 275 316
#     4   9  20  36  58  87 110 141 189 231 277 329
#     4  11  23  38  55  79 116 153 181 222 280 336
#
# _framework density 10.446776
#
# number of rings (size 3 to 8) (size 9 to 14) (size 15 to 20)
#    0.000    2.400    0.000    3.000    0.000    6.400 
#    0.000    1.000    0.000    0.000    0.000    0.000 
#    0.000    0.000    0.000    0.000    0.000    0.000 
#
# Total GULP energy -111425.366477 kJ/mol
# GULP energy per Si atom -5571.268324 kJ/mol
# Density = 1.042300 g / cm^3
# Si number density = 10.446776 Si / 1000 Ang^3
#
#
#
# Elastic Constant Matrix: (Units=GPa)
#
#
# Indices 1 2 3 4 5 6 
#
# 1 82.4736 -4.7651 12.4451 0.0000 6.2468 0.0000
# 2 -4.7651 58.1292 -1.3741 0.0000 -4.4654 0.0000
# 3 12.4451 -1.3741 29.3043 0.0000 2.3527 0.0000
# 4 0.0000 0.0000 0.0000 -0.2383 0.0000 4.3544
# 5 6.2468 -4.4654 2.3527 0.0000 15.2736 0.0000
# 6 0.0000 0.0000 0.0000 4.3544 0.0000 33.6534
#
#
#
# Elastic Compliance Matrix: (Units=1/GPa)
#
#
# Indices 1 2 3 4 5 6 
#
# 1 0.013291 0.000624 -0.005259 0.000000 -0.004444 0.000000
# 2 0.000624 0.017633 0.000171 0.000000 0.004874 0.000000
# 3 -0.005259 0.000171 0.036642 0.000000 -0.003444 0.000000
# 4 0.000000 0.000000 0.000000 -1.247384 0.000000 0.161400
# 5 -0.004444 0.004874 -0.003444 0.000000 0.069245 0.000000
# 6 0.000000 0.000000 0.000000 0.161400 0.000000 0.008831
#
#
# Mechanical properties :
#
#
# Convention : Reuss Voigt Hill
#
# Bulk Modulus (GPa) = 17.05380 20.27988 18.66684
# Shear Modulus (GPa) = -4.65867 20.64450 7.99291
#
# Velocity S-wave (km/s) = -1.49484 3.14678 1.95802
# Velocity P-wave (km/s) = 2.28047 4.78857 3.75039
#
# Compressibility (1/GPa) = 0.05863795
#
# Stress axis : x y z
#
# Youngs Moduli (GPa) = 75.23770 56.71304 27.29083
#
# Poissons Ratio (x) = -0.03538 0.14351
# Poissons Ratio (y) = -0.04694 -0.00465
# Poissons Ratio (z) = 0.39564 -0.00967
#
# Static dielectric constant tensor:
#      x y z
#    x 1.744990 0.000000 -0.034850 
#    y 0.000000 2.008230 0.000000 
#    z -0.034850 0.000000 1.771150 
# 
# From -- ./inp_files/195069.got.cif
#   From: 2010.05.17/outbox.ucp.g08.bks.cvg/sg15_98_cif.got.tgz:195069.got - 2010.06.11 12:40:34.
