data_PCOD9308373
_publ_section_title
;
Structure prediction by ZEFSAII (Michael W. Deem and Ramdas Pophale) SiO2 
 PCOD9308373
Probable space group: C 2/C
;
_chemical_formula_sum "Si O2"
_cell_formula_units_Z 32
_cell_length_a 10.610535
_cell_length_b 8.926909
_cell_length_c 13.460059
_cell_angle_alpha 90.000000
_cell_angle_beta 111.807042
_cell_angle_gamma 90.000000
_cell_volume 1183.693544
_symmetry_space_group_name_H-M "C 2/C"
_symmetry_group_IT_number 15
_symmetry_cell_setting 'monoclinic'
loop_
_space_group_symop_operation_xyz
x,y,z
-x,y,1/2-z
-x,-y,-z
x,-y,1/2+z
1/2+x,1/2+y,z
1/2-x,1/2+y,1/2-z
1/2-x,1/2-y,-z
1/2+x,1/2-y,1/2+z
loop_
_atom_site_type_symbol
_atom_site_label
_atom_site_fract_x
_atom_site_fract_y
_atom_site_fract_z
Si Si1 0.334882 0.390143 0.485231
Si Si2 0.502275 0.151009 0.065529
Si Si3 0.352449 0.052268 0.753222
Si Si4 0.354823 0.650759 0.651417
O O1 0.250000 0.250000 0.500000
O O2 0.466909 0.300775 0.486723
O O3 0.257272 0.449078 0.365776
O O4 0.346839 0.507680 0.576325
O O5 0.373248 0.199197 0.091800
O O6 0.613930 0.103957 0.181081
O O7 0.500000 0.000000 0.000000
O O8 0.500000 0.101416 0.750000
O O9 0.277367 0.147783 0.817240
O O10 0.500000 0.632408 0.750000
#
# Coordination Sequence:
#
# PCOD9308373 Si02
#       4
#     8   8   8   8
#     4  12  27  53  85 126 171 230 289 357 437 527
#     4  12  28  53  85 128 170 226 294 361 437 522
#     4  12  29  52  84 125 175 219 293 355 433 522
#     4  12  28  55  91 122 174 231 290 358 446 515
#
# _framework density 27.034023999999999
#
# number of rings (size 3 to 8) (size 9 to 14) (size 15 to 20)
#    0.000    0.000    5.000    3.000    0.000    6.000 
#    0.000    0.000    0.000    0.000    0.000    0.000 
#    0.000    0.000    0.000    0.000    0.000    0.000 
#
# Total GULP energy -89635.274616 kJ/mol
# GULP energy per Si atom -5602.204663 kJ/mol
# Density = 2.697249 g / cm^3
# Si number density = 27.034024 Si / 1000 Ang^3
#
#
#
# Elastic Constant Matrix: (Units=GPa)
#
#
# Indices 1 2 3 4 5 6 
#
# 1 213.1273 72.1748 55.5399 0.0000 -39.3066 0.0000
# 2 72.1748 164.1577 78.3922 0.0000 -18.4387 0.0000
# 3 55.5399 78.3922 161.9577 0.0000 -1.7571 0.0000
# 4 0.0000 0.0000 0.0000 51.7837 0.0000 -3.9549
# 5 -39.3066 -18.4387 -1.7571 0.0000 62.6514 0.0000
# 6 0.0000 0.0000 0.0000 -3.9549 0.0000 70.5214
#
#
#
# Elastic Compliance Matrix: (Units=1/GPa)
#
#
# Indices 1 2 3 4 5 6 
#
# 1 0.006235 -0.001770 -0.001245 0.000000 0.003356 0.000000
# 2 -0.001770 0.008748 -0.003613 0.000000 0.001363 0.000000
# 3 -0.001245 -0.003613 0.008333 0.000000 -0.001611 0.000000
# 4 0.000000 0.000000 0.000000 0.019394 0.000000 0.001088
# 5 0.003356 0.001363 -0.001611 0.000000 0.018423 0.000000
# 6 0.000000 0.000000 0.000000 0.001088 0.000000 0.014241
#
#
# Mechanical properties :
#
#
# Convention : Reuss Voigt Hill
#
# Bulk Modulus (GPa) = 99.39838 105.71736 102.55787
# Shear Modulus (GPa) = 54.35871 59.20037 56.77954
#
# Velocity S-wave (km/s) = 4.48901 4.68466 4.58787
# Velocity P-wave (km/s) = 7.98223 8.27354 8.12919
#
# Compressibility (1/GPa) = 0.01006053
#
# Stress axis : x y z
#
# Youngs Moduli (GPa) = 160.39282 114.31094 120.01090
#
# Poissons Ratio (x) = 0.20229 0.14942
# Poissons Ratio (y) = 0.28384 0.43356
# Poissons Ratio (z) = 0.19970 0.41297
#
# Static dielectric constant tensor:
#      x y z
#    x 2.128660 0.000000 -0.299490 
#    y 0.000000 2.066820 0.000000 
#    z -0.299490 0.000000 1.927790 
# 
# From -- ./inp_files/140816.got.cif
#   From: 2010.05.17/outbox.cif.g08.bks.cpg/sg15_71_cif.got.tgz:140816.got - 2010.06.03 18:47:42.
