data_PCOD9308306
_publ_section_title
;
Structure prediction by ZEFSAII (Michael W. Deem and Ramdas Pophale) SiO2 
 PCOD9308306
Probable space group: C 2/C
;
_chemical_formula_sum "Si O2"
_cell_formula_units_Z 32
_cell_length_a 14.369649
_cell_length_b 11.495674
_cell_length_c 8.756045
_cell_angle_alpha 90.000000
_cell_angle_beta 109.273301
_cell_angle_gamma 90.000000
_cell_volume 1365.336853
_symmetry_space_group_name_H-M "C 2/C"
_symmetry_group_IT_number 15
_symmetry_cell_setting 'monoclinic'
loop_
_space_group_symop_operation_xyz
x,y,z
-x,y,1/2-z
-x,-y,-z
x,-y,1/2+z
1/2+x,1/2+y,z
1/2-x,1/2+y,1/2-z
1/2-x,1/2-y,-z
1/2+x,1/2-y,1/2+z
loop_
_atom_site_type_symbol
_atom_site_label
_atom_site_fract_x
_atom_site_fract_y
_atom_site_fract_z
Si Si1 0.701242 0.948822 0.454325
Si Si2 0.079328 0.724028 0.069323
Si Si3 0.834251 0.925817 0.236647
Si Si4 0.000000 0.549720 0.250000
Si Si5 0.000000 0.882596 0.750000
O O1 0.674662 0.843860 0.554120
O O2 0.784379 0.925377 0.375425
O O3 0.745526 0.056812 0.571565
O O4 0.598926 0.976132 0.316780
O O5 0.108697 0.804985 0.228452
O O6 0.008850 0.626521 0.101852
O O7 0.031222 0.801783 0.909723
O O8 0.910364 0.032010 0.251426
#
# Coordination Sequence:
#
# PCOD9308306 Si02
#       5
#     8   8   8   4   4
#     4  12  27  49  73 107 148 190 245 297 354 434
#     4  12  27  47  75 106 149 193 235 299 367 415
#     4  12  27  48  75 106 148 191 243 296 358 431
#     4  12  28  48  74 110 146 190 244 296 358 434
#     4  12  28  48  74 110 150 184 244 302 352 436
#
# _framework density 23.437439999999999
#
# number of rings (size 3 to 8) (size 9 to 14) (size 15 to 20)
#    0.000    0.000    5.000    3.750    7.000    1.000 
#    0.000    0.000    0.000    0.000    0.000    0.000 
#    0.000    0.000    0.000    0.000    0.000    0.000 
#
# Total GULP energy -89564.637770 kJ/mol
# GULP energy per Si atom -5597.789861 kJ/mol
# Density = 2.338410 g / cm^3
# Si number density = 23.437440 Si / 1000 Ang^3
#
#
#
# Elastic Constant Matrix: (Units=GPa)
#
#
# Indices 1 2 3 4 5 6 
#
# 1 114.2379 26.7956 18.2900 0.0000 -8.1455 0.0000
# 2 26.7956 80.9830 17.7104 0.0000 9.4303 0.0000
# 3 18.2900 17.7104 52.3607 0.0000 22.0144 0.0000
# 4 0.0000 0.0000 0.0000 39.7225 0.0000 -6.4936
# 5 -8.1455 9.4303 22.0144 0.0000 50.6806 0.0000
# 6 0.0000 0.0000 0.0000 -6.4936 0.0000 28.5648
#
#
#
# Elastic Compliance Matrix: (Units=1/GPa)
#
#
# Indices 1 2 3 4 5 6 
#
# 1 0.010449 -0.002981 -0.004381 0.000000 0.004137 0.000000
# 2 -0.002981 0.014202 -0.002997 0.000000 -0.001820 0.000000
# 3 -0.004381 -0.002997 0.026553 0.000000 -0.011681 0.000000
# 4 0.000000 0.000000 0.000000 0.026146 0.000000 0.005944
# 5 0.004137 -0.001820 -0.011681 0.000000 0.025809 0.000000
# 6 0.000000 0.000000 0.000000 0.005944 0.000000 0.036359
#
#
# Mechanical properties :
#
#
# Convention : Reuss Voigt Hill
#
# Bulk Modulus (GPa) = 32.80215 41.46374 37.13294
# Shear Modulus (GPa) = 29.34270 36.11261 32.72766
#
# Velocity S-wave (km/s) = 3.54214 3.92957 3.74088
# Velocity P-wave (km/s) = 5.54572 6.19018 5.87679
#
# Compressibility (1/GPa) = 0.03048581
#
# Stress axis : x y z
#
# Youngs Moduli (GPa) = 95.69973 70.41243 37.65994
#
# Poissons Ratio (x) = 0.20991 0.16499
# Poissons Ratio (y) = 0.28529 0.11288
# Poissons Ratio (z) = 0.41928 0.21104
#
# Static dielectric constant tensor:
#      x y z
#    x 1.841850 0.000000 -0.029700 
#    y 0.000000 1.893160 0.000000 
#    z -0.029700 0.000000 1.873730 
# 
# From -- ./inp_files/36520.got.cif
#   From: 2010.05.17/outbox.cif.g08.bks.cpg/sg15_19_cif.got.tgz:36520.got - 2010.06.03 18:47:42.
