data_PCOD9308240
_publ_section_title
;
Structure prediction by ZEFSAII (Michael W. Deem and Ramdas Pophale) SiO2 
 PCOD9308240
Probable space group: C 2/C
;
_chemical_formula_sum "Si O2"
_cell_formula_units_Z 36
_cell_length_a 20.494477
_cell_length_b 4.956307
_cell_length_c 19.145449
_cell_angle_alpha 90.000000
_cell_angle_beta 48.871042
_cell_angle_gamma 90.000000
_cell_volume 1464.835343
_symmetry_space_group_name_H-M "C 2/C"
_symmetry_group_IT_number 15
_symmetry_cell_setting 'monoclinic'
loop_
_space_group_symop_operation_xyz
x,y,z
-x,y,1/2-z
-x,-y,-z
x,-y,1/2+z
1/2+x,1/2+y,z
1/2-x,1/2+y,1/2-z
1/2-x,1/2-y,-z
1/2+x,1/2-y,1/2+z
loop_
_atom_site_type_symbol
_atom_site_label
_atom_site_fract_x
_atom_site_fract_y
_atom_site_fract_z
Si Si1 0.763379 0.340094 0.695419
Si Si2 0.824688 0.156230 0.392958
Si Si3 0.568098 0.690922 0.588079
Si Si4 0.500000 0.995350 0.750000
Si Si5 0.931067 0.325826 0.505891
O O1 0.777149 0.625149 0.723261
O O2 0.711828 0.368128 0.659299
O O3 0.857035 0.222748 0.608910
O O4 0.750000 0.250000 0.500000
O O5 0.913522 0.331326 0.323412
O O6 0.861138 0.890497 0.404549
O O7 0.489414 0.811966 0.688415
O O8 0.542782 0.430652 0.559633
O O9 0.605879 0.935661 0.516683
O O10 0.000000 0.500000 0.500000
#
# Coordination Sequence:
#
# PCOD9308240 Si02
#       5
#     8   8   8   4   8
#     4  12  30  50  78 116 161 208 261 336 405 476
#     4  12  28  55  83 117 167 211 279 334 406 488
#     4  12  26  50  79 115 151 215 268 331 397 483
#     4  12  28  46  84 120 152 210 276 340 392 476
#     4  12  28  50  78 114 161 208 262 328 412 477
#
# _framework density 24.576139999999999
#
# number of rings (size 3 to 8) (size 9 to 14) (size 15 to 20)
#    0.000    0.000    4.444    2.667    6.222    3.556 
#    0.000    0.000    0.000    0.000    0.000    0.000 
#    0.000    0.000    0.000    0.000    0.000    0.000 
#
# Total GULP energy -100743.149302 kJ/mol
# GULP energy per Si atom -5596.841628 kJ/mol
# Density = 2.452020 g / cm^3
# Si number density = 24.576140 Si / 1000 Ang^3
#
#
#
# Elastic Constant Matrix: (Units=GPa)
#
#
# Indices 1 2 3 4 5 6 
#
# 1 131.1216 35.8622 53.1456 0.1997 19.3702 0.2956
# 2 35.8622 141.4808 50.7928 0.2771 11.1063 0.2566
# 3 53.1456 50.7928 135.4346 0.1130 3.5006 -0.0468
# 4 0.1997 0.2771 0.1130 55.3924 -0.0652 19.1645
# 5 19.3702 11.1063 3.5006 -0.0652 38.1410 0.1387
# 6 0.2956 0.2566 -0.0468 19.1645 0.1387 38.4800
#
#
#
# Elastic Compliance Matrix: (Units=1/GPa)
#
#
# Indices 1 2 3 4 5 6 
#
# 1 0.009932 -0.000936 -0.003431 -0.000011 -0.004456 -0.000053
# 2 -0.000936 0.008428 -0.002749 -0.000023 -0.001727 -0.000035
# 3 -0.003431 -0.002749 0.009718 -0.000011 0.001651 0.000056
# 4 -0.000011 -0.000023 -0.000011 0.021812 0.000090 -0.010863
# 5 -0.004456 -0.001727 0.001651 0.000090 0.028833 -0.000101
# 6 -0.000053 -0.000035 0.000056 -0.010863 -0.000101 0.031399
#
#
# Mechanical properties :
#
#
# Convention : Reuss Voigt Hill
#
# Bulk Modulus (GPa) = 72.22185 76.40423 74.31304
# Shear Modulus (GPa) = 38.76915 44.28511 41.52713
#
# Velocity S-wave (km/s) = 3.97610 4.24955 4.11510
# Velocity P-wave (km/s) = 7.10844 7.43199 7.27202
#
# Compressibility (1/GPa) = 0.01384623
#
# Stress axis : x y z
#
# Youngs Moduli (GPa) = 100.68911 118.65490 102.89812
#
# Poissons Ratio (x) = 0.11102 0.35306
# Poissons Ratio (y) = 0.09421 0.28286
# Poissons Ratio (z) = 0.34548 0.32617
#
# Static dielectric constant tensor:
#      x y z
#    x 2.022000 -0.000080 0.011170 
#    y -0.000080 2.051280 -0.000060 
#    z 0.011170 -0.000060 1.966340 
# 
# From -- ./inp_files/250737.got.cif
#   From: 2010.05.17/outbox.cif.g08.bks.cpg/sg15_126_cif.got.tgz:250737.got - 2010.06.03 18:47:42.
