data_PCOD9308003
_publ_section_title
;
Structure prediction by ZEFSAII (Michael W. Deem and Ramdas Pophale) SiO2 
 PCOD9308003
Probable space group: C 2/C
;
_chemical_formula_sum "Si O2"
_cell_formula_units_Z 32
_cell_length_a 24.905966
_cell_length_b 4.845795
_cell_length_c 18.838944
_cell_angle_alpha 90.000000
_cell_angle_beta 146.164837
_cell_angle_gamma 90.000000
_cell_volume 1265.984812
_symmetry_space_group_name_H-M "C 2/C"
_symmetry_group_IT_number 15
_symmetry_cell_setting 'monoclinic'
loop_
_space_group_symop_operation_xyz
x,y,z
-x,y,1/2-z
-x,-y,-z
x,-y,1/2+z
1/2+x,1/2+y,z
1/2-x,1/2+y,1/2-z
1/2-x,1/2-y,-z
1/2+x,1/2-y,1/2+z
loop_
_atom_site_type_symbol
_atom_site_label
_atom_site_fract_x
_atom_site_fract_y
_atom_site_fract_z
Si Si1 0.930928 0.177730 0.320378
Si Si2 0.254148 0.182714 0.922032
Si Si3 0.790040 0.579335 0.753319
Si Si4 0.028739 0.693133 0.360357
O O1 0.897555 0.299848 0.359741
O O2 0.761550 0.557480 0.147219
O O3 0.010379 0.941836 0.395336
O O4 0.832707 0.025783 0.188257
O O5 0.461767 0.937258 0.307373
O O6 0.362109 0.089645 0.022947
O O7 0.250000 0.250000 0.000000
O O8 0.777394 0.326307 0.793611
O O9 0.000000 0.796215 0.250000
#
# Coordination Sequence:
#
# PCOD9308003 Si02
#       4
#     8   8   8   8
#     4  12  25  48  71 111 153 192 252 308 375 447
#     4  12  27  49  82 114 150 204 251 319 384 442
#     4  12  25  50  78 105 154 211 248 311 382 452
#     4  12  26  43  74 115 153 192 251 315 381 450
#
# _framework density 25.276762999999999
#
# number of rings (size 3 to 8) (size 9 to 14) (size 15 to 20)
#    0.000    0.000    7.500    0.750    3.500    2.000 
#    0.000    7.500    0.000    0.000    0.000    0.000 
#    0.000    0.000    0.000    0.000    0.000    0.000 
#
# Total GULP energy -89617.477837 kJ/mol
# GULP energy per Si atom -5601.092365 kJ/mol
# Density = 2.521923 g / cm^3
# Si number density = 25.276763 Si / 1000 Ang^3
#
#
#
# Elastic Constant Matrix: (Units=GPa)
#
#
# Indices 1 2 3 4 5 6 
#
# 1 201.4422 93.6915 60.4367 0.0003 18.6137 0.0003
# 2 93.6915 156.1612 17.0766 0.0013 8.5540 0.0014
# 3 60.4367 17.0766 70.2092 0.0004 20.8294 0.0002
# 4 0.0003 0.0013 0.0004 27.0962 0.0002 19.8557
# 5 18.6137 8.5540 20.8294 0.0002 57.0769 0.0001
# 6 0.0003 0.0014 0.0002 19.8557 0.0001 61.2551
#
#
#
# Elastic Compliance Matrix: (Units=1/GPa)
#
#
# Indices 1 2 3 4 5 6 
#
# 1 0.009230 -0.004801 -0.006838 0.000000 0.000205 0.000000
# 2 -0.004801 0.009086 0.002088 0.000000 -0.000558 0.000000
# 3 -0.006838 0.002088 0.021366 0.000000 -0.005880 0.000000
# 4 0.000000 0.000000 0.000000 0.048403 0.000000 -0.015690
# 5 0.000205 -0.000558 -0.005880 0.000000 0.019683 0.000000
# 6 0.000000 0.000000 0.000000 -0.015690 0.000000 0.021411
#
#
# Mechanical properties :
#
#
# Convention : Reuss Voigt Hill
#
# Bulk Modulus (GPa) = 48.58976 85.58025 67.08501
# Shear Modulus (GPa) = 32.22876 46.19282 39.21079
#
# Velocity S-wave (km/s) = 3.57464 4.27954 3.94287
# Velocity P-wave (km/s) = 6.02513 7.63872 6.87940
#
# Compressibility (1/GPa) = 0.02058047
#
# Stress axis : x y z
#
# Youngs Moduli (GPa) = 108.34409 110.05561 46.80302
#
# Poissons Ratio (x) = 0.52838 0.32005
# Poissons Ratio (y) = 0.52017 -0.09774
# Poissons Ratio (z) = 0.74088 -0.22984
#
# Static dielectric constant tensor:
#      x y z
#    x 2.031100 0.000000 0.019390 
#    y 0.000000 1.983200 0.000000 
#    z 0.019390 0.000000 1.988460 
# 
# From -- ./inp_files/282939.got.cif
#   From: 2010.05.17/outbox.cif.g08.bks.cpg/sg15_142_cif.got.tgz:282939.got - 2010.06.03 18:47:42.
