data_PCOD9308991
_publ_section_title
;
Structure prediction by ZEFSAII (Michael W. Deem and Ramdas Pophale) SiO2 
 PCOD9308991
Probable space group: C 2/C
;
_chemical_formula_sum "Si O2"
_cell_formula_units_Z 18
_cell_length_a 30.000000
_cell_length_b 6.000000
_cell_length_c 15.000000
_cell_angle_alpha 90.000000
_cell_angle_beta 40.000000
_cell_angle_gamma 90.000000
_cell_volume 1735.526546
_symmetry_space_group_name_H-M "C 2/C"
_symmetry_group_IT_number 15
_symmetry_cell_setting 'monoclinic'
loop_
_space_group_symop_operation_xyz
x,y,z
-x,y,1/2-z
-x,-y,-z
x,-y,1/2+z
1/2+x,1/2+y,z
1/2-x,1/2+y,1/2-z
1/2-x,1/2-y,-z
1/2+x,1/2-y,1/2+z
loop_
_atom_site_type_symbol
_atom_site_label
_atom_site_fract_x
_atom_site_fract_y
_atom_site_fract_z
Si Si1 0.296162 0.936842 0.478378
Si Si2 0.583454 0.600825 0.218596
Si Si3 0.961218 0.403914 0.471001
Si Si4 0.500000 0.234281 0.250000
Si Si5 0.834628 0.805075 0.270373
O O1 0.250000 0.750000 0.500000
O O2 0.364691 0.791532 0.401559
O O3 0.241853 0.074440 0.626372
O O4 0.320551 0.113788 0.366146
O O5 0.510799 0.707841 0.359291
O O6 0.562371 0.394630 0.188092
O O7 0.619997 0.494766 0.249636
O O8 0.969474 0.587103 0.378995
O O9 0.884873 0.309054 0.618011
O O10 0.000000 0.500000 0.500000
#
# Coordination Sequence:
#
# PCOD9308991 Si02
#       5
#     8   8   8   4   8
#     4   9  19  35  62 102 123 172 217 271 337 425
#     4  11  21  39  63 102 133 167 230 289 344 410
#     4  12  23  41  65 103 135 175 232 289 345 414
#     4  12  26  36  62 106 136 182 222 304 354 404
#     4  10  20  37  66  99 129 173 224 276 343 415
#
# _framework density 10.371492
#
# number of rings (size 3 to 8) (size 9 to 14) (size 15 to 20)
#    0.000    1.333    4.444    1.333    0.000    0.000 
#    0.000    0.000    0.000    0.000  260.000    0.000 
#    0.000    0.000    0.000    0.000    0.000    0.000 
#
# Total GULP energy -100439.814450 kJ/mol
# GULP energy per Si atom -5579.989692 kJ/mol
# Density = 1.034789 g / cm^3
# Si number density = 10.371492 Si / 1000 Ang^3
#
#
#
# Elastic Constant Matrix: (Units=GPa)
#
#
# Indices 1 2 3 4 5 6 
#
# 1 47.8652 26.7659 44.0367 0.0028 4.5688 0.0020
# 2 26.7659 127.1161 72.9607 -0.0435 0.1690 -0.0081
# 3 44.0367 72.9607 196.3778 -0.0283 -18.7679 -0.0054
# 4 0.0028 -0.0435 -0.0283 51.4337 -0.0060 -17.7875
# 5 4.5688 0.1690 -18.7679 -0.0060 35.4814 0.0007
# 6 0.0020 -0.0081 -0.0054 -17.7875 0.0007 55.9833
#
#
#
# Elastic Compliance Matrix: (Units=1/GPa)
#
#
# Indices 1 2 3 4 5 6 
#
# 1 0.028602 -0.002481 -0.006154 -0.000010 -0.006926 -0.000005
# 2 -0.002481 0.010368 -0.003444 0.000008 -0.001552 0.000004
# 3 -0.006154 -0.003444 0.008246 0.000003 0.005171 0.000001
# 4 -0.000010 0.000008 0.000003 0.021843 0.000006 0.006940
# 5 -0.006926 -0.001552 0.005171 0.000006 0.031818 0.000002
# 6 -0.000005 0.000004 0.000001 0.006940 0.000002 0.020068
#
#
# Mechanical properties :
#
#
# Convention : Reuss Voigt Hill
#
# Bulk Modulus (GPa) = 43.36884 73.20952 58.28918
# Shear Modulus (GPa) = 32.72488 43.75275 38.23881
#
# Velocity S-wave (km/s) = 3.97626 4.59767 4.29821
# Velocity P-wave (km/s) = 6.48336 7.97214 7.26598
#
# Compressibility (1/GPa) = 0.02305803
#
# Stress axis : x y z
#
# Youngs Moduli (GPa) = 34.96209 96.45007 121.27177
#
# Poissons Ratio (x) = 0.23931 0.74632
# Poissons Ratio (y) = 0.08675 0.41766
# Poissons Ratio (z) = 0.21516 0.33217
#
# Static dielectric constant tensor:
#      x y z
#    x 1.795170 0.000000 -0.029360 
#    y 0.000000 1.792100 0.000010 
#    z -0.029360 0.000010 1.747720 
# 
# From -- ./inp_files/165061.got.cif
#   From: 2010.05.17/outbox.ucp.g08.bks.cvg/sg15_83_cif.got.tgz:165061.got - 2010.06.11 12:40:34.
