data_PCOD9308735
_publ_section_title
;
Structure prediction by ZEFSAII (Michael W. Deem and Ramdas Pophale) SiO2 
 PCOD9308735
Probable space group: C 2/C
;
_chemical_formula_sum "Si O2"
_cell_formula_units_Z 24
_cell_length_a 27.000000
_cell_length_b 9.000000
_cell_length_c 15.000000
_cell_angle_alpha 90.000000
_cell_angle_beta 40.000000
_cell_angle_gamma 90.000000
_cell_volume 2342.960837
_symmetry_space_group_name_H-M "C 2/C"
_symmetry_group_IT_number 15
_symmetry_cell_setting 'monoclinic'
loop_
_space_group_symop_operation_xyz
x,y,z
-x,y,1/2-z
-x,-y,-z
x,-y,1/2+z
1/2+x,1/2+y,z
1/2-x,1/2+y,1/2-z
1/2-x,1/2-y,-z
1/2+x,1/2-y,1/2+z
loop_
_atom_site_type_symbol
_atom_site_label
_atom_site_fract_x
_atom_site_fract_y
_atom_site_fract_z
Si Si1 0.073578 0.797954 0.694576
Si Si2 0.301190 0.100503 0.061927
Si Si3 0.128177 0.800957 0.817542
Si Si4 0.334066 0.816822 0.901217
Si Si5 0.685169 0.961201 0.754928
Si Si6 0.372336 0.420479 0.483141
O O1 0.153083 0.713823 0.563095
O O2 0.074995 0.817826 0.801079
O O3 0.000000 0.716140 0.750000
O O4 0.082115 0.939959 0.617883
O O5 0.209551 0.119927 0.183199
O O6 0.326329 0.109581 0.131079
O O7 0.323047 0.945006 0.988772
O O8 0.151800 0.628182 0.799549
O O9 0.104814 0.866068 0.948122
O O10 0.354406 0.877578 0.774584
O O11 0.250000 0.750000 0.000000
O O12 0.383318 0.698200 0.887987
O O13 0.779268 0.957863 0.614164
#
# Coordination Sequence:
#
# PCOD9308735 Si02
#       6
#     8   8   8   8   8   8
#     4  12  26  42  60  88 129 172 204 244 307 376
#     4  11  21  37  64  93 122 154 210 254 308 366
#     4  11  20  38  67  91 120 160 204 264 310 346
#     4  10  19  33  59  94 123 149 196 258 313 357
#     4  10  19  34  64  97 119 151 201 263 310 354
#     4  10  22  37  60  94 123 155 206 257 306 362
#
# _framework density 10.243449
#
# number of rings (size 3 to 8) (size 9 to 14) (size 15 to 20)
#    0.000    1.333    5.000    2.500    0.000    2.000 
#    0.000    1.667    0.000    0.000    0.000    0.000 
#    0.000    0.000    0.000    0.000    0.000    0.000 
#
# Total GULP energy -133774.853703 kJ/mol
# GULP energy per Si atom -5573.952238 kJ/mol
# Density = 1.022013 g / cm^3
# Si number density = 10.243449 Si / 1000 Ang^3
#
#
#
# Elastic Constant Matrix: (Units=GPa)
#
#
# Indices 1 2 3 4 5 6 
#
# 1 113.1971 -19.4589 17.1897 0.0008 30.4901 -0.0003
# 2 -19.4589 38.2676 -1.6851 0.0018 6.5769 -0.0005
# 3 17.1897 -1.6851 34.7174 0.0009 24.1315 -0.0003
# 4 0.0008 0.0018 0.0009 18.9364 0.0002 17.8128
# 5 30.4901 6.5769 24.1315 0.0002 30.2463 -0.0002
# 6 -0.0003 -0.0005 -0.0003 17.8128 -0.0002 28.1995
#
#
#
# Elastic Compliance Matrix: (Units=1/GPa)
#
#
# Indices 1 2 3 4 5 6 
#
# 1 0.018609 0.016158 0.015831 -0.000007 -0.034903 0.000005
# 2 0.016158 0.043678 0.027036 -0.000016 -0.047356 0.000011
# 3 0.015831 0.027036 0.084089 -0.000017 -0.088926 0.000012
# 4 -0.000007 -0.000016 -0.000017 0.130131 0.000023 -0.082200
# 5 -0.034903 -0.047356 -0.088926 0.000023 0.149491 -0.000016
# 6 0.000005 0.000011 0.000012 -0.082200 -0.000016 0.087385
#
#
# Mechanical properties :
#
#
# Convention : Reuss Voigt Hill
#
# Bulk Modulus (GPa) = 3.78180 19.80817 11.79498
# Shear Modulus (GPa) = 10.34183 28.15221 19.24702
#
# Velocity S-wave (km/s) = 2.24922 3.71098 3.06842
# Velocity P-wave (km/s) = 2.93177 5.29637 4.28059
#
# Compressibility (1/GPa) = 0.26442442
#
# Stress axis : x y z
#
# Youngs Moduli (GPa) = 53.73750 22.89508 11.89221
#
# Poissons Ratio (x) = -0.36994 -0.18826
# Poissons Ratio (y) = -0.86830 -0.32152
# Poissons Ratio (z) = -0.85070 -0.61899
#
# Static dielectric constant tensor:
#      x y z
#    x 1.688180 0.000000 0.023870 
#    y 0.000000 1.784740 0.000000 
#    z 0.023870 0.000000 1.698270 
# 
# From -- ./inp_files/166153.got.cif
#   From: 2010.05.17/outbox.ucp.g08.bks.cvg/sg15_84_cif.got.tgz:166153.got - 2010.06.11 12:40:34.
