data_PCOD9308599
_publ_section_title
;
Structure prediction by ZEFSAII (Michael W. Deem and Ramdas Pophale) SiO2 
 PCOD9308599
Probable space group: C 2/C
;
_chemical_formula_sum "Si O2"
_cell_formula_units_Z 32
_cell_length_a 13.465341
_cell_length_b 11.588531
_cell_length_c 13.901663
_cell_angle_alpha 90.000000
_cell_angle_beta 33.356771
_cell_angle_gamma 90.000000
_cell_volume 1192.771578
_symmetry_space_group_name_H-M "C 2/C"
_symmetry_group_IT_number 15
_symmetry_cell_setting 'monoclinic'
loop_
_space_group_symop_operation_xyz
x,y,z
-x,y,1/2-z
-x,-y,-z
x,-y,1/2+z
1/2+x,1/2+y,z
1/2-x,1/2+y,1/2-z
1/2-x,1/2-y,-z
1/2+x,1/2-y,1/2+z
loop_
_atom_site_type_symbol
_atom_site_label
_atom_site_fract_x
_atom_site_fract_y
_atom_site_fract_z
Si Si1 0.084649 0.714592 0.495790
Si Si2 0.765359 0.067425 0.661489
Si Si3 0.477368 0.852670 0.667023
Si Si4 0.672171 0.499922 0.676033
O O1 0.114701 0.846934 0.499424
O O2 0.243649 0.628391 0.396888
O O3 0.905757 0.651153 0.676932
O O4 0.074894 0.715000 0.386686
O O5 0.144982 0.968085 0.310234
O O6 0.675730 0.951334 0.693506
O O7 0.500000 0.788927 0.750000
O O8 0.662161 0.917596 0.490610
O O9 0.500000 0.516611 0.750000
#
# Coordination Sequence:
#
# PCOD9308599 Si02
#       4
#     8   8   8   8
#     4   9  19  35  52  72 100 131 163 201 244 290
#     4   9  19  35  52  72 100 131 163 201 244 290
#     4   9  19  35  52  72 100 131 163 201 244 290
#     4   9  19  35  52  72 100 131 163 201 244 290
#
# _framework density 26.828271999999998
#
# number of rings (size 3 to 8) (size 9 to 14) (size 15 to 20)
#    0.000    3.000    0.000    3.000    0.000    6.000 
#    0.000   15.000    0.000    0.000    0.000    0.000 
#    0.000    0.000    0.000    0.000    0.000    0.000 
#
# Total GULP energy -89716.402950 kJ/mol
# GULP energy per Si atom -5607.275184 kJ/mol
# Density = 2.676721 g / cm^3
# Si number density = 26.828272 Si / 1000 Ang^3
#
#
#
# Elastic Constant Matrix: (Units=GPa)
#
#
# Indices 1 2 3 4 5 6 
#
# 1 170.4247 23.5698 39.8577 -0.0001 -20.7673 0.0000
# 2 23.5698 116.9155 21.4643 0.0000 -25.3350 0.0000
# 3 39.8577 21.4643 61.0483 -0.0004 -12.6018 0.0002
# 4 -0.0001 0.0000 -0.0004 34.4364 0.0002 -18.8338
# 5 -20.7673 -25.3350 -12.6018 0.0002 56.6147 -0.0001
# 6 0.0000 0.0000 0.0002 -18.8338 -0.0001 -3.9994
#
#
#
# Elastic Compliance Matrix: (Units=1/GPa)
#
#
# Indices 1 2 3 4 5 6 
#
# 1 0.007079 -0.000329 -0.004193 0.000000 0.001516 0.000000
# 2 -0.000329 0.009889 -0.002488 0.000000 0.003751 0.000000
# 3 -0.004193 -0.002488 0.020382 0.000000 0.001885 0.000000
# 4 0.000000 0.000000 0.000000 0.008122 0.000000 -0.038246
# 5 0.001516 0.003751 0.001885 0.000000 0.020318 0.000000
# 6 0.000000 0.000000 0.000000 -0.038246 0.000000 -0.069931
#
#
# Mechanical properties :
#
#
# Convention : Reuss Voigt Hill
#
# Bulk Modulus (GPa) = 42.86303 57.57468 50.21885
# Shear Modulus (GPa) = 283.21987 34.97680 159.09834
#
# Velocity S-wave (km/s) = 10.28576 3.61464 7.70917
# Velocity P-wave (km/s) = 12.53292 6.23922 9.89954
#
# Compressibility (1/GPa) = 0.02333013
#
# Stress axis : x y z
#
# Youngs Moduli (GPa) = 141.27239 101.12211 49.06293
#
# Poissons Ratio (x) = 0.03324 0.20572
# Poissons Ratio (y) = 0.04643 0.12207
# Poissons Ratio (z) = 0.59235 0.25160
#
# Static dielectric constant tensor:
#      x y z
#    x 2.015960 0.000000 0.007580 
#    y 0.000000 2.023450 0.000000 
#    z 0.007580 0.000000 2.188100 
# 
# From -- ./inp_files/153693.got.cif
#   From: 2010.05.17/outbox.cif.g08.bks.cpg/sg15_77_cif.got.tgz:153693.got - 2010.06.03 18:47:42.
