data_PCOD9308360
_publ_section_title
;
Structure prediction by ZEFSAII (Michael W. Deem and Ramdas Pophale) SiO2 
 PCOD9308360
Probable space group: C 2/C
;
_chemical_formula_sum "Si O2"
_cell_formula_units_Z 36
_cell_length_a 4.810619
_cell_length_b 13.295728
_cell_length_c 20.290239
_cell_angle_alpha 90.000000
_cell_angle_beta 89.068165
_cell_angle_gamma 90.000000
_cell_volume 1297.605889
_symmetry_space_group_name_H-M "C 2/C"
_symmetry_group_IT_number 15
_symmetry_cell_setting 'monoclinic'
loop_
_space_group_symop_operation_xyz
x,y,z
-x,y,1/2-z
-x,-y,-z
x,-y,1/2+z
1/2+x,1/2+y,z
1/2-x,1/2+y,1/2-z
1/2-x,1/2-y,-z
1/2+x,1/2-y,1/2+z
loop_
_atom_site_type_symbol
_atom_site_label
_atom_site_fract_x
_atom_site_fract_y
_atom_site_fract_z
Si Si1 0.926081 0.854139 0.994445
Si Si2 0.158991 0.687712 0.813555
Si Si3 0.295312 0.113780 0.363465
Si Si4 0.000000 0.990133 0.250000
Si Si5 0.949621 0.566037 0.571895
O O1 0.174681 0.878775 0.045052
O O2 0.693813 0.934288 0.016681
O O3 0.750000 0.750000 0.000000
O O4 0.075135 0.867893 0.923682
O O5 0.363158 0.774833 0.838153
O O6 0.309997 0.586546 0.791210
O O7 0.000000 0.726470 0.750000
O O8 0.958873 0.647379 0.872046
O O9 0.164031 0.056211 0.302149
O O10 0.532504 0.041411 0.391338
#
# Coordination Sequence:
#
# PCOD9308360 Si02
#       5
#     8   8   8   4   8
#     4  12  27  53  85 127 173 225 290 364 439 521
#     4  12  27  51  80 120 169 221 292 363 429 525
#     4  12  27  52  87 119 169 234 284 367 449 517
#     4  12  28  52  78 122 168 222 300 348 438 538
#     4  12  27  54  83 126 173 222 293 357 439 534
#
# _framework density 27.743400000000001
#
# number of rings (size 3 to 8) (size 9 to 14) (size 15 to 20)
#    0.000    0.000    5.556    3.333    0.000    3.556 
#    4.000    0.000    0.000    0.000    0.000    0.000 
#    0.000    0.000    0.000    0.000    0.000    0.000 
#
# Total GULP energy -100924.635985 kJ/mol
# GULP energy per Si atom -5606.924221 kJ/mol
# Density = 2.768026 g / cm^3
# Si number density = 27.743400 Si / 1000 Ang^3
#
#
#
# Elastic Constant Matrix: (Units=GPa)
#
#
# Indices 1 2 3 4 5 6 
#
# 1 138.6479 50.9058 67.9731 0.0000 15.2407 0.0000
# 2 50.9058 188.5047 72.7328 0.0000 12.8999 0.0000
# 3 67.9731 72.7328 157.8360 0.0000 26.6818 0.0000
# 4 0.0000 0.0000 0.0000 53.8530 0.0000 -0.8874
# 5 15.2407 12.8999 26.6818 0.0000 52.5624 0.0000
# 6 0.0000 0.0000 0.0000 -0.8874 0.0000 49.7335
#
#
#
# Elastic Compliance Matrix: (Units=1/GPa)
#
#
# Indices 1 2 3 4 5 6 
#
# 1 0.009379 -0.001182 -0.003373 0.000000 -0.000717 0.000000
# 2 -0.001182 0.006601 -0.002534 0.000000 0.000009 0.000000
# 3 -0.003373 -0.002534 0.009501 0.000000 -0.003223 0.000000
# 4 0.000000 0.000000 0.000000 0.018575 0.000000 0.000331
# 5 -0.000717 0.000009 -0.003223 0.000000 0.020867 0.000000
# 6 0.000000 0.000000 0.000000 0.000331 0.000000 0.020113
#
#
# Mechanical properties :
#
#
# Convention : Reuss Voigt Hill
#
# Bulk Modulus (GPa) = 88.48040 96.46800 92.47420
# Shear Modulus (GPa) = 48.55169 50.78821 49.66995
#
# Velocity S-wave (km/s) = 4.18787 4.28324 4.23582
# Velocity P-wave (km/s) = 7.43949 7.70120 7.57148
#
# Compressibility (1/GPa) = 0.01130194
#
# Stress axis : x y z
#
# Youngs Moduli (GPa) = 106.61962 151.48223 105.25117
#
# Poissons Ratio (x) = 0.17909 0.35503
# Poissons Ratio (y) = 0.12605 0.26675
# Poissons Ratio (z) = 0.35965 0.38392
#
# Static dielectric constant tensor:
#      x y z
#    x 2.119500 0.000000 0.029260 
#    y 0.000000 2.178330 0.000000 
#    z 0.029260 0.000000 2.275920 
# 
# From -- ./inp_files/187725.got.cif
#   From: 2010.05.17/outbox.cif.g08.bks.cpg/sg15_94_cif.got.tgz:187725.got - 2010.06.03 18:47:42.
