data_PCOD9308726
_publ_section_title
;
Structure prediction by ZEFSAII (Michael W. Deem and Ramdas Pophale) SiO2 
 PCOD9308726
Probable space group: C 2/C
;
_chemical_formula_sum "Si O2"
_cell_formula_units_Z 24
_cell_length_a 15.000000
_cell_length_b 30.000000
_cell_length_c 15.000000
_cell_angle_alpha 90.000000
_cell_angle_beta 160.000000
_cell_angle_gamma 90.000000
_cell_volume 2308.635967
_symmetry_space_group_name_H-M "C 2/C"
_symmetry_group_IT_number 15
_symmetry_cell_setting 'monoclinic'
loop_
_space_group_symop_operation_xyz
x,y,z
-x,y,1/2-z
-x,-y,-z
x,-y,1/2+z
1/2+x,1/2+y,z
1/2-x,1/2+y,1/2-z
1/2-x,1/2-y,-z
1/2+x,1/2-y,1/2+z
loop_
_atom_site_type_symbol
_atom_site_label
_atom_site_fract_x
_atom_site_fract_y
_atom_site_fract_z
Si Si1 0.949212 0.726574 0.807948
Si Si2 0.588224 0.363628 0.245529
Si Si3 0.188066 0.412866 0.618549
Si Si4 0.660884 0.359327 0.108429
Si Si5 0.289195 0.006748 0.487264
Si Si6 0.107754 0.582374 0.243017
O O1 0.727060 0.764174 0.614291
O O2 0.808365 0.682248 0.706044
O O3 0.000000 0.724634 0.750000
O O4 0.500000 0.335624 0.250000
O O5 0.575226 0.347846 0.130165
O O6 0.887501 0.379310 0.536684
O O7 0.363702 0.402428 0.037031
O O8 0.249121 0.457603 0.625044
O O9 0.217276 0.424293 0.748753
O O10 0.890366 0.396680 0.326259
O O11 0.412571 0.375566 0.817583
O O12 0.000000 0.996836 0.250000
O O13 0.445645 0.962017 0.610585
O O14 0.500000 0.030179 0.750000
#
# Coordination Sequence:
#
# PCOD9308726 Si02
#       6
#     8   8   8   8   8   8
#     4  10  21  38  61  86 109 139 176 212 256 317
#     4  10  19  33  55  81 106 138 183 226 268 313
#     4  10  22  37  52  76 107 143 180 221 276 322
#     4  10  21  37  58  81 109 141 174 221 272 321
#     4  12  23  34  50  74 105 142 186 230 275 318
#     4  10  20  35  53  72 102 144 189 230 264 309
#
# _framework density 10.395749
#
# number of rings (size 3 to 8) (size 9 to 14) (size 15 to 20)
#    0.000    1.667    0.000    5.500    0.000    2.000 
#    0.000    6.667    0.000    1.000    0.000    0.000 
#    0.000    0.000    0.000    0.000    0.000    0.000 
#
# Total GULP energy -133619.320288 kJ/mol
# GULP energy per Si atom -5567.471679 kJ/mol
# Density = 1.037209 g / cm^3
# Si number density = 10.395749 Si / 1000 Ang^3
#
#
#
# Elastic Constant Matrix: (Units=GPa)
#
#
# Indices 1 2 3 4 5 6 
#
# 1 10.5073 6.0359 30.7782 0.0011 32.2042 0.0007
# 2 6.0359 14.1390 -2.1745 0.0009 14.5633 -0.0025
# 3 30.7782 -2.1745 105.6914 0.0251 11.9255 0.0082
# 4 0.0011 0.0009 0.0251 46.0822 0.0072 39.1846
# 5 32.2042 14.5633 11.9255 0.0072 22.7703 0.0065
# 6 0.0007 -0.0025 0.0082 39.1846 0.0065 48.6938
#
#
#
# Elastic Compliance Matrix: (Units=1/GPa)
#
#
# Indices 1 2 3 4 5 6 
#
# 1 -0.012184 -0.041650 -0.002401 0.000006 0.045128 -0.000012
# 2 -0.041650 0.116790 0.017338 -0.000040 -0.024870 0.000039
# 3 -0.002401 0.017338 0.012100 -0.000017 -0.014031 0.000014
# 4 0.000006 -0.000040 -0.000017 0.068730 0.000021 -0.055308
# 5 0.045128 -0.024870 -0.014031 0.000021 0.003347 -0.000017
# 6 -0.000012 0.000039 0.000014 -0.055308 -0.000017 0.065043
#
#
# Mechanical properties :
#
#
# Convention : Reuss Voigt Hill
#
# Bulk Modulus (GPa) = 15.80271 22.17967 18.99119
# Shear Modulus (GPa) = 15.22787 29.88914 22.55851
#
# Velocity S-wave (km/s) = 2.70924 3.79564 3.29749
# Velocity P-wave (km/s) = 4.17178 5.46809 4.86332
#
# Compressibility (1/GPa) = 0.06328027
#
# Stress axis : x y z
#
# Youngs Moduli (GPa) = -82.07337 8.56239 82.64137
#
# Poissons Ratio (x) = 0.35662 0.19840
# Poissons Ratio (y) = -3.41836 -1.43282
# Poissons Ratio (z) = -0.19703 -0.14845
#
# Static dielectric constant tensor:
#      x y z
#    x 1.797430 0.000000 -0.092290 
#    y 0.000000 1.757910 0.000000 
#    z -0.092290 0.000000 1.816690 
# 
# From -- ./inp_files/157614.got.cif
#   From: 2010.05.17/outbox.ucp.g08.bks.cvg/sg15_79_cif.got.tgz:157614.got - 2010.06.11 12:40:34.
