data_PCOD9308732
_publ_section_title
;
Structure prediction by ZEFSAII (Michael W. Deem and Ramdas Pophale) SiO2 
 PCOD9308732
Probable space group: C 2/C
;
_chemical_formula_sum "Si O2"
_cell_formula_units_Z 32
_cell_length_a 30.000000
_cell_length_b 12.000000
_cell_length_c 18.000000
_cell_angle_alpha 90.000000
_cell_angle_beta 150.000000
_cell_angle_gamma 90.000000
_cell_volume 3240.000000
_symmetry_space_group_name_H-M "C 2/C"
_symmetry_group_IT_number 15
_symmetry_cell_setting 'monoclinic'
loop_
_space_group_symop_operation_xyz
x,y,z
-x,y,1/2-z
-x,-y,-z
x,-y,1/2+z
1/2+x,1/2+y,z
1/2-x,1/2+y,1/2-z
1/2-x,1/2-y,-z
1/2+x,1/2-y,1/2+z
loop_
_atom_site_type_symbol
_atom_site_label
_atom_site_fract_x
_atom_site_fract_y
_atom_site_fract_z
Si Si1 0.575354 0.825161 0.152488
Si Si2 0.382467 0.562993 0.269414
Si Si3 0.254250 0.542532 0.958662
Si Si4 0.571471 0.498152 0.997578
Si Si5 0.385125 0.108548 0.451858
Si Si6 0.794293 0.147249 0.403461
Si Si7 0.163032 0.815382 0.043988
Si Si8 0.649159 0.147046 0.599993
O O1 0.597211 0.695881 0.202790
O O2 0.655437 0.906635 0.299042
O O3 0.579841 0.826164 0.067858
O O4 0.479747 0.864195 0.048064
O O5 0.387592 0.521389 0.361931
O O6 0.464663 0.496355 0.349249
O O7 0.289583 0.541598 0.093695
O O8 0.272274 0.421105 0.947145
O O9 0.322245 0.627898 0.014108
O O10 0.627461 0.577222 0.024194
O O11 0.592452 0.377464 0.994369
O O12 0.300488 0.137752 0.276442
O O13 0.366344 0.187782 0.495532
O O14 0.373711 0.978923 0.454205
O O15 0.833555 0.271596 0.445565
O O16 0.257289 0.840537 0.220480
#
# Coordination Sequence:
#
# PCOD9308732 Si02
#       8
#     8   8   8   8   8   8   8   8
#     4  11  20  35  55  94 126 154 191 249 309 355
#     4  11  22  35  61  90 122 154 194 252 304 357
#     4  10  22  38  57  93 123 154 191 254 310 343
#     4  10  19  38  58  89 108 155 202 240 293 348
#     4  11  19  34  60  89 121 158 202 241 290 367
#     4  10  20  36  59  89 121 154 205 241 292 358
#     4   9  19  34  57  88 114 150 201 240 290 348
#     4  10  19  33  57  87 114 161 197 243 283 350
#
# _framework density 9.8765429999999999
#
# number of rings (size 3 to 8) (size 9 to 14) (size 15 to 20)
#    0.000    1.750    6.250    0.750    0.000    2.000 
#    0.000    0.000    0.000    3.000   16.250    0.000 
#    0.000    0.000    0.000    0.000    0.000    0.000 
#
# Total GULP energy -178304.156961 kJ/mol
# GULP energy per Si atom -5572.004905 kJ/mol
# Density = 0.985406 g / cm^3
# Si number density = 9.876543 Si / 1000 Ang^3
#
#
#
# Elastic Constant Matrix: (Units=GPa)
#
#
# Indices 1 2 3 4 5 6 
#
# 1 18.2008 20.5045 1.3124 0.0000 17.5734 0.0000
# 2 20.5045 106.3250 22.0318 0.0000 1.8928 0.0000
# 3 1.3124 22.0318 37.8617 0.0000 4.8437 0.0000
# 4 0.0000 0.0000 0.0000 21.0908 0.0000 7.3863
# 5 17.5734 1.8928 4.8437 0.0000 27.4344 0.0000
# 6 0.0000 0.0000 0.0000 7.3863 0.0000 21.1103
#
#
#
# Elastic Compliance Matrix: (Units=1/GPa)
#
#
# Indices 1 2 3 4 5 6 
#
# 1 0.411434 -0.089538 0.072402 0.000000 -0.270154 0.000000
# 2 -0.089538 0.030184 -0.022029 0.000000 0.059161 0.000000
# 3 0.072402 -0.022029 0.043441 0.000000 -0.052528 0.000000
# 4 0.000000 0.000000 0.000000 0.054035 0.000000 -0.018907
# 5 -0.270154 0.059161 -0.052528 0.000000 0.214693 0.000000
# 6 0.000000 0.000000 0.000000 -0.018907 0.000000 0.053986
#
#
# Mechanical properties :
#
#
# Convention : Reuss Voigt Hill
#
# Bulk Modulus (GPa) = 2.45863 27.78721 15.12292
# Shear Modulus (GPa) = 4.89391 21.82969 13.36180
#
# Velocity S-wave (km/s) = 1.57573 3.32795 2.60367
# Velocity P-wave (km/s) = 2.13493 5.37260 4.08796
#
# Compressibility (1/GPa) = 0.40672999
#
# Stress axis : x y z
#
# Youngs Moduli (GPa) = 2.43052 33.13040 23.01969
#
# Poissons Ratio (x) = 2.96641 -1.66668
# Poissons Ratio (y) = 0.21762 0.50710
# Poissons Ratio (z) = -0.17598 0.72983
#
# Static dielectric constant tensor:
#      x y z
#    x 1.737200 0.000000 -0.006550 
#    y 0.000000 1.771440 0.000000 
#    z -0.006550 0.000000 1.681550 
# 
# From -- ./inp_files/225190.got.cif
#   From: 2010.05.17/outbox.ucp.g08.bks.cvg/sg15_113_cif.got.tgz:225190.got - 2010.06.11 12:40:34.
