data_PCOD9308618
_publ_section_title
;
Structure prediction by ZEFSAII (Michael W. Deem and Ramdas Pophale) SiO2 
 PCOD9308618
Probable space group: C 2/C
;
_chemical_formula_sum "Si O2"
_cell_formula_units_Z 32
_cell_length_a 18.000000
_cell_length_b 12.000000
_cell_length_c 30.000000
_cell_angle_alpha 90.000000
_cell_angle_beta 150.000000
_cell_angle_gamma 90.000000
_cell_volume 3240.000000
_symmetry_space_group_name_H-M "C 2/C"
_symmetry_group_IT_number 15
_symmetry_cell_setting 'monoclinic'
loop_
_space_group_symop_operation_xyz
x,y,z
-x,y,1/2-z
-x,-y,-z
x,-y,1/2+z
1/2+x,1/2+y,z
1/2-x,1/2+y,1/2-z
1/2-x,1/2-y,-z
1/2+x,1/2-y,1/2+z
loop_
_atom_site_type_symbol
_atom_site_label
_atom_site_fract_x
_atom_site_fract_y
_atom_site_fract_z
Si Si1 0.738970 0.486673 0.489571
Si Si2 0.232422 0.506290 0.646369
Si Si3 0.505298 0.642933 0.581332
Si Si4 0.516970 0.865053 0.152824
Si Si5 0.058933 0.618184 0.476019
Si Si6 0.735695 0.287862 0.279763
Si Si7 0.220713 0.958680 0.696922
Si Si8 0.963364 0.116936 0.308295
O O1 0.639815 0.414183 0.472234
O O2 0.849343 0.402943 0.521239
O O3 0.617111 0.551353 0.395806
O O4 0.853675 0.581756 0.566170
O O5 0.156773 0.553845 0.563220
O O6 0.300933 0.615468 0.705052
O O7 0.366845 0.419656 0.715735
O O8 0.099508 0.444178 0.604260
O O9 0.464989 0.749600 0.530375
O O10 0.619249 0.695327 0.678250
O O11 0.600008 0.539415 0.610833
O O12 0.595781 0.818984 0.148400
O O13 0.517893 0.750200 0.181184
O O14 0.632784 0.963912 0.225102
O O15 0.736362 0.162989 0.298516
O O16 0.140191 0.924520 0.702651
#
# Coordination Sequence:
#
# PCOD9308618 Si02
#       8
#     8   8   8   8   8   8   8   8
#     4  11  19  33  51  84 112 140 179 228 279 322
#     4  11  20  38  53  80 109 145 184 225 281 333
#     4  10  20  34  53  82 111 139 184 233 272 329
#     4  10  17  30  55  80 109 133 180 232 274 311
#     4  11  23  34  56  79 113 141 180 232 281 326
#     4  10  17  33  55  77 108 144 185 223 270 330
#     4   9  17  30  55  76 103 140 182 228 267 313
#     4  10  19  32  51  82 108 140 180 225 274 332
#
# _framework density 9.8765429999999999
#
# number of rings (size 3 to 8) (size 9 to 14) (size 15 to 20)
#    0.000    1.750    5.000    3.750    0.000    0.500 
#    0.000    0.625    0.000    0.000    3.250    0.000 
#    0.000    0.000    0.000    0.000    0.000    0.000 
#
# Total GULP energy -178219.299076 kJ/mol
# GULP energy per Si atom -5569.353096 kJ/mol
# Density = 0.985406 g / cm^3
# Si number density = 9.876543 Si / 1000 Ang^3
#
#
#
# Elastic Constant Matrix: (Units=GPa)
#
#
# Indices 1 2 3 4 5 6 
#
# 1 18.7737 7.8867 20.0397 0.0000 19.1013 0.0000
# 2 7.8867 171.6482 45.4787 0.0000 15.4839 0.0000
# 3 20.0397 45.4787 106.1097 0.0000 28.4051 -0.0001
# 4 0.0000 0.0000 0.0000 33.6685 0.0000 1.1953
# 5 19.1013 15.4839 28.4051 0.0000 20.3634 0.0000
# 6 0.0000 0.0000 -0.0001 1.1953 0.0000 14.6833
#
#
#
# Elastic Compliance Matrix: (Units=1/GPa)
#
#
# Indices 1 2 3 4 5 6 
#
# 1 12.526834 0.353151 1.117587 0.000003-13.577913 0.000000
# 2 0.353151 0.016565 0.029133 0.000000 -0.384497 0.000000
# 3 1.117587 0.029133 0.115599 0.000000 -1.231724 0.000000
# 4 0.000003 0.000000 0.000000 0.029787 -0.000004 -0.002425
# 5 -13.577913 -0.384497 -1.231724 -0.000004 14.796002 0.000000
# 6 0.000000 0.000000 0.000000 -0.002425 0.000000 0.068302
#
#
# Mechanical properties :
#
#
# Convention : Reuss Voigt Hill
#
# Bulk Modulus (GPa) = 0.06386 49.26018 24.66202
# Shear Modulus (GPa) = 0.16794 28.61814 14.39304
#
# Velocity S-wave (km/s) = 0.29190 3.81043 2.70228
# Velocity P-wave (km/s) = 0.38211 6.65968 4.71685
#
# Compressibility (1/GPa) = 15.65874001
#
# Stress axis : x y z
#
# Youngs Moduli (GPa) = 0.07983 60.36695 8.65058
#
# Poissons Ratio (x) = -21.31864 -9.66778
# Poissons Ratio (y) = -0.02819 -0.25201
# Poissons Ratio (z) = -0.08922 -1.75865
#
# Static dielectric constant tensor:
#      x y z
#    x 1.744510 0.000000 -0.034730 
#    y 0.000000 1.710960 0.000000 
#    z -0.034730 0.000000 1.726960 
# 
# From -- ./inp_files/316236.got.cif
#   From: 2010.05.17/outbox.ucp.g08.bks.cvg/sg15_159_cif.got.tgz:316236.got - 2010.06.11 12:40:34.
