data_PCOD9308723
_publ_section_title
;
Structure prediction by ZEFSAII (Michael W. Deem and Ramdas Pophale) SiO2 
 PCOD9308723
Probable space group: C 2/C
;
_chemical_formula_sum "Si O2"
_cell_formula_units_Z 28
_cell_length_a 18.000000
_cell_length_b 18.000000
_cell_length_c 9.000000
_cell_angle_alpha 90.000000
_cell_angle_beta 110.000000
_cell_angle_gamma 90.000000
_cell_volume 2740.143682
_symmetry_space_group_name_H-M "C 2/C"
_symmetry_group_IT_number 15
_symmetry_cell_setting 'monoclinic'
loop_
_space_group_symop_operation_xyz
x,y,z
-x,y,1/2-z
-x,-y,-z
x,-y,1/2+z
1/2+x,1/2+y,z
1/2-x,1/2+y,1/2-z
1/2-x,1/2-y,-z
1/2+x,1/2-y,1/2+z
loop_
_atom_site_type_symbol
_atom_site_label
_atom_site_fract_x
_atom_site_fract_y
_atom_site_fract_z
Si Si1 0.624791 0.367025 0.249451
Si Si2 0.306652 0.401655 0.762987
Si Si3 0.491001 0.184779 0.569822
Si Si4 0.749740 0.523764 0.973325
Si Si5 0.533963 0.352758 0.502631
Si Si6 0.338063 0.801711 0.789069
Si Si7 0.919933 0.410286 0.607185
O O1 0.697884 0.421719 0.330597
O O2 0.579702 0.357275 0.376543
O O3 0.553474 0.388256 0.085810
O O4 0.657423 0.286194 0.229337
O O5 0.279115 0.442679 0.595127
O O6 0.251096 0.329459 0.747121
O O7 0.278125 0.453565 0.880925
O O8 0.400565 0.386778 0.840329
O O9 0.500000 0.177426 0.750000
O O10 0.517246 0.267405 0.534927
O O11 0.399062 0.176858 0.461306
O O12 0.544359 0.125960 0.516834
O O13 0.844999 0.535301 0.027462
O O14 0.378423 0.844691 0.676754
O O15 0.000000 0.437278 0.750000
#
# Coordination Sequence:
#
# PCOD9308723 Si02
#       7
#     8   8   8   8   8   8   8
#     4   9  17  34  62  86 101 147 195 230 260 333
#     4  10  22  38  56  81 115 151 184 230 271 331
#     4  10  19  33  54  88 113 137 176 236 290 325
#     4  10  22  37  57  82 114 148 191 222 276 328
#     4   9  18  34  57  82 114 142 186 225 279 324
#     4   9  18  35  58  82 110 141 192 229 271 327
#     4   9  18  35  59  82 108 146 187 229 270 331
#
# _framework density 10.218442
#
# number of rings (size 3 to 8) (size 9 to 14) (size 15 to 20)
#    0.000    2.571    1.429    0.000    2.000    3.429 
#    5.143    7.857    0.000    0.000    0.000    0.000 
#    0.000    0.000    0.000    0.000    0.000    0.000 
#
# Total GULP energy -156248.832497 kJ/mol
# GULP energy per Si atom -5580.315446 kJ/mol
# Density = 1.019518 g / cm^3
# Si number density = 10.218442 Si / 1000 Ang^3
#
#
#
# Elastic Constant Matrix: (Units=GPa)
#
#
# Indices 1 2 3 4 5 6 
#
# 1 74.9908 16.1384 29.3244 0.0000 39.0252 0.0000
# 2 16.1384 31.0446 5.1700 0.0000 12.0761 0.0000
# 3 29.3244 5.1700 73.7537 0.0000 16.9291 0.0000
# 4 0.0000 0.0000 0.0000 31.8354 0.0000 11.7167
# 5 39.0252 12.0761 16.9291 0.0000 30.2138 0.0000
# 6 0.0000 0.0000 0.0000 11.7167 0.0000 18.7157
#
#
#
# Elastic Compliance Matrix: (Units=1/GPa)
#
#
# Indices 1 2 3 4 5 6 
#
# 1 0.042196 -0.001170 -0.004926 0.000000 -0.051274 0.000000
# 2 -0.001170 0.038232 0.001085 0.000000 -0.014378 0.000000
# 3 -0.004926 0.001085 0.016158 0.000000 -0.003125 0.000000
# 4 0.000000 0.000000 0.000000 0.040816 0.000000 -0.025552
# 5 -0.051274 -0.014378 -0.003125 0.000000 0.106823 0.000000
# 6 0.000000 0.000000 0.000000 -0.025552 0.000000 0.069428
#
#
# Mechanical properties :
#
#
# Convention : Reuss Voigt Hill
#
# Bulk Modulus (GPa) = 11.55186 31.22831 21.39009
# Shear Modulus (GPa) = 14.18321 24.76338 19.47329
#
# Velocity S-wave (km/s) = 2.63725 3.48472 3.09018
# Velocity P-wave (km/s) = 3.86499 5.61290 4.81886
#
# Compressibility (1/GPa) = 0.08656616
#
# Stress axis : x y z
#
# Youngs Moduli (GPa) = 23.69886 26.15601 61.88727
#
# Poissons Ratio (x) = 0.03060 0.30485
# Poissons Ratio (y) = 0.02772 -0.06717
# Poissons Ratio (z) = 0.11674 -0.02839
#
# Static dielectric constant tensor:
#      x y z
#    x 1.695890 0.000000 0.019380 
#    y 0.000000 1.724890 0.000000 
#    z 0.019380 0.000000 1.761350 
# 
# From -- ./inp_files/49130.got.cif
#   From: 2010.05.17/outbox.ucp.g08.bks.cvg/sg15_25_cif.got.tgz:49130.got - 2010.06.11 12:40:34.
