data_PCOD9308545
_publ_section_title
;
Structure prediction by ZEFSAII (Michael W. Deem and Ramdas Pophale) SiO2 
 PCOD9308545
Probable space group: C 2/C
;
_chemical_formula_sum "Si O2"
_cell_formula_units_Z 36
_cell_length_a 9.446618
_cell_length_b 14.769436
_cell_length_c 10.532494
_cell_angle_alpha 90.000000
_cell_angle_beta 65.782644
_cell_angle_gamma 90.000000
_cell_volume 1340.183824
_symmetry_space_group_name_H-M "C 2/C"
_symmetry_group_IT_number 15
_symmetry_cell_setting 'monoclinic'
loop_
_space_group_symop_operation_xyz
x,y,z
-x,y,1/2-z
-x,-y,-z
x,-y,1/2+z
1/2+x,1/2+y,z
1/2-x,1/2+y,1/2-z
1/2-x,1/2-y,-z
1/2+x,1/2-y,1/2+z
loop_
_atom_site_type_symbol
_atom_site_label
_atom_site_fract_x
_atom_site_fract_y
_atom_site_fract_z
Si Si1 0.331254 0.426019 0.041077
Si Si2 0.500000 0.022622 0.750000
Si Si3 0.681986 0.197371 0.902989
Si Si4 0.911890 0.745959 0.145513
Si Si5 0.770167 0.008213 0.298110
O O1 0.142547 0.422022 0.138817
O O2 0.415538 0.341073 0.069303
O O3 0.364837 0.506803 0.130788
O O4 0.337451 0.438699 0.890012
O O5 0.403348 0.964829 0.683685
O O6 0.504124 0.187409 0.009176
O O7 0.751678 0.096469 0.855464
O O8 0.750000 0.250000 0.000000
O O9 0.734192 0.742861 0.261817
O O10 0.000000 0.747549 0.250000
#
# Coordination Sequence:
#
# PCOD9308545 Si02
#       5
#     8   4   8   8   8
#     4   9  18  34  58  91 120 159 210 270 313 368
#     4   8  18  32  58  82 128 146 214 246 332 342
#     4   9  18  36  58  90 121 172 208 257 315 391
#     4   9  18  36  62  90 128 169 209 259 321 384
#     4   9  18  34  61  88 121 159 216 266 311 374
#
# _framework density 26.861985000000001
#
# number of rings (size 3 to 8) (size 9 to 14) (size 15 to 20)
#    1.333    1.778    0.000    0.667    0.000    0.000 
#    6.000   11.111    4.889    0.000    0.000    0.000 
#    0.000    0.000    0.000    0.000    0.000    0.000 
#
# Total GULP energy -100208.536127 kJ/mol
# GULP energy per Si atom -5567.140896 kJ/mol
# Density = 2.680085 g / cm^3
# Si number density = 26.861985 Si / 1000 Ang^3
#
#
#
# Elastic Constant Matrix: (Units=GPa)
#
#
# Indices 1 2 3 4 5 6 
#
# 1 96.3302 9.6794 36.0840 0.0000 19.1757 0.0000
# 2 9.6794 23.9738 32.0128 0.0000 -2.6409 0.0000
# 3 36.0840 32.0128 189.4782 0.0000 7.0566 0.0000
# 4 0.0000 0.0000 0.0000 35.6201 0.0000 18.8623
# 5 19.1757 -2.6409 7.0566 0.0000 59.2833 0.0000
# 6 0.0000 0.0000 0.0000 18.8623 0.0000 15.8632
#
#
#
# Elastic Compliance Matrix: (Units=1/GPa)
#
#
# Indices 1 2 3 4 5 6 
#
# 1 0.012071 -0.003124 -0.001628 0.000000 -0.003850 0.000000
# 2 -0.003124 0.055405 -0.008935 0.000000 0.004542 0.000000
# 3 -0.001628 -0.008935 0.007124 0.000000 -0.000720 0.000000
# 4 0.000000 0.000000 0.000000 0.075805 0.000000 -0.090137
# 5 -0.003850 0.004542 -0.000720 0.000000 0.018401 0.000000
# 6 0.000000 0.000000 0.000000 -0.090137 0.000000 0.170218
#
#
# Mechanical properties :
#
#
# Convention : Reuss Voigt Hill
#
# Bulk Modulus (GPa) = 21.17471 51.70386 36.43929
# Shear Modulus (GPa) = 13.08418 37.62039 25.35228
#
# Velocity S-wave (km/s) = 2.20940 3.74639 3.07546
# Velocity P-wave (km/s) = 3.79585 6.16472 5.11919
#
# Compressibility (1/GPa) = 0.04722615
#
# Stress axis : x y z
#
# Youngs Moduli (GPa) = 82.84363 18.04885 140.37100
#
# Poissons Ratio (x) = 0.05639 0.22845
# Poissons Ratio (y) = 0.25884 1.25421
# Poissons Ratio (z) = 0.13483 0.16127
#
# Static dielectric constant tensor:
#      x y z
#    x 2.249170 0.000000 -0.122890 
#    y 0.000000 2.257750 0.000000 
#    z -0.122890 0.000000 2.137710 
# 
# From -- ./inp_files/28975.got.cif
#   From: 2010.05.17/outbox.cif.g08.bks.cpg/sg15_15_cif.got.tgz:28975.got - 2010.06.03 18:47:42.
