data_PCOD9308591
_publ_section_title
;
Structure prediction by ZEFSAII (Michael W. Deem and Ramdas Pophale) SiO2 
 PCOD9308591
Probable space group: C 2/C
;
_chemical_formula_sum "Si O2"
_cell_formula_units_Z 32
_cell_length_a 19.784941
_cell_length_b 7.299958
_cell_length_c 13.823718
_cell_angle_alpha 90.000000
_cell_angle_beta 135.693240
_cell_angle_gamma 90.000000
_cell_volume 1394.588963
_symmetry_space_group_name_H-M "C 2/C"
_symmetry_group_IT_number 15
_symmetry_cell_setting 'monoclinic'
loop_
_space_group_symop_operation_xyz
x,y,z
-x,y,1/2-z
-x,-y,-z
x,-y,1/2+z
1/2+x,1/2+y,z
1/2-x,1/2+y,1/2-z
1/2-x,1/2-y,-z
1/2+x,1/2-y,1/2+z
loop_
_atom_site_type_symbol
_atom_site_label
_atom_site_fract_x
_atom_site_fract_y
_atom_site_fract_z
Si Si1 0.554296 0.679373 0.593581
Si Si2 0.145721 0.332665 0.100909
Si Si3 0.294813 0.582669 0.899094
Si Si4 0.710713 0.570631 0.906415
O O1 0.500000 0.500000 0.500000
O O2 0.470031 0.173286 0.024921
O O3 0.632556 0.709223 0.588989
O O4 0.613686 0.625004 0.749999
O O5 0.187101 0.374997 0.250002
O O6 0.206436 0.459218 0.088994
O O7 0.179478 0.124998 0.108955
O O8 0.304892 0.576714 0.024926
O O9 0.750000 0.750000 0.000000
#
# Coordination Sequence:
#
# PCOD9308591 Si02
#       4
#     8   8   8   8
#     4   9  18  33  55  80 107 145 188 224 270 337
#     4   9  18  34  55  82 111 145 185 231 276 329
#     4   9  18  34  55  82 111 145 185 231 276 329
#     4   9  18  33  55  80 107 145 188 224 270 337
#
# _framework density 22.945827999999999
#
# number of rings (size 3 to 8) (size 9 to 14) (size 15 to 20)
#    0.000    3.000    0.000    0.000    0.000    9.000 
#    0.000   22.500    0.000   12.000    0.000    3.500 
#    0.000    0.000    0.000    0.000    0.000    0.000 
#
# Total GULP energy -89242.880950 kJ/mol
# GULP energy per Si atom -5577.680059 kJ/mol
# Density = 2.289360 g / cm^3
# Si number density = 22.945828 Si / 1000 Ang^3
#
#
#
# Elastic Constant Matrix: (Units=GPa)
#
#
# Indices 1 2 3 4 5 6 
#
# 1 130.3152 19.9816 108.6691 0.0000 0.4383 0.0000
# 2 19.9816 22.2385 23.1381 0.0000 0.2821 0.0000
# 3 108.6691 23.1381 230.2420 0.0000 8.4351 0.0000
# 4 0.0000 0.0000 0.0000 31.5859 0.0000 -0.6969
# 5 0.4383 0.2821 8.4351 0.0000 13.9936 0.0000
# 6 0.0000 0.0000 0.0000 -0.6969 0.0000 39.4525
#
#
#
# Elastic Compliance Matrix: (Units=1/GPa)
#
#
# Indices 1 2 3 4 5 6 
#
# 1 0.013493 -0.006047 -0.005879 0.000000 0.003243 0.000000
# 2 -0.006047 0.052987 -0.002494 0.000000 0.000624 0.000000
# 3 -0.005879 -0.002494 0.007526 0.000000 -0.004302 0.000000
# 4 0.000000 0.000000 0.000000 0.031672 0.000000 0.000559
# 5 0.003243 0.000624 -0.004302 0.000000 0.073941 0.000000
# 6 0.000000 0.000000 0.000000 0.000559 0.000000 0.025357
#
#
# Mechanical properties :
#
#
# Convention : Reuss Voigt Hill
#
# Bulk Modulus (GPa) = 22.14071 76.26370 49.20221
# Shear Modulus (GPa) = 20.09066 32.40686 26.24876
#
# Velocity S-wave (km/s) = 2.96221 3.76216 3.38589
# Velocity P-wave (km/s) = 4.62273 7.22360 6.06424
#
# Compressibility (1/GPa) = 0.04516566
#
# Stress axis : x y z
#
# Youngs Moduli (GPa) = 74.11308 18.87251 132.86516
#
# Poissons Ratio (x) = 0.11413 0.78117
# Poissons Ratio (y) = 0.44819 0.33130
# Poissons Ratio (z) = 0.43574 0.04706
#
# Static dielectric constant tensor:
#      x y z
#    x 1.961070 0.000000 -0.012230 
#    y 0.000000 1.870700 0.000000 
#    z -0.012230 0.000000 1.823280 
# 
# From -- ./inp_files/93802.got.cif
#   From: 2010.05.17/outbox.cif.g08.bks.cpg/sg15_47_cif.got.tgz:93802.got - 2010.06.03 18:47:42.
