data_PCOD9308646
_publ_section_title
;
Structure prediction by ZEFSAII (Michael W. Deem and Ramdas Pophale) SiO2 
 PCOD9308646
Probable space group: C 2/C
;
_chemical_formula_sum "Si O2"
_cell_formula_units_Z 24
_cell_length_a 15.000000
_cell_length_b 18.000000
_cell_length_c 9.000000
_cell_angle_alpha 90.000000
_cell_angle_beta 90.000000
_cell_angle_gamma 90.000000
_cell_volume 2430.000000
_symmetry_space_group_name_H-M "C 2/C"
_symmetry_group_IT_number 15
_symmetry_cell_setting 'monoclinic'
loop_
_space_group_symop_operation_xyz
x,y,z
-x,y,1/2-z
-x,-y,-z
x,-y,1/2+z
1/2+x,1/2+y,z
1/2-x,1/2+y,1/2-z
1/2-x,1/2-y,-z
1/2+x,1/2-y,1/2+z
loop_
_atom_site_type_symbol
_atom_site_label
_atom_site_fract_x
_atom_site_fract_y
_atom_site_fract_z
Si Si1 0.405903 0.771913 0.837883
Si Si2 0.026192 0.380676 0.409953
Si Si3 0.594520 0.600006 0.670791
Si Si4 0.860602 0.512572 0.995443
Si Si5 0.595842 0.453128 0.832191
Si Si6 0.277755 0.096027 0.244916
O O1 0.500000 0.772631 0.750000
O O2 0.371760 0.685807 0.847661
O O3 0.333550 0.827648 0.763390
O O4 0.434404 0.814932 0.989182
O O5 0.098726 0.446861 0.401777
O O6 0.000000 0.351052 0.250000
O O7 0.939903 0.427357 0.468526
O O8 0.500000 0.611564 0.750000
O O9 0.632653 0.534806 0.779143
O O10 0.586165 0.561472 0.508561
O O11 0.822942 0.464362 0.858195
O O12 0.787671 0.559449 0.083348
O O13 0.500000 0.443197 0.750000
O O14 0.673856 0.397072 0.782506
#
# Coordination Sequence:
#
# PCOD9308646 Si02
#       6
#     8   8   8   8   8   8
#     4  10  21  37  62  94 129 157 188 248 319 365
#     4  10  18  31  53  88 133 167 185 227 288 374
#     4  10  22  42  68  88 114 156 209 259 310 353
#     4  10  19  30  54  89 128 162 199 227 285 371
#     4  11  23  42  67  87 113 162 219 255 291 351
#     4  11  21  36  61  93 125 164 200 245 302 363
#
# _framework density 9.8765429999999999
#
# number of rings (size 3 to 8) (size 9 to 14) (size 15 to 20)
#    0.000    1.667    3.333    3.000    0.000    1.333 
#    0.000    0.000    3.667    4.000    0.000    0.000 
#    0.000    0.000    0.000    0.000    0.000    0.000 
#
# Total GULP energy -133676.329914 kJ/mol
# GULP energy per Si atom -5569.847080 kJ/mol
# Density = 0.985406 g / cm^3
# Si number density = 9.876543 Si / 1000 Ang^3
#
#
#
# Elastic Constant Matrix: (Units=GPa)
#
#
# Indices 1 2 3 4 5 6 
#
# 1 72.1709 28.2520 2.4391 0.0000 -4.7244 0.0000
# 2 28.2520 145.5177 55.4640 0.0000 4.6928 0.0000
# 3 2.4391 55.4640 84.2052 0.0000 -7.7567 0.0000
# 4 0.0000 0.0000 0.0000 16.9340 0.0000 -13.8424
# 5 -4.7244 4.6928 -7.7567 0.0000 22.4327 0.0000
# 6 0.0000 0.0000 0.0000 -13.8424 0.0000 0.7510
#
#
#
# Elastic Compliance Matrix: (Units=1/GPa)
#
#
# Indices 1 2 3 4 5 6 
#
# 1 0.015797 -0.004332 0.002878 0.000000 0.005228 0.000000
# 2 -0.004332 0.010752 -0.007486 0.000000 -0.005750 0.000000
# 3 0.002878 -0.007486 0.017480 0.000000 0.008216 0.000000
# 4 0.000000 0.000000 0.000000 -0.004198 0.000000 -0.077378
# 5 0.005228 -0.005750 0.008216 0.000000 0.049723 0.000000
# 6 0.000000 0.000000 0.000000 -0.077378 0.000000 -0.094660
#
#
# Mechanical properties :
#
#
# Convention : Reuss Voigt Hill
#
# Bulk Modulus (GPa) = 38.24491 52.68934 45.46712
# Shear Modulus (GPa) = 232.64184 22.40612 127.52398
#
# Velocity S-wave (km/s) = 10.86419 3.37161 8.04358
# Velocity P-wave (km/s) = 13.29578 6.47216 10.45625
#
# Compressibility (1/GPa) = 0.02614727
#
# Stress axis : x y z
#
# Youngs Moduli (GPa) = 63.30335 93.00615 57.20721
#
# Poissons Ratio (x) = 0.40294 -0.16462
# Poissons Ratio (y) = 0.27425 0.42827
# Poissons Ratio (z) = -0.18217 0.69627
#
# Static dielectric constant tensor:
#      x y z
#    x 1.721990 0.000000 -0.035600 
#    y 0.000000 1.695380 0.000000 
#    z -0.035600 0.000000 1.727250 
# 
# From -- ./inp_files/39604.got.cif
#   From: 2010.05.17/outbox.ucp.g08.bks.cvg/sg15_20_cif.got.tgz:39604.got - 2010.06.11 12:40:34.
