data_PCOD9308421
_publ_section_title
;
Structure prediction by ZEFSAII (Michael W. Deem and Ramdas Pophale) SiO2 
 PCOD9308421
Probable space group: C 2/C
;
_chemical_formula_sum "Si O2"
_cell_formula_units_Z 20
_cell_length_a 10.704123
_cell_length_b 8.460112
_cell_length_c 7.778106
_cell_angle_alpha 90.000000
_cell_angle_beta 74.713577
_cell_angle_gamma 90.000000
_cell_volume 679.449662
_symmetry_space_group_name_H-M "C 2/C"
_symmetry_group_IT_number 15
_symmetry_cell_setting 'monoclinic'
loop_
_space_group_symop_operation_xyz
x,y,z
-x,y,1/2-z
-x,-y,-z
x,-y,1/2+z
1/2+x,1/2+y,z
1/2-x,1/2+y,1/2-z
1/2-x,1/2-y,-z
1/2+x,1/2-y,1/2+z
loop_
_atom_site_type_symbol
_atom_site_label
_atom_site_fract_x
_atom_site_fract_y
_atom_site_fract_z
Si Si1 0.500000 0.121222 0.750000
Si Si2 0.755968 0.610834 0.358552
Si Si3 0.420378 0.317005 0.098498
O O1 0.501366 0.232334 0.582234
O O2 0.620385 0.004751 0.678175
O O3 0.750000 0.750000 0.500000
O O4 0.635931 0.491586 0.411745
O O5 0.791321 0.707757 0.174365
O O6 0.500000 0.317226 0.250000
#
# Coordination Sequence:
#
# PCOD9308421 Si02
#       3
#     4   8   8
#     4  12  28  60  92 136 188 236 300 378 452 544
#     4  12  29  58  90 135 184 238 304 375 453 543
#     4  12  30  58  93 132 184 237 304 373 456 539
#
# _framework density 29.435589
#
# number of rings (size 3 to 8) (size 9 to 14) (size 15 to 20)
#    0.000    0.000    2.000    4.800    5.600    3.200 
#    3.600    2.000    0.000    0.000    0.000    0.000 
#    0.000    0.000    0.000    0.000    0.000    0.000 
#
# Total GULP energy -56220.526175 kJ/mol
# GULP energy per Si atom -5622.052617 kJ/mol
# Density = 2.936859 g / cm^3
# Si number density = 29.435589 Si / 1000 Ang^3
#
#
#
# Elastic Constant Matrix: (Units=GPa)
#
#
# Indices 1 2 3 4 5 6 
#
# 1 187.0978 128.6487 86.1594 0.0000 -18.4830 0.0000
# 2 128.6487 349.4498 141.5165 0.0000 4.7628 0.0000
# 3 86.1594 141.5165 275.3793 0.0000 -9.1445 0.0000
# 4 0.0000 0.0000 0.0000 76.7293 0.0000 -0.6700
# 5 -18.4830 4.7628 -9.1445 0.0000 47.7947 0.0000
# 6 0.0000 0.0000 0.0000 -0.6700 0.0000 80.2320
#
#
#
# Elastic Compliance Matrix: (Units=1/GPa)
#
#
# Indices 1 2 3 4 5 6 
#
# 1 0.007864 -0.002503 -0.001072 0.000000 0.003086 0.000000
# 2 -0.002503 0.004435 -0.001553 0.000000 -0.001707 0.000000
# 3 -0.001072 -0.001553 0.004786 0.000000 0.000656 0.000000
# 4 0.000000 0.000000 0.000000 0.013034 0.000000 0.000109
# 5 0.003086 -0.001707 0.000656 0.000000 0.022412 0.000000
# 6 0.000000 0.000000 0.000000 0.000109 0.000000 0.012465
#
#
# Mechanical properties :
#
#
# Convention : Reuss Voigt Hill
#
# Bulk Modulus (GPa) = 146.39904 169.39734 157.89819
# Shear Modulus (GPa) = 64.49211 71.32468 67.90840
#
# Velocity S-wave (km/s) = 4.68584 4.92782 4.80835
# Velocity P-wave (km/s) = 8.89492 9.48953 9.19703
#
# Compressibility (1/GPa) = 0.00683065
#
# Stress axis : x y z
#
# Youngs Moduli (GPa) = 127.15482 225.46297 208.92545
#
# Poissons Ratio (x) = 0.56441 0.22390
# Poissons Ratio (y) = 0.31831 0.32441
# Poissons Ratio (z) = 0.13627 0.35009
#
# Static dielectric constant tensor:
#      x y z
#    x 2.512880 0.000000 -0.055770 
#    y 0.000000 2.239210 0.000000 
#    z -0.055770 0.000000 2.324920 
# 
# From -- ./inp_files/26541.got.cif
#   From: 2010.05.17/outbox.cif.g08.bks.cpg/sg15_14_cif.got.tgz:26541.got - 2010.06.03 18:47:42.
