data_PCOD9308563
_publ_section_title
;
Structure prediction by ZEFSAII (Michael W. Deem and Ramdas Pophale) SiO2 
 PCOD9308563
Probable space group: C 2/C
;
_chemical_formula_sum "Si O2"
_cell_formula_units_Z 48
_cell_length_a 22.593183
_cell_length_b 8.418731
_cell_length_c 15.357074
_cell_angle_alpha 90.000000
_cell_angle_beta 34.465934
_cell_angle_gamma 90.000000
_cell_volume 1653.044752
_symmetry_space_group_name_H-M "C 2/C"
_symmetry_group_IT_number 15
_symmetry_cell_setting 'monoclinic'
loop_
_space_group_symop_operation_xyz
x,y,z
-x,y,1/2-z
-x,-y,-z
x,-y,1/2+z
1/2+x,1/2+y,z
1/2-x,1/2+y,1/2-z
1/2-x,1/2-y,-z
1/2+x,1/2-y,1/2+z
loop_
_atom_site_type_symbol
_atom_site_label
_atom_site_fract_x
_atom_site_fract_y
_atom_site_fract_z
Si Si1 0.610970 0.648776 0.391719
Si Si2 0.279267 0.817479 0.803598
Si Si3 0.019486 0.870644 0.598826
Si Si4 0.834169 0.518697 0.484309
Si Si5 0.334225 0.429874 0.934643
Si Si6 0.479313 0.890224 0.650389
O O1 0.732908 0.671820 0.262313
O O2 0.583321 0.466189 0.447212
O O3 0.564985 0.722457 0.358871
O O4 0.552451 0.741953 0.539547
O O5 0.395774 0.883624 0.673262
O O6 0.250386 0.642590 0.873740
O O7 0.211099 0.935171 0.947152
O O8 0.932171 0.977041 0.754815
O O9 0.101492 0.821869 0.573559
O O10 0.762002 0.399426 0.515400
O O11 0.901620 0.609003 0.326924
O O12 0.928998 0.484577 0.437032
#
# Coordination Sequence:
#
# PCOD9308563 Si02
#       6
#     8   8   8   8   8   8
#     4   9  16  24  35  56  82 107 131 157 203 241
#     4   9  15  23  37  57  81 105 129 162 202 241
#     4   9  16  24  36  54  81 109 131 162 191 240
#     4   9  15  22  37  59  81 104 128 163 203 240
#     4   9  15  24  37  55  76 102 134 161 197 233
#     4   9  15  23  36  57  82 102 127 165 204 241
#
# _framework density 29.037324999999999
#
# number of rings (size 3 to 8) (size 9 to 14) (size 15 to 20)
#    0.000    3.000    0.000    4.000    0.000    6.667 
#    0.000    0.000    0.000    1.000    0.000   16.333 
#    0.000    1.333    0.000    0.000    0.000    0.000 
#
# Total GULP energy -133756.312334 kJ/mol
# GULP energy per Si atom -5573.179681 kJ/mol
# Density = 2.897123 g / cm^3
# Si number density = 29.037325 Si / 1000 Ang^3
#
#
#
# Elastic Constant Matrix: (Units=GPa)
#
#
# Indices 1 2 3 4 5 6 
#
# 1 344.9246 45.9421 70.0892 -0.0001 -104.1746 0.0000
# 2 45.9421 71.2054 29.8363 -0.0008 -25.4127 0.0003
# 3 70.0892 29.8363 168.8604 -0.0010 -25.7111 0.0003
# 4 -0.0001 -0.0008 -0.0010 10.3691 0.0001 -11.8324
# 5 -104.1746 -25.4127 -25.7111 0.0001 72.4214 0.0001
# 6 0.0000 0.0003 0.0003 -11.8324 0.0001 36.2921
#
#
#
# Elastic Compliance Matrix: (Units=1/GPa)
#
#
# Indices 1 2 3 4 5 6 
#
# 1 0.005325 -0.000453 -0.001045 0.000000 0.007130 0.000000
# 2 -0.000453 0.016824 -0.002098 0.000002 0.004506 0.000000
# 3 -0.001045 -0.002098 0.006750 0.000001 0.000158 0.000000
# 4 0.000000 0.000002 0.000001 0.153578 0.000000 0.050071
# 5 0.007130 0.004506 0.000158 0.000000 0.025702 0.000000
# 6 0.000000 0.000000 0.000000 0.050071 0.000000 0.043879
#
#
# Mechanical properties :
#
#
# Convention : Reuss Voigt Hill
#
# Bulk Modulus (GPa) = 46.06831 97.41396 71.74114
# Shear Modulus (GPa) = 18.76263 53.09137 35.92700
#
# Velocity S-wave (km/s) = 2.54472 4.28060 3.52130
# Velocity P-wave (km/s) = 4.95316 7.61919 6.42596
#
# Compressibility (1/GPa) = 0.02170689
#
# Stress axis : x y z
#
# Youngs Moduli (GPa) = 187.78133 59.43912 148.13957
#
# Poissons Ratio (x) = 0.02696 0.15475
# Poissons Ratio (y) = 0.08516 0.31084
# Poissons Ratio (z) = 0.19616 0.12472
#
# Static dielectric constant tensor:
#      x y z
#    x 2.435330 0.000000 -0.020820 
#    y 0.000000 2.266640 0.000000 
#    z -0.020820 0.000000 2.157940 
# 
# From -- ./inp_files/219421.got.cif
#   From: 2010.05.17/outbox.cif.g08.bks.cpg/sg15_110_cif.got.tgz:219421.got - 2010.06.03 18:47:42.
