data_PCOD9308048
_publ_section_title
;
Structure prediction by ZEFSAII (Michael W. Deem and Ramdas Pophale) SiO2 
 PCOD9308048
Probable space group: C 2/C
;
_chemical_formula_sum "Si O2"
_cell_formula_units_Z 32
_cell_length_a 18.162720
_cell_length_b 8.556229
_cell_length_c 24.562974
_cell_angle_alpha 90.000000
_cell_angle_beta 17.908962
_cell_angle_gamma 90.000000
_cell_volume 1173.808002
_symmetry_space_group_name_H-M "C 2/C"
_symmetry_group_IT_number 15
_symmetry_cell_setting 'monoclinic'
loop_
_space_group_symop_operation_xyz
x,y,z
-x,y,1/2-z
-x,-y,-z
x,-y,1/2+z
1/2+x,1/2+y,z
1/2-x,1/2+y,1/2-z
1/2-x,1/2-y,-z
1/2+x,1/2-y,1/2+z
loop_
_atom_site_type_symbol
_atom_site_label
_atom_site_fract_x
_atom_site_fract_y
_atom_site_fract_z
Si Si1 0.226585 0.867320 0.397226
Si Si2 0.788888 0.324188 0.180057
Si Si3 0.008700 0.452684 0.617592
Si Si4 0.987767 0.060806 0.332807
O O1 0.409184 0.723401 0.261175
O O2 0.997111 0.803293 0.525402
O O3 0.130451 0.902393 0.525028
O O4 0.364548 0.013282 0.274997
O O5 0.887691 0.426704 0.160527
O O6 0.553325 0.221307 0.357347
O O7 0.707235 0.443096 0.190723
O O8 0.282273 0.489625 0.439331
#
# Coordination Sequence:
#
# PCOD9308048 Si02
#       4
#     8   8   8   8
#     4  12  25  50  76 110 149 201 246 305 374 446
#     4  12  26  49  76 112 150 197 250 308 370 442
#     4  12  26  48  78 109 153 196 250 306 372 442
#     4  12  28  48  80 111 152 196 249 308 373 442
#
# _framework density 27.261700000000001
#
# number of rings (size 3 to 8) (size 9 to 14) (size 15 to 20)
#    0.000    0.000    5.000    3.750    3.500    0.000 
#    0.000    0.000    0.000    0.000    0.000    0.000 
#    0.000    0.000    0.000    0.000    0.000    0.000 
#
# Total GULP energy -89853.315001 kJ/mol
# GULP energy per Si atom -5615.832188 kJ/mol
# Density = 2.719965 g / cm^3
# Si number density = 27.261700 Si / 1000 Ang^3
#
#
#
# Elastic Constant Matrix: (Units=GPa)
#
#
# Indices 1 2 3 4 5 6 
#
# 1 146.5701 30.7554 77.8656 0.0066 -32.0419 0.0059
# 2 30.7554 75.0439 31.9323 0.0028 -17.1609 0.0014
# 3 77.8656 31.9323 146.9702 -0.0639 -21.5561 -0.0585
# 4 0.0066 0.0028 -0.0639 60.9694 -0.0112 -15.7462
# 5 -32.0419 -17.1609 -21.5561 -0.0112 64.5721 -0.0116
# 6 0.0059 0.0014 -0.0585 -15.7462 -0.0116 34.6229
#
#
#
# Elastic Compliance Matrix: (Units=1/GPa)
#
#
# Indices 1 2 3 4 5 6 
#
# 1 0.010312 -0.001517 -0.004671 -0.000009 0.003155 -0.000012
# 2 -0.001517 0.015474 -0.002172 -0.000004 0.002635 -0.000005
# 3 -0.004671 -0.002172 0.009806 0.000018 0.000379 0.000026
# 4 -0.000009 -0.000004 0.000018 0.018585 0.000005 0.008452
# 5 0.003155 0.002635 0.000379 0.000005 0.017878 0.000008
# 6 -0.000012 -0.000005 0.000026 0.008452 0.000008 0.032727
#
#
# Mechanical properties :
#
#
# Convention : Reuss Voigt Hill
#
# Bulk Modulus (GPa) = 52.98835 72.18788 62.58812
# Shear Modulus (GPa) = 39.12575 47.23496 43.18036
#
# Velocity S-wave (km/s) = 3.79250 4.16703 3.98417
# Velocity P-wave (km/s) = 6.21744 7.04906 6.64627
#
# Compressibility (1/GPa) = 0.01887207
#
# Stress axis : x y z
#
# Youngs Moduli (GPa) = 96.97239 64.62486 101.97526
#
# Poissons Ratio (x) = 0.09805 0.47634
# Poissons Ratio (y) = 0.14713 0.22147
# Poissons Ratio (z) = 0.45297 0.14035
#
# Static dielectric constant tensor:
#      x y z
#    x 2.140300 0.000020 0.031960 
#    y 0.000020 2.072500 0.000050 
#    z 0.031960 0.000050 2.165550 
# 
# From -- ./inp_files/298725.got.cif
#   From: 2010.05.17/outbox.cif.g08.bks.cpg/sg15_150_cif.got.tgz:298725.got - 2010.06.03 18:47:42.
