data_PCOD9308087
_publ_section_title
;
Structure prediction by ZEFSAII (Michael W. Deem and Ramdas Pophale) SiO2 
 PCOD9308087
Probable space group: C 2/C
;
_chemical_formula_sum "Si O2"
_cell_formula_units_Z 28
_cell_length_a 5.347725
_cell_length_b 17.738897
_cell_length_c 14.157848
_cell_angle_alpha 90.000000
_cell_angle_beta 58.710384
_cell_angle_gamma 90.000000
_cell_volume 1147.709330
_symmetry_space_group_name_H-M "C 2/C"
_symmetry_group_IT_number 15
_symmetry_cell_setting 'monoclinic'
loop_
_space_group_symop_operation_xyz
x,y,z
-x,y,1/2-z
-x,-y,-z
x,-y,1/2+z
1/2+x,1/2+y,z
1/2-x,1/2+y,1/2-z
1/2-x,1/2-y,-z
1/2+x,1/2-y,1/2+z
loop_
_atom_site_type_symbol
_atom_site_label
_atom_site_fract_x
_atom_site_fract_y
_atom_site_fract_z
Si Si1 0.571452 0.577050 0.570847
Si Si2 0.500000 0.989817 0.250000
Si Si3 0.500000 0.283656 0.750000
Si Si4 0.994138 0.916272 0.876040
Si Si5 0.000000 0.814162 0.250000
O O1 0.685810 0.492354 0.567850
O O2 0.631411 0.601690 0.452764
O O3 0.643246 0.632632 0.641484
O O4 0.215906 0.563487 0.648543
O O5 0.743362 0.048508 0.240233
O O6 0.379015 0.340204 0.854579
O O7 0.755836 0.235294 0.746214
#
# Coordination Sequence:
#
# PCOD9308087 Si02
#       5
#     8   4   4   8   4
#     4   9  20  42  70 101 126 178 231 283 330 397
#     4   8  16  38  70  96 124 160 224 286 324 378
#     4  12  26  44  67  99 146 182 218 278 346 414
#     4   9  20  42  70 101 126 178 231 283 330 397
#     4  12  26  44  67  99 146 182 218 278 346 414
#
# _framework density 24.396419999999999
#
# number of rings (size 3 to 8) (size 9 to 14) (size 15 to 20)
#    1.714    0.571    0.000    2.571    0.000    2.286 
#    0.000   11.429    0.000    0.000    0.000    0.000 
#    0.000    0.000    0.000    0.000    0.000    0.000 
#
# Total GULP energy -77959.749232 kJ/mol
# GULP energy per Si atom -5568.553517 kJ/mol
# Density = 2.434089 g / cm^3
# Si number density = 24.396420 Si / 1000 Ang^3
#
#
#
# Elastic Constant Matrix: (Units=GPa)
#
#
# Indices 1 2 3 4 5 6 
#
# 1 143.3498 81.6753 35.2275 0.0000 11.7752 0.0000
# 2 81.6753 147.6118 26.4972 0.0000 49.4258 0.0000
# 3 35.2275 26.4972 84.0761 0.0000 29.4437 0.0000
# 4 0.0000 0.0000 0.0000 25.2411 0.0000 28.3046
# 5 11.7752 49.4258 29.4437 0.0000 59.3196 0.0000
# 6 0.0000 0.0000 0.0000 28.3046 0.0000 10.1428
#
#
#
# Elastic Compliance Matrix: (Units=1/GPa)
#
#
# Indices 1 2 3 4 5 6 
#
# 1 0.012323 -0.008229 -0.004980 0.000000 0.006882 0.000000
# 2 -0.008229 0.014896 0.003060 0.000000 -0.012297 0.000000
# 3 -0.004980 0.003060 0.016416 0.000000 -0.009709 0.000000
# 4 0.000000 0.000000 0.000000 -0.018606 0.000000 0.051922
# 5 0.006882 -0.012297 -0.009709 0.000000 0.030557 0.000000
# 6 0.000000 0.000000 0.000000 0.051922 0.000000 -0.046302
#
#
# Mechanical properties :
#
#
# Convention : Reuss Voigt Hill
#
# Bulk Modulus (GPa) = 42.85086 73.53752 58.19419
# Shear Modulus (GPa) = 133.82995 34.38322 84.10658
#
# Velocity S-wave (km/s) = 7.41454 3.75821 5.87791
# Velocity P-wave (km/s) = 9.53432 7.00288 8.36491
#
# Compressibility (1/GPa) = 0.02333675
#
# Stress axis : x y z
#
# Youngs Moduli (GPa) = 81.14966 67.13326 60.91433
#
# Poissons Ratio (x) = 0.55243 0.30335
# Poissons Ratio (y) = 0.66777 -0.18637
# Poissons Ratio (z) = 0.40412 -0.20540
#
# Static dielectric constant tensor:
#      x y z
#    x 2.022230 0.000000 0.005320 
#    y 0.000000 1.938230 0.000000 
#    z 0.005320 0.000000 2.006080 
# 
# From -- ./inp_files/183662.got.cif
#   From: 2010.05.17/outbox.cif.g08.bks.cpg/sg15_92_cif.got.tgz:183662.got - 2010.06.03 18:47:42.
