data_PCOD9308616
_publ_section_title
;
Structure prediction by ZEFSAII (Michael W. Deem and Ramdas Pophale) SiO2 
 PCOD9308616
Probable space group: C 2/C
;
_chemical_formula_sum "Si O2"
_cell_formula_units_Z 32
_cell_length_a 21.000000
_cell_length_b 18.000000
_cell_length_c 27.000000
_cell_angle_alpha 90.000000
_cell_angle_beta 160.000000
_cell_angle_gamma 90.000000
_cell_volume 3490.657583
_symmetry_space_group_name_H-M "C 2/C"
_symmetry_group_IT_number 15
_symmetry_cell_setting 'monoclinic'
loop_
_space_group_symop_operation_xyz
x,y,z
-x,y,1/2-z
-x,-y,-z
x,-y,1/2+z
1/2+x,1/2+y,z
1/2-x,1/2+y,1/2-z
1/2-x,1/2-y,-z
1/2+x,1/2-y,1/2+z
loop_
_atom_site_type_symbol
_atom_site_label
_atom_site_fract_x
_atom_site_fract_y
_atom_site_fract_z
Si Si1 0.361972 0.319573 0.313104
Si Si2 0.892906 0.957294 0.968064
Si Si3 0.044224 0.391345 0.140780
Si Si4 0.439597 0.178896 0.992260
Si Si5 0.497453 0.407321 0.600825
Si Si6 0.135215 0.438492 0.695572
Si Si7 0.851655 0.323316 0.184633
Si Si8 0.732915 0.658921 0.350198
O O1 0.488152 0.391057 0.420437
O O2 0.486343 0.249649 0.421779
O O3 0.183965 0.331458 0.218537
O O4 0.258079 0.315406 0.182737
O O5 0.882449 0.019081 0.003124
O O6 0.704131 0.930196 0.803005
O O7 0.000000 0.000000 0.000000
O O8 0.094191 0.473936 0.158223
O O9 0.088912 0.382549 0.230656
O O10 0.834494 0.371069 0.973212
O O11 0.465892 0.109531 0.049320
O O12 0.596273 0.166617 0.064148
O O13 0.682716 0.411578 0.702139
O O14 0.359979 0.340662 0.486195
O O15 0.579550 0.395704 0.715157
O O16 0.854233 0.239531 0.206359
O O17 0.000000 0.329395 0.250000
#
# Coordination Sequence:
#
# PCOD9308616 Si02
#       8
#     8   8   8   8   8   8   8   8
#     4  11  19  32  49  76 111 142 174 213 277 341
#     4  10  17  30  51  68 101 138 176 219 275 330
#     4  11  20  35  53  77 103 146 184 238 281 325
#     4  10  22  29  51  77 111 141 177 216 274 342
#     4  10  20  34  51  77  97 143 186 228 283 328
#     4  10  19  34  53  76 106 139 182 227 289 339
#     4  12  24  39  54  74 106 156 208 236 261 312
#     4  10  23  31  51  72 106 140 192 227 274 318
#
# _framework density 9.1673270000000002
#
# number of rings (size 3 to 8) (size 9 to 14) (size 15 to 20)
#    0.000    1.500    5.000    2.250    7.000    3.500 
#    0.000    0.000    0.000    0.000    0.000    0.000 
#    0.000    1.000    0.000    0.000    0.000    0.250 
#
# Total GULP energy -178152.382336 kJ/mol
# GULP energy per Si atom -5567.261948 kJ/mol
# Density = 0.914646 g / cm^3
# Si number density = 9.167327 Si / 1000 Ang^3
#
#
#
# Elastic Constant Matrix: (Units=GPa)
#
#
# Indices 1 2 3 4 5 6 
#
# 1 12.0146 7.1292 26.8651 -0.0006 -3.7920 0.0068
# 2 7.1292 72.8641 41.5584 -0.0473 -6.3897 0.0381
# 3 26.8651 41.5584 104.3965 0.0004 -48.2939 0.0291
# 4 -0.0006 -0.0473 0.0004 32.2422 0.0169 -18.0244
# 5 -3.7920 -6.3897 -48.2939 0.0169 23.1967 -0.0074
# 6 0.0068 0.0381 0.0291 -18.0244 -0.0074 14.1559
#
#
#
# Elastic Compliance Matrix: (Units=1/GPa)
#
#
# Indices 1 2 3 4 5 6 
#
# 1 0.020827 -0.020353 0.046732 -0.000280 0.095091 -0.000358
# 2 -0.020353 0.012547 0.008201 -0.000031 0.017202 -0.000071
# 3 0.046732 0.008201 -0.030700 0.000125 -0.054018 0.000149
# 4 -0.000280 -0.000031 0.000125 0.107616 0.000171 0.137024
# 5 0.095091 0.017202 -0.054018 0.000171 -0.049068 0.000211
# 6 -0.000358 -0.000071 0.000149 0.137024 0.000211 0.245111
#
#
# Mechanical properties :
#
#
# Convention : Reuss Voigt Hill
#
# Bulk Modulus (GPa) = 13.92112 37.82006 25.87059
# Shear Modulus (GPa) = 19.14856 21.50046 20.32451
#
# Velocity S-wave (km/s) = 3.23521 3.42814 3.33307
# Velocity P-wave (km/s) = 4.64378 6.02843 5.38083
#
# Compressibility (1/GPa) = 0.07183328
#
# Stress axis : x y z
#
# Youngs Moduli (GPa) = 48.01550 79.70164 -32.57312
#
# Poissons Ratio (x) = 1.62214 1.52221
# Poissons Ratio (y) = 0.97724 0.26712
# Poissons Ratio (z) = -2.24386 -0.65360
#
# Static dielectric constant tensor:
#      x y z
#    x 1.651660 0.000000 -0.038900 
#    y 0.000000 1.684340 -0.000020 
#    z -0.038900 -0.000020 1.672580 
# 
# From -- ./inp_files/301362.got.cif
#   From: 2010.05.17/outbox.ucp.g08.bks.cvg/sg15_151_cif.got.tgz:301362.got - 2010.06.11 12:40:34.
