data_PCOD9308859
_publ_section_title
;
Structure prediction by ZEFSAII (Michael W. Deem and Ramdas Pophale) SiO2 
 PCOD9308859
Probable space group: C 2/C
;
_chemical_formula_sum "Si O2"
_cell_formula_units_Z 30
_cell_length_a 27.000000
_cell_length_b 15.000000
_cell_length_c 21.000000
_cell_angle_alpha 90.000000
_cell_angle_beta 20.000000
_cell_angle_gamma 90.000000
_cell_volume 2908.881319
_symmetry_space_group_name_H-M "C 2/C"
_symmetry_group_IT_number 15
_symmetry_cell_setting 'monoclinic'
loop_
_space_group_symop_operation_xyz
x,y,z
-x,y,1/2-z
-x,-y,-z
x,-y,1/2+z
1/2+x,1/2+y,z
1/2-x,1/2+y,1/2-z
1/2-x,1/2-y,-z
1/2+x,1/2-y,1/2+z
loop_
_atom_site_type_symbol
_atom_site_label
_atom_site_fract_x
_atom_site_fract_y
_atom_site_fract_z
Si Si1 0.358982 0.937768 0.123827
Si Si2 0.412859 0.351955 0.111091
Si Si3 0.000000 0.640933 0.250000
Si Si4 0.431024 0.244273 0.958283
Si Si5 0.714324 0.378479 0.791613
Si Si6 0.351546 0.055993 0.310926
Si Si7 0.279225 0.272146 0.588822
Si Si8 0.293860 0.140011 0.839032
O O1 0.234120 0.904201 0.226842
O O2 0.357864 0.879008 0.189708
O O3 0.304788 0.037084 0.206512
O O4 0.508998 0.939461 0.904875
O O5 0.368812 0.282766 0.219893
O O6 0.447069 0.302402 0.003396
O O7 0.556065 0.404141 0.957937
O O8 0.910753 0.578398 0.309574
O O9 0.895133 0.706531 0.417152
O O10 0.587071 0.196011 0.764514
O O11 0.311177 0.169255 0.120835
O O12 0.355037 0.305983 0.996062
O O13 0.687913 0.307956 0.879974
O O14 0.247849 0.138757 0.418873
O O15 0.281495 0.958296 0.385327
#
# Coordination Sequence:
#
# PCOD9308859 Si02
#       8
#     8   8   4   8   8   8   8   8
#     4  11  20  35  59  92 129 170 209 266 329 390
#     4  10  20  32  53  91 131 166 206 255 326 385
#     4  12  26  44  62  90 128 182 226 262 318 388
#     4  10  20  32  57  88 125 164 199 259 328 390
#     4  11  19  33  57  92 130 166 208 267 325 388
#     4  12  23  40  62  88 124 172 223 267 319 391
#     4  11  23  39  61  88 128 178 222 261 316 386
#     4  11  21  38  61  91 128 161 211 265 334 387
#
# _framework density 10.313243
#
# number of rings (size 3 to 8) (size 9 to 14) (size 15 to 20)
#    0.000    1.067    5.333    3.600    1.867    0.000 
#    0.000    0.000    0.000    0.800    0.000    0.000 
#    0.000    0.000    0.000    0.000    0.000    0.000 
#
# Total GULP energy -167584.586028 kJ/mol
# GULP energy per Si atom -5586.152868 kJ/mol
# Density = 1.028977 g / cm^3
# Si number density = 10.313243 Si / 1000 Ang^3
#
#
#
# Elastic Constant Matrix: (Units=GPa)
#
#
# Indices 1 2 3 4 5 6 
#
# 1 69.1703 39.5359 15.8559 0.0000 -19.6462 -0.0001
# 2 39.5359 98.6169 18.6913 0.0000 -10.9607 -0.0001
# 3 15.8559 18.6913 32.7810 -0.0007 -15.6430 -0.0001
# 4 0.0000 0.0000 -0.0007 34.3284 -0.0001 -12.7163
# 5 -19.6462 -10.9607 -15.6430 -0.0001 26.7903 0.0003
# 6 -0.0001 -0.0001 -0.0001 -12.7163 0.0003 33.3495
#
#
#
# Elastic Compliance Matrix: (Units=1/GPa)
#
#
# Indices 1 2 3 4 5 6 
#
# 1 0.022614 -0.007531 -0.000279 0.000000 0.013340 0.000000
# 2 -0.007531 0.013905 -0.005831 0.000000 -0.003239 0.000000
# 3 -0.000279 -0.005831 0.045371 0.000001 0.023903 0.000000
# 4 0.000000 0.000000 0.000001 0.033922 0.000001 0.012934
# 5 0.013340 -0.003239 0.023903 0.000001 0.059741 0.000000
# 6 0.000000 0.000000 0.000000 0.012934 0.000000 0.034917
#
#
# Mechanical properties :
#
#
# Convention : Reuss Voigt Hill
#
# Bulk Modulus (GPa) = 18.31190 38.74826 28.53008
# Shear Modulus (GPa) = 19.53474 27.32598 23.43036
#
# Velocity S-wave (km/s) = 3.08079 3.64373 3.37402
# Velocity P-wave (km/s) = 4.64243 6.04391 5.38892
#
# Compressibility (1/GPa) = 0.05460930
#
# Stress axis : x y z
#
# Youngs Moduli (GPa) = 44.22009 71.91880 22.04039
#
# Poissons Ratio (x) = 0.54159 0.00614
# Poissons Ratio (y) = 0.33301 0.12852
# Poissons Ratio (z) = 0.01232 0.41936
#
# Static dielectric constant tensor:
#      x y z
#    x 1.748380 0.000000 -0.029160 
#    y 0.000000 1.781730 0.000000 
#    z -0.029160 0.000000 1.719350 
# 
# From -- ./inp_files/257860.got.cif
#   From: 2010.05.17/outbox.ucp.g08.bks.cvg/sg15_129_cif.got.tgz:257860.got - 2010.06.11 12:40:34.
