data_PCOD9308499
_publ_section_title
;
Structure prediction by ZEFSAII (Michael W. Deem and Ramdas Pophale) SiO2 
 PCOD9308499
Probable space group: C 2/C
;
_chemical_formula_sum "Si O2"
_cell_formula_units_Z 64
_cell_length_a 17.144579
_cell_length_b 7.095316
_cell_length_c 19.337798
_cell_angle_alpha 90.000000
_cell_angle_beta 115.837080
_cell_angle_gamma 90.000000
_cell_volume 2117.219616
_symmetry_space_group_name_H-M "C 2/C"
_symmetry_group_IT_number 15
_symmetry_cell_setting 'monoclinic'
loop_
_space_group_symop_operation_xyz
x,y,z
-x,y,1/2-z
-x,-y,-z
x,-y,1/2+z
1/2+x,1/2+y,z
1/2-x,1/2+y,1/2-z
1/2-x,1/2-y,-z
1/2+x,1/2-y,1/2+z
loop_
_atom_site_type_symbol
_atom_site_label
_atom_site_fract_x
_atom_site_fract_y
_atom_site_fract_z
Si Si1 0.571708 0.485488 0.837751
Si Si2 0.440840 0.966587 0.139624
Si Si3 0.668243 0.000207 0.278903
Si Si4 0.191059 0.067128 0.554355
Si Si5 0.557580 0.526304 0.607503
Si Si6 0.192496 0.059393 0.272418
Si Si7 0.068027 0.412846 0.080380
Si Si8 0.211659 0.500811 0.032326
O O1 0.500000 0.513270 0.750000
O O2 0.567081 0.260822 0.852316
O O3 0.530806 0.586253 0.889255
O O4 0.664152 0.525682 0.836250
O O5 0.411151 0.055565 0.201199
O O6 0.534741 0.004797 0.140604
O O7 0.366394 0.010308 0.055150
O O8 0.748562 0.025894 0.364457
O O9 0.661293 0.775116 0.263610
O O10 0.712775 0.069548 0.225045
O O11 0.223544 0.279222 0.556498
O O12 0.207051 0.959561 0.488296
O O13 0.096866 0.101908 0.551453
O O14 0.631325 0.548793 0.694544
O O15 0.553988 0.305706 0.589200
O O16 0.161616 0.419760 0.079881
O O17 0.000000 0.500000 0.000000
#
# Coordination Sequence:
#
# PCOD9308499 Si02
#       8
#     8   8   8   8   8   8   8   8
#     4   8  14  27  46  64  84 113 148 181 219 267
#     4   8  15  29  46  63  87 118 149 181 218 266
#     4   9  17  30  47  66  91 116 147 184 224 268
#     4   9  18  31  46  66  92 122 150 184 224 270
#     4   9  17  30  48  68  89 116 153 188 225 268
#     4   9  17  29  47  68  89 118 148 184 225 270
#     4   9  17  30  47  66  88 117 151 188 223 261
#     4   9  17  30  47  65  90 121 151 182 225 267
#
# _framework density 30.228321000000001
#
# number of rings (size 3 to 8) (size 9 to 14) (size 15 to 20)
#    0.000    3.250    0.000    0.000    0.000    1.500 
#    0.000    6.875    0.000    0.000    0.000    0.000 
#    0.000    0.000    0.000    0.000    0.000    0.000 
#
# Total GULP energy -178963.219598 kJ/mol
# GULP energy per Si atom -5592.600612 kJ/mol
# Density = 3.015952 g / cm^3
# Si number density = 30.228321 Si / 1000 Ang^3
#
#
#
# Elastic Constant Matrix: (Units=GPa)
#
#
# Indices 1 2 3 4 5 6 
#
# 1 310.3508 20.1630 82.7226 0.0000 -96.5400 0.0000
# 2 20.1630 68.4861 2.7845 0.0000 -3.7256 0.0000
# 3 82.7226 2.7845 207.6705 0.0000 -77.9621 0.0000
# 4 0.0000 0.0000 0.0000 16.1879 0.0000 -7.4968
# 5 -96.5400 -3.7256 -77.9621 0.0000 76.3093 0.0000
# 6 0.0000 0.0000 0.0000 -7.4968 0.0000 41.6452
#
#
#
# Elastic Compliance Matrix: (Units=1/GPa)
#
#
# Indices 1 2 3 4 5 6 
#
# 1 0.005470 -0.001227 0.000670 0.000000 0.007545 0.000000
# 2 -0.001227 0.014917 -0.000033 0.000000 -0.000859 0.000000
# 3 0.000670 -0.000033 0.007894 0.000000 0.008911 0.000000
# 4 0.000000 0.000000 0.000000 0.067393 0.000000 0.012132
# 5 0.007545 -0.000859 0.008911 0.000000 0.031712 0.000000
# 6 0.000000 0.000000 0.000000 0.012132 0.000000 0.026196
#
#
# Mechanical properties :
#
#
# Convention : Reuss Voigt Hill
#
# Bulk Modulus (GPa) = 36.89959 88.64974 62.77467
# Shear Modulus (GPa) = 30.52521 58.88430 44.70476
#
# Velocity S-wave (km/s) = 3.18122 4.41839 3.84982
# Velocity P-wave (km/s) = 5.07218 7.44445 6.36973
#
# Compressibility (1/GPa) = 0.02710057
#
# Stress axis : x y z
#
# Youngs Moduli (GPa) = 182.80215 67.03542 126.67396
#
# Poissons Ratio (x) = 0.08227 -0.08487
# Poissons Ratio (y) = 0.22436 0.00424
# Poissons Ratio (z) = -0.12247 0.00224
#
# Static dielectric constant tensor:
#      x y z
#    x 2.500860 0.000000 0.062380 
#    y 0.000000 2.342270 0.000000 
#    z 0.062380 0.000000 2.475590 
# 
# From -- ./inp_files/279227.got.cif
#   From: 2010.05.17/outbox.cif.g08.bks.cpg/sg15_140_cif.got.tgz:279227.got - 2010.06.03 18:47:42.
