data_PCOD9308883
_publ_section_title
;
Structure prediction by ZEFSAII (Michael W. Deem and Ramdas Pophale) SiO2 
 PCOD9308883
Probable space group: C 2/C
;
_chemical_formula_sum "Si O2"
_cell_formula_units_Z 20
_cell_length_a 12.000000
_cell_length_b 30.000000
_cell_length_c 9.000000
_cell_angle_alpha 90.000000
_cell_angle_beta 40.000000
_cell_angle_gamma 90.000000
_cell_volume 2082.631855
_symmetry_space_group_name_H-M "C 2/C"
_symmetry_group_IT_number 15
_symmetry_cell_setting 'monoclinic'
loop_
_space_group_symop_operation_xyz
x,y,z
-x,y,1/2-z
-x,-y,-z
x,-y,1/2+z
1/2+x,1/2+y,z
1/2-x,1/2+y,1/2-z
1/2-x,1/2-y,-z
1/2+x,1/2-y,1/2+z
loop_
_atom_site_type_symbol
_atom_site_label
_atom_site_fract_x
_atom_site_fract_y
_atom_site_fract_z
Si Si1 0.861543 0.222079 0.007037
Si Si2 0.685611 0.447722 0.871301
Si Si3 0.463256 0.797012 0.466129
Si Si4 0.292647 0.457990 0.297395
Si Si5 0.001007 0.386413 0.571199
O O1 0.728681 0.198010 0.258086
O O2 0.958994 0.255866 0.019528
O O3 0.750000 0.250000 0.000000
O O4 0.000000 0.198411 0.750000
O O5 0.736015 0.492162 0.731264
O O6 0.815723 0.406965 0.712403
O O7 0.481252 0.440792 0.050898
O O8 0.703494 0.458276 0.028070
O O9 0.500000 0.790913 0.250000
O O10 0.551032 0.842993 0.427586
O O11 0.140979 0.425140 0.404814
O O12 0.000000 0.375768 0.750000
#
# Coordination Sequence:
#
# PCOD9308883 Si02
#       5
#     8   8   8   8   8
#     4   9  19  39  63  83 108 155 192 226 286 362
#     4   9  18  33  52  78 106 148 193 233 290 340
#     4  11  22  38  59  89 120 146 191 246 298 343
#     4   9  18  33  53  76 109 147 190 241 282 346
#     4  10  20  35  53  80 113 152 194 235 285 354
#
# _framework density 9.6032340000000005
#
# number of rings (size 3 to 8) (size 9 to 14) (size 15 to 20)
#    0.000    2.400    0.000    3.000    0.000    1.600 
#   14.400    0.000    0.000    0.000    0.000    0.000 
#    0.000    0.000    0.000    0.000    0.000    0.000 
#
# Total GULP energy -111374.225887 kJ/mol
# GULP energy per Si atom -5568.711294 kJ/mol
# Density = 0.958138 g / cm^3
# Si number density = 9.603234 Si / 1000 Ang^3
#
#
#
# Elastic Constant Matrix: (Units=GPa)
#
#
# Indices 1 2 3 4 5 6 
#
# 1 51.6843 18.5100 23.4982 0.0000 8.2810 0.0000
# 2 18.5100 49.0968 21.5555 0.0000 6.5949 0.0000
# 3 23.4982 21.5555 104.5222 0.0000 18.3815 0.0000
# 4 0.0000 0.0000 0.0000 22.6650 0.0000 12.3686
# 5 8.2810 6.5949 18.3815 0.0000 22.9648 0.0000
# 6 0.0000 0.0000 0.0000 12.3686 0.0000 15.7019
#
#
#
# Elastic Compliance Matrix: (Units=1/GPa)
#
#
# Indices 1 2 3 4 5 6 
#
# 1 0.024000 -0.007091 -0.003223 0.000000 -0.004038 0.000000
# 2 -0.007091 0.024692 -0.003143 0.000000 -0.002018 0.000000
# 3 -0.003223 -0.003143 0.012310 0.000000 -0.007788 0.000000
# 4 0.000000 0.000000 0.000000 0.077387 0.000000 -0.060959
# 5 -0.004038 -0.002018 -0.007788 0.000000 0.051814 0.000000
# 6 0.000000 0.000000 0.000000 -0.060959 0.000000 0.111704
#
#
# Mechanical properties :
#
#
# Convention : Reuss Voigt Hill
#
# Bulk Modulus (GPa) = 29.33581 36.93673 33.13627
# Shear Modulus (GPa) = 14.69791 21.71567 18.20679
#
# Velocity S-wave (km/s) = 2.76933 3.36615 3.08222
# Velocity P-wave (km/s) = 5.05299 5.86354 5.47329
#
# Compressibility (1/GPa) = 0.03408803
#
# Stress axis : x y z
#
# Youngs Moduli (GPa) = 41.66653 40.49847 81.23615
#
# Poissons Ratio (x) = 0.28716 0.26183
# Poissons Ratio (y) = 0.29545 0.25534
# Poissons Ratio (z) = 0.13429 0.12730
#
# Static dielectric constant tensor:
#      x y z
#    x 1.674850 0.000000 -0.052010 
#    y 0.000000 1.650690 0.000000 
#    z -0.052010 0.000000 1.743030 
# 
# From -- ./inp_files/34985.got.cif
#   From: 2010.05.17/outbox.ucp.g08.bks.cvg/sg15_18_cif.got.tgz:34985.got - 2010.06.11 12:40:34.
