data_PCOD9308235
_publ_section_title
;
Structure prediction by ZEFSAII (Michael W. Deem and Ramdas Pophale) SiO2 
 PCOD9308235
Probable space group: C 2/C
;
_chemical_formula_sum "Si O2"
_cell_formula_units_Z 32
_cell_length_a 10.390002
_cell_length_b 7.493810
_cell_length_c 16.496907
_cell_angle_alpha 90.000000
_cell_angle_beta 128.635508
_cell_angle_gamma 90.000000
_cell_volume 1003.335552
_symmetry_space_group_name_H-M "C 2/C"
_symmetry_group_IT_number 15
_symmetry_cell_setting 'monoclinic'
loop_
_space_group_symop_operation_xyz
x,y,z
-x,y,1/2-z
-x,-y,-z
x,-y,1/2+z
1/2+x,1/2+y,z
1/2-x,1/2+y,1/2-z
1/2-x,1/2-y,-z
1/2+x,1/2-y,1/2+z
loop_
_atom_site_type_symbol
_atom_site_label
_atom_site_fract_x
_atom_site_fract_y
_atom_site_fract_z
Si Si1 0.656941 0.326079 0.903737
Si Si2 0.744964 0.313502 0.749837
Si Si3 0.132197 0.234377 0.879750
Si Si4 0.475106 0.049888 0.894462
O O1 0.723572 0.263843 0.841479
O O2 0.597104 0.528887 0.861727
O O3 0.461847 0.261464 0.851714
O O4 0.815972 0.379105 0.031582
O O5 0.771423 0.540295 0.781724
O O6 0.788190 0.319876 0.666828
O O7 0.976898 0.348492 0.850694
O O8 0.250000 0.250000 0.000000
O O9 0.500000 0.000000 0.000000
#
# Coordination Sequence:
#
# PCOD9308235 Si02
#       4
#     8   8   8   8
#     4  12  27  49  79 114 156 200 260 321 380 465
#     4  12  26  50  78 104 162 206 248 318 390 450
#     4  12  27  49  79 114 156 200 260 321 380 465
#     4  12  29  51  77 119 153 207 264 314 388 466
#
# _framework density 31.893619000000001
#
# number of rings (size 3 to 8) (size 9 to 14) (size 15 to 20)
#    0.000    0.000    5.000    4.500    3.500    6.000 
#    0.000    2.500    0.000    0.000    0.000    0.000 
#    0.000    0.000    0.000    0.000    0.000    0.000 
#
# Total GULP energy -89092.884890 kJ/mol
# GULP energy per Si atom -5568.305306 kJ/mol
# Density = 3.182103 g / cm^3
# Si number density = 31.893619 Si / 1000 Ang^3
#
#
#
# Elastic Constant Matrix: (Units=GPa)
#
#
# Indices 1 2 3 4 5 6 
#
# 1 279.0835 114.4695 157.1510 0.0000 -11.7382 0.0000
# 2 114.4695 211.8208 143.4053 0.0000 -26.3706 0.0000
# 3 157.1510 143.4053 424.5960 0.0000 -6.2908 0.0000
# 4 0.0000 0.0000 0.0000 65.4710 0.0000 -34.7757
# 5 -11.7382 -26.3706 -6.2908 0.0000 119.0749 0.0000
# 6 0.0000 0.0000 0.0000 -34.7757 0.0000 71.5269
#
#
#
# Elastic Compliance Matrix: (Units=1/GPa)
#
#
# Indices 1 2 3 4 5 6 
#
# 1 0.005054 -0.001897 -0.001230 0.000000 0.000013 0.000000
# 2 -0.001897 0.007023 -0.001651 0.000000 0.001281 0.000000
# 3 -0.001230 -0.001651 0.003363 0.000000 -0.000309 0.000000
# 4 0.000000 0.000000 0.000000 0.020592 0.000000 0.010011
# 5 0.000013 0.001281 -0.000309 0.000000 0.008667 0.000000
# 6 0.000000 0.000000 0.000000 0.010011 0.000000 0.018848
#
#
# Mechanical properties :
#
#
# Convention : Reuss Voigt Hill
#
# Bulk Modulus (GPa) = 169.91435 193.95021 181.93228
# Shear Modulus (GPa) = 66.60854 84.57953 75.59404
#
# Velocity S-wave (km/s) = 4.57492 5.15527 4.87374
# Velocity P-wave (km/s) = 9.01652 9.81730 9.42542
#
# Compressibility (1/GPa) = 0.00588532
#
# Stress axis : x y z
#
# Youngs Moduli (GPa) = 197.84992 142.37982 297.32252
#
# Poissons Ratio (x) = 0.27013 0.36563
# Poissons Ratio (y) = 0.37537 0.49087
# Poissons Ratio (z) = 0.24330 0.23506
#
# Static dielectric constant tensor:
#      x y z
#    x 3.056300 0.000000 0.186050 
#    y 0.000000 2.959650 0.000000 
#    z 0.186050 0.000000 0.964900 
# 
# From -- ./inp_files/241383.got.cif
#   From: 2010.05.17/outbox.cif.g08.bks.cpg/sg15_121_cif.got.tgz:241383.got - 2010.06.03 18:47:42.
