data_PCOD9308612
_publ_section_title
;
Structure prediction by ZEFSAII (Michael W. Deem and Ramdas Pophale) SiO2 
 PCOD9308612
Probable space group: C 2/C
;
_chemical_formula_sum "Si O2"
_cell_formula_units_Z 28
_cell_length_a 18.000000
_cell_length_b 15.000000
_cell_length_c 18.000000
_cell_angle_alpha 90.000000
_cell_angle_beta 140.000000
_cell_angle_gamma 90.000000
_cell_volume 3123.947783
_symmetry_space_group_name_H-M "C 2/C"
_symmetry_group_IT_number 15
_symmetry_cell_setting 'monoclinic'
loop_
_space_group_symop_operation_xyz
x,y,z
-x,y,1/2-z
-x,-y,-z
x,-y,1/2+z
1/2+x,1/2+y,z
1/2-x,1/2+y,1/2-z
1/2-x,1/2-y,-z
1/2+x,1/2-y,1/2+z
loop_
_atom_site_type_symbol
_atom_site_label
_atom_site_fract_x
_atom_site_fract_y
_atom_site_fract_z
Si Si1 0.160643 0.740121 0.756408
Si Si2 0.994344 0.804775 0.429221
Si Si3 0.788422 0.112375 0.330033
Si Si4 0.729373 0.580482 0.753179
Si Si5 0.473916 0.137155 0.315934
Si Si6 0.407027 0.006175 0.495263
Si Si7 0.400427 0.217267 0.510122
O O1 0.192350 0.824380 0.727556
O O2 0.191797 0.650361 0.733299
O O3 0.262673 0.746848 0.900342
O O4 0.016559 0.738860 0.652831
O O5 0.889667 0.867697 0.322405
O O6 0.019369 0.725122 0.392223
O O7 0.949005 0.756628 0.469756
O O8 0.108414 0.860235 0.536087
O O9 0.661887 0.130438 0.267000
O O10 0.794468 0.008856 0.312296
O O11 0.795548 0.544647 0.876647
O O12 0.500000 0.144752 0.250000
O O13 0.538341 0.050115 0.396563
O O14 0.500000 0.000000 0.500000
O O15 0.389073 0.109998 0.500116
#
# Coordination Sequence:
#
# PCOD9308612 Si02
#       7
#     8   8   8   8   8   8   8
#     4  10  17  28  48  78 109 137 178 236 296 325
#     4  10  21  34  50  81 115 144 184 239 301 337
#     4  11  19  35  52  78 114 146 193 234 283 348
#     4  11  18  31  57  80 107 142 192 246 284 333
#     4  12  24  36  54  82 119 160 193 225 285 364
#     4  12  17  34  56  75 105 151 193 247 272 326
#     4  10  17  29  52  76 108 137 180 240 288 326
#
# _framework density 8.9630179999999999
#
# number of rings (size 3 to 8) (size 9 to 14) (size 15 to 20)
#    0.000    1.143    8.571    1.286    0.000    0.571 
#    0.000    0.000    0.000    0.000    0.000    9.000 
#    0.000    1.429    0.000    0.000    0.000    0.000 
#
# Total GULP energy -155992.235962 kJ/mol
# GULP energy per Si atom -5571.151284 kJ/mol
# Density = 0.894262 g / cm^3
# Si number density = 8.963018 Si / 1000 Ang^3
#
#
#
# Elastic Constant Matrix: (Units=GPa)
#
#
# Indices 1 2 3 4 5 6 
#
# 1 0.8419 -4.5142 9.5579 0.0000 4.3429 0.0000
# 2 -4.5142 100.6794 14.8460 0.0000 8.3357 0.0000
# 3 9.5579 14.8460 121.7162 0.0000 34.3109 0.0000
# 4 0.0000 0.0000 0.0000 45.0856 0.0000 8.3456
# 5 4.3429 8.3357 34.3109 0.0000 25.6106 0.0000
# 6 0.0000 0.0000 0.0000 8.3456 0.0000 8.7139
#
#
#
# Elastic Compliance Matrix: (Units=1/GPa)
#
#
# Indices 1 2 3 4 5 6 
#
# 1 -2.169855 -0.135562 0.113706 0.000000 0.259738 0.000000
# 2 -0.135562 0.001757 0.006607 0.000000 0.013564 0.000000
# 3 0.113706 0.006607 0.007267 0.000000 -0.031168 0.000000
# 4 0.000000 0.000000 0.000000 0.026959 0.000000 -0.025820
# 5 0.259738 0.013564 -0.031168 0.000000 0.032343 0.000000
# 6 0.000000 0.000000 0.000000 -0.025820 0.000000 0.139487
#
#
# Mechanical properties :
#
#
# Convention : Reuss Voigt Hill
#
# Bulk Modulus (GPa) = -0.45634 29.22411 14.38388
# Shear Modulus (GPa) = -1.87830 29.43853 13.78012
#
# Velocity S-wave (km/s) = -1.02473 4.05683 2.77559
# Velocity P-wave (km/s) = 1.28656 6.18723 4.27940
#
# Compressibility (1/GPa) = -2.19132678
#
# Stress axis : x y z
#
# Youngs Moduli (GPa) = -0.46086 569.13959 137.60829
#
# Poissons Ratio (x) = 77.15344 -15.64695
# Poissons Ratio (y) = -0.06247 -0.90921
# Poissons Ratio (z) = 0.05240 -3.76042
#
# Static dielectric constant tensor:
#      x y z
#    x 1.586390 0.000000 0.024390 
#    y 0.000000 1.612330 0.000000 
#    z 0.024390 0.000000 1.708140 
# 
# From -- ./inp_files/123293.got.cif
#   From: 2010.05.17/outbox.ucp.g08.bks.cvg/sg15_62_cif.got.tgz:123293.got - 2010.06.11 12:40:34.
