data_PCOD9308266
_publ_section_title
;
Structure prediction by ZEFSAII (Michael W. Deem and Ramdas Pophale) SiO2 
 PCOD9308266
Probable space group: C 2/C
;
_chemical_formula_sum "Si O2"
_cell_formula_units_Z 36
_cell_length_a 7.814709
_cell_length_b 17.519510
_cell_length_c 10.423693
_cell_angle_alpha 90.000000
_cell_angle_beta 68.977647
_cell_angle_gamma 90.000000
_cell_volume 1332.119049
_symmetry_space_group_name_H-M "C 2/C"
_symmetry_group_IT_number 15
_symmetry_cell_setting 'monoclinic'
loop_
_space_group_symop_operation_xyz
x,y,z
-x,y,1/2-z
-x,-y,-z
x,-y,1/2+z
1/2+x,1/2+y,z
1/2-x,1/2+y,1/2-z
1/2-x,1/2-y,-z
1/2+x,1/2-y,1/2+z
loop_
_atom_site_type_symbol
_atom_site_label
_atom_site_fract_x
_atom_site_fract_y
_atom_site_fract_z
Si Si1 0.055016 0.816996 0.437849
Si Si2 0.000000 0.414529 0.750000
Si Si3 0.755839 0.055248 0.960147
Si Si4 0.198134 0.115079 0.140696
Si Si5 0.369108 0.807216 0.163315
O O1 0.931602 0.892857 0.448099
O O2 0.831686 0.796395 0.219166
O O3 0.926812 0.753085 0.538109
O O4 0.204150 0.839966 0.506435
O O5 0.865345 0.459564 0.880921
O O6 0.860239 0.369322 0.696255
O O7 0.638466 0.109132 0.897995
O O8 0.801388 0.975231 0.885330
O O9 0.000000 0.134894 0.250000
O O10 0.500000 0.802559 0.250000
#
# Coordination Sequence:
#
# PCOD9308266 Si02
#       5
#     8   4   8   8   8
#     4  12  27  52  80 116 164 217 269 336 406 485
#     4  12  28  46  80 116 164 206 268 326 416 472
#     4  12  28  47  82 116 166 206 276 338 408 480
#     4  12  26  51  82 116 161 214 269 340 405 483
#     4  12  28  47  79 116 162 214 274 328 407 487
#
# _framework density 27.024612999999999
#
# number of rings (size 3 to 8) (size 9 to 14) (size 15 to 20)
#    0.000    0.000    2.222    6.667    7.778    0.000 
#    0.000    0.000    0.000    0.000    0.000    0.000 
#    0.000    0.000    0.000    0.000    0.000    0.000 
#
# Total GULP energy -101123.811179 kJ/mol
# GULP energy per Si atom -5617.989510 kJ/mol
# Density = 2.696310 g / cm^3
# Si number density = 27.024613 Si / 1000 Ang^3
#
#
#
# Elastic Constant Matrix: (Units=GPa)
#
#
# Indices 1 2 3 4 5 6 
#
# 1 178.6177 22.7791 61.8896 0.0000 8.8383 0.0000
# 2 22.7791 162.7669 60.7879 0.0000 -4.2988 0.0000
# 3 61.8896 60.7879 147.3424 0.0000 -42.6182 0.0000
# 4 0.0000 0.0000 0.0000 80.9838 0.0000 69.8021
# 5 8.8383 -4.2988 -42.6182 0.0000 72.8172 0.0000
# 6 0.0000 0.0000 0.0000 69.8021 0.0000 144.7656
#
#
#
# Elastic Compliance Matrix: (Units=1/GPa)
#
#
# Indices 1 2 3 4 5 6 
#
# 1 0.007130 0.000456 -0.004124 0.000000 -0.003252 0.000000
# 2 0.000456 0.007449 -0.003796 0.000000 -0.001838 0.000000
# 3 -0.004124 -0.003796 0.012237 0.000000 0.007438 0.000000
# 4 0.000000 0.000000 0.000000 0.021130 0.000000 -0.010188
# 5 -0.003252 -0.001838 0.007438 0.000000 0.018373 0.000000
# 6 0.000000 0.000000 0.000000 -0.010188 0.000000 0.011820
#
#
# Mechanical properties :
#
#
# Convention : Reuss Voigt Hill
#
# Bulk Modulus (GPa) = 84.11630 86.62669 85.37150
# Shear Modulus (GPa) = 51.53071 82.59802 67.06437
#
# Velocity S-wave (km/s) = 4.37144 5.53447 4.98697
# Velocity P-wave (km/s) = 7.52812 8.54194 8.05101
#
# Compressibility (1/GPa) = 0.01188830
#
# Stress axis : x y z
#
# Youngs Moduli (GPa) = 140.24929 134.24248 81.71992
#
# Poissons Ratio (x) = -0.06127 0.33700
# Poissons Ratio (y) = -0.06401 0.31025
# Poissons Ratio (z) = 0.57837 0.50965
#
# Static dielectric constant tensor:
#      x y z
#    x 2.150200 0.000000 -0.010660 
#    y 0.000000 2.013670 0.000000 
#    z -0.010660 0.000000 2.095940 
# 
# From -- ./inp_files/77341.got.cif
#   From: 2010.05.17/outbox.cif.g08.bks.cpg/sg15_39_cif.got.tgz:77341.got - 2010.06.03 18:47:42.
