data_PCOD9308752
_publ_section_title
;
Structure prediction by ZEFSAII (Michael W. Deem and Ramdas Pophale) SiO2 
 PCOD9308752
Probable space group: C 2/C
;
_chemical_formula_sum "Si O2"
_cell_formula_units_Z 28
_cell_length_a 15.000000
_cell_length_b 12.000000
_cell_length_c 18.000000
_cell_angle_alpha 90.000000
_cell_angle_beta 60.000000
_cell_angle_gamma 90.000000
_cell_volume 2805.922308
_symmetry_space_group_name_H-M "C 2/C"
_symmetry_group_IT_number 15
_symmetry_cell_setting 'monoclinic'
loop_
_space_group_symop_operation_xyz
x,y,z
-x,y,1/2-z
-x,-y,-z
x,-y,1/2+z
1/2+x,1/2+y,z
1/2-x,1/2+y,1/2-z
1/2-x,1/2-y,-z
1/2+x,1/2-y,1/2+z
loop_
_atom_site_type_symbol
_atom_site_label
_atom_site_fract_x
_atom_site_fract_y
_atom_site_fract_z
Si Si1 0.887844 0.014135 0.582008
Si Si2 0.530271 0.880494 0.068182
Si Si3 0.170989 0.971019 0.677705
Si Si4 0.402909 0.901338 0.627144
Si Si5 0.621017 0.303860 0.818247
Si Si6 0.340527 0.685928 0.731087
Si Si7 0.739033 0.383495 0.496989
O O1 0.882704 0.100914 0.651690
O O2 0.812015 0.070477 0.555137
O O3 0.856001 0.892502 0.625554
O O4 0.000000 0.000000 0.500000
O O5 0.479004 0.769720 0.122406
O O6 0.642324 0.916814 0.048328
O O7 0.459228 0.983744 0.120637
O O8 0.544831 0.863084 0.972886
O O9 0.285983 0.938512 0.658402
O O10 0.104866 0.884428 0.754144
O O11 0.173726 0.935860 0.591359
O O12 0.151694 0.102668 0.700855
O O13 0.399433 0.802915 0.689832
O O14 0.720553 0.222452 0.769941
O O15 0.750000 0.250000 0.500000
#
# Coordination Sequence:
#
# PCOD9308752 Si02
#       7
#     8   8   8   8   8   8   8
#     4  11  23  41  64  87 119 165 210 247 308 377
#     4  10  19  34  62  92 118 156 204 250 301 365
#     4   9  19  35  60  88 123 158 198 249 304 352
#     4   9  17  32  58  89 118 158 200 237 297 369
#     4  10  19  35  63  91 122 162 198 253 309 367
#     4  10  19  37  62  87 121 159 201 247 300 368
#     4  11  22  40  61  92 123 156 209 264 305 368
#
# _framework density 9.9788940000000004
#
# number of rings (size 3 to 8) (size 9 to 14) (size 15 to 20)
#    0.000    2.000    1.429    4.286    0.000    0.000 
#    0.000   10.714    3.143    0.000    0.000    0.000 
#    0.000    0.000    0.000    0.000    0.000    0.000 
#
# Total GULP energy -156116.418882 kJ/mol
# GULP energy per Si atom -5575.586389 kJ/mol
# Density = 0.995618 g / cm^3
# Si number density = 9.978894 Si / 1000 Ang^3
#
#
#
# Elastic Constant Matrix: (Units=GPa)
#
#
# Indices 1 2 3 4 5 6 
#
# 1 20.1031 11.6346 13.9268 0.0000 4.5722 0.0000
# 2 11.6346 108.3309 40.2982 0.0000 -10.7591 0.0000
# 3 13.9268 40.2982 76.3823 0.0000 -12.9428 0.0000
# 4 0.0000 0.0000 0.0000 55.4551 0.0000 -12.3936
# 5 4.5722 -10.7591 -12.9428 0.0000 12.7199 0.0000
# 6 0.0000 0.0000 0.0000 -12.3936 0.0000 23.4694
#
#
#
# Elastic Compliance Matrix: (Units=1/GPa)
#
#
# Indices 1 2 3 4 5 6 
#
# 1 0.080342 -0.006453 -0.020618 0.000000 -0.055316 0.000000
# 2 -0.006453 0.012200 -0.003768 0.000000 0.008805 0.000000
# 3 -0.020618 -0.003768 0.023629 0.000000 0.028267 0.000000
# 4 0.000000 0.000000 0.000000 0.020446 0.000000 0.010797
# 5 -0.055316 0.008805 0.028267 0.000000 0.134709 0.000000
# 6 0.000000 0.000000 0.000000 0.010797 0.000000 0.048310
#
#
# Mechanical properties :
#
#
# Convention : Reuss Voigt Hill
#
# Bulk Modulus (GPa) = 18.35055 37.39284 27.87169
# Shear Modulus (GPa) = 12.51631 27.59267 20.05449
#
# Velocity S-wave (km/s) = 2.50699 3.72230 3.17337
# Velocity P-wave (km/s) = 4.19460 6.10333 5.23667
#
# Compressibility (1/GPa) = 0.05449428
#
# Stress axis : x y z
#
# Youngs Moduli (GPa) = 12.44675 81.96595 42.32088
#
# Poissons Ratio (x) = 0.52892 0.87255
# Poissons Ratio (y) = 0.08032 0.15947
# Poissons Ratio (z) = 0.25662 0.30886
#
# Static dielectric constant tensor:
#      x y z
#    x 1.756180 0.000000 -0.017190 
#    y 0.000000 1.685810 0.000000 
#    z -0.017190 0.000000 1.789180 
# 
# From -- ./inp_files/204358.got.cif
#   From: 2010.05.17/outbox.ucp.g08.bks.cvg/sg15_103_cif.got.tgz:204358.got - 2010.06.11 12:40:34.
