data_PCOD9308532
_publ_section_title
;
Structure prediction by ZEFSAII (Michael W. Deem and Ramdas Pophale) SiO2 
 PCOD9308532
Probable space group: C 2/C
;
_chemical_formula_sum "Si O2"
_cell_formula_units_Z 32
_cell_length_a 6.386246
_cell_length_b 18.871603
_cell_length_c 22.939141
_cell_angle_alpha 90.000000
_cell_angle_beta 151.413870
_cell_angle_gamma 90.000000
_cell_volume 1322.801700
_symmetry_space_group_name_H-M "C 2/C"
_symmetry_group_IT_number 15
_symmetry_cell_setting 'monoclinic'
loop_
_space_group_symop_operation_xyz
x,y,z
-x,y,1/2-z
-x,-y,-z
x,-y,1/2+z
1/2+x,1/2+y,z
1/2-x,1/2+y,1/2-z
1/2-x,1/2-y,-z
1/2+x,1/2-y,1/2+z
loop_
_atom_site_type_symbol
_atom_site_label
_atom_site_fract_x
_atom_site_fract_y
_atom_site_fract_z
Si Si1 0.556957 0.591796 0.896915
Si Si2 0.579804 0.664537 0.422786
Si Si3 0.904296 0.957008 0.659958
Si Si4 0.107306 0.798431 0.054711
O O1 0.900512 0.642899 0.946928
O O2 0.879915 0.547201 0.019767
O O3 0.407410 0.531636 0.815924
O O4 0.268055 0.641454 0.868261
O O5 0.427796 0.606112 0.339885
O O6 0.416652 0.666743 0.448938
O O7 0.546515 0.741489 0.384777
O O8 0.000000 0.945157 0.750000
O O9 0.750000 0.750000 0.000000
#
# Coordination Sequence:
#
# PCOD9308532 Si02
#       4
#     8   8   8   8
#     4   8  17  31  51  69  96 132 159 203 251 289
#     4   8  16  29  52  73  92 129 163 202 244 299
#     4   9  17  32  50  71 102 126 168 208 241 294
#     4   9  15  29  54  71  94 127 164 199 251 295
#
# _framework density 24.191079999999999
#
# number of rings (size 3 to 8) (size 9 to 14) (size 15 to 20)
#    1.500    2.000    0.000    0.000    0.000    1.000 
#    0.000    1.250   16.500    0.000    0.000    0.000 
#    0.000    0.000    0.000    0.000    0.000    0.000 
#
# Total GULP energy -89129.528143 kJ/mol
# GULP energy per Si atom -5570.595509 kJ/mol
# Density = 2.413602 g / cm^3
# Si number density = 24.191080 Si / 1000 Ang^3
#
#
#
# Elastic Constant Matrix: (Units=GPa)
#
#
# Indices 1 2 3 4 5 6 
#
# 1 111.0902 60.2079 57.3016 -0.0019 -49.9982 0.0222
# 2 60.2079 180.0698 47.0383 0.0066 -46.0980 0.0069
# 3 57.3016 47.0383 78.7914 0.0288 -44.2924 0.0223
# 4 -0.0019 0.0066 0.0288 1.8677 0.0184 -29.2225
# 5 -49.9982 -46.0980 -44.2924 0.0184 54.7201 0.0082
# 6 0.0222 0.0069 0.0223 -29.2225 0.0082 35.8817
#
#
#
# Elastic Compliance Matrix: (Units=1/GPa)
#
#
# Indices 1 2 3 4 5 6 
#
# 1 0.017439 -0.001791 -0.006430 0.000009 0.009221 -0.000002
# 2 -0.001791 0.007376 -0.000969 0.000005 0.003794 0.000004
# 3 -0.006430 -0.000969 0.026028 0.000067 0.014377 0.000039
# 4 0.000009 0.000005 0.000067 -0.045596 0.000087 -0.037134
# 5 0.009221 0.003794 0.014377 0.000087 0.041533 0.000046
# 6 -0.000002 0.000004 0.000039 -0.037134 0.000046 -0.002373
#
#
# Mechanical properties :
#
#
# Convention : Reuss Voigt Hill
#
# Bulk Modulus (GPa) = 30.80274 77.67190 54.23732
# Shear Modulus (GPa) = 67.92805 32.18749 50.05777
#
# Velocity S-wave (km/s) = 5.30479 3.65163 4.55385
# Velocity P-wave (km/s) = 7.09096 7.06800 7.07949
#
# Compressibility (1/GPa) = 0.03246465
#
# Stress axis : x y z
#
# Youngs Moduli (GPa) = 57.34309 135.56746 38.41978
#
# Poissons Ratio (x) = 0.24275 0.24704
# Poissons Ratio (y) = 0.10268 0.03722
# Poissons Ratio (z) = 0.36872 0.13133
#
# Static dielectric constant tensor:
#      x y z
#    x 1.990100 0.000010 0.167140 
#    y 0.000010 1.934670 0.000020 
#    z 0.167140 0.000020 2.126250 
# 
# From -- ./inp_files/128809.got.cif
#   From: 2010.05.17/outbox.cif.g08.bks.cpg/sg15_65_cif.got.tgz:128809.got - 2010.06.03 18:47:42.
