data_PCOD9308702
_publ_section_title
;
Structure prediction by ZEFSAII (Michael W. Deem and Ramdas Pophale) SiO2 
 PCOD9308702
Probable space group: C 2/C
;
_chemical_formula_sum "Si O2"
_cell_formula_units_Z 16
_cell_length_a 15.000000
_cell_length_b 21.000000
_cell_length_c 15.000000
_cell_angle_alpha 90.000000
_cell_angle_beta 20.000000
_cell_angle_gamma 90.000000
_cell_volume 1616.045177
_symmetry_space_group_name_H-M "C 2/C"
_symmetry_group_IT_number 15
_symmetry_cell_setting 'monoclinic'
loop_
_space_group_symop_operation_xyz
x,y,z
-x,y,1/2-z
-x,-y,-z
x,-y,1/2+z
1/2+x,1/2+y,z
1/2-x,1/2+y,1/2-z
1/2-x,1/2-y,-z
1/2+x,1/2-y,1/2+z
loop_
_atom_site_type_symbol
_atom_site_label
_atom_site_fract_x
_atom_site_fract_y
_atom_site_fract_z
Si Si1 0.276267 0.050493 0.529775
Si Si2 0.914930 0.597878 0.925782
Si Si3 0.418846 0.714122 0.222089
Si Si4 0.249450 0.044869 0.748183
O O1 0.258405 0.079649 0.645213
O O2 0.000000 0.064497 0.750000
O O3 0.301183 0.973051 0.516207
O O4 0.500000 0.069526 0.250000
O O5 0.000000 0.624756 0.750000
O O6 0.173753 0.587677 0.740766
O O7 0.711031 0.644392 0.164902
O O8 0.500000 0.717163 0.250000
O O9 0.180934 0.763199 0.427140
O O10 0.500000 0.000000 0.500000
O O11 0.000000 0.000000 0.000000
#
# Coordination Sequence:
#
# PCOD9308702 Si02
#       4
#     8   8   8   8
#     4  10  19  32  48  67  93 124 157 194 237 283
#     4  10  19  31  48  68  95 130 159 187 236 285
#     4  10  20  32  45  65  94 128 165 199 229 272
#     4  10  20  32  47  70  95 122 161 200 233 284
#
# _framework density 9.9007129999999997
#
# number of rings (size 3 to 8) (size 9 to 14) (size 15 to 20)
#    0.000    2.000    0.000    7.500    0.000    8.000 
#    0.000    0.000    0.000    0.000    0.000    0.000 
#    0.000    6.000    0.000    0.000    0.000    0.000 
#
# Total GULP energy -89153.622673 kJ/mol
# GULP energy per Si atom -5572.101417 kJ/mol
# Density = 0.987818 g / cm^3
# Si number density = 9.900713 Si / 1000 Ang^3
#
#
#
# Elastic Constant Matrix: (Units=GPa)
#
#
# Indices 1 2 3 4 5 6 
#
# 1 140.3287 10.8102 59.3018 0.0723 -6.6792 -0.0283
# 2 10.8102 37.0578 18.0626 0.0797 -5.9920 -0.0244
# 3 59.3018 18.0626 160.6239 0.2600 -18.3873 -0.0641
# 4 0.0723 0.0797 0.2600 30.2688 -0.0875 -9.2821
# 5 -6.6792 -5.9920 -18.3873 -0.0875 28.6849 0.0258
# 6 -0.0283 -0.0244 -0.0641 -9.2821 0.0258 7.0605
#
#
#
# Elastic Compliance Matrix: (Units=1/GPa)
#
#
# Indices 1 2 3 4 5 6 
#
# 1 0.008479 -0.001023 -0.003037 0.000015 -0.000186 0.000023
# 2 -0.001023 0.029153 -0.002407 -0.000039 0.004308 0.000008
# 3 -0.003037 -0.002407 0.008071 -0.000054 0.003964 -0.000033
# 4 0.000015 -0.000039 -0.000054 0.055353 0.000064 0.072768
# 5 -0.000186 0.004308 0.003964 0.000064 0.038259 -0.000005
# 6 0.000023 0.000008 -0.000033 0.072768 -0.000005 0.237295
#
#
# Mechanical properties :
#
#
# Convention : Reuss Voigt Hill
#
# Bulk Modulus (GPa) = 30.51638 57.15106 43.83372
# Shear Modulus (GPa) = 12.48535 29.85858 21.17196
#
# Velocity S-wave (km/s) = 2.51376 3.88738 3.27343
# Velocity P-wave (km/s) = 4.88569 7.00526 6.03919
#
# Compressibility (1/GPa) = 0.03276929
#
# Stress axis : x y z
#
# Youngs Moduli (GPa) = 117.93234 34.30126 123.89385
#
# Poissons Ratio (x) = 0.03511 0.37624
# Poissons Ratio (y) = 0.12070 0.29825
# Poissons Ratio (z) = 0.35814 0.08257
#
# Static dielectric constant tensor:
#      x y z
#    x 1.760850 0.000350 -0.000270 
#    y 0.000350 1.699760 0.000060 
#    z -0.000270 0.000060 1.709520 
# 
# From -- ./inp_files/156093.got.cif
#   From: 2010.05.17/outbox.ucp.g08.bks.cvg/sg15_79_cif.got.tgz:156093.got - 2010.06.11 12:40:34.
