data_PCOD9308317
_publ_section_title
;
Structure prediction by ZEFSAII (Michael W. Deem and Ramdas Pophale) SiO2 
 PCOD9308317
Probable space group: C 2/C
;
_chemical_formula_sum "Si O2"
_cell_formula_units_Z 44
_cell_length_a 19.628006
_cell_length_b 10.549628
_cell_length_c 9.047612
_cell_angle_alpha 90.000000
_cell_angle_beta 106.020124
_cell_angle_gamma 90.000000
_cell_volume 1800.715756
_symmetry_space_group_name_H-M "C 2/C"
_symmetry_group_IT_number 15
_symmetry_cell_setting 'monoclinic'
loop_
_space_group_symop_operation_xyz
x,y,z
-x,y,1/2-z
-x,-y,-z
x,-y,1/2+z
1/2+x,1/2+y,z
1/2-x,1/2+y,1/2-z
1/2-x,1/2-y,-z
1/2+x,1/2-y,1/2+z
loop_
_atom_site_type_symbol
_atom_site_label
_atom_site_fract_x
_atom_site_fract_y
_atom_site_fract_z
Si Si1 0.872385 0.225671 0.643104
Si Si2 0.303488 0.537727 0.001611
Si Si3 0.500000 0.191165 0.750000
Si Si4 0.951189 0.125847 0.964956
Si Si5 0.210716 0.580542 0.211566
Si Si6 0.075664 0.570228 0.565530
O O1 0.830900 0.104336 0.556068
O O2 0.933242 0.176752 0.791448
O O3 0.815825 0.305113 0.704014
O O4 0.906013 0.316497 0.537570
O O5 0.269812 0.605014 0.123314
O O6 0.373689 0.601508 0.984459
O O7 0.245362 0.523609 0.839866
O O8 0.484413 0.274595 0.597523
O O9 0.567285 0.112692 0.732241
O O10 0.000000 0.000000 0.000000
O O11 0.140761 0.525204 0.093967
O O12 0.000000 0.500000 0.500000
#
# Coordination Sequence:
#
# PCOD9308317 Si02
#       6
#     8   8   4   8   8   8
#     4  12  27  51  79 106 158 206 249 319 393 439
#     4  12  27  49  75 115 155 198 257 315 380 461
#     4  12  28  44  76 108 140 200 250 312 380 442
#     4  12  28  51  76 112 151 200 257 313 374 462
#     4  12  27  48  77 114 155 198 257 314 382 459
#     4  12  28  51  76 112 151 197 259 312 378 459
#
# _framework density 24.434728
#
# number of rings (size 3 to 8) (size 9 to 14) (size 15 to 20)
#    0.000    0.000    3.636    4.909    5.091    5.818 
#    0.000    0.000    0.000    0.000    0.000    0.000 
#    0.000    0.000    0.000    0.000    0.000    0.000 
#
# Total GULP energy -123306.064547 kJ/mol
# GULP energy per Si atom -5604.821116 kJ/mol
# Density = 2.437911 g / cm^3
# Si number density = 24.434728 Si / 1000 Ang^3
#
#
#
# Elastic Constant Matrix: (Units=GPa)
#
#
# Indices 1 2 3 4 5 6 
#
# 1 170.4894 30.0324 40.5964 0.0000 -36.9240 0.0000
# 2 30.0324 47.8926 7.6774 0.0000 -19.9904 0.0000
# 3 40.5964 7.6774 87.3904 0.0000 -15.2532 0.0000
# 4 0.0000 0.0000 0.0000 44.0240 0.0000 -8.6337
# 5 -36.9240 -19.9904 -15.2532 0.0000 62.3527 0.0000
# 6 0.0000 0.0000 0.0000 -8.6337 0.0000 33.3866
#
#
#
# Elastic Compliance Matrix: (Units=1/GPa)
#
#
# Indices 1 2 3 4 5 6 
#
# 1 0.007715 -0.003195 -0.002804 0.000000 0.002858 0.000000
# 2 -0.003195 0.025483 0.000357 0.000000 0.006365 0.000000
# 3 -0.002804 0.000357 0.012999 0.000000 0.001634 0.000000
# 4 0.000000 0.000000 0.000000 0.023928 0.000000 0.006188
# 5 0.002858 0.006365 0.001634 0.000000 0.020171 0.000000
# 6 0.000000 0.000000 0.000000 0.006188 0.000000 0.031552
#
#
# Mechanical properties :
#
#
# Convention : Reuss Voigt Hill
#
# Bulk Modulus (GPa) = 28.64375 51.37609 40.00992
# Shear Modulus (GPa) = 34.53683 43.11709 38.82696
#
# Velocity S-wave (km/s) = 3.76364 4.20525 3.99056
# Velocity P-wave (km/s) = 5.53486 6.68209 6.13535
#
# Compressibility (1/GPa) = 0.03491163
#
# Stress axis : x y z
#
# Youngs Moduli (GPa) = 129.61499 39.24119 76.92618
#
# Poissons Ratio (x) = 0.12539 0.21573
# Poissons Ratio (y) = 0.41417 -0.02743
# Poissons Ratio (z) = 0.36349 -0.01399
#
# Static dielectric constant tensor:
#      x y z
#    x 1.916400 0.000000 -0.003440 
#    y 0.000000 2.017350 0.000000 
#    z -0.003440 0.000000 1.947900 
# 
# From -- ./inp_files/54456.got.cif
#   From: 2010.05.17/outbox.cif.g08.bks.cpg/sg15_28_cif.got.tgz:54456.got - 2010.06.03 18:47:42.
