data_PCOD9308452
_publ_section_title
;
Structure prediction by ZEFSAII (Michael W. Deem and Ramdas Pophale) SiO2 
 PCOD9308452
Probable space group: C 2/C
;
_chemical_formula_sum "Si O2"
_cell_formula_units_Z 40
_cell_length_a 13.340987
_cell_length_b 7.632790
_cell_length_c 14.495753
_cell_angle_alpha 90.000000
_cell_angle_beta 110.921442
_cell_angle_gamma 90.000000
_cell_volume 1378.770237
_symmetry_space_group_name_H-M "C 2/C"
_symmetry_group_IT_number 15
_symmetry_cell_setting 'monoclinic'
loop_
_space_group_symop_operation_xyz
x,y,z
-x,y,1/2-z
-x,-y,-z
x,-y,1/2+z
1/2+x,1/2+y,z
1/2-x,1/2+y,1/2-z
1/2-x,1/2-y,-z
1/2+x,1/2-y,1/2+z
loop_
_atom_site_type_symbol
_atom_site_label
_atom_site_fract_x
_atom_site_fract_y
_atom_site_fract_z
Si Si1 0.590481 0.413975 0.836448
Si Si2 0.393799 0.165037 0.963178
Si Si3 0.753436 0.401323 0.254185
Si Si4 0.721449 0.523233 0.539098
Si Si5 0.537736 0.784235 0.668949
O O1 0.500000 0.312463 0.750000
O O2 0.680857 0.465323 0.791886
O O3 0.527831 0.595987 0.846145
O O4 0.648669 0.352561 0.949362
O O5 0.361167 0.119921 0.848306
O O6 0.358615 0.368966 0.954261
O O7 0.309258 0.065226 0.002027
O O8 0.504307 0.150574 0.056467
O O9 0.770825 0.418794 0.151389
O O10 0.663322 0.245817 0.224838
O O11 0.500000 0.878605 0.750000
#
# Coordination Sequence:
#
# PCOD9308452 Si02
#       5
#     8   8   8   8   8
#     4   7  13  22  35  61  87 107 141 184 226 264
#     4   9  17  28  43  68  96 121 154 196 237 273
#     4   9  16  26  44  67  90 121 158 190 231 280
#     4   9  15  26  44  64  94 122 151 194 236 276
#     4   8  14  25  43  67  94 118 151 193 231 271
#
# _framework density 29.011361000000001
#
# number of rings (size 3 to 8) (size 9 to 14) (size 15 to 20)
#    0.000    4.000    0.000    3.600    0.000    7.200 
#    0.000    0.000    0.000    9.600    0.000    0.000 
#    0.000   19.200    0.000    0.000    0.000   29.200 
#
# Total GULP energy -111782.254629 kJ/mol
# GULP energy per Si atom -5589.112731 kJ/mol
# Density = 2.894533 g / cm^3
# Si number density = 29.011361 Si / 1000 Ang^3
#
#
#
# Elastic Constant Matrix: (Units=GPa)
#
#
# Indices 1 2 3 4 5 6 
#
# 1 102.6893 32.7226 79.5215 0.0000 7.2270 0.0000
# 2 32.7226 57.5166 59.0517 0.0000 -3.2451 0.0000
# 3 79.5215 59.0517 387.9334 0.0000 15.8035 0.0000
# 4 0.0000 0.0000 0.0000 38.5906 0.0000 2.9192
# 5 7.2270 -3.2451 15.8035 0.0000 64.3398 0.0000
# 6 0.0000 0.0000 0.0000 2.9192 0.0000 19.7156
#
#
#
# Elastic Compliance Matrix: (Units=1/GPa)
#
#
# Indices 1 2 3 4 5 6 
#
# 1 0.012990 -0.005672 -0.001746 0.000000 -0.001316 0.000000
# 2 -0.005672 0.023299 -0.002482 0.000000 0.002422 0.000000
# 3 -0.001746 -0.002482 0.003344 0.000000 -0.000751 0.000000
# 4 0.000000 0.000000 0.000000 0.026207 0.000000 -0.003880
# 5 -0.001316 0.002422 -0.000751 0.000000 0.015997 0.000000
# 6 0.000000 0.000000 0.000000 -0.003880 0.000000 0.051296
#
#
# Mechanical properties :
#
#
# Convention : Reuss Voigt Hill
#
# Bulk Modulus (GPa) = 50.42381 98.97012 74.69696
# Shear Modulus (GPa) = 31.33929 49.65211 40.49570
#
# Velocity S-wave (km/s) = 3.29027 4.14148 3.74017
# Velocity P-wave (km/s) = 5.64384 7.55364 6.66747
#
# Compressibility (1/GPa) = 0.01983190
#
# Stress axis : x y z
#
# Youngs Moduli (GPa) = 76.98116 42.92057 299.03610
#
# Poissons Ratio (x) = 0.24346 0.52204
# Poissons Ratio (y) = 0.43667 0.74235
# Poissons Ratio (z) = 0.13439 0.10655
#
# Static dielectric constant tensor:
#      x y z
#    x 2.160120 0.000000 0.058340 
#    y 0.000000 2.632330 0.000000 
#    z 0.058340 0.000000 2.205170 
# 
# From -- ./inp_files/160091.got.cif
#   From: 2010.05.17/outbox.cif.g08.bks.cpg/sg15_81_cif.got.tgz:160091.got - 2010.06.03 18:47:42.
