data_PCOD9308074
_publ_section_title
;
Structure prediction by ZEFSAII (Michael W. Deem and Ramdas Pophale) SiO2 
 PCOD9308074
Probable space group: C 2/C
;
_chemical_formula_sum "Si O2"
_cell_formula_units_Z 32
_cell_length_a 22.840058
_cell_length_b 7.017685
_cell_length_c 13.844397
_cell_angle_alpha 90.000000
_cell_angle_beta 31.239296
_cell_angle_gamma 90.000000
_cell_volume 1150.824142
_symmetry_space_group_name_H-M "C 2/C"
_symmetry_group_IT_number 15
_symmetry_cell_setting 'monoclinic'
loop_
_space_group_symop_operation_xyz
x,y,z
-x,y,1/2-z
-x,-y,-z
x,-y,1/2+z
1/2+x,1/2+y,z
1/2-x,1/2+y,1/2-z
1/2-x,1/2-y,-z
1/2+x,1/2-y,1/2+z
loop_
_atom_site_type_symbol
_atom_site_label
_atom_site_fract_x
_atom_site_fract_y
_atom_site_fract_z
Si Si1 0.990639 0.453904 0.658342
Si Si2 0.734424 0.521353 0.513296
Si Si3 0.379551 0.339180 0.637243
Si Si4 0.854242 0.179034 0.550416
O O1 0.025507 0.316180 0.521555
O O2 0.000000 0.348947 0.750000
O O3 0.865839 0.534292 0.818311
O O4 0.074303 0.630264 0.554659
O O5 0.750000 0.750000 0.500000
O O6 0.677263 0.421246 0.685555
O O7 0.729974 0.242550 0.761492
O O8 0.668182 0.439369 0.515321
O O9 0.415511 0.531928 0.533443
#
# Coordination Sequence:
#
# PCOD9308074 Si02
#       4
#     8   8   8   8
#     4  12  27  51  83 118 170 226 281 351 428 508
#     4  12  29  55  83 124 174 221 290 361 427 521
#     4  12  26  53  80 120 169 221 283 352 424 513
#     4  12  25  52  82 119 172 217 282 363 420 514
#
# _framework density 27.806159000000001
#
# number of rings (size 3 to 8) (size 9 to 14) (size 15 to 20)
#    0.000    0.000    5.000    3.750    0.000    5.000 
#    4.500    0.000    0.000    0.000    0.000    0.000 
#    0.000    0.000    0.000    0.000    0.000    0.000 
#
# Total GULP energy -89832.816989 kJ/mol
# GULP energy per Si atom -5614.551062 kJ/mol
# Density = 2.774287 g / cm^3
# Si number density = 27.806159 Si / 1000 Ang^3
#
#
#
# Elastic Constant Matrix: (Units=GPa)
#
#
# Indices 1 2 3 4 5 6 
#
# 1 116.0166 54.4883 74.6993 0.0011 10.0408 -0.0010
# 2 54.4883 235.0267 90.0666 0.0030 17.1820 -0.0029
# 3 74.6993 90.0666 194.2148 0.0018 9.7956 -0.0014
# 4 0.0011 0.0030 0.0018 50.8910 -0.0013 -4.9099
# 5 10.0408 17.1820 9.7956 -0.0013 47.0519 0.0011
# 6 -0.0010 -0.0029 -0.0014 -4.9099 0.0011 54.2169
#
#
#
# Elastic Compliance Matrix: (Units=1/GPa)
#
#
# Indices 1 2 3 4 5 6 
#
# 1 0.011806 -0.001128 -0.003953 0.000000 -0.001284 0.000000
# 2 -0.001128 0.005376 -0.001993 0.000000 -0.001307 0.000000
# 3 -0.003953 -0.001993 0.007594 0.000000 -0.000010 0.000000
# 4 0.000000 0.000000 0.000000 0.019823 0.000001 0.001795
# 5 -0.001284 -0.001307 -0.000010 0.000001 0.022007 0.000000
# 6 0.000000 0.000000 0.000000 0.001795 0.000000 0.018607
#
#
# Mechanical properties :
#
#
# Convention : Reuss Voigt Hill
#
# Bulk Modulus (GPa) = 94.09834 109.30737 101.70285
# Shear Modulus (GPa) = 48.58971 52.16556 50.37763
#
# Velocity S-wave (km/s) = 4.18478 4.33603 4.26108
# Velocity P-wave (km/s) = 7.56731 8.02895 7.80154
#
# Compressibility (1/GPa) = 0.01062718
#
# Stress axis : x y z
#
# Youngs Moduli (GPa) = 84.70613 186.01897 131.68339
#
# Poissons Ratio (x) = 0.20990 0.52049
# Poissons Ratio (y) = 0.09558 0.26245
# Poissons Ratio (z) = 0.33481 0.37075
#
# Static dielectric constant tensor:
#      x y z
#    x 2.321340 0.000000 0.102950 
#    y 0.000000 2.140330 0.000000 
#    z 0.102950 0.000000 2.209170 
# 
# From -- ./inp_files/179564.got.cif
#   From: 2010.05.17/outbox.cif.g08.bks.cpg/sg15_90_cif.got.tgz:179564.got - 2010.06.03 18:47:42.
