data_PCOD9308953
_publ_section_title
;
Structure prediction by ZEFSAII (Michael W. Deem and Ramdas Pophale) SiO2 
 PCOD9308953
Probable space group: C 2/C
;
_chemical_formula_sum "Si O2"
_cell_formula_units_Z 32
_cell_length_a 15.000000
_cell_length_b 24.000000
_cell_length_c 9.000000
_cell_angle_alpha 90.000000
_cell_angle_beta 90.000000
_cell_angle_gamma 90.000000
_cell_volume 3240.000000
_symmetry_space_group_name_H-M "C 2/C"
_symmetry_group_IT_number 15
_symmetry_cell_setting 'monoclinic'
loop_
_space_group_symop_operation_xyz
x,y,z
-x,y,1/2-z
-x,-y,-z
x,-y,1/2+z
1/2+x,1/2+y,z
1/2-x,1/2+y,1/2-z
1/2-x,1/2-y,-z
1/2+x,1/2-y,1/2+z
loop_
_atom_site_type_symbol
_atom_site_label
_atom_site_fract_x
_atom_site_fract_y
_atom_site_fract_z
Si Si1 0.633290 0.916458 0.535149
Si Si2 0.043680 0.376357 0.093015
Si Si3 0.211456 0.694738 0.582358
Si Si4 0.429673 0.635423 0.853445
Si Si5 0.177787 0.082537 0.900120
Si Si6 0.524845 0.556835 0.080354
Si Si7 0.344577 0.021289 0.777884
Si Si8 0.754735 0.690161 0.574991
O O1 0.534974 0.890826 0.519281
O O2 0.648380 0.958653 0.393615
O O3 0.697343 0.862477 0.507681
O O4 0.640693 0.956837 0.678471
O O5 0.115908 0.331553 0.035592
O O6 0.089817 0.435433 0.136581
O O7 0.000000 0.356629 0.250000
O O8 0.250000 0.750000 0.500000
O O9 0.279566 0.642832 0.568779
O O10 0.203597 0.700179 0.761371
O O11 0.500000 0.667899 0.750000
O O12 0.391997 0.589844 0.735720
O O13 0.346338 0.670990 0.901014
O O14 0.474795 0.606638 0.994037
O O15 0.249161 0.039205 0.841525
O O16 0.129057 0.064091 0.048465
O O17 0.500000 0.555909 0.250000
O O18 0.500000 0.500000 0.000000
O O19 0.750000 0.750000 0.500000
#
# Coordination Sequence:
#
# PCOD9308953 Si02
#       8
#     8   8   8   8   8   8   8   8
#     4  11  21  40  64  96 128 169 208 264 322 384
#     4   9  17  39  64  89 126 165 201 257 325 373
#     4  10  20  41  68  86 122 167 212 259 308 374
#     4   9  19  41  62  79 121 165 202 256 317 364
#     4   9  19  39  58  87 120 160 202 254 323 365
#     4  11  23  36  57  88 119 155 203 258 313 380
#     4  10  20  36  66  90 126 165 205 253 324 388
#     4  11  23  43  62  90 129 169 211 262 318 376
#
# _framework density 9.8765429999999999
#
# number of rings (size 3 to 8) (size 9 to 14) (size 15 to 20)
#    0.000    2.000    5.000    1.500    1.750    2.000 
#   11.250    0.625    0.000    0.000    0.000    0.000 
#    0.000    0.000    0.000    0.000    0.000    0.000 
#
# Total GULP energy -178421.886717 kJ/mol
# GULP energy per Si atom -5575.683960 kJ/mol
# Density = 0.985406 g / cm^3
# Si number density = 9.876543 Si / 1000 Ang^3
#
#
#
# Elastic Constant Matrix: (Units=GPa)
#
#
# Indices 1 2 3 4 5 6 
#
# 1 96.5810 24.7469 25.0939 0.0000 -11.9239 0.0000
# 2 24.7469 104.9364 33.6058 0.0000 -5.5339 0.0000
# 3 25.0939 33.6058 71.2361 0.0000 -13.7531 0.0000
# 4 0.0000 0.0000 0.0000 32.9269 0.0000 -11.1950
# 5 -11.9239 -5.5339 -13.7531 0.0000 17.4406 0.0000
# 6 0.0000 0.0000 0.0000 -11.1950 0.0000 13.6412
#
#
#
# Elastic Compliance Matrix: (Units=1/GPa)
#
#
# Indices 1 2 3 4 5 6 
#
# 1 0.012144 -0.001823 -0.002272 0.000000 0.005932 0.000000
# 2 -0.001823 0.011507 -0.005098 0.000000 -0.001616 0.000000
# 3 -0.002272 -0.005098 0.019618 0.000000 0.012299 0.000000
# 4 0.000000 0.000000 0.000000 0.042124 0.000000 0.034570
# 5 0.005932 -0.001616 0.012299 0.000000 0.070579 0.000000
# 6 0.000000 0.000000 0.000000 0.034570 0.000000 0.101678
#
#
# Mechanical properties :
#
#
# Convention : Reuss Voigt Hill
#
# Bulk Modulus (GPa) = 40.19112 48.84962 44.52037
# Shear Modulus (GPa) = 17.58517 25.42221 21.50369
#
# Velocity S-wave (km/s) = 2.98694 3.59137 3.30301
# Velocity P-wave (km/s) = 5.68214 6.47928 6.09376
#
# Compressibility (1/GPa) = 0.02488112
#
# Stress axis : x y z
#
# Youngs Moduli (GPa) = 82.34509 86.90340 50.97408
#
# Poissons Ratio (x) = 0.15845 0.11584
# Poissons Ratio (y) = 0.15014 0.25987
# Poissons Ratio (z) = 0.18713 0.44304
#
# Static dielectric constant tensor:
#      x y z
#    x 1.782760 0.000000 -0.000050 
#    y 0.000000 1.675050 0.000000 
#    z -0.000050 0.000000 1.729160 
# 
# From -- ./inp_files/42673.got.cif
#   From: 2010.05.17/outbox.ucp.g08.bks.cvg/sg15_22_cif.got.tgz:42673.got - 2010.06.11 12:40:34.
