data_PCOD9308045
_publ_section_title
;
Structure prediction by ZEFSAII (Michael W. Deem and Ramdas Pophale) SiO2 
 PCOD9308045
Probable space group: C 2/C
;
_chemical_formula_sum "Si O2"
_cell_formula_units_Z 36
_cell_length_a 15.415278
_cell_length_b 11.387928
_cell_length_c 32.370821
_cell_angle_alpha 90.000000
_cell_angle_beta 163.940055
_cell_angle_gamma 90.000000
_cell_volume 1572.060795
_symmetry_space_group_name_H-M "C 2/C"
_symmetry_group_IT_number 15
_symmetry_cell_setting 'monoclinic'
loop_
_space_group_symop_operation_xyz
x,y,z
-x,y,1/2-z
-x,-y,-z
x,-y,1/2+z
1/2+x,1/2+y,z
1/2-x,1/2+y,1/2-z
1/2-x,1/2-y,-z
1/2+x,1/2-y,1/2+z
loop_
_atom_site_type_symbol
_atom_site_label
_atom_site_fract_x
_atom_site_fract_y
_atom_site_fract_z
Si Si1 0.306536 0.079083 0.225255
Si Si2 0.802404 0.350814 0.104351
Si Si3 0.655534 0.766500 0.043567
Si Si4 0.266359 0.366455 0.714240
Si Si5 0.000000 0.040512 0.750000
O O1 0.542465 0.184350 0.321571
O O2 0.277388 0.077149 0.261327
O O3 0.463121 0.958624 0.282474
O O4 0.975063 0.103641 0.052331
O O5 0.987050 0.240251 0.170035
O O6 0.629223 0.304785 0.066187
O O7 0.734186 0.874423 0.109791
O O8 0.548272 0.813334 0.950047
O O9 0.383739 0.459814 0.734157
#
# Coordination Sequence:
#
# PCOD9308045 Si02
#       5
#     8   8   8   8   4
#     4  12  28  45  79 107 152 188 251 303 361 432
#     4  12  26  50  72 113 147 196 240 304 370 432
#     4  12  25  50  75 109 146 198 243 299 368 439
#     4  12  28  46  76 108 149 195 247 302 363 434
#     4  12  26  46  78 104 148 190 248 294 370 430
#
# _framework density 22.899877
#
# number of rings (size 3 to 8) (size 9 to 14) (size 15 to 20)
#    0.000    0.000    4.444    4.000    6.222    1.778 
#    0.000    0.000    0.000    0.000    0.000    0.000 
#    0.000    0.000    0.000    0.000    0.000    0.000 
#
# Total GULP energy -101003.089788 kJ/mol
# GULP energy per Si atom -5611.282766 kJ/mol
# Density = 2.284776 g / cm^3
# Si number density = 22.899877 Si / 1000 Ang^3
#
#
#
# Elastic Constant Matrix: (Units=GPa)
#
#
# Indices 1 2 3 4 5 6 
#
# 1 96.0473 55.4226 20.9724 0.0014 -16.3775 -0.0166
# 2 55.4226 159.3957 69.8808 -0.0073 2.5986 0.0007
# 3 20.9724 69.8808 126.8801 -0.0288 -7.8719 -0.0570
# 4 0.0014 -0.0073 -0.0288 51.6075 0.0026 19.4483
# 5 -16.3775 2.5986 -7.8719 0.0026 30.4206 0.0021
# 6 -0.0166 0.0007 -0.0570 19.4483 0.0021 43.6965
#
#
#
# Elastic Compliance Matrix: (Units=1/GPa)
#
#
# Indices 1 2 3 4 5 6 
#
# 1 0.015110 -0.005999 0.001365 -0.000004 0.009000 0.000009
# 2 -0.005999 0.010764 -0.005279 0.000003 -0.005515 -0.000010
# 3 0.001365 -0.005279 0.010810 -0.000001 0.003983 0.000015
# 4 -0.000004 0.000003 -0.000001 0.023282 -0.000004 -0.010362
# 5 0.009000 -0.005515 0.003983 -0.000004 0.039220 0.000009
# 6 0.000009 -0.000010 0.000015 -0.010362 0.000009 0.027497
#
#
# Mechanical properties :
#
#
# Convention : Reuss Voigt Hill
#
# Bulk Modulus (GPa) = 59.31877 74.98608 67.15242
# Shear Modulus (GPa) = 32.86710 40.88141 36.87426
#
# Velocity S-wave (km/s) = 3.79258 4.22978 4.01713
# Velocity P-wave (km/s) = 6.71848 7.52801 7.13474
#
# Compressibility (1/GPa) = 0.01685807
#
# Stress axis : x y z
#
# Youngs Moduli (GPa) = 66.18263 92.90476 92.50363
#
# Poissons Ratio (x) = 0.55731 -0.12625
# Poissons Ratio (y) = 0.39701 0.48831
# Poissons Ratio (z) = -0.09032 0.49043
#
# Static dielectric constant tensor:
#      x y z
#    x 1.803320 0.000010 -0.004970 
#    y 0.000010 1.829910 -0.000020 
#    z -0.004970 -0.000020 1.865350 
# 
# From -- ./inp_files/313671.got.cif
#   From: 2010.05.17/outbox.cif.g08.bks.cpg/sg15_157_cif.got.tgz:313671.got - 2010.06.03 18:47:42.
