data_PCOD9308647
_publ_section_title
;
Structure prediction by ZEFSAII (Michael W. Deem and Ramdas Pophale) SiO2 
 PCOD9308647
Probable space group: C 2/C
;
_chemical_formula_sum "Si O2"
_cell_formula_units_Z 26
_cell_length_a 21.000000
_cell_length_b 9.000000
_cell_length_c 15.000000
_cell_angle_alpha 90.000000
_cell_angle_beta 100.000000
_cell_angle_gamma 90.000000
_cell_volume 2791.929980
_symmetry_space_group_name_H-M "C 2/C"
_symmetry_group_IT_number 15
_symmetry_cell_setting 'monoclinic'
loop_
_space_group_symop_operation_xyz
x,y,z
-x,y,1/2-z
-x,-y,-z
x,-y,1/2+z
1/2+x,1/2+y,z
1/2-x,1/2+y,1/2-z
1/2-x,1/2-y,-z
1/2+x,1/2-y,1/2+z
loop_
_atom_site_type_symbol
_atom_site_label
_atom_site_fract_x
_atom_site_fract_y
_atom_site_fract_z
Si Si1 0.399304 0.578252 0.346270
Si Si2 0.500000 0.763361 0.250000
Si Si3 0.639308 0.312494 0.283701
Si Si4 0.840245 0.901097 0.019489
Si Si5 0.303506 0.945597 0.484059
Si Si6 0.120005 0.474168 0.333544
Si Si7 0.792953 0.333358 0.291252
O O1 0.461166 0.663286 0.315525
O O2 0.392052 0.416167 0.299686
O O3 0.390091 0.563652 0.451817
O O4 0.336253 0.683392 0.310245
O O5 0.556700 0.872067 0.302506
O O6 0.632382 0.407773 0.373797
O O7 0.612413 0.146192 0.297360
O O8 0.716538 0.300041 0.280609
O O9 0.819158 0.728219 0.005946
O O10 0.769906 0.981847 0.002162
O O11 0.355932 0.027275 0.557968
O O12 0.307367 0.946239 0.377770
O O13 0.179966 0.409553 0.290690
#
# Coordination Sequence:
#
# PCOD9308647 Si02
#       7
#     8   4   8   8   8   8   8
#     4  10  19  35  52  72 107 139 165 206 252 299
#     4  10  24  38  50  68 100 144 180 206 246 296
#     4  10  18  31  57  82 101 129 168 211 258 302
#     4   8  15  29  51  80 103 126 161 205 259 311
#     4   8  14  28  52  77 104 131 160 202 257 308
#     4  10  19  34  52  76 105 135 172 210 243 296
#     4   9  17  31  54  84 107 129 159 203 265 314
#
# _framework density 9.3125540000000004
#
# number of rings (size 3 to 8) (size 9 to 14) (size 15 to 20)
#    0.000    2.769    0.000    4.615    0.000    0.615 
#    0.000   16.154    0.000   11.077    0.000    0.000 
#    0.000    0.000    0.000    0.000    0.000    0.000 
#
# Total GULP energy -144787.781823 kJ/mol
# GULP energy per Si atom -5568.760839 kJ/mol
# Density = 0.929136 g / cm^3
# Si number density = 9.312554 Si / 1000 Ang^3
#
#
#
# Elastic Constant Matrix: (Units=GPa)
#
#
# Indices 1 2 3 4 5 6 
#
# 1 88.8482 5.5713 5.4470 0.0000 -19.0030 0.0000
# 2 5.5713 32.3241 -17.0191 0.0000 -3.4068 0.0000
# 3 5.4470 -17.0191 31.1508 0.0000 -17.3350 0.0000
# 4 0.0000 0.0000 0.0000 23.6456 0.0000 -4.0638
# 5 -19.0030 -3.4068 -17.3350 0.0000 26.1176 0.0000
# 6 0.0000 0.0000 0.0000 -4.0638 0.0000 23.1330
#
#
#
# Elastic Compliance Matrix: (Units=1/GPa)
#
#
# Indices 1 2 3 4 5 6 
#
# 1 0.014043 0.004270 0.009314 0.000000 0.016956 0.000000
# 2 0.004270 0.078475 0.078575 0.000000 0.065496 0.000000
# 3 0.009314 0.078575 0.131417 0.000000 0.104251 0.000000
# 4 0.000000 0.000000 0.000000 0.043608 0.000000 0.007661
# 5 0.016956 0.065496 0.104251 0.000000 0.128364 0.000000
# 6 0.000000 0.000000 0.000000 0.007661 0.000000 0.044574
#
#
# Mechanical properties :
#
#
# Convention : Reuss Voigt Hill
#
# Bulk Modulus (GPa) = 2.44946 15.59128 9.02037
# Shear Modulus (GPa) = 12.74709 25.13418 18.94063
#
# Velocity S-wave (km/s) = 2.61895 3.67751 3.19241
# Velocity P-wave (km/s) = 3.23468 5.14017 4.29445
#
# Compressibility (1/GPa) = 0.40825403
#
# Stress axis : x y z
#
# Youngs Moduli (GPa) = 71.20968 12.74295 7.60934
#
# Poissons Ratio (x) = -0.05442 -0.07087
# Poissons Ratio (y) = -0.30409 -0.59791
# Poissons Ratio (z) = -0.66321 -1.00128
#
# Static dielectric constant tensor:
#      x y z
#    x 1.620020 0.000000 0.010410 
#    y 0.000000 1.653640 0.000000 
#    z 0.010410 0.000000 1.716810 
# 
# From -- ./inp_files/166346.got.cif
#   From: 2010.05.17/outbox.ucp.g08.bks.cvg/sg15_84_cif.got.tgz:166346.got - 2010.06.11 12:40:34.
