data_PCOD9308287
_publ_section_title
;
Structure prediction by ZEFSAII (Michael W. Deem and Ramdas Pophale) SiO2 
 PCOD9308287
Probable space group: C 2/C
;
_chemical_formula_sum "Si O2"
_cell_formula_units_Z 28
_cell_length_a 19.153125
_cell_length_b 8.415122
_cell_length_c 8.434106
_cell_angle_alpha 90.000000
_cell_angle_beta 54.537873
_cell_angle_gamma 90.000000
_cell_volume 1107.209418
_symmetry_space_group_name_H-M "C 2/C"
_symmetry_group_IT_number 15
_symmetry_cell_setting 'monoclinic'
loop_
_space_group_symop_operation_xyz
x,y,z
-x,y,1/2-z
-x,-y,-z
x,-y,1/2+z
1/2+x,1/2+y,z
1/2-x,1/2+y,1/2-z
1/2-x,1/2-y,-z
1/2+x,1/2-y,1/2+z
loop_
_atom_site_type_symbol
_atom_site_label
_atom_site_fract_x
_atom_site_fract_y
_atom_site_fract_z
Si Si1 0.654600 0.360684 0.573236
Si Si2 0.258430 0.112954 0.620505
Si Si3 0.000000 0.103122 0.750000
Si Si4 0.435007 0.856124 0.067359
O O1 0.723886 0.446351 0.596787
O O2 0.698398 0.339036 0.346646
O O3 0.582469 0.494326 0.650670
O O4 0.608332 0.212266 0.716557
O O5 0.250000 0.250000 0.500000
O O6 0.355437 0.104285 0.556230
O O7 0.011439 0.213902 0.582556
O O8 0.500000 0.000000 0.000000
#
# Coordination Sequence:
#
# PCOD9308287 Si02
#       4
#     8   8   4   8
#     4  12  27  54  86 119 174 230 285 354 436 522
#     4  12  26  54  87 122 168 229 287 349 439 518
#     4  12  26  54  82 120 172 224 286 350 438 502
#     4  12  30  52  85 132 172 223 292 364 428 522
#
# _framework density 25.288805
#
# number of rings (size 3 to 8) (size 9 to 14) (size 15 to 20)
#    0.000    0.000    5.714    1.714    4.000    3.429 
#    0.000    1.429    0.000    0.000    0.000    0.000 
#    0.000    0.000    0.000    0.000    0.000    0.000 
#
# Total GULP energy -78716.501437 kJ/mol
# GULP energy per Si atom -5622.607245 kJ/mol
# Density = 2.523125 g / cm^3
# Si number density = 25.288805 Si / 1000 Ang^3
#
#
#
# Elastic Constant Matrix: (Units=GPa)
#
#
# Indices 1 2 3 4 5 6 
#
# 1 169.2425 96.5880 90.6928 0.0000 -22.5433 0.0000
# 2 96.5880 155.9540 118.1784 0.0000 -10.1239 0.0000
# 3 90.6928 118.1784 251.3789 0.0000 9.4930 0.0000
# 4 0.0000 0.0000 0.0000 55.2046 0.0000 -3.3085
# 5 -22.5433 -10.1239 9.4930 0.0000 42.4005 0.0000
# 6 0.0000 0.0000 0.0000 -3.3085 0.0000 64.4129
#
#
#
# Elastic Compliance Matrix: (Units=1/GPa)
#
#
# Indices 1 2 3 4 5 6 
#
# 1 0.010071 -0.004747 -0.001574 0.000000 0.004573 0.000000
# 2 -0.004747 0.012727 -0.004327 0.000000 0.001483 0.000000
# 3 -0.001574 -0.004327 0.006707 0.000000 -0.003372 0.000000
# 4 0.000000 0.000000 0.000000 0.018170 0.000000 0.000933
# 5 0.004573 0.001483 -0.003372 0.000000 0.027125 0.000000
# 6 0.000000 0.000000 0.000000 0.000933 0.000000 0.015573
#
#
# Mechanical properties :
#
#
# Convention : Reuss Voigt Hill
#
# Bulk Modulus (GPa) = 121.81767 131.94378 126.88073
# Shear Modulus (GPa) = 43.70369 50.47799 47.09084
#
# Velocity S-wave (km/s) = 4.16165 4.47258 4.31991
# Velocity P-wave (km/s) = 8.44794 8.88594 8.66971
#
# Compressibility (1/GPa) = 0.00820899
#
# Stress axis : x y z
#
# Youngs Moduli (GPa) = 99.29650 78.57109 149.09015
#
# Poissons Ratio (x) = 0.37301 0.23470
# Poissons Ratio (y) = 0.47141 0.64505
# Poissons Ratio (z) = 0.15631 0.33995
#
# Static dielectric constant tensor:
#      x y z
#    x 2.016730 0.000000 0.017520 
#    y 0.000000 1.985270 0.000000 
#    z 0.017520 0.000000 1.950810 
# 
# From -- ./inp_files/53565.got.cif
#   From: 2010.05.17/outbox.cif.g08.bks.cpg/sg15_27_cif.got.tgz:53565.got - 2010.06.03 18:47:42.
