data_PCOD9308657
_publ_section_title
;
Structure prediction by ZEFSAII (Michael W. Deem and Ramdas Pophale) SiO2 
 PCOD9308657
Probable space group: C 2/C
;
_chemical_formula_sum "Si O2"
_cell_formula_units_Z 32
_cell_length_a 21.000000
_cell_length_b 18.000000
_cell_length_c 27.000000
_cell_angle_alpha 90.000000
_cell_angle_beta 20.000000
_cell_angle_gamma 90.000000
_cell_volume 3490.657583
_symmetry_space_group_name_H-M "C 2/C"
_symmetry_group_IT_number 15
_symmetry_cell_setting 'monoclinic'
loop_
_space_group_symop_operation_xyz
x,y,z
-x,y,1/2-z
-x,-y,-z
x,-y,1/2+z
1/2+x,1/2+y,z
1/2-x,1/2+y,1/2-z
1/2-x,1/2-y,-z
1/2+x,1/2-y,1/2+z
loop_
_atom_site_type_symbol
_atom_site_label
_atom_site_fract_x
_atom_site_fract_y
_atom_site_fract_z
Si Si1 0.964640 0.901362 0.022102
Si Si2 0.754445 0.042978 0.363215
Si Si3 0.186701 0.492293 0.746765
Si Si4 0.536675 0.765066 0.982940
Si Si5 0.399538 0.605500 0.451329
Si Si6 0.366118 0.919400 0.440776
Si Si7 0.968162 0.412147 0.992337
Si Si8 0.535603 0.234442 0.849838
O O1 0.016217 0.817347 0.992997
O O2 0.793869 0.930453 0.180040
O O3 0.910425 0.907906 0.002643
O O4 0.147192 0.948229 0.899772
O O5 0.757511 0.069314 0.418137
O O6 0.562555 0.070425 0.476892
O O7 0.919283 0.072874 0.208984
O O8 0.722593 0.954767 0.379984
O O9 0.112015 0.444138 0.846671
O O10 0.017559 0.516251 0.836425
O O11 0.463091 0.824372 0.997761
O O12 0.762674 0.761234 0.816860
O O13 0.462866 0.779720 0.092248
O O14 0.232999 0.575379 0.539442
O O15 0.402547 0.694428 0.441454
O O16 0.462378 0.838759 0.376179
#
# Coordination Sequence:
#
# PCOD9308657 Si02
#       8
#     8   8   8   8   8   8   8   8
#     4  10  21  35  55  77 112 141 183 228 276 326
#     4  10  19  32  52  76 104 145 189 234 266 313
#     4  10  20  37  53  77 107 146 185 236 267 320
#     4  11  20  34  56  80 111 148 185 227 277 328
#     4  11  21  34  50  80 115 149 185 223 269 331
#     4  11  21  33  53  76 113 153 186 220 271 329
#     4  10  18  33  55  74 104 141 189 233 274 309
#     4  11  20  34  48  80 113 159 186 215 260 334
#
# _framework density 9.1673270000000002
#
# number of rings (size 3 to 8) (size 9 to 14) (size 15 to 20)
#    0.000    1.500    5.000    1.500    0.000    0.500 
#    0.000    1.250    0.000    0.000    0.000    0.875 
#   15.000    0.125    0.000    0.000    0.000    0.000 
#
# Total GULP energy -178263.504649 kJ/mol
# GULP energy per Si atom -5570.734520 kJ/mol
# Density = 0.914646 g / cm^3
# Si number density = 9.167327 Si / 1000 Ang^3
#
#
#
# Elastic Constant Matrix: (Units=GPa)
#
#
# Indices 1 2 3 4 5 6 
#
# 1 41.2535 40.2821 6.0668 -0.0158 -3.9961 0.0062
# 2 40.2821 108.6536 25.3691 -0.0035 -6.2150 0.0093
# 3 6.0668 25.3691 44.0602 0.0024 6.1526 -0.0025
# 4 -0.0158 -0.0035 0.0024 19.7813 -0.0002 2.5036
# 5 -3.9961 -6.2150 6.1526 -0.0002 20.0274 -0.0033
# 6 0.0062 0.0093 -0.0025 2.5036 -0.0033 25.4685
#
#
#
# Elastic Compliance Matrix: (Units=1/GPa)
#
#
# Indices 1 2 3 4 5 6 
#
# 1 0.038507 -0.014837 0.002937 0.000029 0.002177 -0.000006
# 2 -0.014837 0.016943 -0.008393 -0.000008 0.004876 -0.000002
# 3 0.002937 -0.008393 0.028635 -0.000003 -0.010815 0.000004
# 4 0.000029 -0.000008 -0.000003 0.051190 0.000004 -0.005032
# 5 0.002177 0.004876 -0.010815 0.000004 0.055202 0.000003
# 6 -0.000006 -0.000002 0.000004 -0.005032 0.000003 0.039759
#
#
# Mechanical properties :
#
#
# Convention : Reuss Voigt Hill
#
# Bulk Modulus (GPa) = 22.98977 37.48924 30.23951
# Shear Modulus (GPa) = 17.52408 21.20540 19.36474
#
# Velocity S-wave (km/s) = 3.09494 3.40453 3.25342
# Velocity P-wave (km/s) = 5.03366 5.99550 5.53551
#
# Compressibility (1/GPa) = 0.04349761
#
# Stress axis : x y z
#
# Youngs Moduli (GPa) = 25.96908 59.02164 34.92256
#
# Poissons Ratio (x) = 0.87573 -0.10256
# Poissons Ratio (y) = 0.38531 0.29311
# Poissons Ratio (z) = -0.07627 0.49539
#
# Static dielectric constant tensor:
#      x y z
#    x 1.608990 -0.000010 0.008690 
#    y -0.000010 1.762930 0.000020 
#    z 0.008690 0.000020 1.695860 
# 
# From -- ./inp_files/301329.got.cif
#   From: 2010.05.17/outbox.ucp.g08.bks.cvg/sg15_151_cif.got.tgz:301329.got - 2010.06.11 12:40:34.
