data_PCOD9308941
_publ_section_title
;
Structure prediction by ZEFSAII (Michael W. Deem and Ramdas Pophale) SiO2 
 PCOD9308941
Probable space group: C 2/C
;
_chemical_formula_sum "Si O2"
_cell_formula_units_Z 24
_cell_length_a 12.000000
_cell_length_b 21.000000
_cell_length_c 27.000000
_cell_angle_alpha 90.000000
_cell_angle_beta 160.000000
_cell_angle_gamma 90.000000
_cell_volume 2327.105055
_symmetry_space_group_name_H-M "C 2/C"
_symmetry_group_IT_number 15
_symmetry_cell_setting 'monoclinic'
loop_
_space_group_symop_operation_xyz
x,y,z
-x,y,1/2-z
-x,-y,-z
x,-y,1/2+z
1/2+x,1/2+y,z
1/2-x,1/2+y,1/2-z
1/2-x,1/2-y,-z
1/2+x,1/2-y,1/2+z
loop_
_atom_site_type_symbol
_atom_site_label
_atom_site_fract_x
_atom_site_fract_y
_atom_site_fract_z
Si Si1 0.158074 0.849823 0.986074
Si Si2 0.822309 0.931738 0.921175
Si Si3 0.849842 0.715707 0.870462
Si Si4 0.937661 0.043332 0.135576
Si Si5 0.854375 0.425604 0.539801
Si Si6 0.852729 0.359036 0.919521
O O1 0.521367 0.827646 0.121548
O O2 0.050808 0.902391 0.901562
O O3 0.083881 0.883228 0.006961
O O4 0.929158 0.787666 0.888467
O O5 0.500000 0.933803 0.750000
O O6 0.734186 0.912207 0.940481
O O7 0.000000 0.000000 0.000000
O O8 0.500000 0.707206 0.750000
O O9 0.079441 0.693939 0.011600
O O10 0.670078 0.072550 0.061430
O O11 0.285163 0.042755 0.307306
O O12 0.871473 0.977448 0.080863
O O13 0.894278 0.366081 0.519584
O O14 0.500000 0.347193 0.750000
#
# Coordination Sequence:
#
# PCOD9308941 Si02
#       6
#     8   8   8   8   8   8
#     4  10  21  40  64  89 120 162 206 244 310 364
#     4  12  22  39  61  90 125 164 201 247 310 375
#     4  10  22  41  68  88 115 163 217 254 291 364
#     4  10  20  36  61  89 125 160 199 245 302 373
#     4  11  20  35  59  91 121 162 194 246 306 364
#     4   9  21  39  60  88 127 162 200 251 309 359
#
# _framework density 10.313243
#
# number of rings (size 3 to 8) (size 9 to 14) (size 15 to 20)
#    0.000    1.667    3.333    1.000    0.000    2.667 
#    3.000    2.500    0.000    0.000    0.000    0.000 
#    0.000    0.000    0.000    0.000    0.000    0.000 
#
# Total GULP energy -133810.579008 kJ/mol
# GULP energy per Si atom -5575.440792 kJ/mol
# Density = 1.028977 g / cm^3
# Si number density = 10.313243 Si / 1000 Ang^3
#
#
#
# Elastic Constant Matrix: (Units=GPa)
#
#
# Indices 1 2 3 4 5 6 
#
# 1 160.8216 19.4837 7.9662 -0.0256 17.3822 -0.0112
# 2 19.4837 46.7409 -2.9289 -0.0879 10.1317 -0.0132
# 3 7.9662 -2.9289 20.3540 -0.2258 15.0371 0.0264
# 4 -0.0256 -0.0879 -0.2258 3.7381 0.0257 3.0686
# 5 17.3822 10.1317 15.0371 0.0257 34.4706 -0.0084
# 6 -0.0112 -0.0132 0.0264 3.0686 -0.0084 36.0750
#
#
#
# Elastic Compliance Matrix: (Units=1/GPa)
#
#
# Indices 1 2 3 4 5 6 
#
# 1 0.006816 -0.002494 -0.001520 -0.000098 -0.002041 0.000010
# 2 -0.002494 0.026017 0.013958 0.001642 -0.012479 -0.000144
# 3 -0.001520 0.013958 0.080073 0.005881 -0.038271 -0.000563
# 4 -0.000098 0.001642 0.005881 0.288053 -0.003219 -0.024507
# 5 -0.002041 -0.012479 -0.038271 -0.003219 0.050405 0.000308
# 6 0.000010 -0.000144 -0.000563 -0.024507 0.000308 0.029805
#
#
# Mechanical properties :
#
#
# Convention : Reuss Voigt Hill
#
# Bulk Modulus (GPa) = 7.53050 30.77318 19.15184
# Shear Modulus (GPa) = 9.89029 28.41643 19.15336
#
# Velocity S-wave (km/s) = 2.19211 3.71572 3.05057
# Velocity P-wave (km/s) = 3.17269 5.77585 4.65974
#
# Compressibility (1/GPa) = 0.13279323
#
# Stress axis : x y z
#
# Youngs Moduli (GPa) = 146.71116 38.43638 12.48857
#
# Poissons Ratio (x) = 0.09587 0.01898
# Poissons Ratio (y) = 0.36594 -0.17431
# Poissons Ratio (z) = 0.22301 -0.53649
#
# Static dielectric constant tensor:
#      x y z
#    x 1.811760 0.000010 0.026910 
#    y 0.000010 1.729550 -0.000070 
#    z 0.026910 -0.000070 1.767530 
# 
# From -- ./inp_files/169664.got.cif
#   From: 2010.05.17/outbox.ucp.g08.bks.cvg/sg15_85_cif.got.tgz:169664.got - 2010.06.11 12:40:34.
