data_PCOD9308877
_publ_section_title
;
Structure prediction by ZEFSAII (Michael W. Deem and Ramdas Pophale) SiO2 
 PCOD9308877
Probable space group: C 2/C
;
_chemical_formula_sum "Si O2"
_cell_formula_units_Z 28
_cell_length_a 15.000000
_cell_length_b 9.000000
_cell_length_c 24.000000
_cell_angle_alpha 90.000000
_cell_angle_beta 60.000000
_cell_angle_gamma 90.000000
_cell_volume 2805.922308
_symmetry_space_group_name_H-M "C 2/C"
_symmetry_group_IT_number 15
_symmetry_cell_setting 'monoclinic'
loop_
_space_group_symop_operation_xyz
x,y,z
-x,y,1/2-z
-x,-y,-z
x,-y,1/2+z
1/2+x,1/2+y,z
1/2-x,1/2+y,1/2-z
1/2-x,1/2-y,-z
1/2+x,1/2-y,1/2+z
loop_
_atom_site_type_symbol
_atom_site_label
_atom_site_fract_x
_atom_site_fract_y
_atom_site_fract_z
Si Si1 0.610574 0.960105 0.940039
Si Si2 0.093223 0.648513 0.261373
Si Si3 0.897916 0.909197 0.509796
Si Si4 0.168804 0.857348 0.853254
Si Si5 0.573152 0.318204 0.384259
Si Si6 0.535246 0.888400 0.354911
Si Si7 0.703081 0.912972 0.024198
O O1 0.615909 0.787483 0.920083
O O2 0.606291 0.038489 0.881541
O O3 0.686387 0.983829 0.967902
O O4 0.500000 0.000000 0.000000
O O5 0.210158 0.659638 0.200194
O O6 0.085767 0.743574 0.320355
O O7 0.062505 0.481963 0.291534
O O8 0.000000 0.696469 0.250000
O O9 0.861812 0.810507 0.573540
O O10 0.952015 0.834989 0.439089
O O11 0.794224 0.997624 0.526560
O O12 0.000000 0.000000 0.500000
O O13 0.086199 0.774667 0.838949
O O14 0.137033 0.030163 0.862739
O O15 0.412585 0.901113 0.410439
O O16 0.750000 0.750000 0.000000
#
# Coordination Sequence:
#
# PCOD9308877 Si02
#       7
#     8   8   8   8   8   8   8
#     4   9  19  36  56  83 121 157 194 244 305 361
#     4  11  24  41  60  87 123 163 206 256 318 384
#     4  10  20  34  58  91 123 154 198 255 307 357
#     4  11  21  40  63  86 118 165 208 254 312 376
#     4  10  21  40  62  87 121 162 206 256 313 373
#     4  10  22  40  59  85 121 161 202 253 312 371
#     4  11  19  33  59  91 121 156 201 252 303 364
#
# _framework density 9.9788940000000004
#
# number of rings (size 3 to 8) (size 9 to 14) (size 15 to 20)
#    0.000    1.714    0.000    6.857    0.000    1.143 
#    0.000    8.571    0.000    0.000    0.000    0.000 
#    0.000    0.000    0.000    0.000    0.000    0.000 
#
# Total GULP energy -155955.152435 kJ/mol
# GULP energy per Si atom -5569.826873 kJ/mol
# Density = 0.995618 g / cm^3
# Si number density = 9.978894 Si / 1000 Ang^3
#
#
#
# Elastic Constant Matrix: (Units=GPa)
#
#
# Indices 1 2 3 4 5 6 
#
# 1 133.0492 19.1132 43.6482 0.0000 -15.1582 0.0000
# 2 19.1132 57.9279 14.6692 0.0000 -4.8863 0.0000
# 3 43.6482 14.6692 137.9135 0.0000 -30.7720 0.0000
# 4 0.0000 0.0000 0.0000 35.2333 0.0000 1.9352
# 5 -15.1582 -4.8863 -30.7720 0.0000 46.8473 0.0000
# 6 0.0000 0.0000 0.0000 1.9352 0.0000 34.6448
#
#
#
# Elastic Compliance Matrix: (Units=1/GPa)
#
#
# Indices 1 2 3 4 5 6 
#
# 1 0.008704 -0.002203 -0.002277 0.000000 0.001091 0.000000
# 2 -0.002203 0.018319 -0.001153 0.000000 0.000441 0.000000
# 3 -0.002277 -0.001153 0.009260 0.000000 0.005226 0.000000
# 4 0.000000 0.000000 0.000000 0.028470 0.000000 -0.001590
# 5 0.001091 0.000441 0.005226 0.000000 0.025177 0.000000
# 6 0.000000 0.000000 0.000000 -0.001590 0.000000 0.028953
#
#
# Mechanical properties :
#
#
# Convention : Reuss Voigt Hill
#
# Bulk Modulus (GPa) = 39.97323 53.75021 46.86172
# Shear Modulus (GPa) = 36.10426 40.10909 38.10667
#
# Velocity S-wave (km/s) = 4.25788 4.48783 4.37437
# Velocity P-wave (km/s) = 6.65170 7.33788 7.00320
#
# Compressibility (1/GPa) = 0.02501674
#
# Stress axis : x y z
#
# Youngs Moduli (GPa) = 114.89288 54.58850 107.98969
#
# Poissons Ratio (x) = 0.12027 0.24588
# Poissons Ratio (y) = 0.25313 0.12450
# Poissons Ratio (z) = 0.26160 0.06294
#
# Static dielectric constant tensor:
#      x y z
#    x 1.709740 0.000000 0.048790 
#    y 0.000000 1.878630 0.000000 
#    z 0.048790 0.000000 1.727120 
# 
# From -- ./inp_files/273030.got.cif
#   From: 2010.05.17/outbox.ucp.g08.bks.cvg/sg15_137_cif.got.tgz:273030.got - 2010.06.11 12:40:34.
