data_PCOD9308104
_publ_section_title
;
Structure prediction by ZEFSAII (Michael W. Deem and Ramdas Pophale) SiO2 
 PCOD9308104
Probable space group: C 2/C
;
_chemical_formula_sum "Si O2"
_cell_formula_units_Z 36
_cell_length_a 14.272557
_cell_length_b 21.522817
_cell_length_c 4.936377
_cell_angle_alpha 90.000000
_cell_angle_beta 91.492300
_cell_angle_gamma 90.000000
_cell_volume 1515.869785
_symmetry_space_group_name_H-M "C 2/C"
_symmetry_group_IT_number 15
_symmetry_cell_setting 'monoclinic'
loop_
_space_group_symop_operation_xyz
x,y,z
-x,y,1/2-z
-x,-y,-z
x,-y,1/2+z
1/2+x,1/2+y,z
1/2-x,1/2+y,1/2-z
1/2-x,1/2-y,-z
1/2+x,1/2-y,1/2+z
loop_
_atom_site_type_symbol
_atom_site_label
_atom_site_fract_x
_atom_site_fract_y
_atom_site_fract_z
Si Si1 0.438456 0.362761 0.986007
Si Si2 0.396711 0.885874 0.365929
Si Si3 0.500000 0.047365 0.250000
Si Si4 0.207391 0.958456 0.253522
Si Si5 0.319686 0.750884 0.258898
O O1 0.500000 0.394472 0.750000
O O2 0.363047 0.407381 0.127435
O O3 0.388159 0.307161 0.816448
O O4 0.500000 0.339963 0.250000
O O5 0.500000 0.893383 0.250000
O O6 0.413621 0.906247 0.681240
O O7 0.312023 0.930350 0.272636
O O8 0.371774 0.816029 0.290752
O O9 0.500000 0.000000 0.500000
O O10 0.194337 0.981896 0.947424
O O11 0.250000 0.750000 0.500000
O O12 0.250000 0.750000 0.000000
#
# Coordination Sequence:
#
# PCOD9308104 Si02
#       5
#     8   8   4   8   8
#     4  12  27  51  81 112 153 202 264 327 386 457
#     4  12  29  48  81 114 159 204 257 316 400 471
#     4  12  26  46  72 114 158 204 250 304 378 476
#     4  12  29  48  77 112 154 204 255 315 385 461
#     4  12  28  50  81 114 156 203 263 324 400 464
#
# _framework density 23.748740000000002
#
# number of rings (size 3 to 8) (size 9 to 14) (size 15 to 20)
#    0.000    0.000    3.333    4.667   10.889    2.667 
#    0.000    0.000    0.000    0.000    0.000    0.000 
#    0.000    0.000    0.000    0.000    0.000    0.000 
#
# Total GULP energy -100588.872313 kJ/mol
# GULP energy per Si atom -5588.270684 kJ/mol
# Density = 2.369469 g / cm^3
# Si number density = 23.748740 Si / 1000 Ang^3
#
#
#
# Elastic Constant Matrix: (Units=GPa)
#
#
# Indices 1 2 3 4 5 6 
#
# 1 144.7157 59.2406 55.8323 0.0000 -5.6165 0.0000
# 2 59.2406 136.6649 30.9149 0.0000 19.6179 0.0000
# 3 55.8323 30.9149 156.2086 0.0000 12.2848 0.0000
# 4 0.0000 0.0000 0.0000 31.4692 0.0000 16.8482
# 5 -5.6165 19.6179 12.2848 0.0000 56.2064 0.0000
# 6 0.0000 0.0000 0.0000 16.8482 0.0000 27.1007
#
#
#
# Elastic Compliance Matrix: (Units=1/GPa)
#
#
# Indices 1 2 3 4 5 6 
#
# 1 0.009811 -0.004020 -0.002949 0.000000 0.003028 0.000000
# 2 -0.004020 0.009635 -0.000177 0.000000 -0.003726 0.000000
# 3 -0.002949 -0.000177 0.007640 0.000000 -0.001903 0.000000
# 4 0.000000 0.000000 0.000000 0.047630 0.000000 -0.029611
# 5 0.003028 -0.003726 -0.001903 0.000000 0.019811 0.000000
# 6 0.000000 0.000000 0.000000 -0.029611 0.000000 0.055308
#
#
# Mechanical properties :
#
#
# Convention : Reuss Voigt Hill
#
# Bulk Modulus (GPa) = 78.16440 81.06274 79.61357
# Shear Modulus (GPa) = 29.69237 42.39536 36.04386
#
# Velocity S-wave (km/s) = 3.53975 4.22970 3.90001
# Velocity P-wave (km/s) = 7.04918 7.61981 7.34004
#
# Compressibility (1/GPa) = 0.01279355
#
# Stress axis : x y z
#
# Youngs Moduli (GPa) = 101.92338 103.79058 130.88219
#
# Poissons Ratio (x) = 0.41729 0.38600
# Poissons Ratio (y) = 0.40978 0.02314
# Poissons Ratio (z) = 0.30060 0.01835
#
# Static dielectric constant tensor:
#      x y z
#    x 1.930670 0.000000 -0.017420 
#    y 0.000000 1.349010 0.000000 
#    z -0.017420 0.000000 2.124900 
# 
# From -- ./inp_files/4390.got.cif
#   From: 2010.05.17/outbox.cif.g08.bks.cpg/sg15_3_cif.got.tgz:4390.got - 2010.06.03 18:47:42.
