data_PCOD9308488
_publ_section_title
;
Structure prediction by ZEFSAII (Michael W. Deem and Ramdas Pophale) SiO2 
 PCOD9308488
Probable space group: C 2/C
;
_chemical_formula_sum "Si O2"
_cell_formula_units_Z 36
_cell_length_a 29.004018
_cell_length_b 6.826364
_cell_length_c 10.930865
_cell_angle_alpha 90.000000
_cell_angle_beta 44.675042
_cell_angle_gamma 90.000000
_cell_volume 1521.633213
_symmetry_space_group_name_H-M "C 2/C"
_symmetry_group_IT_number 15
_symmetry_cell_setting 'monoclinic'
loop_
_space_group_symop_operation_xyz
x,y,z
-x,y,1/2-z
-x,-y,-z
x,-y,1/2+z
1/2+x,1/2+y,z
1/2-x,1/2+y,1/2-z
1/2-x,1/2-y,-z
1/2+x,1/2-y,1/2+z
loop_
_atom_site_type_symbol
_atom_site_label
_atom_site_fract_x
_atom_site_fract_y
_atom_site_fract_z
Si Si1 0.191572 0.790110 0.955819
Si Si2 0.387686 0.276845 0.623083
Si Si3 0.385533 0.317381 0.892351
Si Si4 0.500000 0.601771 0.750000
Si Si5 0.155539 0.230441 0.783081
O O1 0.166001 0.711243 0.874520
O O2 0.267580 0.748335 0.831138
O O3 0.152801 0.706244 0.146830
O O4 0.174604 0.023943 0.990425
O O5 0.384951 0.203385 0.766184
O O6 0.457893 0.272196 0.424802
O O7 0.370814 0.507795 0.670918
O O8 0.449020 0.458275 0.778116
O O9 0.382234 0.194864 0.024683
#
# Coordination Sequence:
#
# PCOD9308488 Si02
#       5
#     8   8   8   4   8
#     4   8  14  24  35  48  70  97 120 143 175 210
#     4   9  16  24  37  55  73  95 121 147 172 206
#     4   9  16  24  37  55  73  95 121 147 172 206
#     4   8  14  24  36  50  74  98 116 140 178 216
#     4   8  14  24  35  48  70  97 120 143 175 210
#
# _framework density 23.658788999999999
#
# number of rings (size 3 to 8) (size 9 to 14) (size 15 to 20)
#    0.000    4.000    0.000    0.667    0.000    2.667 
#    0.000    0.000    0.000    0.000    0.000    0.000 
#    0.000  113.778    0.000  967.111    0.000  156.444 
#
# Total GULP energy -100250.523164 kJ/mol
# GULP energy per Si atom -5569.473509 kJ/mol
# Density = 2.360494 g / cm^3
# Si number density = 23.658789 Si / 1000 Ang^3
#
#
#
# Elastic Constant Matrix: (Units=GPa)
#
#
# Indices 1 2 3 4 5 6 
#
# 1 105.0464 -13.6129 52.1611 0.0000 48.5899 0.0000
# 2 -13.6129 62.0412 -0.6607 0.0000 -13.4113 0.0000
# 3 52.1611 -0.6607 96.7795 0.0000 25.6539 0.0000
# 4 0.0000 0.0000 0.0000 -6.3485 0.0000 -15.8507
# 5 48.5899 -13.4113 25.6539 0.0000 67.2904 0.0000
# 6 0.0000 0.0000 0.0000 -15.8507 0.0000 -16.7849
#
#
#
# Elastic Compliance Matrix: (Units=1/GPa)
#
#
# Indices 1 2 3 4 5 6 
#
# 1 0.017726 0.001693 -0.006940 0.000000 -0.009816 0.000000
# 2 0.001693 0.017071 -0.001528 0.000000 0.002762 0.000000
# 3 -0.006940 -0.001528 0.014256 0.000000 -0.000728 0.000000
# 4 0.000000 0.000000 0.000000 0.116008 0.000000 -0.109551
# 5 -0.009816 0.002762 -0.000728 0.000000 0.022777 0.000000
# 6 0.000000 0.000000 0.000000 -0.109551 0.000000 0.043877
#
#
# Mechanical properties :
#
#
# Convention : Reuss Voigt Hill
#
# Bulk Modulus (GPa) = 28.16708 37.73801 32.95254
# Shear Modulus (GPa) = 19.44783 23.89673 21.67228
#
# Velocity S-wave (km/s) = 2.87019 3.18159 3.02989
# Velocity P-wave (km/s) = 4.78700 5.42975 5.11848
#
# Compressibility (1/GPa) = 0.03550244
#
# Stress axis : x y z
#
# Youngs Moduli (GPa) = 56.41524 58.57995 70.14699
#
# Poissons Ratio (x) = -0.09920 0.48682
# Poissons Ratio (y) = -0.09554 0.10721
# Poissons Ratio (z) = 0.39152 0.08953
#
# Static dielectric constant tensor:
#      x y z
#    x 1.963550 0.000000 0.094600 
#    y 0.000000 1.878830 0.000000 
#    z 0.094600 0.000000 1.936530 
# 
# From -- ./inp_files/88011.got.cif
#   From: 2010.05.17/outbox.cif.g08.bks.cpg/sg15_45_cif.got.tgz:88011.got - 2010.06.03 18:47:42.
