data_PCOD9308247
_publ_section_title
;
Structure prediction by ZEFSAII (Michael W. Deem and Ramdas Pophale) SiO2 
 PCOD9308247
Probable space group: C 2/C
;
_chemical_formula_sum "Si O2"
_cell_formula_units_Z 40
_cell_length_a 7.540989
_cell_length_b 9.448696
_cell_length_c 23.227738
_cell_angle_alpha 90.000000
_cell_angle_beta 99.604030
_cell_angle_gamma 90.000000
_cell_volume 1631.838232
_symmetry_space_group_name_H-M "C 2/C"
_symmetry_group_IT_number 15
_symmetry_cell_setting 'monoclinic'
loop_
_space_group_symop_operation_xyz
x,y,z
-x,y,1/2-z
-x,-y,-z
x,-y,1/2+z
1/2+x,1/2+y,z
1/2-x,1/2+y,1/2-z
1/2-x,1/2-y,-z
1/2+x,1/2-y,1/2+z
loop_
_atom_site_type_symbol
_atom_site_label
_atom_site_fract_x
_atom_site_fract_y
_atom_site_fract_z
Si Si1 0.385264 0.493907 0.301725
Si Si2 0.573052 0.212734 0.139993
Si Si3 0.471057 0.707951 0.109377
Si Si4 0.594426 0.004669 0.943928
Si Si5 0.000000 0.465091 0.750000
Si Si6 0.000000 0.000000 0.500000
O O1 0.500000 0.499014 0.250000
O O2 0.462792 0.376287 0.348996
O O3 0.395749 0.641637 0.336041
O O4 0.179458 0.452102 0.277402
O O5 0.770445 0.189898 0.124328
O O6 0.557322 0.132352 0.199631
O O7 0.432646 0.145412 0.088200
O O8 0.497671 0.873916 0.099348
O O9 0.484313 0.623978 0.050285
O O10 0.800340 0.040999 0.965053
O O11 0.500000 0.000000 0.000000
#
# Coordination Sequence:
#
# PCOD9308247 Si02
#       6
#     8   8   8   8   4   4
#     4  12  28  53  80 117 156 209 264 325 394 473
#     4  12  26  51  80 113 159 207 259 323 402 461
#     4  12  27  50  81 116 159 204 267 322 393 470
#     4  12  29  53  79 117 159 208 261 327 391 471
#     4  12  26  50  82 114 158 206 260 328 396 466
#     4  12  26  52  84 110 156 208 258 324 388 462
#
# _framework density 24.512233999999999
#
# number of rings (size 3 to 8) (size 9 to 14) (size 15 to 20)
#    0.000    0.000    5.000    4.200    2.800    7.200 
#    9.000    0.000    0.000    1.200    0.000    0.000 
#    0.000    0.000    0.000    0.000    0.000    0.000 
#
# Total GULP energy -111696.463546 kJ/mol
# GULP energy per Si atom -5584.823177 kJ/mol
# Density = 2.445644 g / cm^3
# Si number density = 24.512234 Si / 1000 Ang^3
#
#
#
# Elastic Constant Matrix: (Units=GPa)
#
#
# Indices 1 2 3 4 5 6 
#
# 1 80.2846 33.8658 44.9302 0.0000 -2.7238 0.0000
# 2 33.8658 92.2529 47.6781 0.0000 1.6240 0.0000
# 3 44.9302 47.6781 96.0621 0.0000 -1.9891 0.0000
# 4 0.0000 0.0000 0.0000 37.8395 0.0000 0.2615
# 5 -2.7238 1.6240 -1.9891 0.0000 54.3469 0.0000
# 6 0.0000 0.0000 0.0000 0.2615 0.0000 25.0755
#
#
#
# Elastic Compliance Matrix: (Units=1/GPa)
#
#
# Indices 1 2 3 4 5 6 
#
# 1 0.017474 -0.002974 -0.006682 0.000000 0.000720 0.000000
# 2 -0.002974 0.015112 -0.006127 0.000000 -0.000825 0.000000
# 3 -0.006682 -0.006127 0.016586 0.000000 0.000455 0.000000
# 4 0.000000 0.000000 0.000000 0.026429 0.000000 -0.000276
# 5 0.000720 -0.000825 0.000455 0.000000 0.018478 0.000000
# 6 0.000000 0.000000 0.000000 -0.000276 0.000000 0.039882
#
#
# Mechanical properties :
#
#
# Convention : Reuss Voigt Hill
#
# Bulk Modulus (GPa) = 56.79706 57.94976 57.37341
# Shear Modulus (GPa) = 29.17220 32.92742 31.04981
#
# Velocity S-wave (km/s) = 3.45354 3.66909 3.56294
# Velocity P-wave (km/s) = 6.25490 6.45307 6.35476
#
# Compressibility (1/GPa) = 0.01760655
#
# Stress axis : x y z
#
# Youngs Moduli (GPa) = 57.22746 66.17054 60.29338
#
# Poissons Ratio (x) = 0.19679 0.40288
# Poissons Ratio (y) = 0.17019 0.36940
# Poissons Ratio (z) = 0.38240 0.40541
#
# Static dielectric constant tensor:
#      x y z
#    x 1.932140 0.000000 -0.006380 
#    y 0.000000 1.935040 0.000000 
#    z -0.006380 0.000000 1.911100 
# 
# From -- ./inp_files/287085.got.cif
#   From: 2010.05.17/outbox.cif.g08.bks.cpg/sg15_144_cif.got.tgz:287085.got - 2010.06.03 18:47:42.
