data_PCOD9308435
_publ_section_title
;
Structure prediction by ZEFSAII (Michael W. Deem and Ramdas Pophale) SiO2 
 PCOD9308435
Probable space group: C 2/C
;
_chemical_formula_sum "Si O2"
_cell_formula_units_Z 28
_cell_length_a 11.712253
_cell_length_b 15.230339
_cell_length_c 13.055751
_cell_angle_alpha 90.000000
_cell_angle_beta 152.405351
_cell_angle_gamma 90.000000
_cell_volume 1078.779946
_symmetry_space_group_name_H-M "C 2/C"
_symmetry_group_IT_number 15
_symmetry_cell_setting 'monoclinic'
loop_
_space_group_symop_operation_xyz
x,y,z
-x,y,1/2-z
-x,-y,-z
x,-y,1/2+z
1/2+x,1/2+y,z
1/2-x,1/2+y,1/2-z
1/2-x,1/2-y,-z
1/2+x,1/2-y,1/2+z
loop_
_atom_site_type_symbol
_atom_site_label
_atom_site_fract_x
_atom_site_fract_y
_atom_site_fract_z
Si Si1 0.273473 0.269770 0.358211
Si Si2 0.000000 0.053348 0.750000
Si Si3 0.266594 0.963219 0.137200
Si Si4 0.496366 0.143359 0.366590
O O1 0.475604 0.252231 0.612043
O O2 0.289070 0.373797 0.350799
O O3 0.391842 0.213732 0.360476
O O4 0.940248 0.991766 0.606870
O O5 0.774684 0.113766 0.602415
O O6 0.500000 0.942473 0.250000
O O7 0.342758 0.052136 0.255357
O O8 0.500000 0.170918 0.250000
#
# Coordination Sequence:
#
# PCOD9308435 Si02
#       4
#     8   4   8   8
#     4  12  30  44  68 118 148 186 240 306 368 432
#     4   8  18  44  76  98 136 200 246 292 358 432
#     4   9  22  46  76 103 141 193 244 300 362 433
#     4   9  22  46  76 103 141 193 244 300 362 433
#
# _framework density 25.955245999999999
#
# number of rings (size 3 to 8) (size 9 to 14) (size 15 to 20)
#    0.000    2.857    0.000    0.000   16.000    4.571 
#    0.000    0.000    0.000    1.714    0.000    0.000 
#    0.000    0.000    0.000    0.000    0.000    0.000 
#
# Total GULP energy -78324.751426 kJ/mol
# GULP energy per Si atom -5594.625102 kJ/mol
# Density = 2.589617 g / cm^3
# Si number density = 25.955246 Si / 1000 Ang^3
#
#
#
# Elastic Constant Matrix: (Units=GPa)
#
#
# Indices 1 2 3 4 5 6 
#
# 1 94.4496 87.3545 68.0493 -0.0364 13.3547 -0.0118
# 2 87.3545 221.2309 54.0218 -0.0563 -10.0410 -0.0182
# 3 68.0493 54.0218 196.6565 -0.1034 1.8567 -0.0434
# 4 -0.0364 -0.0563 -0.1034 -27.7922 -0.0697 7.6214
# 5 13.3547 -10.0410 1.8567 -0.0697 17.9155 -0.0304
# 6 -0.0118 -0.0182 -0.0434 7.6214 -0.0304 59.7193
#
#
#
# Elastic Compliance Matrix: (Units=1/GPa)
#
#
# Indices 1 2 3 4 5 6 
#
# 1 0.030395 -0.011564 -0.007073 0.000074 -0.028405 -0.000027
# 2 -0.011564 0.009395 0.001291 -0.000039 0.013752 0.000014
# 3 -0.007073 0.001291 0.007128 -0.000030 0.005257 0.000011
# 4 0.000074 -0.000039 -0.000030 -0.034764 -0.000202 0.004436
# 5 -0.028405 0.013752 0.005257 -0.000202 0.084153 0.000071
# 6 -0.000027 0.000014 0.000011 0.004436 0.000071 0.016179
#
#
# Mechanical properties :
#
#
# Convention : Reuss Voigt Hill
#
# Bulk Modulus (GPa) = 81.78883 103.46535 92.62709
# Shear Modulus (GPa) = 33.05703 30.16262 31.60982
#
# Velocity S-wave (km/s) = 3.57265 3.41266 3.49357
# Velocity P-wave (km/s) = 6.97125 7.44834 7.21374
#
# Compressibility (1/GPa) = 0.01222661
#
# Stress axis : x y z
#
# Youngs Moduli (GPa) = 32.90015 106.43777 140.28745
#
# Poissons Ratio (x) = 1.23082 0.99223
# Poissons Ratio (y) = 0.38045 -0.18107
# Poissons Ratio (z) = 0.23270 -0.13738
#
# Static dielectric constant tensor:
#      x y z
#    x 2.035510 0.000000 -0.024480 
#    y 0.000000 1.951220 0.000000 
#    z -0.024480 0.000000 2.163510 
# 
# From -- ./inp_files/211149.got.cif
#   From: 2010.05.17/outbox.cif.g08.bks.cpg/sg15_106_cif.got.tgz:211149.got - 2010.06.03 18:47:42.
