data_PCOD9308916
_publ_section_title
;
Structure prediction by ZEFSAII (Michael W. Deem and Ramdas Pophale) SiO2 
 PCOD9308916
Probable space group: C 2/C
;
_chemical_formula_sum "Si O2"
_cell_formula_units_Z 28
_cell_length_a 12.000000
_cell_length_b 9.000000
_cell_length_c 30.000000
_cell_angle_alpha 90.000000
_cell_angle_beta 70.000000
_cell_angle_gamma 90.000000
_cell_volume 3044.604091
_symmetry_space_group_name_H-M "C 2/C"
_symmetry_group_IT_number 15
_symmetry_cell_setting 'monoclinic'
loop_
_space_group_symop_operation_xyz
x,y,z
-x,y,1/2-z
-x,-y,-z
x,-y,1/2+z
1/2+x,1/2+y,z
1/2-x,1/2+y,1/2-z
1/2-x,1/2-y,-z
1/2+x,1/2-y,1/2+z
loop_
_atom_site_type_symbol
_atom_site_label
_atom_site_fract_x
_atom_site_fract_y
_atom_site_fract_z
Si Si1 0.142037 0.809292 0.224954
Si Si2 0.322448 0.479461 0.694223
Si Si3 0.952346 0.533002 0.057047
Si Si4 0.794582 0.806866 0.110693
Si Si5 0.598771 0.547349 0.151450
Si Si6 0.209108 0.535576 0.048193
Si Si7 0.776564 0.113535 0.938496
O O1 0.226621 0.660071 0.207887
O O2 0.000000 0.768464 0.250000
O O3 0.185155 0.908020 0.261878
O O4 0.140449 0.927149 0.183551
O O5 0.312113 0.586202 0.651582
O O6 0.459018 0.418891 0.677333
O O7 0.900936 0.695001 0.079226
O O8 0.838833 0.427610 0.075044
O O9 0.069294 0.497874 0.068767
O O10 0.000000 0.500000 0.000000
O O11 0.684593 0.692748 0.136787
O O12 0.770791 0.918804 0.072497
O O13 0.615290 0.462133 0.102004
O O14 0.216937 0.709394 0.060012
O O15 0.257876 0.540433 0.990247
#
# Coordination Sequence:
#
# PCOD9308916 Si02
#       7
#     8   8   8   8   8   8   8
#     4  10  23  42  63  86 116 148 189 241 297 355
#     4  11  23  41  64  88 115 151 189 239 299 351
#     4   9  20  37  55  80 117 158 196 238 283 332
#     4  11  23  36  59  90 117 153 201 237 284 347
#     4  10  22  39  58  86 118 149 192 241 284 343
#     4  10  20  36  56  82 118 157 195 238 282 334
#     4   9  19  37  57  81 118 156 194 238 284 335
#
# _framework density 9.1965979999999998
#
# number of rings (size 3 to 8) (size 9 to 14) (size 15 to 20)
#    0.000    2.000    0.000    2.571    0.000   10.857 
#    0.000   11.429    0.000    0.000    0.000    0.000 
#    0.000    0.000    0.000    0.000    0.000    0.000 
#
# Total GULP energy -155959.531390 kJ/mol
# GULP energy per Si atom -5569.983264 kJ/mol
# Density = 0.917567 g / cm^3
# Si number density = 9.196598 Si / 1000 Ang^3
#
#
#
# Elastic Constant Matrix: (Units=GPa)
#
#
# Indices 1 2 3 4 5 6 
#
# 1 82.4948 35.6698 42.0061 0.0000 -2.2530 0.0000
# 2 35.6698 94.8917 55.3660 0.0000 6.0281 0.0000
# 3 42.0061 55.3660 108.4731 0.0000 3.3060 0.0000
# 4 0.0000 0.0000 0.0000 45.9359 0.0000 -2.7649
# 5 -2.2530 6.0281 3.3060 0.0000 36.9128 0.0000
# 6 0.0000 0.0000 0.0000 -2.7649 0.0000 38.3876
#
#
#
# Elastic Compliance Matrix: (Units=1/GPa)
#
#
# Indices 1 2 3 4 5 6 
#
# 1 0.015963 -0.003536 -0.004436 0.000000 0.001949 0.000000
# 2 -0.003536 0.015907 -0.006682 0.000000 -0.002215 0.000000
# 3 -0.004436 -0.006682 0.014362 0.000000 -0.000466 0.000000
# 4 0.000000 0.000000 0.000000 0.021864 0.000000 0.001575
# 5 0.001949 -0.002215 -0.000466 0.000000 0.027613 0.000000
# 6 0.000000 0.000000 0.000000 0.001575 0.000000 0.026164
#
#
# Mechanical properties :
#
#
# Convention : Reuss Voigt Hill
#
# Bulk Modulus (GPa) = 59.09203 61.32703 60.20953
# Shear Modulus (GPa) = 31.88302 34.43509 33.15905
#
# Velocity S-wave (km/s) = 4.16795 4.33155 4.25053
# Velocity P-wave (km/s) = 7.44038 7.64402 7.54288
#
# Compressibility (1/GPa) = 0.01692276
#
# Stress axis : x y z
#
# Youngs Moduli (GPa) = 62.64467 62.86484 69.62910
#
# Poissons Ratio (x) = 0.22228 0.30890
# Poissons Ratio (y) = 0.22151 0.46529
# Poissons Ratio (z) = 0.27791 0.42009
#
# Static dielectric constant tensor:
#      x y z
#    x 1.676230 0.000000 -0.012860 
#    y 0.000000 1.610280 0.000000 
#    z -0.012860 0.000000 1.677690 
# 
# From -- ./inp_files/309916.got.cif
#   From: 2010.05.17/outbox.ucp.g08.bks.cvg/sg15_155_cif.got.tgz:309916.got - 2010.06.11 12:40:34.
