data_PCOD9308478
_publ_section_title
;
Structure prediction by ZEFSAII (Michael W. Deem and Ramdas Pophale) SiO2 
 PCOD9308478
Probable space group: C 2/C
;
_chemical_formula_sum "Si O2"
_cell_formula_units_Z 60
_cell_length_a 10.187056
_cell_length_b 9.441088
_cell_length_c 23.937319
_cell_angle_alpha 90.000000
_cell_angle_beta 61.847847
_cell_angle_gamma 90.000000
_cell_volume 2029.859540
_symmetry_space_group_name_H-M "C 2/C"
_symmetry_group_IT_number 15
_symmetry_cell_setting 'monoclinic'
loop_
_space_group_symop_operation_xyz
x,y,z
-x,y,1/2-z
-x,-y,-z
x,-y,1/2+z
1/2+x,1/2+y,z
1/2-x,1/2+y,1/2-z
1/2-x,1/2-y,-z
1/2+x,1/2-y,1/2+z
loop_
_atom_site_type_symbol
_atom_site_label
_atom_site_fract_x
_atom_site_fract_y
_atom_site_fract_z
Si Si1 0.895254 0.390905 0.986084
Si Si2 0.609816 0.127978 0.353283
Si Si3 0.790982 0.116453 0.549093
Si Si4 0.000000 0.075785 0.750000
Si Si5 0.186116 0.907840 0.117804
Si Si6 0.393583 0.043108 0.814455
Si Si7 0.461002 0.348864 0.916125
Si Si8 0.803382 0.149376 0.220399
O O1 0.787616 0.491447 0.970935
O O2 0.000059 0.307046 0.921999
O O3 0.792274 0.322518 0.054802
O O4 0.000000 0.500000 0.000000
O O5 0.717232 0.025696 0.367962
O O6 0.710424 0.220365 0.290357
O O7 0.502994 0.024885 0.338616
O O8 0.753934 0.086196 0.620830
O O9 0.684585 0.253419 0.564578
O O10 0.949012 0.140444 0.486000
O O11 0.094396 0.162893 0.685961
O O12 0.101547 0.968994 0.765586
O O13 0.074372 0.998758 0.102396
O O14 0.500000 0.134879 0.750000
O O15 0.324114 0.930328 0.787255
O O16 0.590133 0.286619 0.849717
#
# Coordination Sequence:
#
# PCOD9308478 Si02
#       8
#     8   8   8   4   8   8   8   8
#     4   8  13  23  42  62  83 114 152 183 225 262
#     4   8  14  25  41  61  86 111 150 199 218 263
#     4   9  17  29  42  65  97 118 148 192 233 282
#     4   8  14  24  38  62  90 112 144 194 226 270
#     4   8  13  23  39  62  84 115 153 186 227 274
#     4   9  17  29  43  65  91 118 152 193 235 269
#     4   9  17  28  43  65  94 122 148 187 239 279
#     4   9  16  27  43  63  91 117 156 186 236 275
#
# _framework density 29.558696000000001
#
# number of rings (size 3 to 8) (size 9 to 14) (size 15 to 20)
#    0.000    3.467    0.000    0.000    0.000    0.533 
#    7.200    0.000    0.000    0.000    0.000   42.000 
#   50.000    0.000    0.000    0.000    0.000    0.000 
#
# Total GULP energy -167670.742298 kJ/mol
# GULP energy per Si atom -5589.024743 kJ/mol
# Density = 2.949142 g / cm^3
# Si number density = 29.558696 Si / 1000 Ang^3
#
#
#
# Elastic Constant Matrix: (Units=GPa)
#
#
# Indices 1 2 3 4 5 6 
#
# 1 106.6346 45.4759 46.4848 0.0000 -14.1446 0.0000
# 2 45.4759 82.6724 45.2761 0.0000 0.4894 0.0000
# 3 46.4848 45.2761 458.9045 0.0000 -54.2260 0.0000
# 4 0.0000 0.0000 0.0000 14.1406 0.0000 -16.2739
# 5 -14.1446 0.4894 -54.2260 0.0000 55.3549 0.0000
# 6 0.0000 0.0000 0.0000 -16.2739 0.0000 35.7525
#
#
#
# Elastic Compliance Matrix: (Units=1/GPa)
#
#
# Indices 1 2 3 4 5 6 
#
# 1 0.012866 -0.006959 -0.000250 0.000000 0.003104 0.000000
# 2 -0.006959 0.016666 -0.001320 0.000000 -0.003218 0.000000
# 3 -0.000250 -0.001320 0.002633 0.000000 0.002527 0.000000
# 4 0.000000 0.000000 0.000000 0.148523 0.000000 0.067605
# 5 0.003104 -0.003218 0.002527 0.000000 0.021363 0.000000
# 6 0.000000 0.000000 0.000000 0.067605 0.000000 0.058743
#
#
# Mechanical properties :
#
#
# Convention : Reuss Voigt Hill
#
# Bulk Modulus (GPa) = 66.18892 102.52055 84.35474
# Shear Modulus (GPa) = 17.67491 55.11457 36.39474
#
# Velocity S-wave (km/s) = 2.44797 4.32276 3.51275
# Velocity P-wave (km/s) = 5.51644 7.72490 6.71212
#
# Compressibility (1/GPa) = 0.01510827
#
# Stress axis : x y z
#
# Youngs Moduli (GPa) = 77.72268 60.00388 379.75813
#
# Poissons Ratio (x) = 0.41756 0.09490
# Poissons Ratio (y) = 0.54086 0.50114
# Poissons Ratio (z) = 0.01942 0.07918
#
# Static dielectric constant tensor:
#      x y z
#    x 2.340040 0.000000 -0.076200 
#    y 0.000000 2.405110 0.000000 
#    z -0.076200 0.000000 2.498210 
# 
# From -- ./inp_files/269738.got.cif
#   From: 2010.05.17/outbox.cif.g08.bks.cpg/sg15_135_cif.got.tgz:269738.got - 2010.06.03 18:47:42.
