data_PCOD9308848
_publ_section_title
;
Structure prediction by ZEFSAII (Michael W. Deem and Ramdas Pophale) SiO2 
 PCOD9308848
Probable space group: C 2/C
;
_chemical_formula_sum "Si O2"
_cell_formula_units_Z 30
_cell_length_a 24.000000
_cell_length_b 18.000000
_cell_length_c 9.000000
_cell_angle_alpha 90.000000
_cell_angle_beta 120.000000
_cell_angle_gamma 90.000000
_cell_volume 3367.106770
_symmetry_space_group_name_H-M "C 2/C"
_symmetry_group_IT_number 15
_symmetry_cell_setting 'monoclinic'
loop_
_space_group_symop_operation_xyz
x,y,z
-x,y,1/2-z
-x,-y,-z
x,-y,1/2+z
1/2+x,1/2+y,z
1/2-x,1/2+y,1/2-z
1/2-x,1/2-y,-z
1/2+x,1/2-y,1/2+z
loop_
_atom_site_type_symbol
_atom_site_label
_atom_site_fract_x
_atom_site_fract_y
_atom_site_fract_z
Si Si1 0.301761 0.680583 0.735090
Si Si2 0.601505 0.831664 0.137904
Si Si3 0.321755 0.291341 0.927832
Si Si4 0.625696 0.795547 0.502208
Si Si5 0.744584 0.908178 0.655844
Si Si6 0.000000 0.503124 0.250000
Si Si7 0.775694 0.558530 0.706148
Si Si8 0.962153 0.602859 0.435932
O O1 0.330874 0.682289 0.609062
O O2 0.241491 0.738089 0.654504
O O3 0.351404 0.714207 0.920399
O O4 0.272210 0.603457 0.749286
O O5 0.624046 0.762379 0.067773
O O6 0.594393 0.803247 0.298704
O O7 0.656625 0.895867 0.203286
O O8 0.533543 0.866074 0.004011
O O9 0.304553 0.362383 0.802906
O O10 0.688225 0.847393 0.573306
O O11 0.584079 0.831060 0.579235
O O12 0.751363 0.937557 0.497432
O O13 0.721451 0.974814 0.731237
O O14 0.050862 0.552619 0.225332
O O15 0.034457 0.451560 0.417048
#
# Coordination Sequence:
#
# PCOD9308848 Si02
#       8
#     8   8   8   8   8   4   8   8
#     4   9  18  33  49  69  94 126 165 207 246 291
#     4  10  20  33  50  70 100 135 168 203 243 288
#     4   9  18  33  49  69  94 126 165 207 246 291
#     4  10  20  33  50  70 100 135 168 203 243 288
#     4  10  20  31  49  73  99 129 164 203 250 295
#     4  10  24  34  48  66 108 134 174 206 236 276
#     4  10  20  31  49  73  99 129 164 203 250 295
#     4  11  22  36  48  72 101 138 170 204 241 286
#
# _framework density 8.9097259999999991
#
# number of rings (size 3 to 8) (size 9 to 14) (size 15 to 20)
#    0.000    2.133    1.333    1.600    5.600    4.267 
#    0.000    0.000    0.000    0.000    0.000    0.933 
#    0.000    0.000    0.000    0.000    0.000    0.000 
#
# Total GULP energy -167371.767453 kJ/mol
# GULP energy per Si atom -5579.058915 kJ/mol
# Density = 0.888945 g / cm^3
# Si number density = 8.909726 Si / 1000 Ang^3
#
#
#
# Elastic Constant Matrix: (Units=GPa)
#
#
# Indices 1 2 3 4 5 6 
#
# 1 35.2956 -12.9426 -1.2522 0.0000 -10.7672 0.0000
# 2 -12.9426 -0.1267 -2.5636 0.0000 -1.8207 0.0000
# 3 -1.2522 -2.5636 44.2101 0.0000 -19.8022 0.0000
# 4 0.0000 0.0000 0.0000 6.9817 0.0000 -13.2948
# 5 -10.7672 -1.8207 -19.8022 0.0000 22.8036 0.0000
# 6 0.0000 0.0000 0.0000 -13.2948 0.0000 27.1930
#
#
#
# Elastic Compliance Matrix: (Units=1/GPa)
#
#
# Indices 1 2 3 4 5 6 
#
# 1 0.003470 -0.058955 -0.007684 0.000000 -0.009741 0.000000
# 2 -0.058955 -0.099542 -0.038410 0.000000 -0.069139 0.000000
# 3 -0.007684 -0.038410 0.028109 0.000000 0.017714 0.000000
# 4 0.000000 0.000000 0.000000 2.075689 0.000000 1.014818
# 5 -0.009741 -0.069139 0.017714 0.000000 0.049116 0.000000
# 6 0.000000 0.000000 0.000000 1.014818 0.000000 0.532925
#
#
# Mechanical properties :
#
#
# Convention : Reuss Voigt Hill
#
# Bulk Modulus (GPa) = -3.59632 5.09579 0.74973
# Shear Modulus (GPa) = 1.84694 17.80483 9.82588
#
# Velocity S-wave (km/s) = 1.01918 3.16441 2.35077
# Velocity P-wave (km/s) = 0.79851 4.02706 2.79102
#
# Compressibility (1/GPa) = -0.27806219
#
# Stress axis : x y z
#
# Youngs Moduli (GPa) = 288.22505 -10.04601 35.57609
#
# Poissons Ratio (x) = -0.59227 0.27335
# Poissons Ratio (y) = 16.99240 1.36649
# Poissons Ratio (z) = 2.21461 -0.38587
#
# Static dielectric constant tensor:
#      x y z
#    x 1.604330 0.000000 -0.020080 
#    y 0.000000 1.611800 0.000000 
#    z -0.020080 0.000000 1.648690 
# 
# From -- ./inp_files/56550.got.cif
#   From: 2010.05.17/outbox.ucp.g08.bks.cvg/sg15_29_cif.got.tgz:56550.got - 2010.06.11 12:40:34.
