data_PCOD9308843
_publ_section_title
;
Structure prediction by ZEFSAII (Michael W. Deem and Ramdas Pophale) SiO2 
 PCOD9308843
Probable space group: C 2/C
;
_chemical_formula_sum "Si O2"
_cell_formula_units_Z 24
_cell_length_a 9.000000
_cell_length_b 18.000000
_cell_length_c 30.000000
_cell_angle_alpha 90.000000
_cell_angle_beta 30.000000
_cell_angle_gamma 90.000000
_cell_volume 2430.000000
_symmetry_space_group_name_H-M "C 2/C"
_symmetry_group_IT_number 15
_symmetry_cell_setting 'monoclinic'
loop_
_space_group_symop_operation_xyz
x,y,z
-x,y,1/2-z
-x,-y,-z
x,-y,1/2+z
1/2+x,1/2+y,z
1/2-x,1/2+y,1/2-z
1/2-x,1/2-y,-z
1/2+x,1/2-y,1/2+z
loop_
_atom_site_type_symbol
_atom_site_label
_atom_site_fract_x
_atom_site_fract_y
_atom_site_fract_z
Si Si1 0.184979 0.429912 0.853141
Si Si2 0.647410 0.461195 0.342354
Si Si3 0.102868 0.716128 0.582922
Si Si4 0.345022 0.382927 0.908968
Si Si5 0.967513 0.915785 0.488623
Si Si6 0.293542 0.906660 0.119398
O O1 0.500000 0.408752 0.750000
O O2 0.197144 0.402603 0.900493
O O3 0.173666 0.520030 0.858562
O O4 0.881071 0.398902 0.911396
O O5 0.580573 0.550306 0.356602
O O6 0.524248 0.428023 0.420941
O O7 0.477447 0.422985 0.344356
O O8 0.000000 0.449075 0.250000
O O9 0.250000 0.750000 0.500000
O O10 0.053100 0.796177 0.620190
O O11 0.322854 0.652347 0.547792
O O12 0.814323 0.667906 0.643577
O O13 0.089176 0.398105 0.012140
O O14 0.000000 0.000000 0.500000
#
# Coordination Sequence:
#
# PCOD9308843 Si02
#       6
#     8   8   8   8   8   8
#     4  11  22  38  67  96 127 165 213 263 308 375
#     4  11  23  40  68  94 122 167 218 261 307 375
#     4  10  22  40  69  91 123 171 207 259 331 371
#     4  10  20  43  64  93 125 167 207 263 328 366
#     4  12  22  40  68  95 125 166 221 257 306 381
#     4  10  19  43  65  89 125 163 211 264 313 369
#
# _framework density 9.8765429999999999
#
# number of rings (size 3 to 8) (size 9 to 14) (size 15 to 20)
#    0.000    1.333    5.000    2.000    4.667    0.667 
#    0.000    3.333    3.667    0.000    0.000    0.000 
#    0.000    0.000    0.000    0.000    0.000    0.000 
#
# Total GULP energy -133774.297629 kJ/mol
# GULP energy per Si atom -5573.929068 kJ/mol
# Density = 0.985406 g / cm^3
# Si number density = 9.876543 Si / 1000 Ang^3
#
#
#
# Elastic Constant Matrix: (Units=GPa)
#
#
# Indices 1 2 3 4 5 6 
#
# 1 87.7352 47.4761 28.1189 -0.0684 -27.6024 -0.0464
# 2 47.4761 150.9224 11.7955 -0.1081 -19.5447 -0.0400
# 3 28.1189 11.7955 96.9661 0.2075 -29.8422 0.1168
# 4 -0.0684 -0.1081 0.2075 13.6242 -0.1197 -11.5072
# 5 -27.6024 -19.5447 -29.8422 -0.1197 31.7398 -0.0677
# 6 -0.0464 -0.0400 0.1168 -11.5072 -0.0677 31.4501
#
#
#
# Elastic Compliance Matrix: (Units=1/GPa)
#
#
# Indices 1 2 3 4 5 6 
#
# 1 0.017591 -0.003904 -0.000927 0.000318 0.012024 0.000167
# 2 -0.003904 0.008099 0.000896 0.000084 0.002436 0.000037
# 3 -0.000927 0.000896 0.014627 -0.000178 0.013498 -0.000091
# 4 0.000318 0.000084 -0.000178 0.106245 0.000644 0.038876
# 5 0.012024 0.002436 0.013498 0.000644 0.056157 0.000327
# 6 0.000167 0.000037 -0.000091 0.038876 0.000327 0.046022
#
#
# Mechanical properties :
#
#
# Convention : Reuss Voigt Hill
#
# Bulk Modulus (GPa) = 30.81778 56.71165 43.76472
# Shear Modulus (GPa) = 18.69683 31.91170 25.30427
#
# Velocity S-wave (km/s) = 3.07991 4.02373 3.58303
# Velocity P-wave (km/s) = 5.31819 7.09646 6.27068
#
# Compressibility (1/GPa) = 0.03244880
#
# Stress axis : x y z
#
# Youngs Moduli (GPa) = 56.84876 123.46670 68.36623
#
# Poissons Ratio (x) = 0.48197 0.06334
# Poissons Ratio (y) = 0.22192 -0.06126
# Poissons Ratio (z) = 0.05267 -0.11064
#
# Static dielectric constant tensor:
#      x y z
#    x 1.747250 -0.000010 0.027200 
#    y -0.000010 1.703750 -0.000040 
#    z 0.027200 -0.000040 1.764650 
# 
# From -- ./inp_files/308720.got.cif
#   From: 2010.05.17/outbox.ucp.g08.bks.cvg/sg15_155_cif.got.tgz:308720.got - 2010.06.11 12:40:34.
