data_PCOD9308376
_publ_section_title
;
Structure prediction by ZEFSAII (Michael W. Deem and Ramdas Pophale) SiO2 
 PCOD9308376
Probable space group: C 2/C
;
_chemical_formula_sum "Si O2"
_cell_formula_units_Z 36
_cell_length_a 13.874272
_cell_length_b 7.132784
_cell_length_c 17.648994
_cell_angle_alpha 90.000000
_cell_angle_beta 130.747517
_cell_angle_gamma 90.000000
_cell_volume 1323.199541
_symmetry_space_group_name_H-M "C 2/C"
_symmetry_group_IT_number 15
_symmetry_cell_setting 'monoclinic'
loop_
_space_group_symop_operation_xyz
x,y,z
-x,y,1/2-z
-x,-y,-z
x,-y,1/2+z
1/2+x,1/2+y,z
1/2-x,1/2+y,1/2-z
1/2-x,1/2-y,-z
1/2+x,1/2-y,1/2+z
loop_
_atom_site_type_symbol
_atom_site_label
_atom_site_fract_x
_atom_site_fract_y
_atom_site_fract_z
Si Si1 0.627787 0.365502 0.112843
Si Si2 0.748447 0.729185 0.823702
Si Si3 0.000000 0.989475 0.250000
Si Si4 0.381841 0.172041 0.030838
Si Si5 0.400495 0.233310 0.570436
O O1 0.730962 0.276636 0.223994
O O2 0.695740 0.564579 0.133237
O O3 0.493863 0.323148 0.086607
O O4 0.586412 0.294168 0.009496
O O5 0.617585 0.646457 0.790095
O O6 0.846296 0.610764 0.926018
O O7 0.966794 0.133633 0.164975
O O8 0.431732 0.985638 0.097557
O O9 0.250000 0.250000 0.000000
O O10 0.250000 0.250000 0.500000
#
# Coordination Sequence:
#
# PCOD9308376 Si02
#       5
#     8   8   4   8   8
#     4  12  30  53  87 126 174 234 289 369 439 525
#     4  12  28  51  84 125 173 228 303 358 442 532
#     4  12  30  54  86 126 176 240 300 368 448 524
#     4  12  27  54  88 126 176 225 291 370 447 527
#     4  12  28  52  86 125 176 227 299 365 446 529
#
# _framework density 27.206780999999999
#
# number of rings (size 3 to 8) (size 9 to 14) (size 15 to 20)
#    0.000    0.000    2.222    5.333    6.222    3.556 
#    0.000    2.222    0.000    0.000    0.000    0.000 
#    0.000    0.000    0.000    0.000    0.000    0.000 
#
# Total GULP energy -100656.129914 kJ/mol
# GULP energy per Si atom -5592.007217 kJ/mol
# Density = 2.714486 g / cm^3
# Si number density = 27.206781 Si / 1000 Ang^3
#
#
#
# Elastic Constant Matrix: (Units=GPa)
#
#
# Indices 1 2 3 4 5 6 
#
# 1 178.6910 99.8025 48.1502 0.0000 12.5005 0.0000
# 2 99.8025 217.4785 77.3211 0.0000 -0.7882 0.0000
# 3 48.1502 77.3211 215.8825 0.0000 -1.6108 0.0000
# 4 0.0000 0.0000 0.0000 54.7477 0.0000 4.3666
# 5 12.5005 -0.7882 -1.6108 0.0000 38.0339 0.0000
# 6 0.0000 0.0000 0.0000 4.3666 0.0000 34.0150
#
#
#
# Elastic Compliance Matrix: (Units=1/GPa)
#
#
# Indices 1 2 3 4 5 6 
#
# 1 0.007835 -0.003411 -0.000546 0.000000 -0.002669 0.000000
# 2 -0.003411 0.006754 -0.001649 0.000000 0.001191 0.000000
# 3 -0.000546 -0.001649 0.005347 0.000000 0.000372 0.000000
# 4 0.000000 0.000000 0.000000 0.018455 0.000000 -0.002369
# 5 -0.002669 0.001191 0.000372 0.000000 0.027210 0.000000
# 6 0.000000 0.000000 0.000000 -0.002369 0.000000 0.029703
#
#
# Mechanical properties :
#
#
# Convention : Reuss Voigt Hill
#
# Bulk Modulus (GPa) = 114.62360 118.06660 116.34510
# Shear Modulus (GPa) = 45.69318 51.14453 48.41886
#
# Velocity S-wave (km/s) = 4.10259 4.34042 4.22318
# Velocity P-wave (km/s) = 8.04137 8.28307 8.16311
#
# Compressibility (1/GPa) = 0.00872421
#
# Stress axis : x y z
#
# Youngs Moduli (GPa) = 127.62733 148.05180 187.00714
#
# Poissons Ratio (x) = 0.50506 0.10204
# Poissons Ratio (y) = 0.43538 0.30845
# Poissons Ratio (z) = 0.06964 0.24420
#
# Static dielectric constant tensor:
#      x y z
#    x 2.447150 0.000000 -0.189630 
#    y 0.000000 2.222960 0.000000 
#    z -0.189630 0.000000 2.202080 
# 
# From -- ./inp_files/158915.got.cif
#   From: 2010.05.17/outbox.cif.g08.bks.cpg/sg15_80_cif.got.tgz:158915.got - 2010.06.03 18:47:42.
