data_PCOD9308244
_publ_section_title
;
Structure prediction by ZEFSAII (Michael W. Deem and Ramdas Pophale) SiO2 
 PCOD9308244
Probable space group: C 2/C
;
_chemical_formula_sum "Si O2"
_cell_formula_units_Z 36
_cell_length_a 15.013095
_cell_length_b 8.793974
_cell_length_c 23.275781
_cell_angle_alpha 90.000000
_cell_angle_beta 27.322322
_cell_angle_gamma 90.000000
_cell_volume 1410.484463
_symmetry_space_group_name_H-M "C 2/C"
_symmetry_group_IT_number 15
_symmetry_cell_setting 'monoclinic'
loop_
_space_group_symop_operation_xyz
x,y,z
-x,y,1/2-z
-x,-y,-z
x,-y,1/2+z
1/2+x,1/2+y,z
1/2-x,1/2+y,1/2-z
1/2-x,1/2-y,-z
1/2+x,1/2-y,1/2+z
loop_
_atom_site_type_symbol
_atom_site_label
_atom_site_fract_x
_atom_site_fract_y
_atom_site_fract_z
Si Si1 0.500000 0.568827 0.250000
Si Si2 0.970019 0.027165 0.949907
Si Si3 0.442712 0.959886 0.844595
Si Si4 0.093570 0.681501 0.526405
Si Si5 0.816898 0.162905 0.767168
O O1 0.304337 0.657989 0.378436
O O2 0.560586 0.456328 0.266617
O O3 0.945673 0.858167 0.937860
O O4 0.143029 0.119842 0.822058
O O5 0.770200 0.110268 0.046689
O O6 0.000000 0.000000 0.000000
O O7 0.500000 0.029508 0.750000
O O8 0.425277 0.076123 0.906840
O O9 0.902753 0.670959 0.229643
O O10 0.910387 0.645226 0.590325
#
# Coordination Sequence:
#
# PCOD9308244 Si02
#       5
#     4   8   8   8   8
#     4  12  28  48  80 116 170 206 272 328 406 480
#     4  12  28  50  79 118 160 211 265 334 403 482
#     4  12  26  50  82 116 159 207 269 333 404 476
#     4  12  28  50  78 120 160 212 268 326 409 474
#     4  12  26  50  80 118 156 213 265 337 404 478
#
# _framework density 25.523147000000002
#
# number of rings (size 3 to 8) (size 9 to 14) (size 15 to 20)
#    0.000    0.000    3.333    6.000    1.556    3.556 
#    0.000    0.000    0.000    0.000    0.000    0.000 
#    0.000    0.000    0.000    0.000    0.000    0.000 
#
# Total GULP energy -100944.746554 kJ/mol
# GULP energy per Si atom -5608.041475 kJ/mol
# Density = 2.546506 g / cm^3
# Si number density = 25.523147 Si / 1000 Ang^3
#
#
#
# Elastic Constant Matrix: (Units=GPa)
#
#
# Indices 1 2 3 4 5 6 
#
# 1 138.1630 53.2144 60.6297 -0.0010 -21.9158 0.0014
# 2 53.2144 129.8202 68.0266 -0.0013 9.7628 0.0011
# 3 60.6297 68.0266 172.4165 -0.0055 -23.8133 0.0029
# 4 -0.0010 -0.0013 -0.0055 17.9131 0.0007 -9.1185
# 5 -21.9158 9.7628 -23.8133 0.0007 63.2883 -0.0010
# 6 0.0014 0.0011 0.0029 -9.1185 -0.0010 30.3059
#
#
#
# Elastic Compliance Matrix: (Units=1/GPa)
#
#
# Indices 1 2 3 4 5 6 
#
# 1 0.009792 -0.003399 -0.001647 0.000000 0.003295 0.000000
# 2 -0.003399 0.011503 -0.003957 0.000000 -0.004440 0.000000
# 3 -0.001647 -0.003957 0.008381 0.000002 0.003194 0.000000
# 4 0.000000 0.000000 0.000002 0.065922 0.000000 0.019835
# 5 0.003295 -0.004440 0.003194 0.000000 0.018828 0.000000
# 6 0.000000 0.000000 0.000000 0.019835 0.000000 0.038965
#
#
# Mechanical properties :
#
#
# Convention : Reuss Voigt Hill
#
# Bulk Modulus (GPa) = 85.67756 89.34903 87.51329
# Shear Modulus (GPa) = 28.52448 39.53673 34.03061
#
# Velocity S-wave (km/s) = 3.34667 3.94007 3.65543
# Velocity P-wave (km/s) = 6.96958 7.46873 7.22347
#
# Compressibility (1/GPa) = 0.01167167
#
# Stress axis : x y z
#
# Youngs Moduli (GPa) = 102.11920 86.93118 119.31106
#
# Poissons Ratio (x) = 0.29544 0.19656
# Poissons Ratio (y) = 0.34706 0.47209
# Poissons Ratio (z) = 0.16824 0.34397
#
# Static dielectric constant tensor:
#      x y z
#    x 2.044520 0.000000 -0.020220 
#    y 0.000000 1.966920 0.000000 
#    z -0.020220 0.000000 2.060530 
# 
# From -- ./inp_files/243561.got.cif
#   From: 2010.05.17/outbox.cif.g08.bks.cpg/sg15_122_cif.got.tgz:243561.got - 2010.06.03 18:47:42.
