data_PCOD9308722
_publ_section_title
;
Structure prediction by ZEFSAII (Michael W. Deem and Ramdas Pophale) SiO2 
 PCOD9308722
Probable space group: C 2/C
;
_chemical_formula_sum "Si O2"
_cell_formula_units_Z 28
_cell_length_a 24.000000
_cell_length_b 18.000000
_cell_length_c 21.000000
_cell_angle_alpha 90.000000
_cell_angle_beta 20.000000
_cell_angle_gamma 90.000000
_cell_volume 3102.806740
_symmetry_space_group_name_H-M "C 2/C"
_symmetry_group_IT_number 15
_symmetry_cell_setting 'monoclinic'
loop_
_space_group_symop_operation_xyz
x,y,z
-x,y,1/2-z
-x,-y,-z
x,-y,1/2+z
1/2+x,1/2+y,z
1/2-x,1/2+y,1/2-z
1/2-x,1/2-y,-z
1/2+x,1/2-y,1/2+z
loop_
_atom_site_type_symbol
_atom_site_label
_atom_site_fract_x
_atom_site_fract_y
_atom_site_fract_z
Si Si1 0.146435 0.859463 0.792030
Si Si2 0.280235 0.480132 0.330622
Si Si3 0.334931 0.951953 0.186457
Si Si4 0.186082 0.724796 0.202535
Si Si5 0.591696 0.155186 0.084267
Si Si6 0.795595 0.206330 0.673509
Si Si7 0.631789 0.579001 0.453207
O O1 0.248774 0.782539 0.687195
O O2 0.135135 0.893591 0.875753
O O3 0.213170 0.929187 0.678096
O O4 0.964032 0.832424 0.971055
O O5 0.258893 0.458012 0.279632
O O6 0.145094 0.429664 0.511168
O O7 0.453552 0.446755 0.164894
O O8 0.336185 0.861923 0.194492
O O9 0.239296 0.003446 0.339774
O O10 0.500000 0.000000 0.000000
O O11 0.178065 0.764825 0.281115
O O12 0.300914 0.651698 0.083438
O O13 0.020068 0.690455 0.352333
O O14 0.254433 0.788921 0.083027
O O15 0.500000 0.158338 0.250000
#
# Coordination Sequence:
#
# PCOD9308722 Si02
#       7
#     8   8   8   8   8   8   8
#     4  10  20  31  49  78 111 146 175 215 267 337
#     4  11  20  38  50  73 114 147 183 233 276 315
#     4  11  20  31  52  81 114 147 185 213 263 338
#     4  11  22  36  55  81 113 145 183 227 282 328
#     4  12  24  39  58  78 104 147 196 240 278 323
#     4  11  20  33  53  81 116 147 177 213 273 339
#     4  10  19  33  54  75 111 153 174 215 272 334
#
# _framework density 9.0240880000000008
#
# number of rings (size 3 to 8) (size 9 to 14) (size 15 to 20)
#    0.000    1.143    4.286    4.714    6.000    0.000 
#    0.000    0.000    0.000    0.000    0.000    1.000 
#    0.000    0.000    0.000    0.000    0.000    0.000 
#
# Total GULP energy -156093.722605 kJ/mol
# GULP energy per Si atom -5574.775807 kJ/mol
# Density = 0.900355 g / cm^3
# Si number density = 9.024088 Si / 1000 Ang^3
#
#
#
# Elastic Constant Matrix: (Units=GPa)
#
#
# Indices 1 2 3 4 5 6 
#
# 1 16.7802 24.7972 15.5082 0.0085 -1.8537 -0.0034
# 2 24.7972 188.6884 52.2274 0.0507 -2.9104 -0.0223
# 3 15.5082 52.2274 69.5993 0.0238 -5.7992 -0.0222
# 4 0.0085 0.0507 0.0238 43.2515 -0.0137 -7.2680
# 5 -1.8537 -2.9104 -5.7992 -0.0137 23.5205 0.0048
# 6 -0.0034 -0.0223 -0.0222 -7.2680 0.0048 23.0632
#
#
#
# Elastic Compliance Matrix: (Units=1/GPa)
#
#
# Indices 1 2 3 4 5 6 
#
# 1 0.082334 -0.007271 -0.012684 -0.000001 0.002462 -0.000008
# 2 -0.007271 0.007335 -0.003937 -0.000005 -0.000636 0.000001
# 3 -0.012684 -0.003937 0.020445 -0.000001 0.003554 0.000013
# 4 -0.000001 -0.000005 -0.000001 0.024413 0.000012 0.007693
# 5 0.002462 -0.000636 0.003554 0.000012 0.043508 -0.000002
# 6 -0.000008 0.000001 0.000013 0.007693 -0.000002 0.045784
#
#
# Mechanical properties :
#
#
# Convention : Reuss Voigt Hill
#
# Bulk Modulus (GPa) = 16.04396 51.12594 33.58495
# Shear Modulus (GPa) = 17.10098 30.13605 23.61852
#
# Velocity S-wave (km/s) = 3.08152 4.09070 3.62143
# Velocity P-wave (km/s) = 4.64433 7.12044 6.01126
#
# Compressibility (1/GPa) = 0.06232876
#
# Stress axis : x y z
#
# Youngs Moduli (GPa) = 12.14563 136.32674 48.91195
#
# Poissons Ratio (x) = 0.99128 0.62041
# Poissons Ratio (y) = 0.08832 0.19258
# Poissons Ratio (z) = 0.15406 0.53675
#
# Static dielectric constant tensor:
#      x y z
#    x 1.617050 -0.000010 -0.061870 
#    y -0.000010 1.651370 0.000010 
#    z -0.061870 0.000010 1.721220 
# 
# From -- ./inp_files/67176.got.cif
#   From: 2010.05.17/outbox.ucp.g08.bks.cvg/sg15_34_cif.got.tgz:67176.got - 2010.06.11 12:40:34.
