data_PCOD9308555
_publ_section_title
;
Structure prediction by ZEFSAII (Michael W. Deem and Ramdas Pophale) SiO2 
 PCOD9308555
Probable space group: C 2/C
;
_chemical_formula_sum "Si O2"
_cell_formula_units_Z 24
_cell_length_a 11.185863
_cell_length_b 16.989801
_cell_length_c 8.615181
_cell_angle_alpha 90.000000
_cell_angle_beta 31.068798
_cell_angle_gamma 90.000000
_cell_volume 844.944610
_symmetry_space_group_name_H-M "C 2/C"
_symmetry_group_IT_number 15
_symmetry_cell_setting 'monoclinic'
loop_
_space_group_symop_operation_xyz
x,y,z
-x,y,1/2-z
-x,-y,-z
x,-y,1/2+z
1/2+x,1/2+y,z
1/2-x,1/2+y,1/2-z
1/2-x,1/2-y,-z
1/2+x,1/2-y,1/2+z
loop_
_atom_site_type_symbol
_atom_site_label
_atom_site_fract_x
_atom_site_fract_y
_atom_site_fract_z
Si Si1 0.825708 0.975701 0.330838
Si Si2 0.586848 0.748226 0.887323
Si Si3 0.677923 0.112300 0.727853
O O1 0.633671 0.931149 0.444070
O O2 0.000000 0.928262 0.250000
O O3 0.000000 0.000000 0.000000
O O4 0.265462 0.048946 0.966739
O O5 0.969043 0.674217 0.948074
O O6 0.355360 0.743845 0.040719
O O7 0.606543 0.669849 0.970409
#
# Coordination Sequence:
#
# PCOD9308555 Si02
#       3
#     8   8   8
#     4   9  18  36  64  98 138 179 225 287 351 414
#     4   8  18  38  72 104 133 182 239 288 339 424
#     4   9  18  38  70 100 136 181 235 287 347 416
#
# _framework density 28.404229999999998
#
# number of rings (size 3 to 8) (size 9 to 14) (size 15 to 20)
#    2.000    1.333    0.000    0.000    0.000    0.000 
#    0.000   20.000    0.000   32.000    0.000    0.000 
#    0.000    0.000    0.000    0.000    0.000    0.000 
#
# Total GULP energy -66887.349355 kJ/mol
# GULP energy per Si atom -5573.945780 kJ/mol
# Density = 2.833958 g / cm^3
# Si number density = 28.404230 Si / 1000 Ang^3
#
#
#
# Elastic Constant Matrix: (Units=GPa)
#
#
# Indices 1 2 3 4 5 6 
#
# 1 155.1431 78.6476 83.3473 -0.0046 8.9406 -0.0002
# 2 78.6476 220.0828 61.1941 -0.0054 22.9707 0.0023
# 3 83.3473 61.1941 182.2960 -0.0239 -28.7509 0.0041
# 4 -0.0046 -0.0054 -0.0239 54.5142 0.0138 -21.6727
# 5 8.9406 22.9707 -28.7509 0.0138 61.6515 -0.0005
# 6 -0.0002 0.0023 0.0041 -21.6727 -0.0005 -10.5015
#
#
#
# Elastic Compliance Matrix: (Units=1/GPa)
#
#
# Indices 1 2 3 4 5 6 
#
# 1 0.009951 -0.002093 -0.004265 -0.000001 -0.002652 -0.000001
# 2 -0.002093 0.005968 -0.001456 0.000000 -0.002599 0.000000
# 3 -0.004265 -0.001456 0.008751 0.000002 0.005242 -0.000001
# 4 -0.000001 0.000000 0.000002 0.010076 -0.000002 -0.020795
# 5 -0.002652 -0.002599 0.005242 -0.000002 0.020018 0.000004
# 6 -0.000001 0.000000 -0.000001 -0.020795 0.000004 -0.052307
#
#
# Mechanical properties :
#
#
# Convention : Reuss Voigt Hill
#
# Bulk Modulus (GPa) = 110.61035 111.54444 111.07739
# Shear Modulus (GPa) = 236.95848 43.42169 140.19009
#
# Velocity S-wave (km/s) = 9.14356 3.91411 7.03296
# Velocity P-wave (km/s) = 12.26781 7.73192 10.25382
#
# Compressibility (1/GPa) = 0.00904075
#
# Stress axis : x y z
#
# Youngs Moduli (GPa) = 100.49101 167.56115 114.26773
#
# Poissons Ratio (x) = 0.35075 0.48739
# Poissons Ratio (y) = 0.21035 0.16640
# Poissons Ratio (z) = 0.42863 0.24401
#
# Static dielectric constant tensor:
#      x y z
#    x 2.458190 0.000000 -0.114590 
#    y 0.000000 2.249850 -0.000010 
#    z -0.114590 -0.000010 2.302320 
# 
# From -- ./inp_files/88039.got.cif
#   From: 2010.05.17/outbox.cif.g08.bks.cpg/sg15_45_cif.got.tgz:88039.got - 2010.06.03 18:47:42.
