data_PCOD9308541
_publ_section_title
;
Structure prediction by ZEFSAII (Michael W. Deem and Ramdas Pophale) SiO2 
 PCOD9308541
Probable space group: C 2/C
;
_chemical_formula_sum "Si O2"
_cell_formula_units_Z 24
_cell_length_a 9.541107
_cell_length_b 9.629965
_cell_length_c 12.565369
_cell_angle_alpha 90.000000
_cell_angle_beta 48.324690
_cell_angle_gamma 90.000000
_cell_volume 862.334153
_symmetry_space_group_name_H-M "C 2/C"
_symmetry_group_IT_number 15
_symmetry_cell_setting 'monoclinic'
loop_
_space_group_symop_operation_xyz
x,y,z
-x,y,1/2-z
-x,-y,-z
x,-y,1/2+z
1/2+x,1/2+y,z
1/2-x,1/2+y,1/2-z
1/2-x,1/2-y,-z
1/2+x,1/2-y,1/2+z
loop_
_atom_site_type_symbol
_atom_site_label
_atom_site_fract_x
_atom_site_fract_y
_atom_site_fract_z
Si Si1 0.218400 0.636023 0.103999
Si Si2 0.674677 0.430234 0.734093
Si Si3 0.218129 0.653435 0.657925
O O1 0.355664 0.647843 0.136276
O O2 0.256488 0.473632 0.056658
O O3 0.000000 0.641787 0.250000
O O4 0.250000 0.750000 0.000000
O O5 0.500000 0.467092 0.750000
O O6 0.753816 0.572633 0.743677
O O7 0.800934 0.308885 0.615980
O O8 0.000000 0.684942 0.750000
#
# Coordination Sequence:
#
# PCOD9308541 Si02
#       3
#     8   8   8
#     4   9  19  38  61  81 120 158 191 240 303 349
#     4   9  17  33  59  84 114 150 200 238 288 352
#     4   8  17  33  56  79 118 149 193 231 303 338
#
# _framework density 27.831440000000001
#
# number of rings (size 3 to 8) (size 9 to 14) (size 15 to 20)
#    2.000    1.333    0.000    0.000    0.000    2.667 
#    0.000   18.333    0.000    0.000    0.000    0.000 
#    0.000    0.000    0.000    0.000    0.000    0.000 
#
# Total GULP energy -66811.917788 kJ/mol
# GULP energy per Si atom -5567.659816 kJ/mol
# Density = 2.776809 g / cm^3
# Si number density = 27.831440 Si / 1000 Ang^3
#
#
#
# Elastic Constant Matrix: (Units=GPa)
#
#
# Indices 1 2 3 4 5 6 
#
# 1 209.1997 35.1633 43.2891 0.0000 28.3524 0.0000
# 2 35.1633 201.8753 32.8464 0.0000 22.6915 0.0000
# 3 43.2891 32.8464 90.6769 0.0000 -0.2995 0.0000
# 4 0.0000 0.0000 0.0000 55.3922 0.0000 20.3404
# 5 28.3524 22.6915 -0.2995 0.0000 29.9518 0.0000
# 6 0.0000 0.0000 0.0000 20.3404 0.0000 40.8596
#
#
#
# Elastic Compliance Matrix: (Units=1/GPa)
#
#
# Indices 1 2 3 4 5 6 
#
# 1 0.006196 0.000079 -0.003006 0.000000 -0.005955 0.000000
# 2 0.000079 0.005794 -0.002151 0.000000 -0.004486 0.000000
# 3 -0.003006 -0.002151 0.013258 0.000000 0.004608 0.000000
# 4 0.000000 0.000000 0.000000 0.022091 0.000000 -0.010997
# 5 -0.005955 -0.004486 0.004608 0.000000 0.042469 0.000000
# 6 0.000000 0.000000 0.000000 -0.010997 0.000000 0.029949
#
#
# Mechanical properties :
#
#
# Convention : Reuss Voigt Hill
#
# Bulk Modulus (GPa) = 66.26494 80.48328 73.37411
# Shear Modulus (GPa) = 37.05223 51.27092 44.16158
#
# Velocity S-wave (km/s) = 3.65267 4.29674 3.98773
# Velocity P-wave (km/s) = 6.45371 7.32098 6.90099
#
# Compressibility (1/GPa) = 0.01509094
#
# Stress axis : x y z
#
# Youngs Moduli (GPa) = 161.39438 172.59051 75.42626
#
# Poissons Ratio (x) = -0.01369 0.22676
# Poissons Ratio (y) = -0.01280 0.16228
# Poissons Ratio (z) = 0.48521 0.37133
#
# Static dielectric constant tensor:
#      x y z
#    x 2.119560 0.000000 0.055600 
#    y 0.000000 2.215270 0.000000 
#    z 0.055600 0.000000 2.520040 
# 
# From -- ./inp_files/74780.got.cif
#   From: 2010.05.17/outbox.cif.g08.bks.cpg/sg15_38_cif.got.tgz:74780.got - 2010.06.03 18:47:42.
