data_PCOD9308526
_publ_section_title
;
Structure prediction by ZEFSAII (Michael W. Deem and Ramdas Pophale) SiO2 
 PCOD9308526
Probable space group: C 2/C
;
_chemical_formula_sum "Si O2"
_cell_formula_units_Z 36
_cell_length_a 21.104699
_cell_length_b 8.513240
_cell_length_c 18.331781
_cell_angle_alpha 90.000000
_cell_angle_beta 24.638499
_cell_angle_gamma 90.000000
_cell_volume 1373.099128
_symmetry_space_group_name_H-M "C 2/C"
_symmetry_group_IT_number 15
_symmetry_cell_setting 'monoclinic'
loop_
_space_group_symop_operation_xyz
x,y,z
-x,y,1/2-z
-x,-y,-z
x,-y,1/2+z
1/2+x,1/2+y,z
1/2-x,1/2+y,1/2-z
1/2-x,1/2-y,-z
1/2+x,1/2-y,1/2+z
loop_
_atom_site_type_symbol
_atom_site_label
_atom_site_fract_x
_atom_site_fract_y
_atom_site_fract_z
Si Si1 0.500000 0.307269 0.250000
Si Si2 0.775926 0.049958 0.526615
Si Si3 0.067129 0.149128 0.523231
Si Si4 0.530092 0.170989 0.628174
Si Si5 0.327779 0.395342 0.738673
O O1 0.355272 0.425648 0.389656
O O2 0.467922 0.249537 0.366648
O O3 0.597254 0.057072 0.705457
O O4 0.866449 0.213740 0.430207
O O5 0.820412 0.981427 0.559098
O O6 0.151255 0.191963 0.360805
O O7 0.914139 0.062279 0.654724
O O8 0.420428 0.286055 0.697462
O O9 0.654497 0.093023 0.445441
#
# Coordination Sequence:
#
# PCOD9308526 Si02
#       5
#     4   8   8   8   8
#     4   8  16  30  42  62  86 118 140 166 212 254
#     4   8  16  27  40  64  87 113 139 168 211 255
#     4   8  16  30  45  59  86 117 142 167 211 250
#     4   9  16  27  42  69  87 106 142 176 215 243
#     4   9  16  29  45  64  85 113 140 178 208 249
#
# _framework density 26.218063000000001
#
# number of rings (size 3 to 8) (size 9 to 14) (size 15 to 20)
#    1.333    2.222    0.000    0.000    0.000    1.778 
#    0.000    0.000    0.000    1.333    0.000    0.000 
#    0.000    0.000    0.000    0.000    0.000    0.000 
#
# Total GULP energy -100315.383339 kJ/mol
# GULP energy per Si atom -5573.076852 kJ/mol
# Density = 2.615839 g / cm^3
# Si number density = 26.218063 Si / 1000 Ang^3
#
#
#
# Elastic Constant Matrix: (Units=GPa)
#
#
# Indices 1 2 3 4 5 6 
#
# 1 134.7657 13.3412 61.9499 -0.0001 15.0306 0.0000
# 2 13.3412 45.9444 31.0130 -0.0004 -5.8972 0.0002
# 3 61.9499 31.0130 204.4568 -0.0002 -27.8832 0.0002
# 4 -0.0001 -0.0004 -0.0002 13.5279 0.0002 6.8289
# 5 15.0306 -5.8972 -27.8832 0.0002 46.1902 -0.0001
# 6 0.0000 0.0002 0.0002 6.8289 -0.0001 10.7262
#
#
#
# Elastic Compliance Matrix: (Units=1/GPa)
#
#
# Indices 1 2 3 4 5 6 
#
# 1 0.009764 -0.001154 -0.003527 0.000000 -0.005454 0.000000
# 2 -0.001154 0.024423 -0.003137 0.000001 0.001600 -0.000001
# 3 -0.003527 -0.003137 0.007124 0.000000 0.005048 0.000000
# 4 0.000000 0.000001 0.000000 0.108930 0.000000 -0.069352
# 5 -0.005454 0.001600 0.005048 0.000000 0.026676 0.000000
# 6 0.000000 -0.000001 0.000000 -0.069352 0.000000 0.137383
#
#
# Mechanical properties :
#
#
# Convention : Reuss Voigt Hill
#
# Bulk Modulus (GPa) = 38.94843 66.41944 52.68394
# Shear Modulus (GPa) = 14.77121 32.67971 23.72546
#
# Velocity S-wave (km/s) = 2.37618 3.53435 3.01147
# Velocity P-wave (km/s) = 4.73457 6.48413 5.67715
#
# Compressibility (1/GPa) = 0.02567498
#
# Stress axis : x y z
#
# Youngs Moduli (GPa) = 102.41404 40.94444 140.37198
#
# Poissons Ratio (x) = 0.04727 0.49513
# Poissons Ratio (y) = 0.11823 0.44029
# Poissons Ratio (z) = 0.36124 0.12843
#
# Static dielectric constant tensor:
#      x y z
#    x 2.059760 0.000000 0.107160 
#    y 0.000000 2.180080 0.000000 
#    z 0.107160 0.000000 2.137110 
# 
# From -- ./inp_files/37524.got.cif
#   From: 2010.05.17/outbox.cif.g08.bks.cpg/sg15_19_cif.got.tgz:37524.got - 2010.06.03 18:47:42.
