data_PCOD9308905
_publ_section_title
;
Structure prediction by ZEFSAII (Michael W. Deem and Ramdas Pophale) SiO2 
 PCOD9308905
Probable space group: C 2/C
;
_chemical_formula_sum "Si O2"
_cell_formula_units_Z 28
_cell_length_a 9.000000
_cell_length_b 18.000000
_cell_length_c 27.000000
_cell_angle_alpha 90.000000
_cell_angle_beta 40.000000
_cell_angle_gamma 90.000000
_cell_volume 2811.553005
_symmetry_space_group_name_H-M "C 2/C"
_symmetry_group_IT_number 15
_symmetry_cell_setting 'monoclinic'
loop_
_space_group_symop_operation_xyz
x,y,z
-x,y,1/2-z
-x,-y,-z
x,-y,1/2+z
1/2+x,1/2+y,z
1/2-x,1/2+y,1/2-z
1/2-x,1/2-y,-z
1/2+x,1/2-y,1/2+z
loop_
_atom_site_type_symbol
_atom_site_label
_atom_site_fract_x
_atom_site_fract_y
_atom_site_fract_z
Si Si1 0.667298 0.273921 0.881560
Si Si2 0.803604 0.539387 0.869068
Si Si3 0.490786 0.886632 0.084128
Si Si4 0.811867 0.278469 0.728772
Si Si5 0.946358 0.070814 0.430085
Si Si6 0.500000 0.437614 0.250000
Si Si7 0.500000 0.161443 0.750000
Si Si8 0.251818 0.556509 0.246379
O O1 0.508311 0.201313 0.926459
O O2 0.743912 0.277848 0.804193
O O3 0.536656 0.350111 0.928748
O O4 0.913122 0.266323 0.846779
O O5 0.554983 0.499764 0.931137
O O6 0.832633 0.605238 0.822044
O O7 0.885206 0.579536 0.898599
O O8 0.988954 0.473812 0.808130
O O9 0.213153 0.898722 0.165738
O O10 0.666360 0.924466 0.999194
O O11 0.658721 0.215073 0.742684
O O12 0.758575 0.362777 0.725343
O O13 0.083679 0.065180 0.343149
O O14 0.368416 0.490812 0.246373
#
# Coordination Sequence:
#
# PCOD9308905 Si02
#       8
#     8   8   8   8   8   4   4   8
#     4  10  20  36  57  87 115 152 200 246 287 353
#     4  11  21  38  58  89 119 155 199 245 291 356
#     4  11  23  37  59  88 118 155 197 255 296 345
#     4  10  20  35  61  85 116 157 197 241 295 346
#     4  11  21  37  61  85 118 158 200 242 298 357
#     4  10  23  38  57  84 122 146 200 250 299 352
#     4  12  21  34  61  90 120 156 206 244 287 358
#     4  10  20  38  60  84 115 157 196 240 294 360
#
# _framework density 9.9589090000000002
#
# number of rings (size 3 to 8) (size 9 to 14) (size 15 to 20)
#    0.000    1.429    4.286    2.143    2.000    0.571 
#    0.000    0.000    0.000    0.857    0.000    0.000 
#    0.000    0.000    0.000    0.000    0.000    0.000 
#
# Total GULP energy -155967.811152 kJ/mol
# GULP energy per Si atom -5570.278970 kJ/mol
# Density = 0.993624 g / cm^3
# Si number density = 9.958909 Si / 1000 Ang^3
#
#
#
# Elastic Constant Matrix: (Units=GPa)
#
#
# Indices 1 2 3 4 5 6 
#
# 1 32.8578 26.9855 13.9395 -0.0095 -17.5185 0.0019
# 2 26.9855 131.4525 17.6040 -0.0095 -7.1450 0.0038
# 3 13.9395 17.6040 73.4577 -0.0205 -17.0124 0.0052
# 4 -0.0095 -0.0095 -0.0205 21.7048 0.0106 -10.8969
# 5 -17.5185 -7.1450 -17.0124 0.0106 29.1754 -0.0015
# 6 0.0019 0.0038 0.0052 -10.8969 -0.0015 19.3190
#
#
#
# Elastic Compliance Matrix: (Units=1/GPa)
#
#
# Indices 1 2 3 4 5 6 
#
# 1 0.054534 -0.009417 -0.001205 0.000005 0.029736 0.000002
# 2 -0.009417 0.009509 -0.001459 0.000000 -0.004177 -0.000001
# 3 -0.001205 -0.001459 0.016118 0.000012 0.008318 0.000003
# 4 0.000005 0.000000 0.000012 0.064274 -0.000011 0.036254
# 5 0.029736 -0.004177 0.008318 -0.000011 0.055958 -0.000006
# 6 0.000002 -0.000001 0.000003 0.036254 -0.000006 0.072211
#
#
# Mechanical properties :
#
#
# Convention : Reuss Voigt Hill
#
# Bulk Modulus (GPa) = 17.85775 39.42510 28.64142
# Shear Modulus (GPa) = 15.85121 25.98910 20.92016
#
# Velocity S-wave (km/s) = 2.82411 3.61614 3.24439
# Velocity P-wave (km/s) = 4.42937 6.10509 5.33345
#
# Compressibility (1/GPa) = 0.05599810
#
# Stress axis : x y z
#
# Youngs Moduli (GPa) = 18.33718 105.16390 62.04277
#
# Poissons Ratio (x) = 0.99038 0.07475
# Poissons Ratio (y) = 0.17269 0.09052
# Poissons Ratio (z) = 0.02209 0.15344
#
# Static dielectric constant tensor:
#      x y z
#    x 1.947660 0.000000 0.015480 
#    y 0.000000 1.711180 0.000000 
#    z 0.015480 0.000000 1.760600 
# 
# From -- ./inp_files/265189.got.cif
#   From: 2010.05.17/outbox.ucp.g08.bks.cvg/sg15_133_cif.got.tgz:265189.got - 2010.06.11 12:40:34.
