data_PCOD9308767
_publ_section_title
;
Structure prediction by ZEFSAII (Michael W. Deem and Ramdas Pophale) SiO2 
 PCOD9308767
Probable space group: C 2/C
;
_chemical_formula_sum "Si O2"
_cell_formula_units_Z 30
_cell_length_a 15.000000
_cell_length_b 15.000000
_cell_length_c 30.000000
_cell_angle_alpha 90.000000
_cell_angle_beta 30.000000
_cell_angle_gamma 90.000000
_cell_volume 3375.000000
_symmetry_space_group_name_H-M "C 2/C"
_symmetry_group_IT_number 15
_symmetry_cell_setting 'monoclinic'
loop_
_space_group_symop_operation_xyz
x,y,z
-x,y,1/2-z
-x,-y,-z
x,-y,1/2+z
1/2+x,1/2+y,z
1/2-x,1/2+y,1/2-z
1/2-x,1/2-y,-z
1/2+x,1/2-y,1/2+z
loop_
_atom_site_type_symbol
_atom_site_label
_atom_site_fract_x
_atom_site_fract_y
_atom_site_fract_z
Si Si1 0.500000 0.104093 0.750000
Si Si2 0.633771 0.748491 0.257283
Si Si3 0.755280 0.997141 0.078184
Si Si4 0.035421 0.165109 0.476466
Si Si5 0.823448 0.508205 0.992746
Si Si6 0.445418 0.836117 0.576292
Si Si7 0.877241 0.085422 0.341571
Si Si8 0.447127 0.788458 0.429237
O O1 0.376364 0.172832 0.775276
O O2 0.420910 0.038951 0.821588
O O3 0.823570 0.700312 0.169753
O O4 0.485331 0.673810 0.309326
O O5 0.576771 0.782196 0.330395
O O6 0.739048 0.002390 0.031564
O O7 0.810990 0.093949 0.074536
O O8 0.883220 0.911930 0.035301
O O9 0.019466 0.245591 0.520118
O O10 0.022761 0.224369 0.436063
O O11 0.924466 0.605783 0.950732
O O12 0.928426 0.418165 0.962548
O O13 0.666998 0.525040 0.096759
O O14 0.304923 0.880803 0.602484
O O15 0.000000 0.041727 0.250000
O O16 0.250000 0.750000 0.500000
#
# Coordination Sequence:
#
# PCOD9308767 Si02
#       8
#     4   8   8   8   8   8   8   8
#     4  12  18  38  64  90 116 158 212 260 304 356
#     4  11  19  36  64  91 120 157 210 264 304 357
#     4  11  24  38  64  89 121 165 206 258 305 377
#     4  11  22  41  61  88 122 164 205 246 317 369
#     4  12  23  37  62  97 124 162 210 258 320 377
#     4  11  22  37  62  91 128 161 201 260 323 370
#     4  10  19  35  61  89 118 158 209 258 310 364
#     4  12  20  37  65  92 118 157 210 257 298 367
#
# _framework density 8.8888890000000007
#
# number of rings (size 3 to 8) (size 9 to 14) (size 15 to 20)
#    0.000    0.800    8.667    0.400    0.000    1.600 
#    0.000    4.000    1.467    0.000    0.000    0.000 
#    0.000    0.000    0.000    0.000    0.000    0.000 
#
# Total GULP energy -167011.702789 kJ/mol
# GULP energy per Si atom -5567.056760 kJ/mol
# Density = 0.886866 g / cm^3
# Si number density = 8.888889 Si / 1000 Ang^3
#
#
#
# Elastic Constant Matrix: (Units=GPa)
#
#
# Indices 1 2 3 4 5 6 
#
# 1 68.0480 50.6352 39.5145 -0.0002 19.4378 0.0002
# 2 50.6352 150.5587 47.2108 -0.0003 3.3108 0.0001
# 3 39.5145 47.2108 87.1277 -0.0006 30.0013 0.0003
# 4 -0.0002 -0.0003 -0.0006 26.5784 -0.0002 1.1138
# 5 19.4378 3.3108 30.0013 -0.0002 32.3191 -0.0006
# 6 0.0002 0.0001 0.0003 1.1138 -0.0006 39.4399
#
#
#
# Elastic Compliance Matrix: (Units=1/GPa)
#
#
# Indices 1 2 3 4 5 6 
#
# 1 0.025321 -0.007046 -0.003925 0.000000 -0.010864 0.000000
# 2 -0.007046 0.010482 -0.005252 0.000000 0.008040 0.000000
# 3 -0.003925 -0.005252 0.022202 0.000000 -0.017711 0.000000
# 4 0.000000 0.000000 0.000000 0.037669 0.000000 -0.001064
# 5 -0.010864 0.008040 -0.017711 0.000000 0.053093 0.000001
# 6 0.000000 0.000000 0.000000 -0.001064 0.000001 0.025385
#
#
# Mechanical properties :
#
#
# Convention : Reuss Voigt Hill
#
# Bulk Modulus (GPa) = 39.12686 64.49504 51.81095
# Shear Modulus (GPa) = 23.24304 30.89241 27.06772
#
# Velocity S-wave (km/s) = 3.61975 4.17309 3.90623
# Velocity P-wave (km/s) = 6.28703 7.71860 7.03930
#
# Compressibility (1/GPa) = 0.02555789
#
# Stress axis : x y z
#
# Youngs Moduli (GPa) = 39.49304 95.40271 45.04063
#
# Poissons Ratio (x) = 0.67222 0.17678
# Poissons Ratio (y) = 0.27827 0.23657
# Poissons Ratio (z) = 0.15501 0.50110
#
# Static dielectric constant tensor:
#      x y z
#    x 1.628330 0.000000 0.001580 
#    y 0.000000 1.589210 0.000000 
#    z 0.001580 0.000000 1.673280 
# 
# From -- ./inp_files/313963.got.cif
#   From: 2010.05.17/outbox.ucp.g08.bks.cvg/sg15_157_cif.got.tgz:313963.got - 2010.06.11 12:40:34.
