data_PCOD9308721
_publ_section_title
;
Structure prediction by ZEFSAII (Michael W. Deem and Ramdas Pophale) SiO2 
 PCOD9308721
Probable space group: C 2/C
;
_chemical_formula_sum "Si O2"
_cell_formula_units_Z 24
_cell_length_a 12.000000
_cell_length_b 21.000000
_cell_length_c 15.000000
_cell_angle_alpha 90.000000
_cell_angle_beta 140.000000
_cell_angle_gamma 90.000000
_cell_volume 2429.737165
_symmetry_space_group_name_H-M "C 2/C"
_symmetry_group_IT_number 15
_symmetry_cell_setting 'monoclinic'
loop_
_space_group_symop_operation_xyz
x,y,z
-x,y,1/2-z
-x,-y,-z
x,-y,1/2+z
1/2+x,1/2+y,z
1/2-x,1/2+y,1/2-z
1/2-x,1/2-y,-z
1/2+x,1/2-y,1/2+z
loop_
_atom_site_type_symbol
_atom_site_label
_atom_site_fract_x
_atom_site_fract_y
_atom_site_fract_z
Si Si1 0.570510 0.198385 0.609726
Si Si2 0.796762 0.723499 0.125683
Si Si3 0.385377 0.104541 0.590786
Si Si4 0.938258 0.016521 0.109838
Si Si5 0.715097 0.300248 0.100268
Si Si6 0.559677 0.398503 0.522487
O O1 0.734886 0.219447 0.652824
O O2 0.504845 0.126091 0.581332
O O3 0.417556 0.243057 0.482262
O O4 0.621667 0.218436 0.741137
O O5 0.701034 0.657819 0.096758
O O6 0.000000 0.712512 0.250000
O O7 0.750000 0.750000 0.000000
O O8 0.500000 0.093978 0.750000
O O9 0.252714 0.047555 0.499527
O O10 0.269954 0.167983 0.541149
O O11 0.000000 0.010122 0.250000
O O12 0.050579 0.064120 0.112847
O O13 0.929698 0.950829 0.048885
O O14 0.620767 0.359619 0.091613
#
# Coordination Sequence:
#
# PCOD9308721 Si02
#       6
#     8   8   8   8   8   8
#     4  10  19  33  53  81 112 144 186 229 279 343
#     4  11  23  38  58  82 115 157 194 236 292 351
#     4   9  19  34  55  84 118 147 178 234 295 341
#     4  10  21  38  64  88 112 156 202 241 292 347
#     4   9  18  33  55  82 116 150 176 225 289 344
#     4   9  21  40  58  85 124 153 193 247 290 344
#
# _framework density 9.8776119999999992
#
# number of rings (size 3 to 8) (size 9 to 14) (size 15 to 20)
#    0.000    2.333    0.000    2.500    0.000    8.000 
#    0.000    3.333    0.000   18.000    0.000    0.000 
#    0.000    0.000    0.000    0.000    0.000    0.000 
#
# Total GULP energy -133627.817757 kJ/mol
# GULP energy per Si atom -5567.825740 kJ/mol
# Density = 0.985513 g / cm^3
# Si number density = 9.877612 Si / 1000 Ang^3
#
#
#
# Elastic Constant Matrix: (Units=GPa)
#
#
# Indices 1 2 3 4 5 6 
#
# 1 128.8584 63.4987 41.4841 0.0000 -2.1593 0.0000
# 2 63.4987 91.1330 35.9422 0.0000 -1.5879 0.0000
# 3 41.4841 35.9422 76.7961 0.0000 1.1823 0.0001
# 4 0.0000 0.0000 0.0000 12.0122 0.0000 3.1928
# 5 -2.1593 -1.5879 1.1823 0.0000 41.0307 0.0001
# 6 0.0000 0.0000 0.0001 3.1928 0.0001 40.3594
#
#
#
# Elastic Compliance Matrix: (Units=1/GPa)
#
#
# Indices 1 2 3 4 5 6 
#
# 1 0.012462 -0.007380 -0.003285 0.000000 0.000465 0.000000
# 2 -0.007380 0.017847 -0.004373 0.000000 0.000428 0.000000
# 3 -0.003285 -0.004373 0.016856 0.000000 -0.000828 0.000000
# 4 0.000000 0.000000 0.000000 0.085036 0.000000 -0.006727
# 5 0.000465 0.000428 -0.000828 0.000000 0.024437 0.000000
# 6 0.000000 0.000000 0.000000 -0.006727 0.000000 0.025310
#
#
# Mechanical properties :
#
#
# Convention : Reuss Voigt Hill
#
# Bulk Modulus (GPa) = 58.51693 64.29305 61.40499
# Shear Modulus (GPa) = 22.96524 29.07130 26.01827
#
# Velocity S-wave (km/s) = 3.41323 3.84027 3.63303
# Velocity P-wave (km/s) = 6.72449 7.23043 6.98204
#
# Compressibility (1/GPa) = 0.01708907
#
# Stress axis : x y z
#
# Youngs Moduli (GPa) = 80.24102 56.03174 59.32747
#
# Poissons Ratio (x) = 0.41349 0.19491
# Poissons Ratio (y) = 0.59215 0.25944
# Poissons Ratio (z) = 0.26362 0.24503
#
# Static dielectric constant tensor:
#      x y z
#    x 1.789470 0.000000 0.003790 
#    y 0.000000 1.685880 0.000000 
#    z 0.003790 0.000000 1.703260 
# 
# From -- ./inp_files/57962.got.cif
#   From: 2010.05.17/outbox.ucp.g08.bks.cvg/sg15_29_cif.got.tgz:57962.got - 2010.06.11 12:40:34.
