data_PCOD9308629
_publ_section_title
;
Structure prediction by ZEFSAII (Michael W. Deem and Ramdas Pophale) SiO2 
 PCOD9308629
Probable space group: C 2/C
;
_chemical_formula_sum "Si O2"
_cell_formula_units_Z 32
_cell_length_a 24.000000
_cell_length_b 15.000000
_cell_length_c 18.000000
_cell_angle_alpha 90.000000
_cell_angle_beta 30.000000
_cell_angle_gamma 90.000000
_cell_volume 3240.000000
_symmetry_space_group_name_H-M "C 2/C"
_symmetry_group_IT_number 15
_symmetry_cell_setting 'monoclinic'
loop_
_space_group_symop_operation_xyz
x,y,z
-x,y,1/2-z
-x,-y,-z
x,-y,1/2+z
1/2+x,1/2+y,z
1/2-x,1/2+y,1/2-z
1/2-x,1/2-y,-z
1/2+x,1/2-y,1/2+z
loop_
_atom_site_type_symbol
_atom_site_label
_atom_site_fract_x
_atom_site_fract_y
_atom_site_fract_z
Si Si1 0.340912 0.894047 0.115476
Si Si2 0.630240 0.142501 0.081714
Si Si3 0.058603 0.113829 0.103813
Si Si4 0.706696 0.475383 0.854215
Si Si5 0.249432 0.819212 0.914573
Si Si6 0.403933 0.379061 0.640687
Si Si7 0.304249 0.244699 0.130983
Si Si8 0.952120 0.725401 0.092078
O O1 0.254370 0.820832 0.249279
O O2 0.317190 0.979546 0.193463
O O3 0.330274 0.906209 0.039249
O O4 0.461334 0.850443 0.986071
O O5 0.500000 0.125881 0.250000
O O6 0.710525 0.126040 0.059619
O O7 0.652471 0.248236 0.040882
O O8 0.000000 0.107480 0.250000
O O9 0.967045 0.106122 0.144304
O O10 0.127574 0.205175 0.011656
O O11 0.147662 0.037514 0.982545
O O12 0.722630 0.382174 0.876595
O O13 0.629606 0.462984 0.870521
O O14 0.359517 0.765192 0.762126
O O15 0.290962 0.322453 0.784267
O O16 0.482671 0.316188 0.499449
O O17 0.393568 0.200371 0.082226
#
# Coordination Sequence:
#
# PCOD9308629 Si02
#       8
#     8   8   8   8   8   8   8   8
#     4  10  20  35  57  80 120 156 186 235 289 350
#     4  11  22  37  57  89 120 152 189 245 293 341
#     4  10  23  39  57  87 119 146 182 240 297 337
#     4  11  23  39  56  86 116 154 192 230 290 358
#     4  11  22  36  59  89 115 152 197 241 293 338
#     4  10  20  37  64  84 106 154 199 234 279 342
#     4   9  18  37  61  83 109 148 203 235 270 341
#     4  10  17  35  60  84 109 147 201 239 274 333
#
# _framework density 9.8765429999999999
#
# number of rings (size 3 to 8) (size 9 to 14) (size 15 to 20)
#    0.000    1.750    3.750    1.125    0.000    2.500 
#    2.250    0.000    0.000    0.750    0.000    0.000 
#    0.000    0.000    0.000    0.000    0.000    0.000 
#
# Total GULP energy -178523.097069 kJ/mol
# GULP energy per Si atom -5578.846783 kJ/mol
# Density = 0.985406 g / cm^3
# Si number density = 9.876543 Si / 1000 Ang^3
#
#
#
# Elastic Constant Matrix: (Units=GPa)
#
#
# Indices 1 2 3 4 5 6 
#
# 1 44.8870 7.8328 16.3896 0.0000 12.2306 0.0000
# 2 7.8328 19.8391 11.4337 0.0000 11.0839 0.0000
# 3 16.3896 11.4337 94.5086 0.0000 25.0825 0.0000
# 4 0.0000 0.0000 0.0000 15.4915 0.0000 6.2740
# 5 12.2306 11.0839 25.0825 0.0000 32.6819 0.0000
# 6 0.0000 0.0000 0.0000 6.2740 0.0000 20.8799
#
#
#
# Elastic Compliance Matrix: (Units=1/GPa)
#
#
# Indices 1 2 3 4 5 6 
#
# 1 0.025688 -0.005490 -0.002177 0.000000 -0.006081 0.000000
# 2 -0.005490 0.063806 -0.001971 0.000000 -0.018072 0.000000
# 3 -0.002177 -0.001971 0.013567 0.000000 -0.008929 0.000000
# 4 0.000000 0.000000 0.000000 0.073496 0.000000 -0.022084
# 5 -0.006081 -0.018072 -0.008929 0.000000 0.045856 0.000000
# 6 0.000000 0.000000 0.000000 -0.022084 0.000000 0.054529
#
#
# Mechanical properties :
#
#
# Convention : Reuss Voigt Hill
#
# Bulk Modulus (GPa) = 11.93532 25.61632 18.77582
# Shear Modulus (GPa) = 15.42522 22.04923 18.73722
#
# Velocity S-wave (km/s) = 2.79749 3.34465 3.08323
# Velocity P-wave (km/s) = 4.06079 5.28318 4.71179
#
# Compressibility (1/GPa) = 0.08378494
#
# Stress axis : x y z
#
# Youngs Moduli (GPa) = 38.92890 15.67249 73.70963
#
# Poissons Ratio (x) = 0.08605 0.16045
# Poissons Ratio (y) = 0.21373 0.14526
# Poissons Ratio (z) = 0.08474 0.03089
#
# Static dielectric constant tensor:
#      x y z
#    x 1.720630 0.000000 -0.017450 
#    y 0.000000 1.724580 0.000000 
#    z -0.017450 0.000000 1.687360 
# 
# From -- ./inp_files/219712.got.cif
#   From: 2010.05.17/outbox.ucp.g08.bks.cvg/sg15_110_cif.got.tgz:219712.got - 2010.06.11 12:40:34.
