data_PCOD9308989
_publ_section_title
;
Structure prediction by ZEFSAII (Michael W. Deem and Ramdas Pophale) SiO2 
 PCOD9308989
Probable space group: C 2/C
;
_chemical_formula_sum "Si O2"
_cell_formula_units_Z 32
_cell_length_a 12.000000
_cell_length_b 15.000000
_cell_length_c 27.000000
_cell_angle_alpha 90.000000
_cell_angle_beta 40.000000
_cell_angle_gamma 90.000000
_cell_volume 3123.947783
_symmetry_space_group_name_H-M "C 2/C"
_symmetry_group_IT_number 15
_symmetry_cell_setting 'monoclinic'
loop_
_space_group_symop_operation_xyz
x,y,z
-x,y,1/2-z
-x,-y,-z
x,-y,1/2+z
1/2+x,1/2+y,z
1/2-x,1/2+y,1/2-z
1/2-x,1/2-y,-z
1/2+x,1/2-y,1/2+z
loop_
_atom_site_type_symbol
_atom_site_label
_atom_site_fract_x
_atom_site_fract_y
_atom_site_fract_z
Si Si1 0.913680 0.791654 0.726791
Si Si2 0.015766 0.404405 0.185812
Si Si3 0.928544 0.093628 0.547150
Si Si4 0.006731 0.751124 0.954911
Si Si5 0.308716 0.632179 0.440716
Si Si6 0.047541 0.947733 0.114174
Si Si7 0.315263 0.627460 0.836868
Si Si8 0.765804 0.524426 0.211651
O O1 0.000000 0.777399 0.750000
O O2 0.908352 0.687847 0.709888
O O3 0.064911 0.841687 0.646340
O O4 0.761060 0.867386 0.781978
O O5 0.222407 0.393962 0.106133
O O6 0.000000 0.423289 0.250000
O O7 0.936126 0.485128 0.180741
O O8 0.028895 0.179858 0.491987
O O9 0.961001 0.091566 0.594803
O O10 0.000000 0.000000 0.500000
O O11 0.898542 0.812739 0.954100
O O12 0.180594 0.707440 0.875084
O O13 0.880739 0.667523 0.007116
O O14 0.326224 0.528196 0.444781
O O15 0.152877 0.885210 0.115503
O O16 0.891612 0.988843 0.200171
O O17 0.500000 0.649523 0.750000
O O18 0.256384 0.532793 0.831792
#
# Coordination Sequence:
#
# PCOD9308989 Si02
#       8
#     8   8   8   8   8   8   8   8
#     4  10  20  37  65  96 124 162 216 271 321 385
#     4  11  22  40  68  98 125 174 224 267 327 394
#     4  12  24  43  63  95 138 176 215 274 326 394
#     4  11  23  39  64  93 126 176 221 265 321 404
#     4  10  20  38  63  91 122 167 222 260 321 397
#     4  10  21  40  63  89 132 171 205 270 332 383
#     4  10  23  42  65  94 132 169 215 274 336 384
#     4  10  20  39  66  97 129 163 218 281 321 385
#
# _framework density 10.243449
#
# number of rings (size 3 to 8) (size 9 to 14) (size 15 to 20)
#    0.000    1.500    3.750    2.625    1.750    1.000 
#    0.000    6.875    0.000    0.750    0.000    0.000 
#    0.000    0.000    0.000    0.000    0.000    0.000 
#
# Total GULP energy -178432.559470 kJ/mol
# GULP energy per Si atom -5576.017483 kJ/mol
# Density = 1.022013 g / cm^3
# Si number density = 10.243449 Si / 1000 Ang^3
#
#
#
# Elastic Constant Matrix: (Units=GPa)
#
#
# Indices 1 2 3 4 5 6 
#
# 1 81.8108 31.2267 11.6830 0.0001 16.6626 0.0000
# 2 31.2267 104.5004 19.4185 -0.0001 -10.1953 0.0000
# 3 11.6830 19.4185 44.8575 -0.0004 3.1485 0.0002
# 4 0.0001 -0.0001 -0.0004 31.3183 -0.0001 -4.5525
# 5 16.6626 -10.1953 3.1485 -0.0001 17.7117 0.0000
# 6 0.0000 0.0000 0.0002 -4.5525 0.0000 20.6737
#
#
#
# Elastic Compliance Matrix: (Units=1/GPa)
#
#
# Indices 1 2 3 4 5 6 
#
# 1 0.020308 -0.008411 0.000033 0.000000 -0.023952 0.000000
# 2 -0.008411 0.014789 -0.005432 0.000000 0.017392 0.000000
# 3 0.000033 -0.005432 0.025171 0.000000 -0.007633 0.000000
# 4 0.000000 0.000000 0.000000 0.032986 0.000000 0.007264
# 5 -0.023952 0.017392 -0.007633 0.000000 0.090361 0.000000
# 6 0.000000 0.000000 0.000000 0.007264 0.000000 0.049970
#
#
# Mechanical properties :
#
#
# Convention : Reuss Voigt Hill
#
# Bulk Modulus (GPa) = 30.62991 39.53614 35.08302
# Shear Modulus (GPa) = 18.37642 25.19678 21.78660
#
# Velocity S-wave (km/s) = 2.99822 3.51079 3.26458
# Velocity P-wave (km/s) = 5.19319 5.98117 5.60105
#
# Compressibility (1/GPa) = 0.03264783
#
# Stress axis : x y z
#
# Youngs Moduli (GPa) = 49.24282 67.61796 39.72774
#
# Poissons Ratio (x) = 0.56876 -0.00133
# Poissons Ratio (y) = 0.41420 0.21580
# Poissons Ratio (z) = -0.00164 0.36730
#
# Static dielectric constant tensor:
#      x y z
#    x 2.449390 0.000000 0.659430 
#    y 0.000000 1.765580 0.000000 
#    z 0.659430 0.000000 2.317850 
# 
# From -- ./inp_files/293050.got.cif
#   From: 2010.05.17/outbox.ucp.g08.bks.cvg/sg15_147_cif.got.tgz:293050.got - 2010.06.11 12:40:34.
