data_PCOD9308341
_publ_section_title
;
Structure prediction by ZEFSAII (Michael W. Deem and Ramdas Pophale) SiO2 
 PCOD9308341
Probable space group: C 2/C
;
_chemical_formula_sum "Si O2"
_cell_formula_units_Z 40
_cell_length_a 14.263719
_cell_length_b 5.290565
_cell_length_c 25.882470
_cell_angle_alpha 90.000000
_cell_angle_beta 56.966246
_cell_angle_gamma 90.000000
_cell_volume 1637.441118
_symmetry_space_group_name_H-M "C 2/C"
_symmetry_group_IT_number 15
_symmetry_cell_setting 'monoclinic'
loop_
_space_group_symop_operation_xyz
x,y,z
-x,y,1/2-z
-x,-y,-z
x,-y,1/2+z
1/2+x,1/2+y,z
1/2-x,1/2+y,1/2-z
1/2-x,1/2-y,-z
1/2+x,1/2-y,1/2+z
loop_
_atom_site_type_symbol
_atom_site_label
_atom_site_fract_x
_atom_site_fract_y
_atom_site_fract_z
Si Si1 0.726321 0.281468 0.289357
Si Si2 0.416104 0.917290 0.312285
Si Si3 0.505378 0.577585 0.362401
Si Si4 0.551805 0.754854 0.458266
Si Si5 0.206129 0.763258 0.071511
O O1 0.737470 0.002264 0.262258
O O2 0.806975 0.320195 0.314476
O O3 0.597520 0.356626 0.339008
O O4 0.500000 0.078696 0.250000
O O5 0.504071 0.710827 0.307417
O O6 0.369899 0.055645 0.376964
O O7 0.529664 0.750007 0.404259
O O8 0.377394 0.495631 0.404876
O O9 0.500000 0.500000 0.500000
O O10 0.683486 0.773451 0.427564
O O11 0.500000 0.000000 0.500000
O O12 0.250000 0.750000 0.000000
#
# Coordination Sequence:
#
# PCOD9308341 Si02
#       5
#     8   8   8   8   8
#     4  12  28  52  81 116 165 215 271 340 416 486
#     4  12  27  50  81 120 160 217 272 339 410 493
#     4  12  28  48  83 114 165 211 275 336 409 489
#     4  12  28  50  79 117 162 211 271 337 409 488
#     4  12  27  49  82 115 165 214 274 334 411 489
#
# _framework density 24.428359
#
# number of rings (size 3 to 8) (size 9 to 14) (size 15 to 20)
#    0.000    0.000    6.000    2.400    5.600    2.400 
#    0.000    0.000    0.000    0.000    0.000    0.000 
#    0.000    0.000    0.000    0.000    0.000    0.000 
#
# Total GULP energy -111928.789133 kJ/mol
# GULP energy per Si atom -5596.439457 kJ/mol
# Density = 2.437276 g / cm^3
# Si number density = 24.428359 Si / 1000 Ang^3
#
#
#
# Elastic Constant Matrix: (Units=GPa)
#
#
# Indices 1 2 3 4 5 6 
#
# 1 223.4541 38.1030 40.3611 -0.0051 3.7391 -0.0018
# 2 38.1030 78.9882 35.7547 -0.0086 -3.3881 0.0019
# 3 40.3611 35.7547 120.7013 0.0019 -8.4587 0.0015
# 4 -0.0051 -0.0086 0.0019 47.5570 -0.0014 -8.9353
# 5 3.7391 -3.3881 -8.4587 -0.0014 55.7309 -0.0015
# 6 -0.0018 0.0019 0.0015 -8.9353 -0.0015 33.8919
#
#
#
# Elastic Compliance Matrix: (Units=1/GPa)
#
#
# Indices 1 2 3 4 5 6 
#
# 1 0.005023 -0.001928 -0.001152 0.000000 -0.000629 0.000000
# 2 -0.001928 0.015364 -0.003873 0.000003 0.000476 0.000000
# 3 -0.001152 -0.003873 0.009912 -0.000001 0.001346 -0.000001
# 4 0.000000 0.000003 -0.000001 0.022123 0.000001 0.005833
# 5 -0.000629 0.000476 0.001346 0.000001 0.018219 0.000001
# 6 0.000000 0.000000 -0.000001 0.005833 0.000001 0.031043
#
#
# Mechanical properties :
#
#
# Convention : Reuss Voigt Hill
#
# Bulk Modulus (GPa) = 61.00893 72.39791 66.70342
# Shear Modulus (GPa) = 41.30359 48.03095 44.66727
#
# Velocity S-wave (km/s) = 4.11640 4.43899 4.28074
# Velocity P-wave (km/s) = 6.90086 7.48158 7.19708
#
# Compressibility (1/GPa) = 0.01639104
#
# Stress axis : x y z
#
# Youngs Moduli (GPa) = 199.09733 65.08793 100.88873
#
# Poissons Ratio (x) = 0.12550 0.11627
# Poissons Ratio (y) = 0.38390 0.39075
# Poissons Ratio (z) = 0.22944 0.25209
#
# Static dielectric constant tensor:
#      x y z
#    x 1.872640 -0.000020 -0.058500 
#    y -0.000020 2.021730 -0.000210 
#    z -0.058500 -0.000210 1.382220 
# 
# From -- ./inp_files/312014.got.cif
#   From: 2010.05.17/outbox.cif.g08.bks.cpg/sg15_157_cif.got.tgz:312014.got - 2010.06.03 18:47:42.
