data_PCOD9308470
_publ_section_title
;
Structure prediction by ZEFSAII (Michael W. Deem and Ramdas Pophale) SiO2 
 PCOD9308470
Probable space group: C 2/C
;
_chemical_formula_sum "Si O2"
_cell_formula_units_Z 48
_cell_length_a 21.595719
_cell_length_b 23.835405
_cell_length_c 9.591817
_cell_angle_alpha 90.000000
_cell_angle_beta 25.716734
_cell_angle_gamma 90.000000
_cell_volume 2142.412015
_symmetry_space_group_name_H-M "C 2/C"
_symmetry_group_IT_number 15
_symmetry_cell_setting 'monoclinic'
loop_
_space_group_symop_operation_xyz
x,y,z
-x,y,1/2-z
-x,-y,-z
x,-y,1/2+z
1/2+x,1/2+y,z
1/2-x,1/2+y,1/2-z
1/2-x,1/2-y,-z
1/2+x,1/2-y,1/2+z
loop_
_atom_site_type_symbol
_atom_site_label
_atom_site_fract_x
_atom_site_fract_y
_atom_site_fract_z
Si Si1 0.929778 0.834917 0.071309
Si Si2 0.671888 0.554471 0.418403
Si Si3 0.882292 0.959585 0.175968
Si Si4 0.511712 0.214093 0.987779
Si Si5 0.699844 0.835847 0.793260
Si Si6 0.278375 0.784495 0.213049
O O1 0.962325 0.900647 0.989475
O O2 0.021597 0.779257 0.918642
O O3 0.820938 0.834984 0.425163
O O4 0.846636 0.821027 0.097777
O O5 0.500000 0.568990 0.750000
O O6 0.685891 0.495149 0.310681
O O7 0.717795 0.547681 0.486858
O O8 0.765942 0.608541 0.187022
O O9 0.000000 0.000000 0.000000
O O10 0.445325 0.175578 0.000432
O O11 0.393740 0.214561 0.352088
O O12 0.651140 0.195373 0.787893
O O13 0.728630 0.779886 0.823197
#
# Coordination Sequence:
#
# PCOD9308470 Si02
#       6
#     8   8   8   8   8   8
#     4   8  14  23  32  54  81 101 125 160 196 238
#     4   9  17  26  39  57  82 105 132 160 194 233
#     4   9  17  26  39  57  81 107 131 159 197 229
#     4   8  13  20  33  54  77 100 128 156 202 239
#     4   8  14  21  33  54  78 103 125 158 196 237
#     4   8  13  19  34  52  77 105 123 154 205 237
#
# _framework density 22.404654000000001
#
# number of rings (size 3 to 8) (size 9 to 14) (size 15 to 20)
#    0.000    3.667    0.000    2.000    9.333    0.000 
#    0.000    0.000    0.000    1.000    0.000    4.667 
#    0.000    0.000    0.000    0.000    0.000    0.000 
#
# Total GULP energy -133647.685919 kJ/mol
# GULP energy per Si atom -5568.653580 kJ/mol
# Density = 2.235366 g / cm^3
# Si number density = 22.404654 Si / 1000 Ang^3
#
#
#
# Elastic Constant Matrix: (Units=GPa)
#
#
# Indices 1 2 3 4 5 6 
#
# 1 110.2036 34.2245 18.2441 -0.0023 -2.1396 0.0037
# 2 34.2245 147.1920 17.5217 -0.0014 -4.6117 0.0018
# 3 18.2441 17.5217 42.5735 0.0006 -1.7631 0.0042
# 4 -0.0023 -0.0014 0.0006 23.0884 0.0005 -1.0773
# 5 -2.1396 -4.6117 -1.7631 0.0005 35.0266 -0.0025
# 6 0.0037 0.0018 0.0042 -1.0773 -0.0025 27.3636
#
#
#
# Elastic Compliance Matrix: (Units=1/GPa)
#
#
# Indices 1 2 3 4 5 6 
#
# 1 0.010280 -0.001957 -0.003592 0.000001 0.000190 -0.000001
# 2 -0.001957 0.007538 -0.002232 0.000000 0.000761 0.000000
# 3 -0.003592 -0.002232 0.025980 -0.000001 0.000794 -0.000003
# 4 0.000001 0.000000 -0.000001 0.043392 0.000000 0.001708
# 5 0.000190 0.000761 0.000794 0.000000 0.028701 0.000002
# 6 -0.000001 0.000000 -0.000003 0.001708 0.000002 0.036612
#
#
# Mechanical properties :
#
#
# Convention : Reuss Voigt Hill
#
# Bulk Modulus (GPa) = 35.41636 48.88329 42.14982
# Shear Modulus (GPa) = 28.17246 32.42764 30.30005
#
# Velocity S-wave (km/s) = 3.54988 3.80855 3.68149
# Velocity P-wave (km/s) = 5.71351 6.41917 6.07659
#
# Compressibility (1/GPa) = 0.02823554
#
# Stress axis : x y z
#
# Youngs Moduli (GPa) = 97.27477 132.65393 38.49135
#
# Poissons Ratio (x) = 0.25957 0.13827
# Poissons Ratio (y) = 0.19034 0.08593
# Poissons Ratio (z) = 0.34943 0.29615
#
# Static dielectric constant tensor:
#      x y z
#    x 1.894950 0.000000 0.129720 
#    y 0.000000 1.939960 0.000000 
#    z 0.129720 0.000000 2.095080 
# 
# From -- ./inp_files/90113.got.cif
#   From: 2010.05.17/outbox.cif.g08.bks.cpg/sg15_46_cif.got.tgz:90113.got - 2010.06.03 18:47:42.
