data_PCOD9308524
_publ_section_title
;
Structure prediction by ZEFSAII (Michael W. Deem and Ramdas Pophale) SiO2 
 PCOD9308524
Probable space group: C 2/C
;
_chemical_formula_sum "Si O2"
_cell_formula_units_Z 40
_cell_length_a 7.425522
_cell_length_b 18.616052
_cell_length_c 12.199106
_cell_angle_alpha 90.000000
_cell_angle_beta 84.116559
_cell_angle_gamma 90.000000
_cell_volume 1677.447273
_symmetry_space_group_name_H-M "C 2/C"
_symmetry_group_IT_number 15
_symmetry_cell_setting 'monoclinic'
loop_
_space_group_symop_operation_xyz
x,y,z
-x,y,1/2-z
-x,-y,-z
x,-y,1/2+z
1/2+x,1/2+y,z
1/2-x,1/2+y,1/2-z
1/2-x,1/2-y,-z
1/2+x,1/2-y,1/2+z
loop_
_atom_site_type_symbol
_atom_site_label
_atom_site_fract_x
_atom_site_fract_y
_atom_site_fract_z
Si Si1 0.059347 0.414117 0.122946
Si Si2 0.697095 0.113172 0.288967
Si Si3 0.722670 0.495206 0.034787
Si Si4 0.869979 0.145886 0.051991
Si Si5 0.528435 0.210752 0.475467
O O1 0.895037 0.448216 0.064487
O O2 0.000000 0.411970 0.250000
O O3 0.095856 0.335362 0.074307
O O4 0.222458 0.466344 0.081969
O O5 0.500000 0.088149 0.250000
O O6 0.780293 0.055105 0.368954
O O7 0.833358 0.130192 0.182100
O O8 0.641182 0.183589 0.363256
O O9 0.590016 0.429870 0.011002
O O10 0.675784 0.181300 0.032200
O O11 0.012336 0.206271 0.007539
#
# Coordination Sequence:
#
# PCOD9308524 Si02
#       5
#     8   8   8   8   8
#     4   9  14  22  36  56  84 109 135 170 216 253
#     4   9  15  24  39  60  90 113 136 175 216 249
#     4   9  15  21  36  61  84 109 138 173 216 257
#     4   9  15  25  39  58  90 114 137 173 216 255
#     4   8  16  25  36  58  86 116 140 166 212 265
#
# _framework density 23.845756999999999
#
# number of rings (size 3 to 8) (size 9 to 14) (size 15 to 20)
#    0.000    3.200    0.000    5.400    0.000    0.000 
#    0.000    0.000    0.000    4.800    0.000    5.600 
#    0.000  132.800    0.000    0.000    0.000    0.000 
#
# Total GULP energy -111644.788256 kJ/mol
# GULP energy per Si atom -5582.239413 kJ/mol
# Density = 2.379148 g / cm^3
# Si number density = 23.845757 Si / 1000 Ang^3
#
#
#
# Elastic Constant Matrix: (Units=GPa)
#
#
# Indices 1 2 3 4 5 6 
#
# 1 87.3030 32.4053 50.1406 0.0000 -7.8874 0.0000
# 2 32.4053 216.1669 111.8416 0.0000 -23.4767 0.0000
# 3 50.1406 111.8416 160.6136 0.0000 -13.7116 0.0000
# 4 0.0000 0.0000 0.0000 0.7369 0.0000 20.1980
# 5 -7.8874 -23.4767 -13.7116 0.0000 24.7426 0.0000
# 6 0.0000 0.0000 0.0000 20.1980 0.0000 -6.5197
#
#
#
# Elastic Compliance Matrix: (Units=1/GPa)
#
#
# Indices 1 2 3 4 5 6 
#
# 1 0.014098 0.000503 -0.004542 0.000000 0.002454 0.000000
# 2 0.000503 0.007707 -0.005128 0.000000 0.004631 0.000000
# 3 -0.004542 -0.005128 0.011206 0.000000 -0.000104 0.000000
# 4 0.000000 0.000000 0.000000 0.015795 0.000000 0.048934
# 5 0.002454 0.004631 -0.000104 0.000000 0.045535 0.000000
# 6 0.000000 0.000000 0.000000 0.048934 0.000000 -0.001785
#
#
# Mechanical properties :
#
#
# Convention : Reuss Voigt Hill
#
# Bulk Modulus (GPa) = 68.13483 94.76206 81.44844
# Shear Modulus (GPa) = 43.18428 21.77168 32.47798
#
# Velocity S-wave (km/s) = 4.26018 3.02490 3.69454
# Velocity P-wave (km/s) = 7.26870 7.21290 7.24085
#
# Compressibility (1/GPa) = 0.01467678
#
# Stress axis : x y z
#
# Youngs Moduli (GPa) = 70.93245 129.75372 89.23616
#
# Poissons Ratio (x) = -0.06527 0.40530
# Poissons Ratio (y) = -0.03568 0.45763
# Poissons Ratio (z) = 0.32217 0.66542
#
# Static dielectric constant tensor:
#      x y z
#    x 2.010700 0.000000 0.033360 
#    y 0.000000 1.928720 0.000000 
#    z 0.033360 0.000000 1.856500 
# 
# From -- ./inp_files/86721.got.cif
#   From: 2010.05.17/outbox.cif.g08.bks.cpg/sg15_44_cif.got.tgz:86721.got - 2010.06.03 18:47:42.
