data_PCOD9308082
_publ_section_title
;
Structure prediction by ZEFSAII (Michael W. Deem and Ramdas Pophale) SiO2 
 PCOD9308082
Probable space group: C 2/C
;
_chemical_formula_sum "Si O2"
_cell_formula_units_Z 40
_cell_length_a 5.313724
_cell_length_b 12.947407
_cell_length_c 25.500989
_cell_angle_alpha 90.000000
_cell_angle_beta 102.412391
_cell_angle_gamma 90.000000
_cell_volume 1713.432567
_symmetry_space_group_name_H-M "C 2/C"
_symmetry_group_IT_number 15
_symmetry_cell_setting 'monoclinic'
loop_
_space_group_symop_operation_xyz
x,y,z
-x,y,1/2-z
-x,-y,-z
x,-y,1/2+z
1/2+x,1/2+y,z
1/2-x,1/2+y,1/2-z
1/2-x,1/2-y,-z
1/2+x,1/2-y,1/2+z
loop_
_atom_site_type_symbol
_atom_site_label
_atom_site_fract_x
_atom_site_fract_y
_atom_site_fract_z
Si Si1 0.471629 0.210123 0.472337
Si Si2 0.438712 0.850196 0.860633
Si Si3 0.827140 0.506148 0.929825
Si Si4 0.285930 0.539016 0.889192
Si Si5 0.791187 0.828983 0.283965
O O1 0.250000 0.250000 0.500000
O O2 0.449432 0.545891 0.566125
O O3 0.452662 0.084568 0.470438
O O4 0.750000 0.250000 0.500000
O O5 0.247043 0.939334 0.872858
O O6 0.436699 0.769668 0.908876
O O7 0.699010 0.918730 0.874827
O O8 0.372008 0.786097 0.806983
O O9 0.046585 0.577973 0.914931
O O10 0.297634 0.596983 0.834799
O O11 0.500000 0.828245 0.250000
O O12 0.000000 0.861749 0.250000
#
# Coordination Sequence:
#
# PCOD9308082 Si02
#       5
#     8   8   8   8   8
#     4   9  16  30  59  90 110 149 196 231 291 363
#     4   8  23  37  61  82 121 153 190 246 298 344
#     4   8  18  34  60  76 117 153 181 231 297 336
#     4   9  19  40  53  79 112 156 184 237 291 345
#     4  12  26  39  59  89 114 154 209 249 298 356
#
# _framework density 23.344950000000001
#
# number of rings (size 3 to 8) (size 9 to 14) (size 15 to 20)
#    2.400    0.000    0.000    3.600    2.800    0.800 
#    0.000    0.000    0.000   16.800    0.000    0.000 
#    0.000    0.000    0.000    0.000    0.000    0.000 
#
# Total GULP energy -111373.470300 kJ/mol
# GULP energy per Si atom -5568.673515 kJ/mol
# Density = 2.329182 g / cm^3
# Si number density = 23.344950 Si / 1000 Ang^3
#
#
#
# Elastic Constant Matrix: (Units=GPa)
#
#
# Indices 1 2 3 4 5 6 
#
# 1 196.2252 33.0583 38.7789 0.0000 -2.8611 0.0000
# 2 33.0583 87.4596 34.1238 0.0000 -1.1313 0.0000
# 3 38.7789 34.1238 94.7687 0.0000 -13.6460 0.0000
# 4 0.0000 0.0000 0.0000 38.4243 0.0000 -8.2101
# 5 -2.8611 -1.1313 -13.6460 0.0000 35.2727 0.0000
# 6 0.0000 0.0000 0.0000 -8.2101 0.0000 13.7547
#
#
#
# Elastic Compliance Matrix: (Units=1/GPa)
#
#
# Indices 1 2 3 4 5 6 
#
# 1 0.005701 -0.001433 -0.001861 0.000000 -0.000303 0.000000
# 2 -0.001433 0.013739 -0.004569 0.000000 -0.001443 0.000000
# 3 -0.001861 -0.004569 0.013677 0.000000 0.004994 0.000000
# 4 0.000000 0.000000 0.000000 0.029830 0.000000 0.017805
# 5 -0.000303 -0.001443 0.004994 0.000000 0.030212 0.000000
# 6 0.000000 0.000000 0.000000 0.017805 0.000000 0.083330
#
#
# Mechanical properties :
#
#
# Convention : Reuss Voigt Hill
#
# Bulk Modulus (GPa) = 57.49235 65.59729 61.54482
# Shear Modulus (GPa) = 25.25119 35.65651 30.45385
#
# Velocity S-wave (km/s) = 3.29242 3.91241 3.61573
# Velocity P-wave (km/s) = 6.25573 6.96917 6.62207
#
# Compressibility (1/GPa) = 0.01739362
#
# Stress axis : x y z
#
# Youngs Moduli (GPa) = 175.41286 72.78390 73.11295
#
# Poissons Ratio (x) = 0.10429 0.13603
# Poissons Ratio (y) = 0.25134 0.33403
# Poissons Ratio (z) = 0.32636 0.33252
#
# Static dielectric constant tensor:
#      x y z
#    x 1.293120 0.000000 -0.289290 
#    y 0.000000 1.794090 0.000000 
#    z -0.289290 0.000000 1.821470 
# 
# From -- ./inp_files/304820.got.cif
#   From: 2010.05.17/outbox.cif.g08.bks.cpg/sg15_153_cif.got.tgz:304820.got - 2010.06.03 18:47:42.
