data_PCOD9308664
_publ_section_title
;
Structure prediction by ZEFSAII (Michael W. Deem and Ramdas Pophale) SiO2 
 PCOD9308664
Probable space group: C 2/C
;
_chemical_formula_sum "Si O2"
_cell_formula_units_Z 30
_cell_length_a 30.000000
_cell_length_b 27.000000
_cell_length_c 12.000000
_cell_angle_alpha 90.000000
_cell_angle_beta 20.000000
_cell_angle_gamma 90.000000
_cell_volume 3324.435793
_symmetry_space_group_name_H-M "C 2/C"
_symmetry_group_IT_number 15
_symmetry_cell_setting 'monoclinic'
loop_
_space_group_symop_operation_xyz
x,y,z
-x,y,1/2-z
-x,-y,-z
x,-y,1/2+z
1/2+x,1/2+y,z
1/2-x,1/2+y,1/2-z
1/2-x,1/2-y,-z
1/2+x,1/2-y,1/2+z
loop_
_atom_site_type_symbol
_atom_site_label
_atom_site_fract_x
_atom_site_fract_y
_atom_site_fract_z
Si Si1 0.000000 0.454717 0.750000
Si Si2 0.616025 0.809054 0.262000
Si Si3 0.308398 0.602848 0.781591
Si Si4 0.239880 0.783982 0.361588
Si Si5 0.589055 0.618369 0.211410
Si Si6 0.314341 0.791404 0.929210
Si Si7 0.643686 0.992147 0.613152
Si Si8 0.795948 0.586091 0.903766
O O1 0.889836 0.484285 0.938530
O O2 0.082135 0.423759 0.466918
O O3 0.645318 0.803339 0.326227
O O4 0.470353 0.796250 0.567075
O O5 0.664101 0.864386 0.124977
O O6 0.704390 0.769401 0.991456
O O7 0.439521 0.601926 0.548149
O O8 0.349374 0.606893 0.554666
O O9 0.237820 0.653941 0.978109
O O10 0.214280 0.555343 0.001837
O O11 0.119344 0.822923 0.657186
O O12 0.273928 0.781675 0.152294
O O13 0.670132 0.593212 0.120466
O O14 0.250000 0.750000 0.000000
O O15 0.719677 0.040770 0.474455
O O16 0.500000 0.000000 0.000000
#
# Coordination Sequence:
#
# PCOD9308664 Si02
#       8
#     4   8   8   8   8   8   8   8
#     4  10  18  34  52  76 110 132 180 232 260 328
#     4  10  20  35  57  83 111 149 191 232 283 333
#     4  10  19  34  53  80 108 143 183 228 275 331
#     4   9  20  36  54  84 115 143 190 239 274 334
#     4   9  18  33  57  78 105 142 183 228 273 325
#     4  11  21  33  56  84 114 153 186 229 286 340
#     4  10  20  33  53  79 106 135 180 227 275 318
#     4  10  20  33  57  82 102 145 184 227 279 335
#
# _framework density 9.0240880000000008
#
# number of rings (size 3 to 8) (size 9 to 14) (size 15 to 20)
#    0.000    2.133    1.333    2.800    3.733    2.133 
#    0.000    4.000    0.000    0.000    6.933    0.000 
#    0.000    0.000    0.000    0.000    0.000    0.000 
#
# Total GULP energy -167116.407731 kJ/mol
# GULP energy per Si atom -5570.546924 kJ/mol
# Density = 0.900355 g / cm^3
# Si number density = 9.024088 Si / 1000 Ang^3
#
#
#
# Elastic Constant Matrix: (Units=GPa)
#
#
# Indices 1 2 3 4 5 6 
#
# 1 76.7140 57.6956 13.7554 0.0065 -38.4576 -0.0019
# 2 57.6956 157.6734 35.6216 0.0007 -21.0997 -0.0003
# 3 13.7554 35.6216 44.6382 -0.0109 -28.5191 0.0035
# 4 0.0065 0.0007 -0.0109 22.7762 0.0021 -5.4630
# 5 -38.4576 -21.0997 -28.5191 0.0021 33.8726 -0.0012
# 6 -0.0019 -0.0003 0.0035 -5.4630 -0.0012 30.5056
#
#
#
# Elastic Compliance Matrix: (Units=1/GPa)
#
#
# Indices 1 2 3 4 5 6 
#
# 1 -0.330262 0.127587 -0.408650 -0.000047 -0.639553 -0.000006
# 2 0.127587 -0.041542 0.151163 0.000015 0.246251 0.000002
# 3 -0.408650 0.151163 -0.451356 -0.000036 -0.749822 -0.000008
# 4 -0.000047 0.000015 -0.000036 0.045876 -0.000078 0.008216
# 5 -0.639553 0.246251 -0.749822 -0.000078 -1.174519 -0.000011
# 6 -0.000006 0.000002 -0.000008 0.008216 -0.000011 0.034252
#
#
# Mechanical properties :
#
#
# Convention : Reuss Voigt Hill
#
# Bulk Modulus (GPa) = -0.92339 54.79678 26.93669
# Shear Modulus (GPa) = -2.47680 28.89442 13.20881
#
# Velocity S-wave (km/s) = -1.17273 4.00554 2.70823
# Velocity P-wave (km/s) = 1.53182 7.19860 4.97360
#
# Compressibility (1/GPa) = -1.08296066
#
# Stress axis : x y z
#
# Youngs Moduli (GPa) = -3.02790 -24.07215 -2.21555
#
# Poissons Ratio (x) = 3.07129 -0.90538
# Poissons Ratio (y) = 0.38632 0.33491
# Poissons Ratio (z) = -1.23735 3.63881
#
# Static dielectric constant tensor:
#      x y z
#    x 1.634300 0.000000 -0.012080 
#    y 0.000000 1.648380 0.000000 
#    z -0.012080 0.000000 1.630230 
# 
# From -- ./inp_files/127516.got.cif
#   From: 2010.05.17/outbox.ucp.g08.bks.cvg/sg15_64_cif.got.tgz:127516.got - 2010.06.11 12:40:34.
