data_PCOD9308743
_publ_section_title
;
Structure prediction by ZEFSAII (Michael W. Deem and Ramdas Pophale) SiO2 
 PCOD9308743
Probable space group: C 2/C
;
_chemical_formula_sum "Si O2"
_cell_formula_units_Z 20
_cell_length_a 12.000000
_cell_length_b 15.000000
_cell_length_c 12.000000
_cell_angle_alpha 90.000000
_cell_angle_beta 70.000000
_cell_angle_gamma 90.000000
_cell_volume 2029.736061
_symmetry_space_group_name_H-M "C 2/C"
_symmetry_group_IT_number 15
_symmetry_cell_setting 'monoclinic'
loop_
_space_group_symop_operation_xyz
x,y,z
-x,y,1/2-z
-x,-y,-z
x,-y,1/2+z
1/2+x,1/2+y,z
1/2-x,1/2+y,1/2-z
1/2-x,1/2-y,-z
1/2+x,1/2-y,1/2+z
loop_
_atom_site_type_symbol
_atom_site_label
_atom_site_fract_x
_atom_site_fract_y
_atom_site_fract_z
Si Si1 0.510374 0.828536 0.486240
Si Si2 0.625107 0.263601 0.145985
Si Si3 0.158936 0.736579 0.633207
Si Si4 0.212963 0.589027 0.800613
Si Si5 0.784775 0.619758 0.218737
O O1 0.591015 0.760785 0.531191
O O2 0.461952 0.781372 0.391065
O O3 0.591967 0.907703 0.413250
O O4 0.401243 0.862212 0.600102
O O5 0.500000 0.273470 0.250000
O O6 0.695814 0.353087 0.154815
O O7 0.685600 0.175095 0.179064
O O8 0.250000 0.750000 0.500000
O O9 0.195148 0.651148 0.696601
O O10 0.177200 0.825487 0.699278
O O11 0.238870 0.485808 0.764111
#
# Coordination Sequence:
#
# PCOD9308743 Si02
#       5
#     8   8   8   8   8
#     4  10  19  34  56  81 109 140 181 234 279 324
#     4   9  20  37  52  74 111 147 178 222 276 329
#     4   9  20  37  54  77 113 148 178 222 277 328
#     4  11  20  34  57  82 105 143 190 230 274 329
#     4   9  20  36  55  80 112 144 179 226 279 328
#
# _framework density 9.8534980000000001
#
# number of rings (size 3 to 8) (size 9 to 14) (size 15 to 20)
#    0.000    2.400    0.000    3.000    0.000    8.000 
#    0.000    5.000    0.000    0.000    0.000    0.000 
#    0.000    0.000    0.000    0.000    0.000    0.000 
#
# Total GULP energy -111500.154659 kJ/mol
# GULP energy per Si atom -5575.007733 kJ/mol
# Density = 0.983107 g / cm^3
# Si number density = 9.853498 Si / 1000 Ang^3
#
#
#
# Elastic Constant Matrix: (Units=GPa)
#
#
# Indices 1 2 3 4 5 6 
#
# 1 96.1627 69.9004 26.1936 0.0000 37.1035 0.0000
# 2 69.9004 192.8363 27.3992 0.0000 22.9992 0.0000
# 3 26.1936 27.3992 53.1300 0.0000 13.8292 0.0000
# 4 0.0000 0.0000 0.0000 21.1838 0.0000 -5.3561
# 5 37.1035 22.9992 13.8292 0.0000 44.9385 0.0000
# 6 0.0000 0.0000 0.0000 -5.3561 0.0000 18.1976
#
#
#
# Elastic Compliance Matrix: (Units=1/GPa)
#
#
# Indices 1 2 3 4 5 6 
#
# 1 0.020222 -0.005245 -0.003933 0.000000 -0.012802 0.000000
# 2 -0.005245 0.007153 -0.001389 0.000000 0.001097 0.000000
# 3 -0.003933 -0.001389 0.022227 0.000000 -0.002882 0.000000
# 4 0.000000 0.000000 0.000000 0.051001 0.000000 0.015011
# 5 -0.012802 0.001097 -0.002882 0.000000 0.033148 0.000000
# 6 0.000000 0.000000 0.000000 0.015011 0.000000 0.059371
#
#
# Mechanical properties :
#
#
# Convention : Reuss Voigt Hill
#
# Bulk Modulus (GPa) = 35.12444 65.45726 50.29085
# Shear Modulus (GPa) = 22.34683 31.43969 26.89326
#
# Velocity S-wave (km/s) = 3.37108 3.99853 3.69813
# Velocity P-wave (km/s) = 5.74580 7.38952 6.61888
#
# Compressibility (1/GPa) = 0.02847021
#
# Stress axis : x y z
#
# Youngs Moduli (GPa) = 49.45093 139.79424 44.99013
#
# Poissons Ratio (x) = 0.73316 0.17694
# Poissons Ratio (y) = 0.25935 0.06248
# Poissons Ratio (z) = 0.19448 0.19415
#
# Static dielectric constant tensor:
#      x y z
#    x 1.764280 0.000000 -0.013780 
#    y 0.000000 1.628710 0.000000 
#    z -0.013780 0.000000 1.735890 
# 
# From -- ./inp_files/85549.got.cif
#   From: 2010.05.17/outbox.ucp.g08.bks.cvg/sg15_43_cif.got.tgz:85549.got - 2010.06.11 12:40:34.
