data_PCOD9308984
_publ_section_title
;
Structure prediction by ZEFSAII (Michael W. Deem and Ramdas Pophale) SiO2 
 PCOD9308984
Probable space group: C 2/C
;
_chemical_formula_sum "Si O2"
_cell_formula_units_Z 32
_cell_length_a 24.000000
_cell_length_b 21.000000
_cell_length_c 18.000000
_cell_angle_alpha 90.000000
_cell_angle_beta 20.000000
_cell_angle_gamma 90.000000
_cell_volume 3102.806740
_symmetry_space_group_name_H-M "C 2/C"
_symmetry_group_IT_number 15
_symmetry_cell_setting 'monoclinic'
loop_
_space_group_symop_operation_xyz
x,y,z
-x,y,1/2-z
-x,-y,-z
x,-y,1/2+z
1/2+x,1/2+y,z
1/2-x,1/2+y,1/2-z
1/2-x,1/2-y,-z
1/2+x,1/2-y,1/2+z
loop_
_atom_site_type_symbol
_atom_site_label
_atom_site_fract_x
_atom_site_fract_y
_atom_site_fract_z
Si Si1 0.657974 0.221372 0.317618
Si Si2 0.672356 0.406757 0.937598
Si Si3 0.814866 0.183843 0.450945
Si Si4 0.291716 0.583033 0.933687
Si Si5 0.835272 0.463756 0.227201
Si Si6 0.819648 0.289135 0.980352
Si Si7 0.335416 0.057342 0.906018
Si Si8 0.302664 0.820578 0.239466
O O1 0.744492 0.151330 0.212261
O O2 0.481858 0.207607 0.503085
O O3 0.673241 0.268595 0.369807
O O4 0.747200 0.265661 0.147075
O O5 0.705377 0.480237 0.873764
O O6 0.735546 0.404513 0.943990
O O7 0.478969 0.400002 0.182714
O O8 0.750000 0.250000 0.500000
O O9 0.773712 0.121954 0.451613
O O10 0.711223 0.178255 0.655060
O O11 0.000000 0.183233 0.250000
O O12 0.191859 0.635445 0.014535
O O13 0.249822 0.510017 0.966791
O O14 0.853541 0.450434 0.293241
O O15 0.799949 0.397330 0.227473
O O16 0.000000 0.500000 0.000000
O O17 0.000000 0.267089 0.750000
O O18 0.750000 0.250000 0.000000
O O19 0.500000 0.063854 0.750000
#
# Coordination Sequence:
#
# PCOD9308984 Si02
#       8
#     8   8   8   8   8   8   8   8
#     4  12  23  39  62  92 132 169 211 258 314 382
#     4  10  20  37  63  88 125 168 213 257 312 380
#     4  11  24  45  71  93 119 157 211 275 334 387
#     4  10  21  36  60  92 126 167 212 257 306 366
#     4  10  21  41  65  88 125 170 211 256 325 386
#     4  12  23  37  60  94 133 173 215 254 301 368
#     4  10  23  39  65  96 124 161 211 266 318 376
#     4  11  25  41  64  93 122 166 209 262 328 383
#
# _framework density 10.313243
#
# number of rings (size 3 to 8) (size 9 to 14) (size 15 to 20)
#    0.000    1.250    2.500    3.750    5.250    2.000 
#    0.000    0.000    0.000    2.250    0.000    0.000 
#    0.000    0.000    0.000    0.000    0.000    0.000 
#
# Total GULP energy -178219.733857 kJ/mol
# GULP energy per Si atom -5569.366683 kJ/mol
# Density = 1.028977 g / cm^3
# Si number density = 10.313243 Si / 1000 Ang^3
#
#
#
# Elastic Constant Matrix: (Units=GPa)
#
#
# Indices 1 2 3 4 5 6 
#
# 1 37.4601 28.7861 -6.5596 0.0038 -19.1576 -0.0419
# 2 28.7861 152.9724 -5.6876 0.0003 -13.6755 -0.1045
# 3 -6.5596 -5.6876 23.7865 -0.0142 -14.3246 -0.0654
# 4 0.0038 0.0003 -0.0142 26.9870 -0.0022 -11.1025
# 5 -19.1576 -13.6755 -14.3246 -0.0022 30.8512 0.0448
# 6 -0.0419 -0.1045 -0.0654 -11.1025 0.0448 29.4326
#
#
#
# Elastic Compliance Matrix: (Units=1/GPa)
#
#
# Indices 1 2 3 4 5 6 
#
# 1 0.091060 -0.006207 0.077768 0.000112 0.089902 0.000185
# 2 -0.006207 0.007646 -0.000227 0.000010 -0.000571 0.000022
# 3 0.077768 -0.000227 0.128340 0.000190 0.107780 0.000302
# 4 0.000112 0.000010 0.000190 0.043862 0.000141 0.016546
# 5 0.089902 -0.000571 0.107780 0.000141 0.138030 0.000208
# 6 0.000185 0.000022 0.000302 0.016546 0.000208 0.040218
#
#
# Mechanical properties :
#
#
# Convention : Reuss Voigt Hill
#
# Bulk Modulus (GPa) = 2.70479 27.47745 15.09112
# Shear Modulus (GPa) = 11.63535 30.63283 21.13409
#
# Velocity S-wave (km/s) = 2.37765 3.85791 3.20442
# Velocity P-wave (km/s) = 2.97520 5.76151 4.58513
#
# Compressibility (1/GPa) = 0.36971396
#
# Stress axis : x y z
#
# Youngs Moduli (GPa) = 10.98179 130.79267 7.79182
#
# Poissons Ratio (x) = 0.81181 -0.60596
# Poissons Ratio (y) = 0.06816 0.00177
# Poissons Ratio (z) = -0.85403 0.02969
#
# Static dielectric constant tensor:
#      x y z
#    x 1.716760 -0.000100 0.137530 
#    y -0.000100 1.863690 -0.000060 
#    z 0.137530 -0.000060 1.859540 
# 
# From -- ./inp_files/220260.got.cif
#   From: 2010.05.17/outbox.ucp.g08.bks.cvg/sg15_111_cif.got.tgz:220260.got - 2010.06.11 12:40:34.
