data_PCOD9308251
_publ_section_title
;
Structure prediction by ZEFSAII (Michael W. Deem and Ramdas Pophale) SiO2 
 PCOD9308251
Probable space group: C 2/C
;
_chemical_formula_sum "Si O2"
_cell_formula_units_Z 36
_cell_length_a 28.175191
_cell_length_b 8.742665
_cell_length_c 14.051083
_cell_angle_alpha 90.000000
_cell_angle_beta 22.247537
_cell_angle_gamma 90.000000
_cell_volume 1310.422207
_symmetry_space_group_name_H-M "C 2/C"
_symmetry_group_IT_number 15
_symmetry_cell_setting 'monoclinic'
loop_
_space_group_symop_operation_xyz
x,y,z
-x,y,1/2-z
-x,-y,-z
x,-y,1/2+z
1/2+x,1/2+y,z
1/2-x,1/2+y,1/2-z
1/2-x,1/2-y,-z
1/2+x,1/2-y,1/2+z
loop_
_atom_site_type_symbol
_atom_site_label
_atom_site_fract_x
_atom_site_fract_y
_atom_site_fract_z
Si Si1 0.396456 0.756572 0.556261
Si Si2 0.000000 0.821236 0.250000
Si Si3 0.362858 0.054351 0.288483
Si Si4 0.092671 0.956623 0.739890
Si Si5 0.676047 0.065107 0.916789
O O1 0.350034 0.790874 0.749726
O O2 0.320524 0.613954 0.653679
O O3 0.361993 0.910099 0.564010
O O4 0.102791 0.710489 0.010484
O O5 0.932658 0.918347 0.294138
O O6 0.365046 0.062928 0.397239
O O7 0.239376 0.955744 0.491665
O O8 0.500000 0.000000 0.000000
O O9 0.039668 0.795734 0.798278
O O10 0.000000 0.000000 0.000000
#
# Coordination Sequence:
#
# PCOD9308251 Si02
#       5
#     8   4   8   8   8
#     4  12  27  53  86 122 171 234 291 355 437 516
#     4  12  26  50  82 124 172 222 278 368 428 516
#     4  12  28  54  81 126 172 224 285 358 431 514
#     4  12  27  52  88 118 172 230 287 349 442 513
#     4  12  26  53  83 123 174 223 293 357 430 521
#
# _framework density 27.472061
#
# number of rings (size 3 to 8) (size 9 to 14) (size 15 to 20)
#    0.000    0.000    4.444    4.667    0.000    3.556 
#    0.000    0.000    0.000    0.000    0.000    0.000 
#    0.000    0.000    0.000    0.000    0.000    0.000 
#
# Total GULP energy -101083.500474 kJ/mol
# GULP energy per Si atom -5615.750026 kJ/mol
# Density = 2.740953 g / cm^3
# Si number density = 27.472061 Si / 1000 Ang^3
#
#
#
# Elastic Constant Matrix: (Units=GPa)
#
#
# Indices 1 2 3 4 5 6 
#
# 1 154.3757 74.4017 68.7506 0.0000 -5.4268 0.0000
# 2 74.4017 152.7815 49.3132 0.0000 -4.2439 0.0000
# 3 68.7506 49.3132 191.8372 0.0000 -20.1122 0.0000
# 4 0.0000 0.0000 0.0000 54.3569 0.0000 -8.6997
# 5 -5.4268 -4.2439 -20.1122 0.0000 66.1883 0.0000
# 6 0.0000 0.0000 0.0000 -8.6997 0.0000 50.3326
#
#
#
# Elastic Compliance Matrix: (Units=1/GPa)
#
#
# Indices 1 2 3 4 5 6 
#
# 1 0.009369 -0.003792 -0.002404 0.000000 -0.000206 0.000000
# 2 -0.003792 0.008673 -0.000873 0.000000 -0.000020 0.000000
# 3 -0.002404 -0.000873 0.006479 0.000000 0.001716 0.000000
# 4 0.000000 0.000000 0.000000 0.018920 0.000000 0.003270
# 5 -0.000206 -0.000020 0.001716 0.000000 0.015612 0.000000
# 6 0.000000 0.000000 0.000000 0.003270 0.000000 0.020433
#
#
# Mechanical properties :
#
#
# Convention : Reuss Voigt Hill
#
# Bulk Modulus (GPa) = 96.31652 98.21393 97.26522
# Shear Modulus (GPa) = 51.50158 54.61082 53.05620
#
# Velocity S-wave (km/s) = 4.33447 4.46339 4.39940
# Velocity P-wave (km/s) = 7.75797 7.89877 7.82868
#
# Compressibility (1/GPa) = 0.01038243
#
# Stress axis : x y z
#
# Youngs Moduli (GPa) = 106.73633 115.29952 154.35467
#
# Poissons Ratio (x) = 0.43723 0.37113
# Poissons Ratio (y) = 0.40476 0.13468
# Poissons Ratio (z) = 0.25663 0.10060
#
# Static dielectric constant tensor:
#      x y z
#    x 2.154900 0.000000 -0.007620 
#    y 0.000000 2.178520 0.000000 
#    z -0.007620 0.000000 2.200210 
# 
# From -- ./inp_files/181670.got.cif
#   From: 2010.05.17/outbox.cif.g08.bks.cpg/sg15_91_cif.got.tgz:181670.got - 2010.06.03 18:47:42.
