data_PCOD9308686
_publ_section_title
;
Structure prediction by ZEFSAII (Michael W. Deem and Ramdas Pophale) SiO2 
 PCOD9308686
Probable space group: C 2/C
;
_chemical_formula_sum "Si O2"
_cell_formula_units_Z 28
_cell_length_a 9.000000
_cell_length_b 18.000000
_cell_length_c 27.000000
_cell_angle_alpha 90.000000
_cell_angle_beta 40.000000
_cell_angle_gamma 90.000000
_cell_volume 2811.553005
_symmetry_space_group_name_H-M "C 2/C"
_symmetry_group_IT_number 15
_symmetry_cell_setting 'monoclinic'
loop_
_space_group_symop_operation_xyz
x,y,z
-x,y,1/2-z
-x,-y,-z
x,-y,1/2+z
1/2+x,1/2+y,z
1/2-x,1/2+y,1/2-z
1/2-x,1/2-y,-z
1/2+x,1/2-y,1/2+z
loop_
_atom_site_type_symbol
_atom_site_label
_atom_site_fract_x
_atom_site_fract_y
_atom_site_fract_z
Si Si1 0.737030 0.657873 0.552436
Si Si2 0.209992 0.327914 0.159501
Si Si3 0.424114 0.550571 0.821168
Si Si4 0.866226 0.226006 0.521891
Si Si5 0.746371 0.996526 0.180288
Si Si6 0.574237 0.437486 0.518939
Si Si7 0.484911 0.977696 0.946645
O O1 0.479690 0.687670 0.605401
O O2 0.694736 0.610861 0.613220
O O3 0.838734 0.598811 0.485858
O O4 0.934203 0.717702 0.512312
O O5 0.185746 0.288258 0.112752
O O6 0.207897 0.418692 0.160256
O O7 0.000000 0.306839 0.250000
O O8 0.500000 0.582577 0.750000
O O9 0.647223 0.524933 0.794410
O O10 0.243977 0.482452 0.860191
O O11 0.750000 0.250000 0.500000
O O12 0.971773 0.144651 0.486621
O O13 0.500000 0.033760 0.250000
O O14 0.935788 0.044867 0.104175
O O15 0.500000 0.500000 0.500000
O O16 0.842122 0.455896 0.458305
O O17 0.500000 0.000000 0.000000
#
# Coordination Sequence:
#
# PCOD9308686 Si02
#       7
#     8   8   8   8   8   8   8
#     4  10  21  40  63  90 130 169 213 261 326 388
#     4  10  21  42  66  90 123 173 217 257 320 391
#     4  10  21  36  63  94 122 171 219 267 318 383
#     4  12  25  38  65 101 131 166 213 269 324 383
#     4  10  21  38  60  90 125 161 213 271 322 372
#     4  12  22  39  64  94 120 166 217 264 316 374
#     4  10  18  37  60  85 124 160 209 259 309 377
#
# _framework density 9.9589090000000002
#
# number of rings (size 3 to 8) (size 9 to 14) (size 15 to 20)
#    0.000    1.429    5.714    2.143    2.000    4.571 
#    0.000    2.857    0.000    0.000    0.000    0.000 
#    0.000    0.000    0.000    0.000    0.000    0.000 
#
# Total GULP energy -156051.211308 kJ/mol
# GULP energy per Si atom -5573.257547 kJ/mol
# Density = 0.993624 g / cm^3
# Si number density = 9.958909 Si / 1000 Ang^3
#
#
#
# Elastic Constant Matrix: (Units=GPa)
#
#
# Indices 1 2 3 4 5 6 
#
# 1 66.2380 26.4991 47.5543 0.0093 -6.1454 -0.0026
# 2 26.4991 65.6597 25.2444 0.0074 -0.2696 -0.0014
# 3 47.5543 25.2444 84.5957 0.0143 4.4262 0.0074
# 4 0.0093 0.0074 0.0143 2.8764 -0.0078 -3.0059
# 5 -6.1454 -0.2696 4.4262 -0.0078 37.7332 0.0023
# 6 -0.0026 -0.0014 0.0074 -3.0059 0.0023 26.9461
#
#
#
# Elastic Compliance Matrix: (Units=1/GPa)
#
#
# Indices 1 2 3 4 5 6 
#
# 1 0.028521 -0.005866 -0.014613 0.000022 0.006317 0.000008
# 2 -0.005866 0.018431 -0.002172 -0.000021 -0.000569 -0.000001
# 3 -0.014613 -0.002172 0.020937 -0.000081 -0.004851 -0.000016
# 4 0.000022 -0.000021 -0.000081 0.393531 0.000092 0.043900
# 5 0.006317 -0.000569 -0.004851 0.000092 0.028096 0.000010
# 6 0.000008 -0.000001 -0.000016 0.043900 0.000010 0.042008
#
#
# Mechanical properties :
#
#
# Convention : Reuss Voigt Hill
#
# Bulk Modulus (GPa) = 44.27529 46.12099 45.19814
# Shear Modulus (GPa) = 8.55644 21.32418 14.94031
#
# Velocity S-wave (km/s) = 2.07490 3.27556 2.74176
# Velocity P-wave (km/s) = 5.29316 6.12468 5.72404
#
# Compressibility (1/GPa) = 0.02258596
#
# Stress axis : x y z
#
# Youngs Moduli (GPa) = 35.06198 54.25779 47.76161
#
# Poissons Ratio (x) = 0.31830 0.69792
# Poissons Ratio (y) = 0.20569 0.10376
# Poissons Ratio (z) = 0.51235 0.11787
#
# Static dielectric constant tensor:
#      x y z
#    x 1.731110 0.000000 0.027830 
#    y 0.000000 1.717980 0.000000 
#    z 0.027830 0.000000 1.742740 
# 
# From -- ./inp_files/289714.got.cif
#   From: 2010.05.17/outbox.ucp.g08.bks.cvg/sg15_145_cif.got.tgz:289714.got - 2010.06.11 12:40:34.
