data_PCOD9308092
_publ_section_title
;
Structure prediction by ZEFSAII (Michael W. Deem and Ramdas Pophale) SiO2 
 PCOD9308092
Probable space group: C 2/C
;
_chemical_formula_sum "Si O2"
_cell_formula_units_Z 36
_cell_length_a 8.669932
_cell_length_b 13.866920
_cell_length_c 17.256689
_cell_angle_alpha 90.000000
_cell_angle_beta 132.070742
_cell_angle_gamma 90.000000
_cell_volume 1540.079790
_symmetry_space_group_name_H-M "C 2/C"
_symmetry_group_IT_number 15
_symmetry_cell_setting 'monoclinic'
loop_
_space_group_symop_operation_xyz
x,y,z
-x,y,1/2-z
-x,-y,-z
x,-y,1/2+z
1/2+x,1/2+y,z
1/2-x,1/2+y,1/2-z
1/2-x,1/2-y,-z
1/2+x,1/2-y,1/2+z
loop_
_atom_site_type_symbol
_atom_site_label
_atom_site_fract_x
_atom_site_fract_y
_atom_site_fract_z
Si Si1 0.855650 0.544606 0.385232
Si Si2 0.364759 0.783168 0.781000
Si Si3 0.500000 0.500000 0.000000
Si Si4 0.603048 0.336996 0.922936
Si Si5 0.778014 0.413305 0.215573
O O1 0.949173 0.627216 0.360278
O O2 0.683874 0.603997 0.375322
O O3 0.796527 0.457108 0.308507
O O4 0.000000 0.500000 0.500000
O O5 0.500000 0.773250 0.750000
O O6 0.357945 0.683739 0.826116
O O7 0.126388 0.799830 0.674962
O O8 0.613768 0.408564 0.998839
O O9 0.342273 0.505759 0.872513
O O10 0.750000 0.250000 0.000000
O O11 0.000000 0.395510 0.250000
#
# Coordination Sequence:
#
# PCOD9308092 Si02
#       5
#     8   8   4   8   8
#     4  12  26  48  81 112 158 209 270 333 412 485
#     4  12  28  49  80 120 163 209 275 336 412 507
#     4  12  26  44  86 106 158 204 272 322 416 482
#     4  12  27  52  79 119 161 220 269 348 414 489
#     4  12  27  52  79 116 161 211 268 338 415 488
#
# _framework density 23.375411
#
# number of rings (size 3 to 8) (size 9 to 14) (size 15 to 20)
#    0.000    0.000    2.222    8.000    6.222    0.000 
#    4.000    3.333    0.000    0.000    0.000    0.000 
#    0.000    0.000    0.000    0.000    0.000    0.000 
#
# Total GULP energy -100354.072423 kJ/mol
# GULP energy per Si atom -5575.226246 kJ/mol
# Density = 2.332221 g / cm^3
# Si number density = 23.375411 Si / 1000 Ang^3
#
#
#
# Elastic Constant Matrix: (Units=GPa)
#
#
# Indices 1 2 3 4 5 6 
#
# 1 137.1936 44.2891 25.8271 0.0000 -5.1755 0.0000
# 2 44.2891 104.1867 -0.9848 0.0000 -11.9268 0.0000
# 3 25.8271 -0.9848 132.7032 0.0000 -11.9928 0.0000
# 4 0.0000 0.0000 0.0000 24.4757 0.0000 -8.9331
# 5 -5.1755 -11.9268 -11.9928 0.0000 33.4110 0.0000
# 6 0.0000 0.0000 0.0000 -8.9331 0.0000 51.8834
#
#
#
# Elastic Compliance Matrix: (Units=1/GPa)
#
#
# Indices 1 2 3 4 5 6 
#
# 1 0.008849 -0.003854 -0.001810 0.000000 -0.000655 0.000000
# 2 -0.003854 0.011707 0.001200 0.000000 0.004013 0.000000
# 3 -0.001810 0.001200 0.008175 0.000000 0.003082 0.000000
# 4 0.000000 0.000000 0.000000 0.043596 0.000000 0.007506
# 5 -0.000655 0.004013 0.003082 0.000000 0.032368 0.000000
# 6 0.000000 0.000000 0.000000 0.007506 0.000000 0.020566
#
#
# Mechanical properties :
#
#
# Convention : Reuss Voigt Hill
#
# Bulk Modulus (GPa) = 50.49714 56.92736 53.71225
# Shear Modulus (GPa) = 35.51356 42.28418 38.89887
#
# Velocity S-wave (km/s) = 3.90201 4.25775 4.08376
# Velocity P-wave (km/s) = 6.47692 6.96977 6.72786
#
# Compressibility (1/GPa) = 0.01980310
#
# Stress axis : x y z
#
# Youngs Moduli (GPa) = 113.00611 85.41871 122.31910
#
# Poissons Ratio (x) = 0.32918 0.22140
# Poissons Ratio (y) = 0.43549 -0.14673
# Poissons Ratio (z) = 0.20454 -0.10246
#
# Static dielectric constant tensor:
#      x y z
#    x 2.378290 0.000000 -0.142710 
#    y 0.000000 1.902940 0.000000 
#    z -0.142710 0.000000 1.979720 
# 
# From -- ./inp_files/189096.got.cif
#   From: 2010.05.17/outbox.cif.g08.bks.cpg/sg15_95_cif.got.tgz:189096.got - 2010.06.03 18:47:42.
