data_PCOD9308168
_publ_section_title
;
Structure prediction by ZEFSAII (Michael W. Deem and Ramdas Pophale) SiO2 
 PCOD9308168
Probable space group: C 2/C
;
_chemical_formula_sum "Si O2"
_cell_formula_units_Z 32
_cell_length_a 29.519133
_cell_length_b 7.893434
_cell_length_c 9.913848
_cell_angle_alpha 90.000000
_cell_angle_beta 144.168987
_cell_angle_gamma 90.000000
_cell_volume 1352.265700
_symmetry_space_group_name_H-M "C 2/C"
_symmetry_group_IT_number 15
_symmetry_cell_setting 'monoclinic'
loop_
_space_group_symop_operation_xyz
x,y,z
-x,y,1/2-z
-x,-y,-z
x,-y,1/2+z
1/2+x,1/2+y,z
1/2-x,1/2+y,1/2-z
1/2-x,1/2-y,-z
1/2+x,1/2-y,1/2+z
loop_
_atom_site_type_symbol
_atom_site_label
_atom_site_fract_x
_atom_site_fract_y
_atom_site_fract_z
Si Si1 0.051387 0.468722 0.495879
Si Si2 0.926461 0.080667 0.901402
Si Si3 0.664401 0.472040 0.059806
Si Si4 0.695840 0.854423 0.470231
O O1 0.059111 0.267332 0.509356
O O2 0.132287 0.556345 0.723867
O O3 0.000000 0.536903 0.250000
O O4 0.000000 0.500000 0.500000
O O5 0.893712 0.989033 0.956083
O O6 0.859695 0.083357 0.626954
O O7 0.000000 0.000000 0.000000
O O8 0.660246 0.280191 0.991208
O O9 0.750033 0.514159 0.318884
O O10 0.750000 0.750000 0.500000
#
# Coordination Sequence:
#
# PCOD9308168 Si02
#       4
#     8   8   8   8
#     4  12  29  47  77 108 156 202 260 319 393 465
#     4  12  26  48  76 116 156 205 263 325 396 472
#     4  12  27  48  79 110 157 203 263 319 398 472
#     4  12  28  50  78 117 155 209 260 326 398 474
#
# _framework density 23.663988
#
# number of rings (size 3 to 8) (size 9 to 14) (size 15 to 20)
#    0.000    0.000    2.500    6.750   10.500    2.000 
#    0.000    0.000    0.000    0.000    0.000    0.000 
#    0.000    0.000    0.000    0.000    0.000    0.000 
#
# Total GULP energy -89596.493758 kJ/mol
# GULP energy per Si atom -5599.780860 kJ/mol
# Density = 2.361013 g / cm^3
# Si number density = 23.663988 Si / 1000 Ang^3
#
#
#
# Elastic Constant Matrix: (Units=GPa)
#
#
# Indices 1 2 3 4 5 6 
#
# 1 164.0429 12.9745 43.6439 0.0000 -15.2838 0.0000
# 2 12.9745 69.8443 58.8423 0.0000 1.9348 0.0000
# 3 43.6439 58.8423 205.9223 0.0000 -34.6499 0.0000
# 4 0.0000 0.0000 0.0000 43.3468 0.0000 7.6629
# 5 -15.2838 1.9348 -34.6499 0.0000 48.5338 0.0000
# 6 0.0000 0.0000 0.0000 7.6629 0.0000 33.1065
#
#
#
# Elastic Compliance Matrix: (Units=1/GPa)
#
#
# Indices 1 2 3 4 5 6 
#
# 1 0.006529 -0.000355 -0.001062 0.000000 0.001312 0.000000
# 2 -0.000355 0.020120 -0.006624 0.000000 -0.005643 0.000000
# 3 -0.001062 -0.006624 0.007913 0.000000 0.005579 0.000000
# 4 0.000000 0.000000 0.000000 0.024054 0.000000 -0.005568
# 5 0.001312 -0.005643 0.005579 0.000000 0.025225 0.000000
# 6 0.000000 0.000000 0.000000 -0.005568 0.000000 0.031494
#
#
# Mechanical properties :
#
#
# Convention : Reuss Voigt Hill
#
# Bulk Modulus (GPa) = 54.10817 74.52562 64.31689
# Shear Modulus (GPa) = 36.34378 46.62067 41.48222
#
# Velocity S-wave (km/s) = 3.92321 4.44341 4.19139
# Velocity P-wave (km/s) = 6.59067 7.60834 7.11772
#
# Compressibility (1/GPa) = 0.01848150
#
# Stress axis : x y z
#
# Youngs Moduli (GPa) = 153.16954 49.70183 126.38087
#
# Poissons Ratio (x) = 0.01764 0.13415
# Poissons Ratio (y) = 0.05435 0.83709
# Poissons Ratio (z) = 0.16259 0.32920
#
# Static dielectric constant tensor:
#      x y z
#    x 1.864650 0.000000 0.047430 
#    y 0.000000 -6.527860 0.000000 
#    z 0.047430 0.000000 1.884630 
# 
# From -- ./inp_files/116611.got.cif
#   From: 2010.05.17/outbox.cif.g08.bks.cpg/sg15_59_cif.got.tgz:116611.got - 2010.06.03 18:47:42.
