data_PCOD9308703
_publ_section_title
;
Structure prediction by ZEFSAII (Michael W. Deem and Ramdas Pophale) SiO2 
 PCOD9308703
Probable space group: C 2/C
;
_chemical_formula_sum "Si O2"
_cell_formula_units_Z 30
_cell_length_a 24.000000
_cell_length_b 18.000000
_cell_length_c 15.000000
_cell_angle_alpha 90.000000
_cell_angle_beta 150.000000
_cell_angle_gamma 90.000000
_cell_volume 3240.000000
_symmetry_space_group_name_H-M "C 2/C"
_symmetry_group_IT_number 15
_symmetry_cell_setting 'monoclinic'
loop_
_space_group_symop_operation_xyz
x,y,z
-x,y,1/2-z
-x,-y,-z
x,-y,1/2+z
1/2+x,1/2+y,z
1/2-x,1/2+y,1/2-z
1/2-x,1/2-y,-z
1/2+x,1/2-y,1/2+z
loop_
_atom_site_type_symbol
_atom_site_label
_atom_site_fract_x
_atom_site_fract_y
_atom_site_fract_z
Si Si1 0.782259 0.825462 0.345019
Si Si2 0.000000 0.772009 0.750000
Si Si3 0.122074 0.999102 0.883400
Si Si4 0.070544 0.730600 0.657606
Si Si5 0.162335 0.728613 0.248161
Si Si6 0.152017 0.978372 0.119143
Si Si7 0.404081 0.408855 0.810977
Si Si8 0.883644 0.166329 0.645387
O O1 0.898314 0.818105 0.562766
O O2 0.679462 0.807839 0.267403
O O3 0.791482 0.767486 0.277119
O O4 0.774256 0.904014 0.282299
O O5 0.947713 0.726296 0.760549
O O6 0.113930 0.079112 0.825348
O O7 0.000000 0.978728 0.750000
O O8 0.158811 0.935672 0.866340
O O9 0.178979 0.008891 0.057448
O O10 0.084386 0.820575 0.661141
O O11 0.959070 0.700139 0.453867
O O12 0.127993 0.783947 0.282028
O O13 0.268256 0.681616 0.431422
O O14 0.155818 0.047177 0.191994
O O15 0.028369 0.943551 0.969076
O O16 0.000000 0.179796 0.750000
#
# Coordination Sequence:
#
# PCOD9308703 Si02
#       8
#     8   4   8   8   8   8   8   8
#     4  11  21  35  55  80 118 150 190 238 299 350
#     4  10  20  36  50  84 112 150 192 238 288 346
#     4   9  19  29  51  76 108 141 180 235 290 335
#     4  11  22  35  58  82 119 154 195 236 305 347
#     4  10  21  34  53  81 116 149 194 241 285 363
#     4  10  19  31  52  80 114 140 180 239 292 341
#     4  10  19  32  53  82 113 146 181 242 297 337
#     4  10  20  35  54  81 115 151 193 239 298 342
#
# _framework density 9.2592590000000001
#
# number of rings (size 3 to 8) (size 9 to 14) (size 15 to 20)
#    0.000    1.867    2.667    2.800    9.333    0.000 
#    0.000    0.000    0.000    0.800    3.467    0.000 
#    2.000    0.000    0.000    0.000    0.000    0.000 
#
# Total GULP energy -167001.790689 kJ/mol
# GULP energy per Si atom -5566.726356 kJ/mol
# Density = 0.923818 g / cm^3
# Si number density = 9.259259 Si / 1000 Ang^3
#
#
#
# Elastic Constant Matrix: (Units=GPa)
#
#
# Indices 1 2 3 4 5 6 
#
# 1 94.9387 23.1657 31.5114 0.0000 9.8126 0.0000
# 2 23.1657 46.9003 12.6624 0.0000 6.1334 0.0000
# 3 31.5114 12.6624 75.9002 0.0000 1.4655 0.0000
# 4 0.0000 0.0000 0.0000 13.0360 0.0000 0.8759
# 5 9.8126 6.1334 1.4655 0.0000 32.4079 0.0000
# 6 0.0000 0.0000 0.0000 0.8759 0.0000 33.4308
#
#
#
# Elastic Compliance Matrix: (Units=1/GPa)
#
#
# Indices 1 2 3 4 5 6 
#
# 1 0.013659 -0.005072 -0.004767 0.000000 -0.002960 0.000000
# 2 -0.005072 0.024758 -0.001965 0.000000 -0.003061 0.000000
# 3 -0.004767 -0.001965 0.015461 0.000000 0.001116 0.000000
# 4 0.000000 0.000000 0.000000 0.076846 0.000000 -0.002013
# 5 -0.002960 -0.003061 0.001116 0.000000 0.032282 0.000000
# 6 0.000000 0.000000 0.000000 -0.002013 0.000000 0.029965
#
#
# Mechanical properties :
#
#
# Convention : Reuss Voigt Hill
#
# Bulk Modulus (GPa) = 33.03868 39.15761 36.09814
# Shear Modulus (GPa) = 22.05838 25.80158 23.92998
#
# Velocity S-wave (km/s) = 3.45505 3.73672 3.59864
# Velocity P-wave (km/s) = 5.81344 6.30940 6.06649
#
# Compressibility (1/GPa) = 0.03026755
#
# Stress axis : x y z
#
# Youngs Moduli (GPa) = 73.21087 40.39067 64.67957
#
# Poissons Ratio (x) = 0.20488 0.30836
# Poissons Ratio (y) = 0.37136 0.12712
# Poissons Ratio (z) = 0.34903 0.07938
#
# Static dielectric constant tensor:
#      x y z
#    x 1.667750 0.000000 -0.074940 
#    y 0.000000 1.673460 0.000000 
#    z -0.074940 0.000000 1.731260 
# 
# From -- ./inp_files/174101.got.cif
#   From: 2010.05.17/outbox.ucp.g08.bks.cvg/sg15_88_cif.got.tgz:174101.got - 2010.06.11 12:40:34.
