data_PCOD9308176
_publ_section_title
;
Structure prediction by ZEFSAII (Michael W. Deem and Ramdas Pophale) SiO2 
 PCOD9308176
Probable space group: C 2/C
;
_chemical_formula_sum "Si O2"
_cell_formula_units_Z 36
_cell_length_a 18.090822
_cell_length_b 8.378148
_cell_length_c 21.678986
_cell_angle_alpha 90.000000
_cell_angle_beta 154.534530
_cell_angle_gamma 90.000000
_cell_volume 1412.799340
_symmetry_space_group_name_H-M "C 2/C"
_symmetry_group_IT_number 15
_symmetry_cell_setting 'monoclinic'
loop_
_space_group_symop_operation_xyz
x,y,z
-x,y,1/2-z
-x,-y,-z
x,-y,1/2+z
1/2+x,1/2+y,z
1/2-x,1/2+y,1/2-z
1/2-x,1/2-y,-z
1/2+x,1/2-y,1/2+z
loop_
_atom_site_type_symbol
_atom_site_label
_atom_site_fract_x
_atom_site_fract_y
_atom_site_fract_z
Si Si1 0.000000 0.993492 0.250000
Si Si2 0.161822 0.707137 0.017534
Si Si3 0.093207 0.456792 0.260729
Si Si4 0.166557 0.783595 0.272262
Si Si5 0.533884 0.683544 0.546808
O O1 0.960836 0.883351 0.280276
O O2 0.824529 0.099352 0.119014
O O3 0.237871 0.884369 0.080841
O O4 0.097030 0.698917 0.039534
O O5 0.011686 0.678588 0.855233
O O6 0.111157 0.599674 0.227939
O O7 0.000000 0.524162 0.250000
O O8 0.360687 0.764958 0.442877
O O9 0.167596 0.838267 0.202764
O O10 0.500000 0.500000 0.500000
#
# Coordination Sequence:
#
# PCOD9308176 Si02
#       5
#     4   8   8   8   8
#     4  12  30  48  84 116 160 208 270 328 398 474
#     4  12  28  48  80 114 154 211 266 321 398 473
#     4  12  26  48  77 116 157 208 264 331 387 471
#     4  12  29  51  80 117 162 205 267 330 403 466
#     4  12  29  51  82 116 161 209 261 330 401 475
#
# _framework density 25.481324999999998
#
# number of rings (size 3 to 8) (size 9 to 14) (size 15 to 20)
#    0.000    0.000    4.444    3.333    9.333    3.556 
#    0.000    0.000    0.000    0.000    0.000    0.000 
#    0.000    0.000    0.000    0.000    0.000    0.000 
#
# Total GULP energy -100560.983935 kJ/mol
# GULP energy per Si atom -5586.721330 kJ/mol
# Density = 2.542333 g / cm^3
# Si number density = 25.481325 Si / 1000 Ang^3
#
#
#
# Elastic Constant Matrix: (Units=GPa)
#
#
# Indices 1 2 3 4 5 6 
#
# 1 136.5649 42.9402 37.1934 0.0004 9.2798 -0.0001
# 2 42.9402 85.2239 15.7968 0.0001 -0.6012 0.0000
# 3 37.1934 15.7968 81.1762 0.0003 -4.4780 0.0001
# 4 0.0004 0.0001 0.0003 26.6365 0.0005 -3.4266
# 5 9.2798 -0.6012 -4.4780 0.0005 41.8246 0.0000
# 6 -0.0001 0.0000 0.0001 -3.4266 0.0000 54.4938
#
#
#
# Elastic Compliance Matrix: (Units=1/GPa)
#
#
# Indices 1 2 3 4 5 6 
#
# 1 0.009903 -0.004295 -0.003849 0.000000 -0.002671 0.000000
# 2 -0.004295 0.014036 -0.000704 0.000000 0.001079 0.000000
# 3 -0.003849 -0.000704 0.014351 0.000000 0.002380 0.000000
# 4 0.000000 0.000000 0.000000 0.037849 0.000000 0.002380
# 5 -0.002671 0.001079 0.002380 0.000000 0.024772 0.000000
# 6 0.000000 0.000000 0.000000 0.002380 0.000000 0.018500
#
#
# Mechanical properties :
#
#
# Convention : Reuss Voigt Hill
#
# Bulk Modulus (GPa) = 48.55820 54.98063 51.76942
# Shear Modulus (GPa) = 34.72933 38.39329 36.56131
#
# Velocity S-wave (km/s) = 3.69580 3.88586 3.79202
# Velocity P-wave (km/s) = 6.10816 6.46196 6.28755
#
# Compressibility (1/GPa) = 0.02059385
#
# Stress axis : x y z
#
# Youngs Moduli (GPa) = 100.98259 71.24589 69.68339
#
# Poissons Ratio (x) = 0.30600 0.26820
# Poissons Ratio (y) = 0.43371 0.04906
# Poissons Ratio (z) = 0.38866 0.05016
#
# Static dielectric constant tensor:
#      x y z
#    x 2.121140 0.000000 0.069780 
#    y 0.000000 1.968660 0.000000 
#    z 0.069780 0.000000 1.986920 
# 
# From -- ./inp_files/247925.got.cif
#   From: 2010.05.17/outbox.cif.g08.bks.cpg/sg15_124_cif.got.tgz:247925.got - 2010.06.03 18:47:42.
