data_PCOD9308028
_publ_section_title
;
Structure prediction by ZEFSAII (Michael W. Deem and Ramdas Pophale) SiO2 
 PCOD9308028
Probable space group: C 2/C
;
_chemical_formula_sum "Si O2"
_cell_formula_units_Z 40
_cell_length_a 11.303482
_cell_length_b 11.330983
_cell_length_c 21.448253
_cell_angle_alpha 90.000000
_cell_angle_beta 39.385218
_cell_angle_gamma 90.000000
_cell_volume 1743.109593
_symmetry_space_group_name_H-M "C 2/C"
_symmetry_group_IT_number 15
_symmetry_cell_setting 'monoclinic'
loop_
_space_group_symop_operation_xyz
x,y,z
-x,y,1/2-z
-x,-y,-z
x,-y,1/2+z
1/2+x,1/2+y,z
1/2-x,1/2+y,1/2-z
1/2-x,1/2-y,-z
1/2+x,1/2-y,1/2+z
loop_
_atom_site_type_symbol
_atom_site_label
_atom_site_fract_x
_atom_site_fract_y
_atom_site_fract_z
Si Si1 0.068175 0.522394 0.817873
Si Si2 0.372235 0.439664 0.103425
Si Si3 0.697501 0.498957 0.152539
Si Si4 0.257381 0.612343 0.987383
Si Si5 0.334322 0.245436 0.895986
O O1 0.198702 0.493044 0.705724
O O2 0.184316 0.495273 0.832795
O O3 0.015397 0.661025 0.829825
O O4 0.873261 0.455379 0.909591
O O5 0.524801 0.419069 0.094812
O O6 0.295167 0.323936 0.100396
O O7 0.500000 0.500000 0.000000
O O8 0.500000 0.441431 0.250000
O O9 0.804144 0.424696 0.056543
O O10 0.648932 0.624102 0.139000
O O11 0.250000 0.750000 0.000000
O O12 0.250000 0.250000 0.000000
#
# Coordination Sequence:
#
# PCOD9308028 Si02
#       5
#     8   8   8   8   8
#     4  12  26  49  79 108 150 201 253 313 383 459
#     4  12  25  49  72 111 152 189 255 316 379 456
#     4  12  25  51  75 110 151 196 256 312 384 459
#     4  12  27  49  73 110 152 198 252 320 385 458
#     4  12  26  47  81 109 149 206 254 314 384 458
#
# _framework density 22.947495
#
# number of rings (size 3 to 8) (size 9 to 14) (size 15 to 20)
#    0.000    0.000    6.000    3.600    2.800    0.000 
#    3.600    0.000    0.000    0.000    0.000    0.000 
#    0.000    0.000    0.000    0.000    0.000    0.000 
#
# Total GULP energy -111816.884195 kJ/mol
# GULP energy per Si atom -5590.844210 kJ/mol
# Density = 2.289527 g / cm^3
# Si number density = 22.947495 Si / 1000 Ang^3
#
#
#
# Elastic Constant Matrix: (Units=GPa)
#
#
# Indices 1 2 3 4 5 6 
#
# 1 111.8043 12.6782 41.5330 0.0000 8.8441 0.0000
# 2 12.6782 101.9432 40.3523 0.0000 14.5128 0.0000
# 3 41.5330 40.3523 192.5657 0.0001 16.5933 0.0000
# 4 0.0000 0.0000 0.0001 15.6863 0.0000 6.8891
# 5 8.8441 14.5128 16.5933 0.0000 46.4159 0.0000
# 6 0.0000 0.0000 0.0000 6.8891 0.0000 32.8696
#
#
#
# Elastic Compliance Matrix: (Units=1/GPa)
#
#
# Indices 1 2 3 4 5 6 
#
# 1 0.009789 -0.000289 -0.001958 0.000000 -0.001075 0.000000
# 2 -0.000289 0.011024 -0.002018 0.000000 -0.002671 0.000000
# 3 -0.001958 -0.002018 0.006141 0.000000 -0.001191 0.000000
# 4 0.000000 0.000000 0.000000 0.070213 0.000000 -0.014716
# 5 -0.001075 -0.002671 -0.001191 0.000000 0.023010 0.000000
# 6 0.000000 0.000000 0.000000 -0.014716 0.000000 0.033508
#
#
# Mechanical properties :
#
#
# Convention : Reuss Voigt Hill
#
# Bulk Modulus (GPa) = 54.27641 66.16002 60.21821
# Shear Modulus (GPa) = 29.69891 39.77768 34.73830
#
# Velocity S-wave (km/s) = 3.60142 4.16795 3.89500
# Velocity P-wave (km/s) = 6.40292 7.21499 6.82105
#
# Compressibility (1/GPa) = 0.01842421
#
# Stress axis : x y z
#
# Youngs Moduli (GPa) = 102.15085 90.70967 162.84474
#
# Poissons Ratio (x) = 0.02625 0.31888
# Poissons Ratio (y) = 0.02956 0.32856
# Poissons Ratio (z) = 0.20003 0.18302
#
# Static dielectric constant tensor:
#      x y z
#    x 1.890130 0.000000 -0.020820 
#    y 0.000000 1.788480 0.000000 
#    z -0.020820 0.000000 1.854970 
# 
# From -- ./inp_files/237350.got.cif
#   From: 2010.05.17/outbox.cif.g08.bks.cpg/sg15_119_cif.got.tgz:237350.got - 2010.06.03 18:47:42.
