data_PCOD9308129
_publ_section_title
;
Structure prediction by ZEFSAII (Michael W. Deem and Ramdas Pophale) SiO2 
 PCOD9308129
Probable space group: C 2/C
;
_chemical_formula_sum "Si O2"
_cell_formula_units_Z 36
_cell_length_a 23.445084
_cell_length_b 8.804866
_cell_length_c 19.577150
_cell_angle_alpha 90.000000
_cell_angle_beta 156.743726
_cell_angle_gamma 90.000000
_cell_volume 1595.695664
_symmetry_space_group_name_H-M "C 2/C"
_symmetry_group_IT_number 15
_symmetry_cell_setting 'monoclinic'
loop_
_space_group_symop_operation_xyz
x,y,z
-x,y,1/2-z
-x,-y,-z
x,-y,1/2+z
1/2+x,1/2+y,z
1/2-x,1/2+y,1/2-z
1/2-x,1/2-y,-z
1/2+x,1/2-y,1/2+z
loop_
_atom_site_type_symbol
_atom_site_label
_atom_site_fract_x
_atom_site_fract_y
_atom_site_fract_z
Si Si1 0.500000 0.626160 0.250000
Si Si2 0.374817 0.172558 0.490765
Si Si3 0.642339 0.651416 0.835662
Si Si4 0.882133 0.329211 0.494999
Si Si5 0.061946 0.165832 0.086185
O O1 0.581235 0.730153 0.394855
O O2 0.387358 0.514604 0.165565
O O3 0.204373 0.160855 0.289983
O O4 0.441518 0.250739 0.497708
O O5 0.436204 0.001844 0.560722
O O6 0.721587 0.664004 0.849448
O O7 0.485774 0.725113 0.654670
O O8 0.750000 0.750000 0.000000
O O9 0.894278 0.260091 0.433105
O O10 0.000000 0.000000 0.000000
#
# Coordination Sequence:
#
# PCOD9308129 Si02
#       5
#     4   8   8   8   8
#     4  12  28  48  76 116 154 196 256 306 386 456
#     4  12  28  46  78 111 154 196 250 315 375 453
#     4  12  26  47  74 106 149 194 248 304 373 450
#     4  12  26  47  74 107 143 200 250 311 376 440
#     4  12  27  51  75 110 151 198 256 314 377 446
#
# _framework density 22.560693000000001
#
# number of rings (size 3 to 8) (size 9 to 14) (size 15 to 20)
#    0.000    0.000    2.222    7.333    6.222    1.778 
#    0.000    0.000    0.000    0.000    0.000    0.000 
#    0.000    0.000    0.000    0.000    0.000    0.000 
#
# Total GULP energy -100799.897907 kJ/mol
# GULP energy per Si atom -5599.994328 kJ/mol
# Density = 2.250934 g / cm^3
# Si number density = 22.560693 Si / 1000 Ang^3
#
#
#
# Elastic Constant Matrix: (Units=GPa)
#
#
# Indices 1 2 3 4 5 6 
#
# 1 134.1750 75.7993 58.7067 0.0000 12.8336 0.0000
# 2 75.7993 175.8371 49.6494 0.0000 -10.6967 0.0000
# 3 58.7067 49.6494 127.5744 0.0000 -9.7119 0.0000
# 4 0.0000 0.0000 0.0000 38.3788 0.0000 -9.7167
# 5 12.8336 -10.6967 -9.7119 0.0000 50.0272 0.0000
# 6 0.0000 0.0000 0.0000 -9.7167 0.0000 53.7677
#
#
#
# Elastic Compliance Matrix: (Units=1/GPa)
#
#
# Indices 1 2 3 4 5 6 
#
# 1 0.012290 -0.004376 -0.004328 0.000000 -0.004929 0.000000
# 2 -0.004376 0.007987 -0.000893 0.000000 0.002657 0.000000
# 3 -0.004328 -0.000893 0.010401 0.000000 0.002939 0.000000
# 4 0.000000 0.000000 0.000000 0.027305 0.000000 0.004935
# 5 -0.004929 0.002657 0.002939 0.000000 0.022392 0.000000
# 6 0.000000 0.000000 0.000000 0.004935 0.000000 0.019490
#
#
# Mechanical properties :
#
#
# Convention : Reuss Voigt Hill
#
# Bulk Modulus (GPa) = 87.06212 89.54415 88.30313
# Shear Modulus (GPa) = 40.68800 45.33015 43.00908
#
# Velocity S-wave (km/s) = 4.25136 4.48733 4.37094
# Velocity P-wave (km/s) = 7.92292 8.16240 8.04355
#
# Compressibility (1/GPa) = 0.01148605
#
# Stress axis : x y z
#
# Youngs Moduli (GPa) = 81.36772 125.20361 96.14325
#
# Poissons Ratio (x) = 0.54785 0.41609
# Poissons Ratio (y) = 0.35604 0.08581
# Poissons Ratio (z) = 0.35214 0.11175
#
# Static dielectric constant tensor:
#      x y z
#    x 1.890730 0.000000 -0.017160 
#    y 0.000000 1.946160 0.000000 
#    z -0.017160 0.000000 1.819980 
# 
# From -- ./inp_files/283345.got.cif
#   From: 2010.05.17/outbox.cif.g08.bks.cpg/sg15_142_cif.got.tgz:283345.got - 2010.06.03 18:47:42.
