data_PCOD9308935
_publ_section_title
;
Structure prediction by ZEFSAII (Michael W. Deem and Ramdas Pophale) SiO2 
 PCOD9308935
Probable space group: C 2/C
;
_chemical_formula_sum "Si O2"
_cell_formula_units_Z 24
_cell_length_a 12.000000
_cell_length_b 18.000000
_cell_length_c 12.000000
_cell_angle_alpha 90.000000
_cell_angle_beta 90.000000
_cell_angle_gamma 90.000000
_cell_volume 2592.000000
_symmetry_space_group_name_H-M "C 2/C"
_symmetry_group_IT_number 15
_symmetry_cell_setting 'monoclinic'
loop_
_space_group_symop_operation_xyz
x,y,z
-x,y,1/2-z
-x,-y,-z
x,-y,1/2+z
1/2+x,1/2+y,z
1/2-x,1/2+y,1/2-z
1/2-x,1/2-y,-z
1/2+x,1/2-y,1/2+z
loop_
_atom_site_type_symbol
_atom_site_label
_atom_site_fract_x
_atom_site_fract_y
_atom_site_fract_z
Si Si1 0.877094 0.013681 0.046312
Si Si2 0.707568 0.349481 0.379511
Si Si3 0.646106 0.186398 0.406983
Si Si4 0.765731 0.574427 0.271349
Si Si5 0.775427 0.420491 0.147309
Si Si6 0.446997 0.919813 0.967548
O O1 0.850539 0.058088 0.162197
O O2 0.833494 0.929417 0.072032
O O3 0.816068 0.060599 0.948142
O O4 0.000000 0.000000 0.000000
O O5 0.632318 0.274204 0.380178
O O6 0.800255 0.324826 0.470013
O O7 0.742930 0.368646 0.252089
O O8 0.720157 0.145541 0.309969
O O9 0.534547 0.138333 0.418500
O O10 0.794483 0.502299 0.198173
O O11 0.855126 0.572932 0.371033
O O12 0.883449 0.393317 0.079423
O O13 0.500000 0.000000 0.000000
#
# Coordination Sequence:
#
# PCOD9308935 Si02
#       6
#     8   8   8   8   8   8
#     4  10  21  41  63  85 113 159 213 249 286 362
#     4  10  23  40  60  84 125 161 197 246 307 355
#     4  11  21  40  58  89 129 158 190 252 310 363
#     4  10  20  36  60  89 119 152 196 249 300 355
#     4  10  20  39  61  89 116 157 203 249 297 362
#     4  11  20  34  63  93 119 153 201 246 303 366
#
# _framework density 9.2592590000000001
#
# number of rings (size 3 to 8) (size 9 to 14) (size 15 to 20)
#    0.000    1.667    3.333    2.500    0.000    4.667 
#    9.000    1.667    0.000    0.000    0.000    0.000 
#    0.000    0.000    0.000    0.000    0.000    0.000 
#
# Total GULP energy -133632.851971 kJ/mol
# GULP energy per Si atom -5568.035499 kJ/mol
# Density = 0.923818 g / cm^3
# Si number density = 9.259259 Si / 1000 Ang^3
#
#
#
# Elastic Constant Matrix: (Units=GPa)
#
#
# Indices 1 2 3 4 5 6 
#
# 1 66.8736 7.6578 26.7509 0.0000 -25.4049 0.0000
# 2 7.6578 76.4152 20.1096 0.0000 -10.5488 0.0000
# 3 26.7509 20.1096 121.6447 0.0000 -22.2763 0.0000
# 4 0.0000 0.0000 0.0000 35.8905 0.0000 -3.3194
# 5 -25.4049 -10.5488 -22.2763 0.0000 28.5392 0.0000
# 6 0.0000 0.0000 0.0000 -3.3194 0.0000 22.3082
#
#
#
# Elastic Compliance Matrix: (Units=1/GPa)
#
#
# Indices 1 2 3 4 5 6 
#
# 1 0.022878 0.000810 -0.001611 0.000000 0.019407 0.000000
# 2 0.000810 0.014081 -0.001658 0.000000 0.004632 0.000000
# 3 -0.001611 -0.001658 0.009887 0.000000 0.005671 0.000000
# 4 0.000000 0.000000 0.000000 0.028251 0.000000 0.004204
# 5 0.019407 0.004632 0.005671 0.000000 0.058454 0.000000
# 6 0.000000 0.000000 0.000000 0.004204 0.000000 0.045452
#
#
# Mechanical properties :
#
#
# Convention : Reuss Voigt Hill
#
# Bulk Modulus (GPa) = 23.84953 41.55224 32.70089
# Shear Modulus (GPa) = 25.26565 31.37526 28.32046
#
# Velocity S-wave (km/s) = 3.69771 4.12061 3.91487
# Velocity P-wave (km/s) = 5.58010 6.71760 6.17510
#
# Compressibility (1/GPa) = 0.04192955
#
# Stress axis : x y z
#
# Youngs Moduli (GPa) = 43.71011 71.01830 101.13805
#
# Poissons Ratio (x) = -0.05755 0.16294
# Poissons Ratio (y) = -0.03542 0.16766
# Poissons Ratio (z) = 0.07042 0.11773
#
# Static dielectric constant tensor:
#      x y z
#    x 1.723760 0.000000 0.011720 
#    y 0.000000 1.658880 0.000000 
#    z 0.011720 0.000000 1.657330 
# 
# From -- ./inp_files/87241.got.cif
#   From: 2010.05.17/outbox.ucp.g08.bks.cvg/sg15_44_cif.got.tgz:87241.got - 2010.06.11 12:40:34.
