data_PCOD9308639
_publ_section_title
;
Structure prediction by ZEFSAII (Michael W. Deem and Ramdas Pophale) SiO2 
 PCOD9308639
Probable space group: C 2/C
;
_chemical_formula_sum "Si O2"
_cell_formula_units_Z 32
_cell_length_a 27.000000
_cell_length_b 18.000000
_cell_length_c 24.000000
_cell_angle_alpha 90.000000
_cell_angle_beta 20.000000
_cell_angle_gamma 90.000000
_cell_volume 3989.322952
_symmetry_space_group_name_H-M "C 2/C"
_symmetry_group_IT_number 15
_symmetry_cell_setting 'monoclinic'
loop_
_space_group_symop_operation_xyz
x,y,z
-x,y,1/2-z
-x,-y,-z
x,-y,1/2+z
1/2+x,1/2+y,z
1/2-x,1/2+y,1/2-z
1/2-x,1/2-y,-z
1/2+x,1/2-y,1/2+z
loop_
_atom_site_type_symbol
_atom_site_label
_atom_site_fract_x
_atom_site_fract_y
_atom_site_fract_z
Si Si1 0.376456 0.972629 0.199334
Si Si2 0.378685 0.517631 0.193159
Si Si3 0.153012 0.590616 0.358516
Si Si4 0.117687 0.255229 0.939719
Si Si5 0.851915 0.094949 0.633185
Si Si6 0.661870 0.245968 0.699443
Si Si7 0.791690 0.092764 0.521280
Si Si8 0.137754 0.091803 0.176807
O O1 0.355735 0.052417 0.192327
O O2 0.302031 0.916227 0.233513
O O3 0.301858 0.957399 0.337236
O O4 0.543792 0.951737 0.016479
O O5 0.305428 0.573627 0.226206
O O6 0.351254 0.436697 0.196283
O O7 0.327209 0.537298 0.309076
O O8 0.546496 0.539054 0.009707
O O9 0.116660 0.676397 0.399256
O O10 0.094603 0.177413 0.933821
O O11 0.268185 0.251973 0.813431
O O12 0.005333 0.267277 0.109112
O O13 0.732603 0.176376 0.593496
O O14 0.678232 0.324034 0.651025
O O15 0.787502 0.072568 0.460618
O O16 0.962592 0.091130 0.355423
#
# Coordination Sequence:
#
# PCOD9308639 Si02
#       8
#     8   8   8   8   8   8   8   8
#     4  10  18  34  44  68  89 129 151 192 234 277
#     4  10  18  32  46  70  86 124 161 199 220 270
#     4  10  20  28  50  66  96 117 157 190 238 278
#     4  12  18  30  49  70  93 129 149 192 237 282
#     4  10  18  30  50  62  96 121 156 192 239 270
#     4  12  19  32  44  68  99 122 163 185 221 280
#     4  11  21  33  48  64  98 131 160 192 231 273
#     4  11  21  33  47  68  93 131 165 191 226 272
#
# _framework density 8.0214110000000005
#
# number of rings (size 3 to 8) (size 9 to 14) (size 15 to 20)
#    0.000    1.250    7.500    0.375    0.000    0.000 
#    0.000    1.875    0.000    0.000    0.000    0.875 
#    0.000    0.000    0.000    0.000    0.000    0.000 
#
# Total GULP energy -178258.776451 kJ/mol
# GULP energy per Si atom -5570.586764 kJ/mol
# Density = 0.800315 g / cm^3
# Si number density = 8.021411 Si / 1000 Ang^3
#
#
#
# Elastic Constant Matrix: (Units=GPa)
#
#
# Indices 1 2 3 4 5 6 
#
# 1 75.1778 38.7339 18.5921 0.0008 31.4891 -0.0009
# 2 38.7339 55.6312 17.7953 0.0041 22.2634 -0.0038
# 3 18.5921 17.7953 43.8885 -0.0047 18.3564 0.0026
# 4 0.0008 0.0041 -0.0047 14.3093 -0.0006 5.8241
# 5 31.4891 22.2634 18.3564 -0.0006 33.2748 0.0004
# 6 -0.0009 -0.0038 0.0026 5.8241 0.0004 23.3456
#
#
#
# Elastic Compliance Matrix: (Units=1/GPa)
#
#
# Indices 1 2 3 4 5 6 
#
# 1 0.026542 -0.011637 0.000941 0.000002 -0.017850 -0.000001
# 2 -0.011637 0.030206 -0.004512 -0.000013 -0.006708 0.000008
# 3 0.000941 -0.004512 0.030322 0.000014 -0.014599 -0.000007
# 4 0.000002 -0.000013 0.000014 0.077783 0.000001 -0.019405
# 5 -0.017850 -0.006708 -0.014599 0.000001 0.059487 -0.000001
# 6 -0.000001 0.000008 -0.000007 -0.019405 -0.000001 0.047676
#
#
# Mechanical properties :
#
#
# Convention : Reuss Voigt Hill
#
# Bulk Modulus (GPa) = 17.65150 36.10446 26.87798
# Shear Modulus (GPa) = 15.56098 20.82436 18.19267
#
# Velocity S-wave (km/s) = 3.11781 3.60675 3.37115
# Velocity P-wave (km/s) = 4.89771 6.31655 5.65183
#
# Compressibility (1/GPa) = 0.05665241
#
# Stress axis : x y z
#
# Youngs Moduli (GPa) = 37.67636 33.10583 32.97948
#
# Poissons Ratio (x) = 0.38527 -0.03102
# Poissons Ratio (y) = 0.43846 0.14880
# Poissons Ratio (z) = -0.03544 0.14937
#
# Static dielectric constant tensor:
#      x y z
#    x 1.545940 0.000000 -0.023160 
#    y 0.000000 1.543250 0.000000 
#    z -0.023160 0.000000 1.557410 
# 
# From -- ./inp_files/282248.got.cif
#   From: 2010.05.17/outbox.ucp.g08.bks.cvg/sg15_142_cif.got.tgz:282248.got - 2010.06.11 12:40:34.
