data_PCOD9308546
_publ_section_title
;
Structure prediction by ZEFSAII (Michael W. Deem and Ramdas Pophale) SiO2 
 PCOD9308546
Probable space group: C 2/C
;
_chemical_formula_sum "Si O2"
_cell_formula_units_Z 40
_cell_length_a 11.997181
_cell_length_b 11.060849
_cell_length_c 13.952466
_cell_angle_alpha 90.000000
_cell_angle_beta 60.239527
_cell_angle_gamma 90.000000
_cell_volume 1607.283382
_symmetry_space_group_name_H-M "C 2/C"
_symmetry_group_IT_number 15
_symmetry_cell_setting 'monoclinic'
loop_
_space_group_symop_operation_xyz
x,y,z
-x,y,1/2-z
-x,-y,-z
x,-y,1/2+z
1/2+x,1/2+y,z
1/2-x,1/2+y,1/2-z
1/2-x,1/2-y,-z
1/2+x,1/2-y,1/2+z
loop_
_atom_site_type_symbol
_atom_site_label
_atom_site_fract_x
_atom_site_fract_y
_atom_site_fract_z
Si Si1 0.209168 0.560334 0.164025
Si Si2 0.912758 0.703986 0.124396
Si Si3 0.616230 0.545356 0.754925
Si Si4 0.648992 0.203520 0.695581
Si Si5 0.317351 0.808131 0.088184
O O1 0.105445 0.602902 0.286744
O O2 0.331393 0.532004 0.179852
O O3 0.169821 0.430279 0.140492
O O4 0.247580 0.680868 0.089689
O O5 0.929530 0.829588 0.175747
O O6 0.780102 0.719114 0.119111
O O7 0.042312 0.678977 0.013438
O O8 0.500000 0.486851 0.750000
O O9 0.719863 0.579755 0.628818
O O10 0.500000 0.236442 0.750000
O O11 0.665416 0.194402 0.803573
#
# Coordination Sequence:
#
# PCOD9308546 Si02
#       5
#     8   8   8   8   8
#     4   8  18  34  50  68 100 130 160 204 246 286
#     4   9  19  35  52  72 100 131 163 201 244 290
#     4   9  19  33  50  74 100 129 165 201 242 290
#     4   9  19  33  50  74 100 129 165 201 242 290
#     4   9  19  35  52  72 100 131 163 201 244 290
#
# _framework density 24.886711999999999
#
# number of rings (size 3 to 8) (size 9 to 14) (size 15 to 20)
#    0.000    4.000    0.000    0.000    0.000   14.400 
#    0.000    4.000    0.000    0.000    0.000    0.000 
#    0.000    0.000    0.000    0.000    0.000    0.000 
#
# Total GULP energy -111547.680438 kJ/mol
# GULP energy per Si atom -5577.384022 kJ/mol
# Density = 2.483007 g / cm^3
# Si number density = 24.886712 Si / 1000 Ang^3
#
#
#
# Elastic Constant Matrix: (Units=GPa)
#
#
# Indices 1 2 3 4 5 6 
#
# 1 122.8439 26.9913 25.7876 0.0000 -47.5733 0.0000
# 2 26.9913 122.1436 8.0389 0.0000 -12.1619 0.0000
# 3 25.7876 8.0389 104.3946 0.0000 -49.4759 0.0000
# 4 0.0000 0.0000 0.0000 -14.3047 0.0000 30.0179
# 5 -47.5733 -12.1619 -49.4759 0.0000 46.7743 0.0000
# 6 0.0000 0.0000 0.0000 30.0179 0.0000 -11.9881
#
#
#
# Elastic Compliance Matrix: (Units=1/GPa)
#
#
# Indices 1 2 3 4 5 6 
#
# 1 0.016231 -0.001691 0.007492 0.000000 0.023993 0.000000
# 2 -0.001691 0.008613 0.000001 0.000000 0.000521 0.000000
# 3 0.007492 0.000001 0.022739 0.000000 0.031673 0.000000
# 4 0.000000 0.000000 0.000000 0.016431 0.000000 0.041144
# 5 0.023993 0.000521 0.031673 0.000000 0.079420 0.000000
# 6 0.000000 0.000000 0.000000 0.041144 0.000000 0.019606
#
#
# Mechanical properties :
#
#
# Convention : Reuss Voigt Hill
#
# Bulk Modulus (GPa) = 16.89534 52.33532 34.61533
# Shear Modulus (GPa) = 29.21174 23.33393 26.27283
#
# Velocity S-wave (km/s) = 3.42978 3.06536 3.25267
# Velocity P-wave (km/s) = 4.74217 5.79686 5.29584
#
# Compressibility (1/GPa) = 0.05918793
#
# Stress axis : x y z
#
# Youngs Moduli (GPa) = 61.61047 116.11002 43.97745
#
# Poissons Ratio (x) = 0.19632 -0.32948
# Poissons Ratio (y) = 0.10417 -0.00007
# Poissons Ratio (z) = -0.46159 -0.00017
#
# Static dielectric constant tensor:
#      x y z
#    x 2.170340 0.000000 -0.110290 
#    y 0.000000 2.049230 0.000000 
#    z -0.110290 0.000000 2.087030 
# 
# From -- ./inp_files/122784.got.cif
#   From: 2010.05.17/outbox.cif.g08.bks.cpg/sg15_62_cif.got.tgz:122784.got - 2010.06.03 18:47:42.
