data_PCOD9308467
_publ_section_title
;
Structure prediction by ZEFSAII (Michael W. Deem and Ramdas Pophale) SiO2 
 PCOD9308467
Probable space group: C 2/C
;
_chemical_formula_sum "Si O2"
_cell_formula_units_Z 40
_cell_length_a 21.231461
_cell_length_b 6.968076
_cell_length_c 9.807312
_cell_angle_alpha 90.000000
_cell_angle_beta 67.058759
_cell_angle_gamma 90.000000
_cell_volume 1336.157393
_symmetry_space_group_name_H-M "C 2/C"
_symmetry_group_IT_number 15
_symmetry_cell_setting 'monoclinic'
loop_
_space_group_symop_operation_xyz
x,y,z
-x,y,1/2-z
-x,-y,-z
x,-y,1/2+z
1/2+x,1/2+y,z
1/2-x,1/2+y,1/2-z
1/2-x,1/2-y,-z
1/2+x,1/2-y,1/2+z
loop_
_atom_site_type_symbol
_atom_site_label
_atom_site_fract_x
_atom_site_fract_y
_atom_site_fract_z
Si Si1 0.104931 0.808359 0.671748
Si Si2 0.300770 0.341943 0.129299
Si Si3 0.594228 0.766856 0.736269
Si Si4 0.809192 0.274338 0.067054
Si Si5 0.994958 0.771156 0.533523
O O1 0.179309 0.775811 0.541331
O O2 0.051023 0.743720 0.603382
O O3 0.077589 0.719979 0.836532
O O4 0.093142 0.038224 0.700587
O O5 0.349318 0.225835 0.191288
O O6 0.229272 0.359831 0.269562
O O7 0.326257 0.560282 0.101611
O O8 0.627946 0.859251 0.573567
O O9 0.523095 0.819527 0.870057
O O10 0.750000 0.250000 0.000000
O O11 0.000000 0.000000 0.500000
#
# Coordination Sequence:
#
# PCOD9308467 Si02
#       5
#     8   8   8   8   8
#     4   8  13  21  34  56  82 105 130 164 204 245
#     4   9  16  27  42  59  84 112 140 171 205 244
#     4   8  14  24  38  57  82 108 132 167 206 243
#     4   9  17  29  42  59  83 111 140 173 207 244
#     4   8  12  19  34  55  80 106 128 159 207 248
#
# _framework density 29.936592000000001
#
# number of rings (size 3 to 8) (size 9 to 14) (size 15 to 20)
#    0.000    3.600    0.000    0.000    0.000    0.000 
#    0.000    9.000    0.000    0.000    0.000    1.400 
#    0.000  144.000    0.000  100.000    0.000    3.400 
#
# Total GULP energy -111809.092063 kJ/mol
# GULP energy per Si atom -5590.454603 kJ/mol
# Density = 2.986845 g / cm^3
# Si number density = 29.936592 Si / 1000 Ang^3
#
#
#
# Elastic Constant Matrix: (Units=GPa)
#
#
# Indices 1 2 3 4 5 6 
#
# 1 109.0046 20.2469 88.0502 0.0000 -24.4779 0.0000
# 2 20.2469 105.4386 27.0312 0.0000 2.1382 0.0000
# 3 88.0502 27.0312 466.4392 0.0000 -66.6660 0.0000
# 4 0.0000 0.0000 0.0000 19.2014 0.0000 -16.1793
# 5 -24.4779 2.1382 -66.6660 0.0000 70.8492 0.0000
# 6 0.0000 0.0000 0.0000 -16.1793 0.0000 22.5079
#
#
#
# Elastic Compliance Matrix: (Units=1/GPa)
#
#
# Indices 1 2 3 4 5 6 
#
# 1 0.011428 -0.001804 -0.001711 0.000000 0.002393 0.000000
# 2 -0.001804 0.009967 -0.000426 0.000000 -0.001325 0.000000
# 3 -0.001711 -0.000426 0.002783 0.000000 0.002041 0.000000
# 4 0.000000 0.000000 0.000000 0.132078 0.000000 0.094941
# 5 0.002393 -0.001325 0.002041 0.000000 0.016902 0.000000
# 6 0.000000 0.000000 0.000000 0.094941 0.000000 0.112675
#
#
# Mechanical properties :
#
#
# Convention : Reuss Voigt Hill
#
# Bulk Modulus (GPa) = 61.36766 105.72655 83.54710
# Shear Modulus (GPa) = 16.71413 58.88198 37.79805
#
# Velocity S-wave (km/s) = 2.36544 4.43977 3.55717
# Velocity P-wave (km/s) = 5.29189 7.85338 6.69626
#
# Compressibility (1/GPa) = 0.01629523
#
# Stress axis : x y z
#
# Youngs Moduli (GPa) = 87.50153 100.33207 359.29616
#
# Poissons Ratio (x) = 0.18105 0.61466
# Poissons Ratio (y) = 0.15790 0.15321
# Poissons Ratio (z) = 0.14969 0.04278
#
# Static dielectric constant tensor:
#      x y z
#    x 2.693160 0.000000 0.062970 
#    y 0.000000 2.558520 0.000000 
#    z 0.062970 0.000000 2.407900 
# 
# From -- ./inp_files/115939.got.cif
#   From: 2010.05.17/outbox.cif.g08.bks.cpg/sg15_58_cif.got.tgz:115939.got - 2010.06.03 18:47:42.
