data_PCOD9308876
_publ_section_title
;
Structure prediction by ZEFSAII (Michael W. Deem and Ramdas Pophale) SiO2 
 PCOD9308876
Probable space group: C 2/C
;
_chemical_formula_sum "Si O2"
_cell_formula_units_Z 24
_cell_length_a 24.000000
_cell_length_b 12.000000
_cell_length_c 27.000000
_cell_angle_alpha 90.000000
_cell_angle_beta 160.000000
_cell_angle_gamma 90.000000
_cell_volume 2659.548635
_symmetry_space_group_name_H-M "C 2/C"
_symmetry_group_IT_number 15
_symmetry_cell_setting 'monoclinic'
loop_
_space_group_symop_operation_xyz
x,y,z
-x,y,1/2-z
-x,-y,-z
x,-y,1/2+z
1/2+x,1/2+y,z
1/2-x,1/2+y,1/2-z
1/2-x,1/2-y,-z
1/2+x,1/2-y,1/2+z
loop_
_atom_site_type_symbol
_atom_site_label
_atom_site_fract_x
_atom_site_fract_y
_atom_site_fract_z
Si Si1 0.006133 0.906012 0.111685
Si Si2 0.804760 0.769450 0.866310
Si Si3 0.971202 0.364601 0.021048
Si Si4 0.255269 0.028913 0.256779
Si Si5 0.622760 0.396983 0.922560
Si Si6 0.220864 0.189035 0.399040
O O1 0.163454 0.825349 0.256873
O O2 0.080774 0.985012 0.130232
O O3 0.927996 0.988209 0.089502
O O4 0.875590 0.824088 0.975918
O O5 0.741928 0.869686 0.779024
O O6 0.953060 0.721267 0.956066
O O7 0.132629 0.431594 0.172040
O O8 0.847334 0.436890 0.884380
O O9 0.867428 0.331784 0.982548
O O10 0.450856 0.331256 0.772076
O O11 0.701013 0.392130 0.931550
O O12 0.745693 0.315490 0.054888
#
# Coordination Sequence:
#
# PCOD9308876 Si02
#       6
#     8   8   8   8   8   8
#     4  11  22  38  59  88 127 160 200 244 301 360
#     4  11  22  36  58  89 127 156 196 247 301 368
#     4  10  20  34  57  86 117 151 192 243 302 348
#     4  10  20  35  54  88 115 156 192 240 300 356
#     4  10  22  39  60  90 115 155 200 247 299 346
#     4  10  21  38  62  85 118 151 196 252 294 353
#
# _framework density 9.0240880000000008
#
# number of rings (size 3 to 8) (size 9 to 14) (size 15 to 20)
#    0.000    1.667    3.333    1.500    0.000    1.333 
#    0.000    0.000    0.000    9.000    0.000    0.000 
#    0.000    0.000    0.000    0.000    0.000    0.000 
#
# Total GULP energy -133606.407559 kJ/mol
# GULP energy per Si atom -5566.933648 kJ/mol
# Density = 0.900355 g / cm^3
# Si number density = 9.024088 Si / 1000 Ang^3
#
#
#
# Elastic Constant Matrix: (Units=GPa)
#
#
# Indices 1 2 3 4 5 6 
#
# 1 102.3866 34.5522 27.6003 -0.0016 11.9286 -0.0001
# 2 34.5522 86.9362 34.4005 0.0043 -4.4379 -0.0010
# 3 27.6003 34.4005 55.7692 0.0029 -3.8738 -0.0003
# 4 -0.0016 0.0043 0.0029 40.2074 -0.0010 -1.0337
# 5 11.9286 -4.4379 -3.8738 -0.0010 23.2003 -0.0006
# 6 -0.0001 -0.0010 -0.0003 -1.0337 -0.0006 41.0947
#
#
#
# Elastic Compliance Matrix: (Units=1/GPa)
#
#
# Indices 1 2 3 4 5 6 
#
# 1 0.013334 -0.003818 -0.004827 0.000001 -0.008392 0.000000
# 2 -0.003818 0.016352 -0.007936 -0.000001 0.003766 0.000000
# 3 -0.004827 -0.007936 0.025579 -0.000001 0.005235 0.000000
# 4 0.000001 -0.000001 -0.000001 0.024887 0.000000 0.000626
# 5 -0.008392 0.003766 0.005235 0.000000 0.049012 0.000001
# 6 0.000000 0.000000 0.000000 0.000626 0.000001 0.024350
#
#
# Mechanical properties :
#
#
# Convention : Reuss Voigt Hill
#
# Bulk Modulus (GPa) = 45.24078 48.68867 46.96472
# Shear Modulus (GPa) = 25.76735 30.80310 28.28523
#
# Velocity S-wave (km/s) = 3.78259 4.13572 3.96309
# Velocity P-wave (km/s) = 6.64819 7.05983 6.85710
#
# Compressibility (1/GPa) = 0.02210395
#
# Stress axis : x y z
#
# Youngs Moduli (GPa) = 74.99442 61.15275 39.09520
#
# Poissons Ratio (x) = 0.23348 0.18871
# Poissons Ratio (y) = 0.28633 0.31025
# Poissons Ratio (z) = 0.36200 0.48529
#
# Static dielectric constant tensor:
#      x y z
#    x 1.630790 0.000000 -0.004750 
#    y 0.000000 1.670410 0.000000 
#    z -0.004750 0.000000 1.668520 
# 
# From -- ./inp_files/283563.got.cif
#   From: 2010.05.17/outbox.ucp.g08.bks.cvg/sg15_142_cif.got.tgz:283563.got - 2010.06.11 12:40:34.
