data_PCOD9308697
_publ_section_title
;
Structure prediction by ZEFSAII (Michael W. Deem and Ramdas Pophale) SiO2 
 PCOD9308697
Probable space group: C 2/C
;
_chemical_formula_sum "Si O2"
_cell_formula_units_Z 32
_cell_length_a 30.000000
_cell_length_b 9.000000
_cell_length_c 24.000000
_cell_angle_alpha 90.000000
_cell_angle_beta 150.000000
_cell_angle_gamma 90.000000
_cell_volume 3240.000000
_symmetry_space_group_name_H-M "C 2/C"
_symmetry_group_IT_number 15
_symmetry_cell_setting 'monoclinic'
loop_
_space_group_symop_operation_xyz
x,y,z
-x,y,1/2-z
-x,-y,-z
x,-y,1/2+z
1/2+x,1/2+y,z
1/2-x,1/2+y,1/2-z
1/2-x,1/2-y,-z
1/2+x,1/2-y,1/2+z
loop_
_atom_site_type_symbol
_atom_site_label
_atom_site_fract_x
_atom_site_fract_y
_atom_site_fract_z
Si Si1 0.083570 0.415231 0.659142
Si Si2 0.472240 0.685037 0.485002
Si Si3 0.098707 0.476194 0.493057
Si Si4 0.614529 0.644571 0.549875
Si Si5 0.365503 0.281151 0.184684
Si Si6 0.160170 0.352190 0.958720
Si Si7 0.311708 0.131574 0.804839
Si Si8 0.447326 0.392787 0.087865
O O1 0.030565 0.337786 0.550842
O O2 0.132240 0.302356 0.753505
O O3 0.152654 0.523264 0.704782
O O4 0.005483 0.488593 0.610896
O O5 0.532759 0.604126 0.503824
O O6 0.369858 0.717884 0.357527
O O7 0.465895 0.662763 0.544696
O O8 0.111683 0.308732 0.523932
O O9 0.127022 0.513114 0.460956
O O10 0.157026 0.572665 0.600694
O O11 0.706121 0.634512 0.683605
O O12 0.603061 0.543000 0.482720
O O13 0.372811 0.167920 0.140342
O O14 0.453229 0.386958 0.278149
O O15 0.267769 0.352511 0.073728
O O16 0.117197 0.212608 0.946279
#
# Coordination Sequence:
#
# PCOD9308697 Si02
#       8
#     8   8   8   8   8   8   8   8
#     4  10  18  39  62  83 120 168 202 254 306 369
#     4  10  20  37  54  88 122 168 204 242 300 381
#     4  11  22  38  62  89 127 165 214 248 314 384
#     4  12  25  35  59  95 132 164 203 251 323 381
#     4  10  23  39  71  89 117 160 222 273 295 372
#     4  11  22  42  67  94 114 162 222 262 316 365
#     4  11  21  35  62  85 128 169 198 253 308 384
#     4  11  23  38  61  91 128 160 206 264 311 366
#
# _framework density 9.8765429999999999
#
# number of rings (size 3 to 8) (size 9 to 14) (size 15 to 20)
#    0.000    1.250    6.250    2.250    5.250    1.000 
#    0.000    0.000    5.500    2.250    0.000    0.000 
#    0.000    0.000    0.000    0.000    0.000    0.000 
#
# Total GULP energy -178239.528409 kJ/mol
# GULP energy per Si atom -5569.985263 kJ/mol
# Density = 0.985406 g / cm^3
# Si number density = 9.876543 Si / 1000 Ang^3
#
#
#
# Elastic Constant Matrix: (Units=GPa)
#
#
# Indices 1 2 3 4 5 6 
#
# 1 69.3283 9.1716 -4.1036 0.0000 -1.8697 0.0000
# 2 9.1716 -81.3882 32.2502 0.0000 9.1008 0.0000
# 3 -4.1036 32.2502 79.7489 0.0000 3.8808 0.0000
# 4 0.0000 0.0000 0.0000 14.5953 0.0000 -1.6478
# 5 -1.8697 9.1008 3.8808 0.0000 27.9728 0.0000
# 6 0.0000 0.0000 0.0000 -1.6478 0.0000 23.0544
#
#
#
# Elastic Compliance Matrix: (Units=1/GPa)
#
#
# Indices 1 2 3 4 5 6 
#
# 1 0.014217 0.001663 0.000039 0.000000 0.000404 0.000000
# 2 0.001663 -0.010171 0.004060 0.000000 0.002857 0.000000
# 3 0.000039 0.004060 0.011038 0.000000 -0.002850 0.000000
# 4 0.000000 0.000000 0.000000 0.069073 0.000000 0.004937
# 5 0.000404 0.002857 -0.002850 0.000000 0.035242 0.000000
# 6 0.000000 0.000000 0.000000 0.004937 0.000000 0.043728
#
#
# Mechanical properties :
#
#
# Convention : Reuss Voigt Hill
#
# Bulk Modulus (GPa) = 37.58175 15.81395 26.69785
# Shear Modulus (GPa) = 31.15796 15.14922 23.15359
#
# Velocity S-wave (km/s) = 3.97592 2.77235 3.42738
# Velocity P-wave (km/s) = 6.33596 4.27447 5.40442
#
# Compressibility (1/GPa) = 0.02660866
#
# Stress axis : x y z
#
# Youngs Moduli (GPa) = 70.33655 -98.31644 90.59367
#
# Poissons Ratio (x) = 0.16349 -0.00357
# Poissons Ratio (y) = -0.11696 -0.36779
# Poissons Ratio (z) = -0.00277 0.39914
#
# Static dielectric constant tensor:
#      x y z
#    x 1.689650 0.000000 0.041770 
#    y 0.000000 1.926060 0.000000 
#    z 0.041770 0.000000 1.781640 
# 
# From -- ./inp_files/284463.got.cif
#   From: 2010.05.17/outbox.ucp.g08.bks.cvg/sg15_143_cif.got.tgz:284463.got - 2010.06.11 12:40:34.
