data_PCOD9308014
_publ_section_title
;
Structure prediction by ZEFSAII (Michael W. Deem and Ramdas Pophale) SiO2 
 PCOD9308014
Probable space group: C 2/C
;
_chemical_formula_sum "Si O2"
_cell_formula_units_Z 44
_cell_length_a 20.037795
_cell_length_b 15.367000
_cell_length_c 13.670536
_cell_angle_alpha 90.000000
_cell_angle_beta 157.381011
_cell_angle_gamma 90.000000
_cell_volume 1618.956874
_symmetry_space_group_name_H-M "C 2/C"
_symmetry_group_IT_number 15
_symmetry_cell_setting 'monoclinic'
loop_
_space_group_symop_operation_xyz
x,y,z
-x,y,1/2-z
-x,-y,-z
x,-y,1/2+z
1/2+x,1/2+y,z
1/2-x,1/2+y,1/2-z
1/2-x,1/2-y,-z
1/2+x,1/2-y,1/2+z
loop_
_atom_site_type_symbol
_atom_site_label
_atom_site_fract_x
_atom_site_fract_y
_atom_site_fract_z
Si Si1 0.000000 0.935222 0.750000
Si Si2 0.622422 0.027951 0.733233
Si Si3 0.532687 0.120194 0.187980
Si Si4 0.077737 0.322817 0.450075
Si Si5 0.307616 0.722192 0.712308
Si Si6 0.420791 0.408940 0.862831
O O1 0.050319 0.891700 0.713833
O O2 0.824732 0.985137 0.479840
O O3 0.533089 0.055945 0.495839
O O4 0.632798 0.966963 0.851951
O O5 0.577362 0.124364 0.710782
O O6 0.369682 0.165201 0.022002
O O7 0.657045 0.194817 0.310775
O O8 0.171859 0.259967 0.651747
O O9 0.222127 0.393881 0.619972
O O10 0.000000 0.278797 0.250000
O O11 0.469839 0.658997 0.922900
O O12 0.500000 0.500000 0.000000
#
# Coordination Sequence:
#
# PCOD9308014 Si02
#       6
#     4   8   8   8   8   8
#     4  12  28  46  84 110 144 204 258 312 384 454
#     4  12  25  50  77 112 150 200 253 315 375 457
#     4  12  27  49  75 106 156 198 256 308 383 452
#     4  12  25  48  76 107 153 195 248 315 384 454
#     4  12  27  49  75 112 149 201 249 323 376 453
#     4  12  28  50  74 110 151 196 258 310 386 459
#
# _framework density 27.177994000000002
#
# number of rings (size 3 to 8) (size 9 to 14) (size 15 to 20)
#    0.000    0.000    5.455    4.364    3.818    0.727 
#    3.273    0.000    0.000    0.000    0.000    0.000 
#    0.000    0.000    0.000    0.000    0.000    0.000 
#
# Total GULP energy -122657.883946 kJ/mol
# GULP energy per Si atom -5575.358361 kJ/mol
# Density = 2.711614 g / cm^3
# Si number density = 27.177994 Si / 1000 Ang^3
#
#
#
# Elastic Constant Matrix: (Units=GPa)
#
#
# Indices 1 2 3 4 5 6 
#
# 1 47.1127 -18.4570 -7.5370 0.0000 10.4673 0.0000
# 2 -18.4570 74.4165 8.3316 0.0000 0.1225 0.0000
# 3 -7.5370 8.3316 149.7028 0.0000 12.3558 0.0000
# 4 0.0000 0.0000 0.0000 31.0230 0.0000 -7.4584
# 5 10.4673 0.1225 12.3558 0.0000 38.7148 0.0000
# 6 0.0000 0.0000 0.0000 -7.4584 0.0000 57.4068
#
#
#
# Elastic Compliance Matrix: (Units=1/GPa)
#
#
# Indices 1 2 3 4 5 6 
#
# 1 0.025542 0.006173 0.001555 0.000000 -0.007421 0.000000
# 2 0.006173 0.015016 -0.000394 0.000000 -0.001591 0.000000
# 3 0.001555 -0.000394 0.006999 0.000000 -0.002653 0.000000
# 4 0.000000 0.000000 0.000000 0.033273 0.000000 0.004323
# 5 -0.007421 -0.001591 -0.002653 0.000000 0.028688 0.000000
# 6 0.000000 0.000000 0.000000 0.004323 0.000000 0.017981
#
#
# Mechanical properties :
#
#
# Convention : Reuss Voigt Hill
#
# Bulk Modulus (GPa) = 16.07067 26.21191 21.14129
# Shear Modulus (GPa) = 37.43297 44.68855 41.06076
#
# Velocity S-wave (km/s) = 3.71526 4.05939 3.89113
# Velocity P-wave (km/s) = 4.93256 5.62467 5.28995
#
# Compressibility (1/GPa) = 0.06222515
#
# Stress axis : x y z
#
# Youngs Moduli (GPa) = 39.15168 66.59725 142.87658
#
# Poissons Ratio (x) = -0.41111 -0.22216
# Poissons Ratio (y) = -0.24169 0.05623
# Poissons Ratio (z) = -0.06088 0.02621
#
# Static dielectric constant tensor:
#      x y z
#    x 2.439000 0.000000 -0.256740 
#    y 0.000000 2.054700 0.000000 
#    z -0.256740 0.000000 2.375870 
# 
# From -- ./inp_files/219776.got.cif
#   From: 2010.05.17/outbox.cif.g08.bks.cpg/sg15_110_cif.got.tgz:219776.got - 2010.06.03 18:47:42.
