data_PCOD9308903
_publ_section_title
;
Structure prediction by ZEFSAII (Michael W. Deem and Ramdas Pophale) SiO2 
 PCOD9308903
Probable space group: C 2/C
;
_chemical_formula_sum "Si O2"
_cell_formula_units_Z 30
_cell_length_a 24.000000
_cell_length_b 15.000000
_cell_length_c 27.000000
_cell_angle_alpha 90.000000
_cell_angle_beta 20.000000
_cell_angle_gamma 90.000000
_cell_volume 3324.435793
_symmetry_space_group_name_H-M "C 2/C"
_symmetry_group_IT_number 15
_symmetry_cell_setting 'monoclinic'
loop_
_space_group_symop_operation_xyz
x,y,z
-x,y,1/2-z
-x,-y,-z
x,-y,1/2+z
1/2+x,1/2+y,z
1/2-x,1/2+y,1/2-z
1/2-x,1/2-y,-z
1/2+x,1/2-y,1/2+z
loop_
_atom_site_type_symbol
_atom_site_label
_atom_site_fract_x
_atom_site_fract_y
_atom_site_fract_z
Si Si1 0.473710 0.011309 0.650937
Si Si2 0.147072 0.961317 0.488832
Si Si3 0.508885 0.368281 0.431348
Si Si4 0.882603 0.630698 0.635703
Si Si5 0.000000 0.760041 0.750000
Si Si6 0.602528 0.340306 0.865593
Si Si7 0.784725 0.386162 0.482040
Si Si8 0.038592 0.656996 0.405220
O O1 0.312026 0.034859 0.818062
O O2 0.469686 0.068649 0.603297
O O3 0.626217 0.039351 0.558468
O O4 0.467551 0.908930 0.636643
O O5 0.202659 0.927406 0.498724
O O6 0.016599 0.892667 0.572397
O O7 0.064034 0.060047 0.547214
O O8 0.691211 0.390548 0.296940
O O9 0.418191 0.371386 0.559983
O O10 0.513091 0.262171 0.413002
O O11 0.924040 0.733617 0.614732
O O12 0.912591 0.624500 0.551842
O O13 0.075415 0.687956 0.648018
O O14 0.151252 0.830112 0.625326
O O15 0.796274 0.351706 0.699634
#
# Coordination Sequence:
#
# PCOD9308903 Si02
#       8
#     8   8   8   8   4   8   8   8
#     4  12  22  39  62  89 123 159 207 254 294 365
#     4  12  22  38  65  87 119 167 208 246 297 367
#     4  10  20  39  58  86 118 158 199 250 306 358
#     4  10  22  34  58  92 123 151 198 249 315 362
#     4  10  24  46  60  88 134 158 198 250 294 350
#     4  10  20  35  59  89 121 155 198 246 306 369
#     4  11  26  42  66  92 125 163 209 240 302 358
#     4  10  22  38  59  91 122 155 198 261 310 353
#
# _framework density 9.0240880000000008
#
# number of rings (size 3 to 8) (size 9 to 14) (size 15 to 20)
#    0.000    1.333    4.000    1.600    3.733    2.133 
#    0.000    0.667    0.000    0.000    0.000    0.000 
#    0.000    0.000    0.000    0.000    0.000    0.000 
#
# Total GULP energy -167003.535406 kJ/mol
# GULP energy per Si atom -5566.784514 kJ/mol
# Density = 0.900355 g / cm^3
# Si number density = 9.024088 Si / 1000 Ang^3
#
#
#
# Elastic Constant Matrix: (Units=GPa)
#
#
# Indices 1 2 3 4 5 6 
#
# 1 103.7156 57.8318 0.1192 0.0011 -25.4091 -0.0004
# 2 57.8318 112.1802 16.5605 -0.0034 -16.8184 -0.0001
# 3 0.1192 16.5605 51.3959 -0.0002 -11.7274 -0.0017
# 4 0.0011 -0.0034 -0.0002 30.5964 -0.0019 -3.7990
# 5 -25.4091 -16.8184 -11.7274 -0.0019 19.1373 0.0008
# 6 -0.0004 -0.0001 -0.0017 -3.7990 0.0008 27.3539
#
#
#
# Elastic Compliance Matrix: (Units=1/GPa)
#
#
# Indices 1 2 3 4 5 6 
#
# 1 0.020055 -0.007831 0.008117 0.000000 0.024720 0.000000
# 2 -0.007831 0.013419 -0.004635 0.000002 -0.001445 0.000000
# 3 0.008117 -0.004635 0.026112 0.000001 0.022705 0.000001
# 4 0.000000 0.000002 0.000001 0.033257 0.000005 0.004619
# 5 0.024720 -0.001445 0.022705 0.000005 0.097719 0.000000
# 6 0.000000 0.000000 0.000001 0.004619 0.000000 0.037199
#
#
# Mechanical properties :
#
#
# Convention : Reuss Voigt Hill
#
# Bulk Modulus (GPa) = 19.65104 46.25719 32.95411
# Shear Modulus (GPa) = 19.72985 28.26953 23.99969
#
# Velocity S-wave (km/s) = 3.30991 3.96199 3.65054
# Velocity P-wave (km/s) = 5.05164 6.82754 6.00560
#
# Compressibility (1/GPa) = 0.05088789
#
# Stress axis : x y z
#
# Youngs Moduli (GPa) = 49.86263 74.52104 38.29597
#
# Poissons Ratio (x) = 0.58359 -0.31086
# Poissons Ratio (y) = 0.39048 0.17752
# Poissons Ratio (z) = -0.40475 0.34543
#
# Static dielectric constant tensor:
#      x y z
#    x 1.598660 0.000000 0.024360 
#    y 0.000000 1.650540 0.000010 
#    z 0.024360 0.000010 1.683190 
# 
# From -- ./inp_files/302343.got.cif
#   From: 2010.05.17/outbox.ucp.g08.bks.cvg/sg15_152_cif.got.tgz:302343.got - 2010.06.11 12:40:34.
