data_PCOD9308297
_publ_section_title
;
Structure prediction by ZEFSAII (Michael W. Deem and Ramdas Pophale) SiO2 
 PCOD9308297
Probable space group: C 2/C
;
_chemical_formula_sum "Si O2"
_cell_formula_units_Z 40
_cell_length_a 7.660358
_cell_length_b 17.071085
_cell_length_c 12.602435
_cell_angle_alpha 90.000000
_cell_angle_beta 130.757151
_cell_angle_gamma 90.000000
_cell_volume 1248.354237
_symmetry_space_group_name_H-M "C 2/C"
_symmetry_group_IT_number 15
_symmetry_cell_setting 'monoclinic'
loop_
_space_group_symop_operation_xyz
x,y,z
-x,y,1/2-z
-x,-y,-z
x,-y,1/2+z
1/2+x,1/2+y,z
1/2-x,1/2+y,1/2-z
1/2-x,1/2-y,-z
1/2+x,1/2-y,1/2+z
loop_
_atom_site_type_symbol
_atom_site_label
_atom_site_fract_x
_atom_site_fract_y
_atom_site_fract_z
Si Si1 0.274474 0.364131 0.376793
Si Si2 0.184134 0.038418 0.759510
Si Si3 0.887197 0.324590 0.593833
Si Si4 0.723027 0.315001 0.917657
Si Si5 0.734760 0.998965 0.968318
O O1 0.334956 0.367068 0.274244
O O2 0.325794 0.279737 0.461053
O O3 0.295745 0.396727 0.513878
O O4 0.000000 0.355385 0.250000
O O5 0.454847 0.009256 0.872166
O O6 0.191520 0.031562 0.625747
O O7 0.118993 0.018359 0.861384
O O8 0.750000 0.250000 0.500000
O O9 0.926438 0.345053 0.920849
O O10 0.000000 0.306106 0.750000
O O11 0.743806 0.403539 0.557867
O O12 0.500000 0.312997 0.750000
#
# Coordination Sequence:
#
# PCOD9308297 Si02
#       5
#     8   8   8   8   8
#     4   9  17  40  63  94 142 173 232 278 347 401
#     4   8  19  33  67  95 129 179 217 280 337 406
#     4  12  27  45  72 101 137 180 233 279 341 419
#     4   8  23  40  66  97 138 182 220 284 346 404
#     4   9  21  36  67  96 129 174 231 277 338 402
#
# _framework density 32.042186000000001
#
# number of rings (size 3 to 8) (size 9 to 14) (size 15 to 20)
#    2.400    0.000    0.000    1.800    5.600    2.400 
#    0.000    4.000    0.000    0.000    0.000    0.000 
#    0.000    0.000    0.000    0.000    0.000    0.000 
#
# Total GULP energy -111594.066586 kJ/mol
# GULP energy per Si atom -5579.703329 kJ/mol
# Density = 3.196926 g / cm^3
# Si number density = 32.042186 Si / 1000 Ang^3
#
#
#
# Elastic Constant Matrix: (Units=GPa)
#
#
# Indices 1 2 3 4 5 6 
#
# 1 314.6204 78.9165 105.8535 0.0000 -54.7393 0.0000
# 2 78.9165 295.7299 131.4947 0.0000 -45.5276 0.0000
# 3 105.8535 131.4947 373.1423 0.0000 -41.8470 0.0001
# 4 0.0000 0.0000 0.0000 109.5669 0.0000 64.2849
# 5 -54.7393 -45.5276 -41.8470 0.0000 87.0777 0.0001
# 6 0.0000 0.0000 0.0001 64.2849 0.0001 252.7864
#
#
#
# Elastic Compliance Matrix: (Units=1/GPa)
#
#
# Indices 1 2 3 4 5 6 
#
# 1 0.003853 -0.000415 -0.000739 0.000000 0.001850 0.000000
# 2 -0.000415 0.004248 -0.001226 0.000000 0.001371 0.000000
# 3 -0.000739 -0.001226 0.003380 0.000000 0.000519 0.000000
# 4 0.000000 0.000000 0.000000 0.010727 0.000000 -0.002728
# 5 0.001850 0.001371 0.000519 0.000000 0.013613 0.000000
# 6 0.000000 0.000000 0.000000 -0.002728 0.000000 0.004650
#
#
# Mechanical properties :
#
#
# Convention : Reuss Voigt Hill
#
# Bulk Modulus (GPa) = 148.77238 179.55799 164.16519
# Shear Modulus (GPa) = 105.32655 134.36809 119.84732
#
# Velocity S-wave (km/s) = 5.73956 6.48273 6.12243
# Velocity P-wave (km/s) = 9.51075 10.59217 10.06599
#
# Compressibility (1/GPa) = 0.00672168
#
# Stress axis : x y z
#
# Youngs Moduli (GPa) = 259.53152 235.39284 295.87669
#
# Poissons Ratio (x) = 0.09759 0.21879
# Poissons Ratio (y) = 0.10760 0.36264
# Poissons Ratio (z) = 0.19192 0.28851
#
# Static dielectric constant tensor:
#      x y z
#    x 2.297920 0.000000 -0.178190 
#    y 0.000000 2.656100 0.000000 
#    z -0.178190 0.000000 2.295590 
# 
# From -- ./inp_files/135618.got.cif
#   From: 2010.05.17/outbox.cif.g08.bks.cpg/sg15_68_cif.got.tgz:135618.got - 2010.06.03 18:47:42.
