data_PCOD9308441
_publ_section_title
;
Structure prediction by ZEFSAII (Michael W. Deem and Ramdas Pophale) SiO2 
 PCOD9308441
Probable space group: C 2/C
;
_chemical_formula_sum "Si O2"
_cell_formula_units_Z 24
_cell_length_a 20.276656
_cell_length_b 4.881120
_cell_length_c 19.126064
_cell_angle_alpha 90.000000
_cell_angle_beta 153.645878
_cell_angle_gamma 90.000000
_cell_volume 840.318650
_symmetry_space_group_name_H-M "C 2/C"
_symmetry_group_IT_number 15
_symmetry_cell_setting 'monoclinic'
loop_
_space_group_symop_operation_xyz
x,y,z
-x,y,1/2-z
-x,-y,-z
x,-y,1/2+z
1/2+x,1/2+y,z
1/2-x,1/2+y,1/2-z
1/2-x,1/2-y,-z
1/2+x,1/2-y,1/2+z
loop_
_atom_site_type_symbol
_atom_site_label
_atom_site_fract_x
_atom_site_fract_y
_atom_site_fract_z
Si Si1 0.353698 0.948636 0.736768
Si Si2 0.447348 0.537273 0.123756
Si Si3 0.553380 0.781840 0.016011
O O1 0.477678 0.177832 0.822891
O O2 0.226362 0.043252 0.557551
O O3 0.416355 0.027348 0.880391
O O4 0.220017 0.739950 0.646097
O O5 0.500000 0.448360 0.250000
O O6 0.517820 0.305075 0.138787
O O7 0.500000 0.500000 0.000000
#
# Coordination Sequence:
#
# PCOD9308441 Si02
#       3
#     8   8   8
#     4   6  15  20  36  54  71  92 116 140 175 212
#     4   8  12  22  36  54  74  88 110 148 182 208
#     4   8  14  24  34  52  76  96 114 138 176 212
#
# _framework density 28.560593000000001
#
# number of rings (size 3 to 8) (size 9 to 14) (size 15 to 20)
#    4.000    0.000    0.000    1.000    0.000    0.000 
#    0.000    6.667    0.000    0.000    0.000    2.333 
#    0.000    0.000    0.000    0.000    0.000    0.000 
#
# Total GULP energy -66845.093473 kJ/mol
# GULP energy per Si atom -5570.424456 kJ/mol
# Density = 2.849559 g / cm^3
# Si number density = 28.560593 Si / 1000 Ang^3
#
#
#
# Elastic Constant Matrix: (Units=GPa)
#
#
# Indices 1 2 3 4 5 6 
#
# 1 147.2722 36.2653 79.7109 -0.0004 -59.7887 -0.0002
# 2 36.2653 193.2053 58.7628 0.0071 7.2882 0.0023
# 3 79.7109 58.7628 393.7906 0.0006 -37.9185 0.0005
# 4 -0.0004 0.0071 0.0006 38.6742 0.0005 3.3998
# 5 -59.7887 7.2882 -37.9185 0.0005 63.3718 -0.0003
# 6 -0.0002 0.0023 0.0005 3.3998 -0.0003 56.3810
#
#
#
# Elastic Compliance Matrix: (Units=1/GPa)
#
#
# Indices 1 2 3 4 5 6 
#
# 1 0.012713 -0.002497 -0.001081 0.000000 0.011635 0.000000
# 2 -0.002497 0.005996 -0.000724 -0.000001 -0.003478 0.000000
# 3 -0.001081 -0.000724 0.002946 0.000000 0.000827 0.000000
# 4 0.000000 -0.000001 0.000000 0.025995 0.000000 -0.001568
# 5 0.011635 -0.003478 0.000827 0.000000 0.027652 0.000000
# 6 0.000000 0.000000 0.000000 -0.001568 0.000000 0.017831
#
#
# Mechanical properties :
#
#
# Convention : Reuss Voigt Hill
#
# Bulk Modulus (GPa) = 76.61542 120.41623 98.51582
# Shear Modulus (GPa) = 47.13154 68.98735 58.05945
#
# Velocity S-wave (km/s) = 4.06671 4.92008 4.51361
# Velocity P-wave (km/s) = 6.99533 8.63304 7.85697
#
# Compressibility (1/GPa) = 0.01305220
#
# Stress axis : x y z
#
# Youngs Moduli (GPa) = 78.65796 166.77859 339.46539
#
# Poissons Ratio (x) = 0.41638 0.36680
# Poissons Ratio (y) = 0.19638 0.24588
# Poissons Ratio (z) = 0.08499 0.12080
#
# Static dielectric constant tensor:
#      x y z
#    x 2.389780 0.000000 -0.281140 
#    y 0.000000 2.110220 0.000000 
#    z -0.281140 0.000000 2.232320 
# 
# From -- ./inp_files/53115.got.cif
#   From: 2010.05.17/outbox.cif.g08.bks.cpg/sg15_27_cif.got.tgz:53115.got - 2010.06.03 18:47:42.
