data_PCOD9308504
_publ_section_title
;
Structure prediction by ZEFSAII (Michael W. Deem and Ramdas Pophale) SiO2 
 PCOD9308504
Probable space group: C 2/C
;
_chemical_formula_sum "Si O2"
_cell_formula_units_Z 48
_cell_length_a 29.332838
_cell_length_b 12.950264
_cell_length_c 24.526161
_cell_angle_alpha 90.000000
_cell_angle_beta 166.210165
_cell_angle_gamma 90.000000
_cell_volume 2220.740305
_symmetry_space_group_name_H-M "C 2/C"
_symmetry_group_IT_number 15
_symmetry_cell_setting 'monoclinic'
loop_
_space_group_symop_operation_xyz
x,y,z
-x,y,1/2-z
-x,-y,-z
x,-y,1/2+z
1/2+x,1/2+y,z
1/2-x,1/2+y,1/2-z
1/2-x,1/2-y,-z
1/2+x,1/2-y,1/2+z
loop_
_atom_site_type_symbol
_atom_site_label
_atom_site_fract_x
_atom_site_fract_y
_atom_site_fract_z
Si Si1 0.516393 0.289719 0.996130
Si Si2 0.724488 0.082772 0.620804
Si Si3 0.811886 0.226167 0.633290
Si Si4 0.624733 0.588803 0.950381
Si Si5 0.905320 0.955651 0.491512
Si Si6 0.650357 0.084282 0.115660
O O1 0.683994 0.332640 0.231143
O O2 0.509123 0.167503 0.978491
O O3 0.562780 0.340532 0.991513
O O4 0.325666 0.342765 0.798257
O O5 0.673414 0.150005 0.507522
O O6 0.901732 0.011979 0.805956
O O7 0.600414 0.996934 0.509318
O O8 0.750000 0.250000 0.500000
O O9 0.810968 0.340226 0.658019
O O10 0.004954 0.162449 0.852420
O O11 0.500000 0.581471 0.750000
O O12 0.632536 0.480469 0.989584
O O13 0.737703 0.012209 0.263876
#
# Coordination Sequence:
#
# PCOD9308504 Si02
#       6
#     8   8   8   8   8   8
#     4   9  16  27  42  59  81 109 137 165 199 241
#     4   8  15  27  41  58  83 112 134 160 205 248
#     4   9  16  26  41  61  82 105 132 162 201 244
#     4   9  16  26  41  61  81 104 133 167 202 239
#     4   8  15  27  41  58  82 110 137 162 198 246
#     4   9  16  27  42  59  82 110 137 166 200 240
#
# _framework density 21.614415000000001
#
# number of rings (size 3 to 8) (size 9 to 14) (size 15 to 20)
#    0.000    3.333    0.000    3.000    0.000    0.000 
#    0.000    5.000    0.000    0.000    0.000   22.167 
#    0.000    0.000    0.000    0.000    0.000    0.000 
#
# Total GULP energy -133636.462660 kJ/mol
# GULP energy per Si atom -5568.185944 kJ/mol
# Density = 2.156522 g / cm^3
# Si number density = 21.614415 Si / 1000 Ang^3
#
#
#
# Elastic Constant Matrix: (Units=GPa)
#
#
# Indices 1 2 3 4 5 6 
#
# 1 82.6066 34.8314 16.0580 -0.0319 -6.9498 -0.0275
# 2 34.8314 111.5920 21.7803 -0.0421 -7.5702 -0.0412
# 3 16.0580 21.7803 21.0442 -0.0181 3.1180 -0.0176
# 4 -0.0319 -0.0421 -0.0181 25.6554 -0.0057 3.8538
# 5 -6.9498 -7.5702 3.1180 -0.0057 22.0217 0.0024
# 6 -0.0275 -0.0412 -0.0176 3.8538 0.0024 60.5680
#
#
#
# Elastic Compliance Matrix: (Units=1/GPa)
#
#
# Indices 1 2 3 4 5 6 
#
# 1 0.015595 -0.002524 -0.010099 0.000009 0.005484 0.000002
# 2 -0.002524 0.012364 -0.011626 0.000010 0.005100 0.000003
# 3 -0.010099 -0.011626 0.069786 0.000013 -0.017065 0.000008
# 4 0.000009 0.000010 0.000013 0.039354 0.000015 -0.002504
# 5 0.005484 0.005100 -0.017065 0.000015 0.051310 -0.000002
# 6 0.000002 0.000003 0.000008 -0.002504 -0.000002 0.016670
#
#
# Mechanical properties :
#
#
# Convention : Reuss Voigt Hill
#
# Bulk Modulus (GPa) = 20.30635 40.06468 30.18551
# Shear Modulus (GPa) = 18.51895 31.15389 24.83642
#
# Velocity S-wave (km/s) = 2.93027 3.80063 3.39347
# Velocity P-wave (km/s) = 4.56770 6.15110 5.41756
#
# Compressibility (1/GPa) = 0.04924568
#
# Stress axis : x y z
#
# Youngs Moduli (GPa) = 64.12495 80.87816 14.32945
#
# Poissons Ratio (x) = 0.20417 0.14472
# Poissons Ratio (y) = 0.16188 0.16659
# Poissons Ratio (z) = 0.64762 0.94029
#
# Static dielectric constant tensor:
#      x y z
#    x 1.888430 -0.000030 0.066370 
#    y -0.000030 1.811030 -0.000040 
#    z 0.066370 -0.000040 1.861980 
# 
# From -- ./inp_files/60598.got.cif
#   From: 2010.05.17/outbox.cif.g08.bks.cpg/sg15_31_cif.got.tgz:60598.got - 2010.06.03 18:47:42.
