data_PCOD9308323
_publ_section_title
;
Structure prediction by ZEFSAII (Michael W. Deem and Ramdas Pophale) SiO2 
 PCOD9308323
Probable space group: C 2/C
;
_chemical_formula_sum "Si O2"
_cell_formula_units_Z 32
_cell_length_a 11.967126
_cell_length_b 23.867133
_cell_length_c 6.677799
_cell_angle_alpha 90.000000
_cell_angle_beta 39.591502
_cell_angle_gamma 90.000000
_cell_volume 1215.553252
_symmetry_space_group_name_H-M "C 2/C"
_symmetry_group_IT_number 15
_symmetry_cell_setting 'monoclinic'
loop_
_space_group_symop_operation_xyz
x,y,z
-x,y,1/2-z
-x,-y,-z
x,-y,1/2+z
1/2+x,1/2+y,z
1/2-x,1/2+y,1/2-z
1/2-x,1/2-y,-z
1/2+x,1/2-y,1/2+z
loop_
_atom_site_type_symbol
_atom_site_label
_atom_site_fract_x
_atom_site_fract_y
_atom_site_fract_z
Si Si1 0.500000 0.210135 0.250000
Si Si2 0.721828 0.874386 0.632681
Si Si3 0.500000 0.937949 0.250000
Si Si4 0.140547 0.008103 0.680532
Si Si5 0.605630 0.292872 0.786513
O O1 0.336608 0.168983 0.455615
O O2 0.510752 0.250025 0.424720
O O3 0.821270 0.925601 0.396669
O O4 0.824788 0.840146 0.660751
O O5 0.555990 0.900078 0.982943
O O6 0.327234 0.974043 0.435198
O O7 0.090757 0.003817 0.999407
O O8 0.500000 0.318862 0.750000
O O9 0.750000 0.250000 0.500000
#
# Coordination Sequence:
#
# PCOD9308323 Si02
#       5
#     4   8   4   8   8
#     4  12  27  48  82 120 168 214 279 346 420 502
#     4  12  27  48  84 120 166 227 270 349 432 486
#     4  12  27  54  78 118 172 212 289 350 410 514
#     4  12  28  51  78 118 163 217 282 343 412 499
#     4  12  27  52  79 121 165 211 283 347 414 513
#
# _framework density 26.325461000000001
#
# number of rings (size 3 to 8) (size 9 to 14) (size 15 to 20)
#    0.000    0.000    5.000    3.750    5.250    1.000 
#    0.000    0.000    0.000    0.000    0.000    0.000 
#    0.000    0.000    0.000    0.000    0.000    0.000 
#
# Total GULP energy -89684.725027 kJ/mol
# GULP energy per Si atom -5605.295314 kJ/mol
# Density = 2.626554 g / cm^3
# Si number density = 26.325461 Si / 1000 Ang^3
#
#
#
# Elastic Constant Matrix: (Units=GPa)
#
#
# Indices 1 2 3 4 5 6 
#
# 1 208.9217 79.3100 62.5959 0.0000 31.7431 0.0000
# 2 79.3100 177.8267 83.4458 0.0000 1.3243 0.0000
# 3 62.5959 83.4458 161.2393 0.0000 -6.3510 0.0000
# 4 0.0000 0.0000 0.0000 43.1268 0.0000 16.4290
# 5 31.7431 1.3243 -6.3510 0.0000 48.4148 0.0000
# 6 0.0000 0.0000 0.0000 16.4290 0.0000 42.4217
#
#
#
# Elastic Compliance Matrix: (Units=1/GPa)
#
#
# Indices 1 2 3 4 5 6 
#
# 1 0.006843 -0.002225 -0.001688 0.000000 -0.004647 0.000000
# 2 -0.002225 0.008175 -0.003336 0.000000 0.000798 0.000000
# 3 -0.001688 -0.003336 0.008676 0.000000 0.002336 0.000000
# 4 0.000000 0.000000 0.000000 0.027200 0.000000 -0.010534
# 5 -0.004647 0.000798 0.002336 0.000000 0.023986 0.000000
# 6 0.000000 0.000000 0.000000 -0.010534 0.000000 0.027652
#
#
# Mechanical properties :
#
#
# Convention : Reuss Voigt Hill
#
# Bulk Modulus (GPa) = 108.74174 110.96569 109.85372
# Shear Modulus (GPa) = 41.63337 48.30175 44.96756
#
# Velocity S-wave (km/s) = 3.98111 4.28809 4.13745
# Velocity P-wave (km/s) = 7.90750 8.17068 8.04017
#
# Compressibility (1/GPa) = 0.00919610
#
# Stress axis : x y z
#
# Youngs Moduli (GPa) = 146.13340 122.32111 115.26658
#
# Poissons Ratio (x) = 0.27220 0.19457
# Poissons Ratio (y) = 0.32519 0.38448
# Poissons Ratio (z) = 0.24667 0.40801
#
# Static dielectric constant tensor:
#      x y z
#    x 2.115290 0.000000 -0.038650 
#    y 0.000000 1.928760 0.000000 
#    z -0.038650 0.000000 2.091090 
# 
# From -- ./inp_files/4011.got.cif
#   From: 2010.05.17/outbox.cif.g08.bks.cpg/sg15_3_cif.got.tgz:4011.got - 2010.06.03 18:47:42.
