data_PCOD9308974
_publ_section_title
;
Structure prediction by ZEFSAII (Michael W. Deem and Ramdas Pophale) SiO2 
 PCOD9308974
Probable space group: C 2/C
;
_chemical_formula_sum "Si O2"
_cell_formula_units_Z 26
_cell_length_a 15.000000
_cell_length_b 21.000000
_cell_length_c 18.000000
_cell_angle_alpha 90.000000
_cell_angle_beta 150.000000
_cell_angle_gamma 90.000000
_cell_volume 2835.000000
_symmetry_space_group_name_H-M "C 2/C"
_symmetry_group_IT_number 15
_symmetry_cell_setting 'monoclinic'
loop_
_space_group_symop_operation_xyz
x,y,z
-x,y,1/2-z
-x,-y,-z
x,-y,1/2+z
1/2+x,1/2+y,z
1/2-x,1/2+y,1/2-z
1/2-x,1/2-y,-z
1/2+x,1/2-y,1/2+z
loop_
_atom_site_type_symbol
_atom_site_label
_atom_site_fract_x
_atom_site_fract_y
_atom_site_fract_z
Si Si1 0.650450 0.321289 0.061646
Si Si2 0.229835 0.231796 0.218412
Si Si3 0.650601 0.456291 0.142772
Si Si4 0.560314 0.156947 0.501163
Si Si5 0.500000 0.859638 0.250000
Si Si6 0.961572 0.436106 0.069054
Si Si7 0.181288 0.046614 0.836227
O O1 0.702266 0.275145 0.165787
O O2 0.645567 0.391776 0.092087
O O3 0.820010 0.319505 0.130503
O O4 0.455135 0.302543 0.893222
O O5 0.392959 0.181318 0.330994
O O6 0.173894 0.281555 0.112648
O O7 0.618975 0.444913 0.206371
O O8 0.857310 0.478315 0.293762
O O9 0.500000 0.500000 0.000000
O O10 0.491485 0.116825 0.525019
O O11 0.690760 0.106931 0.555081
O O12 0.457392 0.901161 0.145622
O O13 0.797869 0.482472 0.932582
O O14 0.000000 0.044195 0.750000
#
# Coordination Sequence:
#
# PCOD9308974 Si02
#       7
#     8   8   8   8   4   8   8
#     4  10  21  36  58  84 117 154 193 238 283 350
#     4  10  20  37  62  81 113 161 201 229 285 354
#     4  10  21  38  61  82 114 155 194 235 294 353
#     4  10  20  42  58  85 113 156 197 242 286 354
#     4  10  20  38  52  90 124 144 194 244 284 350
#     4  10  22  38  59  83 123 150 189 241 295 355
#     4  11  24  39  60  90 118 152 197 251 298 343
#
# _framework density 9.1710759999999993
#
# number of rings (size 3 to 8) (size 9 to 14) (size 15 to 20)
#    0.000    1.846    4.615    1.846    8.615    0.615 
#    0.000    0.769    0.000    0.000    0.000    0.000 
#    0.000    0.000    0.000    0.000    0.000    0.000 
#
# Total GULP energy -144793.184991 kJ/mol
# GULP energy per Si atom -5568.968653 kJ/mol
# Density = 0.915020 g / cm^3
# Si number density = 9.171076 Si / 1000 Ang^3
#
#
#
# Elastic Constant Matrix: (Units=GPa)
#
#
# Indices 1 2 3 4 5 6 
#
# 1 -6.4554 -3.9082 -7.9041 -0.0075 26.5689 -0.0161
# 2 -3.9082 68.7650 37.6329 -0.0091 22.8122 -0.0106
# 3 -7.9041 37.6329 114.1523 -0.0085 32.2049 -0.0112
# 4 -0.0075 -0.0091 -0.0085 67.9258 -0.0014 56.1940
# 5 26.5689 22.8122 32.2049 -0.0014 24.0893 0.0015
# 6 -0.0161 -0.0106 -0.0112 56.1940 0.0015 116.0488
#
#
#
# Elastic Compliance Matrix: (Units=1/GPa)
#
#
# Indices 1 2 3 4 5 6 
#
# 1 -0.013258 -0.007053 -0.007389 0.000000 0.031181 -0.000004
# 2 -0.007053 0.017778 -0.006092 0.000001 -0.000911 -0.000001
# 3 -0.007389 -0.006092 0.010163 0.000000 0.000332 -0.000001
# 4 0.000000 0.000001 0.000000 0.024561 0.000000 -0.011893
# 5 0.031181 -0.000911 0.000332 0.000000 0.007541 0.000004
# 6 -0.000004 -0.000001 -0.000001 -0.011893 0.000004 0.014376
#
#
# Mechanical properties :
#
#
# Convention : Reuss Voigt Hill
#
# Bulk Modulus (GPa) = -37.89757 25.34476 -6.27640
# Shear Modulus (GPa) = 53.51287 51.65555 52.58421
#
# Velocity S-wave (km/s) = 5.40723 5.31257 5.36011
# Velocity P-wave (km/s) = 4.27526 7.17488 5.90579
#
# Compressibility (1/GPa) = -0.02638691
#
# Stress axis : x y z
#
# Youngs Moduli (GPa) = -75.42765 56.25024 98.39297
#
# Poissons Ratio (x) = 0.39676 0.72707
# Poissons Ratio (y) = -0.53202 0.59943
# Poissons Ratio (z) = -0.55737 0.34269
#
# Static dielectric constant tensor:
#      x y z
#    x 1.672380 0.000000 0.035440 
#    y 0.000000 1.726140 0.000000 
#    z 0.035440 0.000000 1.597100 
# 
# From -- ./inp_files/40867.got.cif
#   From: 2010.05.17/outbox.ucp.g08.bks.cvg/sg15_21_cif.got.tgz:40867.got - 2010.06.11 12:40:34.
