data_PCOD9308786
_publ_section_title
;
Structure prediction by ZEFSAII (Michael W. Deem and Ramdas Pophale) SiO2 
 PCOD9308786
Probable space group: C 2/C
;
_chemical_formula_sum "Si O2"
_cell_formula_units_Z 32
_cell_length_a 9.000000
_cell_length_b 18.000000
_cell_length_c 30.000000
_cell_angle_alpha 90.000000
_cell_angle_beta 140.000000
_cell_angle_gamma 90.000000
_cell_volume 3123.947783
_symmetry_space_group_name_H-M "C 2/C"
_symmetry_group_IT_number 15
_symmetry_cell_setting 'monoclinic'
loop_
_space_group_symop_operation_xyz
x,y,z
-x,y,1/2-z
-x,-y,-z
x,-y,1/2+z
1/2+x,1/2+y,z
1/2-x,1/2+y,1/2-z
1/2-x,1/2-y,-z
1/2+x,1/2-y,1/2+z
loop_
_atom_site_type_symbol
_atom_site_label
_atom_site_fract_x
_atom_site_fract_y
_atom_site_fract_z
Si Si1 0.543143 0.520834 0.077950
Si Si2 0.114534 0.487452 0.421303
Si Si3 0.753717 0.476223 0.214575
Si Si4 0.755990 0.583111 0.299389
Si Si5 0.030712 0.666305 0.569928
Si Si6 0.588092 0.326994 0.917455
Si Si7 0.548310 0.347035 0.212954
Si Si8 0.195316 0.316679 0.760933
O O1 0.757474 0.495042 0.096969
O O2 0.569214 0.494900 0.134309
O O3 0.522260 0.610215 0.075600
O O4 0.310648 0.491268 0.001824
O O5 0.898326 0.542741 0.370237
O O6 0.038043 0.404189 0.415252
O O7 0.731116 0.525680 0.252935
O O8 0.719739 0.393386 0.222686
O O9 0.000000 0.488756 0.250000
O O10 0.500000 0.608049 0.250000
O O11 0.874019 0.652749 0.303095
O O12 0.307456 0.663379 0.631505
O O13 0.864405 0.661721 0.487925
O O14 0.968734 0.744401 0.578785
O O15 0.448080 0.335934 0.838926
O O16 0.500000 0.385278 0.250000
O O17 0.668129 0.270766 0.253344
O O18 0.000000 0.345445 0.750000
#
# Coordination Sequence:
#
# PCOD9308786 Si02
#       8
#     8   8   8   8   8   8   8   8
#     4  10  21  38  62  91 120 161 203 251 305 373
#     4  10  21  38  60  92 125 157 200 254 313 362
#     4  12  23  38  63  89 122 162 209 249 302 373
#     4  12  24  39  61  90 124 159 199 257 310 364
#     4  10  20  36  60  90 121 155 201 253 307 364
#     4  10  19  36  60  91 115 157 208 250 298 369
#     4  11  23  39  61  90 124 160 203 260 308 363
#     4  11  21  39  64  86 119 162 208 247 304 373
#
# _framework density 10.243449
#
# number of rings (size 3 to 8) (size 9 to 14) (size 15 to 20)
#    0.000    1.250    5.000    3.000    0.000    0.500 
#    2.250    1.875    0.000    0.750    0.000    0.000 
#    0.000    0.000    0.000    0.000    0.000    0.000 
#
# Total GULP energy -178363.605951 kJ/mol
# GULP energy per Si atom -5573.862686 kJ/mol
# Density = 1.022013 g / cm^3
# Si number density = 10.243449 Si / 1000 Ang^3
#
#
#
# Elastic Constant Matrix: (Units=GPa)
#
#
# Indices 1 2 3 4 5 6 
#
# 1 13.5910 18.7005 -5.0094 0.0001 2.4196 0.0000
# 2 18.7005 55.4681 14.3243 0.0001 -6.6043 0.0000
# 3 -5.0094 14.3243 105.1082 0.0002 -8.3382 0.0001
# 4 0.0001 0.0001 0.0002 18.2203 0.0001 -8.1371
# 5 2.4196 -6.6043 -8.3382 0.0001 9.7305 0.0000
# 6 0.0000 0.0000 0.0001 -8.1371 0.0000 13.5907
#
#
#
# Elastic Compliance Matrix: (Units=1/GPa)
#
#
# Indices 1 2 3 4 5 6 
#
# 1 0.224763 -0.092209 0.014892 0.000000 -0.105714 0.000000
# 2 -0.092209 0.057742 -0.007871 0.000000 0.055375 0.000000
# 3 0.014892 -0.007871 0.011350 0.000000 0.000681 0.000000
# 4 0.000000 0.000000 0.000000 0.074915 -0.000001 0.044854
# 5 -0.105714 0.055375 0.000681 -0.000001 0.167225 -0.000001
# 6 0.000000 0.000000 0.000000 0.044854 -0.000001 0.100435
#
#
# Mechanical properties :
#
#
# Convention : Reuss Voigt Hill
#
# Bulk Modulus (GPa) = 8.09853 25.57757 16.83805
# Shear Modulus (GPa) = 5.89647 18.05176 11.97411
#
# Velocity S-wave (km/s) = 1.69836 2.97162 2.42022
# Velocity P-wave (km/s) = 2.79419 4.92808 4.00584
#
# Compressibility (1/GPa) = 0.12347913
#
# Stress axis : x y z
#
# Youngs Moduli (GPa) = 4.44914 17.31850 88.10221
#
# Poissons Ratio (x) = 1.59693 -1.31204
# Poissons Ratio (y) = 0.41025 0.69344
# Poissons Ratio (z) = -0.06626 0.13631
#
# Static dielectric constant tensor:
#      x y z
#    x 1.750840 0.000000 -0.014160 
#    y 0.000000 1.764340 0.000000 
#    z -0.014160 0.000000 1.759110 
# 
# From -- ./inp_files/308824.got.cif
#   From: 2010.05.17/outbox.ucp.g08.bks.cvg/sg15_155_cif.got.tgz:308824.got - 2010.06.11 12:40:34.
