data_PCOD9308075
_publ_section_title
;
Structure prediction by ZEFSAII (Michael W. Deem and Ramdas Pophale) SiO2 
 PCOD9308075
Probable space group: C 2/C
;
_chemical_formula_sum "Si O2"
_cell_formula_units_Z 24
_cell_length_a 8.531769
_cell_length_b 12.960272
_cell_length_c 17.369564
_cell_angle_alpha 90.000000
_cell_angle_beta 151.633062
_cell_angle_gamma 90.000000
_cell_volume 912.519741
_symmetry_space_group_name_H-M "C 2/C"
_symmetry_group_IT_number 15
_symmetry_cell_setting 'monoclinic'
loop_
_space_group_symop_operation_xyz
x,y,z
-x,y,1/2-z
-x,-y,-z
x,-y,1/2+z
1/2+x,1/2+y,z
1/2-x,1/2+y,1/2-z
1/2-x,1/2-y,-z
1/2+x,1/2-y,1/2+z
loop_
_atom_site_type_symbol
_atom_site_label
_atom_site_fract_x
_atom_site_fract_y
_atom_site_fract_z
Si Si1 0.197931 0.526440 0.671939
Si Si2 0.383186 0.407745 0.006106
Si Si3 0.324421 0.783364 0.944767
O O1 0.500000 0.492908 0.750000
O O2 0.362783 0.588907 0.813480
O O3 0.974229 0.439454 0.615912
O O4 0.989422 0.605970 0.530770
O O5 0.417310 0.298650 0.979216
O O6 0.500000 0.500000 0.000000
O O7 0.000000 0.778661 0.750000
O O8 0.250000 0.750000 0.000000
#
# Coordination Sequence:
#
# PCOD9308075 Si02
#       3
#     8   8   8
#     4  12  29  51  83 126 169 228 287 345 432 513
#     4  12  25  52  84 119 174 222 281 358 424 506
#     4  12  25  54  89 126 169 223 285 355 430 505
#
# _framework density 26.300801
#
# number of rings (size 3 to 8) (size 9 to 14) (size 15 to 20)
#    0.000    0.000    6.667    2.000    0.000    8.000 
#    6.000    0.000    0.000    0.000    0.000    0.000 
#    0.000    0.000    0.000    0.000    0.000    0.000 
#
# Total GULP energy -67373.125370 kJ/mol
# GULP energy per Si atom -5614.427114 kJ/mol
# Density = 2.624094 g / cm^3
# Si number density = 26.300801 Si / 1000 Ang^3
#
#
#
# Elastic Constant Matrix: (Units=GPa)
#
#
# Indices 1 2 3 4 5 6 
#
# 1 230.5403 95.3803 90.6087 -0.0019 17.6175 -0.0018
# 2 95.3803 188.6567 65.6814 0.0003 32.1977 -0.0001
# 3 90.6087 65.6814 183.2130 0.0149 -6.4643 0.0057
# 4 -0.0019 0.0003 0.0149 32.7460 0.0046 0.3421
# 5 17.6175 32.1977 -6.4643 0.0046 58.2060 -0.0015
# 6 -0.0018 -0.0001 0.0057 0.3421 -0.0015 60.4926
#
#
#
# Elastic Compliance Matrix: (Units=1/GPa)
#
#
# Indices 1 2 3 4 5 6 
#
# 1 0.006226 -0.002175 -0.002333 0.000002 -0.000940 0.000000
# 2 -0.002175 0.007677 -0.001810 0.000001 -0.003790 0.000000
# 3 -0.002333 -0.001810 0.007350 -0.000004 0.002524 -0.000001
# 4 0.000002 0.000001 -0.000004 0.030540 -0.000004 -0.000173
# 5 -0.000940 -0.003790 0.002524 -0.000004 0.019841 0.000000
# 6 0.000000 0.000000 -0.000001 -0.000173 0.000000 0.016532
#
#
# Mechanical properties :
#
#
# Convention : Reuss Voigt Hill
#
# Bulk Modulus (GPa) = 116.04703 122.86120 119.45411
# Shear Modulus (GPa) = 48.22757 53.67156 50.94957
#
# Velocity S-wave (km/s) = 4.28681 4.52229 4.40612
# Velocity P-wave (km/s) = 8.28982 8.60717 8.44999
#
# Compressibility (1/GPa) = 0.00861720
#
# Stress axis : x y z
#
# Youngs Moduli (GPa) = 160.61153 130.25249 136.05988
#
# Poissons Ratio (x) = 0.28333 0.31737
# Poissons Ratio (y) = 0.34937 0.24630
# Poissons Ratio (z) = 0.37463 0.23579
#
# Static dielectric constant tensor:
#      x y z
#    x 2.036980 -0.000010 -0.077720 
#    y -0.000010 2.154200 0.000010 
#    z -0.077720 0.000010 1.946680 
# 
# From -- ./inp_files/189139.got.cif
#   From: 2010.05.17/outbox.cif.g08.bks.cpg/sg15_95_cif.got.tgz:189139.got - 2010.06.03 18:47:42.
