data_PCOD9308849
_publ_section_title
;
Structure prediction by ZEFSAII (Michael W. Deem and Ramdas Pophale) SiO2 
 PCOD9308849
Probable space group: C 2/C
;
_chemical_formula_sum "Si O2"
_cell_formula_units_Z 32
_cell_length_a 27.000000
_cell_length_b 12.000000
_cell_length_c 21.000000
_cell_angle_alpha 90.000000
_cell_angle_beta 30.000000
_cell_angle_gamma 90.000000
_cell_volume 3402.000000
_symmetry_space_group_name_H-M "C 2/C"
_symmetry_group_IT_number 15
_symmetry_cell_setting 'monoclinic'
loop_
_space_group_symop_operation_xyz
x,y,z
-x,y,1/2-z
-x,-y,-z
x,-y,1/2+z
1/2+x,1/2+y,z
1/2-x,1/2+y,1/2-z
1/2-x,1/2-y,-z
1/2+x,1/2-y,1/2+z
loop_
_atom_site_type_symbol
_atom_site_label
_atom_site_fract_x
_atom_site_fract_y
_atom_site_fract_z
Si Si1 0.782621 0.495653 0.280545
Si Si2 0.559447 0.494088 0.001455
Si Si3 0.023498 0.174763 0.150111
Si Si4 0.709648 0.241923 0.243591
Si Si5 0.121160 0.281078 0.276943
Si Si6 0.690387 0.170519 0.414705
Si Si7 0.127796 0.436096 0.446725
Si Si8 0.012443 0.247426 0.535145
O O1 0.674957 0.470971 0.369305
O O2 0.776233 0.623771 0.308414
O O3 0.819027 0.397390 0.286013
O O4 0.861483 0.487926 0.135686
O O5 0.519293 0.570811 0.104280
O O6 0.500000 0.500000 0.000000
O O7 0.560295 0.361497 0.013407
O O8 0.000000 0.147745 0.250000
O O9 0.949190 0.267510 0.204452
O O10 0.127325 0.238174 0.023085
O O11 0.704092 0.210389 0.325310
O O12 0.789099 0.338276 0.141380
O O13 0.601191 0.281195 0.346347
O O14 0.197639 0.179047 0.186669
O O15 0.060367 0.266320 0.411209
O O16 0.645728 0.046031 0.468434
O O17 0.029356 0.361290 0.555680
#
# Coordination Sequence:
#
# PCOD9308849 Si02
#       8
#     8   8   8   8   8   8   8   8
#     4  10  20  33  55  86 129 155 192 249 309 360
#     4  12  20  38  62  86 119 160 199 260 303 354
#     4  12  27  42  61  88 121 165 209 246 305 369
#     4  11  19  32  53  93 124 150 192 253 305 357
#     4  11  21  37  58  87 122 162 197 247 308 356
#     4  11  21  37  56  81 125 158 195 248 297 367
#     4  10  20  31  51  87 124 151 189 238 312 358
#     4  11  20  31  58  92 119 151 194 250 304 350
#
# _framework density 9.4062319999999993
#
# number of rings (size 3 to 8) (size 9 to 14) (size 15 to 20)
#    0.000    1.000    7.500    1.500    3.500    2.000 
#    0.000    0.000    0.000    0.750    0.000    2.625 
#    0.000    0.000    0.000    0.000    0.000    0.000 
#
# Total GULP energy -178238.554422 kJ/mol
# GULP energy per Si atom -5569.954826 kJ/mol
# Density = 0.938482 g / cm^3
# Si number density = 9.406232 Si / 1000 Ang^3
#
#
#
# Elastic Constant Matrix: (Units=GPa)
#
#
# Indices 1 2 3 4 5 6 
#
# 1 43.7601 20.8821 33.8850 0.0000 0.1267 0.0000
# 2 20.8821 102.2337 5.8676 0.0000 12.1818 0.0000
# 3 33.8850 5.8676 38.1434 0.0000 -0.2709 0.0000
# 4 0.0000 0.0000 0.0000 17.7043 0.0000 -7.4616
# 5 0.1267 12.1818 -0.2709 0.0000 28.0439 0.0000
# 6 0.0000 0.0000 0.0000 -7.4616 0.0000 23.4910
#
#
#
# Elastic Compliance Matrix: (Units=1/GPa)
#
#
# Indices 1 2 3 4 5 6 
#
# 1 0.089704 -0.014492 -0.077424 0.000000 0.005142 0.000000
# 2 -0.014492 0.012758 0.010873 0.000000 -0.005371 0.000000
# 3 -0.077424 0.010873 0.093299 0.000000 -0.003472 0.000000
# 4 0.000000 0.000000 0.000000 0.065214 0.000000 0.020714
# 5 0.005142 -0.005371 -0.003472 0.000000 0.037935 0.000000
# 6 0.000000 0.000000 0.000000 0.020714 0.000000 0.049149
#
#
# Mechanical properties :
#
#
# Convention : Reuss Voigt Hill
#
# Bulk Modulus (GPa) = 29.69399 33.93404 31.81402
# Shear Modulus (GPa) = 9.59014 22.08134 15.83574
#
# Velocity S-wave (km/s) = 2.26027 3.42974 2.90447
# Velocity P-wave (km/s) = 4.75713 5.81045 5.30997
#
# Compressibility (1/GPa) = 0.03367684
#
# Stress axis : x y z
#
# Youngs Moduli (GPa) = 11.14773 78.38495 10.71818
#
# Poissons Ratio (x) = 1.13595 0.82984
# Poissons Ratio (y) = 0.16155 -0.11654
# Poissons Ratio (z) = 0.86310 -0.85231
#
# Static dielectric constant tensor:
#      x y z
#    x 1.710910 0.000000 -0.089460 
#    y 0.000000 1.728220 0.000000 
#    z -0.089460 0.000000 1.745860 
# 
# From -- ./inp_files/257486.got.cif
#   From: 2010.05.17/outbox.ucp.g08.bks.cvg/sg15_129_cif.got.tgz:257486.got - 2010.06.11 12:40:34.
