data_PCOD9308648
_publ_section_title
;
Structure prediction by ZEFSAII (Michael W. Deem and Ramdas Pophale) SiO2 
 PCOD9308648
Probable space group: C 2/C
;
_chemical_formula_sum "Si O2"
_cell_formula_units_Z 28
_cell_length_a 12.000000
_cell_length_b 21.000000
_cell_length_c 24.000000
_cell_angle_alpha 90.000000
_cell_angle_beta 150.000000
_cell_angle_gamma 90.000000
_cell_volume 3024.000000
_symmetry_space_group_name_H-M "C 2/C"
_symmetry_group_IT_number 15
_symmetry_cell_setting 'monoclinic'
loop_
_space_group_symop_operation_xyz
x,y,z
-x,y,1/2-z
-x,-y,-z
x,-y,1/2+z
1/2+x,1/2+y,z
1/2-x,1/2+y,1/2-z
1/2-x,1/2-y,-z
1/2+x,1/2-y,1/2+z
loop_
_atom_site_type_symbol
_atom_site_label
_atom_site_fract_x
_atom_site_fract_y
_atom_site_fract_z
Si Si1 0.245924 0.799985 0.149054
Si Si2 0.184609 0.590757 0.079964
Si Si3 0.154961 0.330546 0.671176
Si Si4 0.676504 0.547718 0.873117
Si Si5 0.879905 0.846242 0.068364
Si Si6 0.884848 0.280377 0.009172
Si Si7 0.139759 0.252870 0.757789
O O1 0.500000 0.823257 0.250000
O O2 0.256928 0.734569 0.189770
O O3 0.060166 0.843675 0.097170
O O4 0.134234 0.773243 0.045671
O O5 0.228643 0.612701 0.162976
O O6 0.314719 0.528282 0.118579
O O7 0.215409 0.653681 0.056636
O O8 0.923345 0.571930 0.964038
O O9 0.216129 0.318297 0.761110
O O10 0.882829 0.330954 0.553553
O O11 0.500000 0.566156 0.750000
O O12 0.613641 0.584759 0.901297
O O13 0.974047 0.792217 0.150730
O O14 0.142831 0.288588 0.135457
O O15 0.750000 0.250000 0.000000
O O16 0.000000 0.271222 0.750000
#
# Coordination Sequence:
#
# PCOD9308648 Si02
#       7
#     8   8   8   8   8   8   8
#     4  10  19  31  47  71 103 138 171 210 261 308
#     4   9  20  35  49  75 105 129 167 211 256 306
#     4   9  18  32  49  71 105 139 165 203 261 314
#     4  10  19  32  54  75  97 132 170 212 252 299
#     4  10  18  32  50  72 103 138 174 209 255 310
#     4  11  21  32  49  75 104 132 168 213 260 306
#     4  11  18  28  49  76 104 133 167 207 249 308
#
# _framework density 9.2592590000000001
#
# number of rings (size 3 to 8) (size 9 to 14) (size 15 to 20)
#    0.000    2.000    0.000    8.143    0.000    3.429 
#    0.000    0.000    0.000    0.857    0.000    8.000 
#    0.000    2.286    0.000    0.000    0.000    0.286 
#
# Total GULP energy -155883.865551 kJ/mol
# GULP energy per Si atom -5567.280913 kJ/mol
# Density = 0.923818 g / cm^3
# Si number density = 9.259259 Si / 1000 Ang^3
#
#
#
# Elastic Constant Matrix: (Units=GPa)
#
#
# Indices 1 2 3 4 5 6 
#
# 1 110.8196 62.8126 4.2440 0.0007 2.7879 0.0000
# 2 62.8126 99.9111 12.7067 0.0008 -2.6264 0.0003
# 3 4.2440 12.7067 18.8549 -0.0011 4.3216 0.0001
# 4 0.0007 0.0008 -0.0011 20.5304 -0.0001 2.7254
# 5 2.7879 -2.6264 4.3216 -0.0001 19.3607 -0.0003
# 6 0.0000 0.0003 0.0001 2.7254 -0.0003 23.9757
#
#
#
# Elastic Compliance Matrix: (Units=1/GPa)
#
#
# Indices 1 2 3 4 5 6 
#
# 1 0.014520 -0.009796 0.004339 0.000000 -0.004388 0.000000
# 2 -0.009796 0.017760 -0.011213 -0.000001 0.006323 0.000000
# 3 0.004339 -0.011213 0.063349 0.000004 -0.016286 -0.000001
# 4 0.000000 -0.000001 0.000004 0.049454 -0.000001 -0.005622
# 5 -0.004388 0.006323 -0.016286 -0.000001 0.056776 0.000001
# 6 0.000000 0.000000 -0.000001 -0.005622 0.000001 0.042348
#
#
# Mechanical properties :
#
#
# Convention : Reuss Voigt Hill
#
# Bulk Modulus (GPa) = 16.05393 43.23469 29.64431
# Shear Modulus (GPa) = 16.76109 22.76152 19.76131
#
# Velocity S-wave (km/s) = 3.01175 3.50969 3.27021
# Velocity P-wave (km/s) = 4.55874 6.31041 5.50470
#
# Compressibility (1/GPa) = 0.06229002
#
# Stress axis : x y z
#
# Youngs Moduli (GPa) = 68.86976 56.30746 15.78549
#
# Poissons Ratio (x) = 0.55158 -0.06850
# Poissons Ratio (y) = 0.67464 0.17700
# Poissons Ratio (z) = -0.29883 0.63137
#
# Static dielectric constant tensor:
#      x y z
#    x 1.629940 0.000000 -0.015440 
#    y 0.000000 1.615410 0.000000 
#    z -0.015440 0.000000 1.696670 
# 
# From -- ./inp_files/270958.got.cif
#   From: 2010.05.17/outbox.ucp.g08.bks.cvg/sg15_136_cif.got.tgz:270958.got - 2010.06.11 12:40:34.
