data_PCOD9308405
_publ_section_title
;
Structure prediction by ZEFSAII (Michael W. Deem and Ramdas Pophale) SiO2 
 PCOD9308405
Probable space group: C 2/C
;
_chemical_formula_sum "Si O2"
_cell_formula_units_Z 56
_cell_length_a 11.419554
_cell_length_b 9.610447
_cell_length_c 21.330375
_cell_angle_alpha 90.000000
_cell_angle_beta 114.663632
_cell_angle_gamma 90.000000
_cell_volume 2127.388207
_symmetry_space_group_name_H-M "C 2/C"
_symmetry_group_IT_number 15
_symmetry_cell_setting 'monoclinic'
loop_
_space_group_symop_operation_xyz
x,y,z
-x,y,1/2-z
-x,-y,-z
x,-y,1/2+z
1/2+x,1/2+y,z
1/2-x,1/2+y,1/2-z
1/2-x,1/2-y,-z
1/2+x,1/2-y,1/2+z
loop_
_atom_site_type_symbol
_atom_site_label
_atom_site_fract_x
_atom_site_fract_y
_atom_site_fract_z
Si Si1 0.509659 0.029633 0.821990
Si Si2 0.145342 0.890947 0.283612
Si Si3 0.511926 0.737513 0.428460
Si Si4 0.242998 0.657440 0.220048
Si Si5 0.885734 0.790280 0.420180
Si Si6 0.134134 0.062109 0.923429
Si Si7 0.766251 0.912937 0.924772
O O1 0.500000 0.091349 0.750000
O O2 0.517109 0.146523 0.876740
O O3 0.631927 0.927886 0.859315
O O4 0.383522 0.937123 0.801016
O O5 0.235140 0.783512 0.266730
O O6 0.000000 0.836482 0.250000
O O7 0.819324 0.917841 0.136628
O O8 0.146042 0.042664 0.249798
O O9 0.581399 0.787934 0.508215
O O10 0.580070 0.594284 0.420930
O O11 0.369111 0.693201 0.418877
O O12 0.222159 0.722406 0.147036
O O13 0.833371 0.938927 0.428914
O O14 0.015352 0.830677 0.410874
O O15 0.237707 0.095779 0.000757
#
# Coordination Sequence:
#
# PCOD9308405 Si02
#       7
#     8   8   8   8   8   8   8
#     4  12  29  45  70 109 158 197 258 320 388 451
#     4  12  28  52  79 111 160 206 258 307 396 456
#     4   9  22  45  77 113 148 200 258 316 383 464
#     4  12  30  50  73 113 159 203 254 324 380 462
#     4   9  20  47  75 110 154 194 256 321 378 458
#     4   9  20  45  83 108 150 210 250 313 390 458
#     4   9  22  48  76 112 152 195 257 318 385 457
#
# _framework density 26.323356
#
# number of rings (size 3 to 8) (size 9 to 14) (size 15 to 20)
#    0.000    1.714    1.429    2.143    6.000    5.714 
#    0.000    1.429    0.000    0.000    0.000    0.000 
#    0.000    0.000    0.000    0.000    0.000    0.000 
#
# Total GULP energy -157102.140994 kJ/mol
# GULP energy per Si atom -5610.790750 kJ/mol
# Density = 2.626344 g / cm^3
# Si number density = 26.323356 Si / 1000 Ang^3
#
#
#
# Elastic Constant Matrix: (Units=GPa)
#
#
# Indices 1 2 3 4 5 6 
#
# 1 68.9300 24.5917 36.5054 0.0000 -10.5746 0.0000
# 2 24.5917 114.4340 45.1642 0.0000 -32.0085 0.0000
# 3 36.5054 45.1642 174.2975 0.0000 -35.3151 0.0000
# 4 0.0000 0.0000 0.0000 -6.8736 0.0000 19.5741
# 5 -10.5746 -32.0085 -35.3151 0.0000 47.3725 0.0000
# 6 0.0000 0.0000 0.0000 19.5741 0.0000 32.1661
#
#
#
# Elastic Compliance Matrix: (Units=1/GPa)
#
#
# Indices 1 2 3 4 5 6 
#
# 1 0.016934 -0.002515 -0.002913 0.000000 -0.000091 0.000000
# 2 -0.002515 0.011517 -0.001172 0.000000 0.006347 0.000000
# 3 -0.002913 -0.001172 0.007490 0.000000 0.004142 0.000000
# 4 0.000000 0.000000 0.000000 -0.053234 0.000000 0.032394
# 5 -0.000091 0.006347 0.004142 0.000000 0.028465 0.000000
# 6 0.000000 0.000000 0.000000 0.032394 0.000000 0.011376
#
#
# Mechanical properties :
#
#
# Convention : Reuss Voigt Hill
#
# Bulk Modulus (GPa) = 43.97283 63.35377 53.66330
# Shear Modulus (GPa) = 115.40073 31.29304 73.34688
#
# Velocity S-wave (km/s) = 6.62834 3.45163 5.28434
# Velocity P-wave (km/s) = 8.67876 6.32493 7.59361
#
# Compressibility (1/GPa) = 0.02274131
#
# Stress axis : x y z
#
# Youngs Moduli (GPa) = 59.05423 86.83014 133.50580
#
# Poissons Ratio (x) = 0.21834 0.38897
# Poissons Ratio (y) = 0.14850 0.15642
# Poissons Ratio (z) = 0.17205 0.10173
#
# Static dielectric constant tensor:
#      x y z
#    x 2.046980 0.000000 -0.006850 
#    y 0.000000 2.068870 0.000000 
#    z -0.006850 0.000000 2.104560 
# 
# From -- ./inp_files/273268.got.cif
#   From: 2010.05.17/outbox.cif.g08.bks.cpg/sg15_137_cif.got.tgz:273268.got - 2010.06.03 18:47:42.
