data_PCOD9308456
_publ_section_title
;
Structure prediction by ZEFSAII (Michael W. Deem and Ramdas Pophale) SiO2 
 PCOD9308456
Probable space group: C 2/C
;
_chemical_formula_sum "Si O2"
_cell_formula_units_Z 16
_cell_length_a 5.527310
_cell_length_b 7.543486
_cell_length_c 11.878195
_cell_angle_alpha 90.000000
_cell_angle_beta 99.824407
_cell_angle_gamma 90.000000
_cell_volume 488.000655
_symmetry_space_group_name_H-M "C 2/C"
_symmetry_group_IT_number 15
_symmetry_cell_setting 'monoclinic'
loop_
_space_group_symop_operation_xyz
x,y,z
-x,y,1/2-z
-x,-y,-z
x,-y,1/2+z
1/2+x,1/2+y,z
1/2-x,1/2+y,1/2-z
1/2-x,1/2-y,-z
1/2+x,1/2-y,1/2+z
loop_
_atom_site_type_symbol
_atom_site_label
_atom_site_fract_x
_atom_site_fract_y
_atom_site_fract_z
Si Si1 0.710253 0.461564 0.466393
Si Si2 0.765984 0.205838 0.816037
O O1 0.750000 0.250000 0.500000
O O2 0.689699 0.605347 0.359130
O O3 0.378765 0.422111 0.424524
O O4 0.000000 0.500000 0.500000
O O5 0.500000 0.138421 0.750000
O O6 0.000000 0.221326 0.750000
#
# Coordination Sequence:
#
# PCOD9308456 Si02
#       2
#     8   8
#     4   7  14  25  43  74  95 128 167 205 245 304
#     4   8  13  25  47  69  98 130 162 205 250 296
#
# _framework density 32.786838000000003
#
# number of rings (size 3 to 8) (size 9 to 14) (size 15 to 20)
#    3.000    1.000    0.000    0.000    0.000    0.000 
#    0.000    0.000    0.000   27.000    0.000    0.000 
#    0.000    0.000    0.000    0.000    0.000    0.000 
#
# Total GULP energy -44806.670040 kJ/mol
# GULP energy per Si atom -5600.833755 kJ/mol
# Density = 3.271221 g / cm^3
# Si number density = 32.786838 Si / 1000 Ang^3
#
#
#
# Elastic Constant Matrix: (Units=GPa)
#
#
# Indices 1 2 3 4 5 6 
#
# 1 491.9159 189.2151 152.8984 0.0000 28.5185 0.0000
# 2 189.2151 394.8247 132.7667 0.0000 -1.2333 0.0000
# 3 152.8984 132.7667 299.1483 0.0000 42.3290 0.0000
# 4 0.0000 0.0000 0.0000 104.4414 0.0000 4.2952
# 5 28.5185 -1.2333 42.3290 0.0000 117.7047 0.0000
# 6 0.0000 0.0000 0.0000 4.2952 0.0000 121.4264
#
#
#
# Elastic Compliance Matrix: (Units=1/GPa)
#
#
# Indices 1 2 3 4 5 6 
#
# 1 0.002717 -0.001002 -0.000895 0.000000 -0.000347 0.000000
# 2 -0.001002 0.003379 -0.001082 0.000000 0.000667 0.000000
# 3 -0.000895 -0.001082 0.004479 0.000000 -0.001405 0.000000
# 4 0.000000 0.000000 0.000000 0.009589 0.000000 -0.000339
# 5 -0.000347 0.000667 -0.001405 0.000000 0.009092 0.000000
# 6 0.000000 0.000000 0.000000 -0.000339 0.000000 0.008247
#
#
# Mechanical properties :
#
#
# Convention : Reuss Voigt Hill
#
# Bulk Modulus (GPa) = 216.57316 237.29437 226.93377
# Shear Modulus (GPa) = 111.11350 116.11510 113.61430
#
# Velocity S-wave (km/s) = 5.82780 5.95752 5.89302
# Velocity P-wave (km/s) = 10.55853 10.94782 10.75494
#
# Compressibility (1/GPa) = 0.00461738
#
# Stress axis : x y z
#
# Youngs Moduli (GPa) = 368.12026 295.95537 223.26200
#
# Poissons Ratio (x) = 0.29658 0.19973
# Poissons Ratio (y) = 0.36890 0.24153
# Poissons Ratio (z) = 0.32932 0.32017
#
# Static dielectric constant tensor:
#      x y z
#    x 2.542600 0.000000 -0.351900 
#    y 0.000000 3.501490 0.000000 
#    z -0.351900 0.000000 2.295710 
# 
# From -- ./inp_files/127533.got.cif
#   From: 2010.05.17/outbox.cif.g08.bks.cpg/sg15_64_cif.got.tgz:127533.got - 2010.06.03 18:47:42.
