data_PCOD9308986
_publ_section_title
;
Structure prediction by ZEFSAII (Michael W. Deem and Ramdas Pophale) SiO2 
 PCOD9308986
Probable space group: C 2/C
;
_chemical_formula_sum "Si O2"
_cell_formula_units_Z 28
_cell_length_a 18.000000
_cell_length_b 9.000000
_cell_length_c 27.000000
_cell_angle_alpha 90.000000
_cell_angle_beta 40.000000
_cell_angle_gamma 90.000000
_cell_volume 2811.553005
_symmetry_space_group_name_H-M "C 2/C"
_symmetry_group_IT_number 15
_symmetry_cell_setting 'monoclinic'
loop_
_space_group_symop_operation_xyz
x,y,z
-x,y,1/2-z
-x,-y,-z
x,-y,1/2+z
1/2+x,1/2+y,z
1/2-x,1/2+y,1/2-z
1/2-x,1/2-y,-z
1/2+x,1/2-y,1/2+z
loop_
_atom_site_type_symbol
_atom_site_label
_atom_site_fract_x
_atom_site_fract_y
_atom_site_fract_z
Si Si1 0.439852 0.469553 0.658125
Si Si2 0.742559 0.323270 0.690752
Si Si3 0.339150 0.406479 0.012738
Si Si4 0.720163 0.519899 0.353949
Si Si5 0.383479 0.065934 0.031467
Si Si6 0.666636 0.100959 0.043773
Si Si7 0.906146 0.690590 0.201684
O O1 0.384860 0.356629 0.724781
O O2 0.570983 0.450888 0.575880
O O3 0.373979 0.443392 0.639687
O O4 0.411112 0.631305 0.694679
O O5 0.747143 0.151560 0.673185
O O6 0.785594 0.424066 0.623685
O O7 0.832693 0.354217 0.689812
O O8 0.337729 0.512516 0.062340
O O9 0.375139 0.237907 0.012707
O O10 0.219444 0.460773 0.047939
O O11 0.830812 0.624216 0.285715
O O12 0.500000 0.000000 0.000000
O O13 0.353408 0.956236 0.002023
O O14 0.538774 0.137788 0.130498
O O15 0.750000 0.250000 0.000000
#
# Coordination Sequence:
#
# PCOD9308986 Si02
#       7
#     8   8   8   8   8   8   8
#     4  10  20  37  64  97 131 169 223 279 329 394
#     4   9  20  39  64  96 123 170 234 280 319 390
#     4  11  24  41  64  99 133 179 221 276 344 408
#     4   9  21  38  63  93 130 172 229 272 328 397
#     4  11  24  44  70  96 128 180 232 272 330 402
#     4  12  25  42  66  98 141 173 218 279 346 409
#     4  10  20  39  63  93 131 175 218 274 337 395
#
# _framework density 9.9589090000000002
#
# number of rings (size 3 to 8) (size 9 to 14) (size 15 to 20)
#    0.000    1.714    2.857    0.857    2.000    5.143 
#    0.000    0.714    0.000    0.000    0.000    0.000 
#    0.000    0.000    0.000    0.000    0.000    0.000 
#
# Total GULP energy -156036.346932 kJ/mol
# GULP energy per Si atom -5572.726676 kJ/mol
# Density = 0.993624 g / cm^3
# Si number density = 9.958909 Si / 1000 Ang^3
#
#
#
# Elastic Constant Matrix: (Units=GPa)
#
#
# Indices 1 2 3 4 5 6 
#
# 1 51.1209 19.7527 -14.3694 0.0000 -2.7404 0.0002
# 2 19.7527 47.3016 2.2550 0.0000 -2.1497 0.0005
# 3 -14.3694 2.2550 75.6586 0.0000 -8.2972 0.0000
# 4 0.0000 0.0000 0.0000 37.8451 0.0000 2.0762
# 5 -2.7404 -2.1497 -8.2972 0.0000 34.1344 0.0000
# 6 0.0002 0.0005 0.0000 2.0762 0.0000 29.2338
#
#
#
# Elastic Compliance Matrix: (Units=1/GPa)
#
#
# Indices 1 2 3 4 5 6 
#
# 1 0.025381 -0.010736 0.005435 0.000000 0.002683 0.000000
# 2 -0.010736 0.025761 -0.002798 0.000000 0.000080 0.000000
# 3 0.005435 -0.002798 0.014755 0.000000 0.003847 0.000000
# 4 0.000000 0.000000 0.000000 0.026527 0.000000 -0.001884
# 5 0.002683 0.000080 0.003847 0.000000 0.030451 0.000000
# 6 0.000000 0.000000 0.000000 -0.001884 0.000000 0.034341
#
#
# Mechanical properties :
#
#
# Convention : Reuss Voigt Hill
#
# Bulk Modulus (GPa) = 20.12145 21.03975 20.58060
# Shear Modulus (GPa) = 26.31836 31.33884 28.82860
#
# Velocity S-wave (km/s) = 3.63898 3.97092 3.80857
# Velocity P-wave (km/s) = 5.27071 5.62232 5.44935
#
# Compressibility (1/GPa) = 0.04969821
#
# Stress axis : x y z
#
# Youngs Moduli (GPa) = 39.39913 38.81793 67.77508
#
# Poissons Ratio (x) = 0.41676 -0.36834
# Poissons Ratio (y) = 0.42300 0.18964
# Poissons Ratio (z) = -0.21412 0.10861
#
# Static dielectric constant tensor:
#      x y z
#    x 1.721250 0.000000 0.002280 
#    y 0.000000 1.710330 0.000000 
#    z 0.002280 0.000000 1.702410 
# 
# From -- ./inp_files/298495.got.cif
#   From: 2010.05.17/outbox.ucp.g08.bks.cvg/sg15_150_cif.got.tgz:298495.got - 2010.06.11 12:40:34.
