data_PCOD9308787
_publ_section_title
;
Structure prediction by ZEFSAII (Michael W. Deem and Ramdas Pophale) SiO2 
 PCOD9308787
Probable space group: C 2/C
;
_chemical_formula_sum "Si O2"
_cell_formula_units_Z 30
_cell_length_a 12.000000
_cell_length_b 27.000000
_cell_length_c 18.000000
_cell_angle_alpha 90.000000
_cell_angle_beta 30.000000
_cell_angle_gamma 90.000000
_cell_volume 2916.000000
_symmetry_space_group_name_H-M "C 2/C"
_symmetry_group_IT_number 15
_symmetry_cell_setting 'monoclinic'
loop_
_space_group_symop_operation_xyz
x,y,z
-x,y,1/2-z
-x,-y,-z
x,-y,1/2+z
1/2+x,1/2+y,z
1/2-x,1/2+y,1/2-z
1/2-x,1/2-y,-z
1/2+x,1/2-y,1/2+z
loop_
_atom_site_type_symbol
_atom_site_label
_atom_site_fract_x
_atom_site_fract_y
_atom_site_fract_z
Si Si1 0.000000 0.663553 0.250000
Si Si2 0.435550 0.108269 0.012171
Si Si3 0.799974 0.036712 0.617751
Si Si4 0.654327 0.634944 0.819369
Si Si5 0.854879 0.518534 0.951387
Si Si6 0.050434 0.215848 0.455373
Si Si7 0.271677 0.096752 0.509196
Si Si8 0.313666 0.296582 0.797431
O O1 0.204087 0.699723 0.155610
O O2 0.078507 0.626016 0.138937
O O3 0.598062 0.134239 0.857522
O O4 0.351391 0.056121 0.023741
O O5 0.598397 0.100255 0.988211
O O6 0.246274 0.146052 0.149342
O O7 0.866652 0.086526 0.618554
O O8 0.610686 0.011568 0.778214
O O9 0.733770 0.046470 0.570803
O O10 0.000000 0.000000 0.500000
O O11 0.602588 0.678563 0.906900
O O12 0.465146 0.625220 0.865193
O O13 0.748129 0.463431 0.014685
O O14 0.088188 0.210383 0.343619
O O15 0.920822 0.266988 0.551381
O O16 0.500000 0.279933 0.750000
#
# Coordination Sequence:
#
# PCOD9308787 Si02
#       8
#     4   8   8   8   8   8   8   8
#     4  10  22  42  72 106 134 178 224 290 344 422
#     4  11  24  44  62 100 137 179 229 282 339 406
#     4  10  19  36  60  92 132 176 227 276 331 402
#     4  10  23  40  69  96 134 174 224 278 347 406
#     4  10  22  36  62  97 132 184 227 278 333 407
#     4  11  25  47  73 103 131 180 226 285 356 411
#     4  11  20  41  66  97 139 175 225 279 347 406
#     4  12  27  49  71 100 139 179 230 289 348 414
#
# _framework density 10.288066000000001
#
# number of rings (size 3 to 8) (size 9 to 14) (size 15 to 20)
#    0.000    1.333    2.667    2.800    3.733    0.533 
#    4.800    1.333    0.000    0.000    0.000    0.000 
#    0.000    0.000    0.000    0.000    0.000    0.000 
#
# Total GULP energy -167242.010385 kJ/mol
# GULP energy per Si atom -5574.733680 kJ/mol
# Density = 1.026465 g / cm^3
# Si number density = 10.288066 Si / 1000 Ang^3
#
#
#
# Elastic Constant Matrix: (Units=GPa)
#
#
# Indices 1 2 3 4 5 6 
#
# 1 81.0278 17.9054 30.2161 -0.0116 28.1814 0.0321
# 2 17.9054 69.9725 25.1787 -0.0022 9.1297 0.0230
# 3 30.2161 25.1787 29.6636 0.0256 9.3326 0.0124
# 4 -0.0116 -0.0022 0.0256 31.3629 -0.0054 3.2383
# 5 28.1814 9.1297 9.3326 -0.0054 30.0592 -0.0082
# 6 0.0321 0.0230 0.0124 3.2383 -0.0082 25.9738
#
#
#
# Elastic Compliance Matrix: (Units=1/GPa)
#
#
# Indices 1 2 3 4 5 6 
#
# 1 0.027874 0.004923 -0.026464 0.000033 -0.019411 -0.000036
# 2 0.004923 0.021468 -0.021870 0.000022 -0.004346 -0.000019
# 3 -0.026464 -0.021870 0.076842 -0.000076 0.007596 0.000027
# 4 0.000033 0.000022 -0.000076 0.032301 -0.000009 -0.004027
# 5 -0.019411 -0.004346 0.007596 -0.000009 0.050428 0.000041
# 6 -0.000036 -0.000019 0.000027 -0.004027 0.000041 0.039003
#
#
# Mechanical properties :
#
#
# Convention : Reuss Voigt Hill
#
# Bulk Modulus (GPa) = 25.40559 36.36270 30.88414
# Shear Modulus (GPa) = 14.37371 24.63675 19.50523
#
# Velocity S-wave (km/s) = 2.64590 3.46402 3.08223
# Velocity P-wave (km/s) = 4.65922 5.80602 5.26394
#
# Compressibility (1/GPa) = 0.03936142
#
# Stress axis : x y z
#
# Youngs Moduli (GPa) = 35.87615 46.58071 13.01374
#
# Poissons Ratio (x) = -0.22931 0.34440
# Poissons Ratio (y) = -0.17661 0.28461
# Poissons Ratio (z) = 0.94944 1.01870
#
# Static dielectric constant tensor:
#      x y z
#    x 1.776840 0.000000 -0.025840 
#    y 0.000000 1.770350 0.000010 
#    z -0.025840 0.000010 1.749250 
# 
# From -- ./inp_files/201230.got.cif
#   From: 2010.05.17/outbox.ucp.g08.bks.cvg/sg15_101_cif.got.tgz:201230.got - 2010.06.11 12:40:34.
