data_PCOD9308336
_publ_section_title
;
Structure prediction by ZEFSAII (Michael W. Deem and Ramdas Pophale) SiO2 
 PCOD9308336
Probable space group: C 2/C
;
_chemical_formula_sum "Si O2"
_cell_formula_units_Z 36
_cell_length_a 10.903093
_cell_length_b 9.544653
_cell_length_c 14.278126
_cell_angle_alpha 90.000000
_cell_angle_beta 104.932378
_cell_angle_gamma 90.000000
_cell_volume 1435.693937
_symmetry_space_group_name_H-M "C 2/C"
_symmetry_group_IT_number 15
_symmetry_cell_setting 'monoclinic'
loop_
_space_group_symop_operation_xyz
x,y,z
-x,y,1/2-z
-x,-y,-z
x,-y,1/2+z
1/2+x,1/2+y,z
1/2-x,1/2+y,1/2-z
1/2-x,1/2-y,-z
1/2+x,1/2-y,1/2+z
loop_
_atom_site_type_symbol
_atom_site_label
_atom_site_fract_x
_atom_site_fract_y
_atom_site_fract_z
Si Si1 0.500000 0.771290 0.750000
Si Si2 0.730133 0.946646 0.819940
Si Si3 0.489494 0.361402 0.933919
Si Si4 0.876166 0.424388 0.013092
Si Si5 0.147904 0.971466 0.340753
O O1 0.432310 0.670968 0.660665
O O2 0.617528 0.866689 0.743544
O O3 0.663645 0.036124 0.888484
O O4 0.802576 0.035240 0.755571
O O5 0.838239 0.843859 0.886197
O O6 0.580686 0.237369 0.986967
O O7 0.551888 0.405009 0.848025
O O8 0.500000 0.500000 0.000000
O O9 0.763522 0.489999 0.930030
O O10 0.000000 0.500000 0.000000
#
# Coordination Sequence:
#
# PCOD9308336 Si02
#       5
#     4   8   8   8   8
#     4  12  28  48  78 116 162 208 268 326 416 462
#     4  12  28  48  79 114 163 212 268 335 396 483
#     4  12  27  51  84 116 161 214 269 333 410 479
#     4  12  29  50  79 120 157 214 273 328 406 482
#     4  12  27  49  80 112 161 208 267 327 400 483
#
# _framework density 25.074983
#
# number of rings (size 3 to 8) (size 9 to 14) (size 15 to 20)
#    0.000    0.000    4.444    3.333    9.333    1.778 
#    4.000    0.000    0.000    0.000    0.000    0.000 
#    0.000    0.000    0.000    0.000    0.000    0.000 
#
# Total GULP energy -100615.418859 kJ/mol
# GULP energy per Si atom -5589.745492 kJ/mol
# Density = 2.501791 g / cm^3
# Si number density = 25.074983 Si / 1000 Ang^3
#
#
#
# Elastic Constant Matrix: (Units=GPa)
#
#
# Indices 1 2 3 4 5 6 
#
# 1 198.5049 59.8216 67.2219 0.0000 24.7560 0.0000
# 2 59.8216 104.4684 50.6465 0.0000 2.8071 0.0000
# 3 67.2219 50.6465 135.8087 0.0000 -5.3828 0.0000
# 4 0.0000 0.0000 0.0000 35.4395 0.0000 11.9385
# 5 24.7560 2.8071 -5.3828 0.0000 65.0480 0.0000
# 6 0.0000 0.0000 0.0000 11.9385 0.0000 47.7334
#
#
#
# Elastic Compliance Matrix: (Units=1/GPa)
#
#
# Indices 1 2 3 4 5 6 
#
# 1 0.007088 -0.002721 -0.002605 0.000000 -0.002796 0.000000
# 2 -0.002721 0.012778 -0.003410 0.000000 0.000202 0.000000
# 3 -0.002605 -0.003410 0.010002 0.000000 0.001966 0.000000
# 4 0.000000 0.000000 0.000000 0.030813 0.000000 -0.007707
# 5 -0.002796 0.000202 0.001966 0.000000 0.016591 0.000000
# 6 0.000000 0.000000 0.000000 -0.007707 0.000000 0.022877
#
#
# Mechanical properties :
#
#
# Convention : Reuss Voigt Hill
#
# Bulk Modulus (GPa) = 80.66705 88.24021 84.45363
# Shear Modulus (GPa) = 41.06585 47.05032 44.05808
#
# Velocity S-wave (km/s) = 4.05127 4.33643 4.19627
# Velocity P-wave (km/s) = 7.35689 7.76786 7.56517
#
# Compressibility (1/GPa) = 0.01239664
#
# Stress axis : x y z
#
# Youngs Moduli (GPa) = 141.07516 78.25646 99.97710
#
# Poissons Ratio (x) = 0.21295 0.26040
# Poissons Ratio (y) = 0.38389 0.34097
# Poissons Ratio (z) = 0.36744 0.26689
#
# Static dielectric constant tensor:
#      x y z
#    x 2.010450 0.000000 0.032200 
#    y 0.000000 2.037420 0.000000 
#    z 0.032200 0.000000 2.046860 
# 
# From -- ./inp_files/194955.got.cif
#   From: 2010.05.17/outbox.cif.g08.bks.cpg/sg15_98_cif.got.tgz:194955.got - 2010.06.03 18:47:42.
