data_PCOD9308383
_publ_section_title
;
Structure prediction by ZEFSAII (Michael W. Deem and Ramdas Pophale) SiO2 
 PCOD9308383
Probable space group: C 2/C
;
_chemical_formula_sum "Si O2"
_cell_formula_units_Z 44
_cell_length_a 18.019701
_cell_length_b 26.715580
_cell_length_c 5.498123
_cell_angle_alpha 90.000000
_cell_angle_beta 50.096521
_cell_angle_gamma 90.000000
_cell_volume 2030.455405
_symmetry_space_group_name_H-M "C 2/C"
_symmetry_group_IT_number 15
_symmetry_cell_setting 'monoclinic'
loop_
_space_group_symop_operation_xyz
x,y,z
-x,y,1/2-z
-x,-y,-z
x,-y,1/2+z
1/2+x,1/2+y,z
1/2-x,1/2+y,1/2-z
1/2-x,1/2-y,-z
1/2+x,1/2-y,1/2+z
loop_
_atom_site_type_symbol
_atom_site_label
_atom_site_fract_x
_atom_site_fract_y
_atom_site_fract_z
Si Si1 0.696505 0.593387 0.311575
Si Si2 0.110265 0.197593 0.411219
Si Si3 0.500000 0.265143 0.750000
Si Si4 0.396249 0.800408 0.860764
Si Si5 0.000000 0.531776 0.250000
Si Si6 0.500000 0.531593 0.750000
Si Si7 0.805200 0.593379 0.577014
O O1 0.675648 0.653008 0.361790
O O2 0.594906 0.565744 0.548305
O O3 0.760946 0.577790 0.408743
O O4 0.740014 0.583476 0.952268
O O5 0.144855 0.253570 0.399632
O O6 0.080918 0.198210 0.192516
O O7 0.000000 0.194526 0.750000
O O8 0.567426 0.226928 0.458088
O O9 0.500000 0.817518 0.750000
O O10 0.327392 0.847469 0.003201
O O11 0.000000 0.500000 0.500000
O O12 0.904835 0.565533 0.425643
O O13 0.500000 0.500000 0.500000
#
# Coordination Sequence:
#
# PCOD9308383 Si02
#       7
#     8   8   4   8   4   4   8
#     4  12  28  45  74 111 141 182 240 289 352 435
#     4   9  20  39  65 100 143 196 231 282 340 420
#     4   8  18  34  68  90 144 206 248 264 338 416
#     4   9  20  39  65 100 143 196 231 282 340 420
#     4  12  28  53  79 100 141 186 231 308 374 414
#     4  12  28  53  79 100 141 186 231 308 374 414
#     4  12  28  45  74 111 141 182 240 289 352 435
#
# _framework density 21.670013999999998
#
# number of rings (size 3 to 8) (size 9 to 14) (size 15 to 20)
#    0.000    1.818    1.818    2.182   10.182    7.273 
#    0.000    0.000    0.000    0.000    0.000    0.000 
#    0.000    0.000    0.000    0.000    0.000    0.000 
#
# Total GULP energy -122725.066850 kJ/mol
# GULP energy per Si atom -5578.412130 kJ/mol
# Density = 2.162069 g / cm^3
# Si number density = 21.670014 Si / 1000 Ang^3
#
#
#
# Elastic Constant Matrix: (Units=GPa)
#
#
# Indices 1 2 3 4 5 6 
#
# 1 136.4047 50.2715 50.3013 0.0000 12.9868 0.0000
# 2 50.2715 79.4168 27.6381 0.0000 -2.4928 0.0000
# 3 50.3013 27.6381 97.8109 0.0000 4.6228 0.0000
# 4 0.0000 0.0000 0.0000 31.5008 0.0000 12.7798
# 5 12.9868 -2.4928 4.6228 0.0000 33.5868 0.0000
# 6 0.0000 0.0000 0.0000 12.7798 0.0000 -44.3046
#
#
#
# Elastic Compliance Matrix: (Units=1/GPa)
#
#
# Indices 1 2 3 4 5 6 
#
# 1 0.011409 -0.005973 -0.003976 0.000000 -0.004308 0.000000
# 2 -0.005973 0.017178 -0.001964 0.000000 0.003855 0.000000
# 3 -0.003976 -0.001964 0.012841 0.000000 -0.000376 0.000000
# 4 0.000000 0.000000 0.000000 0.028419 0.000000 0.008198
# 5 -0.004308 0.003855 -0.000376 0.000000 0.031777 0.000000
# 6 0.000000 0.000000 0.000000 0.008198 0.000000 -0.020206
#
#
# Mechanical properties :
#
#
# Convention : Reuss Voigt Hill
#
# Bulk Modulus (GPa) = 56.81472 63.33936 60.07704
# Shear Modulus (GPa) = 44.99994 16.51802 30.75898
#
# Velocity S-wave (km/s) = 4.56192 2.76389 3.77161
# Velocity P-wave (km/s) = 7.35004 6.28315 6.83744
#
# Compressibility (1/GPa) = 0.01760107
#
# Stress axis : x y z
#
# Youngs Moduli (GPa) = 87.65115 58.21541 77.87462
#
# Poissons Ratio (x) = 0.34775 0.30961
# Poissons Ratio (y) = 0.52358 0.15295
# Poissons Ratio (z) = 0.34848 0.11434
#
# Static dielectric constant tensor:
#      x y z
#    x 1.908320 0.000000 0.115580 
#    y 0.000000 1.764630 0.000000 
#    z 0.115580 0.000000 1.881590 
# 
# From -- ./inp_files/11425.got.cif
#   From: 2010.05.17/outbox.cif.g08.bks.cpg/sg15_6_cif.got.tgz:11425.got - 2010.06.03 18:47:42.
