data_PCOD9308481
_publ_section_title
;
Structure prediction by ZEFSAII (Michael W. Deem and Ramdas Pophale) SiO2 
 PCOD9308481
Probable space group: C 2/C
;
_chemical_formula_sum "Si O2"
_cell_formula_units_Z 32
_cell_length_a 6.937691
_cell_length_b 8.009939
_cell_length_c 22.865906
_cell_angle_alpha 90.000000
_cell_angle_beta 60.603468
_cell_angle_gamma 90.000000
_cell_volume 1107.062494
_symmetry_space_group_name_H-M "C 2/C"
_symmetry_group_IT_number 15
_symmetry_cell_setting 'monoclinic'
loop_
_space_group_symop_operation_xyz
x,y,z
-x,y,1/2-z
-x,-y,-z
x,-y,1/2+z
1/2+x,1/2+y,z
1/2-x,1/2+y,1/2-z
1/2-x,1/2-y,-z
1/2+x,1/2-y,1/2+z
loop_
_atom_site_type_symbol
_atom_site_label
_atom_site_fract_x
_atom_site_fract_y
_atom_site_fract_z
Si Si1 0.313872 0.669970 0.730993
Si Si2 0.555520 0.665250 0.353798
Si Si3 0.692920 0.503039 0.019704
Si Si4 0.565176 0.836489 0.604911
O O1 0.500000 0.721428 0.750000
O O2 0.393013 0.493202 0.695089
O O3 0.094760 0.680091 0.803707
O O4 0.338326 0.798150 0.672866
O O5 0.339461 0.648598 0.427362
O O6 0.252183 0.645075 0.126371
O O7 0.640528 0.334970 0.062995
O O8 0.500000 0.500000 0.000000
O O9 0.912993 0.479354 0.947739
#
# Coordination Sequence:
#
# PCOD9308481 Si02
#       4
#     8   8   8   8
#     4   9  17  29  44  65  92 123 158 196 237 282
#     4   9  16  27  44  66  93 124 158 195 236 282
#     4   8  13  23  43  71  95 120 157 196 235 280
#     4   8  14  25  43  68  94 121 157 196 235 281
#
# _framework density 28.905324
#
# number of rings (size 3 to 8) (size 9 to 14) (size 15 to 20)
#    0.000    3.500    0.000    0.000    0.000    0.000 
#    0.000    3.750    0.000    1.500    0.000  157.500 
#    0.000    0.000    0.000    0.000    0.000    0.000 
#
# Total GULP energy -89474.484730 kJ/mol
# GULP energy per Si atom -5592.155296 kJ/mol
# Density = 2.883953 g / cm^3
# Si number density = 28.905324 Si / 1000 Ang^3
#
#
#
# Elastic Constant Matrix: (Units=GPa)
#
#
# Indices 1 2 3 4 5 6 
#
# 1 86.3725 -7.9198 48.1763 0.0000 -18.5607 0.0000
# 2 -7.9198 92.7101 31.8897 0.0000 15.8758 0.0000
# 3 48.1763 31.8897 186.6889 0.0000 32.3064 0.0000
# 4 0.0000 0.0000 0.0000 52.0971 0.0000 14.0950
# 5 -18.5607 15.8758 32.3064 0.0000 35.9247 0.0000
# 6 0.0000 0.0000 0.0000 14.0950 0.0000 28.4422
#
#
#
# Elastic Compliance Matrix: (Units=1/GPa)
#
#
# Indices 1 2 3 4 5 6 
#
# 1 0.020198 0.001680 -0.008499 0.000000 0.017336 0.000000
# 2 0.001680 0.012083 -0.002042 0.000000 -0.002636 0.000000
# 3 -0.008499 -0.002042 0.010069 0.000000 -0.012544 0.000000
# 4 0.000000 0.000000 0.000000 0.022167 0.000000 -0.010985
# 5 0.017336 -0.002636 -0.012544 0.000000 0.049238 0.000000
# 6 0.000000 0.000000 0.000000 -0.010985 0.000000 0.040603
#
#
# Mechanical properties :
#
#
# Convention : Reuss Voigt Hill
#
# Bulk Modulus (GPa) = 40.60155 56.67377 48.63766
# Shear Modulus (GPa) = 27.73320 42.86781 35.30050
#
# Velocity S-wave (km/s) = 3.10086 3.85521 3.49842
# Velocity P-wave (km/s) = 5.18626 6.28220 5.76036
#
# Compressibility (1/GPa) = 0.02462960
#
# Stress axis : x y z
#
# Youngs Moduli (GPa) = 49.51042 82.75783 99.31247
#
# Poissons Ratio (x) = -0.13905 0.84407
# Poissons Ratio (y) = -0.08319 0.20275
# Poissons Ratio (z) = 0.42080 0.16895
#
# Static dielectric constant tensor:
#      x y z
#    x 2.194330 0.000000 -0.101960 
#    y 0.000000 2.300220 0.000000 
#    z -0.101960 0.000000 2.328790 
# 
# From -- ./inp_files/141005.got.cif
#   From: 2010.05.17/outbox.cif.g08.bks.cpg/sg15_71_cif.got.tgz:141005.got - 2010.06.03 18:47:42.
