data_PCOD9308272
_publ_section_title
;
Structure prediction by ZEFSAII (Michael W. Deem and Ramdas Pophale) SiO2 
 PCOD9308272
Probable space group: C 2/C
;
_chemical_formula_sum "Si O2"
_cell_formula_units_Z 24
_cell_length_a 18.170462
_cell_length_b 7.427533
_cell_length_c 7.195111
_cell_angle_alpha 90.000000
_cell_angle_beta 105.403506
_cell_angle_gamma 90.000000
_cell_volume 936.182998
_symmetry_space_group_name_H-M "C 2/C"
_symmetry_group_IT_number 15
_symmetry_cell_setting 'monoclinic'
loop_
_space_group_symop_operation_xyz
x,y,z
-x,y,1/2-z
-x,-y,-z
x,-y,1/2+z
1/2+x,1/2+y,z
1/2-x,1/2+y,1/2-z
1/2-x,1/2-y,-z
1/2+x,1/2-y,1/2+z
loop_
_atom_site_type_symbol
_atom_site_label
_atom_site_fract_x
_atom_site_fract_y
_atom_site_fract_z
Si Si1 0.838685 0.812519 0.609296
Si Si2 0.161455 0.768647 0.465815
Si Si3 0.553265 0.150202 0.128352
O O1 0.750000 0.750000 0.500000
O O2 0.902467 0.748314 0.506463
O O3 0.849508 0.028556 0.614253
O O4 0.857746 0.754041 0.831440
O O5 0.250000 0.750000 0.500000
O O6 0.123163 0.613614 0.316404
O O7 0.500000 0.249770 0.250000
O O8 0.500000 0.000000 0.000000
#
# Coordination Sequence:
#
# PCOD9308272 Si02
#       3
#     8   8   8
#     4  12  26  51  87 125 171 229 296 354 433 536
#     4  12  26  51  87 126 168 232 294 355 432 537
#     4  12  32  50  80 130 175 224 286 367 446 504
#
# _framework density 25.636012999999998
#
# number of rings (size 3 to 8) (size 9 to 14) (size 15 to 20)
#    0.000    0.000    6.667    0.000    9.333    1.333 
#    0.000    0.000    0.000    0.000    0.000    0.000 
#    0.000    0.000    0.000    0.000    0.000    0.000 
#
# Total GULP energy -67059.570765 kJ/mol
# GULP energy per Si atom -5588.297564 kJ/mol
# Density = 2.557766 g / cm^3
# Si number density = 25.636013 Si / 1000 Ang^3
#
#
#
# Elastic Constant Matrix: (Units=GPa)
#
#
# Indices 1 2 3 4 5 6 
#
# 1 191.3866 69.2418 67.2973 0.0000 -28.1947 0.0000
# 2 69.2418 150.7994 82.9212 0.0000 -4.6849 0.0000
# 3 67.2973 82.9212 237.9550 0.0000 -20.2694 0.0000
# 4 0.0000 0.0000 0.0000 31.2863 0.0000 3.7921
# 5 -28.1947 -4.6849 -20.2694 0.0000 75.0060 0.0000
# 6 0.0000 0.0000 0.0000 3.7921 0.0000 56.2108
#
#
#
# Elastic Compliance Matrix: (Units=1/GPa)
#
#
# Indices 1 2 3 4 5 6 
#
# 1 0.006770 -0.002585 -0.000830 0.000000 0.002159 0.000000
# 2 -0.002585 0.009196 -0.002566 0.000000 -0.001091 0.000000
# 3 -0.000830 -0.002566 0.005416 0.000000 0.000991 0.000000
# 4 0.000000 0.000000 0.000000 0.032226 0.000000 -0.002174
# 5 0.002159 -0.001091 0.000991 0.000000 0.014344 0.000000
# 6 0.000000 0.000000 0.000000 -0.002174 0.000000 0.017937
#
#
# Mechanical properties :
#
#
# Convention : Reuss Voigt Hill
#
# Bulk Modulus (GPa) = 106.16832 113.22908 109.69870
# Shear Modulus (GPa) = 49.50937 56.54600 53.02768
#
# Velocity S-wave (km/s) = 4.39936 4.70161 4.55299
# Velocity P-wave (km/s) = 8.20423 8.58705 8.39782
#
# Compressibility (1/GPa) = 0.00941901
#
# Stress axis : x y z
#
# Youngs Moduli (GPa) = 147.70509 108.74792 184.64183
#
# Poissons Ratio (x) = 0.28114 0.15324
# Poissons Ratio (y) = 0.38185 0.47383
# Poissons Ratio (z) = 0.12258 0.27907
#
# Static dielectric constant tensor:
#      x y z
#    x 2.060770 0.000000 0.010780 
#    y 0.000000 2.100530 0.000000 
#    z 0.010780 0.000000 1.988080 
# 
# From -- ./inp_files/45332.got.cif
#   From: 2010.05.17/outbox.cif.g08.bks.cpg/sg15_23_cif.got.tgz:45332.got - 2010.06.03 18:47:42.
