data_PCOD9308399
_publ_section_title
;
Structure prediction by ZEFSAII (Michael W. Deem and Ramdas Pophale) SiO2 
 PCOD9308399
Probable space group: C 2/C
;
_chemical_formula_sum "Si O2"
_cell_formula_units_Z 24
_cell_length_a 17.095731
_cell_length_b 8.945119
_cell_length_c 17.313896
_cell_angle_alpha 90.000000
_cell_angle_beta 163.145583
_cell_angle_gamma 90.000000
_cell_volume 767.676179
_symmetry_space_group_name_H-M "C 2/C"
_symmetry_group_IT_number 15
_symmetry_cell_setting 'monoclinic'
loop_
_space_group_symop_operation_xyz
x,y,z
-x,y,1/2-z
-x,-y,-z
x,-y,1/2+z
1/2+x,1/2+y,z
1/2-x,1/2+y,1/2-z
1/2-x,1/2-y,-z
1/2+x,1/2-y,1/2+z
loop_
_atom_site_type_symbol
_atom_site_label
_atom_site_fract_x
_atom_site_fract_y
_atom_site_fract_z
Si Si1 0.000000 0.500000 0.500000
Si Si2 0.000000 0.114918 0.250000
Si Si3 0.703023 0.148122 0.540291
Si Si4 0.449699 0.271631 0.527915
O O1 0.883736 0.389440 0.455796
O O2 0.742127 0.641427 0.285894
O O3 0.933135 0.198845 0.106117
O O4 0.241550 0.001387 0.455221
O O5 0.976726 0.238609 0.801728
O O6 0.190690 0.381034 0.254178
#
# Coordination Sequence:
#
# PCOD9308399 Si02
#       4
#     4   4   8   8
#     4  12  28  54  82 124 172 216 288 346 436 502
#     4  12  28  56  86 126 172 224 290 348 440 502
#     4  12  30  51  83 121 173 223 280 355 416 507
#     4  12  28  50  85 119 164 223 277 352 416 517
#
# _framework density 31.263180999999999
#
# number of rings (size 3 to 8) (size 9 to 14) (size 15 to 20)
#    0.000    0.000    3.333    4.000    4.667    5.333 
#    0.000    0.000    0.000    0.000    0.000    0.000 
#    0.000    0.000    0.000    0.000    0.000    0.000 
#
# Total GULP energy -66942.157547 kJ/mol
# GULP energy per Si atom -5578.513129 kJ/mol
# Density = 3.119202 g / cm^3
# Si number density = 31.263181 Si / 1000 Ang^3
#
#
#
# Elastic Constant Matrix: (Units=GPa)
#
#
# Indices 1 2 3 4 5 6 
#
# 1 419.0293 121.5274 100.8926 0.0074 -0.0916 0.0002
# 2 121.5274 232.9912 115.8034 0.0183 -16.8371 0.0099
# 3 100.8926 115.8034 438.9165 0.0288 58.6607 0.0136
# 4 0.0074 0.0183 0.0288 43.6420 0.0136 -12.6285
# 5 -0.0916 -16.8371 58.6607 0.0136 62.6446 0.0048
# 6 0.0002 0.0099 0.0136 -12.6285 0.0048 77.2522
#
#
#
# Elastic Compliance Matrix: (Units=1/GPa)
#
#
# Indices 1 2 3 4 5 6 
#
# 1 0.002847 -0.001349 -0.000286 0.000000 -0.000090 0.000000
# 2 -0.001349 0.006092 -0.001733 -0.000003 0.003258 -0.000001
# 3 -0.000286 -0.001733 0.003273 0.000000 -0.003531 0.000000
# 4 0.000000 -0.000003 0.000000 0.024051 -0.000006 0.003932
# 5 -0.000090 0.003258 -0.003531 -0.000006 0.020145 -0.000002
# 6 0.000000 -0.000001 0.000000 0.003932 -0.000002 0.013587
#
#
# Mechanical properties :
#
#
# Convention : Reuss Voigt Hill
#
# Bulk Modulus (GPa) = 182.61389 196.37597 189.49493
# Shear Modulus (GPa) = 63.64748 86.88865 75.26807
#
# Velocity S-wave (km/s) = 4.51695 5.27759 4.91202
# Velocity P-wave (km/s) = 9.25972 10.00437 9.63924
#
# Compressibility (1/GPa) = 0.00547603
#
# Stress axis : x y z
#
# Youngs Moduli (GPa) = 351.29217 164.14204 305.50483
#
# Poissons Ratio (x) = 0.22142 0.08749
# Poissons Ratio (y) = 0.47389 0.52936
# Poissons Ratio (z) = 0.10060 0.28441
#
# Static dielectric constant tensor:
#      x y z
#    x 2.531810 0.000020 -0.144570 
#    y 0.000020 3.041660 -0.000070 
#    z -0.144570 -0.000070 3.113700 
# 
# From -- ./inp_files/210502.got.cif
#   From: 2010.05.17/outbox.cif.g08.bks.cpg/sg15_106_cif.got.tgz:210502.got - 2010.06.03 18:47:42.
