data_PCOD9308205
_publ_section_title
;
Structure prediction by ZEFSAII (Michael W. Deem and Ramdas Pophale) SiO2 
 PCOD9308205
Probable space group: C 2/C
;
_chemical_formula_sum "Si O2"
_cell_formula_units_Z 32
_cell_length_a 4.949045
_cell_length_b 15.551273
_cell_length_c 18.092312
_cell_angle_alpha 90.000000
_cell_angle_beta 114.779088
_cell_angle_gamma 90.000000
_cell_volume 1264.253101
_symmetry_space_group_name_H-M "C 2/C"
_symmetry_group_IT_number 15
_symmetry_cell_setting 'monoclinic'
loop_
_space_group_symop_operation_xyz
x,y,z
-x,y,1/2-z
-x,-y,-z
x,-y,1/2+z
1/2+x,1/2+y,z
1/2-x,1/2+y,1/2-z
1/2-x,1/2-y,-z
1/2+x,1/2-y,1/2+z
loop_
_atom_site_type_symbol
_atom_site_label
_atom_site_fract_x
_atom_site_fract_y
_atom_site_fract_z
Si Si1 0.798017 0.624244 0.025197
Si Si2 0.631514 0.151002 0.914209
Si Si3 0.272676 0.012796 0.157083
Si Si4 0.609073 0.327055 0.845094
O O1 0.808000 0.537732 0.074473
O O2 0.038630 0.677315 0.100146
O O3 0.463599 0.659026 0.986271
O O4 0.919267 0.618085 0.955989
O O5 0.498838 0.241746 0.873445
O O6 0.693815 0.089288 0.850646
O O7 0.500000 0.035322 0.250000
O O8 0.997177 0.076432 0.144076
O O9 0.500000 0.318588 0.750000
#
# Coordination Sequence:
#
# PCOD9308205 Si02
#       4
#     8   8   8   8
#     4  12  26  49  75 110 145 196 245 306 369 441
#     4  12  29  47  76 110 147 192 253 302 366 449
#     4  12  27  48  76 108 151 196 244 306 376 439
#     4  12  27  48  76 108 151 196 244 306 376 439
#
# _framework density 25.311385999999999
#
# number of rings (size 3 to 8) (size 9 to 14) (size 15 to 20)
#    0.000    0.000    5.000    3.750    7.000    0.000 
#    0.000    2.500    0.000    0.000    0.000    0.000 
#    0.000    0.000    0.000    0.000    0.000    0.000 
#
# Total GULP energy -89236.701962 kJ/mol
# GULP energy per Si atom -5577.293873 kJ/mol
# Density = 2.525378 g / cm^3
# Si number density = 25.311386 Si / 1000 Ang^3
#
#
#
# Elastic Constant Matrix: (Units=GPa)
#
#
# Indices 1 2 3 4 5 6 
#
# 1 104.8758 22.2684 29.2327 0.0000 -13.9551 0.0000
# 2 22.2684 86.1020 37.1703 0.0000 -15.1913 0.0000
# 3 29.2327 37.1703 122.4310 0.0000 -13.5168 0.0000
# 4 0.0000 0.0000 0.0000 101.5013 0.0000 7.8436
# 5 -13.9551 -15.1913 -13.5168 0.0000 22.3270 0.0000
# 6 0.0000 0.0000 0.0000 7.8436 0.0000 19.0564
#
#
#
# Elastic Compliance Matrix: (Units=1/GPa)
#
#
# Indices 1 2 3 4 5 6 
#
# 1 0.010927 -0.001218 -0.001690 0.000000 0.004978 0.000000
# 2 -0.001218 0.014646 -0.003364 0.000000 0.007167 0.000000
# 3 -0.001690 -0.003364 0.009884 0.000000 0.002639 0.000000
# 4 0.000000 0.000000 0.000000 0.010176 0.000000 -0.004188
# 5 0.004978 0.007167 0.002639 0.000000 0.054374 0.000000
# 6 0.000000 0.000000 0.000000 -0.004188 0.000000 0.054200
#
#
# Mechanical properties :
#
#
# Convention : Reuss Voigt Hill
#
# Bulk Modulus (GPa) = 43.64428 54.52796 49.08612
# Shear Modulus (GPa) = 28.67153 43.55943 36.11548
#
# Velocity S-wave (km/s) = 3.36929 4.15292 3.78146
# Velocity P-wave (km/s) = 5.69355 6.67722 6.20491
#
# Compressibility (1/GPa) = 0.02291251
#
# Stress axis : x y z
#
# Youngs Moduli (GPa) = 91.51552 68.27725 101.17316
#
# Poissons Ratio (x) = 0.08319 0.17094
# Poissons Ratio (y) = 0.11150 0.34039
# Poissons Ratio (z) = 0.15462 0.22971
#
# Static dielectric constant tensor:
#      x y z
#    x 2.071790 0.000000 -0.069490 
#    y 0.000000 2.242110 0.000000 
#    z -0.069490 0.000000 1.974780 
# 
# From -- ./inp_files/183898.got.cif
#   From: 2010.05.17/outbox.cif.g08.bks.cpg/sg15_92_cif.got.tgz:183898.got - 2010.06.03 18:47:42.
