data_PCOD9308746
_publ_section_title
;
Structure prediction by ZEFSAII (Michael W. Deem and Ramdas Pophale) SiO2 
 PCOD9308746
Probable space group: C 2/C
;
_chemical_formula_sum "Si O2"
_cell_formula_units_Z 18
_cell_length_a 12.000000
_cell_length_b 21.000000
_cell_length_c 15.000000
_cell_angle_alpha 90.000000
_cell_angle_beta 150.000000
_cell_angle_gamma 90.000000
_cell_volume 1890.000000
_symmetry_space_group_name_H-M "C 2/C"
_symmetry_group_IT_number 15
_symmetry_cell_setting 'monoclinic'
loop_
_space_group_symop_operation_xyz
x,y,z
-x,y,1/2-z
-x,-y,-z
x,-y,1/2+z
1/2+x,1/2+y,z
1/2-x,1/2+y,1/2-z
1/2-x,1/2-y,-z
1/2+x,1/2-y,1/2+z
loop_
_atom_site_type_symbol
_atom_site_label
_atom_site_fract_x
_atom_site_fract_y
_atom_site_fract_z
Si Si1 0.945098 0.681247 0.068743
Si Si2 0.000000 0.515333 0.750000
Si Si3 0.836223 0.948363 0.343639
Si Si4 0.876554 0.821787 0.988488
Si Si5 0.235269 0.447528 0.084548
O O1 0.732027 0.681468 0.988180
O O2 0.167421 0.669729 0.278662
O O3 0.965883 0.749839 0.036876
O O4 0.891392 0.617966 0.978027
O O5 0.844532 0.558445 0.704015
O O6 0.870919 0.473855 0.582694
O O7 0.739666 0.979912 0.185632
O O8 0.960286 0.881507 0.409782
O O9 0.000000 0.000000 0.500000
O O10 0.500000 0.440272 0.250000
#
# Coordination Sequence:
#
# PCOD9308746 Si02
#       5
#     8   4   8   8   8
#     4  10  19  34  57  91 123 153 204 260 320 362
#     4  12  26  42  62  94 130 176 210 252 314 384
#     4  12  23  40  63  90 130 168 211 257 313 379
#     4  10  20  33  58  89 125 161 197 258 321 371
#     4  12  22  40  65  93 125 163 209 263 314 366
#
# _framework density 9.5238099999999992
#
# number of rings (size 3 to 8) (size 9 to 14) (size 15 to 20)
#    0.000    0.889    4.444    4.667    3.111    0.000 
#    0.000    0.000    0.000    5.333    0.000    0.000 
#    0.000    0.000    0.000    0.000    0.000    0.000 
#
# Total GULP energy -100253.587651 kJ/mol
# GULP energy per Si atom -5569.643758 kJ/mol
# Density = 0.950213 g / cm^3
# Si number density = 9.523810 Si / 1000 Ang^3
#
#
#
# Elastic Constant Matrix: (Units=GPa)
#
#
# Indices 1 2 3 4 5 6 
#
# 1 106.7514 31.9542 43.6641 0.0000 -4.4476 0.0000
# 2 31.9542 108.2327 51.7189 0.0000 -0.5705 0.0000
# 3 43.6641 51.7189 115.8072 -0.0001 -23.6701 0.0001
# 4 0.0000 0.0000 -0.0001 38.5914 0.0000 1.1718
# 5 -4.4476 -0.5705 -23.6701 0.0000 36.2518 0.0001
# 6 0.0000 0.0000 0.0001 1.1718 0.0001 27.5516
#
#
#
# Elastic Compliance Matrix: (Units=1/GPa)
#
#
# Indices 1 2 3 4 5 6 
#
# 1 0.011342 -0.001526 -0.003826 0.000000 -0.001131 0.000000
# 2 -0.001526 0.012408 -0.005729 0.000000 -0.003732 0.000000
# 3 -0.003826 -0.005729 0.014450 0.000000 0.008875 0.000000
# 4 0.000000 0.000000 0.000000 0.025946 0.000000 -0.001104
# 5 -0.001131 -0.003732 0.008875 0.000000 0.033182 0.000000
# 6 0.000000 0.000000 0.000000 -0.001104 0.000000 0.036342
#
#
# Mechanical properties :
#
#
# Convention : Reuss Voigt Hill
#
# Bulk Modulus (GPa) = 62.35113 65.05175 63.70144
# Shear Modulus (GPa) = 31.02147 34.04257 32.53202
#
# Velocity S-wave (km/s) = 4.04000 4.23216 4.13720
# Velocity P-wave (km/s) = 7.38699 7.62285 7.50585
#
# Compressibility (1/GPa) = 0.01603820
#
# Stress axis : x y z
#
# Youngs Moduli (GPa) = 88.16595 80.59495 69.20422
#
# Poissons Ratio (x) = 0.12302 0.26477
# Poissons Ratio (y) = 0.13458 0.39644
# Poissons Ratio (z) = 0.33731 0.46170
#
# Static dielectric constant tensor:
#      x y z
#    x 1.738270 0.000000 0.011440 
#    y 0.000000 1.731960 0.000000 
#    z 0.011440 0.000000 1.747650 
# 
# From -- ./inp_files/147309.got.cif
#   From: 2010.05.17/outbox.ucp.g08.bks.cvg/sg15_74_cif.got.tgz:147309.got - 2010.06.11 12:40:34.
