data_PCOD9308134
_publ_section_title
;
Structure prediction by ZEFSAII (Michael W. Deem and Ramdas Pophale) SiO2 
 PCOD9308134
Probable space group: C 2/C
;
_chemical_formula_sum "Si O2"
_cell_formula_units_Z 28
_cell_length_a 15.509638
_cell_length_b 10.631124
_cell_length_c 10.538782
_cell_angle_alpha 90.000000
_cell_angle_beta 132.532363
_cell_angle_gamma 90.000000
_cell_volume 1280.493093
_symmetry_space_group_name_H-M "C 2/C"
_symmetry_group_IT_number 15
_symmetry_cell_setting 'monoclinic'
loop_
_space_group_symop_operation_xyz
x,y,z
-x,y,1/2-z
-x,-y,-z
x,-y,1/2+z
1/2+x,1/2+y,z
1/2-x,1/2+y,1/2-z
1/2-x,1/2-y,-z
1/2+x,1/2-y,1/2+z
loop_
_atom_site_type_symbol
_atom_site_label
_atom_site_fract_x
_atom_site_fract_y
_atom_site_fract_z
Si Si1 0.433174 0.474925 0.562376
Si Si2 0.158297 0.290073 0.517194
Si Si3 0.000000 0.491132 0.750000
Si Si4 0.714063 0.848899 0.853477
O O1 0.500000 0.528975 0.750000
O O2 0.500000 0.500000 0.500000
O O3 0.429839 0.325440 0.566768
O O4 0.305278 0.535758 0.440951
O O5 0.250000 0.250000 0.500000
O O6 0.216973 0.294220 0.714256
O O7 0.084779 0.402997 0.751571
O O8 0.911566 0.582234 0.584313
O O9 0.750000 0.750000 0.000000
#
# Coordination Sequence:
#
# PCOD9308134 Si02
#       4
#     8   8   4   8
#     4  12  26  47  75 108 148 194 248 306 373 445
#     4  12  26  50  76 109 149 197 249 306 380 448
#     4  12  28  50  76 112 154 200 252 310 376 456
#     4  12  30  47  77 112 152 197 251 311 377 445
#
# _framework density 21.866576999999999
#
# number of rings (size 3 to 8) (size 9 to 14) (size 15 to 20)
#    0.000    0.000    4.286    4.286   10.000    0.000 
#    0.000    0.000    0.000    0.000    0.000    0.000 
#    0.000    0.000    0.000    0.000    0.000    0.000 
#
# Total GULP energy -78323.070701 kJ/mol
# GULP energy per Si atom -5594.505050 kJ/mol
# Density = 2.181681 g / cm^3
# Si number density = 21.866577 Si / 1000 Ang^3
#
#
#
# Elastic Constant Matrix: (Units=GPa)
#
#
# Indices 1 2 3 4 5 6 
#
# 1 153.0679 31.8963 46.4414 0.0000 -27.9749 0.0000
# 2 31.8963 82.0381 26.1841 0.0000 -17.9498 0.0000
# 3 46.4414 26.1841 165.2761 0.0000 -32.3944 0.0000
# 4 0.0000 0.0000 0.0000 22.1070 0.0000 43.4034
# 5 -27.9749 -17.9498 -32.3944 0.0000 40.2440 0.0000
# 6 0.0000 0.0000 0.0000 43.4034 0.0000 -21.2859
#
#
#
# Elastic Compliance Matrix: (Units=1/GPa)
#
#
# Indices 1 2 3 4 5 6 
#
# 1 0.007977 -0.001900 -0.001211 0.000000 0.003723 0.000000
# 2 -0.001900 0.014143 -0.000866 0.000000 0.004290 0.000000
# 3 -0.001211 -0.000866 0.007465 0.000000 0.004781 0.000000
# 4 0.000000 0.000000 0.000000 0.009041 0.000000 0.018435
# 5 0.003723 0.004290 0.004781 0.000000 0.033198 0.000000
# 6 0.000000 0.000000 0.000000 0.018435 0.000000 -0.009390
#
#
# Mechanical properties :
#
#
# Convention : Reuss Voigt Hill
#
# Bulk Modulus (GPa) = 46.22915 67.71395 56.97155
# Shear Modulus (GPa) = 64.43394 27.93706 46.18550
#
# Velocity S-wave (km/s) = 5.43423 3.57825 4.60080
# Velocity P-wave (km/s) = 7.78215 6.93584 7.37115
#
# Compressibility (1/GPa) = 0.02163137
#
# Stress axis : x y z
#
# Youngs Moduli (GPa) = 125.36431 70.70445 133.95946
#
# Poissons Ratio (x) = 0.13437 0.16218
# Poissons Ratio (y) = 0.23824 0.11598
# Poissons Ratio (z) = 0.15178 0.06121
#
# Static dielectric constant tensor:
#      x y z
#    x 1.796160 0.000000 0.044150 
#    y 0.000000 1.734420 0.000000 
#    z 0.044150 0.000000 1.772820 
# 
# From -- ./inp_files/36610.got.cif
#   From: 2010.05.17/outbox.cif.g08.bks.cpg/sg15_19_cif.got.tgz:36610.got - 2010.06.03 18:47:42.
