data_PCOD9308034
_publ_section_title
;
Structure prediction by ZEFSAII (Michael W. Deem and Ramdas Pophale) SiO2 
 PCOD9308034
Probable space group: C 2/C
;
_chemical_formula_sum "Si O2"
_cell_formula_units_Z 36
_cell_length_a 9.351795
_cell_length_b 19.979866
_cell_length_c 8.898265
_cell_angle_alpha 90.000000
_cell_angle_beta 117.104910
_cell_angle_gamma 90.000000
_cell_volume 1480.020308
_symmetry_space_group_name_H-M "C 2/C"
_symmetry_group_IT_number 15
_symmetry_cell_setting 'monoclinic'
loop_
_space_group_symop_operation_xyz
x,y,z
-x,y,1/2-z
-x,-y,-z
x,-y,1/2+z
1/2+x,1/2+y,z
1/2-x,1/2+y,1/2-z
1/2-x,1/2-y,-z
1/2+x,1/2-y,1/2+z
loop_
_atom_site_type_symbol
_atom_site_label
_atom_site_fract_x
_atom_site_fract_y
_atom_site_fract_z
Si Si1 0.500000 0.727352 0.250000
Si Si2 0.664027 0.052749 0.050605
Si Si3 0.776612 0.582171 0.075504
Si Si4 0.376120 0.150904 0.865494
Si Si5 0.084997 0.886509 0.023303
O O1 0.611144 0.777937 0.209013
O O2 0.427916 0.680501 0.084891
O O3 0.675377 0.066084 0.232037
O O4 0.541699 0.108332 0.924519
O O5 0.838884 0.063664 0.060899
O O6 0.642079 0.976326 0.987851
O O7 0.844619 0.649040 0.029221
O O8 0.584896 0.590786 0.993108
O O9 0.217921 0.117810 0.717131
#
# Coordination Sequence:
#
# PCOD9308034 Si02
#       5
#     4   8   8   8   8
#     4  12  26  50  80 104 156 200 260 302 376 436
#     4  12  25  49  76 114 153 195 247 313 383 448
#     4  12  27  48  79 115 152 193 253 310 382 451
#     4  12  27  46  79 109 151 201 251 307 373 442
#     4  12  25  50  76 112 148 204 247 311 370 446
#
# _framework density 24.323989999999998
#
# number of rings (size 3 to 8) (size 9 to 14) (size 15 to 20)
#    0.000    0.000    4.444    4.667    0.000    4.444 
#    0.000    2.222    0.000    0.000    0.000    0.000 
#    0.000    0.000    0.000    0.000    0.000    0.000 
#
# Total GULP energy -100615.476962 kJ/mol
# GULP energy per Si atom -5589.748720 kJ/mol
# Density = 2.426863 g / cm^3
# Si number density = 24.323990 Si / 1000 Ang^3
#
#
#
# Elastic Constant Matrix: (Units=GPa)
#
#
# Indices 1 2 3 4 5 6 
#
# 1 105.6442 13.1512 18.3180 0.0000 -0.0993 0.0000
# 2 13.1512 75.0043 23.0826 0.0000 2.1554 0.0000
# 3 18.3180 23.0826 101.3130 0.0000 -7.3303 0.0000
# 4 0.0000 0.0000 0.0000 23.1680 0.0000 -44.4406
# 5 -0.0993 2.1554 -7.3303 0.0000 60.8198 0.0000
# 6 0.0000 0.0000 0.0000 -44.4406 0.0000 -111.3702
#
#
#
# Elastic Compliance Matrix: (Units=1/GPa)
#
#
# Indices 1 2 3 4 5 6 
#
# 1 0.009885 -0.001266 -0.001508 0.000000 -0.000121 0.000000
# 2 -0.001266 0.014550 -0.003151 0.000000 -0.000897 0.000000
# 3 -0.001508 -0.003151 0.010964 0.000000 0.001431 0.000000
# 4 0.000000 0.000000 0.000000 0.024449 0.000000 -0.009756
# 5 -0.000121 -0.000897 0.001431 0.000000 0.016646 0.000000
# 6 0.000000 0.000000 0.000000 -0.009756 0.000000 -0.005086
#
#
# Mechanical properties :
#
#
# Convention : Reuss Voigt Hill
#
# Bulk Modulus (GPa) = 42.46231 43.45168 42.95700
# Shear Modulus (GPa) = 54.88055 9.68415 32.28235
#
# Velocity S-wave (km/s) = 4.75513 1.99749 3.64700
# Velocity P-wave (km/s) = 6.90241 4.81897 5.95255
#
# Compressibility (1/GPa) = 0.02355030
#
# Stress axis : x y z
#
# Youngs Moduli (GPa) = 101.16759 68.72835 91.20414
#
# Poissons Ratio (x) = 0.08699 0.13749
# Poissons Ratio (y) = 0.12805 0.28739
# Poissons Ratio (z) = 0.15251 0.21657
#
# Static dielectric constant tensor:
#      x y z
#    x 1.991430 0.000000 0.017860 
#    y 0.000000 2.060510 0.000000 
#    z 0.017860 0.000000 1.942270 
# 
# From -- ./inp_files/77997.got.cif
#   From: 2010.05.17/outbox.cif.g08.bks.cpg/sg15_39_cif.got.tgz:77997.got - 2010.06.03 18:47:42.
