data_PCOD9308216
_publ_section_title
;
Structure prediction by ZEFSAII (Michael W. Deem and Ramdas Pophale) SiO2 
 PCOD9308216
Probable space group: C 2/C
;
_chemical_formula_sum "Si O2"
_cell_formula_units_Z 24
_cell_length_a 12.397004
_cell_length_b 9.407907
_cell_length_c 8.066408
_cell_angle_alpha 90.000000
_cell_angle_beta 95.725625
_cell_angle_gamma 90.000000
_cell_volume 936.090518
_symmetry_space_group_name_H-M "C 2/C"
_symmetry_group_IT_number 15
_symmetry_cell_setting 'monoclinic'
loop_
_space_group_symop_operation_xyz
x,y,z
-x,y,1/2-z
-x,-y,-z
x,-y,1/2+z
1/2+x,1/2+y,z
1/2-x,1/2+y,1/2-z
1/2-x,1/2-y,-z
1/2+x,1/2-y,1/2+z
loop_
_atom_site_type_symbol
_atom_site_label
_atom_site_fract_x
_atom_site_fract_y
_atom_site_fract_z
Si Si1 0.906067 0.599704 0.573589
Si Si2 0.570798 0.384496 0.113894
Si Si3 0.275045 0.880948 0.374553
O O1 0.906244 0.755264 0.500935
O O2 0.802271 0.514418 0.491271
O O3 0.878104 0.631320 0.763424
O O4 0.000000 0.500000 0.500000
O O5 0.500000 0.317666 0.250000
O O6 0.674627 0.422428 0.241702
O O7 0.500000 0.500000 0.000000
O O8 0.250000 0.750000 0.500000
#
# Coordination Sequence:
#
# PCOD9308216 Si02
#       3
#     8   8   8
#     4  12  27  50  80 117 161 218 280 346 417 502
#     4  12  28  49  76 117 163 215 275 345 418 500
#     4  12  26  49  80 118 162 217 278 345 419 502
#
# _framework density 25.638544
#
# number of rings (size 3 to 8) (size 9 to 14) (size 15 to 20)
#    0.000    0.000    0.000   10.000    0.000   10.667 
#    0.000    0.000    0.000    0.000    0.000    0.000 
#    0.000    0.000    0.000    0.000    0.000    0.000 
#
# Total GULP energy -66891.442995 kJ/mol
# GULP energy per Si atom -5574.286916 kJ/mol
# Density = 2.558019 g / cm^3
# Si number density = 25.638544 Si / 1000 Ang^3
#
#
#
# Elastic Constant Matrix: (Units=GPa)
#
#
# Indices 1 2 3 4 5 6 
#
# 1 111.8789 44.4248 73.2151 0.0000 -6.1815 0.0000
# 2 44.4248 215.3219 105.7635 0.0000 18.7842 0.0000
# 3 73.2151 105.7635 220.9432 0.0000 -13.1864 0.0000
# 4 0.0000 0.0000 0.0000 68.5284 0.0000 -15.2942
# 5 -6.1815 18.7842 -13.1864 0.0000 83.6166 0.0000
# 6 0.0000 0.0000 0.0000 -15.2942 0.0000 47.7267
#
#
#
# Elastic Compliance Matrix: (Units=1/GPa)
#
#
# Indices 1 2 3 4 5 6 
#
# 1 0.011501 -0.000727 -0.003435 0.000000 0.000472 0.000000
# 2 -0.000727 0.006412 -0.002945 0.000000 -0.001959 0.000000
# 3 -0.003435 -0.002945 0.007166 0.000000 0.001538 0.000000
# 4 0.000000 0.000000 0.000000 0.015717 0.000000 0.005036
# 5 0.000472 -0.001959 0.001538 0.000000 0.012677 0.000000
# 6 0.000000 0.000000 0.000000 0.005036 0.000000 0.022567
#
#
# Mechanical properties :
#
#
# Convention : Reuss Voigt Hill
#
# Bulk Modulus (GPa) = 92.04396 110.55009 101.29702
# Shear Modulus (GPa) = 53.26293 61.62372 57.44332
#
# Velocity S-wave (km/s) = 4.56286 4.90793 4.73853
# Velocity P-wave (km/s) = 7.98361 8.67925 8.33869
#
# Compressibility (1/GPa) = 0.01086437
#
# Stress axis : x y z
#
# Youngs Moduli (GPa) = 86.95044 155.96486 139.54774
#
# Poissons Ratio (x) = 0.11334 0.47935
# Poissons Ratio (y) = 0.06319 0.41101
# Poissons Ratio (z) = 0.29868 0.45936
#
# Static dielectric constant tensor:
#      x y z
#    x 2.233930 0.000000 0.009290 
#    y 0.000000 1.867320 0.000000 
#    z 0.009290 0.000000 1.996070 
# 
# From -- ./inp_files/36137.got.cif
#   From: 2010.05.17/outbox.cif.g08.bks.cpg/sg15_19_cif.got.tgz:36137.got - 2010.06.03 18:47:42.
