data_PCOD9308126
_publ_section_title
;
Structure prediction by ZEFSAII (Michael W. Deem and Ramdas Pophale) SiO2 
 PCOD9308126
Probable space group: C 2/C
;
_chemical_formula_sum "Si O2"
_cell_formula_units_Z 32
_cell_length_a 29.214428
_cell_length_b 5.175442
_cell_length_c 19.512755
_cell_angle_alpha 90.000000
_cell_angle_beta 154.981460
_cell_angle_gamma 90.000000
_cell_volume 1247.707904
_symmetry_space_group_name_H-M "C 2/C"
_symmetry_group_IT_number 15
_symmetry_cell_setting 'monoclinic'
loop_
_space_group_symop_operation_xyz
x,y,z
-x,y,1/2-z
-x,-y,-z
x,-y,1/2+z
1/2+x,1/2+y,z
1/2-x,1/2+y,1/2-z
1/2-x,1/2-y,-z
1/2+x,1/2-y,1/2+z
loop_
_atom_site_type_symbol
_atom_site_label
_atom_site_fract_x
_atom_site_fract_y
_atom_site_fract_z
Si Si1 0.092245 0.344675 0.663455
Si Si2 0.680269 0.652238 0.516491
Si Si3 0.977760 0.105190 0.791091
Si Si4 0.727003 0.503743 0.762570
O O1 0.205406 0.502502 0.825706
O O2 0.118078 0.105037 0.648518
O O3 0.000000 0.500000 0.500000
O O4 0.053454 0.260309 0.685378
O O5 0.589853 0.550319 0.448111
O O6 0.703289 0.938505 0.574460
O O7 0.881030 0.908024 0.637724
O O8 0.000000 0.260030 0.750000
O O9 0.773634 0.736118 0.780059
#
# Coordination Sequence:
#
# PCOD9308126 Si02
#       4
#     8   8   8   8
#     4  12  26  46  87 133 174 226 294 359 451 514
#     4   9  23  50  80 118 174 223 297 348 435 515
#     4   8  23  49  85 120 168 240 284 366 424 524
#     4  12  27  50  83 121 173 221 282 370 430 515
#
# _framework density 25.647027999999999
#
# number of rings (size 3 to 8) (size 9 to 14) (size 15 to 20)
#    1.500    0.000    2.500    0.750    7.000    2.000 
#    0.000    6.250    0.000    0.000    6.500    0.000 
#    0.000    0.000    0.000    0.000    0.000    0.000 
#
# Total GULP energy -89473.176073 kJ/mol
# GULP energy per Si atom -5592.073505 kJ/mol
# Density = 2.558865 g / cm^3
# Si number density = 25.647028 Si / 1000 Ang^3
#
#
#
# Elastic Constant Matrix: (Units=GPa)
#
#
# Indices 1 2 3 4 5 6 
#
# 1 202.2663 85.6466 56.0983 0.0001 12.2418 0.0000
# 2 85.6466 142.8931 86.2015 0.0003 -2.2839 -0.0001
# 3 56.0983 86.2015 216.5928 0.0001 6.3783 0.0000
# 4 0.0001 0.0003 0.0001 64.0479 0.0000 -2.8605
# 5 12.2418 -2.2839 6.3783 0.0000 40.3403 0.0000
# 6 0.0000 -0.0001 0.0000 -2.8605 0.0000 17.6438
#
#
#
# Elastic Compliance Matrix: (Units=1/GPa)
#
#
# Indices 1 2 3 4 5 6 
#
# 1 0.006835 -0.004087 -0.000076 0.000000 -0.002293 0.000000
# 2 -0.004087 0.011703 -0.003672 0.000000 0.002484 0.000000
# 3 -0.000076 -0.003672 0.006132 0.000000 -0.001154 0.000000
# 4 0.000000 0.000000 0.000000 0.015727 0.000000 0.002550
# 5 -0.002293 0.002484 -0.001154 0.000000 0.025808 0.000000
# 6 0.000000 0.000000 0.000000 0.002550 0.000000 0.057090
#
#
# Mechanical properties :
#
#
# Convention : Reuss Voigt Hill
#
# Bulk Modulus (GPa) = 111.12538 113.07168 112.09853
# Shear Modulus (GPa) = 35.21971 46.66014 40.93993
#
# Velocity S-wave (km/s) = 3.70976 4.26998 3.99969
# Velocity P-wave (km/s) = 7.85955 8.27609 8.07051
#
# Compressibility (1/GPa) = 0.00899884
#
# Stress axis : x y z
#
# Youngs Moduli (GPa) = 146.31532 85.44779 163.07601
#
# Poissons Ratio (x) = 0.34925 0.01238
# Poissons Ratio (y) = 0.59804 0.59885
# Poissons Ratio (z) = 0.01111 0.31378
#
# Static dielectric constant tensor:
#      x y z
#    x 2.028230 0.000000 -0.058780 
#    y 0.000000 2.042630 0.000000 
#    z -0.058780 0.000000 2.113610 
# 
# From -- ./inp_files/254549.got.cif
#   From: 2010.05.17/outbox.cif.g08.bks.cpg/sg15_128_cif.got.tgz:254549.got - 2010.06.03 18:47:42.
