data_PCOD9308050
_publ_section_title
;
Structure prediction by ZEFSAII (Michael W. Deem and Ramdas Pophale) SiO2 
 PCOD9308050
Probable space group: C 2/C
;
_chemical_formula_sum "Si O2"
_cell_formula_units_Z 32
_cell_length_a 11.493393
_cell_length_b 16.215459
_cell_length_c 14.665736
_cell_angle_alpha 90.000000
_cell_angle_beta 29.303930
_cell_angle_gamma 90.000000
_cell_volume 1337.774267
_symmetry_space_group_name_H-M "C 2/C"
_symmetry_group_IT_number 15
_symmetry_cell_setting 'monoclinic'
loop_
_space_group_symop_operation_xyz
x,y,z
-x,y,1/2-z
-x,-y,-z
x,-y,1/2+z
1/2+x,1/2+y,z
1/2-x,1/2+y,1/2-z
1/2-x,1/2-y,-z
1/2+x,1/2-y,1/2+z
loop_
_atom_site_type_symbol
_atom_site_label
_atom_site_fract_x
_atom_site_fract_y
_atom_site_fract_z
Si Si1 0.984524 0.138155 0.531047
Si Si2 0.344247 0.175064 0.137193
Si Si3 0.246490 0.911689 0.027222
Si Si4 0.992524 0.588073 0.855524
O O1 0.858256 0.226444 0.632081
O O2 0.771096 0.073438 0.688418
O O3 0.110892 0.141086 0.347045
O O4 0.183838 0.124730 0.471244
O O5 0.569518 0.142270 0.040733
O O6 0.372587 0.141914 0.015865
O O7 0.000000 0.915108 0.250000
O O8 0.356890 0.002042 0.942300
O O9 0.000000 0.627606 0.750000
#
# Coordination Sequence:
#
# PCOD9308050 Si02
#       4
#     8   8   8   8
#     4  12  26  50  77 108 148 193 252 306 364 438
#     4  12  25  50  77 109 147 197 245 308 368 434
#     4  12  26  47  79 111 148 191 252 309 367 431
#     4  12  29  47  72 113 148 201 241 301 374 440
#
# _framework density 23.920328000000001
#
# number of rings (size 3 to 8) (size 9 to 14) (size 15 to 20)
#    0.000    0.000    5.000    3.750    3.500    3.000 
#    0.000    0.000    0.000    0.000    0.000    0.000 
#    0.000    0.000    0.000    0.000    0.000    0.000 
#
# Total GULP energy -89770.270535 kJ/mol
# GULP energy per Si atom -5610.641908 kJ/mol
# Density = 2.386588 g / cm^3
# Si number density = 23.920328 Si / 1000 Ang^3
#
#
#
# Elastic Constant Matrix: (Units=GPa)
#
#
# Indices 1 2 3 4 5 6 
#
# 1 65.3174 11.7956 -8.1796 0.0094 41.5690 -0.0207
# 2 11.7956 68.1864 22.1532 0.0013 9.1367 -0.0159
# 3 -8.1796 22.1532 150.1313 0.0369 27.3825 -0.0811
# 4 0.0094 0.0013 0.0369 36.9038 0.0021 -5.5599
# 5 41.5690 9.1367 27.3825 0.0021 45.8085 0.0095
# 6 -0.0207 -0.0159 -0.0811 -5.5599 0.0095 24.4214
#
#
#
# Elastic Compliance Matrix: (Units=1/GPa)
#
#
# Indices 1 2 3 4 5 6 
#
# 1 0.053950 -0.006400 0.014120 -0.000008 -0.056121 0.000108
# 2 -0.006400 0.016316 -0.003616 0.000003 0.004715 -0.000008
# 3 0.014120 -0.003616 0.011414 -0.000006 -0.018914 0.000054
# 4 -0.000008 0.000003 -0.000006 0.028060 0.000007 0.006388
# 5 -0.056121 0.004715 -0.018914 0.000007 0.083123 -0.000138
# 6 0.000108 -0.000008 0.000054 0.006388 -0.000138 0.042402
#
#
# Mechanical properties :
#
#
# Convention : Reuss Voigt Hill
#
# Bulk Modulus (GPa) = 11.12519 37.24150 24.18335
# Shear Modulus (GPa) = 19.45371 38.61779 29.03575
#
# Velocity S-wave (km/s) = 2.85488 4.02236 3.48782
# Velocity P-wave (km/s) = 3.94058 6.09715 5.13339
#
# Compressibility (1/GPa) = 0.08988608
#
# Stress axis : x y z
#
# Youngs Moduli (GPa) = 18.53564 61.28983 87.61512
#
# Poissons Ratio (x) = 0.39227 -1.23710
# Poissons Ratio (y) = 0.11863 0.31684
# Poissons Ratio (z) = -0.26172 0.22164
#
# Static dielectric constant tensor:
#      x y z
#    x 1.937990 0.000010 -0.008520 
#    y 0.000010 1.886880 0.000000 
#    z -0.008520 0.000000 1.901980 
# 
# From -- ./inp_files/145338.got.cif
#   From: 2010.05.17/outbox.cif.g08.bks.cpg/sg15_73_cif.got.tgz:145338.got - 2010.06.03 18:47:42.
