data_PCOD9308865
_publ_section_title
;
Structure prediction by ZEFSAII (Michael W. Deem and Ramdas Pophale) SiO2 
 PCOD9308865
Probable space group: C 2/C
;
_chemical_formula_sum "Si O2"
_cell_formula_units_Z 32
_cell_length_a 9.000000
_cell_length_b 24.000000
_cell_length_c 30.000000
_cell_angle_alpha 90.000000
_cell_angle_beta 150.000000
_cell_angle_gamma 90.000000
_cell_volume 3240.000000
_symmetry_space_group_name_H-M "C 2/C"
_symmetry_group_IT_number 15
_symmetry_cell_setting 'monoclinic'
loop_
_space_group_symop_operation_xyz
x,y,z
-x,y,1/2-z
-x,-y,-z
x,-y,1/2+z
1/2+x,1/2+y,z
1/2-x,1/2+y,1/2-z
1/2-x,1/2-y,-z
1/2+x,1/2-y,1/2+z
loop_
_atom_site_type_symbol
_atom_site_label
_atom_site_fract_x
_atom_site_fract_y
_atom_site_fract_z
Si Si1 0.908101 0.245368 0.653034
Si Si2 0.143381 0.524080 0.660143
Si Si3 0.248106 0.631167 0.952853
Si Si4 0.034988 0.655742 0.995510
Si Si5 0.574676 0.140750 0.382695
Si Si6 0.663428 0.060014 0.246081
Si Si7 0.492085 0.251247 0.863598
Si Si8 0.851785 0.428786 0.905188
O O1 0.763339 0.188860 0.596172
O O2 0.912260 0.292903 0.616656
O O3 0.679833 0.261282 0.633914
O O4 0.234497 0.244471 0.759773
O O5 0.500000 0.532722 0.750000
O O6 0.083448 0.485969 0.687883
O O7 0.055679 0.487209 0.593646
O O8 0.968930 0.581526 0.617970
O O9 0.202246 0.636087 0.994199
O O10 0.153079 0.691581 0.909710
O O11 0.586053 0.619619 0.026514
O O12 0.263584 0.699916 0.078016
O O13 0.970068 0.602845 0.009884
O O14 0.447961 0.118665 0.302844
O O15 0.373528 0.114072 0.369012
O O16 0.500000 0.049221 0.250000
O O17 0.020666 0.063283 0.338665
#
# Coordination Sequence:
#
# PCOD9308865 Si02
#       8
#     8   8   8   8   8   8   8   8
#     4  10  20  33  58  91 117 163 202 249 307 364
#     4   9  22  41  60  89 122 163 208 255 317 362
#     4  11  21  37  63  86 121 164 203 258 309 367
#     4  11  20  38  59  90 121 157 214 250 300 378
#     4  11  20  36  60  89 125 154 203 254 314 366
#     4  10  21  39  64  88 116 160 212 254 303 368
#     4  10  20  35  58  91 122 155 211 256 298 370
#     4  10  23  39  59  89 123 160 202 259 312 364
#
# _framework density 9.8765429999999999
#
# number of rings (size 3 to 8) (size 9 to 14) (size 15 to 20)
#    0.000    1.750    2.500    3.375    5.250    3.000 
#    0.000    2.500    0.000    0.000    0.000    0.000 
#    0.000    0.000    0.000    0.000    0.000    0.000 
#
# Total GULP energy -178670.888418 kJ/mol
# GULP energy per Si atom -5583.465263 kJ/mol
# Density = 0.985406 g / cm^3
# Si number density = 9.876543 Si / 1000 Ang^3
#
#
#
# Elastic Constant Matrix: (Units=GPa)
#
#
# Indices 1 2 3 4 5 6 
#
# 1 86.0227 14.4011 9.1557 0.0051 1.6749 0.0018
# 2 14.4011 57.3734 0.8420 0.0074 -5.4361 0.0020
# 3 9.1557 0.8420 49.8146 0.0123 -5.9794 0.0012
# 4 0.0051 0.0074 0.0123 38.9196 0.0049 1.8870
# 5 1.6749 -5.4361 -5.9794 0.0049 18.0208 0.0018
# 6 0.0018 0.0020 0.0012 1.8870 0.0018 13.4758
#
#
#
# Elastic Compliance Matrix: (Units=1/GPa)
#
#
# Indices 1 2 3 4 5 6 
#
# 1 0.012531 -0.003397 -0.002613 0.000000 -0.003056 -0.000001
# 2 -0.003397 0.018869 0.001069 -0.000004 0.006362 -0.000003
# 3 -0.002613 0.001069 0.021459 -0.000008 0.007686 -0.000002
# 4 0.000000 -0.000004 -0.000008 0.025870 -0.000010 -0.003622
# 5 -0.003056 0.006362 0.007686 -0.000010 0.060245 -0.000008
# 6 -0.000001 -0.000003 -0.000002 -0.003622 -0.000008 0.074714
#
#
# Mechanical properties :
#
#
# Convention : Reuss Voigt Hill
#
# Bulk Modulus (GPa) = 23.26704 26.88980 25.07842
# Shear Modulus (GPa) = 21.01768 25.33737 23.17753
#
# Velocity S-wave (km/s) = 3.26547 3.58537 3.42915
# Velocity P-wave (km/s) = 5.10120 5.54819 5.32938
#
# Compressibility (1/GPa) = 0.04297925
#
# Stress axis : x y z
#
# Youngs Moduli (GPa) = 79.80189 52.99586 46.60042
#
# Poissons Ratio (x) = 0.18001 0.12175
# Poissons Ratio (y) = 0.27105 -0.04982
# Poissons Ratio (z) = 0.20849 -0.05665
#
# Static dielectric constant tensor:
#      x y z
#    x 1.681390 0.000000 -0.025580 
#    y 0.000000 1.695300 0.000000 
#    z -0.025580 0.000000 1.719640 
# 
# From -- ./inp_files/309125.got.cif
#   From: 2010.05.17/outbox.ucp.g08.bks.cvg/sg15_155_cif.got.tgz:309125.got - 2010.06.11 12:40:34.
