data_PCOD9308513
_publ_section_title
;
Structure prediction by ZEFSAII (Michael W. Deem and Ramdas Pophale) SiO2 
 PCOD9308513
Probable space group: C 2/C
;
_chemical_formula_sum "Si O2"
_cell_formula_units_Z 48
_cell_length_a 16.964854
_cell_length_b 6.748931
_cell_length_c 18.967591
_cell_angle_alpha 90.000000
_cell_angle_beta 119.471347
_cell_angle_gamma 90.000000
_cell_volume 1890.674962
_symmetry_space_group_name_H-M "C 2/C"
_symmetry_group_IT_number 15
_symmetry_cell_setting 'monoclinic'
loop_
_space_group_symop_operation_xyz
x,y,z
-x,y,1/2-z
-x,-y,-z
x,-y,1/2+z
1/2+x,1/2+y,z
1/2-x,1/2+y,1/2-z
1/2-x,1/2-y,-z
1/2+x,1/2-y,1/2+z
loop_
_atom_site_type_symbol
_atom_site_label
_atom_site_fract_x
_atom_site_fract_y
_atom_site_fract_z
Si Si1 0.240798 0.564705 0.860271
Si Si2 0.822656 0.099915 0.691070
Si Si3 0.861140 0.603678 0.811427
Si Si4 0.070585 0.670069 0.518020
Si Si5 0.928115 0.174883 0.863808
Si Si6 0.744876 0.020980 0.519686
O O1 0.206706 0.334339 0.835045
O O2 0.165039 0.671935 0.778210
O O3 0.339752 0.626847 0.873583
O O4 0.245850 0.596212 0.946659
O O5 0.909471 0.078446 0.779322
O O6 0.820017 0.998740 0.613612
O O7 0.736631 0.036728 0.700849
O O8 0.901165 0.741704 0.890979
O O9 0.921522 0.407848 0.838433
O O10 0.150256 0.539903 0.518687
O O11 0.000000 0.500000 0.500000
O O12 0.023036 0.833899 0.447718
O O13 0.750000 0.250000 0.500000
#
# Coordination Sequence:
#
# PCOD9308513 Si02
#       6
#     8   8   8   8   8   8
#     4   9  16  28  49  73  92 126 172 202 233 290
#     4   8  15  29  46  67 100 131 156 197 249 294
#     4   8  15  29  46  67 100 131 156 197 249 294
#     4   9  17  31  48  70  99 129 159 201 248 290
#     4   9  16  28  49  73  92 126 172 202 233 290
#     4   9  17  31  48  70  99 129 159 201 248 290
#
# _framework density 25.387758000000002
#
# number of rings (size 3 to 8) (size 9 to 14) (size 15 to 20)
#    0.000    3.333    0.000    0.000    0.000    0.000 
#    0.000   28.333    0.000    0.000    0.000   14.000 
#    0.000    0.000    0.000    0.000    0.000    0.000 
#
# Total GULP energy -133650.982171 kJ/mol
# GULP energy per Si atom -5568.790924 kJ/mol
# Density = 2.532997 g / cm^3
# Si number density = 25.387758 Si / 1000 Ang^3
#
#
#
# Elastic Constant Matrix: (Units=GPa)
#
#
# Indices 1 2 3 4 5 6 
#
# 1 43.7570 -2.0590 42.7486 0.0000 -17.7003 0.0000
# 2 -2.0590 71.6501 38.0136 0.0000 -6.1358 0.0000
# 3 42.7486 38.0136 330.1243 0.0000 -37.0809 0.0000
# 4 0.0000 0.0000 0.0000 46.2522 0.0000 -1.4805
# 5 -17.7003 -6.1358 -37.0809 0.0000 38.2212 0.0000
# 6 0.0000 0.0000 0.0000 -1.4805 0.0000 28.4535
#
#
#
# Elastic Compliance Matrix: (Units=1/GPa)
#
#
# Indices 1 2 3 4 5 6 
#
# 1 0.030811 0.003527 -0.003063 0.000000 0.011863 0.000000
# 2 0.003527 0.015291 -0.001973 0.000000 0.002173 0.000000
# 3 -0.003063 -0.001973 0.003881 0.000000 0.002030 0.000000
# 4 0.000000 0.000000 0.000000 0.021657 0.000000 0.001127
# 5 0.011863 0.002173 0.002030 0.000000 0.033975 0.000000
# 6 0.000000 0.000000 0.000000 0.001127 0.000000 0.035204
#
#
# Mechanical properties :
#
#
# Convention : Reuss Voigt Hill
#
# Bulk Modulus (GPa) = 21.29348 66.99309 44.14329
# Shear Modulus (GPa) = 31.34931 47.04061 39.19496
#
# Velocity S-wave (km/s) = 3.51781 4.30919 3.93345
# Velocity P-wave (km/s) = 4.99054 7.15570 6.16885
#
# Compressibility (1/GPa) = 0.04696273
#
# Stress axis : x y z
#
# Youngs Moduli (GPa) = 32.45612 65.39756 257.66103
#
# Poissons Ratio (x) = -0.23063 0.78931
# Poissons Ratio (y) = -0.11446 0.50844
# Poissons Ratio (z) = 0.09943 0.12905
#
# Static dielectric constant tensor:
#      x y z
#    x 1.868580 0.000000 -0.023300 
#    y 0.000000 2.122270 0.000000 
#    z -0.023300 0.000000 2.179820 
# 
# From -- ./inp_files/251689.got.cif
#   From: 2010.05.17/outbox.cif.g08.bks.cpg/sg15_126_cif.got.tgz:251689.got - 2010.06.03 18:47:42.
