data_PCOD9308700
_publ_section_title
;
Structure prediction by ZEFSAII (Michael W. Deem and Ramdas Pophale) SiO2 
 PCOD9308700
Probable space group: C 2/C
;
_chemical_formula_sum "Si O2"
_cell_formula_units_Z 20
_cell_length_a 30.000000
_cell_length_b 15.000000
_cell_length_c 30.000000
_cell_angle_alpha 90.000000
_cell_angle_beta 170.000000
_cell_angle_gamma 90.000000
_cell_volume 2344.250399
_symmetry_space_group_name_H-M "C 2/C"
_symmetry_group_IT_number 15
_symmetry_cell_setting 'monoclinic'
loop_
_space_group_symop_operation_xyz
x,y,z
-x,y,1/2-z
-x,-y,-z
x,-y,1/2+z
1/2+x,1/2+y,z
1/2-x,1/2+y,1/2-z
1/2-x,1/2-y,-z
1/2+x,1/2-y,1/2+z
loop_
_atom_site_type_symbol
_atom_site_label
_atom_site_fract_x
_atom_site_fract_y
_atom_site_fract_z
Si Si1 0.564234 0.143671 0.865146
Si Si2 0.547798 0.656042 0.386165
Si Si3 0.244945 0.693487 0.276723
Si Si4 0.896978 0.497921 0.347511
Si Si5 0.619817 0.612238 0.184482
O O1 0.500000 0.136860 0.750000
O O2 0.592986 0.247941 0.907643
O O3 0.321432 0.108360 0.653377
O O4 0.834727 0.105657 0.147254
O O5 0.455501 0.666947 0.345727
O O6 0.511937 0.738019 0.553400
O O7 0.178873 0.600341 0.235941
O O8 0.278393 0.670064 0.256820
O O9 0.000000 0.500000 0.500000
O O10 0.146231 0.453175 0.570468
O O11 0.636857 0.439860 0.084850
#
# Coordination Sequence:
#
# PCOD9308700 Si02
#       5
#     8   8   8   8   8
#     4  10  19  32  45  64  99 128 156 191 230 276
#     4  10  19  28  46  65  86 119 166 188 230 258
#     4  11  21  31  50  67  86 115 163 200 242 281
#     4  10  20  37  46  62  92 126 147 191 263 303
#     4  11  21  32  49  66  95 119 156 208 246 270
#
# _framework density 8.5315119999999993
#
# number of rings (size 3 to 8) (size 9 to 14) (size 15 to 20)
#    0.000    1.600    0.000   10.200    5.600    0.000 
#    0.000    0.000    0.000    0.000    0.000    0.000 
#    0.000    0.000    0.000    0.000    0.000  412.000 
#
# Total GULP energy -111443.635115 kJ/mol
# GULP energy per Si atom -5572.181756 kJ/mol
# Density = 0.851209 g / cm^3
# Si number density = 8.531512 Si / 1000 Ang^3
#
#
#
# Elastic Constant Matrix: (Units=GPa)
#
#
# Indices 1 2 3 4 5 6 
#
# 1 24.9865 -10.9161 -3.4676 -0.1556 2.2333 0.1105
# 2 -10.9161 26.0081 16.1122 -0.0829 3.0143 0.1288
# 3 -3.4676 16.1122 137.9584 0.3216 6.0913 0.3372
# 4 -0.1556 -0.0829 0.3216 29.0273 0.1163 0.5812
# 5 2.2333 3.0143 6.0913 0.1163 25.1193 0.0878
# 6 0.1105 0.1288 0.3372 0.5812 0.0878 25.4175
#
#
#
# Elastic Compliance Matrix: (Units=1/GPa)
#
#
# Indices 1 2 3 4 5 6 
#
# 1 0.050375 0.022612 -0.001069 0.000380 -0.006934 -0.000304
# 2 0.022612 0.051970 -0.005193 0.000361 -0.006988 -0.000277
# 3 -0.001069 -0.005193 0.007881 -0.000102 -0.001192 -0.000067
# 4 0.000380 0.000361 -0.000102 0.034471 -0.000209 -0.000790
# 5 -0.006934 -0.006988 -0.001192 -0.000209 0.041555 -0.000057
# 6 -0.000304 -0.000277 -0.000067 -0.000790 -0.000057 0.039365
#
#
# Mechanical properties :
#
#
# Convention : Reuss Voigt Hill
#
# Bulk Modulus (GPa) = 6.99655 21.37887 14.18771
# Shear Modulus (GPa) = 20.78489 28.39444 24.58966
#
# Velocity S-wave (km/s) = 3.49395 4.08375 3.80031
# Velocity P-wave (km/s) = 4.51511 5.89853 5.25256
#
# Compressibility (1/GPa) = 0.14292758
#
# Stress axis : x y z
#
# Youngs Moduli (GPa) = 19.85092 19.24195 126.88395
#
# Poissons Ratio (x) = -0.43510 0.13560
# Poissons Ratio (y) = -0.44887 0.65889
# Poissons Ratio (z) = 0.02121 0.09992
#
# Static dielectric constant tensor:
#      x y z
#    x 1.587120 0.000270 0.024480 
#    y 0.000270 1.431470 0.000300 
#    z 0.024480 0.000300 1.703400 
# 
# From -- ./inp_files/17992.got.cif
#   From: 2010.05.17/outbox.ucp.g08.bks.cvg/sg15_9_cif.got.tgz:17992.got - 2010.06.11 12:40:34.
