data_PCOD9308626
_publ_section_title
;
Structure prediction by ZEFSAII (Michael W. Deem and Ramdas Pophale) SiO2 
 PCOD9308626
Probable space group: C 2/C
;
_chemical_formula_sum "Si O2"
_cell_formula_units_Z 30
_cell_length_a 18.000000
_cell_length_b 9.000000
_cell_length_c 21.000000
_cell_angle_alpha 90.000000
_cell_angle_beta 60.000000
_cell_angle_gamma 90.000000
_cell_volume 2946.218424
_symmetry_space_group_name_H-M "C 2/C"
_symmetry_group_IT_number 15
_symmetry_cell_setting 'monoclinic'
loop_
_space_group_symop_operation_xyz
x,y,z
-x,y,1/2-z
-x,-y,-z
x,-y,1/2+z
1/2+x,1/2+y,z
1/2-x,1/2+y,1/2-z
1/2-x,1/2-y,-z
1/2+x,1/2-y,1/2+z
loop_
_atom_site_type_symbol
_atom_site_label
_atom_site_fract_x
_atom_site_fract_y
_atom_site_fract_z
Si Si1 0.093504 0.791712 0.985732
Si Si2 0.421277 0.213382 0.000101
Si Si3 0.157314 0.058321 0.869305
Si Si4 0.878807 0.879893 0.886845
Si Si5 0.298363 0.039362 0.505357
Si Si6 0.500000 0.871563 0.750000
Si Si7 0.510775 0.388884 0.344700
Si Si8 0.665403 0.934342 0.152578
O O1 0.041807 0.861626 0.067156
O O2 0.124851 0.918429 0.924433
O O3 0.172377 0.700286 0.982382
O O4 0.020315 0.701126 0.978180
O O5 0.407989 0.313313 0.942737
O O6 0.371846 0.296878 0.078160
O O7 0.372830 0.063529 0.003580
O O8 0.105864 0.062900 0.825259
O O9 0.259632 0.055808 0.827460
O O10 0.857254 0.736689 0.853472
O O11 0.793222 0.978842 0.932081
O O12 0.955898 0.985571 0.832679
O O13 0.302187 0.007972 0.428013
O O14 0.490234 0.762723 0.694003
O O15 0.417672 0.975100 0.791932
#
# Coordination Sequence:
#
# PCOD9308626 Si02
#       8
#     8   8   8   8   8   4   8   8
#     4  11  20  33  63 103 133 152 198 265 338 361
#     4  10  17  34  56  98 133 160 183 250 338 380
#     4  11  20  40  67  95 128 157 200 272 326 363
#     4  11  20  39  65  95 125 160 204 259 329 369
#     4  11  20  33  62 103 131 157 196 261 327 382
#     4  12  28  46  62  86 122 180 222 254 294 380
#     4  11  23  42  63  91 127 167 210 256 310 385
#     4  11  23  42  63  91 128 168 209 256 309 379
#
# _framework density 10.182544
#
# number of rings (size 3 to 8) (size 9 to 14) (size 15 to 20)
#    0.000    1.067    6.667    2.000    1.867    1.600 
#    0.000    2.667    0.000    0.000    0.000    0.000 
#    0.000    0.000    0.000    0.000    0.000    0.000 
#
# Total GULP energy -167663.198369 kJ/mol
# GULP energy per Si atom -5588.773279 kJ/mol
# Density = 1.015937 g / cm^3
# Si number density = 10.182544 Si / 1000 Ang^3
#
#
#
# Elastic Constant Matrix: (Units=GPa)
#
#
# Indices 1 2 3 4 5 6 
#
# 1 185.9402 58.0274 36.3178 0.0000 -28.6160 0.0000
# 2 58.0274 66.8169 17.7755 0.0000 -16.3199 0.0000
# 3 36.3178 17.7755 33.4684 0.0000 -19.9946 0.0000
# 4 0.0000 0.0000 0.0000 28.1044 0.0000 -10.4864
# 5 -28.6160 -16.3199 -19.9946 0.0000 7.3918 0.0000
# 6 0.0000 0.0000 0.0000 -10.4864 0.0000 40.7438
#
#
#
# Elastic Compliance Matrix: (Units=1/GPa)
#
#
# Indices 1 2 3 4 5 6 
#
# 1 0.008182 -0.006012 -0.008617 0.000000 -0.004907 0.000000
# 2 -0.006012 0.019918 -0.013495 0.000000 -0.015801 0.000000
# 3 -0.008617 -0.013495 -0.014071 0.000000 -0.101216 0.000000
# 4 0.000000 0.000000 0.000000 0.039362 0.000000 0.010131
# 5 -0.004907 -0.015801 -0.101216 0.000000 -0.192384 0.000000
# 6 0.000000 0.000000 0.000000 0.010131 0.000000 0.027151
#
#
# Mechanical properties :
#
#
# Convention : Reuss Voigt Hill
#
# Bulk Modulus (GPa) = -23.68603 56.71853 16.51625
# Shear Modulus (GPa) = -71.76955 26.85499 -22.45728
#
# Velocity S-wave (km/s) = -5.94289 3.63530 -3.32435
# Velocity P-wave (km/s) = 7.66463 6.74773 2.57048
#
# Compressibility (1/GPa) = -0.04221898
#
# Stress axis : x y z
#
# Youngs Moduli (GPa) = 122.21674 50.20582 -71.06723
#
# Poissons Ratio (x) = 0.30183 -0.61241
# Poissons Ratio (y) = 0.73475 -0.95904
# Poissons Ratio (z) = 1.05318 0.67752
#
# Static dielectric constant tensor:
#      x y z
#    x 1.733110 0.000000 -0.017730 
#    y 0.000000 1.755540 0.000000 
#    z -0.017730 0.000000 1.611300 
# 
# From -- ./inp_files/247801.got.cif
#   From: 2010.05.17/outbox.ucp.g08.bks.cvg/sg15_124_cif.got.tgz:247801.got - 2010.06.11 12:40:34.
