data_PCOD9308277
_publ_section_title
;
Structure prediction by ZEFSAII (Michael W. Deem and Ramdas Pophale) SiO2 
 PCOD9308277
Probable space group: C 2/C
;
_chemical_formula_sum "Si O2"
_cell_formula_units_Z 20
_cell_length_a 6.828802
_cell_length_b 12.886661
_cell_length_c 9.691437
_cell_angle_alpha 90.000000
_cell_angle_beta 54.856876
_cell_angle_gamma 90.000000
_cell_volume 697.390411
_symmetry_space_group_name_H-M "C 2/C"
_symmetry_group_IT_number 15
_symmetry_cell_setting 'monoclinic'
loop_
_space_group_symop_operation_xyz
x,y,z
-x,y,1/2-z
-x,-y,-z
x,-y,1/2+z
1/2+x,1/2+y,z
1/2-x,1/2+y,1/2-z
1/2-x,1/2-y,-z
1/2+x,1/2-y,1/2+z
loop_
_atom_site_type_symbol
_atom_site_label
_atom_site_fract_x
_atom_site_fract_y
_atom_site_fract_z
Si Si1 0.978003 0.284911 0.997729
Si Si2 0.125960 0.088580 0.329240
Si Si3 0.500000 0.068408 0.750000
O O1 0.937736 0.364469 0.140117
O O2 0.049242 0.173376 0.032065
O O3 0.750000 0.250000 0.000000
O O4 0.170808 0.337522 0.821103
O O5 0.000000 0.034987 0.250000
O O6 0.272373 0.009413 0.364128
#
# Coordination Sequence:
#
# PCOD9308277 Si02
#       3
#     8   8   4
#     4  12  26  52  79 114 158 203 261 319 381 465
#     4  12  27  49  80 113 160 205 255 318 387 457
#     4  12  28  50  82 114 154 208 262 308 398 454
#
# _framework density 28.678345
#
# number of rings (size 3 to 8) (size 9 to 14) (size 15 to 20)
#    0.000    0.000    6.000    2.400    0.000    4.800 
#    0.000    0.000    0.000    0.000    0.000    0.000 
#    0.000    0.000    0.000    0.000    0.000    0.000 
#
# Total GULP energy -56165.004988 kJ/mol
# GULP energy per Si atom -5616.500499 kJ/mol
# Density = 2.861307 g / cm^3
# Si number density = 28.678345 Si / 1000 Ang^3
#
#
#
# Elastic Constant Matrix: (Units=GPa)
#
#
# Indices 1 2 3 4 5 6 
#
# 1 151.2678 48.5835 18.1696 0.0000 39.9434 0.0000
# 2 48.5835 199.9391 68.0099 0.0000 13.0385 0.0000
# 3 18.1696 68.0099 144.8168 0.0000 13.6187 0.0000
# 4 0.0000 0.0000 0.0000 68.6472 0.0000 12.5445
# 5 39.9434 13.0385 13.6187 0.0000 53.4181 0.0000
# 6 0.0000 0.0000 0.0000 12.5445 0.0000 74.9095
#
#
#
# Elastic Compliance Matrix: (Units=1/GPa)
#
#
# Indices 1 2 3 4 5 6 
#
# 1 0.008807 -0.001854 0.000351 0.000000 -0.006222 0.000000
# 2 -0.001854 0.006373 -0.002812 0.000000 0.000547 0.000000
# 3 0.000351 -0.002812 0.008342 0.000000 -0.001703 0.000000
# 4 0.000000 0.000000 0.000000 0.015027 0.000000 -0.002516
# 5 -0.006222 0.000547 -0.001703 0.000000 0.023674 0.000000
# 6 0.000000 0.000000 0.000000 -0.002516 0.000000 0.013771
#
#
# Mechanical properties :
#
#
# Convention : Reuss Voigt Hill
#
# Bulk Modulus (GPa) = 67.14833 85.06108 76.10471
# Shear Modulus (GPa) = 55.81212 63.47902 59.64557
#
# Velocity S-wave (km/s) = 4.41630 4.70987 4.56544
# Velocity P-wave (km/s) = 7.03349 7.70078 7.37469
#
# Compressibility (1/GPa) = 0.01489240
#
# Stress axis : x y z
#
# Youngs Moduli (GPa) = 113.54517 156.92131 119.87772
#
# Poissons Ratio (x) = 0.29086 -0.04203
# Poissons Ratio (y) = 0.21046 0.33706
# Poissons Ratio (z) = -0.03981 0.44121
#
# Static dielectric constant tensor:
#      x y z
#    x 2.294620 0.000000 -0.041810 
#    y 0.000000 2.196320 0.000000 
#    z -0.041810 0.000000 2.307560 
# 
# From -- ./inp_files/71184.got.cif
#   From: 2010.05.17/outbox.cif.g08.bks.cpg/sg15_36_cif.got.tgz:71184.got - 2010.06.03 18:47:42.
