data_PCOD9308634
_publ_section_title
;
Structure prediction by ZEFSAII (Michael W. Deem and Ramdas Pophale) SiO2 
 PCOD9308634
Probable space group: C 2/C
;
_chemical_formula_sum "Si O2"
_cell_formula_units_Z 32
_cell_length_a 18.000000
_cell_length_b 12.000000
_cell_length_c 30.000000
_cell_angle_alpha 90.000000
_cell_angle_beta 150.000000
_cell_angle_gamma 90.000000
_cell_volume 3240.000000
_symmetry_space_group_name_H-M "C 2/C"
_symmetry_group_IT_number 15
_symmetry_cell_setting 'monoclinic'
loop_
_space_group_symop_operation_xyz
x,y,z
-x,y,1/2-z
-x,-y,-z
x,-y,1/2+z
1/2+x,1/2+y,z
1/2-x,1/2+y,1/2-z
1/2-x,1/2-y,-z
1/2+x,1/2-y,1/2+z
loop_
_atom_site_type_symbol
_atom_site_label
_atom_site_fract_x
_atom_site_fract_y
_atom_site_fract_z
Si Si1 0.757067 0.156023 0.716916
Si Si2 0.266971 0.351115 0.544237
Si Si3 0.093842 0.941782 0.709330
Si Si4 0.879504 0.885614 0.880815
Si Si5 0.128766 0.532900 0.785241
Si Si6 0.840497 0.210219 0.931158
Si Si7 0.498991 0.007430 0.619285
Si Si8 0.627697 0.204474 0.142443
O O1 0.705772 0.267047 0.665455
O O2 0.607858 0.084869 0.646566
O O3 0.820282 0.199305 0.797066
O O4 0.875947 0.068211 0.759834
O O5 0.250000 0.250000 0.500000
O O6 0.435254 0.390187 0.636606
O O7 0.203519 0.307632 0.557996
O O8 0.166831 0.451305 0.473874
O O9 0.118167 0.934309 0.668203
O O10 0.225109 0.863907 0.795359
O O11 0.778673 0.962053 0.859077
O O12 0.047204 0.869021 0.983546
O O13 0.191029 0.648939 0.836824
O O14 0.055231 0.531244 0.698316
O O15 0.000000 0.488172 0.750000
O O16 0.930639 0.248336 0.934148
O O17 0.526678 0.881774 0.617358
#
# Coordination Sequence:
#
# PCOD9308634 Si02
#       8
#     8   8   8   8   8   8   8   8
#     4  10  17  41  67  82 116 175 209 236 312 382
#     4  12  23  39  61  95 131 159 203 269 315 351
#     4  10  21  38  65  88 121 173 207 246 316 380
#     4  11  21  42  62  90 129 166 203 257 310 374
#     4  12  25  38  64  97 125 156 207 262 311 372
#     4  12  24  37  67  97 125 155 216 262 307 362
#     4  11  21  42  63  86 124 166 204 249 315 372
#     4  10  21  39  66  85 118 170 210 246 308 380
#
# _framework density 9.8765429999999999
#
# number of rings (size 3 to 8) (size 9 to 14) (size 15 to 20)
#    0.000    1.000    7.500    1.875    1.750    0.500 
#    0.000    1.875    0.000    0.000    0.000    0.000 
#    0.000    0.000    0.000    0.000    0.000    0.000 
#
# Total GULP energy -178584.137641 kJ/mol
# GULP energy per Si atom -5580.754301 kJ/mol
# Density = 0.985406 g / cm^3
# Si number density = 9.876543 Si / 1000 Ang^3
#
#
#
# Elastic Constant Matrix: (Units=GPa)
#
#
# Indices 1 2 3 4 5 6 
#
# 1 36.3083 -11.6184 6.4345 0.0000 5.1231 0.0000
# 2 -11.6184 26.9206 -17.7424 0.0000 -1.2847 0.0000
# 3 6.4345 -17.7424 29.3615 0.0001 2.1182 0.0000
# 4 0.0000 0.0000 0.0001 24.3507 0.0000 6.7895
# 5 5.1231 -1.2847 2.1182 0.0000 29.6071 0.0000
# 6 0.0000 0.0000 0.0000 6.7895 0.0000 13.0298
#
#
#
# Elastic Compliance Matrix: (Units=1/GPa)
#
#
# Indices 1 2 3 4 5 6 
#
# 1 0.032816 0.015658 0.002644 0.000000 -0.005188 0.000000
# 2 0.015658 0.069202 0.038563 0.000000 -0.002465 0.000000
# 3 0.002644 0.038563 0.056988 0.000000 -0.002861 0.000000
# 4 0.000000 0.000000 0.000000 0.048047 0.000000 -0.025036
# 5 -0.005188 -0.002465 -0.002861 0.000000 0.034771 0.000000
# 6 0.000000 0.000000 0.000000 -0.025036 0.000000 0.089793
#
#
# Mechanical properties :
#
#
# Convention : Reuss Voigt Hill
#
# Bulk Modulus (GPa) = 3.66654 5.19310 4.42982
# Shear Modulus (GPa) = 16.19181 21.09862 18.64522
#
# Velocity S-wave (km/s) = 2.86616 3.27175 3.07565
# Velocity P-wave (km/s) = 3.57958 4.11184 3.85491
#
# Compressibility (1/GPa) = 0.27273656
#
# Stress axis : x y z
#
# Youngs Moduli (GPa) = 30.47323 14.45049 17.54759
#
# Poissons Ratio (x) = -0.22626 -0.04640
# Poissons Ratio (y) = -0.47715 -0.67669
# Poissons Ratio (z) = -0.08058 -0.55726
#
# Static dielectric constant tensor:
#      x y z
#    x 1.692590 0.000000 -0.005080 
#    y 0.000000 1.737370 0.000000 
#    z -0.005080 0.000000 1.679150 
# 
# From -- ./inp_files/177830.got.cif
#   From: 2010.05.17/outbox.ucp.g08.bks.cvg/sg15_89_cif.got.tgz:177830.got - 2010.06.11 12:40:34.
