data_PCOD9308239
_publ_section_title
;
Structure prediction by ZEFSAII (Michael W. Deem and Ramdas Pophale) SiO2 
 PCOD9308239
Probable space group: C 2/C
;
_chemical_formula_sum "Si O2"
_cell_formula_units_Z 44
_cell_length_a 18.222228
_cell_length_b 4.981906
_cell_length_c 19.857165
_cell_angle_alpha 90.000000
_cell_angle_beta 64.006204
_cell_angle_gamma 90.000000
_cell_volume 1620.307228
_symmetry_space_group_name_H-M "C 2/C"
_symmetry_group_IT_number 15
_symmetry_cell_setting 'monoclinic'
loop_
_space_group_symop_operation_xyz
x,y,z
-x,y,1/2-z
-x,-y,-z
x,-y,1/2+z
1/2+x,1/2+y,z
1/2-x,1/2+y,1/2-z
1/2-x,1/2-y,-z
1/2+x,1/2-y,1/2+z
loop_
_atom_site_type_symbol
_atom_site_label
_atom_site_fract_x
_atom_site_fract_y
_atom_site_fract_z
Si Si1 0.580852 0.692733 0.589732
Si Si2 0.328533 0.044884 0.792407
Si Si3 0.830504 0.305402 0.137058
Si Si4 0.000000 0.752650 0.250000
Si Si5 0.512820 0.208628 0.555670
Si Si6 0.234582 0.931252 0.571769
O O1 0.523726 0.585734 0.673604
O O2 0.552060 0.997492 0.592383
O O3 0.675456 0.669388 0.569983
O O4 0.565151 0.480366 0.536167
O O5 0.245773 0.886721 0.843430
O O6 0.416491 0.911035 0.769430
O O7 0.319690 0.071776 0.715459
O O8 0.318271 0.299352 0.845700
O O9 0.920822 0.192579 0.106214
O O10 0.818523 0.496830 0.076678
O O11 0.500000 0.000000 0.500000
O O12 0.250000 0.750000 0.500000
#
# Coordination Sequence:
#
# PCOD9308239 Si02
#       6
#     8   8   8   4   8   8
#     4  12  28  49  78 113 153 208 262 326 402 480
#     4  12  27  50  76 116 155 214 271 343 407 494
#     4  12  27  46  79 110 153 203 271 332 403 475
#     4  12  26  50  78 114 154 206 274 330 410 490
#     4  12  29  50  79 111 159 207 262 328 404 488
#     4  12  29  49  77 114 164 212 272 337 416 493
#
# _framework density 27.155342000000001
#
# number of rings (size 3 to 8) (size 9 to 14) (size 15 to 20)
#    0.000    0.000    5.455    2.727   10.182    1.455 
#    0.000    0.000    0.000    0.000    0.000    0.000 
#    0.000    0.000    0.000    0.000    0.000    0.000 
#
# Total GULP energy -123148.303290 kJ/mol
# GULP energy per Si atom -5597.650150 kJ/mol
# Density = 2.709354 g / cm^3
# Si number density = 27.155342 Si / 1000 Ang^3
#
#
#
# Elastic Constant Matrix: (Units=GPa)
#
#
# Indices 1 2 3 4 5 6 
#
# 1 238.1508 72.0128 35.3697 0.0072 0.1875 0.0013
# 2 72.0128 103.6625 14.2397 -0.0087 8.8053 0.0117
# 3 35.3697 14.2397 104.9216 0.0039 22.0049 0.0061
# 4 0.0072 -0.0087 0.0039 45.7254 0.0085 0.7950
# 5 0.1875 8.8053 22.0049 0.0085 52.7653 0.0014
# 6 0.0013 0.0117 0.0061 0.7950 0.0014 43.9519
#
#
#
# Elastic Compliance Matrix: (Units=1/GPa)
#
#
# Indices 1 2 3 4 5 6 
#
# 1 0.005579 -0.003760 -0.001641 -0.000002 0.001292 0.000001
# 2 -0.003760 0.012432 0.000014 0.000003 -0.002067 -0.000003
# 3 -0.001641 0.000014 0.011048 0.000000 -0.004604 -0.000001
# 4 -0.000002 0.000003 0.000000 0.021877 -0.000004 -0.000396
# 5 0.001292 -0.002067 -0.004604 -0.000004 0.021212 0.000001
# 6 0.000001 -0.000003 -0.000001 -0.000396 0.000001 0.022759
#
#
# Mechanical properties :
#
#
# Convention : Reuss Voigt Hill
#
# Bulk Modulus (GPa) = 54.69256 76.66435 65.67845
# Shear Modulus (GPa) = 44.73227 50.16268 47.44748
#
# Velocity S-wave (km/s) = 4.06306 4.30263 4.18456
# Velocity P-wave (km/s) = 6.49582 7.27850 6.89827
#
# Compressibility (1/GPa) = 0.01828402
#
# Stress axis : x y z
#
# Youngs Moduli (GPa) = 179.25541 80.43638 90.51491
#
# Poissons Ratio (x) = 0.30242 0.14856
# Poissons Ratio (y) = 0.67394 -0.00124
# Poissons Ratio (z) = 0.29421 -0.00110
#
# Static dielectric constant tensor:
#      x y z
#    x 2.060680 0.000000 0.091910 
#    y 0.000000 2.189220 0.000030 
#    z 0.091910 0.000030 2.294110 
# 
# From -- ./inp_files/246403.got.cif
#   From: 2010.05.17/outbox.cif.g08.bks.cpg/sg15_124_cif.got.tgz:246403.got - 2010.06.03 18:47:42.
