data_PCOD9308491
_publ_section_title
;
Structure prediction by ZEFSAII (Michael W. Deem and Ramdas Pophale) SiO2 
 PCOD9308491
Probable space group: C 2/C
;
_chemical_formula_sum "Si O2"
_cell_formula_units_Z 56
_cell_length_a 20.296699
_cell_length_b 18.367154
_cell_length_c 7.371194
_cell_angle_alpha 90.000000
_cell_angle_beta 68.707280
_cell_angle_gamma 90.000000
_cell_volume 2560.345868
_symmetry_space_group_name_H-M "C 2/C"
_symmetry_group_IT_number 15
_symmetry_cell_setting 'monoclinic'
loop_
_space_group_symop_operation_xyz
x,y,z
-x,y,1/2-z
-x,-y,-z
x,-y,1/2+z
1/2+x,1/2+y,z
1/2-x,1/2+y,1/2-z
1/2-x,1/2-y,-z
1/2+x,1/2-y,1/2+z
loop_
_atom_site_type_symbol
_atom_site_label
_atom_site_fract_x
_atom_site_fract_y
_atom_site_fract_z
Si Si1 0.650497 0.914583 0.383522
Si Si2 0.716248 0.672675 0.312152
Si Si3 0.919540 0.085000 0.047510
Si Si4 0.919535 0.084998 0.613420
Si Si5 0.349500 0.914580 0.684502
Si Si6 0.999998 0.412611 0.532925
Si Si7 0.716253 0.327327 0.255343
O O1 0.650180 0.901590 0.599828
O O2 0.575314 0.884291 0.387911
O O3 0.723268 0.882825 0.242714
O O4 0.649929 0.000002 0.350085
O O5 0.640152 0.641812 0.326960
O O6 0.776725 0.617178 0.189246
O O7 0.712389 0.674022 0.537609
O O8 0.749997 0.750001 0.224442
O O9 0.899647 0.000002 0.100357
O O10 0.922494 0.093390 0.827508
O O11 0.000004 0.095685 0.036392
O O12 0.859840 0.141808 0.607276
O O13 0.424682 0.884289 0.538536
O O14 0.000000 0.402260 0.750000
O O15 0.000000 0.500000 0.500000
#
# Coordination Sequence:
#
# PCOD9308491 Si02
#       7
#     8   8   8   8   8   8   8
#     4   9  16  27  44  63  84 111 143 177 212 251
#     4   9  17  29  43  64  93 118 143 180 224 265
#     4   9  17  30  49  71  91 116 152 191 228 266
#     4   9  17  30  49  71  91 116 152 191 228 266
#     4   9  16  27  44  63  84 111 143 177 212 251
#     4   8  14  24  38  60  82 102 133 168 202 242
#     4   9  17  29  43  64  93 118 143 180 224 265
#
# _framework density 21.872043000000001
#
# number of rings (size 3 to 8) (size 9 to 14) (size 15 to 20)
#    0.000    3.143    0.000    0.857    0.000    0.000 
#    2.571    0.000    0.000    3.429    0.000    0.000 
#    0.000    0.000    0.000    0.000    0.000    0.000 
#
# Total GULP energy -155937.185472 kJ/mol
# GULP energy per Si atom -5569.185195 kJ/mol
# Density = 2.182226 g / cm^3
# Si number density = 21.872043 Si / 1000 Ang^3
#
#
#
# Elastic Constant Matrix: (Units=GPa)
#
#
# Indices 1 2 3 4 5 6 
#
# 1 139.5096 72.4700 55.8329 0.0000 -59.6824 0.0000
# 2 72.4700 86.1406 16.2525 0.0000 -41.4287 0.0000
# 3 55.8329 16.2525 64.1902 0.0000 4.1562 0.0000
# 4 0.0000 0.0000 0.0000 13.2097 0.0000 -3.2572
# 5 -59.6824 -41.4287 4.1562 0.0000 48.3772 0.0000
# 6 0.0000 0.0000 0.0000 -3.2572 0.0000 17.6305
#
#
#
# Elastic Compliance Matrix: (Units=1/GPa)
#
#
# Indices 1 2 3 4 5 6 
#
# 1 0.132809 -0.007279 -0.124573 0.000000 0.168313 0.000000
# 2 -0.007279 0.022864 -0.000145 0.000000 0.010612 0.000000
# 3 -0.124573 -0.000145 0.134677 0.000000 -0.165378 0.000000
# 4 0.000000 0.000000 0.000000 0.079315 0.000000 0.014653
# 5 0.168313 0.010612 -0.165378 0.000000 0.251613 0.000000
# 6 0.000000 0.000000 0.000000 0.014653 0.000000 0.059427
#
#
# Mechanical properties :
#
#
# Convention : Reuss Voigt Hill
#
# Bulk Modulus (GPa) = 37.94064 64.32791 51.13427
# Shear Modulus (GPa) = 5.24393 25.52915 15.38654
#
# Velocity S-wave (km/s) = 1.55008 3.42014 2.65520
# Velocity P-wave (km/s) = 4.53740 6.71352 5.72972
#
# Compressibility (1/GPa) = 0.02635697
#
# Stress axis : x y z
#
# Youngs Moduli (GPa) = 7.52961 43.73669 7.42517
#
# Poissons Ratio (x) = 0.31837 0.92497
# Poissons Ratio (y) = 0.05481 0.00107
# Poissons Ratio (z) = 0.93798 0.00633
#
# Static dielectric constant tensor:
#      x y z
#    x 1.854150 0.000000 -0.009860 
#    y 0.000000 1.761560 0.000000 
#    z -0.009860 0.000000 1.840740 
# 
# From -- ./inp_files/56486.got.cif
#   From: 2010.05.17/outbox.cif.g08.bks.cpg/sg15_29_cif.got.tgz:56486.got - 2010.06.03 18:47:42.
