data_PCOD9308429
_publ_section_title
;
Structure prediction by ZEFSAII (Michael W. Deem and Ramdas Pophale) SiO2 
 PCOD9308429
Probable space group: C 2/C
;
_chemical_formula_sum "Si O2"
_cell_formula_units_Z 24
_cell_length_a 14.130208
_cell_length_b 7.615419
_cell_length_c 17.326609
_cell_angle_alpha 90.000000
_cell_angle_beta 29.796711
_cell_angle_gamma 90.000000
_cell_volume 926.501302
_symmetry_space_group_name_H-M "C 2/C"
_symmetry_group_IT_number 15
_symmetry_cell_setting 'monoclinic'
loop_
_space_group_symop_operation_xyz
x,y,z
-x,y,1/2-z
-x,-y,-z
x,-y,1/2+z
1/2+x,1/2+y,z
1/2-x,1/2+y,1/2-z
1/2-x,1/2-y,-z
1/2+x,1/2-y,1/2+z
loop_
_atom_site_type_symbol
_atom_site_label
_atom_site_fract_x
_atom_site_fract_y
_atom_site_fract_z
Si Si1 0.924602 0.893849 0.888277
Si Si2 0.706039 0.972257 0.316436
Si Si3 0.313479 0.121460 0.331119
O O1 0.000000 0.932261 0.750000
O O2 0.750000 0.750000 0.000000
O O3 0.130210 0.879168 0.785645
O O4 0.838312 0.052237 0.999669
O O5 0.776146 0.802403 0.313807
O O6 0.500000 0.000000 0.500000
O O7 0.677041 0.981039 0.244895
O O8 0.500000 0.130839 0.250000
#
# Coordination Sequence:
#
# PCOD9308429 Si02
#       3
#     8   8   8
#     4  12  29  52  91 128 176 238 296 366 455 538
#     4  12  29  52  91 130 175 234 299 369 453 540
#     4  12  29  57  86 129 176 228 299 366 447 542
#
# _framework density 25.903901000000001
#
# number of rings (size 3 to 8) (size 9 to 14) (size 15 to 20)
#    0.000    0.000    0.000    7.000   14.000    4.000 
#    0.000    3.333    0.000    0.000    0.000    0.000 
#    0.000    0.000    0.000    0.000    0.000    0.000 
#
# Total GULP energy -67038.067365 kJ/mol
# GULP energy per Si atom -5586.505614 kJ/mol
# Density = 2.584494 g / cm^3
# Si number density = 25.903901 Si / 1000 Ang^3
#
#
#
# Elastic Constant Matrix: (Units=GPa)
#
#
# Indices 1 2 3 4 5 6 
#
# 1 272.2160 96.5495 111.1834 -0.0001 -2.8614 0.0000
# 2 96.5495 198.1829 85.8674 -0.0003 -8.3139 0.0001
# 3 111.1834 85.8674 243.7407 -0.0006 3.7571 0.0003
# 4 -0.0001 -0.0003 -0.0006 -139.6927 0.0003 5.5636
# 5 -2.8614 -8.3139 3.7571 0.0003 73.4027 0.0000
# 6 0.0000 0.0001 0.0003 5.5636 0.0000 51.6886
#
#
#
# Elastic Compliance Matrix: (Units=1/GPa)
#
#
# Indices 1 2 3 4 5 6 
#
# 1 0.004954 -0.001688 -0.001666 0.000000 0.000087 0.000000
# 2 -0.001688 0.006575 -0.001558 0.000000 0.000759 0.000000
# 3 -0.001666 -0.001558 0.005420 0.000000 -0.000519 0.000000
# 4 0.000000 0.000000 0.000000 -0.007128 0.000000 0.000767
# 5 0.000087 0.000759 -0.000519 0.000000 0.013739 0.000000
# 6 0.000000 0.000000 0.000000 0.000767 0.000000 0.019264
#
#
# Mechanical properties :
#
#
# Convention : Reuss Voigt Hill
#
# Bulk Modulus (GPa) = 140.37150 144.59335 142.48242
# Shear Modulus (GPa) = 90.87119 25.11569 57.99344
#
# Velocity S-wave (km/s) = 5.92927 3.11717 4.73672
# Velocity P-wave (km/s) = 10.05893 8.30036 9.22166
#
# Compressibility (1/GPa) = 0.00712395
#
# Stress axis : x y z
#
# Youngs Moduli (GPa) = 201.87024 152.09255 184.50837
#
# Poissons Ratio (x) = 0.25667 0.30748
# Poissons Ratio (y) = 0.34068 0.28750
# Poissons Ratio (z) = 0.33641 0.23699
#
# Static dielectric constant tensor:
#      x y z
#    x 2.064500 0.000000 -0.116990 
#    y 0.000000 2.395050 0.000000 
#    z -0.116990 0.000000 2.068870 
# 
# From -- ./inp_files/202420.got.cif
#   From: 2010.05.17/outbox.cif.g08.bks.cpg/sg15_102_cif.got.tgz:202420.got - 2010.06.03 18:47:42.
