data_PCOD9308245
_publ_section_title
;
Structure prediction by ZEFSAII (Michael W. Deem and Ramdas Pophale) SiO2 
 PCOD9308245
Probable space group: C 2/C
;
_chemical_formula_sum "Si O2"
_cell_formula_units_Z 24
_cell_length_a 13.544257
_cell_length_b 7.754262
_cell_length_c 10.210511
_cell_angle_alpha 90.000000
_cell_angle_beta 112.506996
_cell_angle_gamma 90.000000
_cell_volume 990.687107
_symmetry_space_group_name_H-M "C 2/C"
_symmetry_group_IT_number 15
_symmetry_cell_setting 'monoclinic'
loop_
_space_group_symop_operation_xyz
x,y,z
-x,y,1/2-z
-x,-y,-z
x,-y,1/2+z
1/2+x,1/2+y,z
1/2-x,1/2+y,1/2-z
1/2-x,1/2-y,-z
1/2+x,1/2-y,1/2+z
loop_
_atom_site_type_symbol
_atom_site_label
_atom_site_fract_x
_atom_site_fract_y
_atom_site_fract_z
Si Si1 0.887247 0.423658 0.893631
Si Si2 0.198212 0.832251 0.348912
Si Si3 0.556620 0.617580 0.407919
O O1 0.873809 0.310795 0.756851
O O2 0.798649 0.572879 0.831485
O O3 0.873035 0.267271 0.990680
O O4 0.000000 0.500000 0.000000
O O5 0.250000 0.750000 0.500000
O O6 0.123894 0.980775 0.362882
O O7 0.500000 0.703388 0.250000
O O8 0.500000 0.500000 0.500000
#
# Coordination Sequence:
#
# PCOD9308245 Si02
#       3
#     8   8   8
#     4  12  29  50  82 118 160 211 267 334 401 474
#     4  12  28  49  80 118 159 208 273 328 401 480
#     4  12  26  50  81 114 157 208 266 328 398 477
#
# _framework density 24.225608999999999
#
# number of rings (size 3 to 8) (size 9 to 14) (size 15 to 20)
#    0.000    0.000    3.333    5.000    9.333    0.000 
#    0.000    0.000    0.000    0.000    0.000    0.000 
#    0.000    0.000    0.000    0.000    0.000    0.000 
#
# Total GULP energy -66847.367898 kJ/mol
# GULP energy per Si atom -5570.613991 kJ/mol
# Density = 2.417047 g / cm^3
# Si number density = 24.225609 Si / 1000 Ang^3
#
#
#
# Elastic Constant Matrix: (Units=GPa)
#
#
# Indices 1 2 3 4 5 6 
#
# 1 104.6018 29.2281 11.8221 0.0000 9.2329 0.0000
# 2 29.2281 101.5189 20.3600 0.0000 9.5217 0.0000
# 3 11.8221 20.3600 138.5698 0.0000 29.3639 0.0000
# 4 0.0000 0.0000 0.0000 72.7963 0.0000 7.5385
# 5 9.2329 9.5217 29.3639 0.0000 25.7683 0.0000
# 6 0.0000 0.0000 0.0000 7.5385 0.0000 44.0974
#
#
#
# Elastic Compliance Matrix: (Units=1/GPa)
#
#
# Indices 1 2 3 4 5 6 
#
# 1 0.010584 -0.002800 0.000122 0.000000 -0.002897 0.000000
# 2 -0.002800 0.011035 -0.000964 0.000000 -0.001976 0.000000
# 3 0.000122 -0.000964 0.009600 0.000000 -0.010627 0.000000
# 4 0.000000 0.000000 0.000000 0.013985 0.000000 -0.002391
# 5 -0.002897 -0.001976 -0.010627 0.000000 0.052685 0.000000
# 6 0.000000 0.000000 0.000000 -0.002391 0.000000 0.023086
#
#
# Mechanical properties :
#
#
# Convention : Reuss Voigt Hill
#
# Bulk Modulus (GPa) = 41.77784 51.94565 46.86174
# Shear Modulus (GPa) = 36.70084 47.41775 42.05930
#
# Velocity S-wave (km/s) = 3.89647 4.42898 4.17123
# Velocity P-wave (km/s) = 6.12585 6.90243 6.52570
#
# Compressibility (1/GPa) = 0.02393613
#
# Stress axis : x y z
#
# Youngs Moduli (GPa) = 94.47886 90.61923 104.17047
#
# Poissons Ratio (x) = 0.25375 -0.01274
# Poissons Ratio (y) = 0.26455 0.10039
# Poissons Ratio (z) = -0.01156 0.08733
#
# Static dielectric constant tensor:
#      x y z
#    x 1.965980 0.000000 -0.079470 
#    y 0.000000 1.938330 0.000000 
#    z -0.079470 0.000000 1.988340 
# 
# From -- ./inp_files/36149.got.cif
#   From: 2010.05.17/outbox.cif.g08.bks.cpg/sg15_19_cif.got.tgz:36149.got - 2010.06.03 18:47:42.
