data_PCOD9308191
_publ_section_title
;
Structure prediction by ZEFSAII (Michael W. Deem and Ramdas Pophale) SiO2 
 PCOD9308191
Probable space group: C 2/C
;
_chemical_formula_sum "Si O2"
_cell_formula_units_Z 32
_cell_length_a 14.853561
_cell_length_b 11.506054
_cell_length_c 8.459712
_cell_angle_alpha 90.000000
_cell_angle_beta 76.000901
_cell_angle_gamma 90.000000
_cell_volume 1402.873112
_symmetry_space_group_name_H-M "C 2/C"
_symmetry_group_IT_number 15
_symmetry_cell_setting 'monoclinic'
loop_
_space_group_symop_operation_xyz
x,y,z
-x,y,1/2-z
-x,-y,-z
x,-y,1/2+z
1/2+x,1/2+y,z
1/2-x,1/2+y,1/2-z
1/2-x,1/2-y,-z
1/2+x,1/2-y,1/2+z
loop_
_atom_site_type_symbol
_atom_site_label
_atom_site_fract_x
_atom_site_fract_y
_atom_site_fract_z
Si Si1 0.342074 0.674421 0.109070
Si Si2 0.003947 0.368069 0.437687
Si Si3 0.608651 0.538782 0.720737
Si Si4 0.682052 0.740862 0.879497
O O1 0.406912 0.787780 0.057729
O O2 0.381165 0.595770 0.237858
O O3 0.239461 0.708223 0.207191
O O4 0.345831 0.592508 0.954708
O O5 0.000000 0.369707 0.250000
O O6 0.000000 0.500000 0.500000
O O7 0.912306 0.307747 0.545430
O O8 0.500000 0.564278 0.750000
O O9 0.653229 0.611411 0.844668
O O10 0.750000 0.750000 0.000000
#
# Coordination Sequence:
#
# PCOD9308191 Si02
#       4
#     8   8   8   8
#     4  12  27  49  79 115 154 203 264 319 385 462
#     4  12  29  50  76 110 161 200 252 320 395 463
#     4  12  26  48  80 111 156 201 258 323 386 453
#     4  12  27  49  78 113 154 205 257 316 389 460
#
# _framework density 22.810331999999999
#
# number of rings (size 3 to 8) (size 9 to 14) (size 15 to 20)
#    0.000    0.000    5.000    3.750    7.000    2.000 
#    0.000    0.000    0.000    0.000    0.000    0.000 
#    0.000    0.000    0.000    0.000    0.000    0.000 
#
# Total GULP energy -89607.397746 kJ/mol
# GULP energy per Si atom -5600.462359 kJ/mol
# Density = 2.275841 g / cm^3
# Si number density = 22.810332 Si / 1000 Ang^3
#
#
#
# Elastic Constant Matrix: (Units=GPa)
#
#
# Indices 1 2 3 4 5 6 
#
# 1 87.6465 39.1080 60.7347 0.0000 -22.1306 0.0000
# 2 39.1080 157.1177 79.3049 0.0000 -10.9198 0.0000
# 3 60.7347 79.3049 109.9017 0.0000 -28.5327 0.0000
# 4 0.0000 0.0000 0.0000 39.0273 0.0000 12.2570
# 5 -22.1306 -10.9198 -28.5327 0.0000 54.3830 0.0000
# 6 0.0000 0.0000 0.0000 12.2570 0.0000 34.0108
#
#
#
# Elastic Compliance Matrix: (Units=1/GPa)
#
#
# Indices 1 2 3 4 5 6 
#
# 1 0.018832 0.000656 -0.010253 0.000000 0.002416 0.000000
# 2 0.000656 0.010237 -0.008273 0.000000 -0.002018 0.000000
# 3 -0.010253 -0.008273 0.022252 0.000000 0.005841 0.000000
# 4 0.000000 0.000000 0.000000 0.028893 0.000000 -0.010413
# 5 0.002416 -0.002018 0.005841 0.000000 0.022030 0.000000
# 6 0.000000 0.000000 0.000000 -0.010413 0.000000 0.033155
#
#
# Mechanical properties :
#
#
# Convention : Reuss Voigt Hill
#
# Bulk Modulus (GPa) = 64.18855 79.21787 71.70321
# Shear Modulus (GPa) = 28.35539 37.18544 32.77042
#
# Velocity S-wave (km/s) = 3.52958 4.04196 3.79443
# Velocity P-wave (km/s) = 6.69416 7.52247 7.12037
#
# Compressibility (1/GPa) = 0.01557910
#
# Stress axis : x y z
#
# Youngs Moduli (GPa) = 53.10238 97.68281 44.94066
#
# Poissons Ratio (x) = -0.06404 0.46076
# Poissons Ratio (y) = -0.03481 0.37182
# Poissons Ratio (z) = 0.54444 0.80818
#
# Static dielectric constant tensor:
#      x y z
#    x 1.816680 0.000000 0.025430 
#    y 0.000000 1.851280 0.000000 
#    z 0.025430 0.000000 1.900500 
# 
# From -- ./inp_files/36704.got.cif
#   From: 2010.05.17/outbox.cif.g08.bks.cpg/sg15_19_cif.got.tgz:36704.got - 2010.06.03 18:47:42.
