data_PCOD9308682
_publ_section_title
;
Structure prediction by ZEFSAII (Michael W. Deem and Ramdas Pophale) SiO2 
 PCOD9308682
Probable space group: C 2/C
;
_chemical_formula_sum "Si O2"
_cell_formula_units_Z 26
_cell_length_a 12.000000
_cell_length_b 24.000000
_cell_length_c 15.000000
_cell_angle_alpha 90.000000
_cell_angle_beta 140.000000
_cell_angle_gamma 90.000000
_cell_volume 2776.842474
_symmetry_space_group_name_H-M "C 2/C"
_symmetry_group_IT_number 15
_symmetry_cell_setting 'monoclinic'
loop_
_space_group_symop_operation_xyz
x,y,z
-x,y,1/2-z
-x,-y,-z
x,-y,1/2+z
1/2+x,1/2+y,z
1/2-x,1/2+y,1/2-z
1/2-x,1/2-y,-z
1/2+x,1/2-y,1/2+z
loop_
_atom_site_type_symbol
_atom_site_label
_atom_site_fract_x
_atom_site_fract_y
_atom_site_fract_z
Si Si1 0.898558 0.490440 0.845506
Si Si2 0.098036 0.287268 0.951410
Si Si3 0.500000 0.611892 0.750000
Si Si4 0.569082 0.440232 0.574699
Si Si5 0.688101 0.895911 0.314595
Si Si6 0.309574 0.088739 0.052573
Si Si7 0.195940 0.196792 0.746607
O O1 0.718196 0.454600 0.739977
O O2 0.845941 0.550394 0.770926
O O3 0.037425 0.456170 0.868943
O O4 0.000000 0.500000 0.000000
O O5 0.110724 0.349047 0.914868
O O6 0.917789 0.253112 0.835123
O O7 0.250000 0.250000 0.000000
O O8 0.155463 0.293388 0.089092
O O9 0.334261 0.579116 0.613240
O O10 0.563428 0.652576 0.710433
O O11 0.500000 0.500000 0.500000
O O12 0.383038 0.408599 0.477916
O O13 0.692034 0.415304 0.570255
O O14 0.500000 0.892067 0.250000
O O15 0.723120 0.837241 0.285870
#
# Coordination Sequence:
#
# PCOD9308682 Si02
#       7
#     8   8   4   8   8   8   8
#     4  11  23  38  60  96 127 163 209 271 320 384
#     4  11  20  35  59  94 123 153 198 266 333 386
#     4  10  18  36  60  92 124 164 194 262 332 382
#     4  10  21  37  58  84 120 168 211 247 311 384
#     4  11  23  45  62  83 127 179 221 253 314 394
#     4  11  21  35  61  92 129 159 206 260 328 381
#     4  11  21  38  62  91 126 161 203 263 335 387
#
# _framework density 9.3631530000000005
#
# number of rings (size 3 to 8) (size 9 to 14) (size 15 to 20)
#    0.000    1.231    4.615    4.154    2.154    3.692 
#    0.000    0.769    0.000    0.000    0.000    0.000 
#    0.000    0.000    0.000    0.000    0.000    0.000 
#
# Total GULP energy -144872.171537 kJ/mol
# GULP energy per Si atom -5572.006598 kJ/mol
# Density = 0.934184 g / cm^3
# Si number density = 9.363153 Si / 1000 Ang^3
#
#
#
# Elastic Constant Matrix: (Units=GPa)
#
#
# Indices 1 2 3 4 5 6 
#
# 1 101.5002 28.8733 39.1131 0.0000 21.5229 0.0000
# 2 28.8733 84.5745 28.2866 0.0000 1.7621 0.0000
# 3 39.1131 28.2866 145.7051 -0.0001 15.6256 0.0000
# 4 0.0000 0.0000 -0.0001 37.6371 0.0000 9.4166
# 5 21.5229 1.7621 15.6256 0.0000 29.9788 0.0000
# 6 0.0000 0.0000 0.0000 9.4166 0.0000 37.6324
#
#
#
# Elastic Compliance Matrix: (Units=1/GPa)
#
#
# Indices 1 2 3 4 5 6 
#
# 1 0.013471 -0.003760 -0.001984 0.000000 -0.008416 0.000000
# 2 -0.003760 0.013704 -0.001964 0.000000 0.002918 0.000000
# 3 -0.001984 -0.001964 0.008062 0.000000 -0.002663 0.000000
# 4 0.000000 0.000000 0.000000 0.028344 0.000000 -0.007092
# 5 -0.008416 0.002918 -0.002663 0.000000 0.040616 0.000000
# 6 0.000000 0.000000 0.000000 -0.007092 0.000000 0.028348
#
#
# Mechanical properties :
#
#
# Convention : Reuss Voigt Hill
#
# Bulk Modulus (GPa) = 50.44946 58.25841 54.35394
# Shear Modulus (GPa) = 32.34851 36.75012 34.54931
#
# Velocity S-wave (km/s) = 4.16075 4.43480 4.29996
# Velocity P-wave (km/s) = 7.07682 7.57636 7.33085
#
# Compressibility (1/GPa) = 0.01982182
#
# Stress axis : x y z
#
# Youngs Moduli (GPa) = 74.23443 72.97341 124.03133
#
# Poissons Ratio (x) = 0.27439 0.24602
# Poissons Ratio (y) = 0.27913 0.24359
# Poissons Ratio (z) = 0.14725 0.14331
#
# Static dielectric constant tensor:
#      x y z
#    x 1.687730 0.000000 -0.014060 
#    y 0.000000 1.657940 0.000000 
#    z -0.014060 0.000000 1.735030 
# 
# From -- ./inp_files/148144.got.cif
#   From: 2010.05.17/outbox.ucp.g08.bks.cvg/sg15_75_cif.got.tgz:148144.got - 2010.06.11 12:40:34.
