data_PCOD9308256
_publ_section_title
;
Structure prediction by ZEFSAII (Michael W. Deem and Ramdas Pophale) SiO2 
 PCOD9308256
Probable space group: C 2/C
;
_chemical_formula_sum "Si O2"
_cell_formula_units_Z 36
_cell_length_a 13.442727
_cell_length_b 7.205716
_cell_length_c 18.476805
_cell_angle_alpha 90.000000
_cell_angle_beta 124.832167
_cell_angle_gamma 90.000000
_cell_volume 1469.074811
_symmetry_space_group_name_H-M "C 2/C"
_symmetry_group_IT_number 15
_symmetry_cell_setting 'monoclinic'
loop_
_space_group_symop_operation_xyz
x,y,z
-x,y,1/2-z
-x,-y,-z
x,-y,1/2+z
1/2+x,1/2+y,z
1/2-x,1/2+y,1/2-z
1/2-x,1/2-y,-z
1/2+x,1/2-y,1/2+z
loop_
_atom_site_type_symbol
_atom_site_label
_atom_site_fract_x
_atom_site_fract_y
_atom_site_fract_z
Si Si1 0.063701 0.650580 0.974996
Si Si2 0.254859 0.635970 0.864673
Si Si3 0.000000 0.808234 0.750000
Si Si4 0.910822 0.622099 0.142486
Si Si5 0.006163 0.036415 0.609072
O O1 0.196564 0.705316 0.060221
O O2 0.940862 0.439879 0.106079
O O3 0.000000 0.500000 0.000000
O O4 0.010179 0.860361 0.951616
O O5 0.359064 0.614684 0.848540
O O6 0.222734 0.433880 0.884768
O O7 0.123966 0.699988 0.784229
O O8 0.015628 0.938981 0.824326
O O9 0.000000 0.652086 0.250000
O O10 0.921793 0.784405 0.087623
#
# Coordination Sequence:
#
# PCOD9308256 Si02
#       5
#     8   8   4   8   8
#     4  12  27  52  79 118 161 205 265 330 395 470
#     4  12  27  49  80 112 164 209 260 330 391 478
#     4  12  28  48  78 120 158 206 268 312 398 474
#     4  12  26  51  77 116 156 207 268 321 400 471
#     4  12  28  49  79 115 155 212 262 323 401 468
#
# _framework density 24.505220000000001
#
# number of rings (size 3 to 8) (size 9 to 14) (size 15 to 20)
#    0.000    0.000    6.667    1.333    3.111    4.444 
#    0.000    0.000    0.000    0.000    0.000    0.000 
#    0.000    0.000    0.000    0.000    0.000    0.000 
#
# Total GULP energy -100370.371706 kJ/mol
# GULP energy per Si atom -5576.131761 kJ/mol
# Density = 2.444944 g / cm^3
# Si number density = 24.505220 Si / 1000 Ang^3
#
#
#
# Elastic Constant Matrix: (Units=GPa)
#
#
# Indices 1 2 3 4 5 6 
#
# 1 93.0993 26.5177 -1.7210 0.0000 10.5504 0.0000
# 2 26.5177 156.5322 29.7467 0.0000 5.6682 0.0000
# 3 -1.7210 29.7467 64.7613 0.0000 23.1706 0.0000
# 4 0.0000 0.0000 0.0000 3.5099 0.0000 -24.2778
# 5 10.5504 5.6682 23.1706 0.0000 34.9733 0.0000
# 6 0.0000 0.0000 0.0000 -24.2778 0.0000 58.9934
#
#
#
# Elastic Compliance Matrix: (Units=1/GPa)
#
#
# Indices 1 2 3 4 5 6 
#
# 1 0.012151 -0.002516 0.003466 0.000000 -0.005554 0.000000
# 2 -0.002516 0.007566 -0.004424 0.000000 0.002463 0.000000
# 3 0.003466 -0.004424 0.023177 0.000000 -0.015684 0.000000
# 4 0.000000 0.000000 0.000000 -0.154290 0.000000 -0.063496
# 5 -0.005554 0.002463 -0.015684 0.000000 0.040260 0.000000
# 6 0.000000 0.000000 0.000000 -0.063496 0.000000 -0.009180
#
#
# Mechanical properties :
#
#
# Convention : Reuss Voigt Hill
#
# Bulk Modulus (GPa) = 27.81922 47.05329 37.43625
# Shear Modulus (GPa) = -81.45236 36.81859 -22.31689
#
# Velocity S-wave (km/s) = -5.77156 3.88039 -3.02105
# Velocity P-wave (km/s) = 5.74783 6.27053 1.77229
#
# Compressibility (1/GPa) = 0.03594638
#
# Stress axis : x y z
#
# Youngs Moduli (GPa) = 82.29550 132.16797 43.14685
#
# Poissons Ratio (x) = 0.33254 -0.14954
# Poissons Ratio (y) = 0.20706 0.19086
# Poissons Ratio (z) = -0.28522 0.58466
#
# Static dielectric constant tensor:
#      x y z
#    x 0.283720 0.000000 0.902890 
#    y 0.000000 2.092650 0.000000 
#    z 0.902890 0.000000 1.513250 
# 
# From -- ./inp_files/235960.got.cif
#   From: 2010.05.17/outbox.cif.g08.bks.cpg/sg15_118_cif.got.tgz:235960.got - 2010.06.03 18:47:42.
