data_PCOD9308886
_publ_section_title
;
Structure prediction by ZEFSAII (Michael W. Deem and Ramdas Pophale) SiO2 
 PCOD9308886
Probable space group: C 2/C
;
_chemical_formula_sum "Si O2"
_cell_formula_units_Z 32
_cell_length_a 21.000000
_cell_length_b 18.000000
_cell_length_c 24.000000
_cell_angle_alpha 90.000000
_cell_angle_beta 20.000000
_cell_angle_gamma 90.000000
_cell_volume 3102.806740
_symmetry_space_group_name_H-M "C 2/C"
_symmetry_group_IT_number 15
_symmetry_cell_setting 'monoclinic'
loop_
_space_group_symop_operation_xyz
x,y,z
-x,y,1/2-z
-x,-y,-z
x,-y,1/2+z
1/2+x,1/2+y,z
1/2-x,1/2+y,1/2-z
1/2-x,1/2-y,-z
1/2+x,1/2-y,1/2+z
loop_
_atom_site_type_symbol
_atom_site_label
_atom_site_fract_x
_atom_site_fract_y
_atom_site_fract_z
Si Si1 0.254646 0.206922 0.844778
Si Si2 0.615710 0.179943 0.098599
Si Si3 0.195824 0.974909 0.062842
Si Si4 0.073453 0.995688 0.537324
Si Si5 0.904008 0.850274 0.141554
Si Si6 0.272771 0.219237 0.303687
Si Si7 0.631547 0.344805 0.802044
Si Si8 0.535040 0.923711 0.287977
O O1 0.199207 0.169253 0.831060
O O2 0.265805 0.295224 0.827937
O O3 0.430940 0.161278 0.722074
O O4 0.074861 0.190510 0.029256
O O5 0.500000 0.162232 0.250000
O O6 0.458722 0.194545 0.181545
O O7 0.750000 0.250000 0.000000
O O8 0.737312 0.108897 0.982182
O O9 0.000000 0.993064 0.250000
O O10 0.148160 0.981498 0.036565
O O11 0.355741 0.029856 0.954214
O O12 0.271421 0.963992 0.351207
O O13 0.917686 0.930701 0.665373
O O14 0.973726 0.066080 0.591031
O O15 0.779332 0.808337 0.289706
O O16 0.094719 0.803339 0.985677
O O17 0.231094 0.177011 0.278910
O O18 0.500000 0.924679 0.250000
#
# Coordination Sequence:
#
# PCOD9308886 Si02
#       8
#     8   8   8   8   8   8   8   8
#     4   9  19  36  58  84 110 142 183 227 283 335
#     4  12  23  36  56  80 113 154 191 230 276 335
#     4  11  23  37  54  80 113 145 183 234 281 332
#     4  10  20  38  58  82 109 145 189 228 278 331
#     4  10  20  35  58  81 111 145 185 234 272 328
#     4  10  20  35  55  82 110 146 187 225 276 326
#     4   9  20  36  59  83 111 143 182 234 277 332
#     4   9  19  37  58  80 109 145 185 228 276 335
#
# _framework density 10.313243
#
# number of rings (size 3 to 8) (size 9 to 14) (size 15 to 20)
#    0.000    2.000    0.000    4.500    0.000    7.500 
#    0.000    6.250    0.000   13.500    0.000    0.000 
#    0.000    0.000    0.000    0.000    0.000    0.000 
#
# Total GULP energy -178309.313995 kJ/mol
# GULP energy per Si atom -5572.166062 kJ/mol
# Density = 1.028977 g / cm^3
# Si number density = 10.313243 Si / 1000 Ang^3
#
#
#
# Elastic Constant Matrix: (Units=GPa)
#
#
# Indices 1 2 3 4 5 6 
#
# 1 43.5436 19.5326 12.4440 -0.0128 -30.9858 0.0183
# 2 19.5326 97.2063 39.5524 -0.0206 -15.7797 -0.0438
# 3 12.4440 39.5524 51.9661 0.0216 -18.9492 -0.0351
# 4 -0.0128 -0.0206 0.0216 30.3489 0.0071 -8.1330
# 5 -30.9858 -15.7797 -18.9492 0.0071 31.1184 -0.0261
# 6 0.0183 -0.0438 -0.0351 -8.1330 -0.0261 20.0914
#
#
#
# Elastic Compliance Matrix: (Units=1/GPa)
#
#
# Indices 1 2 3 4 5 6 
#
# 1 0.094598 -0.012107 0.024001 0.000008 0.102670 0.000066
# 2 -0.012107 0.016469 -0.014122 0.000023 -0.012304 0.000016
# 3 0.024001 -0.014122 0.039010 -0.000021 0.040492 0.000060
# 4 0.000008 0.000023 -0.000021 0.036959 0.000012 0.014961
# 5 0.102670 -0.012304 0.040492 0.000012 0.152786 0.000154
# 6 0.000066 0.000016 0.000060 0.014961 0.000154 0.055829
#
#
# Mechanical properties :
#
#
# Convention : Reuss Voigt Hill
#
# Bulk Modulus (GPa) = 6.86725 37.30823 22.08774
# Shear Modulus (GPa) = 11.14456 24.39087 17.76772
#
# Velocity S-wave (km/s) = 2.32696 3.44248 2.93815
# Velocity P-wave (km/s) = 3.24904 5.82475 4.71614
#
# Compressibility (1/GPa) = 0.14561872
#
# Stress axis : x y z
#
# Youngs Moduli (GPa) = 10.57106 60.71937 25.63443
#
# Poissons Ratio (x) = 0.73516 -0.61524
# Poissons Ratio (y) = 0.12799 0.36202
# Poissons Ratio (z) = -0.25371 0.85750
#
# Static dielectric constant tensor:
#      x y z
#    x 1.676090 0.000100 0.121320 
#    y 0.000100 1.776720 -0.000020 
#    z 0.121320 -0.000020 1.786460 
# 
# From -- ./inp_files/280490.got.cif
#   From: 2010.05.17/outbox.ucp.g08.bks.cvg/sg15_141_cif.got.tgz:280490.got - 2010.06.11 12:40:34.
