data_PCOD9308250
_publ_section_title
;
Structure prediction by ZEFSAII (Michael W. Deem and Ramdas Pophale) SiO2 
 PCOD9308250
Probable space group: C 2/C
;
_chemical_formula_sum "Si O2"
_cell_formula_units_Z 24
_cell_length_a 13.945049
_cell_length_b 5.028248
_cell_length_c 17.741751
_cell_angle_alpha 90.000000
_cell_angle_beta 47.284521
_cell_angle_gamma 90.000000
_cell_volume 914.032818
_symmetry_space_group_name_H-M "C 2/C"
_symmetry_group_IT_number 15
_symmetry_cell_setting 'monoclinic'
loop_
_space_group_symop_operation_xyz
x,y,z
-x,y,1/2-z
-x,-y,-z
x,-y,1/2+z
1/2+x,1/2+y,z
1/2-x,1/2+y,1/2-z
1/2-x,1/2-y,-z
1/2+x,1/2-y,1/2+z
loop_
_atom_site_type_symbol
_atom_site_label
_atom_site_fract_x
_atom_site_fract_y
_atom_site_fract_z
Si Si1 0.617834 0.363786 0.733691
Si Si2 0.607837 0.194434 0.909049
Si Si3 0.748255 0.498523 0.445731
O O1 0.500000 0.498596 0.750000
O O2 0.582732 0.287348 0.837467
O O3 0.751220 0.536988 0.665236
O O4 0.645456 0.093715 0.672161
O O5 0.628316 0.438223 0.955140
O O6 0.500000 0.000000 0.000000
O O7 0.750000 0.750000 0.500000
O O8 0.750000 0.250000 0.500000
#
# Coordination Sequence:
#
# PCOD9308250 Si02
#       3
#     8   8   8
#     4  12  28  51  84 125 175 232 300 366 447 534
#     4  12  28  53  88 127 177 236 303 375 449 540
#     4  12  26  50  82 124 168 228 288 365 442 521
#
# _framework density 26.257263999999999
#
# number of rings (size 3 to 8) (size 9 to 14) (size 15 to 20)
#    0.000    0.000    6.667    2.000    0.000    5.333 
#    0.000    0.000    0.000    0.000    0.000    0.000 
#    0.000    0.000    0.000    0.000    0.000    0.000 
#
# Total GULP energy -67266.807405 kJ/mol
# GULP energy per Si atom -5605.567284 kJ/mol
# Density = 2.619750 g / cm^3
# Si number density = 26.257264 Si / 1000 Ang^3
#
#
#
# Elastic Constant Matrix: (Units=GPa)
#
#
# Indices 1 2 3 4 5 6 
#
# 1 256.2487 75.2297 117.5846 -0.0010 30.2152 0.0034
# 2 75.2297 175.1421 65.5498 -0.0024 22.8389 0.0127
# 3 117.5846 65.5498 176.5340 0.0001 27.3924 0.0000
# 4 -0.0010 -0.0024 0.0001 45.0088 -0.0009 -5.2481
# 5 30.2152 22.8389 27.3924 -0.0009 79.3722 -0.0009
# 6 0.0034 0.0127 0.0000 -5.2481 -0.0009 57.6981
#
#
#
# Elastic Compliance Matrix: (Units=1/GPa)
#
#
# Indices 1 2 3 4 5 6 
#
# 1 0.005877 -0.001168 -0.003366 0.000000 -0.000739 0.000000
# 2 -0.001168 0.006959 -0.001653 0.000000 -0.000987 -0.000001
# 3 -0.003366 -0.001653 0.008714 0.000000 -0.001251 0.000001
# 4 0.000000 0.000000 0.000000 0.022456 0.000000 0.002043
# 5 -0.000739 -0.000987 -0.001251 0.000000 0.013596 0.000001
# 6 0.000000 -0.000001 0.000001 0.002043 0.000001 0.017517
#
#
# Mechanical properties :
#
#
# Convention : Reuss Voigt Hill
#
# Bulk Modulus (GPa) = 108.97434 124.96145 116.96789
# Shear Modulus (GPa) = 55.21663 59.71987 57.46825
#
# Velocity S-wave (km/s) = 4.59072 4.77425 4.68339
# Velocity P-wave (km/s) = 8.34819 8.83662 8.59588
#
# Compressibility (1/GPa) = 0.00917647
#
# Stress axis : x y z
#
# Youngs Moduli (GPa) = 170.14783 143.70551 114.75265
#
# Poissons Ratio (x) = 0.16788 0.38628
# Poissons Ratio (y) = 0.19877 0.18963
# Poissons Ratio (z) = 0.57274 0.23748
#
# Static dielectric constant tensor:
#      x y z
#    x 2.097020 0.000000 -0.130380 
#    y 0.000000 2.083750 0.000000 
#    z -0.130380 0.000000 2.223950 
# 
# From -- ./inp_files/149407.got.cif
#   From: 2010.05.17/outbox.cif.g08.bks.cpg/sg15_75_cif.got.tgz:149407.got - 2010.06.03 18:47:42.
