data_PCOD9308994
_publ_section_title
;
Structure prediction by ZEFSAII (Michael W. Deem and Ramdas Pophale) SiO2 
 PCOD9308994
Probable space group: C 2/C
;
_chemical_formula_sum "Si O2"
_cell_formula_units_Z 30
_cell_length_a 15.000000
_cell_length_b 27.000000
_cell_length_c 15.000000
_cell_angle_alpha 90.000000
_cell_angle_beta 30.000000
_cell_angle_gamma 90.000000
_cell_volume 3037.500000
_symmetry_space_group_name_H-M "C 2/C"
_symmetry_group_IT_number 15
_symmetry_cell_setting 'monoclinic'
loop_
_space_group_symop_operation_xyz
x,y,z
-x,y,1/2-z
-x,-y,-z
x,-y,1/2+z
1/2+x,1/2+y,z
1/2-x,1/2+y,1/2-z
1/2-x,1/2-y,-z
1/2+x,1/2-y,1/2+z
loop_
_atom_site_type_symbol
_atom_site_label
_atom_site_fract_x
_atom_site_fract_y
_atom_site_fract_z
Si Si1 0.545478 0.888982 0.522042
Si Si2 0.907062 0.289733 0.967158
Si Si3 0.200034 0.483135 0.102091
Si Si4 0.199674 0.092364 0.536725
Si Si5 0.819389 0.038497 0.694535
Si Si6 0.000000 0.081460 0.250000
Si Si7 0.656938 0.571787 0.297299
Si Si8 0.222571 0.192735 0.450990
O O1 0.583930 0.831362 0.465694
O O2 0.628054 0.892268 0.551096
O O3 0.686751 0.923985 0.353523
O O4 0.346620 0.907373 0.669016
O O5 0.740186 0.296700 0.042721
O O6 0.086743 0.299808 0.757914
O O7 0.903295 0.231600 0.988885
O O8 0.228937 0.476318 0.180818
O O9 0.000000 0.471416 0.250000
O O10 0.246428 0.539329 0.042809
O O11 0.335609 0.449212 0.931327
O O12 0.177342 0.135870 0.484911
O O13 0.000000 0.088484 0.750000
O O14 0.004850 0.064328 0.505310
O O15 0.829833 0.987267 0.740976
O O16 0.915738 0.101339 0.227535
#
# Coordination Sequence:
#
# PCOD9308994 Si02
#       8
#     8   8   8   8   8   4   8   8
#     4  11  22  37  54  80 108 156 193 234 279 337
#     4   9  20  35  54  73 107 143 190 230 279 330
#     4  11  21  34  55  80 112 157 196 236 273 340
#     4  11  24  34  55  79 112 156 202 230 270 341
#     4  10  22  34  53  77 114 146 191 241 280 325
#     4  10  20  38  54  78 110 146 198 232 290 324
#     4  10  21  36  53  77 108 147 185 240 280 333
#     4   9  20  35  50  77 103 147 186 235 274 317
#
# _framework density 9.8765429999999999
#
# number of rings (size 3 to 8) (size 9 to 14) (size 15 to 20)
#    0.000    1.867    0.667    2.800   14.933    0.000 
#    0.000    0.000    0.000    0.000    0.000    0.000 
#    0.000    1.067    0.000    1.200    0.000    0.000 
#
# Total GULP energy -167055.528344 kJ/mol
# GULP energy per Si atom -5568.517611 kJ/mol
# Density = 0.985406 g / cm^3
# Si number density = 9.876543 Si / 1000 Ang^3
#
#
#
# Elastic Constant Matrix: (Units=GPa)
#
#
# Indices 1 2 3 4 5 6 
#
# 1 80.2808 24.5148 28.8503 0.0284 -27.0043 -0.0232
# 2 24.5148 72.2047 39.3251 -0.0361 -19.2635 0.0242
# 3 28.8503 39.3251 77.8571 0.0125 -24.3324 -0.0179
# 4 0.0284 -0.0361 0.0125 -64.4998 -0.0339 37.3283
# 5 -27.0043 -19.2635 -24.3324 -0.0339 27.2553 0.0301
# 6 -0.0232 0.0242 -0.0179 37.3283 0.0301 -18.5906
#
#
#
# Elastic Compliance Matrix: (Units=1/GPa)
#
#
# Indices 1 2 3 4 5 6 
#
# 1 0.018914 -0.001350 -0.001066 -0.000011 0.016834 -0.000018
# 2 -0.001350 0.020150 -0.007829 -0.000059 0.005915 -0.000074
# 3 -0.001066 -0.007829 0.020990 0.000024 0.012150 0.000038
# 4 -0.000011 -0.000059 0.000024 0.095675 -0.000124 0.192107
# 5 0.016834 0.005915 0.012150 -0.000124 0.068397 -0.000163
# 6 -0.000018 -0.000074 0.000038 0.192107 -0.000163 0.331942
#
#
# Mechanical properties :
#
#
# Convention : Reuss Voigt Hill
#
# Bulk Modulus (GPa) = 25.27453 46.19143 35.73298
# Shear Modulus (GPa) = 8.47822 -1.99020 3.24401
#
# Velocity S-wave (km/s) = 2.07399 -1.00485 1.28291
# Velocity P-wave (km/s) = 4.30793 4.69988 4.50817
#
# Compressibility (1/GPa) = 0.03956552
#
# Stress axis : x y z
#
# Youngs Moduli (GPa) = 52.87045 49.62874 47.64067
#
# Poissons Ratio (x) = 0.06700 0.05077
# Poissons Ratio (y) = 0.07138 0.37297
# Poissons Ratio (z) = 0.05634 0.38853
#
# Static dielectric constant tensor:
#      x y z
#    x 1.777180 -0.000050 0.047370 
#    y -0.000050 1.824570 0.000000 
#    z 0.047370 0.000000 1.744360 
# 
# From -- ./inp_files/157328.got.cif
#   From: 2010.05.17/outbox.ucp.g08.bks.cvg/sg15_79_cif.got.tgz:157328.got - 2010.06.11 12:40:34.
