data_PCOD9308078
_publ_section_title
;
Structure prediction by ZEFSAII (Michael W. Deem and Ramdas Pophale) SiO2 
 PCOD9308078
Probable space group: C 2/C
;
_chemical_formula_sum "Si O2"
_cell_formula_units_Z 36
_cell_length_a 10.950344
_cell_length_b 8.957501
_cell_length_c 14.910845
_cell_angle_alpha 90.000000
_cell_angle_beta 117.848502
_cell_angle_gamma 90.000000
_cell_volume 1293.184366
_symmetry_space_group_name_H-M "C 2/C"
_symmetry_group_IT_number 15
_symmetry_cell_setting 'monoclinic'
loop_
_space_group_symop_operation_xyz
x,y,z
-x,y,1/2-z
-x,-y,-z
x,-y,1/2+z
1/2+x,1/2+y,z
1/2-x,1/2+y,1/2-z
1/2-x,1/2-y,-z
1/2+x,1/2-y,1/2+z
loop_
_atom_site_type_symbol
_atom_site_label
_atom_site_fract_x
_atom_site_fract_y
_atom_site_fract_z
Si Si1 0.717509 0.492235 0.737295
Si Si2 0.949547 0.638152 0.918500
Si Si3 0.000000 0.369399 0.750000
Si Si4 0.108023 0.827991 0.440863
Si Si5 0.500000 0.500000 0.500000
Si Si6 0.000000 0.232366 0.250000
O O1 0.790301 0.603808 0.834369
O O2 0.854528 0.439934 0.731138
O O3 0.611345 0.546171 0.625259
O O4 0.630115 0.369168 0.763342
O O5 0.024923 0.668026 0.849230
O O6 0.956983 0.793616 0.979123
O O7 0.000000 0.500000 0.000000
O O8 0.968237 0.261055 0.658190
O O9 0.250000 0.750000 0.500000
O O10 0.123256 0.000280 0.462370
#
# Coordination Sequence:
#
# PCOD9308078 Si02
#       6
#     8   8   4   8   4   4
#     4  12  29  52  83 119 169 222 274 352 414 506
#     4  12  28  51  81 120 165 213 274 348 420 495
#     4  12  25  55  80 116 168 215 281 340 420 506
#     4  12  27  49  77 118 159 218 274 336 421 495
#     4  12  28  48  80 118 164 216 276 342 410 498
#     4  12  29  55  78 132 164 221 291 330 432 506
#
# _framework density 27.838258
#
# number of rings (size 3 to 8) (size 9 to 14) (size 15 to 20)
#    0.000    0.000    6.667    0.667    9.333    0.889 
#    0.000    0.000    0.000    0.000    0.000    0.000 
#    0.000    0.000    0.000    0.000    0.000    0.000 
#
# Total GULP energy -100229.045513 kJ/mol
# GULP energy per Si atom -5568.280306 kJ/mol
# Density = 2.777490 g / cm^3
# Si number density = 27.838258 Si / 1000 Ang^3
#
#
#
# Elastic Constant Matrix: (Units=GPa)
#
#
# Indices 1 2 3 4 5 6 
#
# 1 144.7194 70.8855 55.5512 0.0000 -37.6111 0.0000
# 2 70.8855 133.2559 81.8273 0.0000 -3.6097 0.0000
# 3 55.5512 81.8273 253.9658 0.0000 4.5289 0.0000
# 4 0.0000 0.0000 0.0000 93.6186 0.0000 -25.0480
# 5 -37.6111 -3.6097 4.5289 0.0000 51.8459 0.0000
# 6 0.0000 0.0000 0.0000 -25.0480 0.0000 79.6499
#
#
#
# Elastic Compliance Matrix: (Units=1/GPa)
#
#
# Indices 1 2 3 4 5 6 
#
# 1 0.012342 -0.005708 -0.001015 0.000000 0.008645 0.000000
# 2 -0.005708 0.012039 -0.002575 0.000000 -0.003078 0.000000
# 3 -0.001015 -0.002575 0.005013 0.000000 -0.001353 0.000000
# 4 0.000000 0.000000 0.000000 0.011663 0.000000 0.003668
# 5 0.008645 -0.003078 -0.001353 0.000000 0.025463 0.000000
# 6 0.000000 0.000000 0.000000 0.003668 0.000000 0.013708
#
#
# Mechanical properties :
#
#
# Convention : Reuss Voigt Hill
#
# Bulk Modulus (GPa) = 92.61080 105.38545 98.99812
# Shear Modulus (GPa) = 48.81666 66.60137 57.70902
#
# Velocity S-wave (km/s) = 4.19212 4.89656 4.55797
# Velocity P-wave (km/s) = 7.53469 8.36104 7.95860
#
# Compressibility (1/GPa) = 0.01079788
#
# Stress axis : x y z
#
# Youngs Moduli (GPa) = 81.02480 83.06413 199.46463
#
# Poissons Ratio (x) = 0.47414 0.20238
# Poissons Ratio (y) = 0.46249 0.51372
# Poissons Ratio (z) = 0.08221 0.21393
#
# Static dielectric constant tensor:
#      x y z
#    x 2.640140 0.000000 -0.022140 
#    y 0.000000 2.299980 0.000000 
#    z -0.022140 0.000000 2.207240 
# 
# From -- ./inp_files/142043.got.cif
#   From: 2010.05.17/outbox.cif.g08.bks.cpg/sg15_72_cif.got.tgz:142043.got - 2010.06.03 18:47:42.
