data_PCOD9308692
_publ_section_title
;
Structure prediction by ZEFSAII (Michael W. Deem and Ramdas Pophale) SiO2 
 PCOD9308692
Probable space group: C 2/C
;
_chemical_formula_sum "Si O2"
_cell_formula_units_Z 32
_cell_length_a 18.000000
_cell_length_b 15.000000
_cell_length_c 18.000000
_cell_angle_alpha 90.000000
_cell_angle_beta 40.000000
_cell_angle_gamma 90.000000
_cell_volume 3123.947783
_symmetry_space_group_name_H-M "C 2/C"
_symmetry_group_IT_number 15
_symmetry_cell_setting 'monoclinic'
loop_
_space_group_symop_operation_xyz
x,y,z
-x,y,1/2-z
-x,-y,-z
x,-y,1/2+z
1/2+x,1/2+y,z
1/2-x,1/2+y,1/2-z
1/2-x,1/2-y,-z
1/2+x,1/2-y,1/2+z
loop_
_atom_site_type_symbol
_atom_site_label
_atom_site_fract_x
_atom_site_fract_y
_atom_site_fract_z
Si Si1 0.594402 0.155877 0.366206
Si Si2 0.350390 0.149798 0.002329
Si Si3 0.660973 0.585502 0.336945
Si Si4 0.456980 0.347003 0.086812
Si Si5 0.966613 0.996087 0.693505
Si Si6 0.993916 0.497268 0.167318
Si Si7 0.248453 0.590825 0.660904
Si Si8 0.359854 0.332877 0.931657
O O1 0.604410 0.150594 0.448082
O O2 0.729515 0.149475 0.240625
O O3 0.530808 0.247032 0.395476
O O4 0.529998 0.076800 0.372043
O O5 0.390045 0.056119 0.938910
O O6 0.403871 0.234518 0.917259
O O7 0.214622 0.163389 0.086768
O O8 0.541332 0.630601 0.453237
O O9 0.646752 0.542200 0.265252
O O10 0.690091 0.505074 0.371977
O O11 0.489531 0.420588 0.122132
O O12 0.322375 0.353378 0.164296
O O13 0.000000 0.032019 0.750000
O O14 0.044815 0.907981 0.636524
O O15 0.886978 0.429449 0.232635
O O16 0.000000 0.523178 0.250000
O O17 0.274049 0.637970 0.563758
#
# Coordination Sequence:
#
# PCOD9308692 Si02
#       8
#     8   8   8   8   8   8   8   8
#     4  11  24  40  60  91 123 157 210 246 294 366
#     4  11  23  39  60  94 125 155 194 260 300 355
#     4  10  20  38  63  84 116 165 197 238 307 350
#     4  11  21  40  64  85 122 160 199 247 298 358
#     4  11  21  36  62  93 119 151 198 254 297 351
#     4  11  24  40  64  85 124 168 198 242 305 362
#     4  10  18  38  62  85 113 159 200 235 290 366
#     4  11  20  37  62  89 123 150 198 247 304 354
#
# _framework density 10.243449
#
# number of rings (size 3 to 8) (size 9 to 14) (size 15 to 20)
#    0.000    1.250    5.000    1.875    0.000    3.000 
#    0.000    2.500    0.000    3.000    0.000    0.000 
#    0.000    0.000    0.000    0.000    0.000    0.000 
#
# Total GULP energy -178153.948086 kJ/mol
# GULP energy per Si atom -5567.310878 kJ/mol
# Density = 1.022013 g / cm^3
# Si number density = 10.243449 Si / 1000 Ang^3
#
#
#
# Elastic Constant Matrix: (Units=GPa)
#
#
# Indices 1 2 3 4 5 6 
#
# 1 121.2659 33.0914 24.5391 0.0000 14.8681 0.0000
# 2 33.0914 95.6355 33.8646 0.0000 11.5049 0.0000
# 3 24.5391 33.8646 26.7791 0.0000 12.3653 0.0000
# 4 0.0000 0.0000 0.0000 17.6013 0.0000 -3.4828
# 5 14.8681 11.5049 12.3653 0.0000 30.3385 0.0000
# 6 0.0000 0.0000 0.0000 -3.4828 0.0000 16.8702
#
#
#
# Elastic Compliance Matrix: (Units=1/GPa)
#
#
# Indices 1 2 3 4 5 6 
#
# 1 0.010190 -0.000519 -0.007966 0.000000 -0.001550 0.000000
# 2 -0.000519 0.019214 -0.025345 0.000000 0.003298 0.000000
# 3 -0.007966 -0.025345 0.086786 0.000000 -0.021857 0.000000
# 4 0.000000 0.000000 0.000000 0.059234 0.000000 0.012229
# 5 -0.001550 0.003298 -0.021857 0.000000 0.041379 0.000000
# 6 0.000000 0.000000 0.000000 0.012229 0.000000 0.061801
#
#
# Mechanical properties :
#
#
# Convention : Reuss Voigt Hill
#
# Bulk Modulus (GPa) = 20.60568 47.40786 34.00677
# Shear Modulus (GPa) = 13.79541 23.10770 18.45155
#
# Velocity S-wave (km/s) = 2.59777 3.36210 3.00434
# Velocity P-wave (km/s) = 4.36780 6.18567 5.35444
#
# Compressibility (1/GPa) = 0.04853031
#
# Stress axis : x y z
#
# Youngs Moduli (GPa) = 98.13635 52.04562 11.52258
#
# Poissons Ratio (x) = 0.02700 0.09179
# Poissons Ratio (y) = 0.05090 0.29204
# Poissons Ratio (z) = 0.78173 1.31912
#
# Static dielectric constant tensor:
#      x y z
#    x 1.724630 0.000000 0.013070 
#    y 0.000000 1.734790 0.000000 
#    z 0.013070 0.000000 1.818590 
# 
# From -- ./inp_files/211388.got.cif
#   From: 2010.05.17/outbox.ucp.g08.bks.cvg/sg15_106_cif.got.tgz:211388.got - 2010.06.11 12:40:34.
