data_PCOD9308834
_publ_section_title
;
Structure prediction by ZEFSAII (Michael W. Deem and Ramdas Pophale) SiO2 
 PCOD9308834
Probable space group: C 2/C
;
_chemical_formula_sum "Si O2"
_cell_formula_units_Z 28
_cell_length_a 21.000000
_cell_length_b 21.000000
_cell_length_c 9.000000
_cell_angle_alpha 90.000000
_cell_angle_beta 130.000000
_cell_angle_gamma 90.000000
_cell_volume 3040.430395
_symmetry_space_group_name_H-M "C 2/C"
_symmetry_group_IT_number 15
_symmetry_cell_setting 'monoclinic'
loop_
_space_group_symop_operation_xyz
x,y,z
-x,y,1/2-z
-x,-y,-z
x,-y,1/2+z
1/2+x,1/2+y,z
1/2-x,1/2+y,1/2-z
1/2-x,1/2-y,-z
1/2+x,1/2-y,1/2+z
loop_
_atom_site_type_symbol
_atom_site_label
_atom_site_fract_x
_atom_site_fract_y
_atom_site_fract_z
Si Si1 0.865778 0.374414 0.805682
Si Si2 0.477198 0.067453 0.037110
Si Si3 0.663351 0.238846 0.452234
Si Si4 0.401441 0.620551 0.586295
Si Si5 0.298151 0.867090 0.261883
Si Si6 0.731342 0.397397 0.853374
Si Si7 0.264459 0.451521 0.074666
O O1 0.874698 0.312880 0.715359
O O2 0.803714 0.371419 0.851371
O O3 0.818345 0.429776 0.639447
O O4 0.960926 0.390653 0.970744
O O5 0.500000 0.070131 0.250000
O O6 0.383343 0.091853 0.876721
O O7 0.500000 0.000000 0.000000
O O8 0.750000 0.250000 0.500000
O O9 0.616838 0.305820 0.396626
O O10 0.679047 0.200487 0.628795
O O11 0.500000 0.607732 0.750000
O O12 0.357539 0.613965 0.358699
O O13 0.344425 0.572692 0.600844
O O14 0.240701 0.908008 0.287095
O O15 0.249555 0.863230 0.035376
O O16 0.738386 0.473833 0.892152
#
# Coordination Sequence:
#
# PCOD9308834 Si02
#       7
#     8   8   8   8   8   8   8
#     4  10  22  37  61  91 125 174 201 249 304 380
#     4  12  23  36  57  97 135 170 205 249 307 370
#     4  11  20  44  65  86 118 168 217 236 304 385
#     4  11  25  42  68  89 118 169 206 262 310 369
#     4  11  23  35  64  91 124 171 204 260 304 367
#     4  11  22  40  62  94 123 154 213 264 319 366
#     4  10  19  40  62  89 121 165 204 248 326 380
#
# _framework density 9.2092229999999997
#
# number of rings (size 3 to 8) (size 9 to 14) (size 15 to 20)
#    0.000    1.143    7.143    3.429    4.000    1.143 
#    0.000    0.714    0.000    0.000    0.000    0.000 
#    0.000    0.000    0.000    0.000    0.000    0.000 
#
# Total GULP energy -156049.721109 kJ/mol
# GULP energy per Si atom -5573.204325 kJ/mol
# Density = 0.918826 g / cm^3
# Si number density = 9.209223 Si / 1000 Ang^3
#
#
#
# Elastic Constant Matrix: (Units=GPa)
#
#
# Indices 1 2 3 4 5 6 
#
# 1 78.7051 -2.5033 49.4867 0.0000 10.8825 0.0000
# 2 -2.5033 67.9337 2.2016 0.0000 3.2204 0.0000
# 3 49.4867 2.2016 80.6232 0.0000 -6.7084 0.0000
# 4 0.0000 0.0000 0.0000 15.8336 0.0000 -3.0632
# 5 10.8825 3.2204 -6.7084 0.0000 31.1874 0.0000
# 6 0.0000 0.0000 0.0000 -3.0632 0.0000 29.7338
#
#
#
# Elastic Compliance Matrix: (Units=1/GPa)
#
#
# Indices 1 2 3 4 5 6 
#
# 1 0.024672 0.002018 -0.016223 0.000000 -0.012307 0.000000
# 2 0.002018 0.014981 -0.001869 0.000000 -0.002653 0.000000
# 3 -0.016223 -0.001869 0.023316 0.000000 0.010869 0.000000
# 4 0.000000 0.000000 0.000000 0.064441 0.000000 0.006639
# 5 -0.012307 -0.002653 0.010869 0.000000 0.038970 0.000000
# 6 0.000000 0.000000 0.000000 0.006639 0.000000 0.034316
#
#
# Mechanical properties :
#
#
# Convention : Reuss Voigt Hill
#
# Bulk Modulus (GPa) = 32.44351 36.18134 34.31243
# Shear Modulus (GPa) = 20.56625 27.22274 23.89449
#
# Velocity S-wave (km/s) = 3.34520 3.84867 3.60573
# Velocity P-wave (km/s) = 5.70731 6.27984 6.00041
#
# Compressibility (1/GPa) = 0.03082280
#
# Stress axis : x y z
#
# Youngs Moduli (GPa) = 40.53229 66.75145 42.88845
#
# Poissons Ratio (x) = -0.13472 0.69577
# Poissons Ratio (y) = -0.08181 0.08014
# Poissons Ratio (z) = 0.65754 0.12474
#
# Static dielectric constant tensor:
#      x y z
#    x 1.639900 0.000000 -0.055960 
#    y 0.000000 1.489140 0.000000 
#    z -0.055960 0.000000 1.642600 
# 
# From -- ./inp_files/57922.got.cif
#   From: 2010.05.17/outbox.ucp.g08.bks.cvg/sg15_29_cif.got.tgz:57922.got - 2010.06.11 12:40:34.
