data_PCOD9308982
_publ_section_title
;
Structure prediction by ZEFSAII (Michael W. Deem and Ramdas Pophale) SiO2 
 PCOD9308982
Probable space group: C 2/C
;
_chemical_formula_sum "Si O2"
_cell_formula_units_Z 32
_cell_length_a 9.000000
_cell_length_b 30.000000
_cell_length_c 18.000000
_cell_angle_alpha 90.000000
_cell_angle_beta 40.000000
_cell_angle_gamma 90.000000
_cell_volume 3123.947783
_symmetry_space_group_name_H-M "C 2/C"
_symmetry_group_IT_number 15
_symmetry_cell_setting 'monoclinic'
loop_
_space_group_symop_operation_xyz
x,y,z
-x,y,1/2-z
-x,-y,-z
x,-y,1/2+z
1/2+x,1/2+y,z
1/2-x,1/2+y,1/2-z
1/2-x,1/2-y,-z
1/2+x,1/2-y,1/2+z
loop_
_atom_site_type_symbol
_atom_site_label
_atom_site_fract_x
_atom_site_fract_y
_atom_site_fract_z
Si Si1 0.538379 0.133609 0.481357
Si Si2 0.252145 0.494437 0.691044
Si Si3 0.370818 0.336950 0.474556
Si Si4 0.397902 0.263768 0.583176
Si Si5 0.636740 0.289205 0.631406
Si Si6 0.916125 0.063142 0.997930
Si Si7 0.710117 0.328109 0.215590
Si Si8 0.959986 0.536194 0.079256
O O1 0.341477 0.153082 0.500519
O O2 0.763250 0.163276 0.385132
O O3 0.434978 0.144123 0.603629
O O4 0.590299 0.082959 0.441854
O O5 0.370402 0.541894 0.628905
O O6 0.399026 0.458717 0.586226
O O7 0.221145 0.480714 0.788767
O O8 0.000000 0.494820 0.750000
O O9 0.311682 0.295222 0.550160
O O10 0.411639 0.383503 0.501483
O O11 0.605661 0.326978 0.337941
O O12 0.466140 0.293288 0.627584
O O13 0.640261 0.240963 0.468665
O O14 0.249368 0.221886 0.668891
O O15 0.500000 0.267034 0.750000
O O16 0.693315 0.046387 0.036693
O O17 0.500000 0.349834 0.250000
O O18 0.000000 0.500000 0.000000
#
# Coordination Sequence:
#
# PCOD9308982 Si02
#       8
#     8   8   8   8   8   8   8   8
#     4   9  21  39  55  84 116 146 193 242 283 350
#     4   9  19  39  58  85 118 152 191 245 292 344
#     4  10  20  37  63  85 109 155 200 240 288 344
#     4  10  21  36  55  85 112 152 194 232 285 350
#     4  10  21  38  54  76 122 151 178 237 291 339
#     4   9  20  39  60  84 119 153 197 245 289 348
#     4   9  19  35  58  85 116 146 192 244 286 340
#     4  10  21  37  60  86 116 153 193 240 298 350
#
# _framework density 10.243449
#
# number of rings (size 3 to 8) (size 9 to 14) (size 15 to 20)
#    0.000    2.500    0.000    0.750    1.750    7.000 
#    9.000    5.000    0.000    0.000    0.000    0.000 
#    0.000    0.000    0.000    0.000    0.000    0.000 
#
# Total GULP energy -178405.415711 kJ/mol
# GULP energy per Si atom -5575.169241 kJ/mol
# Density = 1.022013 g / cm^3
# Si number density = 10.243449 Si / 1000 Ang^3
#
#
#
# Elastic Constant Matrix: (Units=GPa)
#
#
# Indices 1 2 3 4 5 6 
#
# 1 16.7514 7.9766 12.0797 0.0000 16.4322 0.0000
# 2 7.9766 85.0672 21.1110 0.0000 22.4837 0.0000
# 3 12.0797 21.1110 96.3209 0.0000 12.7332 0.0000
# 4 0.0000 0.0000 0.0000 13.7557 0.0000 -2.6440
# 5 16.4322 22.4837 12.7332 0.0000 26.9551 0.0000
# 6 0.0000 0.0000 0.0000 -2.6440 0.0000 18.2980
#
#
#
# Elastic Compliance Matrix: (Units=1/GPa)
#
#
# Indices 1 2 3 4 5 6 
#
# 1 0.168600 0.016139 -0.009935 0.000000 -0.111550 0.000000
# 2 0.016139 0.016907 -0.002736 0.000000 -0.022649 0.000000
# 3 -0.009935 -0.002736 0.011866 0.000000 0.002733 0.000000
# 4 0.000000 0.000000 0.000000 0.074774 0.000000 0.010805
# 5 -0.111550 -0.022649 0.002733 0.000000 0.122702 0.000000
# 6 0.000000 0.000000 0.000000 0.010805 0.000000 0.056212
#
#
# Mechanical properties :
#
#
# Convention : Reuss Voigt Hill
#
# Bulk Modulus (GPa) = 4.89451 31.16381 18.02916
# Shear Modulus (GPa) = 9.76128 22.26654 16.01391
#
# Velocity S-wave (km/s) = 2.18517 3.30034 2.79886
# Velocity P-wave (km/s) = 2.95989 5.45597 4.38911
#
# Compressibility (1/GPa) = 0.20431058
#
# Stress axis : x y z
#
# Youngs Moduli (GPa) = 5.93120 59.14633 84.27282
#
# Poissons Ratio (x) = -0.95459 0.83727
# Poissons Ratio (y) = -0.09573 0.23053
# Poissons Ratio (z) = 0.05893 0.16180
#
# Static dielectric constant tensor:
#      x y z
#    x 1.765510 0.000000 0.020210 
#    y 0.000000 1.656350 0.000000 
#    z 0.020210 0.000000 1.803790 
# 
# From -- ./inp_files/194207.got.cif
#   From: 2010.05.17/outbox.ucp.g08.bks.cvg/sg15_98_cif.got.tgz:194207.got - 2010.06.11 12:40:34.
