data_PCOD9308100
_publ_section_title
;
Structure prediction by ZEFSAII (Michael W. Deem and Ramdas Pophale) SiO2 
 PCOD9308100
Probable space group: C 2/C
;
_chemical_formula_sum "Si O2"
_cell_formula_units_Z 44
_cell_length_a 7.153676
_cell_length_b 21.748746
_cell_length_c 13.337583
_cell_angle_alpha 90.000000
_cell_angle_beta 75.835723
_cell_angle_gamma 90.000000
_cell_volume 2012.020408
_symmetry_space_group_name_H-M "C 2/C"
_symmetry_group_IT_number 15
_symmetry_cell_setting 'monoclinic'
loop_
_space_group_symop_operation_xyz
x,y,z
-x,y,1/2-z
-x,-y,-z
x,-y,1/2+z
1/2+x,1/2+y,z
1/2-x,1/2+y,1/2-z
1/2-x,1/2-y,-z
1/2+x,1/2-y,1/2+z
loop_
_atom_site_type_symbol
_atom_site_label
_atom_site_fract_x
_atom_site_fract_y
_atom_site_fract_z
Si Si1 0.316953 0.714400 0.093498
Si Si2 0.360504 0.967336 0.603852
Si Si3 0.500000 0.132527 0.250000
Si Si4 0.108270 0.109117 0.993774
Si Si5 0.004952 0.336522 0.363506
Si Si6 0.852793 0.916963 0.349552
O O1 0.154541 0.679951 0.180792
O O2 0.434975 0.765879 0.138874
O O3 0.250000 0.750000 0.000000
O O4 0.462441 0.660657 0.047552
O O5 0.446473 0.915361 0.666354
O O6 0.188091 0.934907 0.567694
O O7 0.500000 0.000000 0.500000
O O8 0.256849 0.022938 0.676350
O O9 0.298489 0.145136 0.932064
O O10 0.990644 0.071736 0.925453
O O11 0.177518 0.371730 0.397374
O O12 0.000000 0.358037 0.250000
O O13 0.000000 0.888545 0.250000
#
# Coordination Sequence:
#
# PCOD9308100 Si02
#       6
#     8   8   4   8   8   8
#     4  12  28  50  77 111 160 202 265 329 387 473
#     4  12  28  50  77 111 160 202 265 329 387 473
#     4  12  32  50  82 120 158 214 268 320 400 470
#     4  12  26  49  77 112 150 203 258 323 402 456
#     4  12  26  45  76 110 148 199 257 320 397 470
#     4  12  26  45  76 110 148 199 257 320 397 470
#
# _framework density 21.868566000000001
#
# number of rings (size 3 to 8) (size 9 to 14) (size 15 to 20)
#    0.000    0.000    5.455    3.273   12.727    0.000 
#    0.000    0.000    0.000    0.000    0.000    0.000 
#    0.000    0.000    0.000    0.000    0.000    0.000 
#
# Total GULP energy -122833.144071 kJ/mol
# GULP energy per Si atom -5583.324730 kJ/mol
# Density = 2.181879 g / cm^3
# Si number density = 21.868566 Si / 1000 Ang^3
#
#
#
# Elastic Constant Matrix: (Units=GPa)
#
#
# Indices 1 2 3 4 5 6 
#
# 1 82.4814 17.9549 39.4023 0.0000 -28.4510 0.0000
# 2 17.9549 106.9419 21.1035 0.0000 -19.6402 0.0000
# 3 39.4023 21.1035 77.9942 0.0000 -18.2848 0.0000
# 4 0.0000 0.0000 0.0000 38.2531 0.0000 2.7276
# 5 -28.4510 -19.6402 -18.2848 0.0000 58.5275 0.0000
# 6 0.0000 0.0000 0.0000 2.7276 0.0000 53.9918
#
#
#
# Elastic Compliance Matrix: (Units=1/GPa)
#
#
# Indices 1 2 3 4 5 6 
#
# 1 0.017945 -0.000385 -0.007496 0.000000 0.006252 0.000000
# 2 -0.000385 0.010291 -0.001968 0.000000 0.002651 0.000000
# 3 -0.007496 -0.001968 0.017407 0.000000 0.001134 0.000000
# 4 0.000000 0.000000 0.000000 0.026236 0.000000 -0.001325
# 5 0.006252 0.002651 0.001134 0.000000 0.021369 0.000000
# 6 0.000000 0.000000 0.000000 -0.001325 0.000000 0.018588
#
#
# Mechanical properties :
#
#
# Convention : Reuss Voigt Hill
#
# Bulk Modulus (GPa) = 38.54477 47.14876 42.84677
# Shear Modulus (GPa) = 35.66751 42.75159 39.20955
#
# Velocity S-wave (km/s) = 4.04294 4.42626 4.23893
# Velocity P-wave (km/s) = 6.28154 6.90863 6.60254
#
# Compressibility (1/GPa) = 0.02594385
#
# Stress axis : x y z
#
# Youngs Moduli (GPa) = 55.72469 97.17351 57.44914
#
# Poissons Ratio (x) = 0.03746 0.43063
# Poissons Ratio (y) = 0.02148 0.11307
# Poissons Ratio (z) = 0.41770 0.19126
#
# Static dielectric constant tensor:
#      x y z
#    x 1.864560 0.000000 0.028380 
#    y 0.000000 1.807290 0.000000 
#    z 0.028380 0.000000 1.866410 
# 
# From -- ./inp_files/129373.got.cif
#   From: 2010.05.17/outbox.cif.g08.bks.cpg/sg15_65_cif.got.tgz:129373.got - 2010.06.03 18:47:42.
