data_PCOD9308952
_publ_section_title
;
Structure prediction by ZEFSAII (Michael W. Deem and Ramdas Pophale) SiO2 
 PCOD9308952
Probable space group: C 2/C
;
_chemical_formula_sum "Si O2"
_cell_formula_units_Z 20
_cell_length_a 21.000000
_cell_length_b 12.000000
_cell_length_c 24.000000
_cell_angle_alpha 90.000000
_cell_angle_beta 20.000000
_cell_angle_gamma 90.000000
_cell_volume 2068.537827
_symmetry_space_group_name_H-M "C 2/C"
_symmetry_group_IT_number 15
_symmetry_cell_setting 'monoclinic'
loop_
_space_group_symop_operation_xyz
x,y,z
-x,y,1/2-z
-x,-y,-z
x,-y,1/2+z
1/2+x,1/2+y,z
1/2-x,1/2+y,1/2-z
1/2-x,1/2-y,-z
1/2+x,1/2-y,1/2+z
loop_
_atom_site_type_symbol
_atom_site_label
_atom_site_fract_x
_atom_site_fract_y
_atom_site_fract_z
Si Si1 0.344545 0.424271 0.595958
Si Si2 0.149831 0.904226 0.176835
Si Si3 0.669860 0.892568 0.154996
Si Si4 0.982499 0.729136 0.120738
Si Si5 0.045955 0.150709 0.277568
O O1 0.500000 0.500000 0.500000
O O2 0.232180 0.505614 0.644656
O O3 0.183051 0.355265 0.761673
O O4 0.450460 0.320079 0.479631
O O5 0.077873 0.812817 0.280235
O O6 0.000000 0.906492 0.250000
O O7 0.159309 0.033214 0.191160
O O8 0.350267 0.852461 0.996838
O O9 0.500000 0.917034 0.250000
O O10 0.624524 0.775613 0.224671
O O11 0.854022 0.866761 0.967834
O O12 0.000000 0.157186 0.250000
#
# Coordination Sequence:
#
# PCOD9308952 Si02
#       5
#     8   8   8   8   8
#     4  11  26  46  66  92 128 167 213 259 320 378
#     4  10  20  36  64  96 133 165 205 258 318 368
#     4  11  23  39  65  94 129 166 215 265 314 370
#     4  10  23  43  61  93 127 163 217 252 313 391
#     4  10  21  36  59  97 131 161 217 256 318 366
#
# _framework density 9.6686650000000007
#
# number of rings (size 3 to 8) (size 9 to 14) (size 15 to 20)
#    0.000    1.600    2.000    3.000    8.400    4.800 
#    0.000    2.000    0.000    0.000    0.000    0.000 
#    0.000    0.000    0.000    0.000    0.000    0.000 
#
# Total GULP energy -111422.250866 kJ/mol
# GULP energy per Si atom -5571.112543 kJ/mol
# Density = 0.964666 g / cm^3
# Si number density = 9.668665 Si / 1000 Ang^3
#
#
#
# Elastic Constant Matrix: (Units=GPa)
#
#
# Indices 1 2 3 4 5 6 
#
# 1 50.2587 41.4989 24.3637 -0.0013 -23.4077 0.0013
# 2 41.4989 176.1406 60.4280 0.0032 -23.3063 -0.0016
# 3 24.3637 60.4280 79.2652 0.0187 -6.0870 -0.0054
# 4 -0.0013 0.0032 0.0187 53.1483 -0.0037 -7.8227
# 5 -23.4077 -23.3063 -6.0870 -0.0037 27.7218 0.0017
# 6 0.0013 -0.0016 -0.0054 -7.8227 0.0017 40.2315
#
#
#
# Elastic Compliance Matrix: (Units=1/GPa)
#
#
# Indices 1 2 3 4 5 6 
#
# 1 0.039711 -0.002768 -0.007832 0.000006 0.029485 -0.000003
# 2 -0.002768 0.008719 -0.005505 0.000002 0.003784 0.000000
# 3 -0.007832 -0.005505 0.018672 -0.000007 -0.007142 0.000002
# 4 0.000006 0.000002 -0.000007 0.019370 0.000007 0.003766
# 5 0.029485 0.003784 -0.007142 0.000007 0.062582 -0.000003
# 6 -0.000003 0.000000 0.000002 0.003766 -0.000003 0.025588
#
#
# Mechanical properties :
#
#
# Convention : Reuss Voigt Hill
#
# Bulk Modulus (GPa) = 28.65996 62.02727 45.34362
# Shear Modulus (GPa) = 22.88503 36.17857 29.53180
#
# Velocity S-wave (km/s) = 3.44388 4.33010 3.91217
# Velocity P-wave (km/s) = 5.53778 7.55949 6.62619
#
# Compressibility (1/GPa) = 0.03489188
#
# Stress axis : x y z
#
# Youngs Moduli (GPa) = 25.18164 114.69403 53.55672
#
# Poissons Ratio (x) = 0.31746 0.41944
# Poissons Ratio (y) = 0.06970 0.29485
# Poissons Ratio (z) = 0.19722 0.63144
#
# Static dielectric constant tensor:
#      x y z
#    x 1.671730 0.000000 0.024180 
#    y 0.000000 1.690740 0.000000 
#    z 0.024180 0.000000 1.740500 
# 
# From -- ./inp_files/54053.got.cif
#   From: 2010.05.17/outbox.ucp.g08.bks.cvg/sg15_28_cif.got.tgz:54053.got - 2010.06.11 12:40:34.
