data_PCOD9308617
_publ_section_title
;
Structure prediction by ZEFSAII (Michael W. Deem and Ramdas Pophale) SiO2 
 PCOD9308617
Probable space group: C 2/C
;
_chemical_formula_sum "Si O2"
_cell_formula_units_Z 30
_cell_length_a 18.000000
_cell_length_b 12.000000
_cell_length_c 24.000000
_cell_angle_alpha 90.000000
_cell_angle_beta 40.000000
_cell_angle_gamma 90.000000
_cell_volume 3332.210969
_symmetry_space_group_name_H-M "C 2/C"
_symmetry_group_IT_number 15
_symmetry_cell_setting 'monoclinic'
loop_
_space_group_symop_operation_xyz
x,y,z
-x,y,1/2-z
-x,-y,-z
x,-y,1/2+z
1/2+x,1/2+y,z
1/2-x,1/2+y,1/2-z
1/2-x,1/2-y,-z
1/2+x,1/2-y,1/2+z
loop_
_atom_site_type_symbol
_atom_site_label
_atom_site_fract_x
_atom_site_fract_y
_atom_site_fract_z
Si Si1 0.405136 0.895162 0.995587
Si Si2 0.500000 0.065611 0.750000
Si Si3 0.093663 0.346655 0.984505
Si Si4 0.579673 0.306730 0.857257
Si Si5 0.700249 0.795620 0.182194
Si Si6 0.225526 0.805565 0.177954
Si Si7 0.935068 0.387841 0.694674
Si Si8 0.710953 0.478889 0.283425
O O1 0.284657 0.842208 0.086091
O O2 0.391677 0.029410 0.998979
O O3 0.501106 0.867188 0.987880
O O4 0.464150 0.851947 0.905310
O O5 0.384861 0.141823 0.812108
O O6 0.485632 0.983095 0.705746
O O7 0.211080 0.292760 0.894248
O O8 0.037613 0.255324 0.058269
O O9 0.619053 0.266706 0.773720
O O10 0.673377 0.256330 0.846045
O O11 0.601357 0.438743 0.851075
O O12 0.772716 0.887920 0.176592
O O13 0.120811 0.716821 0.240198
O O14 0.202888 0.913707 0.229602
O O15 0.829057 0.446572 0.720618
#
# Coordination Sequence:
#
# PCOD9308617 Si02
#       8
#     8   4   8   8   8   8   8   8
#     4  10  17  30  53  81 105 129 163 210 265 315
#     4  10  22  38  52  66 100 148 180 206 244 298
#     4  10  18  29  53  82 106 131 164 209 266 312
#     4   9  17  29  48  78 105 128 163 211 266 309
#     4  10  19  33  50  73 105 140 176 213 249 299
#     4   9  17  29  51  78 102 129 163 210 262 306
#     4  10  19  34  52  72 102 138 172 206 251 308
#     4   9  16  29  51  78 107 130 161 212 264 306
#
# _framework density 9.003031
#
# number of rings (size 3 to 8) (size 9 to 14) (size 15 to 20)
#    0.000    2.400    0.000    7.200    0.000    0.533 
#    0.000    6.000    0.000    3.200    0.000    0.000 
#    0.000    0.000    0.000    0.000    0.000    0.000 
#
# Total GULP energy -167172.550494 kJ/mol
# GULP energy per Si atom -5572.418350 kJ/mol
# Density = 0.898254 g / cm^3
# Si number density = 9.003031 Si / 1000 Ang^3
#
#
#
# Elastic Constant Matrix: (Units=GPa)
#
#
# Indices 1 2 3 4 5 6 
#
# 1 34.3822 20.6973 23.1204 0.0000 -4.3638 0.0000
# 2 20.6973 78.8667 43.3733 0.0000 -9.7531 0.0000
# 3 23.1204 43.3733 126.4263 0.0000 -3.2622 0.0000
# 4 0.0000 0.0000 0.0000 34.1857 0.0000 -6.4788
# 5 -4.3638 -9.7531 -3.2622 0.0000 7.3515 0.0000
# 6 0.0000 0.0000 0.0000 -6.4788 0.0000 19.7945
#
#
#
# Elastic Compliance Matrix: (Units=1/GPa)
#
#
# Indices 1 2 3 4 5 6 
#
# 1 0.037144 -0.005731 -0.004506 0.000000 0.012446 0.000000
# 2 -0.005731 0.019496 -0.005120 0.000000 0.020192 0.000000
# 3 -0.004506 -0.005120 0.010364 0.000000 -0.004867 0.000000
# 4 0.000000 0.000000 0.000000 0.031187 0.000000 0.010207
# 5 0.012446 0.020192 -0.004867 0.000000 0.168044 0.000000
# 6 0.000000 0.000000 0.000000 0.010207 0.000000 0.053860
#
#
# Mechanical properties :
#
#
# Convention : Reuss Voigt Hill
#
# Bulk Modulus (GPa) = 27.55362 46.00636 36.77999
# Shear Modulus (GPa) = 13.77773 22.43193 18.10483
#
# Velocity S-wave (km/s) = 2.76917 3.53342 3.17438
# Velocity P-wave (km/s) = 5.05570 6.50020 5.82292
#
# Compressibility (1/GPa) = 0.03629287
#
# Stress axis : x y z
#
# Youngs Moduli (GPa) = 26.92216 51.29222 96.48341
#
# Poissons Ratio (x) = 0.29395 0.43471
# Poissons Ratio (y) = 0.15429 0.49395
# Poissons Ratio (z) = 0.12130 0.26259
#
# Static dielectric constant tensor:
#      x y z
#    x 1.598260 0.000000 0.017410 
#    y 0.000000 1.653460 0.000000 
#    z 0.017410 0.000000 1.645570 
# 
# From -- ./inp_files/277256.got.cif
#   From: 2010.05.17/outbox.ucp.g08.bks.cvg/sg15_139_cif.got.tgz:277256.got - 2010.06.11 12:40:34.
