data_PCOD9308837
_publ_section_title
;
Structure prediction by ZEFSAII (Michael W. Deem and Ramdas Pophale) SiO2 
 PCOD9308837
Probable space group: C 2/C
;
_chemical_formula_sum "Si O2"
_cell_formula_units_Z 32
_cell_length_a 24.000000
_cell_length_b 9.000000
_cell_length_c 30.000000
_cell_angle_alpha 90.000000
_cell_angle_beta 30.000000
_cell_angle_gamma 90.000000
_cell_volume 3240.000000
_symmetry_space_group_name_H-M "C 2/C"
_symmetry_group_IT_number 15
_symmetry_cell_setting 'monoclinic'
loop_
_space_group_symop_operation_xyz
x,y,z
-x,y,1/2-z
-x,-y,-z
x,-y,1/2+z
1/2+x,1/2+y,z
1/2-x,1/2+y,1/2-z
1/2-x,1/2-y,-z
1/2+x,1/2-y,1/2+z
loop_
_atom_site_type_symbol
_atom_site_label
_atom_site_fract_x
_atom_site_fract_y
_atom_site_fract_z
Si Si1 0.672627 0.227309 0.488511
Si Si2 0.918163 0.691639 0.668121
Si Si3 0.303353 0.196278 0.653554
Si Si4 0.075681 0.633990 0.318425
Si Si5 0.422228 0.262249 0.348525
Si Si6 0.750684 0.505352 0.491045
Si Si7 0.980335 0.658764 0.039313
Si Si8 0.251261 0.631028 0.339829
O O1 0.542153 0.232117 0.566975
O O2 0.706070 0.385309 0.486344
O O3 0.688294 0.097474 0.514406
O O4 0.743911 0.180325 0.396050
O O5 0.845339 0.661143 0.674433
O O6 0.924122 0.540398 0.691970
O O7 0.859656 0.815108 0.738654
O O8 0.201619 0.307885 0.728723
O O9 0.412284 0.251017 0.550970
O O10 0.261876 0.045738 0.658087
O O11 0.003480 0.725108 0.333388
O O12 0.025821 0.646277 0.403123
O O13 0.500000 0.276133 0.250000
O O14 0.346996 0.404312 0.415150
O O15 0.333601 0.124293 0.410157
O O16 0.857983 0.704903 0.107772
O O17 0.000000 0.500000 0.000000
#
# Coordination Sequence:
#
# PCOD9308837 Si02
#       8
#     8   8   8   8   8   8   8   8
#     4  11  24  44  71  95 130 178 221 283 328 385
#     4  12  21  41  63 100 136 171 218 275 330 395
#     4  11  22  39  65  99 134 176 220 260 335 414
#     4  12  24  41  66  98 134 176 216 276 330 398
#     4  11  27  47  70  97 132 174 223 279 337 392
#     4  10  26  48  68  97 128 171 235 276 329 394
#     4  10  19  40  64  92 131 176 214 256 332 401
#     4  11  23  38  67  95 134 176 219 266 334 398
#
# _framework density 9.8765429999999999
#
# number of rings (size 3 to 8) (size 9 to 14) (size 15 to 20)
#    0.000    1.000    6.250    0.750    5.250    1.000 
#    0.000    3.125    0.000    0.000    0.000    0.000 
#    0.000    0.000    0.000    0.000    0.000    0.000 
#
# Total GULP energy -178707.408411 kJ/mol
# GULP energy per Si atom -5584.606513 kJ/mol
# Density = 0.985406 g / cm^3
# Si number density = 9.876543 Si / 1000 Ang^3
#
#
#
# Elastic Constant Matrix: (Units=GPa)
#
#
# Indices 1 2 3 4 5 6 
#
# 1 72.3652 10.2712 -1.5091 0.0002 7.6708 -0.0004
# 2 10.2712 38.4334 -19.2201 -0.0003 1.5337 0.0015
# 3 -1.5091 -19.2201 50.4907 -0.0003 10.0818 0.0020
# 4 0.0002 -0.0003 -0.0003 31.8108 0.0001 -0.6232
# 5 7.6708 1.5337 10.0818 0.0001 39.2430 0.0005
# 6 -0.0004 0.0015 0.0020 -0.6232 0.0005 21.8752
#
#
#
# Elastic Compliance Matrix: (Units=1/GPa)
#
#
# Indices 1 2 3 4 5 6 
#
# 1 0.014662 -0.004130 -0.000626 0.000000 -0.002544 0.000001
# 2 -0.004130 0.034121 0.013672 0.000000 -0.004039 -0.000004
# 3 -0.000626 0.013672 0.026429 0.000000 -0.007202 -0.000003
# 4 0.000000 0.000000 0.000000 0.031453 0.000000 0.000896
# 5 -0.002544 -0.004039 -0.007202 0.000000 0.027988 0.000000
# 6 0.000001 -0.000004 -0.000003 0.000896 0.000000 0.045739
#
#
# Mechanical properties :
#
#
# Convention : Reuss Voigt Hill
#
# Bulk Modulus (GPa) = 10.74762 15.59703 13.17233
# Shear Modulus (GPa) = 25.82981 30.03562 27.93271
#
# Velocity S-wave (km/s) = 3.62005 3.90366 3.76452
# Velocity P-wave (km/s) = 4.78809 5.31330 5.05752
#
# Compressibility (1/GPa) = 0.09304382
#
# Stress axis : x y z
#
# Youngs Moduli (GPa) = 68.20561 29.30747 37.83676
#
# Poissons Ratio (x) = 0.12103 0.02368
# Poissons Ratio (y) = 0.28167 -0.51729
# Poissons Ratio (z) = 0.04269 -0.40068
#
# Static dielectric constant tensor:
#      x y z
#    x 1.713420 0.000000 -0.029990 
#    y 0.000000 1.696420 0.000000 
#    z -0.029990 0.000000 1.701760 
# 
# From -- ./inp_files/318600.got.cif
#   From: 2010.05.17/outbox.ucp.g08.bks.cvg/sg15_160_cif.got.tgz:318600.got - 2010.06.11 12:40:34.
