data_PCOD9308801
_publ_section_title
;
Structure prediction by ZEFSAII (Michael W. Deem and Ramdas Pophale) SiO2 
 PCOD9308801
Probable space group: C 2/C
;
_chemical_formula_sum "Si O2"
_cell_formula_units_Z 28
_cell_length_a 18.000000
_cell_length_b 27.000000
_cell_length_c 9.000000
_cell_angle_alpha 90.000000
_cell_angle_beta 140.000000
_cell_angle_gamma 90.000000
_cell_volume 2811.553005
_symmetry_space_group_name_H-M "C 2/C"
_symmetry_group_IT_number 15
_symmetry_cell_setting 'monoclinic'
loop_
_space_group_symop_operation_xyz
x,y,z
-x,y,1/2-z
-x,-y,-z
x,-y,1/2+z
1/2+x,1/2+y,z
1/2-x,1/2+y,1/2-z
1/2-x,1/2-y,-z
1/2+x,1/2-y,1/2+z
loop_
_atom_site_type_symbol
_atom_site_label
_atom_site_fract_x
_atom_site_fract_y
_atom_site_fract_z
Si Si1 0.333598 0.650725 0.793805
Si Si2 0.068597 0.816369 0.514061
Si Si3 0.504712 0.896284 0.941129
Si Si4 0.234485 0.105927 0.129060
Si Si5 0.253694 0.562397 0.857443
Si Si6 0.133891 0.018076 0.170820
Si Si7 0.603272 0.794110 0.029383
O O1 0.467008 0.667484 0.974365
O O2 0.303758 0.621373 0.595555
O O3 0.311985 0.614630 0.900483
O O4 0.229011 0.691183 0.652689
O O5 0.182539 0.850463 0.658024
O O6 0.107487 0.760169 0.607268
O O7 0.000000 0.817498 0.250000
O O8 0.500000 0.900479 0.750000
O O9 0.376209 0.901957 0.822045
O O10 0.613802 0.931253 0.154785
O O11 0.555391 0.840958 0.049620
O O12 0.161639 0.059296 0.084280
O O13 0.291457 0.527480 0.778072
O O14 0.310943 0.540388 0.094093
O O15 0.000000 0.000000 0.000000
O O16 0.500000 0.789784 0.750000
#
# Coordination Sequence:
#
# PCOD9308801 Si02
#       7
#     8   8   8   8   8   8   8
#     4  10  19  37  60  91 131 172 215 273 320 381
#     4   9  20  28  55  95 129 165 222 265 321 376
#     4  10  20  40  64  91 134 171 212 270 320 382
#     4  11  21  39  61  92 131 171 214 269 326 378
#     4  11  24  43  66  93 124 168 215 267 331 392
#     4  12  27  45  68  94 125 164 215 272 331 397
#     4   9  16  30  55  92 128 167 213 270 322 362
#
# _framework density 9.9589090000000002
#
# number of rings (size 3 to 8) (size 9 to 14) (size 15 to 20)
#    0.000    1.714    4.286    2.143    2.000    5.143 
#    0.000    0.000    0.000    3.429    7.429    0.000 
#    0.000    0.000    0.000    0.000    0.000    0.000 
#
# Total GULP energy -155985.036315 kJ/mol
# GULP energy per Si atom -5570.894154 kJ/mol
# Density = 0.993624 g / cm^3
# Si number density = 9.958909 Si / 1000 Ang^3
#
#
#
# Elastic Constant Matrix: (Units=GPa)
#
#
# Indices 1 2 3 4 5 6 
#
# 1 169.3090 55.2581 54.6757 0.0000 49.8113 0.0000
# 2 55.2581 109.2583 35.0484 0.0000 23.2403 0.0000
# 3 54.6757 35.0484 81.3615 0.0000 26.7216 0.0000
# 4 0.0000 0.0000 0.0000 22.2058 0.0000 14.8601
# 5 49.8113 23.2403 26.7216 0.0000 42.9729 0.0000
# 6 0.0000 0.0000 0.0000 14.8601 0.0000 38.8638
#
#
#
# Elastic Compliance Matrix: (Units=1/GPa)
#
#
# Indices 1 2 3 4 5 6 
#
# 1 0.010193 -0.002350 -0.002984 0.000000 -0.008689 0.000000
# 2 -0.002350 0.011636 -0.002841 0.000000 -0.001802 0.000000
# 3 -0.002984 -0.002841 0.017441 0.000000 -0.005850 0.000000
# 4 0.000000 0.000000 0.000000 0.060519 0.000000 -0.023140
# 5 -0.008689 -0.001802 -0.005850 0.000000 0.037954 0.000000
# 6 0.000000 0.000000 0.000000 -0.023140 0.000000 0.034579
#
#
# Mechanical properties :
#
#
# Convention : Reuss Voigt Hill
#
# Bulk Modulus (GPa) = 43.62993 72.21035 57.92014
# Shear Modulus (GPa) = 25.46954 35.13830 30.30392
#
# Velocity S-wave (km/s) = 3.57981 4.20475 3.90481
# Velocity P-wave (km/s) = 6.24814 7.73990 7.03368
#
# Compressibility (1/GPa) = 0.02292005
#
# Stress axis : x y z
#
# Youngs Moduli (GPa) = 98.10421 85.94083 57.33485
#
# Poissons Ratio (x) = 0.20195 0.17109
# Poissons Ratio (y) = 0.23053 0.16291
# Poissons Ratio (z) = 0.29274 0.24419
#
# Static dielectric constant tensor:
#      x y z
#    x 1.692530 0.000000 -0.006920 
#    y 0.000000 1.804350 0.000000 
#    z -0.006920 0.000000 1.727600 
# 
# From -- ./inp_files/52367.got.cif
#   From: 2010.05.17/outbox.ucp.g08.bks.cvg/sg15_27_cif.got.tgz:52367.got - 2010.06.11 12:40:34.
