data_PCOD9308349
_publ_section_title
;
Structure prediction by ZEFSAII (Michael W. Deem and Ramdas Pophale) SiO2 
 PCOD9308349
Probable space group: C 2/C
;
_chemical_formula_sum "Si O2"
_cell_formula_units_Z 32
_cell_length_a 18.400187
_cell_length_b 4.798909
_cell_length_c 20.426951
_cell_angle_alpha 90.000000
_cell_angle_beta 138.556900
_cell_angle_gamma 90.000000
_cell_volume 1193.836609
_symmetry_space_group_name_H-M "C 2/C"
_symmetry_group_IT_number 15
_symmetry_cell_setting 'monoclinic'
loop_
_space_group_symop_operation_xyz
x,y,z
-x,y,1/2-z
-x,-y,-z
x,-y,1/2+z
1/2+x,1/2+y,z
1/2-x,1/2+y,1/2-z
1/2-x,1/2-y,-z
1/2+x,1/2-y,1/2+z
loop_
_atom_site_type_symbol
_atom_site_label
_atom_site_fract_x
_atom_site_fract_y
_atom_site_fract_z
Si Si1 0.207767 0.254498 0.631991
Si Si2 0.087493 0.797721 0.596096
Si Si3 0.322895 0.496446 0.025428
Si Si4 0.540100 0.718996 0.209121
O O1 0.331568 0.347356 0.698641
O O2 0.132472 0.526057 0.589191
O O3 0.185536 0.027754 0.675120
O O4 0.176816 0.050576 0.551058
O O5 0.041218 0.674116 0.634139
O O6 0.000000 0.000000 0.500000
O O7 0.445325 0.486349 0.137242
O O8 0.250000 0.250000 0.000000
O O9 0.250000 0.750000 0.000000
O O10 0.500000 0.865645 0.250000
#
# Coordination Sequence:
#
# PCOD9308349 Si02
#       4
#     8   8   8   8
#     4  12  27  53  78 116 159 212 273 335 403 493
#     4  12  27  51  81 112 160 214 273 337 411 483
#     4  12  27  50  78 118 162 208 267 339 413 486
#     4  12  28  49  80 118 160 215 272 340 411 484
#
# _framework density 26.804338999999999
#
# number of rings (size 3 to 8) (size 9 to 14) (size 15 to 20)
#    0.000    0.000    5.000    3.750    0.000    2.000 
#    0.000    0.000    0.000    0.000    0.000    0.000 
#    0.000    0.000    0.000    0.000    0.000    0.000 
#
# Total GULP energy -89239.701331 kJ/mol
# GULP energy per Si atom -5577.481333 kJ/mol
# Density = 2.674333 g / cm^3
# Si number density = 26.804339 Si / 1000 Ang^3
#
#
#
# Elastic Constant Matrix: (Units=GPa)
#
#
# Indices 1 2 3 4 5 6 
#
# 1 237.4029 81.3696 67.9775 0.0006 18.3843 0.0015
# 2 81.3696 204.5678 41.5856 0.0039 11.0897 0.0056
# 3 67.9775 41.5856 154.0920 0.0001 18.5756 0.0002
# 4 0.0006 0.0039 0.0001 20.2693 0.0003 0.8391
# 5 18.3843 11.0897 18.5756 0.0003 54.8606 0.0003
# 6 0.0015 0.0056 0.0002 0.8391 0.0003 38.1989
#
#
#
# Elastic Compliance Matrix: (Units=1/GPa)
#
#
# Indices 1 2 3 4 5 6 
#
# 1 0.005388 -0.001730 -0.001809 0.000000 -0.000844 0.000000
# 2 -0.001730 0.005746 -0.000748 -0.000001 -0.000329 -0.000001
# 3 -0.001809 -0.000748 0.007713 0.000000 -0.001854 0.000000
# 4 0.000000 -0.000001 0.000000 0.049381 0.000000 -0.001085
# 5 -0.000844 -0.000329 -0.001854 0.000000 0.019205 0.000000
# 6 0.000000 -0.000001 0.000000 -0.001085 0.000000 0.026203
#
#
# Mechanical properties :
#
#
# Convention : Reuss Voigt Hill
#
# Bulk Modulus (GPa) = 97.32702 108.65867 102.99285
# Shear Modulus (GPa) = 39.79834 49.67444 44.73639
#
# Velocity S-wave (km/s) = 3.85745 4.30958 4.08977
# Velocity P-wave (km/s) = 7.49860 8.08635 7.79801
#
# Compressibility (1/GPa) = 0.01027464
#
# Stress axis : x y z
#
# Youngs Moduli (GPa) = 185.58566 174.02422 129.65368
#
# Poissons Ratio (x) = 0.30105 0.23448
# Poissons Ratio (y) = 0.32105 0.09699
# Poissons Ratio (z) = 0.33563 0.13018
#
# Static dielectric constant tensor:
#      x y z
#    x 2.388390 0.000000 -0.218670 
#    y 0.000000 2.078140 -0.000010 
#    z -0.218670 -0.000010 2.586410 
# 
# From -- ./inp_files/275771.got.cif
#   From: 2010.05.17/outbox.cif.g08.bks.cpg/sg15_138_cif.got.tgz:275771.got - 2010.06.03 18:47:42.
