data_PCOD9308927
_publ_section_title
;
Structure prediction by ZEFSAII (Michael W. Deem and Ramdas Pophale) SiO2 
 PCOD9308927
Probable space group: C 2/C
;
_chemical_formula_sum "Si O2"
_cell_formula_units_Z 32
_cell_length_a 12.000000
_cell_length_b 27.000000
_cell_length_c 15.000000
_cell_angle_alpha 90.000000
_cell_angle_beta 40.000000
_cell_angle_gamma 90.000000
_cell_volume 3123.947783
_symmetry_space_group_name_H-M "C 2/C"
_symmetry_group_IT_number 15
_symmetry_cell_setting 'monoclinic'
loop_
_space_group_symop_operation_xyz
x,y,z
-x,y,1/2-z
-x,-y,-z
x,-y,1/2+z
1/2+x,1/2+y,z
1/2-x,1/2+y,1/2-z
1/2-x,1/2-y,-z
1/2+x,1/2-y,1/2+z
loop_
_atom_site_type_symbol
_atom_site_label
_atom_site_fract_x
_atom_site_fract_y
_atom_site_fract_z
Si Si1 0.360549 0.702027 0.262312
Si Si2 0.391691 0.135833 0.542167
Si Si3 0.746450 0.389786 0.761236
Si Si4 0.649740 0.897901 0.230270
Si Si5 0.522338 0.243700 0.990154
Si Si6 0.875865 0.932733 0.396442
Si Si7 0.204424 0.990862 0.880795
Si Si8 0.500815 0.349928 0.444798
O O1 0.500000 0.715392 0.250000
O O2 0.361284 0.642292 0.245525
O O3 0.410972 0.730342 0.140584
O O4 0.168976 0.720608 0.405364
O O5 0.562641 0.126070 0.380240
O O6 0.410250 0.118296 0.633686
O O7 0.361575 0.195388 0.558122
O O8 0.256934 0.100162 0.577115
O O9 0.742192 0.448388 0.783681
O O10 0.672135 0.365230 0.896344
O O11 0.500000 0.887805 0.250000
O O12 0.824973 0.865218 0.107821
O O13 0.699928 0.956639 0.192552
O O14 0.506477 0.291067 0.066768
O O15 0.780498 0.966604 0.529156
O O16 0.000000 0.961143 0.250000
O O17 0.995981 0.890910 0.370351
O O18 0.000000 0.000000 0.000000
#
# Coordination Sequence:
#
# PCOD9308927 Si02
#       8
#     8   8   8   8   8   8   8   8
#     4  10  20  36  59  91 125 170 220 263 326 394
#     4  11  24  43  65 101 132 165 233 277 325 395
#     4   9  22  40  61  91 131 163 212 280 320 395
#     4  12  26  44  66 101 136 176 224 279 332 398
#     4  10  22  38  63  91 129 176 209 275 332 390
#     4  11  22  42  71  97 131 173 227 284 326 404
#     4  11  22  46  67  92 130 182 216 269 351 390
#     4  10  21  43  67  93 137 173 219 270 336 396
#
# _framework density 10.243449
#
# number of rings (size 3 to 8) (size 9 to 14) (size 15 to 20)
#    0.000    1.500    3.750    1.125    1.750    8.500 
#    2.250    0.000    0.000    0.000    0.000    0.000 
#    0.000    0.000    0.000    0.000    0.000    0.000 
#
# Total GULP energy -178289.548552 kJ/mol
# GULP energy per Si atom -5571.548392 kJ/mol
# Density = 1.022013 g / cm^3
# Si number density = 10.243449 Si / 1000 Ang^3
#
#
#
# Elastic Constant Matrix: (Units=GPa)
#
#
# Indices 1 2 3 4 5 6 
#
# 1 56.8875 8.0263 20.7549 0.0000 1.3049 0.0000
# 2 8.0263 127.9662 23.2969 0.0000 9.4587 0.0000
# 3 20.7549 23.2969 97.4763 0.0000 -9.2778 0.0000
# 4 0.0000 0.0000 0.0000 13.5267 0.0000 -0.6540
# 5 1.3049 9.4587 -9.2778 0.0000 10.0608 0.0000
# 6 0.0000 0.0000 0.0000 -0.6540 0.0000 24.7394
#
#
#
# Elastic Compliance Matrix: (Units=1/GPa)
#
#
# Indices 1 2 3 4 5 6 
#
# 1 0.019499 0.000201 -0.004887 0.000000 -0.007225 0.000000
# 2 0.000201 0.009301 -0.003399 0.000000 -0.011904 0.000000
# 3 -0.004887 -0.003399 0.013677 0.000000 0.016442 0.000000
# 4 0.000000 0.000000 0.000000 0.074022 0.000000 0.001957
# 5 -0.007225 -0.011904 0.016442 0.000000 0.126687 0.000000
# 6 0.000000 0.000000 0.000000 0.001957 0.000000 0.040473
#
#
# Mechanical properties :
#
#
# Convention : Reuss Voigt Hill
#
# Bulk Modulus (GPa) = 38.01440 42.94292 40.47866
# Shear Modulus (GPa) = 16.20229 25.01549 20.60889
#
# Velocity S-wave (km/s) = 2.81528 3.49814 3.17512
# Velocity P-wave (km/s) = 5.40032 6.10923 5.76568
#
# Compressibility (1/GPa) = 0.02630582
#
# Stress axis : x y z
#
# Youngs Moduli (GPa) = 51.28442 107.51969 73.11673
#
# Poissons Ratio (x) = -0.02159 0.35736
# Poissons Ratio (y) = -0.01030 0.24850
# Poissons Ratio (z) = 0.25065 0.36542
#
# Static dielectric constant tensor:
#      x y z
#    x 1.772670 0.000000 0.011440 
#    y 0.000000 1.761230 0.000000 
#    z 0.011440 0.000000 1.770490 
# 
# From -- ./inp_files/148746.got.cif
#   From: 2010.05.17/outbox.ucp.g08.bks.cvg/sg15_75_cif.got.tgz:148746.got - 2010.06.11 12:40:34.
