data_PCOD9308001
_publ_section_title
;
Structure prediction by ZEFSAII (Michael W. Deem and Ramdas Pophale) SiO2 
 PCOD9308001
Probable space group: C 2/C
;
_chemical_formula_sum "Si O2"
_cell_formula_units_Z 40
_cell_length_a 16.713686
_cell_length_b 11.825215
_cell_length_c 7.893827
_cell_angle_alpha 90.000000
_cell_angle_beta 97.882926
_cell_angle_gamma 90.000000
_cell_volume 1545.416186
_symmetry_space_group_name_H-M "C 2/C"
_symmetry_group_IT_number 15
_symmetry_cell_setting 'monoclinic'
loop_
_space_group_symop_operation_xyz
x,y,z
-x,y,1/2-z
-x,-y,-z
x,-y,1/2+z
1/2+x,1/2+y,z
1/2-x,1/2+y,1/2-z
1/2-x,1/2-y,-z
1/2+x,1/2-y,1/2+z
loop_
_atom_site_type_symbol
_atom_site_label
_atom_site_fract_x
_atom_site_fract_y
_atom_site_fract_z
Si Si1 0.603695 0.631800 0.606665
Si Si2 0.960166 0.777632 0.922797
Si Si3 0.823495 0.906068 0.004099
Si Si4 0.675559 0.838356 0.471414
Si Si5 0.347052 0.910496 0.423039
O O1 0.507610 0.627693 0.549014
O O2 0.655058 0.537432 0.521439
O O3 0.639832 0.627412 0.803607
O O4 0.608850 0.757284 0.531844
O O5 0.930141 0.656421 0.990580
O O6 0.000000 0.767553 0.750000
O O7 0.872391 0.838983 0.876246
O O8 0.729232 0.876125 0.982361
O O9 0.750000 0.750000 0.500000
O O10 0.667025 0.877189 0.275840
O O11 0.663325 0.954594 0.569838
#
# Coordination Sequence:
#
# PCOD9308001 Si02
#       5
#     8   8   8   8   8
#     4  12  26  49  77 115 160 206 269 324 393 466
#     4  12  27  48  73 116 162 205 259 332 396 461
#     4  12  25  47  82 113 154 215 267 323 391 474
#     4  12  26  49  79 115 156 204 262 325 391 475
#     4  12  27  48  81 115 156 204 267 327 396 474
#
# _framework density 25.882995000000001
#
# number of rings (size 3 to 8) (size 9 to 14) (size 15 to 20)
#    0.000    0.000    6.000    3.000    2.800    2.400 
#    0.000    0.000    0.000    0.000    0.000    0.000 
#    0.000    0.000    0.000    0.000    0.000    0.000 
#
# Total GULP energy -111699.224650 kJ/mol
# GULP energy per Si atom -5584.961233 kJ/mol
# Density = 2.582408 g / cm^3
# Si number density = 25.882995 Si / 1000 Ang^3
#
#
#
# Elastic Constant Matrix: (Units=GPa)
#
#
# Indices 1 2 3 4 5 6 
#
# 1 75.4189 5.1101 52.6012 0.0000 -21.2136 0.0000
# 2 5.1101 183.4798 56.5272 0.0000 -7.1818 0.0000
# 3 52.6012 56.5272 86.9160 0.0000 -6.4699 0.0000
# 4 0.0000 0.0000 0.0000 48.9508 0.0000 -12.9361
# 5 -21.2136 -7.1818 -6.4699 0.0000 45.1930 0.0000
# 6 0.0000 0.0000 0.0000 -12.9361 0.0000 58.4462
#
#
#
# Elastic Compliance Matrix: (Units=1/GPa)
#
#
# Indices 1 2 3 4 5 6 
#
# 1 0.032630 0.006737 -0.023156 0.000000 0.013072 0.000000
# 2 0.006737 0.008216 -0.009186 0.000000 0.003153 0.000000
# 3 -0.023156 -0.009186 0.030905 0.000000 -0.007905 0.000000
# 4 0.000000 0.000000 0.000000 0.021698 0.000000 0.004802
# 5 0.013072 0.003153 -0.007905 0.000000 0.027633 0.000000
# 6 0.000000 0.000000 0.000000 0.004802 0.000000 0.018173
#
#
# Mechanical properties :
#
#
# Convention : Reuss Voigt Hill
#
# Bulk Modulus (GPa) = 48.68286 63.81017 56.24651
# Shear Modulus (GPa) = 25.34088 45.95642 35.64865
#
# Velocity S-wave (km/s) = 3.13238 4.21829 3.71523
# Velocity P-wave (km/s) = 5.65085 6.95932 6.33894
#
# Compressibility (1/GPa) = 0.02054111
#
# Stress axis : x y z
#
# Youngs Moduli (GPa) = 30.64701 121.71440 32.35749
#
# Poissons Ratio (x) = -0.81996 0.74926
# Poissons Ratio (y) = -0.20646 0.29723
# Poissons Ratio (z) = 0.70965 1.11804
#
# Static dielectric constant tensor:
#      x y z
#    x 3.043390 0.000000 0.206260 
#    y 0.000000 2.160820 0.000000 
#    z 0.206260 0.000000 2.025700 
# 
# From -- ./inp_files/54162.got.cif
#   From: 2010.05.17/outbox.cif.g08.bks.cpg/sg15_28_cif.got.tgz:54162.got - 2010.06.03 18:47:42.
