data_PCOD9308845
_publ_section_title
;
Structure prediction by ZEFSAII (Michael W. Deem and Ramdas Pophale) SiO2 
 PCOD9308845
Probable space group: C 2/C
;
_chemical_formula_sum "Si O2"
_cell_formula_units_Z 28
_cell_length_a 12.000000
_cell_length_b 30.000000
_cell_length_c 9.000000
_cell_angle_alpha 90.000000
_cell_angle_beta 60.000000
_cell_angle_gamma 90.000000
_cell_volume 2805.922308
_symmetry_space_group_name_H-M "C 2/C"
_symmetry_group_IT_number 15
_symmetry_cell_setting 'monoclinic'
loop_
_space_group_symop_operation_xyz
x,y,z
-x,y,1/2-z
-x,-y,-z
x,-y,1/2+z
1/2+x,1/2+y,z
1/2-x,1/2+y,1/2-z
1/2-x,1/2-y,-z
1/2+x,1/2-y,1/2+z
loop_
_atom_site_type_symbol
_atom_site_label
_atom_site_fract_x
_atom_site_fract_y
_atom_site_fract_z
Si Si1 0.045684 0.955105 0.387841
Si Si2 0.980996 0.292908 0.087142
Si Si3 0.888168 0.611827 0.002640
Si Si4 0.673751 0.087293 0.796434
Si Si5 0.712164 0.328266 0.160945
Si Si6 0.896773 0.110712 0.192892
Si Si7 0.536374 0.694674 0.503983
O O1 0.958229 0.914933 0.512306
O O2 0.000000 0.959472 0.250000
O O3 0.202062 0.946286 0.298696
O O4 0.000000 0.000000 0.500000
O O5 0.832337 0.300729 0.142458
O O6 0.008087 0.245038 0.996739
O O7 0.000000 0.288225 0.250000
O O8 0.062971 0.337590 0.992185
O O9 0.846183 0.608707 0.855851
O O10 0.018904 0.581231 0.938357
O O11 0.754026 0.600349 0.175752
O O12 0.728522 0.122254 0.880996
O O13 0.593388 0.328996 0.353189
O O14 0.647358 0.309062 0.055659
O O15 0.909102 0.164216 0.164335
O O16 0.000000 0.097369 0.250000
#
# Coordination Sequence:
#
# PCOD9308845 Si02
#       7
#     8   8   8   8   8   8   8
#     4  12  26  46  75 105 136 170 215 278 338 414
#     4  11  22  37  56  88 128 179 232 277 344 384
#     4  10  21  40  70  96 133 182 223 285 330 412
#     4  10  19  43  69  93 133 182 216 272 352 396
#     4  10  20  40  55  81 124 180 219 276 339 394
#     4  12  23  41  68 104 130 174 233 277 338 405
#     4  11  23  34  59  86 131 173 231 286 327 395
#
# _framework density 9.9788940000000004
#
# number of rings (size 3 to 8) (size 9 to 14) (size 15 to 20)
#    0.000    1.143    5.714    2.143    2.000    0.571 
#    0.000    6.429    0.000    0.000    0.000    0.000 
#    0.000    0.000    0.000    0.000    0.000    0.000 
#
# Total GULP energy -155947.918475 kJ/mol
# GULP energy per Si atom -5569.568517 kJ/mol
# Density = 0.995618 g / cm^3
# Si number density = 9.978894 Si / 1000 Ang^3
#
#
#
# Elastic Constant Matrix: (Units=GPa)
#
#
# Indices 1 2 3 4 5 6 
#
# 1 164.1792 35.8717 50.2292 0.0000 -28.1862 0.0000
# 2 35.8717 76.9895 23.6802 0.0000 -8.6929 0.0000
# 3 50.2292 23.6802 78.5932 0.0000 -19.8789 0.0000
# 4 0.0000 0.0000 0.0000 25.3899 0.0000 -3.1883
# 5 -28.1862 -8.6929 -19.8789 0.0000 39.9586 0.0000
# 6 0.0000 0.0000 0.0000 -3.1883 0.0000 23.4155
#
#
#
# Elastic Compliance Matrix: (Units=1/GPa)
#
#
# Indices 1 2 3 4 5 6 
#
# 1 0.008352 -0.002343 -0.003741 0.000000 0.003520 0.000000
# 2 -0.002343 0.015016 -0.002995 0.000000 0.000124 0.000000
# 3 -0.003741 -0.002995 0.017371 0.000000 0.005351 0.000000
# 4 0.000000 0.000000 0.000000 0.040071 0.000000 0.005456
# 5 0.003520 0.000124 0.005351 0.000000 0.030198 0.000000
# 6 0.000000 0.000000 0.000000 0.005456 0.000000 0.043450
#
#
# Mechanical properties :
#
#
# Convention : Reuss Voigt Hill
#
# Bulk Modulus (GPa) = 44.28972 59.92489 52.10730
# Shear Modulus (GPa) = 27.75570 31.75152 29.75361
#
# Velocity S-wave (km/s) = 3.73328 3.99298 3.86531
# Velocity P-wave (km/s) = 6.38929 7.16586 6.78869
#
# Compressibility (1/GPa) = 0.02257860
#
# Stress axis : x y z
#
# Youngs Moduli (GPa) = 119.73413 66.59635 57.56775
#
# Poissons Ratio (x) = 0.15605 0.21538
# Poissons Ratio (y) = 0.28056 0.17244
# Poissons Ratio (z) = 0.44796 0.19949
#
# Static dielectric constant tensor:
#      x y z
#    x 1.688760 0.000000 0.018090 
#    y 0.000000 1.760840 0.000000 
#    z 0.018090 0.000000 1.776330 
# 
# From -- ./inp_files/35562.got.cif
#   From: 2010.05.17/outbox.ucp.g08.bks.cvg/sg15_18_cif.got.tgz:35562.got - 2010.06.11 12:40:34.
