data_PCOD9308696
_publ_section_title
;
Structure prediction by ZEFSAII (Michael W. Deem and Ramdas Pophale) SiO2 
 PCOD9308696
Probable space group: C 2/C
;
_chemical_formula_sum "Si O2"
_cell_formula_units_Z 28
_cell_length_a 18.000000
_cell_length_b 9.000000
_cell_length_c 18.000000
_cell_angle_alpha 90.000000
_cell_angle_beta 110.000000
_cell_angle_gamma 90.000000
_cell_volume 2740.143682
_symmetry_space_group_name_H-M "C 2/C"
_symmetry_group_IT_number 15
_symmetry_cell_setting 'monoclinic'
loop_
_space_group_symop_operation_xyz
x,y,z
-x,y,1/2-z
-x,-y,-z
x,-y,1/2+z
1/2+x,1/2+y,z
1/2-x,1/2+y,1/2-z
1/2-x,1/2-y,-z
1/2+x,1/2-y,1/2+z
loop_
_atom_site_type_symbol
_atom_site_label
_atom_site_fract_x
_atom_site_fract_y
_atom_site_fract_z
Si Si1 0.660207 0.998103 0.037811
Si Si2 0.442725 0.996306 0.140206
Si Si3 0.068615 0.280586 0.607481
Si Si4 0.408853 0.252578 0.225137
Si Si5 0.011423 0.840778 0.839648
Si Si6 0.576803 0.686060 0.040819
Si Si7 0.655830 0.455165 0.428023
O O1 0.630792 0.135469 0.077244
O O2 0.617126 0.850395 0.056876
O O3 0.753723 0.990393 0.058847
O O4 0.625369 0.013987 0.943792
O O5 0.508619 0.101432 0.124985
O O6 0.410120 0.078188 0.202430
O O7 0.478330 0.835442 0.161331
O O8 0.111114 0.214045 0.695739
O O9 0.007101 0.190913 0.533802
O O10 0.500000 0.299128 0.250000
O O11 0.365390 0.331547 0.141965
O O12 0.000000 0.889536 0.750000
O O13 0.946340 0.867123 0.883506
O O14 0.093652 0.913425 0.893359
O O15 0.636456 0.599493 0.005471
#
# Coordination Sequence:
#
# PCOD9308696 Si02
#       7
#     8   8   8   8   8   8   8
#     4  11  21  40  66  96 127 160 220 263 308 374
#     4  10  19  38  65  90 116 174 222 255 295 380
#     4  10  18  38  69  88 119 169 227 248 292 386
#     4  10  19  37  66  90 121 170 223 252 301 380
#     4  12  25  41  65  94 132 161 214 265 317 371
#     4  11  21  42  70  88 117 180 216 243 310 392
#     4  12  25  40  62  99 134 163 199 274 328 362
#
# _framework density 10.218442
#
# number of rings (size 3 to 8) (size 9 to 14) (size 15 to 20)
#    0.000    1.143    7.143    3.429    0.000    0.571 
#    2.571    0.000    0.000    0.000    0.000    0.000 
#    0.000    0.000    0.000    0.000    0.000    0.000 
#
# Total GULP energy -156145.924656 kJ/mol
# GULP energy per Si atom -5576.640166 kJ/mol
# Density = 1.019518 g / cm^3
# Si number density = 10.218442 Si / 1000 Ang^3
#
#
#
# Elastic Constant Matrix: (Units=GPa)
#
#
# Indices 1 2 3 4 5 6 
#
# 1 129.8938 5.4840 50.5181 0.0000 -12.9529 0.0000
# 2 5.4840 51.8133 6.1218 0.0000 -6.1564 0.0000
# 3 50.5181 6.1218 114.4972 0.0000 -26.1397 0.0000
# 4 0.0000 0.0000 0.0000 26.3136 0.0000 9.7050
# 5 -12.9529 -6.1564 -26.1397 0.0000 23.9135 0.0000
# 6 0.0000 0.0000 0.0000 9.7050 0.0000 19.5551
#
#
#
# Elastic Compliance Matrix: (Units=1/GPa)
#
#
# Indices 1 2 3 4 5 6 
#
# 1 0.009313 -0.000446 -0.003944 0.000000 0.000618 0.000000
# 2 -0.000446 0.019932 0.000330 0.000000 0.005250 0.000000
# 3 -0.003944 0.000330 0.013309 0.000000 0.012497 0.000000
# 4 0.000000 0.000000 0.000000 0.046518 0.000000 -0.023086
# 5 0.000618 0.005250 0.012497 0.000000 0.057164 0.000000
# 6 0.000000 0.000000 0.000000 -0.023086 0.000000 0.062595
#
#
# Mechanical properties :
#
#
# Convention : Reuss Voigt Hill
#
# Bulk Modulus (GPa) = 29.04128 46.71689 37.87908
# Shear Modulus (GPa) = 21.88846 29.56180 25.72513
#
# Velocity S-wave (km/s) = 3.27621 3.80740 3.55175
# Velocity P-wave (km/s) = 5.34345 6.49901 5.94935
#
# Compressibility (1/GPa) = 0.03443375
#
# Stress axis : x y z
#
# Youngs Moduli (GPa) = 107.37676 50.17015 75.13458
#
# Poissons Ratio (x) = 0.02239 0.29633
# Poissons Ratio (y) = 0.04792 -0.02478
# Poissons Ratio (z) = 0.42350 -0.01655
#
# Static dielectric constant tensor:
#      x y z
#    x 1.669670 0.000000 -0.002850 
#    y 0.000000 1.827120 0.000000 
#    z -0.002850 0.000000 1.830070 
# 
# From -- ./inp_files/209626.got.cif
#   From: 2010.05.17/outbox.ucp.g08.bks.cvg/sg15_105_cif.got.tgz:209626.got - 2010.06.11 12:40:34.
