data_PCOD9308263
_publ_section_title
;
Structure prediction by ZEFSAII (Michael W. Deem and Ramdas Pophale) SiO2 
 PCOD9308263
Probable space group: C 2/C
;
_chemical_formula_sum "Si O2"
_cell_formula_units_Z 32
_cell_length_a 13.703341
_cell_length_b 5.117876
_cell_length_c 20.246882
_cell_angle_alpha 90.000000
_cell_angle_beta 120.766447
_cell_angle_gamma 90.000000
_cell_volume 1220.109399
_symmetry_space_group_name_H-M "C 2/C"
_symmetry_group_IT_number 15
_symmetry_cell_setting 'monoclinic'
loop_
_space_group_symop_operation_xyz
x,y,z
-x,y,1/2-z
-x,-y,-z
x,-y,1/2+z
1/2+x,1/2+y,z
1/2-x,1/2+y,1/2-z
1/2-x,1/2-y,-z
1/2+x,1/2-y,1/2+z
loop_
_atom_site_type_symbol
_atom_site_label
_atom_site_fract_x
_atom_site_fract_y
_atom_site_fract_z
Si Si1 0.436869 0.265271 0.290193
Si Si2 0.516724 0.613467 0.079850
Si Si3 0.679943 0.008052 0.000567
Si Si4 0.213463 0.434619 0.163610
O O1 0.500000 0.134577 0.250000
O O2 0.513648 0.421119 0.369988
O O3 0.346445 0.451631 0.221767
O O4 0.353711 0.080006 0.302308
O O5 0.448122 0.888718 0.061995
O O6 0.651542 0.652536 0.137560
O O7 0.500000 0.500000 0.000000
O O8 0.750000 0.250000 0.000000
O O9 0.750000 0.750000 0.000000
O O10 0.684120 0.026926 0.080564
#
# Coordination Sequence:
#
# PCOD9308263 Si02
#       4
#     8   8   8   8
#     4  12  28  51  81 120 166 224 281 352 442 518
#     4  12  26  51  80 116 167 222 283 360 430 507
#     4  12  28  48  84 122 162 221 286 346 430 512
#     4  12  27  51  79 116 170 214 285 355 426 523
#
# _framework density 26.227159
#
# number of rings (size 3 to 8) (size 9 to 14) (size 15 to 20)
#    0.000    0.000    5.000    3.750    7.000    1.000 
#    0.000    0.000    0.000    0.000    0.000    0.000 
#    0.000    0.000    0.000    0.000    0.000    0.000 
#
# Total GULP energy -89380.078843 kJ/mol
# GULP energy per Si atom -5586.254928 kJ/mol
# Density = 2.616747 g / cm^3
# Si number density = 26.227159 Si / 1000 Ang^3
#
#
#
# Elastic Constant Matrix: (Units=GPa)
#
#
# Indices 1 2 3 4 5 6 
#
# 1 115.4996 28.9604 41.0078 0.0000 -17.0333 0.0000
# 2 28.9604 120.7932 26.0664 0.0000 -6.6464 0.0000
# 3 41.0078 26.0664 114.7158 0.0000 -2.9999 0.0000
# 4 0.0000 0.0000 0.0000 35.9236 0.0000 -7.7661
# 5 -17.0333 -6.6464 -2.9999 0.0000 74.0280 0.0000
# 6 0.0000 0.0000 0.0000 -7.7661 0.0000 56.2864
#
#
#
# Elastic Compliance Matrix: (Units=1/GPa)
#
#
# Indices 1 2 3 4 5 6 
#
# 1 0.010588 -0.001699 -0.003343 0.000000 0.002148 0.000000
# 2 -0.001699 0.009015 -0.001432 0.000000 0.000360 0.000000
# 3 -0.003343 -0.001432 0.010225 0.000000 -0.000483 0.000000
# 4 0.000000 0.000000 0.000000 0.028693 0.000000 0.003959
# 5 0.002148 0.000360 -0.000483 0.000000 0.014015 0.000000
# 6 0.000000 0.000000 0.000000 0.003959 0.000000 0.018313
#
#
# Mechanical properties :
#
#
# Convention : Reuss Voigt Hill
#
# Bulk Modulus (GPa) = 59.23881 60.34197 59.79039
# Shear Modulus (GPa) = 45.69513 50.24586 47.97049
#
# Velocity S-wave (km/s) = 4.17859 4.38173 4.28137
# Velocity P-wave (km/s) = 6.77619 6.97544 6.87654
#
# Compressibility (1/GPa) = 0.01688083
#
# Stress axis : x y z
#
# Youngs Moduli (GPa) = 94.45022 110.93003 97.80202
#
# Poissons Ratio (x) = 0.18846 0.32691
# Poissons Ratio (y) = 0.16046 0.14002
# Poissons Ratio (z) = 0.31571 0.15881
#
# Static dielectric constant tensor:
#      x y z
#    x 2.009570 0.000000 0.223220 
#    y 0.000000 2.072210 0.000000 
#    z 0.223220 0.000000 2.270440 
# 
# From -- ./inp_files/201894.got.cif
#   From: 2010.05.17/outbox.cif.g08.bks.cpg/sg15_101_cif.got.tgz:201894.got - 2010.06.03 18:47:42.
