data_PCOD9308741
_publ_section_title
;
Structure prediction by ZEFSAII (Michael W. Deem and Ramdas Pophale) SiO2 
 PCOD9308741
Probable space group: C 2/C
;
_chemical_formula_sum "Si O2"
_cell_formula_units_Z 28
_cell_length_a 9.000000
_cell_length_b 15.000000
_cell_length_c 21.000000
_cell_angle_alpha 90.000000
_cell_angle_beta 90.000000
_cell_angle_gamma 90.000000
_cell_volume 2835.000000
_symmetry_space_group_name_H-M "C 2/C"
_symmetry_group_IT_number 15
_symmetry_cell_setting 'monoclinic'
loop_
_space_group_symop_operation_xyz
x,y,z
-x,y,1/2-z
-x,-y,-z
x,-y,1/2+z
1/2+x,1/2+y,z
1/2-x,1/2+y,1/2-z
1/2-x,1/2-y,-z
1/2+x,1/2-y,1/2+z
loop_
_atom_site_type_symbol
_atom_site_label
_atom_site_fract_x
_atom_site_fract_y
_atom_site_fract_z
Si Si1 0.883958 0.291401 0.962416
Si Si2 0.885550 0.320517 0.692819
Si Si3 0.099942 0.548274 0.126904
Si Si4 0.408675 0.472993 0.684272
Si Si5 0.073624 0.151098 0.890528
Si Si6 0.898523 0.645804 0.928382
Si Si7 0.445804 0.711205 0.316769
O O1 0.835650 0.376821 0.920939
O O2 0.944269 0.207145 0.922784
O O3 0.750000 0.250000 0.000000
O O4 0.013962 0.325899 0.008990
O O5 0.887366 0.219545 0.666192
O O6 0.711914 0.333757 0.701389
O O7 0.000000 0.320624 0.750000
O O8 0.952986 0.399485 0.649802
O O9 0.227155 0.527048 0.180144
O O10 0.063961 0.454619 0.093695
O O11 0.500000 0.489373 0.750000
O O12 0.454927 0.552792 0.636371
O O13 0.454334 0.373156 0.664238
O O14 0.219693 0.147736 0.935029
O O15 0.937027 0.716420 0.872376
O O16 0.500000 0.752508 0.250000
#
# Coordination Sequence:
#
# PCOD9308741 Si02
#       7
#     8   8   8   8   8   8   8
#     4  11  22  38  59  84 114 147 190 240 282 333
#     4  10  19  34  55  80 111 146 181 228 284 339
#     4  10  22  38  57  84 113 147 191 232 280 339
#     4  10  19  37  59  83 115 146 183 235 284 337
#     4   9  21  37  57  81 109 148 190 228 282 340
#     4  10  21  40  59  79 112 153 189 231 282 335
#     4  10  21  36  56  83 114 147 186 232 281 337
#
# _framework density 9.8765429999999999
#
# number of rings (size 3 to 8) (size 9 to 14) (size 15 to 20)
#    0.000    2.000    0.000    3.857    0.000    2.857 
#    0.000   10.714    0.000    0.000    0.000    0.000 
#    0.000    0.000    0.000    0.000    0.000    0.000 
#
# Total GULP energy -155972.359031 kJ/mol
# GULP energy per Si atom -5570.441394 kJ/mol
# Density = 0.985406 g / cm^3
# Si number density = 9.876543 Si / 1000 Ang^3
#
#
#
# Elastic Constant Matrix: (Units=GPa)
#
#
# Indices 1 2 3 4 5 6 
#
# 1 29.5408 17.9762 14.9762 0.0000 15.4503 0.0000
# 2 17.9762 90.5764 18.4751 0.0000 -4.3038 0.0000
# 3 14.9762 18.4751 46.8546 0.0000 18.7327 0.0000
# 4 0.0000 0.0000 0.0000 22.1493 0.0000 16.1147
# 5 15.4503 -4.3038 18.7327 0.0000 22.3438 0.0000
# 6 0.0000 0.0000 0.0000 16.1147 0.0000 3.8506
#
#
#
# Elastic Compliance Matrix: (Units=1/GPa)
#
#
# Indices 1 2 3 4 5 6 
#
# 1 0.073615 -0.019393 0.008968 0.000000 -0.062157 0.000000
# 2 -0.019393 0.018605 -0.011931 0.000000 0.026996 0.000000
# 3 0.008968 -0.011931 0.039980 0.000000 -0.042018 0.000000
# 4 0.000000 0.000000 0.000000 -0.022080 0.000000 0.092403
# 5 -0.062157 0.026996 -0.042018 0.000000 0.128163 0.000000
# 6 0.000000 0.000000 0.000000 0.092403 0.000000 -0.127006
#
#
# Mechanical properties :
#
#
# Convention : Reuss Voigt Hill
#
# Bulk Modulus (GPa) = 11.43004 29.98074 20.70539
# Shear Modulus (GPa) = 27.00480 17.37169 22.18825
#
# Velocity S-wave (km/s) = 3.70147 2.96876 3.35517
# Velocity P-wave (km/s) = 4.90580 5.19250 5.05118
#
# Compressibility (1/GPa) = 0.08748874
#
# Stress axis : x y z
#
# Youngs Moduli (GPa) = 13.58414 53.74757 25.01276
#
# Poissons Ratio (x) = 1.04231 -0.22431
# Poissons Ratio (y) = 0.26343 0.29843
# Poissons Ratio (z) = -0.12182 0.64126
#
# Static dielectric constant tensor:
#      x y z
#    x 1.694070 0.000000 0.002450 
#    y 0.000000 1.637720 0.000000 
#    z 0.002450 0.000000 1.724010 
# 
# From -- ./inp_files/231561.got.cif
#   From: 2010.05.17/outbox.ucp.g08.bks.cvg/sg15_116_cif.got.tgz:231561.got - 2010.06.11 12:40:34.
