data_PCOD9308099
_publ_section_title
;
Structure prediction by ZEFSAII (Michael W. Deem and Ramdas Pophale) SiO2 
 PCOD9308099
Probable space group: C 2/C
;
_chemical_formula_sum "Si O2"
_cell_formula_units_Z 40
_cell_length_a 8.349816
_cell_length_b 14.219584
_cell_length_c 16.286192
_cell_angle_alpha 90.000000
_cell_angle_beta 62.889027
_cell_angle_gamma 90.000000
_cell_volume 1721.212975
_symmetry_space_group_name_H-M "C 2/C"
_symmetry_group_IT_number 15
_symmetry_cell_setting 'monoclinic'
loop_
_space_group_symop_operation_xyz
x,y,z
-x,y,1/2-z
-x,-y,-z
x,-y,1/2+z
1/2+x,1/2+y,z
1/2-x,1/2+y,1/2-z
1/2-x,1/2-y,-z
1/2+x,1/2-y,1/2+z
loop_
_atom_site_type_symbol
_atom_site_label
_atom_site_fract_x
_atom_site_fract_y
_atom_site_fract_z
Si Si1 0.687582 0.781865 0.748829
Si Si2 0.481073 0.080071 0.571202
Si Si3 0.805165 0.023436 0.266235
Si Si4 0.597706 0.275091 0.968468
Si Si5 0.293372 0.615637 0.626258
O O1 0.500000 0.753633 0.750000
O O2 0.677171 0.885854 0.790439
O O3 0.822676 0.792699 0.640538
O O4 0.740959 0.705172 0.804948
O O5 0.506032 0.177784 0.519048
O O6 0.623962 0.086072 0.611038
O O7 0.500000 0.000000 0.500000
O O8 0.286181 0.056963 0.656011
O O9 0.000000 0.055457 0.250000
O O10 0.833048 0.973412 0.173188
O O11 0.750000 0.250000 0.000000
O O12 0.464215 0.354439 0.031952
#
# Coordination Sequence:
#
# PCOD9308099 Si02
#       5
#     8   8   8   8   8
#     4  12  26  48  76 109 152 203 252 315 387 447
#     4  12  28  49  75 111 150 198 257 312 382 455
#     4  12  28  47  75 108 151 199 254 314 384 453
#     4  12  26  45  76 106 151 198 256 312 376 456
#     4  12  26  50  75 108 155 202 251 321 381 451
#
# _framework density 23.239426000000002
#
# number of rings (size 3 to 8) (size 9 to 14) (size 15 to 20)
#    0.000    0.000    4.000    5.400    8.400    0.800 
#    0.000    0.000    0.000    0.000    0.000    0.000 
#    0.000    0.000    0.000    0.000    0.000    0.000 
#
# Total GULP energy -111989.213123 kJ/mol
# GULP energy per Si atom -5599.460656 kJ/mol
# Density = 2.318653 g / cm^3
# Si number density = 23.239426 Si / 1000 Ang^3
#
#
#
# Elastic Constant Matrix: (Units=GPa)
#
#
# Indices 1 2 3 4 5 6 
#
# 1 92.8390 9.9968 27.3971 0.0000 17.5056 0.0000
# 2 9.9968 96.0504 23.1818 0.0000 18.3754 0.0000
# 3 27.3971 23.1818 130.2241 0.0000 -3.3345 0.0000
# 4 0.0000 0.0000 0.0000 50.3377 0.0000 11.3588
# 5 17.5056 18.3754 -3.3345 0.0000 41.4162 0.0000
# 6 0.0000 0.0000 0.0000 11.3588 0.0000 35.5457
#
#
#
# Elastic Compliance Matrix: (Units=1/GPa)
#
#
# Indices 1 2 3 4 5 6 
#
# 1 0.012670 0.000493 -0.002902 0.000000 -0.005807 0.000000
# 2 0.000493 0.012036 -0.002393 0.000000 -0.005741 0.000000
# 3 -0.002902 -0.002393 0.008792 0.000000 0.002996 0.000000
# 4 0.000000 0.000000 0.000000 0.021410 0.000000 -0.006842
# 5 -0.005807 -0.005741 0.002996 0.000000 0.029388 0.000000
# 6 0.000000 0.000000 0.000000 -0.006842 0.000000 0.030319
#
#
# Mechanical properties :
#
#
# Convention : Reuss Voigt Hill
#
# Bulk Modulus (GPa) = 41.85314 48.91833 45.38573
# Shear Modulus (GPa) = 37.82610 42.69577 40.26093
#
# Velocity S-wave (km/s) = 4.03882 4.29092 4.16678
# Velocity P-wave (km/s) = 6.30857 6.75609 6.53616
#
# Compressibility (1/GPa) = 0.02389307
#
# Stress axis : x y z
#
# Youngs Moduli (GPa) = 78.92857 83.08524 113.73534
#
# Poissons Ratio (x) = -0.04094 0.33005
# Poissons Ratio (y) = -0.03889 0.27219
# Poissons Ratio (z) = 0.22904 0.19884
#
# Static dielectric constant tensor:
#      x y z
#    x 1.578830 0.000000 -0.161340 
#    y 0.000000 1.877280 0.000000 
#    z -0.161340 0.000000 1.821000 
# 
# From -- ./inp_files/133056.got.cif
#   From: 2010.05.17/outbox.cif.g08.bks.cpg/sg15_67_cif.got.tgz:133056.got - 2010.06.03 18:47:42.
