data_PCOD9308422
_publ_section_title
;
Structure prediction by ZEFSAII (Michael W. Deem and Ramdas Pophale) SiO2 
 PCOD9308422
Probable space group: C 2/C
;
_chemical_formula_sum "Si O2"
_cell_formula_units_Z 36
_cell_length_a 17.633753
_cell_length_b 11.229489
_cell_length_c 14.934967
_cell_angle_alpha 90.000000
_cell_angle_beta 155.433434
_cell_angle_gamma 90.000000
_cell_volume 1229.536515
_symmetry_space_group_name_H-M "C 2/C"
_symmetry_group_IT_number 15
_symmetry_cell_setting 'monoclinic'
loop_
_space_group_symop_operation_xyz
x,y,z
-x,y,1/2-z
-x,-y,-z
x,-y,1/2+z
1/2+x,1/2+y,z
1/2-x,1/2+y,1/2-z
1/2-x,1/2-y,-z
1/2+x,1/2-y,1/2+z
loop_
_atom_site_type_symbol
_atom_site_label
_atom_site_fract_x
_atom_site_fract_y
_atom_site_fract_z
Si Si1 0.570843 0.965434 0.673035
Si Si2 0.587969 0.625526 0.063585
Si Si3 0.268662 0.352596 0.093423
Si Si4 0.273050 0.207009 0.625777
Si Si5 0.000000 0.056967 0.250000
O O1 0.586022 0.681293 0.673703
O O2 0.763335 0.905582 0.853371
O O3 0.500000 0.000000 0.500000
O O4 0.587401 0.097571 0.731214
O O5 0.921265 0.391698 0.566363
O O6 0.682576 0.708720 0.241738
O O7 0.500000 0.500000 0.000000
O O8 0.349551 0.469809 0.131308
O O9 0.250000 0.250000 0.000000
O O10 0.250000 0.250000 0.500000
O O11 0.077833 0.136516 0.416156
#
# Coordination Sequence:
#
# PCOD9308422 Si02
#       5
#     8   8   8   8   4
#     4  12  30  60  98 146 195 269 342 409 526 617
#     4  12  28  65  95 146 207 261 342 426 514 617
#     4  12  31  65 102 146 204 264 343 430 509 611
#     4  12  32  57  98 141 200 265 326 417 506 621
#     4  12  30  62  92 142 198 260 338 406 512 612
#
# _framework density 29.279325
#
# number of rings (size 3 to 8) (size 9 to 14) (size 15 to 20)
#    0.000    0.000    4.444    1.333    3.111    7.111 
#   12.000    0.000    0.000    0.000    0.000    0.000 
#    0.000    0.000    0.000    0.000    0.000    0.000 
#
# Total GULP energy -101022.406716 kJ/mol
# GULP energy per Si atom -5612.355929 kJ/mol
# Density = 2.921268 g / cm^3
# Si number density = 29.279325 Si / 1000 Ang^3
#
#
#
# Elastic Constant Matrix: (Units=GPa)
#
#
# Indices 1 2 3 4 5 6 
#
# 1 268.9961 135.8552 102.4675 0.0003 15.8809 -0.0001
# 2 135.8552 227.8256 138.6840 0.0003 -24.2645 -0.0001
# 3 102.4675 138.6840 255.5444 0.0001 -42.2543 0.0000
# 4 0.0003 0.0003 0.0001 87.1268 0.0002 -12.9479
# 5 15.8809 -24.2645 -42.2543 0.0002 71.2008 -0.0001
# 6 -0.0001 -0.0001 0.0000 -12.9479 -0.0001 73.1058
#
#
#
# Elastic Compliance Matrix: (Units=1/GPa)
#
#
# Indices 1 2 3 4 5 6 
#
# 1 0.005946 -0.003154 -0.001185 0.000000 -0.003105 0.000000
# 2 -0.003154 0.008229 -0.002906 0.000000 0.001783 0.000000
# 3 -0.001185 -0.002906 0.006482 0.000000 0.003121 0.000000
# 4 0.000000 0.000000 0.000000 0.011788 0.000000 0.002088
# 5 -0.003105 0.001783 0.003121 0.000000 0.017197 0.000000
# 6 0.000000 0.000000 0.000000 0.002088 0.000000 0.014049
#
#
# Mechanical properties :
#
#
# Convention : Reuss Voigt Hill
#
# Bulk Modulus (GPa) = 162.22560 167.37552 164.80056
# Shear Modulus (GPa) = 62.31502 71.31066 66.81284
#
# Velocity S-wave (km/s) = 4.61835 4.94046 4.78212
# Velocity P-wave (km/s) = 9.16326 9.47805 9.32198
#
# Compressibility (1/GPa) = 0.00616426
#
# Stress axis : x y z
#
# Youngs Moduli (GPa) = 168.19422 121.51422 154.27634
#
# Poissons Ratio (x) = 0.38331 0.18289
# Poissons Ratio (y) = 0.53055 0.44839
# Poissons Ratio (z) = 0.19939 0.35317
#
# Static dielectric constant tensor:
#      x y z
#    x 2.248230 0.000000 0.148150 
#    y 0.000000 2.526600 0.000000 
#    z 0.148150 0.000000 2.409210 
# 
# From -- ./inp_files/133544.got.cif
#   From: 2010.05.17/outbox.cif.g08.bks.cpg/sg15_67_cif.got.tgz:133544.got - 2010.06.03 18:47:42.
