data_PCOD9308070
_publ_section_title
;
Structure prediction by ZEFSAII (Michael W. Deem and Ramdas Pophale) SiO2 
 PCOD9308070
Probable space group: C 2/C
;
_chemical_formula_sum "Si O2"
_cell_formula_units_Z 40
_cell_length_a 10.140928
_cell_length_b 10.225655
_cell_length_c 21.865889
_cell_angle_alpha 90.000000
_cell_angle_beta 144.216885
_cell_angle_gamma 90.000000
_cell_volume 1325.814932
_symmetry_space_group_name_H-M "C 2/C"
_symmetry_group_IT_number 15
_symmetry_cell_setting 'monoclinic'
loop_
_space_group_symop_operation_xyz
x,y,z
-x,y,1/2-z
-x,-y,-z
x,-y,1/2+z
1/2+x,1/2+y,z
1/2-x,1/2+y,1/2-z
1/2-x,1/2-y,-z
1/2+x,1/2-y,1/2+z
loop_
_atom_site_type_symbol
_atom_site_label
_atom_site_fract_x
_atom_site_fract_y
_atom_site_fract_z
Si Si1 0.226615 0.402424 0.932231
Si Si2 0.368433 0.556444 0.095211
Si Si3 0.500000 0.091554 0.750000
Si Si4 0.000000 0.053155 0.750000
Si Si5 0.887791 0.690207 0.905472
Si Si6 0.759621 0.208272 0.245697
O O1 0.981949 0.350577 0.860027
O O2 0.151228 0.505854 0.852107
O O3 0.357211 0.289290 0.948470
O O4 0.374154 0.456168 0.041942
O O5 0.580663 0.568304 0.225598
O O6 0.271099 0.443881 0.119190
O O7 0.130879 0.627219 0.997838
O O8 0.653961 0.182590 0.767155
O O9 0.166544 0.179914 0.773558
O O10 0.957939 0.815751 0.873155
#
# Coordination Sequence:
#
# PCOD9308070 Si02
#       6
#     8   8   4   4   8   8
#     4  12  27  54  86 117 164 221 270 339 417 482
#     4  12  29  49  81 120 163 219 270 339 415 483
#     4  12  26  48  84 114 164 216 262 344 406 472
#     4  12  26  52  74 114 170 204 272 344 398 484
#     4  12  25  52  80 119 161 210 282 331 405 501
#     4  12  26  51  78 121 165 206 278 339 398 501
#
# _framework density 30.170121999999999
#
# number of rings (size 3 to 8) (size 9 to 14) (size 15 to 20)
#    0.000    0.000    6.000    3.000    0.000    4.800 
#    3.600    0.000    0.000    0.000    0.000    0.000 
#    0.000    0.000    0.000    0.000    0.000    0.000 
#
# Total GULP energy -112133.527026 kJ/mol
# GULP energy per Si atom -5606.676351 kJ/mol
# Density = 3.010145 g / cm^3
# Si number density = 30.170122 Si / 1000 Ang^3
#
#
#
# Elastic Constant Matrix: (Units=GPa)
#
#
# Indices 1 2 3 4 5 6 
#
# 1 213.1383 80.3253 84.1076 0.0000 15.3572 0.0001
# 2 80.3253 200.5682 104.0214 0.0001 -13.6411 0.0001
# 3 84.1076 104.0214 201.1542 0.0002 -32.2760 0.0003
# 4 0.0000 0.0001 0.0002 67.3743 0.0001 -13.8000
# 5 15.3572 -13.6411 -32.2760 0.0001 77.2074 0.0001
# 6 0.0001 0.0001 0.0003 -13.8000 0.0001 78.8759
#
#
#
# Elastic Compliance Matrix: (Units=1/GPa)
#
#
# Indices 1 2 3 4 5 6 
#
# 1 0.006338 -0.001539 -0.002251 0.000000 -0.002474 0.000000
# 2 -0.001539 0.007193 -0.003026 0.000000 0.000312 0.000000
# 3 -0.002251 -0.003026 0.008000 0.000000 0.003258 0.000000
# 4 0.000000 0.000000 0.000000 0.015394 0.000000 0.002693
# 5 -0.002474 0.000312 0.003258 0.000000 0.014861 0.000000
# 6 0.000000 0.000000 0.000000 0.002693 0.000000 0.013149
#
#
# Mechanical properties :
#
#
# Convention : Reuss Voigt Hill
#
# Bulk Modulus (GPa) = 126.60413 127.97436 127.28924
# Shear Modulus (GPa) = 61.57504 67.78525 64.68015
#
# Velocity S-wave (km/s) = 4.52256 4.74515 4.63519
# Velocity P-wave (km/s) = 8.32622 8.51655 8.42192
#
# Compressibility (1/GPa) = 0.00789864
#
# Stress axis : x y z
#
# Youngs Moduli (GPa) = 157.76630 139.02736 124.99822
#
# Poissons Ratio (x) = 0.21398 0.28141
# Poissons Ratio (y) = 0.24283 0.37824
# Poissons Ratio (z) = 0.35518 0.42069
#
# Static dielectric constant tensor:
#      x y z
#    x 4.267580 0.000000 -0.164960 
#    y 0.000000 4.089820 0.000000 
#    z -0.164960 0.000000 2.006590 
# 
# From -- ./inp_files/269069.got.cif
#   From: 2010.05.17/outbox.cif.g08.bks.cpg/sg15_135_cif.got.tgz:269069.got - 2010.06.03 18:47:42.
