data_PCOD9308574
_publ_section_title
;
Structure prediction by ZEFSAII (Michael W. Deem and Ramdas Pophale) SiO2 
 PCOD9308574
Probable space group: C 2/C
;
_chemical_formula_sum "Si O2"
_cell_formula_units_Z 48
_cell_length_a 23.644470
_cell_length_b 14.144761
_cell_length_c 14.646674
_cell_angle_alpha 90.000000
_cell_angle_beta 24.427017
_cell_angle_gamma 90.000000
_cell_volume 2025.700469
_symmetry_space_group_name_H-M "C 2/C"
_symmetry_group_IT_number 15
_symmetry_cell_setting 'monoclinic'
loop_
_space_group_symop_operation_xyz
x,y,z
-x,y,1/2-z
-x,-y,-z
x,-y,1/2+z
1/2+x,1/2+y,z
1/2-x,1/2+y,1/2-z
1/2-x,1/2-y,-z
1/2+x,1/2-y,1/2+z
loop_
_atom_site_type_symbol
_atom_site_label
_atom_site_fract_x
_atom_site_fract_y
_atom_site_fract_z
Si Si1 0.217800 0.037191 0.191584
Si Si2 0.773337 0.736952 0.170818
Si Si3 0.188797 0.436346 0.280198
Si Si4 0.968280 0.752930 0.200256
Si Si5 0.111658 0.631448 0.331658
Si Si6 0.544641 0.468869 0.284253
O O1 0.314950 0.964492 0.105690
O O2 0.165327 0.013628 0.167721
O O3 0.279463 0.143539 0.098697
O O4 0.085684 0.030432 0.454259
O O5 0.789349 0.846408 0.118141
O O6 0.615930 0.738390 0.435119
O O7 0.867267 0.706096 0.117638
O O8 0.206133 0.540541 0.210390
O O9 0.044086 0.404257 0.449870
O O10 0.000000 0.708385 0.250000
O O11 0.868632 0.689682 0.288515
O O12 0.920757 0.859387 0.281866
O O13 0.500000 0.506953 0.250000
#
# Coordination Sequence:
#
# PCOD9308574 Si02
#       6
#     8   8   8   8   8   8
#     4   9  17  30  49  73  99 128 165 204 245 293
#     4   9  17  29  47  70  93 125 167 203 240 292
#     4   9  17  30  47  68  95 129 166 201 240 290
#     4   9  17  28  44  71 101 126 156 198 250 300
#     4   9  17  29  45  67  96 129 164 196 239 294
#     4   9  17  30  50  76 102 128 160 202 249 294
#
# _framework density 23.695508
#
# number of rings (size 3 to 8) (size 9 to 14) (size 15 to 20)
#    0.000    3.000    0.000    1.000    0.000    2.000 
#    0.000    8.333    0.000    2.000    0.000    0.000 
#    0.000    0.000    0.000    0.000    0.000    0.000 
#
# Total GULP energy -133726.579281 kJ/mol
# GULP energy per Si atom -5571.940803 kJ/mol
# Density = 2.364158 g / cm^3
# Si number density = 23.695508 Si / 1000 Ang^3
#
#
#
# Elastic Constant Matrix: (Units=GPa)
#
#
# Indices 1 2 3 4 5 6 
#
# 1 222.5019 87.9611 6.0237 0.0000 -7.3959 0.0000
# 2 87.9611 164.2478 5.8898 0.0000 -5.6413 0.0000
# 3 6.0237 5.8898 37.0683 0.0000 -11.1834 0.0001
# 4 0.0000 0.0000 0.0000 29.1603 0.0000 -25.9738
# 5 -7.3959 -5.6413 -11.1834 0.0000 27.8513 -0.0001
# 6 0.0000 0.0000 0.0001 -25.9738 -0.0001 48.7623
#
#
#
# Elastic Compliance Matrix: (Units=1/GPa)
#
#
# Indices 1 2 3 4 5 6 
#
# 1 0.005725 -0.003031 -0.000200 0.000000 0.000826 0.000000
# 2 -0.003031 0.007750 -0.000578 0.000000 0.000533 0.000000
# 3 -0.000200 -0.000578 0.030779 0.000000 0.012189 0.000000
# 4 0.000000 0.000000 0.000000 0.065253 0.000000 0.034758
# 5 0.000826 0.000533 0.012189 0.000000 0.041127 0.000000
# 6 0.000000 0.000000 0.000000 0.034758 0.000000 0.039022
#
#
# Mechanical properties :
#
#
# Convention : Reuss Voigt Hill
#
# Bulk Modulus (GPa) = 27.29410 69.28523 48.28967
# Shear Modulus (GPa) = 23.86805 42.75100 33.30953
#
# Velocity S-wave (km/s) = 3.17721 4.25217 3.75338
# Velocity P-wave (km/s) = 5.00033 7.30830 6.26157
#
# Compressibility (1/GPa) = 0.03663795
#
# Stress axis : x y z
#
# Youngs Moduli (GPa) = 174.66388 129.02575 32.48979
#
# Poissons Ratio (x) = 0.39102 0.00648
# Poissons Ratio (y) = 0.52933 0.01879
# Poissons Ratio (z) = 0.03485 0.07460
#
# Static dielectric constant tensor:
#      x y z
#    x 1.909620 0.000000 -0.020820 
#    y 0.000000 1.956530 0.000000 
#    z -0.020820 0.000000 2.046170 
# 
# From -- ./inp_files/96224.got.cif
#   From: 2010.05.17/outbox.cif.g08.bks.cpg/sg15_49_cif.got.tgz:96224.got - 2010.06.03 18:47:42.
