data_PCOD9308473
_publ_section_title
;
Structure prediction by ZEFSAII (Michael W. Deem and Ramdas Pophale) SiO2 
 PCOD9308473
Probable space group: C 2/C
;
_chemical_formula_sum "Si O2"
_cell_formula_units_Z 32
_cell_length_a 22.572360
_cell_length_b 7.003066
_cell_length_c 22.995817
_cell_angle_alpha 90.000000
_cell_angle_beta 163.001882
_cell_angle_gamma 90.000000
_cell_volume 1062.680494
_symmetry_space_group_name_H-M "C 2/C"
_symmetry_group_IT_number 15
_symmetry_cell_setting 'monoclinic'
loop_
_space_group_symop_operation_xyz
x,y,z
-x,y,1/2-z
-x,-y,-z
x,-y,1/2+z
1/2+x,1/2+y,z
1/2-x,1/2+y,1/2-z
1/2-x,1/2-y,-z
1/2+x,1/2-y,1/2+z
loop_
_atom_site_type_symbol
_atom_site_label
_atom_site_fract_x
_atom_site_fract_y
_atom_site_fract_z
Si Si1 0.279954 0.460762 0.102837
Si Si2 0.765243 0.476771 0.189834
Si Si3 0.756408 0.497016 0.556276
Si Si4 0.699865 0.586975 0.754741
O O1 0.513678 0.519348 0.324418
O O2 0.176123 0.540632 0.946735
O O3 0.198388 0.500432 0.091563
O O4 0.284492 0.231164 0.094589
O O5 0.809957 0.396436 0.295969
O O6 0.836322 0.695374 0.261802
O O7 0.819528 0.404900 0.176265
O O8 0.517937 0.487698 0.956191
#
# Coordination Sequence:
#
# PCOD9308473 Si02
#       4
#     8   8   8   8
#     4   8  13  22  37  56  76  98 126 161 197 229
#     4   9  17  28  42  61  83 106 133 164 198 237
#     4   8  13  22  37  56  76  98 126 161 197 229
#     4   9  17  28  42  61  83 106 133 164 198 237
#
# _framework density 30.112531000000001
#
# number of rings (size 3 to 8) (size 9 to 14) (size 15 to 20)
#    0.000    3.500    0.000    0.000    0.000    1.000 
#    0.000    0.000    0.000    1.500    0.000    0.000 
#    0.000    0.000    0.000    0.000    0.000    0.000 
#
# Total GULP energy -89498.972258 kJ/mol
# GULP energy per Si atom -5593.685766 kJ/mol
# Density = 3.004399 g / cm^3
# Si number density = 30.112531 Si / 1000 Ang^3
#
#
#
# Elastic Constant Matrix: (Units=GPa)
#
#
# Indices 1 2 3 4 5 6 
#
# 1 406.2765 24.1569 97.5967 0.0025 -65.9603 0.0014
# 2 24.1569 104.6664 22.5159 0.0011 -0.7689 0.0003
# 3 97.5967 22.5159 113.1479 0.0017 -47.6623 0.0022
# 4 0.0025 0.0011 0.0017 6.4670 -0.0008 6.6881
# 5 -65.9603 -0.7689 -47.6623 -0.0008 73.7247 -0.0008
# 6 0.0014 0.0003 0.0022 6.6881 -0.0008 36.2369
#
#
#
# Elastic Compliance Matrix: (Units=1/GPa)
#
#
# Indices 1 2 3 4 5 6 
#
# 1 0.003228 -0.000287 -0.002078 -0.000001 0.001542 0.000000
# 2 -0.000287 0.010150 -0.002523 -0.000002 -0.001782 0.000000
# 3 -0.002078 -0.002523 0.014207 -0.000001 0.007299 0.000000
# 4 -0.000001 -0.000002 -0.000001 0.191110 0.000000 -0.035273
# 5 0.001542 -0.001782 0.007299 0.000000 0.019644 0.000000
# 6 0.000000 0.000000 0.000000 -0.035273 0.000000 0.034106
#
#
# Mechanical properties :
#
#
# Convention : Reuss Voigt Hill
#
# Bulk Modulus (GPa) = 56.14852 101.40332 78.77592
# Shear Modulus (GPa) = 17.35166 55.27381 36.31274
#
# Velocity S-wave (km/s) = 2.40308 4.28901 3.47638
# Velocity P-wave (km/s) = 5.13677 7.63383 6.50622
#
# Compressibility (1/GPa) = 0.01780991
#
# Stress axis : x y z
#
# Youngs Moduli (GPa) = 309.80482 98.52212 70.38752
#
# Poissons Ratio (x) = 0.02825 0.14625
# Poissons Ratio (y) = 0.08882 0.17759
# Poissons Ratio (z) = 0.64369 0.24858
#
# Static dielectric constant tensor:
#      x y z
#    x 2.451270 0.000000 0.034410 
#    y 0.000000 2.416720 0.000000 
#    z 0.034410 0.000000 2.356760 
# 
# From -- ./inp_files/53723.got.cif
#   From: 2010.05.17/outbox.cif.g08.bks.cpg/sg15_27_cif.got.tgz:53723.got - 2010.06.03 18:47:42.
