data_PCOD9308457
_publ_section_title
;
Structure prediction by ZEFSAII (Michael W. Deem and Ramdas Pophale) SiO2 
 PCOD9308457
Probable space group: C 2/C
;
_chemical_formula_sum "Si O2"
_cell_formula_units_Z 32
_cell_length_a 10.650885
_cell_length_b 11.199011
_cell_length_c 19.754168
_cell_angle_alpha 90.000000
_cell_angle_beta 143.461528
_cell_angle_gamma 90.000000
_cell_volume 1402.831543
_symmetry_space_group_name_H-M "C 2/C"
_symmetry_group_IT_number 15
_symmetry_cell_setting 'monoclinic'
loop_
_space_group_symop_operation_xyz
x,y,z
-x,y,1/2-z
-x,-y,-z
x,-y,1/2+z
1/2+x,1/2+y,z
1/2-x,1/2+y,1/2-z
1/2-x,1/2-y,-z
1/2+x,1/2-y,1/2+z
loop_
_atom_site_type_symbol
_atom_site_label
_atom_site_fract_x
_atom_site_fract_y
_atom_site_fract_z
Si Si1 0.649326 0.372604 0.605223
Si Si2 0.000000 0.833331 0.250000
Si Si3 0.500000 0.068328 0.750000
Si Si4 0.974100 0.816864 0.092672
Si Si5 0.428051 0.703907 0.288961
O O1 0.795107 0.253064 0.663540
O O2 0.537467 0.381862 0.484404
O O3 0.516681 0.354014 0.615871
O O4 0.811701 0.480112 0.684756
O O5 0.002705 0.888933 0.326499
O O6 0.473853 0.162532 0.677321
O O7 0.174501 0.727042 0.176465
O O8 0.750000 0.750000 0.000000
O O9 0.500000 0.642474 0.250000
#
# Coordination Sequence:
#
# PCOD9308457 Si02
#       5
#     8   4   4   8   8
#     4   9  16  32  58  76 108 156 183 222 287 336
#     4   7  14  28  50  81 108 137 182 232 274 319
#     4   9  20  36  56  83 116 151 184 234 286 329
#     4   9  16  30  59  83 105 154 191 223 285 339
#     4   9  20  35  53  84 120 145 183 244 279 323
#
# _framework density 22.811007
#
# number of rings (size 3 to 8) (size 9 to 14) (size 15 to 20)
#    0.750    2.500    0.000    1.500    0.000    2.000 
#    0.000    0.000   19.250   45.000    0.000    0.000 
#    0.000    0.000    0.000    0.000    0.000    0.000 
#
# Total GULP energy -89081.180798 kJ/mol
# GULP energy per Si atom -5567.573800 kJ/mol
# Density = 2.275909 g / cm^3
# Si number density = 22.811007 Si / 1000 Ang^3
#
#
#
# Elastic Constant Matrix: (Units=GPa)
#
#
# Indices 1 2 3 4 5 6 
#
# 1 185.6728 39.1279 77.4503 0.0000 -58.8983 0.0000
# 2 39.1279 62.1555 28.5205 0.0000 -30.7077 0.0000
# 3 77.4503 28.5205 87.7884 0.0000 -59.0391 0.0000
# 4 0.0000 0.0000 0.0000 -12.7270 0.0000 5.1858
# 5 -58.8983 -30.7077 -59.0391 0.0000 70.6510 0.0000
# 6 0.0000 0.0000 0.0000 5.1858 0.0000 29.7215
#
#
#
# Elastic Compliance Matrix: (Units=1/GPa)
#
#
# Indices 1 2 3 4 5 6 
#
# 1 0.008837 -0.002078 -0.006334 0.000000 0.001171 0.000000
# 2 -0.002078 0.021067 -0.000041 0.000000 0.007390 0.000000
# 3 -0.006334 -0.000041 0.030659 0.000000 0.020322 0.000000
# 4 0.000000 0.000000 0.000000 -0.073358 0.000000 0.012799
# 5 0.001171 0.007390 0.020322 0.000000 0.035324 0.000000
# 6 0.000000 0.000000 0.000000 0.012799 0.000000 0.031412
#
#
# Mechanical properties :
#
#
# Convention : Reuss Voigt Hill
#
# Bulk Modulus (GPa) = 22.90567 69.53491 46.22029
# Shear Modulus (GPa) = 58.54722 30.23029 44.38875
#
# Velocity S-wave (km/s) = 5.07168 3.64435 4.41606
# Velocity P-wave (km/s) = 6.66027 6.94677 6.80503
#
# Compressibility (1/GPa) = 0.04365732
#
# Stress axis : x y z
#
# Youngs Moduli (GPa) = 113.15600 47.46849 32.61644
#
# Poissons Ratio (x) = 0.09866 0.20659
# Poissons Ratio (y) = 0.23518 0.00133
# Poissons Ratio (z) = 0.71672 0.00193
#
# Static dielectric constant tensor:
#      x y z
#    x 1.933700 0.000000 -0.027280 
#    y 0.000000 1.855010 0.000000 
#    z -0.027280 0.000000 1.861080 
# 
# From -- ./inp_files/142465.got.cif
#   From: 2010.05.17/outbox.cif.g08.bks.cpg/sg15_72_cif.got.tgz:142465.got - 2010.06.03 18:47:42.
