data_PCOD9308385
_publ_section_title
;
Structure prediction by ZEFSAII (Michael W. Deem and Ramdas Pophale) SiO2 
 PCOD9308385
Probable space group: C 2/C
;
_chemical_formula_sum "Si O2"
_cell_formula_units_Z 24
_cell_length_a 8.293906
_cell_length_b 9.153671
_cell_length_c 12.365930
_cell_angle_alpha 90.000000
_cell_angle_beta 92.172021
_cell_angle_gamma 90.000000
_cell_volume 938.143033
_symmetry_space_group_name_H-M "C 2/C"
_symmetry_group_IT_number 15
_symmetry_cell_setting 'monoclinic'
loop_
_space_group_symop_operation_xyz
x,y,z
-x,y,1/2-z
-x,-y,-z
x,-y,1/2+z
1/2+x,1/2+y,z
1/2-x,1/2+y,1/2-z
1/2-x,1/2-y,-z
1/2+x,1/2-y,1/2+z
loop_
_atom_site_type_symbol
_atom_site_label
_atom_site_fract_x
_atom_site_fract_y
_atom_site_fract_z
Si Si1 0.190514 0.694033 0.382432
Si Si2 0.309645 0.542986 0.742460
Si Si3 0.632933 0.874267 0.550629
O O1 0.250000 0.750000 0.500000
O O2 0.238916 0.531178 0.348348
O O3 0.999376 0.714397 0.383729
O O4 0.253826 0.795305 0.286687
O O5 0.500000 0.526657 0.750000
O O6 0.246298 0.461543 0.634011
O O7 0.750000 0.750000 0.500000
O O8 0.500000 0.000000 0.500000
#
# Coordination Sequence:
#
# PCOD9308385 Si02
#       3
#     8   8   8
#     4  12  28  52  79 119 163 219 287 358 445 532
#     4  12  28  47  83 115 165 215 284 354 445 522
#     4  12  28  51  85 120 173 226 290 364 445 533
#
# _framework density 25.582453000000001
#
# number of rings (size 3 to 8) (size 9 to 14) (size 15 to 20)
#    0.000    0.000    3.333    5.000    9.333    2.667 
#    0.000    0.000    0.000    0.000    0.000    0.000 
#    0.000    0.000    0.000    0.000    0.000    0.000 
#
# Total GULP energy -66929.364472 kJ/mol
# GULP energy per Si atom -5577.447039 kJ/mol
# Density = 2.552423 g / cm^3
# Si number density = 25.582453 Si / 1000 Ang^3
#
#
#
# Elastic Constant Matrix: (Units=GPa)
#
#
# Indices 1 2 3 4 5 6 
#
# 1 148.0166 48.8673 56.1251 0.0000 5.4944 0.0000
# 2 48.8673 145.8072 71.0670 0.0000 0.7184 0.0000
# 3 56.1251 71.0670 122.4774 0.0000 20.7490 0.0000
# 4 0.0000 0.0000 0.0000 78.1097 0.0000 5.8552
# 5 5.4944 0.7184 20.7490 0.0000 73.0996 0.0000
# 6 0.0000 0.0000 0.0000 5.8552 0.0000 31.7231
#
#
#
# Elastic Compliance Matrix: (Units=1/GPa)
#
#
# Indices 1 2 3 4 5 6 
#
# 1 0.008355 -0.001273 -0.003137 0.000000 0.000275 0.000000
# 2 -0.001273 0.009928 -0.005439 0.000000 0.001542 0.000000
# 3 -0.003137 -0.005439 0.013351 0.000000 -0.003500 0.000000
# 4 0.000000 0.000000 0.000000 0.012982 0.000000 -0.002396
# 5 0.000275 0.001542 -0.003500 0.000000 0.014638 0.000000
# 6 0.000000 0.000000 0.000000 -0.002396 0.000000 0.031965
#
#
# Mechanical properties :
#
#
# Convention : Reuss Voigt Hill
#
# Bulk Modulus (GPa) = 83.76712 85.37999 84.57356
# Shear Modulus (GPa) = 43.51766 52.60260 48.06013
#
# Velocity S-wave (km/s) = 4.12888 4.53945 4.33903
# Velocity P-wave (km/s) = 7.45287 7.80528 7.63111
#
# Compressibility (1/GPa) = 0.01193786
#
# Stress axis : x y z
#
# Youngs Moduli (GPa) = 119.68225 100.72306 74.90008
#
# Poissons Ratio (x) = 0.12819 0.23496
# Poissons Ratio (y) = 0.15232 0.40737
# Poissons Ratio (z) = 0.37544 0.54781
#
# Static dielectric constant tensor:
#      x y z
#    x 2.122470 0.000000 0.027450 
#    y 0.000000 2.276520 0.000000 
#    z 0.027450 0.000000 2.142970 
# 
# From -- ./inp_files/131226.got.cif
#   From: 2010.05.17/outbox.cif.g08.bks.cpg/sg15_66_cif.got.tgz:131226.got - 2010.06.03 18:47:42.
