data_PCOD9308185
_publ_section_title
;
Structure prediction by ZEFSAII (Michael W. Deem and Ramdas Pophale) SiO2 
 PCOD9308185
Probable space group: C 2/C
;
_chemical_formula_sum "Si O2"
_cell_formula_units_Z 40
_cell_length_a 9.639631
_cell_length_b 22.993659
_cell_length_c 8.558901
_cell_angle_alpha 90.000000
_cell_angle_beta 61.843325
_cell_angle_gamma 90.000000
_cell_volume 1672.583838
_symmetry_space_group_name_H-M "C 2/C"
_symmetry_group_IT_number 15
_symmetry_cell_setting 'monoclinic'
loop_
_space_group_symop_operation_xyz
x,y,z
-x,y,1/2-z
-x,-y,-z
x,-y,1/2+z
1/2+x,1/2+y,z
1/2-x,1/2+y,1/2-z
1/2-x,1/2-y,-z
1/2+x,1/2-y,1/2+z
loop_
_atom_site_type_symbol
_atom_site_label
_atom_site_fract_x
_atom_site_fract_y
_atom_site_fract_z
Si Si1 0.344187 0.470018 0.245063
Si Si2 0.212446 0.080266 0.065939
Si Si3 0.677280 0.217523 0.893752
Si Si4 0.120292 0.794426 0.507786
Si Si5 0.456339 0.092634 0.454158
O O1 0.500000 0.447039 0.250000
O O2 0.348809 0.539861 0.261105
O O3 0.190006 0.446711 0.416105
O O4 0.324899 0.451751 0.076845
O O5 0.143743 0.144505 0.081721
O O6 0.397582 0.083823 0.006315
O O7 0.816805 0.198128 0.703307
O O8 0.590905 0.159718 0.997862
O O9 0.750000 0.250000 0.000000
O O10 0.547672 0.262706 0.894939
O O11 0.250000 0.750000 0.500000
O O12 0.500000 0.918495 0.750000
#
# Coordination Sequence:
#
# PCOD9308185 Si02
#       5
#     8   8   8   8   8
#     4  12  28  50  79 116 157 207 263 331 397 459
#     4  12  27  51  80 113 162 211 265 326 392 480
#     4  12  27  48  77 117 155 204 260 325 390 469
#     4  12  26  48  79 113 160 204 260 318 398 469
#     4  12  26  50  79 112 158 211 267 320 394 474
#
# _framework density 23.915092999999999
#
# number of rings (size 3 to 8) (size 9 to 14) (size 15 to 20)
#    0.000    0.000    4.000    5.400    2.800    1.600 
#    0.000    0.000    0.000    0.000    0.000    0.000 
#    0.000    0.000    0.000    0.000    0.000    0.000 
#
# Total GULP energy -112113.052690 kJ/mol
# GULP energy per Si atom -5605.652634 kJ/mol
# Density = 2.386066 g / cm^3
# Si number density = 23.915093 Si / 1000 Ang^3
#
#
#
# Elastic Constant Matrix: (Units=GPa)
#
#
# Indices 1 2 3 4 5 6 
#
# 1 169.3197 61.1904 49.4515 0.0000 4.2070 0.0000
# 2 61.1904 180.7325 37.9663 0.0000 7.8355 0.0000
# 3 49.4515 37.9663 134.7353 0.0000 -6.9250 0.0000
# 4 0.0000 0.0000 0.0000 42.9202 0.0000 9.8128
# 5 4.2070 7.8355 -6.9250 0.0000 47.8228 0.0000
# 6 0.0000 0.0000 0.0000 9.8128 0.0000 42.7362
#
#
#
# Elastic Compliance Matrix: (Units=1/GPa)
#
#
# Indices 1 2 3 4 5 6 
#
# 1 0.007263 -0.001983 -0.002139 0.000000 -0.000624 0.000000
# 2 -0.001983 0.006493 -0.001156 0.000000 -0.001057 0.000000
# 3 -0.002139 -0.001156 0.008616 0.000000 0.001625 0.000000
# 4 0.000000 0.000000 0.000000 0.024590 0.000000 -0.005646
# 5 -0.000624 -0.001057 0.001625 0.000000 0.021374 0.000000
# 6 0.000000 0.000000 0.000000 -0.005646 0.000000 0.024696
#
#
# Mechanical properties :
#
#
# Convention : Reuss Voigt Hill
#
# Bulk Modulus (GPa) = 84.62837 86.88935 85.75886
# Shear Modulus (GPa) = 46.50031 49.10780 47.80406
#
# Velocity S-wave (km/s) = 4.41431 4.53639 4.47576
# Velocity P-wave (km/s) = 7.83871 7.99060 7.91502
#
# Compressibility (1/GPa) = 0.01181637
#
# Stress axis : x y z
#
# Youngs Moduli (GPa) = 137.69039 154.01241 116.05776
#
# Poissons Ratio (x) = 0.30533 0.24825
# Poissons Ratio (y) = 0.27298 0.13420
# Poissons Ratio (z) = 0.29452 0.17808
#
# Static dielectric constant tensor:
#      x y z
#    x 1.893580 0.000000 -0.007670 
#    y 0.000000 1.710270 0.000000 
#    z -0.007670 0.000000 1.994410 
# 
# From -- ./inp_files/23465.got.cif
#   From: 2010.05.17/outbox.cif.g08.bks.cpg/sg15_12_cif.got.tgz:23465.got - 2010.06.03 18:47:42.
