data_PCOD9308132
_publ_section_title
;
Structure prediction by ZEFSAII (Michael W. Deem and Ramdas Pophale) SiO2 
 PCOD9308132
Probable space group: C 2/C
;
_chemical_formula_sum "Si O2"
_cell_formula_units_Z 28
_cell_length_a 11.808544
_cell_length_b 22.302713
_cell_length_c 5.219154
_cell_angle_alpha 90.000000
_cell_angle_beta 53.174155
_cell_angle_gamma 90.000000
_cell_volume 1100.257610
_symmetry_space_group_name_H-M "C 2/C"
_symmetry_group_IT_number 15
_symmetry_cell_setting 'monoclinic'
loop_
_space_group_symop_operation_xyz
x,y,z
-x,y,1/2-z
-x,-y,-z
x,-y,1/2+z
1/2+x,1/2+y,z
1/2-x,1/2+y,1/2-z
1/2-x,1/2-y,-z
1/2+x,1/2-y,1/2+z
loop_
_atom_site_type_symbol
_atom_site_label
_atom_site_fract_x
_atom_site_fract_y
_atom_site_fract_z
Si Si1 0.187757 0.965489 0.630279
Si Si2 0.500000 0.074778 0.750000
Si Si3 0.905831 0.829981 0.638080
Si Si4 0.750000 0.750000 0.500000
Si Si5 0.000000 0.342695 0.750000
O O1 0.357747 0.963095 0.414083
O O2 0.136757 0.897804 0.743687
O O3 0.142499 0.990155 0.417527
O O4 0.510182 0.115643 0.484379
O O5 0.774876 0.790654 0.728536
O O6 0.000000 0.807285 0.750000
O O7 0.000000 0.828351 0.250000
O O8 0.636503 0.800078 0.548290
#
# Coordination Sequence:
#
# PCOD9308132 Si02
#       5
#     8   4   8   4   4
#     4  12  26  48  78 109 153 202 258 320 385 460
#     4  12  26  47  74 116 146 199 256 318 386 464
#     4  12  29  50  78 113 156 205 263 317 390 466
#     4  12  28  52  76 118 152 210 254 324 386 466
#     4  12  28  45  82 108 158 199 260 314 392 462
#
# _framework density 25.448585999999999
#
# number of rings (size 3 to 8) (size 9 to 14) (size 15 to 20)
#    0.000    0.000    4.286    4.286    6.000    5.714 
#    0.000    0.000    0.000    0.000    0.000    0.000 
#    0.000    0.000    0.000    0.000    0.000    0.000 
#
# Total GULP energy -78114.849172 kJ/mol
# GULP energy per Si atom -5579.632084 kJ/mol
# Density = 2.539066 g / cm^3
# Si number density = 25.448586 Si / 1000 Ang^3
#
#
#
# Elastic Constant Matrix: (Units=GPa)
#
#
# Indices 1 2 3 4 5 6 
#
# 1 169.9706 37.2458 26.0599 0.0000 43.6191 0.0000
# 2 37.2458 115.2172 31.1498 0.0000 36.4580 0.0000
# 3 26.0599 31.1498 99.9005 0.0000 32.9305 0.0000
# 4 0.0000 0.0000 0.0000 89.8325 0.0000 274.8978
# 5 43.6191 36.4580 32.9305 0.0000 43.7404 0.0000
# 6 0.0000 0.0000 0.0000 274.8978 0.0000 2113.3117
#
#
#
# Elastic Compliance Matrix: (Units=1/GPa)
#
#
# Indices 1 2 3 4 5 6 
#
# 1 0.007946 -0.000115 0.000723 0.000000 -0.008373 0.000000
# 2 -0.000115 0.011815 -0.000593 0.000000 -0.009288 0.000000
# 3 0.000723 -0.000593 0.013409 0.000000 -0.010322 0.000000
# 4 0.000000 0.000000 0.000000 0.018493 0.000000 -0.002406
# 5 -0.008373 -0.009288 -0.010322 0.000000 0.046724 0.000000
# 6 0.000000 0.000000 0.000000 -0.002406 0.000000 0.000786
#
#
# Mechanical properties :
#
#
# Convention : Reuss Voigt Hill
#
# Bulk Modulus (GPa) = 30.11940 63.77771 46.94855
# Shear Modulus (GPa) = 45.36791 468.75243 257.06017
#
# Velocity S-wave (km/s) = 4.22682 13.58660 10.06135
# Velocity P-wave (km/s) = 5.97347 16.46947 12.38802
#
# Compressibility (1/GPa) = 0.03320119
#
# Stress axis : x y z
#
# Youngs Moduli (GPa) = 125.84277 84.63486 74.57914
#
# Poissons Ratio (x) = 0.00972 -0.05391
# Poissons Ratio (y) = 0.01445 0.04420
# Poissons Ratio (z) = -0.09097 0.05017
#
# Static dielectric constant tensor:
#      x y z
#    x 2.077460 0.000000 -0.155710 
#    y 0.000000 1.987900 0.000000 
#    z -0.155710 0.000000 2.083820 
# 
# From -- ./inp_files/3626.got.cif
#   From: 2010.05.17/outbox.cif.g08.bks.cpg/sg15_2_cif.got.tgz:3626.got - 2010.06.03 18:47:42.
