data_PCOD9308948
_publ_section_title
;
Structure prediction by ZEFSAII (Michael W. Deem and Ramdas Pophale) SiO2 
 PCOD9308948
Probable space group: C 2/C
;
_chemical_formula_sum "Si O2"
_cell_formula_units_Z 16
_cell_length_a 15.000000
_cell_length_b 15.000000
_cell_length_c 21.000000
_cell_angle_alpha 90.000000
_cell_angle_beta 160.000000
_cell_angle_gamma 90.000000
_cell_volume 1616.045177
_symmetry_space_group_name_H-M "C 2/C"
_symmetry_group_IT_number 15
_symmetry_cell_setting 'monoclinic'
loop_
_space_group_symop_operation_xyz
x,y,z
-x,y,1/2-z
-x,-y,-z
x,-y,1/2+z
1/2+x,1/2+y,z
1/2-x,1/2+y,1/2-z
1/2-x,1/2-y,-z
1/2+x,1/2-y,1/2+z
loop_
_atom_site_type_symbol
_atom_site_label
_atom_site_fract_x
_atom_site_fract_y
_atom_site_fract_z
Si Si1 0.190768 0.654517 0.232227
Si Si2 0.693264 0.679889 0.047761
Si Si3 0.776543 0.037464 0.545445
Si Si4 0.093652 0.841236 0.885938
O O1 0.344596 0.656105 0.402986
O O2 0.370851 0.653519 0.290757
O O3 0.003350 0.741390 0.102388
O O4 0.991776 0.572006 0.103802
O O5 0.000000 0.708007 0.250000
O O6 0.666348 0.600520 0.977744
O O7 0.000000 0.044712 0.750000
O O8 0.754726 0.935331 0.508227
O O9 0.000000 0.838652 0.750000
O O10 0.250000 0.750000 0.000000
#
# Coordination Sequence:
#
# PCOD9308948 Si02
#       4
#     8   8   8   8
#     4  11  21  38  63  87 119 157 189 242 297 335
#     4  10  20  36  63  92 117 150 196 242 287 348
#     4  10  22  39  60  89 119 152 198 240 286 351
#     4  11  26  42  59  86 119 156 198 241 290 350
#
# _framework density 9.9007129999999997
#
# number of rings (size 3 to 8) (size 9 to 14) (size 15 to 20)
#    0.000    1.500    0.000    6.750    0.000   10.000 
#    0.000    0.000    0.000    0.000    0.000    0.000 
#    0.000    0.000    0.000    0.000    0.000    0.000 
#
# Total GULP energy -89390.920120 kJ/mol
# GULP energy per Si atom -5586.932508 kJ/mol
# Density = 0.987818 g / cm^3
# Si number density = 9.900713 Si / 1000 Ang^3
#
#
#
# Elastic Constant Matrix: (Units=GPa)
#
#
# Indices 1 2 3 4 5 6 
#
# 1 200.9208 75.0937 51.3156 -0.0035 3.3552 -0.0071
# 2 75.0937 193.6357 64.4443 0.0127 19.8371 0.0176
# 3 51.3156 64.4443 61.8921 0.0062 -8.6423 0.0230
# 4 -0.0035 0.0127 0.0062 32.4696 0.0068 -9.8917
# 5 3.3552 19.8371 -8.6423 0.0068 38.5681 -0.0036
# 6 -0.0071 0.0176 0.0230 -9.8917 -0.0036 19.0193
#
#
#
# Elastic Compliance Matrix: (Units=1/GPa)
#
#
# Indices 1 2 3 4 5 6 
#
# 1 0.006508 -0.000845 -0.004681 0.000006 -0.001180 0.000012
# 2 -0.000845 0.009699 -0.010411 0.000000 -0.007248 0.000002
# 3 -0.004681 -0.010411 0.032706 -0.000017 0.013091 -0.000038
# 4 0.000006 0.000000 -0.000017 0.036596 -0.000009 0.019033
# 5 -0.001180 -0.007248 0.013091 -0.000009 0.032692 -0.000008
# 6 0.000012 0.000002 -0.000038 0.019033 -0.000008 0.062477
#
#
# Mechanical properties :
#
#
# Convention : Reuss Voigt Hill
#
# Bulk Modulus (GPa) = 58.68478 93.12842 75.90660
# Shear Modulus (GPa) = 22.91127 35.71774 29.31450
#
# Velocity S-wave (km/s) = 3.40524 4.25172 3.85180
# Velocity P-wave (km/s) = 6.72025 8.44015 7.62882
#
# Compressibility (1/GPa) = 0.01704019
#
# Stress axis : x y z
#
# Youngs Moduli (GPa) = 153.65298 103.09829 30.57533
#
# Poissons Ratio (x) = 0.08714 0.14312
# Poissons Ratio (y) = 0.12986 0.31831
# Poissons Ratio (z) = 0.71922 1.07334
#
# Static dielectric constant tensor:
#      x y z
#    x 1.700170 0.000000 -0.008580 
#    y 0.000000 1.713140 -0.000040 
#    z -0.008580 -0.000040 1.703620 
# 
# From -- ./inp_files/37386.got.cif
#   From: 2010.05.17/outbox.ucp.g08.bks.cvg/sg15_19_cif.got.tgz:37386.got - 2010.06.11 12:40:34.
