data_PCOD9308449
_publ_section_title
;
Structure prediction by ZEFSAII (Michael W. Deem and Ramdas Pophale) SiO2 
 PCOD9308449
Probable space group: C 2/C
;
_chemical_formula_sum "Si O2"
_cell_formula_units_Z 32
_cell_length_a 24.037436
_cell_length_b 9.582000
_cell_length_c 12.467686
_cell_angle_alpha 90.000000
_cell_angle_beta 21.355285
_cell_angle_gamma 90.000000
_cell_volume 1045.708272
_symmetry_space_group_name_H-M "C 2/C"
_symmetry_group_IT_number 15
_symmetry_cell_setting 'monoclinic'
loop_
_space_group_symop_operation_xyz
x,y,z
-x,y,1/2-z
-x,-y,-z
x,-y,1/2+z
1/2+x,1/2+y,z
1/2-x,1/2+y,1/2-z
1/2-x,1/2-y,-z
1/2+x,1/2-y,1/2+z
loop_
_atom_site_type_symbol
_atom_site_label
_atom_site_fract_x
_atom_site_fract_y
_atom_site_fract_z
Si Si1 0.469472 0.016283 0.917855
Si Si2 0.032983 0.209652 0.417696
Si Si3 0.133786 0.777352 0.085445
Si Si4 0.295411 0.690563 0.593192
O O1 0.422268 0.117966 0.291974
O O2 0.299609 0.954686 0.229225
O O3 0.500000 0.095571 0.750000
O O4 0.514624 0.125088 0.926699
O O5 0.184884 0.205720 0.220117
O O6 0.893391 0.160354 0.745737
O O7 0.070357 0.152017 0.232323
O O8 0.000000 0.838367 0.250000
O O9 0.276027 0.752748 0.749474
#
# Coordination Sequence:
#
# PCOD9308449 Si02
#       4
#     8   8   8   8
#     4   8  14  23  35  55  83 107 134 172 206 248
#     4   9  13  21  38  55  79 112 135 166 217 249
#     4   7  12  21  32  52  79 100 129 170 200 239
#     4   8  14  21  34  59  82 103 138 176 205 246
#
# _framework density 30.601271000000001
#
# number of rings (size 3 to 8) (size 9 to 14) (size 15 to 20)
#    0.000    5.000    0.000    3.000    0.000    0.000 
#    0.000    0.000    0.000    1.500    0.000    7.000 
#    0.000   60.000    0.000    7.500    0.000    0.000 
#
# Total GULP energy -89291.895293 kJ/mol
# GULP energy per Si atom -5580.743456 kJ/mol
# Density = 3.053162 g / cm^3
# Si number density = 30.601271 Si / 1000 Ang^3
#
#
#
# Elastic Constant Matrix: (Units=GPa)
#
#
# Indices 1 2 3 4 5 6 
#
# 1 123.1208 8.8141 82.7794 0.0000 56.9990 0.0000
# 2 8.8141 72.1121 21.7038 0.0000 8.8018 0.0000
# 3 82.7794 21.7038 378.2634 0.0000 61.9040 0.0000
# 4 0.0000 0.0000 0.0000 18.8164 0.0000 18.6849
# 5 56.9990 8.8018 61.9040 0.0000 90.2000 0.0000
# 6 0.0000 0.0000 0.0000 18.6849 0.0000 31.0887
#
#
#
# Elastic Compliance Matrix: (Units=1/GPa)
#
#
# Indices 1 2 3 4 5 6 
#
# 1 0.012284 -0.000212 -0.001587 0.000000 -0.006653 0.000000
# 2 -0.000212 0.014184 -0.000634 0.000000 -0.000815 0.000000
# 3 -0.001587 -0.000634 0.003214 0.000000 -0.001141 0.000000
# 4 0.000000 0.000000 0.000000 0.131815 0.000000 -0.079224
# 5 -0.006653 -0.000815 -0.001141 0.000000 0.016153 0.000000
# 6 0.000000 0.000000 0.000000 -0.079224 0.000000 0.079781
#
#
# Mechanical properties :
#
#
# Convention : Reuss Voigt Hill
#
# Bulk Modulus (GPa) = 40.29732 88.89900 64.59816
# Shear Modulus (GPa) = 18.47954 58.70094 38.59024
#
# Velocity S-wave (km/s) = 2.46007 4.38454 3.55500
# Velocity P-wave (km/s) = 4.61154 7.39906 6.16492
#
# Compressibility (1/GPa) = 0.02481554
#
# Stress axis : x y z
#
# Youngs Moduli (GPa) = 81.40390 70.50441 311.12458
#
# Poissons Ratio (x) = 0.01493 0.49390
# Poissons Ratio (y) = 0.01723 0.19728
# Poissons Ratio (z) = 0.12923 0.04471
#
# Static dielectric constant tensor:
#      x y z
#    x 2.491520 0.000000 0.014070 
#    y 0.000000 2.413410 0.000000 
#    z 0.014070 0.000000 2.525740 
# 
# From -- ./inp_files/122876.got.cif
#   From: 2010.05.17/outbox.cif.g08.bks.cpg/sg15_62_cif.got.tgz:122876.got - 2010.06.03 18:47:42.
