data_PCOD9308027
_publ_section_title
;
Structure prediction by ZEFSAII (Michael W. Deem and Ramdas Pophale) SiO2 
 PCOD9308027
Probable space group: C 2/C
;
_chemical_formula_sum "Si O2"
_cell_formula_units_Z 40
_cell_length_a 13.252215
_cell_length_b 8.523513
_cell_length_c 15.894219
_cell_angle_alpha 90.000000
_cell_angle_beta 114.012098
_cell_angle_gamma 90.000000
_cell_volume 1639.968916
_symmetry_space_group_name_H-M "C 2/C"
_symmetry_group_IT_number 15
_symmetry_cell_setting 'monoclinic'
loop_
_space_group_symop_operation_xyz
x,y,z
-x,y,1/2-z
-x,-y,-z
x,-y,1/2+z
1/2+x,1/2+y,z
1/2-x,1/2+y,1/2-z
1/2-x,1/2-y,-z
1/2+x,1/2-y,1/2+z
loop_
_atom_site_type_symbol
_atom_site_label
_atom_site_fract_x
_atom_site_fract_y
_atom_site_fract_z
Si Si1 0.114838 0.133632 0.277027
Si Si2 0.229002 0.161969 0.768144
Si Si3 0.543545 0.652306 0.566156
Si Si4 0.848421 0.309457 0.592825
Si Si5 0.631435 0.169813 0.945412
O O1 0.155363 0.259309 0.220152
O O2 0.093385 0.239406 0.350518
O O3 0.000000 0.037051 0.250000
O O4 0.215116 0.006780 0.309961
O O5 0.155935 0.133314 0.658678
O O6 0.178334 0.282712 0.818489
O O7 0.500000 0.500000 0.500000
O O8 0.452712 0.708918 0.600312
O O9 0.561360 0.786369 0.502965
O O10 0.750000 0.250000 0.500000
O O11 0.864353 0.489382 0.574961
O O12 0.750000 0.250000 0.000000
#
# Coordination Sequence:
#
# PCOD9308027 Si02
#       5
#     8   8   8   8   8
#     4  12  27  48  79 112 158 201 265 327 398 469
#     4  12  27  49  78 115 157 207 265 329 395 480
#     4  12  26  49  80 109 158 205 265 330 404 475
#     4  12  28  46  76 110 152 206 263 323 400 473
#     4  12  25  49  71 108 151 199 257 327 394 471
#
# _framework density 24.390703999999999
#
# number of rings (size 3 to 8) (size 9 to 14) (size 15 to 20)
#    0.000    0.000    2.000    8.400    5.600    3.200 
#    0.000    1.000    0.000    0.000    0.000    0.000 
#    0.000    0.000    0.000    0.000    0.000    0.000 
#
# Total GULP energy -111833.226838 kJ/mol
# GULP energy per Si atom -5591.661342 kJ/mol
# Density = 2.433519 g / cm^3
# Si number density = 24.390704 Si / 1000 Ang^3
#
#
#
# Elastic Constant Matrix: (Units=GPa)
#
#
# Indices 1 2 3 4 5 6 
#
# 1 151.0113 28.9416 37.9754 0.0000 -29.3762 0.0000
# 2 28.9416 160.5626 51.9849 0.0000 -1.2341 0.0000
# 3 37.9754 51.9849 116.7250 0.0000 -30.6164 0.0000
# 4 0.0000 0.0000 0.0000 41.9035 0.0000 -12.8765
# 5 -29.3762 -1.2341 -30.6164 0.0000 36.5589 0.0000
# 6 0.0000 0.0000 0.0000 -12.8765 0.0000 37.1783
#
#
#
# Elastic Compliance Matrix: (Units=1/GPa)
#
#
# Indices 1 2 3 4 5 6 
#
# 1 0.008179 -0.001268 -0.000492 0.000000 0.006117 0.000000
# 2 -0.001268 0.007771 -0.004161 0.000000 -0.004241 0.000000
# 3 -0.000492 -0.004161 0.013378 0.000000 0.010668 0.000000
# 4 0.000000 0.000000 0.000000 0.026707 0.000000 0.009250
# 5 0.006117 -0.004241 0.010668 0.000000 0.041060 0.000000
# 6 0.000000 0.000000 0.000000 0.009250 0.000000 0.030101
#
#
# Mechanical properties :
#
#
# Convention : Reuss Voigt Hill
#
# Bulk Modulus (GPa) = 57.18432 74.01142 65.59787
# Shear Modulus (GPa) = 34.51469 43.75459 39.13464
#
# Velocity S-wave (km/s) = 3.76583 4.24005 4.00995
# Velocity P-wave (km/s) = 6.51189 7.37432 6.95648
#
# Compressibility (1/GPa) = 0.01748731
#
# Stress axis : x y z
#
# Youngs Moduli (GPa) = 122.26939 128.67968 74.74711
#
# Poissons Ratio (x) = 0.16317 0.03674
# Poissons Ratio (y) = 0.15504 0.31102
# Poissons Ratio (z) = 0.06010 0.53542
#
# Static dielectric constant tensor:
#      x y z
#    x 2.085980 0.000000 0.255250 
#    y 0.000000 1.822310 0.000000 
#    z 0.255250 0.000000 2.300290 
# 
# From -- ./inp_files/150792.got.cif
#   From: 2010.05.17/outbox.cif.g08.bks.cpg/sg15_76_cif.got.tgz:150792.got - 2010.06.03 18:47:42.
