data_PCOD9308890
_publ_section_title
;
Structure prediction by ZEFSAII (Michael W. Deem and Ramdas Pophale) SiO2 
 PCOD9308890
Probable space group: C 2/C
;
_chemical_formula_sum "Si O2"
_cell_formula_units_Z 24
_cell_length_a 30.000000
_cell_length_b 15.000000
_cell_length_c 9.000000
_cell_angle_alpha 90.000000
_cell_angle_beta 140.000000
_cell_angle_gamma 90.000000
_cell_volume 2603.289819
_symmetry_space_group_name_H-M "C 2/C"
_symmetry_group_IT_number 15
_symmetry_cell_setting 'monoclinic'
loop_
_space_group_symop_operation_xyz
x,y,z
-x,y,1/2-z
-x,-y,-z
x,-y,1/2+z
1/2+x,1/2+y,z
1/2-x,1/2+y,1/2-z
1/2-x,1/2-y,-z
1/2+x,1/2-y,1/2+z
loop_
_atom_site_type_symbol
_atom_site_label
_atom_site_fract_x
_atom_site_fract_y
_atom_site_fract_z
Si Si1 0.797763 0.435453 0.070099
Si Si2 0.670806 0.239246 0.729769
Si Si3 0.144040 0.089466 0.322064
Si Si4 0.080393 0.924482 0.988796
Si Si5 0.796977 0.383974 0.715352
Si Si6 0.844376 0.217603 0.659805
O O1 0.846389 0.361124 0.268846
O O2 0.819380 0.534884 0.167117
O O3 0.723754 0.428262 0.970745
O O4 0.795867 0.412575 0.887923
O O5 0.628643 0.313888 0.711634
O O6 0.664252 0.253197 0.535257
O O7 0.750000 0.250000 0.000000
O O8 0.126009 0.086132 0.451969
O O9 0.102563 0.013164 0.131636
O O10 0.000000 0.930718 0.750000
O O11 0.091076 0.841986 0.128781
O O12 0.838996 0.297479 0.765611
O O13 0.719247 0.351447 0.479948
#
# Coordination Sequence:
#
# PCOD9308890 Si02
#       6
#     8   8   8   8   8   8
#     4  11  20  35  54  88 115 151 176 231 294 354
#     4  10  20  35  56  82 113 146 185 231 296 344
#     4  11  21  36  53  79 112 151 193 235 272 339
#     4  12  25  39  56  79 114 162 203 235 274 325
#     4  11  21  32  57  83 119 144 184 227 298 345
#     4  11  22  36  54  83 114 153 190 236 280 343
#
# _framework density 9.2191039999999997
#
# number of rings (size 3 to 8) (size 9 to 14) (size 15 to 20)
#    0.000    1.000    5.000    4.500    7.000    0.000 
#    0.000    0.000    0.000    0.000    0.000   11.667 
#    0.000    0.000    0.000    0.000    0.000    0.000 
#
# Total GULP energy -133718.107080 kJ/mol
# GULP energy per Si atom -5571.587795 kJ/mol
# Density = 0.919812 g / cm^3
# Si number density = 9.219104 Si / 1000 Ang^3
#
#
#
# Elastic Constant Matrix: (Units=GPa)
#
#
# Indices 1 2 3 4 5 6 
#
# 1 75.3099 28.6512 35.6658 0.0000 -41.1175 0.0000
# 2 28.6512 150.6517 42.5444 0.0000 -18.3367 0.0000
# 3 35.6658 42.5444 71.1037 0.0000 -24.6358 0.0000
# 4 0.0000 0.0000 0.0000 26.4697 0.0000 -19.1555
# 5 -41.1175 -18.3367 -24.6358 0.0000 33.5260 0.0000
# 6 0.0000 0.0000 0.0000 -19.1555 0.0000 19.4940
#
#
#
# Elastic Compliance Matrix: (Units=1/GPa)
#
#
# Indices 1 2 3 4 5 6 
#
# 1 0.041253 -0.001050 -0.003668 0.000000 0.047326 0.000000
# 2 -0.001050 0.008047 -0.004306 0.000000 -0.000050 0.000000
# 3 -0.003668 -0.004306 0.021607 0.000000 0.009024 0.000000
# 4 0.000000 0.000000 0.000000 0.130773 0.000000 0.128503
# 5 0.047326 -0.000050 0.009024 0.000000 0.094473 0.000000
# 6 0.000000 0.000000 0.000000 0.128503 0.000000 0.177569
#
#
# Mechanical properties :
#
#
# Convention : Reuss Voigt Hill
#
# Bulk Modulus (GPa) = 18.91744 56.75424 37.83584
# Shear Modulus (GPa) = 9.81567 28.57820 19.19694
#
# Velocity S-wave (km/s) = 2.30979 3.94120 3.23019
# Velocity P-wave (km/s) = 4.17081 7.18042 5.87171
#
# Compressibility (1/GPa) = 0.05286126
#
# Stress axis : x y z
#
# Youngs Moduli (GPa) = 24.24048 124.26427 46.28203
#
# Poissons Ratio (x) = 0.13043 0.16974
# Poissons Ratio (y) = 0.02544 0.19929
# Poissons Ratio (z) = 0.08890 0.53507
#
# Static dielectric constant tensor:
#      x y z
#    x 1.631150 0.000000 0.003850 
#    y 0.000000 1.745000 0.000000 
#    z 0.003850 0.000000 1.644880 
# 
# From -- ./inp_files/70014.got.cif
#   From: 2010.05.17/outbox.ucp.g08.bks.cvg/sg15_36_cif.got.tgz:70014.got - 2010.06.11 12:40:34.
