data_PCOD9308932
_publ_section_title
;
Structure prediction by ZEFSAII (Michael W. Deem and Ramdas Pophale) SiO2 
 PCOD9308932
Probable space group: C 2/C
;
_chemical_formula_sum "Si O2"
_cell_formula_units_Z 32
_cell_length_a 24.000000
_cell_length_b 18.000000
_cell_length_c 15.000000
_cell_angle_alpha 90.000000
_cell_angle_beta 150.000000
_cell_angle_gamma 90.000000
_cell_volume 3240.000000
_symmetry_space_group_name_H-M "C 2/C"
_symmetry_group_IT_number 15
_symmetry_cell_setting 'monoclinic'
loop_
_space_group_symop_operation_xyz
x,y,z
-x,y,1/2-z
-x,-y,-z
x,-y,1/2+z
1/2+x,1/2+y,z
1/2-x,1/2+y,1/2-z
1/2-x,1/2-y,-z
1/2+x,1/2-y,1/2+z
loop_
_atom_site_type_symbol
_atom_site_label
_atom_site_fract_x
_atom_site_fract_y
_atom_site_fract_z
Si Si1 0.634904 0.112347 0.815270
Si Si2 0.761668 0.690207 0.214024
Si Si3 0.471708 0.125706 0.430735
Si Si4 0.327334 0.957147 0.596773
Si Si5 0.828250 0.650290 0.929866
Si Si6 0.876157 0.057444 0.556633
Si Si7 0.372357 0.771196 0.056003
Si Si8 0.327610 0.604601 0.939396
O O1 0.522694 0.116296 0.600513
O O2 0.673522 0.187087 0.919333
O O3 0.723942 0.094932 0.862001
O O4 0.643037 0.041116 0.891244
O O5 0.872940 0.684483 0.308156
O O6 0.695501 0.762727 0.090246
O O7 0.803565 0.700104 0.374356
O O8 0.689531 0.615795 0.097556
O O9 0.408604 0.058121 0.294262
O O10 0.568495 0.146244 0.495781
O O11 0.346069 0.897891 0.543728
O O12 0.202683 0.948987 0.464470
O O13 0.721832 0.618287 0.727527
O O14 0.000000 0.084884 0.750000
O O15 0.888780 0.974438 0.532117
O O16 0.500000 0.796524 0.250000
O O17 0.378621 0.682409 0.045978
#
# Coordination Sequence:
#
# PCOD9308932 Si02
#       8
#     8   8   8   8   8   8   8   8
#     4  10  20  36  60  88 119 158 197 248 306 355
#     4  10  23  39  59  92 120 157 204 249 290 368
#     4  10  20  39  58  88 128 159 193 249 311 351
#     4  10  22  37  60  90 120 157 207 244 296 368
#     4  10  22  38  60  89 121 162 197 249 299 349
#     4  10  22  41  63  82 121 164 198 245 306 349
#     4  11  20  35  62  90 118 151 202 247 301 357
#     4   9  21  39  58  83 122 157 197 247 302 356
#
# _framework density 9.8765429999999999
#
# number of rings (size 3 to 8) (size 9 to 14) (size 15 to 20)
#    0.000    2.000    1.250    1.500    1.750    6.000 
#    0.000    0.625    0.000    0.000    0.000    0.000 
#    0.000    0.000    0.000    0.000    0.000    0.000 
#
# Total GULP energy -178176.751804 kJ/mol
# GULP energy per Si atom -5568.023494 kJ/mol
# Density = 0.985406 g / cm^3
# Si number density = 9.876543 Si / 1000 Ang^3
#
#
#
# Elastic Constant Matrix: (Units=GPa)
#
#
# Indices 1 2 3 4 5 6 
#
# 1 50.0592 35.4123 29.6386 0.0000 -5.8428 0.0000
# 2 35.4123 133.6512 54.5865 0.0000 -15.8544 0.0000
# 3 29.6386 54.5865 107.5455 0.0000 -4.6903 0.0000
# 4 0.0000 0.0000 0.0000 19.1335 0.0000 -3.7762
# 5 -5.8428 -15.8544 -4.6903 0.0000 36.2253 0.0000
# 6 0.0000 0.0000 0.0000 -3.7762 0.0000 22.9066
#
#
#
# Elastic Compliance Matrix: (Units=1/GPa)
#
#
# Indices 1 2 3 4 5 6 
#
# 1 0.026411 -0.004886 -0.004733 0.000000 0.001509 0.000000
# 2 -0.004886 0.010814 -0.003993 0.000000 0.003428 0.000000
# 3 -0.004733 -0.003993 0.012591 0.000000 -0.000881 0.000000
# 4 0.000000 0.000000 0.000000 0.054022 0.000000 0.008906
# 5 0.001509 0.003428 -0.000881 0.000000 0.029235 0.000000
# 6 0.000000 0.000000 0.000000 0.008906 0.000000 0.045124
#
#
# Mechanical properties :
#
#
# Convention : Reuss Voigt Hill
#
# Bulk Modulus (GPa) = 44.26201 58.94786 51.60494
# Shear Modulus (GPa) = 23.47963 27.09431 25.28697
#
# Velocity S-wave (km/s) = 3.45143 3.70760 3.58180
# Velocity P-wave (km/s) = 6.19189 6.94518 6.57932
#
# Compressibility (1/GPa) = 0.02259274
#
# Stress axis : x y z
#
# Youngs Moduli (GPa) = 37.86307 92.47128 79.42176
#
# Poissons Ratio (x) = 0.45180 0.37590
# Poissons Ratio (y) = 0.18499 0.31712
# Poissons Ratio (z) = 0.17920 0.36923
#
# Static dielectric constant tensor:
#      x y z
#    x 1.723600 0.000000 0.022330 
#    y 0.000000 1.744350 0.000000 
#    z 0.022330 0.000000 1.709110 
# 
# From -- ./inp_files/155191.got.cif
#   From: 2010.05.17/outbox.ucp.g08.bks.cvg/sg15_78_cif.got.tgz:155191.got - 2010.06.11 12:40:34.
