data_PCOD9308424
_publ_section_title
;
Structure prediction by ZEFSAII (Michael W. Deem and Ramdas Pophale) SiO2 
 PCOD9308424
Probable space group: C 2/C
;
_chemical_formula_sum "Si O2"
_cell_formula_units_Z 28
_cell_length_a 15.911095
_cell_length_b 14.206919
_cell_length_c 5.762087
_cell_angle_alpha 90.000000
_cell_angle_beta 126.903390
_cell_angle_gamma 90.000000
_cell_volume 1041.547917
_symmetry_space_group_name_H-M "C 2/C"
_symmetry_group_IT_number 15
_symmetry_cell_setting 'monoclinic'
loop_
_space_group_symop_operation_xyz
x,y,z
-x,y,1/2-z
-x,-y,-z
x,-y,1/2+z
1/2+x,1/2+y,z
1/2-x,1/2+y,1/2-z
1/2-x,1/2-y,-z
1/2+x,1/2-y,1/2+z
loop_
_atom_site_type_symbol
_atom_site_label
_atom_site_fract_x
_atom_site_fract_y
_atom_site_fract_z
Si Si1 0.104089 0.084978 0.804189
Si Si2 0.383270 0.226635 0.950667
Si Si3 0.000000 0.781787 0.750000
Si Si4 0.184133 0.466150 0.983915
O O1 0.150848 0.167172 0.050129
O O2 0.058029 0.150783 0.525377
O O3 0.191737 0.015075 0.854210
O O4 0.000000 0.042759 0.750000
O O5 0.500000 0.212119 0.250000
O O6 0.408936 0.221033 0.721405
O O7 0.317471 0.144007 0.951467
O O8 0.139598 0.512552 0.149762
#
# Coordination Sequence:
#
# PCOD9308424 Si02
#       4
#     8   8   4   8
#     4   9  21  42  68  92 118 168 218 262 305 368
#     4   9  21  42  68  92 118 168 218 262 305 368
#     4   8  18  38  72  86 116 162 228 262 302 348
#     4  12  29  41  60  98 136 168 202 254 325 382
#
# _framework density 26.883067
#
# number of rings (size 3 to 8) (size 9 to 14) (size 15 to 20)
#    0.000    2.857    0.000    0.857   16.000    3.429 
#    0.000    0.000    0.000    0.000    0.000    0.000 
#    0.000    0.000    0.000    0.000    0.000    0.000 
#
# Total GULP energy -78183.435644 kJ/mol
# GULP energy per Si atom -5584.531117 kJ/mol
# Density = 2.682188 g / cm^3
# Si number density = 26.883067 Si / 1000 Ang^3
#
#
#
# Elastic Constant Matrix: (Units=GPa)
#
#
# Indices 1 2 3 4 5 6 
#
# 1 120.2304 40.7696 38.6653 0.0000 -51.0592 0.0000
# 2 40.7696 130.6319 19.9507 0.0000 -30.3885 0.0000
# 3 38.6653 19.9507 71.2377 0.0000 -41.3181 0.0000
# 4 0.0000 0.0000 0.0000 24.0106 0.0000 -10.6376
# 5 -51.0592 -30.3885 -41.3181 0.0000 57.4567 0.0000
# 6 0.0000 0.0000 0.0000 -10.6376 0.0000 42.1855
#
#
#
# Elastic Compliance Matrix: (Units=1/GPa)
#
#
# Indices 1 2 3 4 5 6 
#
# 1 0.013682 -0.001656 -0.000718 0.000000 0.010767 0.000000
# 2 -0.001656 0.008936 0.000487 0.000000 0.003605 0.000000
# 3 -0.000718 0.000487 0.024138 0.000000 0.016978 0.000000
# 4 0.000000 0.000000 0.000000 0.046886 0.000000 0.011823
# 5 0.010767 0.003605 0.016978 0.000000 0.041088 0.000000
# 6 0.000000 0.000000 0.000000 0.011823 0.000000 0.026686
#
#
# Mechanical properties :
#
#
# Convention : Reuss Voigt Hill
#
# Bulk Modulus (GPa) = 23.26500 57.87459 40.56979
# Shear Modulus (GPa) = 27.85248 39.57818 33.71533
#
# Velocity S-wave (km/s) = 3.22228 3.84113 3.54524
# Velocity P-wave (km/s) = 4.74521 6.42241 5.64644
#
# Compressibility (1/GPa) = 0.04298303
#
# Stress axis : x y z
#
# Youngs Moduli (GPa) = 73.08841 111.90539 41.42883
#
# Poissons Ratio (x) = 0.18530 0.02973
# Poissons Ratio (y) = 0.12102 -0.02018
# Poissons Ratio (z) = 0.05245 -0.05450
#
# Static dielectric constant tensor:
#      x y z
#    x 2.164480 0.000000 -0.122000 
#    y 0.000000 2.045340 0.000000 
#    z -0.122000 0.000000 2.331510 
# 
# From -- ./inp_files/6266.got.cif
#   From: 2010.05.17/outbox.cif.g08.bks.cpg/sg15_4_cif.got.tgz:6266.got - 2010.06.03 18:47:42.
