data_PCOD9308271
_publ_section_title
;
Structure prediction by ZEFSAII (Michael W. Deem and Ramdas Pophale) SiO2 
 PCOD9308271
Probable space group: C 2/C
;
_chemical_formula_sum "Si O2"
_cell_formula_units_Z 36
_cell_length_a 4.756904
_cell_length_b 18.905551
_cell_length_c 13.773365
_cell_angle_alpha 90.000000
_cell_angle_beta 91.774139
_cell_angle_gamma 90.000000
_cell_volume 1238.070991
_symmetry_space_group_name_H-M "C 2/C"
_symmetry_group_IT_number 15
_symmetry_cell_setting 'monoclinic'
loop_
_space_group_symop_operation_xyz
x,y,z
-x,y,1/2-z
-x,-y,-z
x,-y,1/2+z
1/2+x,1/2+y,z
1/2-x,1/2+y,1/2-z
1/2-x,1/2-y,-z
1/2+x,1/2-y,1/2+z
loop_
_atom_site_type_symbol
_atom_site_label
_atom_site_fract_x
_atom_site_fract_y
_atom_site_fract_z
Si Si1 0.177576 0.219542 0.151683
Si Si2 0.500000 0.655958 0.750000
Si Si3 0.998868 0.428497 0.863331
Si Si4 0.923828 0.860039 0.497442
Si Si5 0.436160 0.085306 0.879239
O O1 0.808697 0.361486 0.091509
O O2 0.000000 0.219055 0.250000
O O3 0.340819 0.146406 0.139964
O O4 0.994838 0.213834 0.051587
O O5 0.388005 0.715244 0.669268
O O6 0.749739 0.600412 0.781047
O O7 0.000000 0.444081 0.750000
O O8 0.065495 0.508217 0.897239
O O9 0.715980 0.406985 0.917779
O O10 0.198701 0.899638 0.459184
#
# Coordination Sequence:
#
# PCOD9308271 Si02
#       5
#     8   4   8   8   8
#     4  12  26  52  88 120 169 222 286 333 422 513
#     4  12  32  58  76 126 172 234 272 344 426 506
#     4  12  26  51  85 127 161 224 271 348 419 504
#     4  12  27  53  82 130 162 218 281 350 413 499
#     4  12  32  49  85 121 176 211 281 354 418 484
#
# _framework density 29.077494999999999
#
# number of rings (size 3 to 8) (size 9 to 14) (size 15 to 20)
#    0.000    0.000    5.556    1.333    9.333    1.778 
#    0.000    0.000    0.000    0.000    0.000    0.000 
#    0.000    0.000    0.000    0.000    0.000    0.000 
#
# Total GULP energy -100524.356403 kJ/mol
# GULP energy per Si atom -5584.686467 kJ/mol
# Density = 2.901131 g / cm^3
# Si number density = 29.077495 Si / 1000 Ang^3
#
#
#
# Elastic Constant Matrix: (Units=GPa)
#
#
# Indices 1 2 3 4 5 6 
#
# 1 179.5447 83.7778 5.9867 0.0000 -1.0799 0.0000
# 2 83.7778 235.8547 24.2588 0.0000 15.2654 0.0000
# 3 5.9867 24.2588 143.0316 0.0000 21.3234 0.0000
# 4 0.0000 0.0000 0.0000 14.0001 0.0000 20.7677
# 5 -1.0799 15.2654 21.3234 0.0000 60.8365 0.0000
# 6 0.0000 0.0000 0.0000 20.7677 0.0000 58.1094
#
#
#
# Elastic Compliance Matrix: (Units=1/GPa)
#
#
# Indices 1 2 3 4 5 6 
#
# 1 0.006708 -0.002432 0.000024 0.000000 0.000721 0.000000
# 2 -0.002432 0.005241 -0.000617 0.000000 -0.001142 0.000000
# 3 0.000024 -0.000617 0.007462 0.000000 -0.002460 0.000000
# 4 0.000000 0.000000 0.000000 0.152024 0.000000 -0.054332
# 5 0.000721 -0.001142 -0.002460 0.000000 0.017599 0.000000
# 6 0.000000 0.000000 0.000000 -0.054332 0.000000 0.036627
#
#
# Mechanical properties :
#
#
# Convention : Reuss Voigt Hill
#
# Bulk Modulus (GPa) = 74.83990 87.38640 81.11315
# Shear Modulus (GPa) = 21.17180 56.21638 38.69409
#
# Velocity S-wave (km/s) = 2.70129 4.40173 3.65187
# Velocity P-wave (km/s) = 5.96014 7.48010 6.76295
#
# Compressibility (1/GPa) = 0.01336186
#
# Stress axis : x y z
#
# Youngs Moduli (GPa) = 149.07782 190.80022 134.01526
#
# Poissons Ratio (x) = 0.46400 -0.00325
# Poissons Ratio (y) = 0.36254 0.08267
# Poissons Ratio (z) = -0.00361 0.11770
#
# Static dielectric constant tensor:
#      x y z
#    x -1.800770 0.000000 1.129100 
#    y 0.000000 2.086020 0.000000 
#    z 1.129100 0.000000 2.304650 
# 
# From -- ./inp_files/128781.got.cif
#   From: 2010.05.17/outbox.cif.g08.bks.cpg/sg15_65_cif.got.tgz:128781.got - 2010.06.03 18:47:42.
