data_PCOD9308241
_publ_section_title
;
Structure prediction by ZEFSAII (Michael W. Deem and Ramdas Pophale) SiO2 
 PCOD9308241
Probable space group: C 2/C
;
_chemical_formula_sum "Si O2"
_cell_formula_units_Z 40
_cell_length_a 13.331965
_cell_length_b 7.948460
_cell_length_c 14.676985
_cell_angle_alpha 90.000000
_cell_angle_beta 89.897650
_cell_angle_gamma 90.000000
_cell_volume 1555.296932
_symmetry_space_group_name_H-M "C 2/C"
_symmetry_group_IT_number 15
_symmetry_cell_setting 'monoclinic'
loop_
_space_group_symop_operation_xyz
x,y,z
-x,y,1/2-z
-x,-y,-z
x,-y,1/2+z
1/2+x,1/2+y,z
1/2-x,1/2+y,1/2-z
1/2-x,1/2-y,-z
1/2+x,1/2-y,1/2+z
loop_
_atom_site_type_symbol
_atom_site_label
_atom_site_fract_x
_atom_site_fract_y
_atom_site_fract_z
Si Si1 0.936264 0.653170 0.155192
Si Si2 0.301439 0.167763 0.588043
Si Si3 0.199496 0.928806 0.258502
Si Si4 0.493592 0.693806 0.022383
Si Si5 0.396259 0.222595 0.806365
O O1 0.859390 0.511180 0.112743
O O2 0.870630 0.819146 0.176611
O O3 0.000000 0.628140 0.250000
O O4 0.007828 0.696700 0.069435
O O5 0.250000 0.250000 0.500000
O O6 0.215417 0.168614 0.663344
O O7 0.398192 0.285134 0.587194
O O8 0.313218 0.923409 0.296422
O O9 0.154838 0.107343 0.231173
O O10 0.583012 0.753672 0.087248
O O11 0.500000 0.500000 0.000000
O O12 0.500000 0.200913 0.750000
#
# Coordination Sequence:
#
# PCOD9308241 Si02
#       5
#     8   8   8   8   8
#     4  12  28  50  80 116 160 212 272 338 405 487
#     4  12  27  49  76 116 156 211 270 332 403 486
#     4  12  26  50  80 114 163 212 271 325 411 484
#     4  12  27  49  81 114 165 206 269 341 408 478
#     4  12  26  50  79 120 162 217 267 339 402 480
#
# _framework density 25.718561000000001
#
# number of rings (size 3 to 8) (size 9 to 14) (size 15 to 20)
#    0.000    0.000    4.000    6.000    2.800    2.400 
#    0.000    0.000    0.000    0.000    0.000    0.000 
#    0.000    0.000    0.000    0.000    0.000    0.000 
#
# Total GULP energy -111654.225164 kJ/mol
# GULP energy per Si atom -5582.711258 kJ/mol
# Density = 2.566002 g / cm^3
# Si number density = 25.718561 Si / 1000 Ang^3
#
#
#
# Elastic Constant Matrix: (Units=GPa)
#
#
# Indices 1 2 3 4 5 6 
#
# 1 122.9068 39.9605 37.2593 0.0000 19.2914 0.0000
# 2 39.9605 121.3341 34.5472 0.0000 9.2229 0.0000
# 3 37.2593 34.5472 184.1709 0.0000 30.3101 0.0000
# 4 0.0000 0.0000 0.0000 32.2563 0.0000 -0.4664
# 5 19.2914 9.2229 30.3101 0.0000 61.7624 0.0000
# 6 0.0000 0.0000 0.0000 -0.4664 0.0000 43.0373
#
#
#
# Elastic Compliance Matrix: (Units=1/GPa)
#
#
# Indices 1 2 3 4 5 6 
#
# 1 0.009680 -0.002715 -0.001108 0.000000 -0.002075 0.000000
# 2 -0.002715 0.009485 -0.001236 0.000000 0.000038 0.000000
# 3 -0.001108 -0.001236 0.006308 0.000000 -0.002565 0.000000
# 4 0.000000 0.000000 0.000000 0.031007 0.000000 0.000336
# 5 -0.002075 0.000038 -0.002565 0.000000 0.018092 0.000000
# 6 0.000000 0.000000 0.000000 0.000336 0.000000 0.023239
#
#
# Mechanical properties :
#
#
# Convention : Reuss Voigt Hill
#
# Bulk Modulus (GPa) = 65.12445 72.43845 68.78145
# Shear Modulus (GPa) = 44.22912 48.52087 46.37500
#
# Velocity S-wave (km/s) = 4.15147 4.34822 4.25098
# Velocity P-wave (km/s) = 6.95389 7.31002 7.13417
#
# Compressibility (1/GPa) = 0.01535522
#
# Stress axis : x y z
#
# Youngs Moduli (GPa) = 103.30123 105.42988 158.53209
#
# Poissons Ratio (x) = 0.28625 0.17561
# Poissons Ratio (y) = 0.28047 0.19598
# Poissons Ratio (z) = 0.11443 0.13034
#
# Static dielectric constant tensor:
#      x y z
#    x 2.146700 0.000000 0.158280 
#    y 0.000000 2.092140 0.000000 
#    z 0.158280 0.000000 2.197420 
# 
# From -- ./inp_files/150690.got.cif
#   From: 2010.05.17/outbox.cif.g08.bks.cpg/sg15_76_cif.got.tgz:150690.got - 2010.06.03 18:47:42.
