data_PCOD9308774
_publ_section_title
;
Structure prediction by ZEFSAII (Michael W. Deem and Ramdas Pophale) SiO2 
 PCOD9308774
Probable space group: C 2/C
;
_chemical_formula_sum "Si O2"
_cell_formula_units_Z 28
_cell_length_a 21.000000
_cell_length_b 24.000000
_cell_length_c 18.000000
_cell_angle_alpha 90.000000
_cell_angle_beta 160.000000
_cell_angle_gamma 90.000000
_cell_volume 3102.806740
_symmetry_space_group_name_H-M "C 2/C"
_symmetry_group_IT_number 15
_symmetry_cell_setting 'monoclinic'
loop_
_space_group_symop_operation_xyz
x,y,z
-x,y,1/2-z
-x,-y,-z
x,-y,1/2+z
1/2+x,1/2+y,z
1/2-x,1/2+y,1/2-z
1/2-x,1/2-y,-z
1/2+x,1/2-y,1/2+z
loop_
_atom_site_type_symbol
_atom_site_label
_atom_site_fract_x
_atom_site_fract_y
_atom_site_fract_z
Si Si1 0.385885 0.579897 0.892134
Si Si2 0.226579 0.976789 0.841416
Si Si3 0.006593 0.564524 0.982646
Si Si4 0.520109 0.212040 0.183480
Si Si5 0.000000 0.104758 0.750000
Si Si6 0.333185 0.899649 0.692254
Si Si7 0.000000 0.527936 0.250000
Si Si8 0.120458 0.168942 0.735854
O O1 0.324860 0.532008 0.764824
O O2 0.448424 0.631286 0.908033
O O3 0.197651 0.590024 0.732736
O O4 0.541330 0.558955 0.120509
O O5 0.391400 0.940564 0.983496
O O6 0.317652 0.993834 0.020819
O O7 0.129037 0.593195 0.180662
O O8 0.000000 0.500000 0.000000
O O9 0.500000 0.223002 0.250000
O O10 0.678209 0.166125 0.339581
O O11 0.541279 0.269199 0.162765
O O12 0.337314 0.179237 0.958714
O O13 0.855316 0.071504 0.541801
O O14 0.900330 0.138677 0.707225
O O15 0.473827 0.931149 0.792025
#
# Coordination Sequence:
#
# PCOD9308774 Si02
#       8
#     8   8   8   8   4   8   4   8
#     4  10  20  38  56  74 107 151 189 229 276 330
#     4  10  21  36  59  78 107 146 191 232 286 333
#     4  10  19  36  55  74 102 147 189 224 276 330
#     4  12  21  35  50  72 112 150 185 230 266 318
#     4  12  22  29  48  72 102 148 193 226 258 314
#     4  12  21  34  53  75 111 151 188 225 273 323
#     4  12  20  37  54  84 116 142 185 244 276 330
#     4  12  22  35  49  74 107 149 192 229 270 317
#
# _framework density 9.0240880000000008
#
# number of rings (size 3 to 8) (size 9 to 14) (size 15 to 20)
#    0.000    0.857    7.143    3.000    0.000    2.286 
#    0.000    0.000    0.000    0.000    0.000    0.000 
#    0.000    4.571    0.000    0.000    0.000    0.000 
#
# Total GULP energy -155894.823782 kJ/mol
# GULP energy per Si atom -5567.672278 kJ/mol
# Density = 0.900355 g / cm^3
# Si number density = 9.024088 Si / 1000 Ang^3
#
#
#
# Elastic Constant Matrix: (Units=GPa)
#
#
# Indices 1 2 3 4 5 6 
#
# 1 47.9416 30.5579 13.4974 0.0000 -3.4078 0.0000
# 2 30.5579 65.4505 23.9154 0.0000 -7.5628 0.0000
# 3 13.4974 23.9154 101.3418 -0.0002 -8.5269 -0.0002
# 4 0.0000 0.0000 -0.0002 18.9604 -0.0001 -0.4084
# 5 -3.4078 -7.5628 -8.5269 -0.0001 19.2589 -0.0001
# 6 0.0000 0.0000 -0.0002 -0.4084 -0.0001 24.2429
#
#
#
# Elastic Compliance Matrix: (Units=1/GPa)
#
#
# Indices 1 2 3 4 5 6 
#
# 1 0.029751 -0.013658 -0.000777 0.000000 -0.000443 0.000000
# 2 -0.013658 0.023468 -0.003269 0.000000 0.005352 0.000000
# 3 -0.000777 -0.003269 0.011034 0.000000 0.003464 0.000000
# 4 0.000000 0.000000 0.000000 0.052761 0.000000 0.000889
# 5 -0.000443 0.005352 0.003464 0.000000 0.055481 0.000000
# 6 0.000000 0.000000 0.000000 0.000889 0.000000 0.041264
#
#
# Mechanical properties :
#
#
# Convention : Reuss Voigt Hill
#
# Bulk Modulus (GPa) = 34.66594 38.96391 36.81492
# Shear Modulus (GPa) = 19.32130 22.27667 20.79898
#
# Velocity S-wave (km/s) = 3.27546 3.51706 3.39841
# Velocity P-wave (km/s) = 5.79258 6.17484 5.98676
#
# Compressibility (1/GPa) = 0.02884676
#
# Stress axis : x y z
#
# Youngs Moduli (GPa) = 33.61182 42.61081 90.62959
#
# Poissons Ratio (x) = 0.58197 0.07039
# Poissons Ratio (y) = 0.45907 0.29625
# Poissons Ratio (z) = 0.02611 0.13929
#
# Static dielectric constant tensor:
#      x y z
#    x 1.642190 0.000000 0.115940 
#    y 0.000000 1.661390 0.000000 
#    z 0.115940 0.000000 1.750200 
# 
# From -- ./inp_files/157262.got.cif
#   From: 2010.05.17/outbox.ucp.g08.bks.cvg/sg15_79_cif.got.tgz:157262.got - 2010.06.11 12:40:34.
