data_PCOD9308335
_publ_section_title
;
Structure prediction by ZEFSAII (Michael W. Deem and Ramdas Pophale) SiO2 
 PCOD9308335
Probable space group: C 2/C
;
_chemical_formula_sum "Si O2"
_cell_formula_units_Z 24
_cell_length_a 8.182389
_cell_length_b 14.238941
_cell_length_c 7.820551
_cell_angle_alpha 90.000000
_cell_angle_beta 104.829007
_cell_angle_gamma 90.000000
_cell_volume 880.813905
_symmetry_space_group_name_H-M "C 2/C"
_symmetry_group_IT_number 15
_symmetry_cell_setting 'monoclinic'
loop_
_space_group_symop_operation_xyz
x,y,z
-x,y,1/2-z
-x,-y,-z
x,-y,1/2+z
1/2+x,1/2+y,z
1/2-x,1/2+y,1/2-z
1/2-x,1/2-y,-z
1/2+x,1/2-y,1/2+z
loop_
_atom_site_type_symbol
_atom_site_label
_atom_site_fract_x
_atom_site_fract_y
_atom_site_fract_z
Si Si1 0.824906 0.545705 0.306974
Si Si2 0.382717 0.699687 0.411671
Si Si3 0.251139 0.355468 0.357549
O O1 0.679288 0.598303 0.164978
O O2 0.827454 0.594617 0.493808
O O3 0.000000 0.559206 0.250000
O O4 0.772827 0.436740 0.290710
O O5 0.250000 0.750000 0.500000
O O6 0.560046 0.680204 0.552251
O O7 0.346323 0.764865 0.235615
#
# Coordination Sequence:
#
# PCOD9308335 Si02
#       3
#     8   8   8
#     4  12  27  49  79 119 160 210 270 335 400 477
#     4  12  27  51  80 118 160 210 269 338 406 480
#     4  12  28  52  81 117 161 212 269 335 403 479
#
# _framework density 27.247523999999999
#
# number of rings (size 3 to 8) (size 9 to 14) (size 15 to 20)
#    0.000    0.000    0.000    9.000    0.000   10.667 
#    0.000    0.000    0.000    0.000    0.000    0.000 
#    0.000    0.000    0.000    0.000    0.000    0.000 
#
# Total GULP energy -67307.710130 kJ/mol
# GULP energy per Si atom -5608.975844 kJ/mol
# Density = 2.718551 g / cm^3
# Si number density = 27.247524 Si / 1000 Ang^3
#
#
#
# Elastic Constant Matrix: (Units=GPa)
#
#
# Indices 1 2 3 4 5 6 
#
# 1 205.6056 50.9504 79.4388 0.0000 55.0677 0.0000
# 2 50.9504 158.6957 18.3451 0.0000 23.3694 0.0000
# 3 79.4388 18.3451 133.8111 0.0000 2.6793 0.0000
# 4 0.0000 0.0000 0.0000 41.7248 0.0000 -5.0099
# 5 55.0677 23.3694 2.6793 0.0000 65.4912 0.0000
# 6 0.0000 0.0000 0.0000 -5.0099 0.0000 27.4950
#
#
#
# Elastic Compliance Matrix: (Units=1/GPa)
#
#
# Indices 1 2 3 4 5 6 
#
# 1 0.008953 -0.001285 -0.005002 0.000000 -0.006865 0.000000
# 2 -0.001285 0.006937 -0.000160 0.000000 -0.001388 0.000000
# 3 -0.005002 -0.000160 0.010388 0.000000 0.003838 0.000000
# 4 0.000000 0.000000 0.000000 0.024503 0.000000 0.004465
# 5 -0.006865 -0.001388 0.003838 0.000000 0.021380 0.000000
# 6 0.000000 0.000000 0.000000 0.004465 0.000000 0.037184
#
#
# Mechanical properties :
#
#
# Convention : Reuss Voigt Hill
#
# Bulk Modulus (GPa) = 74.71829 88.39787 81.55808
# Shear Modulus (GPa) = 39.46345 50.23410 44.84878
#
# Velocity S-wave (km/s) = 3.80982 4.29840 4.06146
# Velocity P-wave (km/s) = 6.84358 7.55963 7.21050
#
# Compressibility (1/GPa) = 0.01338360
#
# Stress axis : x y z
#
# Youngs Moduli (GPa) = 111.69052 144.15540 96.26874
#
# Poissons Ratio (x) = 0.18530 0.48150
# Poissons Ratio (y) = 0.14357 0.01542
# Poissons Ratio (z) = 0.55863 0.02309
#
# Static dielectric constant tensor:
#      x y z
#    x 2.202500 0.000000 -0.176930 
#    y 0.000000 2.043560 0.000000 
#    z -0.176930 0.000000 2.246590 
# 
# From -- ./inp_files/21096.got.cif
#   From: 2010.05.17/outbox.cif.g08.bks.cpg/sg15_11_cif.got.tgz:21096.got - 2010.06.03 18:47:42.
