data_PCOD9308758
_publ_section_title
;
Structure prediction by ZEFSAII (Michael W. Deem and Ramdas Pophale) SiO2 
 PCOD9308758
Probable space group: C 2/C
;
_chemical_formula_sum "Si O2"
_cell_formula_units_Z 28
_cell_length_a 30.000000
_cell_length_b 9.000000
_cell_length_c 18.000000
_cell_angle_alpha 90.000000
_cell_angle_beta 140.000000
_cell_angle_gamma 90.000000
_cell_volume 3123.947783
_symmetry_space_group_name_H-M "C 2/C"
_symmetry_group_IT_number 15
_symmetry_cell_setting 'monoclinic'
loop_
_space_group_symop_operation_xyz
x,y,z
-x,y,1/2-z
-x,-y,-z
x,-y,1/2+z
1/2+x,1/2+y,z
1/2-x,1/2+y,1/2-z
1/2-x,1/2-y,-z
1/2+x,1/2-y,1/2+z
loop_
_atom_site_type_symbol
_atom_site_label
_atom_site_fract_x
_atom_site_fract_y
_atom_site_fract_z
Si Si1 0.575546 0.724146 0.476341
Si Si2 0.147497 0.592479 0.947368
Si Si3 0.710555 0.349712 0.235281
Si Si4 0.282802 0.685595 0.196291
Si Si5 0.703573 0.238100 0.514633
Si Si6 0.420993 0.472913 0.147429
Si Si7 0.085335 0.221659 0.236318
O O1 0.602005 0.863997 0.461410
O O2 0.631639 0.695529 0.612875
O O3 0.580962 0.587095 0.424616
O O4 0.494282 0.739903 0.391999
O O5 0.164832 0.420223 0.965004
O O6 0.108211 0.652747 0.824840
O O7 0.221822 0.673596 0.056388
O O8 0.714292 0.524042 0.260256
O O9 0.756976 0.306046 0.223072
O O10 0.744430 0.263606 0.348387
O O11 0.356742 0.716853 0.253461
O O12 0.750000 0.250000 0.500000
O O13 0.643314 0.361466 0.441112
O O14 0.500000 0.409017 0.250000
O O15 0.412048 0.570848 0.210867
#
# Coordination Sequence:
#
# PCOD9308758 Si02
#       7
#     8   8   8   8   8   8   8
#     4   9  19  36  58  79 109 143 177 220 264 317
#     4   9  19  34  55  81 110 143 177 217 264 315
#     4  10  21  36  53  79 109 142 177 218 274 316
#     4  10  20  34  55  78 108 141 178 221 263 318
#     4  11  22  36  56  80 108 141 181 224 265 318
#     4   9  18  33  55  82 110 139 175 223 271 308
#     4  10  19  35  58  84 105 139 185 218 258 317
#
# _framework density 8.9630179999999999
#
# number of rings (size 3 to 8) (size 9 to 14) (size 15 to 20)
#    0.000    2.286    0.000    4.286    0.000    5.143 
#    0.000    1.429    0.000    8.571    0.000    0.000 
#    0.000    0.000    0.000    0.000    0.000    0.000 
#
# Total GULP energy -156241.167796 kJ/mol
# GULP energy per Si atom -5580.041707 kJ/mol
# Density = 0.894262 g / cm^3
# Si number density = 8.963018 Si / 1000 Ang^3
#
#
#
# Elastic Constant Matrix: (Units=GPa)
#
#
# Indices 1 2 3 4 5 6 
#
# 1 95.7536 18.7174 56.3166 0.0000 29.2617 0.0000
# 2 18.7174 51.6087 36.0523 0.0000 8.7294 0.0000
# 3 56.3166 36.0523 149.0813 0.0000 23.9994 0.0000
# 4 0.0000 0.0000 0.0000 28.2409 0.0000 6.4607
# 5 29.2617 8.7294 23.9994 0.0000 34.8409 0.0000
# 6 0.0000 0.0000 0.0000 6.4607 0.0000 15.9300
#
#
#
# Elastic Compliance Matrix: (Units=1/GPa)
#
#
# Indices 1 2 3 4 5 6 
#
# 1 0.016374 -0.001226 -0.004189 0.000000 -0.010559 0.000000
# 2 -0.001226 0.023558 -0.005004 0.000000 -0.001426 0.000000
# 3 -0.004189 -0.005004 0.009821 0.000000 -0.001993 0.000000
# 4 0.000000 0.000000 0.000000 0.039031 0.000000 -0.015830
# 5 -0.010559 -0.001426 -0.001993 0.000000 0.039300 0.000000
# 6 0.000000 0.000000 0.000000 -0.015830 0.000000 0.069195
#
#
# Mechanical properties :
#
#
# Convention : Reuss Voigt Hill
#
# Bulk Modulus (GPa) = 34.58507 57.62402 46.10454
# Shear Modulus (GPa) = 21.95332 28.15952 25.05642
#
# Velocity S-wave (km/s) = 3.50331 3.96772 3.74273
# Velocity P-wave (km/s) = 5.97489 7.29422 6.66727
#
# Compressibility (1/GPa) = 0.02891421
#
# Stress axis : x y z
#
# Youngs Moduli (GPa) = 61.07410 42.44780 101.82020
#
# Poissons Ratio (x) = 0.05204 0.42652
# Poissons Ratio (y) = 0.07488 0.50955
# Poissons Ratio (z) = 0.25584 0.21243
#
# Static dielectric constant tensor:
#      x y z
#    x 1.601460 0.000000 -0.001300 
#    y 0.000000 1.613520 0.000000 
#    z -0.001300 0.000000 1.622540 
# 
# From -- ./inp_files/218663.got.cif
#   From: 2010.05.17/outbox.ucp.g08.bks.cvg/sg15_110_cif.got.tgz:218663.got - 2010.06.11 12:40:34.
