data_PCOD9308280
_publ_section_title
;
Structure prediction by ZEFSAII (Michael W. Deem and Ramdas Pophale) SiO2 
 PCOD9308280
Probable space group: C 2/C
;
_chemical_formula_sum "Si O2"
_cell_formula_units_Z 36
_cell_length_a 18.102893
_cell_length_b 9.697279
_cell_length_c 13.570433
_cell_angle_alpha 90.000000
_cell_angle_beta 34.828050
_cell_angle_gamma 90.000000
_cell_volume 1360.553210
_symmetry_space_group_name_H-M "C 2/C"
_symmetry_group_IT_number 15
_symmetry_cell_setting 'monoclinic'
loop_
_space_group_symop_operation_xyz
x,y,z
-x,y,1/2-z
-x,-y,-z
x,-y,1/2+z
1/2+x,1/2+y,z
1/2-x,1/2+y,1/2-z
1/2-x,1/2-y,-z
1/2+x,1/2-y,1/2+z
loop_
_atom_site_type_symbol
_atom_site_label
_atom_site_fract_x
_atom_site_fract_y
_atom_site_fract_z
Si Si1 0.000000 0.903827 0.250000
Si Si2 0.774740 0.739986 0.086471
Si Si3 0.784127 0.235366 0.081908
Si Si4 0.853222 0.492366 0.625066
Si Si5 0.478092 0.598651 0.115771
O O1 0.068570 0.810230 0.094731
O O2 0.080361 0.006852 0.231313
O O3 0.849069 0.602568 0.033658
O O4 0.880828 0.851420 0.004142
O O5 0.713632 0.107297 0.216471
O O6 0.750000 0.750000 0.000000
O O7 0.785742 0.369671 0.151448
O O8 0.750000 0.250000 0.000000
O O9 0.872800 0.782121 0.711440
O O10 0.000000 0.500000 0.500000
O O11 0.500000 0.500000 0.000000
#
# Coordination Sequence:
#
# PCOD9308280 Si02
#       5
#     4   8   8   8   8
#     4  12  26  52  82 118 184 226 296 368 464 524
#     4  12  28  55  86 129 175 234 303 372 449 544
#     4  12  30  56  89 131 186 239 306 381 463 545
#     4  12  32  56  91 133 181 238 309 377 460 552
#     4  12  29  53  89 127 179 238 299 377 455 544
#
# _framework density 26.459824999999999
#
# number of rings (size 3 to 8) (size 9 to 14) (size 15 to 20)
#    0.000    0.000    2.222    4.000   15.556    0.000 
#   12.000    1.111    0.000    0.000    0.000    0.000 
#    0.000    0.000    0.000    0.000    0.000    0.000 
#
# Total GULP energy -100390.248888 kJ/mol
# GULP energy per Si atom -5577.236049 kJ/mol
# Density = 2.639960 g / cm^3
# Si number density = 26.459825 Si / 1000 Ang^3
#
#
#
# Elastic Constant Matrix: (Units=GPa)
#
#
# Indices 1 2 3 4 5 6 
#
# 1 248.8466 92.1154 84.9574 0.0000 19.5840 0.0000
# 2 92.1154 151.4571 93.5438 0.0000 8.3955 0.0000
# 3 84.9574 93.5438 169.1257 0.0000 7.5206 0.0000
# 4 0.0000 0.0000 0.0000 62.3590 0.0000 6.9205
# 5 19.5840 8.3955 7.5206 0.0000 49.0915 0.0000
# 6 0.0000 0.0000 0.0000 6.9205 0.0000 61.9405
#
#
#
# Elastic Compliance Matrix: (Units=1/GPa)
#
#
# Indices 1 2 3 4 5 6 
#
# 1 0.005501 -0.002423 -0.001354 0.000000 -0.001573 0.000000
# 2 -0.002423 0.011132 -0.004932 0.000000 -0.000182 0.000000
# 3 -0.001354 -0.004932 0.009323 0.000000 -0.000045 0.000000
# 4 0.000000 0.000000 0.000000 0.016238 0.000000 -0.001814
# 5 -0.001573 -0.000182 -0.000045 0.000000 0.021036 0.000000
# 6 0.000000 0.000000 0.000000 -0.001814 0.000000 0.016347
#
#
# Mechanical properties :
#
#
# Convention : Reuss Voigt Hill
#
# Bulk Modulus (GPa) = 117.10429 123.40695 120.25562
# Shear Modulus (GPa) = 50.08019 54.59906 52.33963
#
# Velocity S-wave (km/s) = 4.35522 4.54747 4.45239
# Velocity P-wave (km/s) = 8.34530 8.62052 8.48403
#
# Compressibility (1/GPa) = 0.00853940
#
# Stress axis : x y z
#
# Youngs Moduli (GPa) = 181.77796 89.82840 107.26493
#
# Poissons Ratio (x) = 0.21762 0.14519
# Poissons Ratio (y) = 0.44038 0.52906
# Poissons Ratio (z) = 0.24604 0.44306
#
# Static dielectric constant tensor:
#      x y z
#    x 1.933270 0.000000 -0.006410 
#    y 0.000000 1.935170 0.000000 
#    z -0.006410 0.000000 2.168730 
# 
# From -- ./inp_files/158668.got.cif
#   From: 2010.05.17/outbox.cif.g08.bks.cpg/sg15_80_cif.got.tgz:158668.got - 2010.06.03 18:47:42.
