data_PCOD9308549
_publ_section_title
;
Structure prediction by ZEFSAII (Michael W. Deem and Ramdas Pophale) SiO2 
 PCOD9308549
Probable space group: C 2/C
;
_chemical_formula_sum "Si O2"
_cell_formula_units_Z 24
_cell_length_a 11.835869
_cell_length_b 7.378392
_cell_length_c 13.720911
_cell_angle_alpha 90.000000
_cell_angle_beta 51.765197
_cell_angle_gamma 90.000000
_cell_volume 941.197071
_symmetry_space_group_name_H-M "C 2/C"
_symmetry_group_IT_number 15
_symmetry_cell_setting 'monoclinic'
loop_
_space_group_symop_operation_xyz
x,y,z
-x,y,1/2-z
-x,-y,-z
x,-y,1/2+z
1/2+x,1/2+y,z
1/2-x,1/2+y,1/2-z
1/2-x,1/2-y,-z
1/2+x,1/2-y,1/2+z
loop_
_atom_site_type_symbol
_atom_site_label
_atom_site_fract_x
_atom_site_fract_y
_atom_site_fract_z
Si Si1 0.456298 0.473539 0.166027
Si Si2 0.225826 0.942700 0.900413
Si Si3 0.928705 0.603979 0.449560
O O1 0.500000 0.531723 0.250000
O O2 0.307071 0.527405 0.195225
O O3 0.589133 0.539878 0.026760
O O4 0.467411 0.255797 0.151703
O O5 0.198857 0.728294 0.935356
O O6 0.360746 0.999869 0.893673
O O7 0.000000 0.500000 0.500000
#
# Coordination Sequence:
#
# PCOD9308549 Si02
#       3
#     8   8   8
#     4   9  17  35  51  71  99 131 162 196 240 291
#     4   8  18  35  50  68 104 128 153 208 240 279
#     4   9  17  34  52  69  99 130 157 204 245 276
#
# _framework density 25.499441000000001
#
# number of rings (size 3 to 8) (size 9 to 14) (size 15 to 20)
#    2.000    1.333    0.000    0.000    0.000    1.333 
#    6.000    1.667    0.000    0.000    0.000    0.000 
#    0.000    0.000    0.000    0.000    0.000    0.000 
#
# Total GULP energy -66864.000342 kJ/mol
# GULP energy per Si atom -5572.000028 kJ/mol
# Density = 2.544140 g / cm^3
# Si number density = 25.499441 Si / 1000 Ang^3
#
#
#
# Elastic Constant Matrix: (Units=GPa)
#
#
# Indices 1 2 3 4 5 6 
#
# 1 165.0037 34.9602 83.8915 0.0000 81.7046 0.0000
# 2 34.9602 27.3923 19.3305 0.0000 23.6634 0.0000
# 3 83.8915 19.3305 147.6705 0.0000 68.5813 0.0000
# 4 0.0000 0.0000 0.0000 33.2178 0.0000 13.6558
# 5 81.7046 23.6634 68.5813 0.0000 90.5065 0.0000
# 6 0.0000 0.0000 0.0000 13.6558 0.0000 40.6610
#
#
#
# Elastic Compliance Matrix: (Units=1/GPa)
#
#
# Indices 1 2 3 4 5 6 
#
# 1 0.012841 -0.008047 -0.002831 0.000000 -0.007342 0.000000
# 2 -0.008047 0.052247 0.001084 0.000000 -0.007217 0.000000
# 3 -0.002831 0.001084 0.011083 0.000000 -0.006126 0.000000
# 4 0.000000 0.000000 0.000000 0.034927 0.000000 -0.011730
# 5 -0.007342 -0.007217 -0.006126 0.000000 0.024206 0.000000
# 6 0.000000 0.000000 0.000000 -0.011730 0.000000 0.028533
#
#
# Mechanical properties :
#
#
# Convention : Reuss Voigt Hill
#
# Bulk Modulus (GPa) = 17.67357 68.49233 43.08295
# Shear Modulus (GPa) = 24.71739 46.33601 35.52670
#
# Velocity S-wave (km/s) = 3.11679 4.26742 3.73666
# Velocity P-wave (km/s) = 4.46077 7.15540 5.96231
#
# Compressibility (1/GPa) = 0.05658166
#
# Stress axis : x y z
#
# Youngs Moduli (GPa) = 77.87639 19.13993 90.22483
#
# Poissons Ratio (x) = 0.15403 0.25547
# Poissons Ratio (y) = 0.62670 -0.09782
# Poissons Ratio (z) = 0.22050 -0.02075
#
# Static dielectric constant tensor:
#      x y z
#    x 2.117810 0.000000 -0.094350 
#    y 0.000000 2.010620 0.000000 
#    z -0.094350 0.000000 2.151630 
# 
# From -- ./inp_files/140187.got.cif
#   From: 2010.05.17/outbox.cif.g08.bks.cpg/sg15_71_cif.got.tgz:140187.got - 2010.06.03 18:47:42.
