data_PCOD9308677
_publ_section_title
;
Structure prediction by ZEFSAII (Michael W. Deem and Ramdas Pophale) SiO2 
 PCOD9308677
Probable space group: C 2/C
;
_chemical_formula_sum "Si O2"
_cell_formula_units_Z 24
_cell_length_a 21.000000
_cell_length_b 27.000000
_cell_length_c 9.000000
_cell_angle_alpha 90.000000
_cell_angle_beta 30.000000
_cell_angle_gamma 90.000000
_cell_volume 2551.500000
_symmetry_space_group_name_H-M "C 2/C"
_symmetry_group_IT_number 15
_symmetry_cell_setting 'monoclinic'
loop_
_space_group_symop_operation_xyz
x,y,z
-x,y,1/2-z
-x,-y,-z
x,-y,1/2+z
1/2+x,1/2+y,z
1/2-x,1/2+y,1/2-z
1/2-x,1/2-y,-z
1/2+x,1/2-y,1/2+z
loop_
_atom_site_type_symbol
_atom_site_label
_atom_site_fract_x
_atom_site_fract_y
_atom_site_fract_z
Si Si1 0.356492 0.893361 0.813841
Si Si2 0.152726 0.527660 0.940673
Si Si3 0.733751 0.835181 0.785539
Si Si4 0.500000 0.756936 0.250000
Si Si5 0.110533 0.234411 0.333133
Si Si6 0.863182 0.570614 0.849139
Si Si7 0.500000 0.821730 0.750000
O O1 0.272320 0.864941 0.860094
O O2 0.485157 0.916771 0.477370
O O3 0.406166 0.855796 0.842021
O O4 0.293304 0.937558 0.036713
O O5 0.186020 0.547284 0.708256
O O6 0.167518 0.470800 0.963353
O O7 0.000000 0.534962 0.250000
O O8 0.858001 0.807462 0.604301
O O9 0.622486 0.793612 0.989636
O O10 0.695511 0.876964 0.983859
O O11 0.526856 0.726671 0.350334
O O12 0.060071 0.284085 0.511549
O O13 0.250000 0.250000 0.000000
#
# Coordination Sequence:
#
# PCOD9308677 Si02
#       7
#     8   8   8   4   8   8   4
#     4  11  18  30  49  73 106 146 177 214 267 331
#     4  10  19  26  45  73 105 148 176 208 261 343
#     4  11  19  33  53  72 105 149 181 225 269 315
#     4  10  18  36  51  72 108 135 180 234 268 316
#     4  10  23  36  55  78 103 149 190 228 277 321
#     4  11  18  31  47  74 112 145 183 214 267 331
#     4  12  20  38  53  76 114 147 190 224 270 324
#
# _framework density 9.4062319999999993
#
# number of rings (size 3 to 8) (size 9 to 14) (size 15 to 20)
#    0.000    1.333    5.833    5.000    0.000    0.667 
#    0.000    0.000    0.000    0.000    0.000    0.000 
#    0.000   16.000    0.000    0.000    0.000    0.000 
#
# Total GULP energy -133708.852808 kJ/mol
# GULP energy per Si atom -5571.202200 kJ/mol
# Density = 0.938482 g / cm^3
# Si number density = 9.406232 Si / 1000 Ang^3
#
#
#
# Elastic Constant Matrix: (Units=GPa)
#
#
# Indices 1 2 3 4 5 6 
#
# 1 151.8397 56.1193 7.8233 0.0001 10.0474 -0.0001
# 2 56.1193 93.9137 0.2094 0.0000 -2.0840 0.0000
# 3 7.8233 0.2094 14.2746 0.0001 0.8170 -0.0001
# 4 0.0001 0.0000 0.0001 12.5941 -0.0001 13.8757
# 5 10.0474 -2.0840 0.8170 -0.0001 17.4840 0.0001
# 6 -0.0001 0.0000 -0.0001 13.8757 0.0001 44.3533
#
#
#
# Elastic Compliance Matrix: (Units=1/GPa)
#
#
# Indices 1 2 3 4 5 6 
#
# 1 0.009312 -0.005683 -0.004688 0.000000 -0.005810 0.000000
# 2 -0.005683 0.014145 0.002631 0.000000 0.004829 0.000000
# 3 -0.004688 0.002631 0.072607 -0.000001 -0.000385 0.000001
# 4 0.000000 0.000000 -0.000001 0.121166 0.000001 -0.037906
# 5 -0.005810 0.004829 -0.000385 0.000001 0.061127 0.000000
# 6 0.000000 0.000000 0.000001 -0.037906 0.000000 0.034405
#
#
# Mechanical properties :
#
#
# Convention : Reuss Voigt Hill
#
# Bulk Modulus (GPa) = 12.40936 43.14802 27.77869
# Shear Modulus (GPa) = 14.08034 27.94469 21.01252
#
# Velocity S-wave (km/s) = 2.73876 3.85832 3.34570
# Velocity P-wave (km/s) = 4.07575 6.54480 5.45189
#
# Compressibility (1/GPa) = 0.08058433
#
# Stress axis : x y z
#
# Youngs Moduli (GPa) = 107.38443 70.69432 13.77279
#
# Poissons Ratio (x) = 0.40177 0.06456
# Poissons Ratio (y) = 0.61028 -0.03623
# Poissons Ratio (z) = 0.50340 -0.18598
#
# Static dielectric constant tensor:
#      x y z
#    x 1.708310 0.000000 0.053860 
#    y 0.000000 1.698960 0.000000 
#    z 0.053860 0.000000 1.649550 
# 
# From -- ./inp_files/33092.got.cif
#   From: 2010.05.17/outbox.ucp.g08.bks.cvg/sg15_17_cif.got.tgz:33092.got - 2010.06.11 12:40:34.
