data_PCOD9308197
_publ_section_title
;
Structure prediction by ZEFSAII (Michael W. Deem and Ramdas Pophale) SiO2 
 PCOD9308197
Probable space group: C 2/C
;
_chemical_formula_sum "Si O2"
_cell_formula_units_Z 36
_cell_length_a 16.728951
_cell_length_b 9.566001
_cell_length_c 16.316820
_cell_angle_alpha 90.000000
_cell_angle_beta 145.001951
_cell_angle_gamma 90.000000
_cell_volume 1497.631046
_symmetry_space_group_name_H-M "C 2/C"
_symmetry_group_IT_number 15
_symmetry_cell_setting 'monoclinic'
loop_
_space_group_symop_operation_xyz
x,y,z
-x,y,1/2-z
-x,-y,-z
x,-y,1/2+z
1/2+x,1/2+y,z
1/2-x,1/2+y,1/2-z
1/2-x,1/2-y,-z
1/2+x,1/2-y,1/2+z
loop_
_atom_site_type_symbol
_atom_site_label
_atom_site_fract_x
_atom_site_fract_y
_atom_site_fract_z
Si Si1 0.331493 0.662603 0.498810
Si Si2 0.879175 0.434281 0.451712
Si Si3 0.744205 0.808543 0.585257
Si Si4 0.500000 0.554883 0.250000
Si Si5 0.660838 0.449342 0.125020
O O1 0.250000 0.750000 0.500000
O O2 0.412084 0.784612 0.517551
O O3 0.415182 0.547962 0.620099
O O4 0.265094 0.568637 0.370018
O O5 0.843540 0.549571 0.489375
O O6 0.741716 0.430969 0.278477
O O7 0.000000 0.500000 0.500000
O O8 0.750000 0.750000 0.500000
O O9 0.905522 0.852298 0.731376
O O10 0.682634 0.697394 0.596419
O O11 0.500000 0.500000 0.000000
#
# Coordination Sequence:
#
# PCOD9308197 Si02
#       5
#     8   8   8   4   8
#     4  12  26  49  77 110 155 217 262 327 396 483
#     4  12  28  46  73 119 155 204 264 329 404 465
#     4  12  26  49  77 111 151 213 263 326 392 488
#     4  12  26  48  82 110 168 200 288 324 412 468
#     4  12  27  50  78 111 158 208 259 331 405 474
#
# _framework density 24.037962
#
# number of rings (size 3 to 8) (size 9 to 14) (size 15 to 20)
#    0.000    0.000    4.444    4.000    6.222    0.000 
#    0.000    0.000    0.000    0.000    0.000    0.000 
#    0.000    0.000    0.000    0.000    0.000    0.000 
#
# Total GULP energy -100676.631990 kJ/mol
# GULP energy per Si atom -5593.146222 kJ/mol
# Density = 2.398325 g / cm^3
# Si number density = 24.037962 Si / 1000 Ang^3
#
#
#
# Elastic Constant Matrix: (Units=GPa)
#
#
# Indices 1 2 3 4 5 6 
#
# 1 112.5176 47.6557 31.6915 0.0000 8.5487 0.0000
# 2 47.6557 158.5073 20.5396 0.0000 3.3530 0.0000
# 3 31.6915 20.5396 68.1987 0.0000 2.6625 0.0000
# 4 0.0000 0.0000 0.0000 41.8336 0.0000 -6.3165
# 5 8.5487 3.3530 2.6625 0.0000 43.3823 0.0000
# 6 0.0000 0.0000 0.0000 -6.3165 0.0000 80.1800
#
#
#
# Elastic Compliance Matrix: (Units=1/GPa)
#
#
# Indices 1 2 3 4 5 6 
#
# 1 0.011465 -0.002839 -0.004403 0.000000 -0.001769 0.000000
# 2 -0.002839 0.007274 -0.000874 0.000000 0.000051 0.000000
# 3 -0.004403 -0.000874 0.016977 0.000000 -0.000107 0.000000
# 4 0.000000 0.000000 0.000000 0.024192 0.000000 0.001906
# 5 -0.001769 0.000051 -0.000107 0.000000 0.023402 0.000000
# 6 0.000000 0.000000 0.000000 0.001906 0.000000 0.012622
#
#
# Mechanical properties :
#
#
# Convention : Reuss Voigt Hill
#
# Bulk Modulus (GPa) = 51.32484 59.88856 55.60670
# Shear Modulus (GPa) = 42.13778 49.03497 45.58637
#
# Velocity S-wave (km/s) = 4.19139 4.52142 4.35953
# Velocity P-wave (km/s) = 6.69489 7.22675 6.96590
#
# Compressibility (1/GPa) = 0.01948374
#
# Stress axis : x y z
#
# Youngs Moduli (GPa) = 87.22534 137.46657 58.90468
#
# Poissons Ratio (x) = 0.39024 0.25938
# Poissons Ratio (y) = 0.24762 0.05146
# Poissons Ratio (z) = 0.38409 0.12010
#
# Static dielectric constant tensor:
#      x y z
#    x 1.794470 0.000000 -0.096640 
#    y 0.000000 2.023680 0.000000 
#    z -0.096640 0.000000 1.986570 
# 
# From -- ./inp_files/102523.got.cif
#   From: 2010.05.17/outbox.cif.g08.bks.cpg/sg15_52_cif.got.tgz:102523.got - 2010.06.03 18:47:42.
