data_PCOD9308490
_publ_section_title
;
Structure prediction by ZEFSAII (Michael W. Deem and Ramdas Pophale) SiO2 
 PCOD9308490
Probable space group: C 2/C
;
_chemical_formula_sum "Si O2"
_cell_formula_units_Z 56
_cell_length_a 13.554503
_cell_length_b 11.391287
_cell_length_c 23.007436
_cell_angle_alpha 90.000000
_cell_angle_beta 37.499650
_cell_angle_gamma 90.000000
_cell_volume 2162.560594
_symmetry_space_group_name_H-M "C 2/C"
_symmetry_group_IT_number 15
_symmetry_cell_setting 'monoclinic'
loop_
_space_group_symop_operation_xyz
x,y,z
-x,y,1/2-z
-x,-y,-z
x,-y,1/2+z
1/2+x,1/2+y,z
1/2-x,1/2+y,1/2-z
1/2-x,1/2-y,-z
1/2+x,1/2-y,1/2+z
loop_
_atom_site_type_symbol
_atom_site_label
_atom_site_fract_x
_atom_site_fract_y
_atom_site_fract_z
Si Si1 0.058983 0.086499 0.663158
Si Si2 0.575711 0.373551 0.921427
Si Si3 0.369582 0.378964 0.131952
Si Si4 0.936794 0.373588 0.093093
Si Si5 0.874972 0.680273 0.400635
Si Si6 0.739077 0.054547 0.519699
Si Si7 0.632695 0.868962 0.879696
O O1 0.109046 0.219971 0.654616
O O2 0.000000 0.028856 0.750000
O O3 0.939495 0.107687 0.664253
O O4 0.199911 0.008460 0.568426
O O5 0.683532 0.487397 0.856527
O O6 0.648336 0.252232 0.864619
O O7 0.398784 0.385977 0.971533
O O8 0.517756 0.368456 0.015690
O O9 0.271360 0.257456 0.165825
O O10 0.829460 0.491934 0.144940
O O11 0.077546 0.377655 0.076461
O O12 0.030162 0.370133 0.987440
O O13 0.750000 0.750000 0.500000
O O14 0.816536 0.551147 0.412554
O O15 0.022890 0.654048 0.374547
#
# Coordination Sequence:
#
# PCOD9308490 Si02
#       7
#     8   8   8   8   8   8   8
#     4   9  16  27  44  63  84 113 148 183 222 265
#     4   9  15  24  40  62  87 110 137 173 213 257
#     4   8  15  26  40  60  83 110 141 175 211 250
#     4   9  15  23  38  63  88 110 136 169 212 257
#     4   8  14  25  41  62  86 109 137 177 216 249
#     4   9  16  25  40  65  89 110 142 185 221 256
#     4   8  14  24  38  59  88 113 134 169 214 249
#
# _framework density 25.895229
#
# number of rings (size 3 to 8) (size 9 to 14) (size 15 to 20)
#    0.000    3.429    0.000    1.286    0.000    0.000 
#    0.000    0.000    0.000    5.143    0.000   49.000 
#    0.000    0.000    0.000    0.000    0.000    0.000 
#
# Total GULP energy -155902.980088 kJ/mol
# GULP energy per Si atom -5567.963575 kJ/mol
# Density = 2.583629 g / cm^3
# Si number density = 25.895229 Si / 1000 Ang^3
#
#
#
# Elastic Constant Matrix: (Units=GPa)
#
#
# Indices 1 2 3 4 5 6 
#
# 1 115.2090 20.9457 15.7899 0.0000 24.6294 0.0000
# 2 20.9457 219.6908 12.9604 0.0000 6.3692 0.0000
# 3 15.7899 12.9604 73.9270 0.0000 8.3638 0.0000
# 4 0.0000 0.0000 0.0000 4.3501 0.0000 5.8848
# 5 24.6294 6.3692 8.3638 0.0000 12.2863 0.0000
# 6 0.0000 0.0000 0.0000 5.8848 0.0000 16.2892
#
#
#
# Elastic Compliance Matrix: (Units=1/GPa)
#
#
# Indices 1 2 3 4 5 6 
#
# 1 0.015267 -0.000589 0.000293 0.000000 -0.030498 0.000000
# 2 -0.000589 0.004667 -0.000598 0.000000 -0.000832 0.000000
# 3 0.000293 -0.000598 0.014735 0.000000 -0.010308 0.000000
# 4 0.000000 0.000000 0.000000 0.449623 0.000001 -0.162433
# 5 -0.030498 -0.000832 -0.010308 0.000001 0.149978 0.000000
# 6 0.000000 0.000000 0.000000 -0.162433 0.000000 0.120072
#
#
# Mechanical properties :
#
#
# Convention : Reuss Voigt Hill
#
# Bulk Modulus (GPa) = 30.41246 56.46876 43.44061
# Shear Modulus (GPa) = 6.51813 30.52716 18.52265
#
# Velocity S-wave (km/s) = 1.58826 3.43720 2.67740
# Velocity P-wave (km/s) = 3.89016 6.13240 5.13516
#
# Compressibility (1/GPa) = 0.03288126
#
# Stress axis : x y z
#
# Youngs Moduli (GPa) = 65.50200 214.25192 67.86370
#
# Poissons Ratio (x) = 0.12612 -0.01988
# Poissons Ratio (y) = 0.03856 0.04061
# Poissons Ratio (z) = -0.01918 0.12820
#
# Static dielectric constant tensor:
#      x y z
#    x 2.086460 0.000000 0.034690 
#    y 0.000000 2.205780 0.000000 
#    z 0.034690 0.000000 2.118920 
# 
# From -- ./inp_files/276913.got.cif
#   From: 2010.05.17/outbox.cif.g08.bks.cpg/sg15_139_cif.got.tgz:276913.got - 2010.06.03 18:47:42.
