data_PCOD9308276
_publ_section_title
;
Structure prediction by ZEFSAII (Michael W. Deem and Ramdas Pophale) SiO2 
 PCOD9308276
Probable space group: C 2/C
;
_chemical_formula_sum "Si O2"
_cell_formula_units_Z 40
_cell_length_a 25.399949
_cell_length_b 11.515581
_cell_length_c 11.590555
_cell_angle_alpha 90.000000
_cell_angle_beta 151.087043
_cell_angle_gamma 90.000000
_cell_volume 1639.086070
_symmetry_space_group_name_H-M "C 2/C"
_symmetry_group_IT_number 15
_symmetry_cell_setting 'monoclinic'
loop_
_space_group_symop_operation_xyz
x,y,z
-x,y,1/2-z
-x,-y,-z
x,-y,1/2+z
1/2+x,1/2+y,z
1/2-x,1/2+y,1/2-z
1/2-x,1/2-y,-z
1/2+x,1/2-y,1/2+z
loop_
_atom_site_type_symbol
_atom_site_label
_atom_site_fract_x
_atom_site_fract_y
_atom_site_fract_z
Si Si1 0.058331 0.121343 0.131170
Si Si2 0.259669 0.371782 0.323923
Si Si3 0.516366 0.054384 0.405409
Si Si4 0.628654 0.737174 0.813928
Si Si5 0.812252 0.122583 0.353705
O O1 0.146909 0.124208 0.400423
O O2 0.118203 0.146367 0.125854
O O3 0.958157 0.210130 0.952513
O O4 0.000000 0.000000 0.000000
O O5 0.263584 0.238780 0.285256
O O6 0.275913 0.487932 0.276564
O O7 0.139135 0.396447 0.143293
O O8 0.500000 0.989168 0.250000
O O9 0.422038 0.151980 0.219373
O O10 0.500000 0.000000 0.500000
O O11 0.750000 0.750000 0.000000
O O12 0.627739 0.636583 0.908702
#
# Coordination Sequence:
#
# PCOD9308276 Si02
#       5
#     8   8   8   8   8
#     4  12  27  48  81 114 159 213 279 344 411 500
#     4  12  28  48  85 118 164 214 280 340 424 502
#     4  12  27  49  81 120 170 220 274 353 423 501
#     4  12  26  52  78 112 163 222 275 342 425 492
#     4  12  27  52  79 117 161 212 273 343 418 499
#
# _framework density 24.403842000000001
#
# number of rings (size 3 to 8) (size 9 to 14) (size 15 to 20)
#    0.000    0.000    6.000    2.400    5.600    0.000 
#    0.000    0.000    0.000    0.000    0.000    0.000 
#    0.000    0.000    0.000    0.000    0.000    0.000 
#
# Total GULP energy -111663.347677 kJ/mol
# GULP energy per Si atom -5583.167384 kJ/mol
# Density = 2.434830 g / cm^3
# Si number density = 24.403842 Si / 1000 Ang^3
#
#
#
# Elastic Constant Matrix: (Units=GPa)
#
#
# Indices 1 2 3 4 5 6 
#
# 1 86.6130 34.4346 59.7554 0.0000 3.3215 0.0000
# 2 34.4346 121.3503 50.4490 0.0000 -3.8828 0.0000
# 3 59.7554 50.4490 186.5243 0.0000 -2.4396 0.0000
# 4 0.0000 0.0000 0.0000 52.7859 0.0000 -2.8029
# 5 3.3215 -3.8828 -2.4396 0.0000 41.3041 0.0000
# 6 0.0000 0.0000 0.0000 -2.8029 0.0000 37.3620
#
#
#
# Elastic Compliance Matrix: (Units=1/GPa)
#
#
# Indices 1 2 3 4 5 6 
#
# 1 0.015663 -0.002710 -0.004308 0.000000 -0.001769 0.000000
# 2 -0.002710 0.009775 -0.001762 0.000000 0.001033 0.000000
# 3 -0.004308 -0.001762 0.007226 0.000000 0.000608 0.000000
# 4 0.000000 0.000000 0.000000 0.019020 0.000000 0.001427
# 5 -0.001769 0.001033 0.000608 0.000000 0.024486 0.000000
# 6 0.000000 0.000000 0.000000 0.001427 0.000000 0.026872
#
#
# Mechanical properties :
#
#
# Convention : Reuss Voigt Hill
#
# Bulk Modulus (GPa) = 66.20947 75.97395 71.09171
# Shear Modulus (GPa) = 39.79697 42.94699 41.37198
#
# Velocity S-wave (km/s) = 4.04266 4.19960 4.12188
# Velocity P-wave (km/s) = 6.99860 7.39697 7.20054
#
# Compressibility (1/GPa) = 0.01510358
#
# Stress axis : x y z
#
# Youngs Moduli (GPa) = 63.84447 102.29873 138.39121
#
# Poissons Ratio (x) = 0.27725 0.59618
# Poissons Ratio (y) = 0.17303 0.24387
# Poissons Ratio (z) = 0.27504 0.18027
#
# Static dielectric constant tensor:
#      x y z
#    x 1.649530 0.000000 -0.077330 
#    y 0.000000 2.047060 0.000000 
#    z -0.077330 0.000000 2.007000 
# 
# From -- ./inp_files/122853.got.cif
#   From: 2010.05.17/outbox.cif.g08.bks.cpg/sg15_62_cif.got.tgz:122853.got - 2010.06.03 18:47:42.
