data_PCOD9308196
_publ_section_title
;
Structure prediction by ZEFSAII (Michael W. Deem and Ramdas Pophale) SiO2 
 PCOD9308196
Probable space group: C 2/C
;
_chemical_formula_sum "Si O2"
_cell_formula_units_Z 44
_cell_length_a 13.727786
_cell_length_b 5.396820
_cell_length_c 24.379906
_cell_angle_alpha 90.000000
_cell_angle_beta 105.321657
_cell_angle_gamma 90.000000
_cell_volume 1742.021876
_symmetry_space_group_name_H-M "C 2/C"
_symmetry_group_IT_number 15
_symmetry_cell_setting 'monoclinic'
loop_
_space_group_symop_operation_xyz
x,y,z
-x,y,1/2-z
-x,-y,-z
x,-y,1/2+z
1/2+x,1/2+y,z
1/2-x,1/2+y,1/2-z
1/2-x,1/2-y,-z
1/2+x,1/2-y,1/2+z
loop_
_atom_site_type_symbol
_atom_site_label
_atom_site_fract_x
_atom_site_fract_y
_atom_site_fract_z
Si Si1 0.369083 0.020522 0.286240
Si Si2 0.071638 0.911038 0.559052
Si Si3 0.718463 0.082111 0.942933
Si Si4 0.674393 0.653341 0.321845
Si Si5 0.499756 0.091097 0.401265
Si Si6 0.000000 0.905298 0.250000
O O1 0.275704 0.017684 0.314347
O O2 0.470455 0.984126 0.336977
O O3 0.403520 0.275240 0.263701
O O4 0.345348 0.846195 0.231396
O O5 0.044621 0.630141 0.568621
O O6 0.186548 0.916379 0.557967
O O7 0.051321 0.138913 0.598795
O O8 0.000000 0.000000 0.500000
O O9 0.698928 0.246141 0.885556
O O10 0.618038 0.915783 0.932654
O O11 0.750000 0.250000 0.000000
O O12 0.564763 0.526544 0.308056
#
# Coordination Sequence:
#
# PCOD9308196 Si02
#       6
#     8   8   8   8   8   4
#     4  12  27  48  80 115 156 206 261 338 397 477
#     4  12  28  51  79 116 161 212 267 327 390 472
#     4  12  28  50  81 117 160 217 268 326 400 481
#     4  12  27  49  78 117 157 207 265 329 402 474
#     4  12  29  50  82 116 161 208 268 333 400 470
#     4  12  26  48  82 110 160 202 264 330 406 468
#
# _framework density 25.258006999999999
#
# number of rings (size 3 to 8) (size 9 to 14) (size 15 to 20)
#    0.000    0.000    5.455    3.273    7.636    3.636 
#    0.000    0.000    0.000    0.000    0.000    0.000 
#    0.000    0.000    0.000    0.000    0.000    0.000 
#
# Total GULP energy -122920.502552 kJ/mol
# GULP energy per Si atom -5587.295571 kJ/mol
# Density = 2.520052 g / cm^3
# Si number density = 25.258007 Si / 1000 Ang^3
#
#
#
# Elastic Constant Matrix: (Units=GPa)
#
#
# Indices 1 2 3 4 5 6 
#
# 1 166.4583 39.0291 -3.9474 0.0000 24.4051 0.0000
# 2 39.0291 39.9310 -9.1912 0.0000 -6.2989 0.0000
# 3 -3.9474 -9.1912 134.2210 0.0000 15.8650 0.0000
# 4 0.0000 0.0000 0.0000 40.8655 0.0000 6.2484
# 5 24.4051 -6.2989 15.8650 0.0000 47.9190 0.0000
# 6 0.0000 0.0000 0.0000 6.2484 0.0000 35.0684
#
#
#
# Elastic Compliance Matrix: (Units=1/GPa)
#
#
# Indices 1 2 3 4 5 6 
#
# 1 0.009237 -0.009920 0.000315 0.000000 -0.006113 0.000000
# 2 -0.009920 0.036486 0.001085 0.000000 0.009489 0.000000
# 3 0.000315 0.001085 0.007843 0.000000 -0.002614 0.000000
# 4 0.000000 0.000000 0.000000 0.025156 0.000000 -0.004482
# 5 -0.006113 0.009489 -0.002614 0.000000 0.026095 0.000000
# 6 0.000000 0.000000 0.000000 -0.004482 0.000000 0.029314
#
#
# Mechanical properties :
#
#
# Convention : Reuss Voigt Hill
#
# Bulk Modulus (GPa) = 27.37804 43.59904 35.48854
# Shear Modulus (GPa) = 30.60965 45.75190 38.18078
#
# Velocity S-wave (km/s) = 3.48498 4.26065 3.89219
# Velocity P-wave (km/s) = 5.20157 6.44229 5.85489
#
# Compressibility (1/GPa) = 0.03652562
#
# Stress axis : x y z
#
# Youngs Moduli (GPa) = 108.25798 27.40763 127.50238
#
# Poissons Ratio (x) = 0.27189 -0.04015
# Poissons Ratio (y) = 1.07396 -0.13836
# Poissons Ratio (z) = -0.03409 -0.02974
#
# Static dielectric constant tensor:
#      x y z
#    x 2.035520 0.000000 -0.070560 
#    y 0.000000 2.227640 0.000000 
#    z -0.070560 0.000000 2.086800 
# 
# From -- ./inp_files/294309.got.cif
#   From: 2010.05.17/outbox.cif.g08.bks.cpg/sg15_148_cif.got.tgz:294309.got - 2010.06.03 18:47:42.
