data_PCOD9308887
_publ_section_title
;
Structure prediction by ZEFSAII (Michael W. Deem and Ramdas Pophale) SiO2 
 PCOD9308887
Probable space group: C 2/C
;
_chemical_formula_sum "Si O2"
_cell_formula_units_Z 28
_cell_length_a 12.000000
_cell_length_b 30.000000
_cell_length_c 15.000000
_cell_angle_alpha 90.000000
_cell_angle_beta 30.000000
_cell_angle_gamma 90.000000
_cell_volume 2700.000000
_symmetry_space_group_name_H-M "C 2/C"
_symmetry_group_IT_number 15
_symmetry_cell_setting 'monoclinic'
loop_
_space_group_symop_operation_xyz
x,y,z
-x,y,1/2-z
-x,-y,-z
x,-y,1/2+z
1/2+x,1/2+y,z
1/2-x,1/2+y,1/2-z
1/2-x,1/2-y,-z
1/2+x,1/2-y,1/2+z
loop_
_atom_site_type_symbol
_atom_site_label
_atom_site_fract_x
_atom_site_fract_y
_atom_site_fract_z
Si Si1 0.804030 0.479208 0.753235
Si Si2 0.795021 0.855042 0.959021
Si Si3 0.561601 0.304575 0.923743
Si Si4 0.780535 0.042691 0.857643
Si Si5 0.529448 0.198215 0.493633
Si Si6 0.848956 0.132143 0.707350
Si Si7 0.327475 0.565890 0.563425
O O1 0.773097 0.511337 0.689251
O O2 0.596171 0.444027 0.891592
O O3 0.050391 0.457362 0.574630
O O4 0.771928 0.516043 0.854483
O O5 0.624758 0.825053 0.018766
O O6 0.759461 0.905263 0.023158
O O7 0.000000 0.860886 0.750000
O O8 0.874513 0.824254 0.986167
O O9 0.792985 0.309162 0.708986
O O10 0.515163 0.251576 0.969739
O O11 0.537080 0.336767 0.027815
O O12 0.863364 0.091493 0.767614
O O13 0.000000 0.021840 0.750000
O O14 0.306917 0.169158 0.638418
O O15 0.757519 0.101100 0.688997
#
# Coordination Sequence:
#
# PCOD9308887 Si02
#       7
#     8   8   8   8   8   8   8
#     4   9  20  41  66  86 125 161 202 267 309 382
#     4   9  20  31  52  87 127 164 205 251 300 370
#     4  10  20  35  55  84 124 167 211 245 310 372
#     4  10  22  42  65  93 119 157 209 256 325 371
#     4  11  20  36  56  87 123 174 202 258 306 369
#     4  10  22  37  60  85 119 162 205 256 307 369
#     4   9  19  39  57  88 125 163 211 249 311 366
#
# _framework density 10.370369999999999
#
# number of rings (size 3 to 8) (size 9 to 14) (size 15 to 20)
#    0.000    2.286    1.429    0.429    6.000    2.857 
#    7.714    5.714    0.000    0.857    0.000    0.000 
#    0.000    0.000    0.000    0.000    0.000    0.000 
#
# Total GULP energy -155913.339045 kJ/mol
# GULP energy per Si atom -5568.333537 kJ/mol
# Density = 1.034677 g / cm^3
# Si number density = 10.370370 Si / 1000 Ang^3
#
#
#
# Elastic Constant Matrix: (Units=GPa)
#
#
# Indices 1 2 3 4 5 6 
#
# 1 36.4410 22.0174 25.8676 0.0000 -4.1772 0.0000
# 2 22.0174 127.2529 30.6352 0.0000 12.0733 0.0000
# 3 25.8676 30.6352 118.7712 0.0000 2.5780 0.0001
# 4 0.0000 0.0000 0.0000 40.6133 0.0000 5.3729
# 5 -4.1772 12.0733 2.5780 0.0000 14.9678 0.0000
# 6 0.0000 0.0000 0.0001 5.3729 0.0000 23.8234
#
#
#
# Elastic Compliance Matrix: (Units=1/GPa)
#
#
# Indices 1 2 3 4 5 6 
#
# 1 0.038390 -0.006583 -0.007037 0.000000 0.017236 0.000000
# 2 -0.006583 0.010169 -0.000975 0.000000 -0.009872 0.000000
# 3 -0.007037 -0.000975 0.010268 0.000000 -0.002946 0.000000
# 4 0.000000 0.000000 0.000000 0.025380 0.000000 -0.005724
# 5 0.017236 -0.009872 -0.002946 0.000000 0.080090 0.000000
# 6 0.000000 0.000000 0.000000 -0.005724 0.000000 0.043266
#
#
# Mechanical properties :
#
#
# Convention : Reuss Voigt Hill
#
# Bulk Modulus (GPa) = 33.74296 48.83395 41.28845
# Shear Modulus (GPa) = 20.27309 29.47724 24.87517
#
# Velocity S-wave (km/s) = 3.12982 3.77400 3.46690
# Velocity P-wave (km/s) = 5.41897 6.52586 5.99800
#
# Compressibility (1/GPa) = 0.02963581
#
# Stress axis : x y z
#
# Youngs Moduli (GPa) = 26.04818 98.34097 97.39409
#
# Poissons Ratio (x) = 0.64743 0.68538
# Poissons Ratio (y) = 0.17149 0.09494
# Poissons Ratio (z) = 0.18331 0.09586
#
# Static dielectric constant tensor:
#      x y z
#    x 1.794310 0.000000 0.008400 
#    y 0.000000 1.720990 0.000000 
#    z 0.008400 0.000000 1.805850 
# 
# From -- ./inp_files/149258.got.cif
#   From: 2010.05.17/outbox.ucp.g08.bks.cvg/sg15_75_cif.got.tgz:149258.got - 2010.06.11 12:40:34.
