data_PCOD9308584
_publ_section_title
;
Structure prediction by ZEFSAII (Michael W. Deem and Ramdas Pophale) SiO2 
 PCOD9308584
Probable space group: C 2/C
;
_chemical_formula_sum "Si O2"
_cell_formula_units_Z 48
_cell_length_a 26.847360
_cell_length_b 11.014480
_cell_length_c 8.563470
_cell_angle_alpha 90.000000
_cell_angle_beta 67.089102
_cell_angle_gamma 90.000000
_cell_volume 2332.531467
_symmetry_space_group_name_H-M "C 2/C"
_symmetry_group_IT_number 15
_symmetry_cell_setting 'monoclinic'
loop_
_space_group_symop_operation_xyz
x,y,z
-x,y,1/2-z
-x,-y,-z
x,-y,1/2+z
1/2+x,1/2+y,z
1/2-x,1/2+y,1/2-z
1/2-x,1/2-y,-z
1/2+x,1/2-y,1/2+z
loop_
_atom_site_type_symbol
_atom_site_label
_atom_site_fract_x
_atom_site_fract_y
_atom_site_fract_z
Si Si1 0.286938 0.642623 0.782550
Si Si2 0.429581 0.969269 0.761185
Si Si3 0.018904 0.342171 0.502007
Si Si4 0.649322 0.552676 0.085786
Si Si5 0.172749 0.344369 0.544948
Si Si6 0.097650 0.849690 0.953586
O O1 0.313313 0.623856 0.581971
O O2 0.313892 0.543008 0.863931
O O3 0.302034 0.772804 0.838329
O O4 0.222757 0.624101 0.872636
O O5 0.456121 0.872019 0.605834
O O6 0.365614 0.953062 0.850822
O O7 0.452768 0.099818 0.683901
O O8 0.453404 0.924461 0.896224
O O9 0.037912 0.206445 0.511416
O O10 0.620799 0.632142 0.252197
O O11 0.606229 0.473869 0.038054
O O12 0.133799 0.250021 0.501008
#
# Coordination Sequence:
#
# PCOD9308584 Si02
#       6
#     8   8   8   8   8   8
#     4   9  18  31  48  71  98 130 167 201 246 294
#     4   9  18  32  51  73 102 129 158 203 248 293
#     4   9  18  33  52  75 100 130 163 199 250 299
#     4   9  18  33  51  71 101 134 165 208 247 290
#     4   9  18  32  49  71  99 131 164 204 247 293
#     4   9  18  33  53  73 100 133 167 205 250 294
#
# _framework density 20.578502
#
# number of rings (size 3 to 8) (size 9 to 14) (size 15 to 20)
#    0.000    3.000    0.000    0.000    0.000    4.667 
#    0.000    3.333    0.000   38.000    0.000    0.000 
#    0.000    0.000    0.000    0.000    0.000    0.000 
#
# Total GULP energy -133723.281903 kJ/mol
# GULP energy per Si atom -5571.803413 kJ/mol
# Density = 2.053166 g / cm^3
# Si number density = 20.578502 Si / 1000 Ang^3
#
#
#
# Elastic Constant Matrix: (Units=GPa)
#
#
# Indices 1 2 3 4 5 6 
#
# 1 36.9336 3.9777 15.4383 0.0000 -17.2783 0.0000
# 2 3.9777 17.3049 5.4476 0.0000 -6.0753 0.0000
# 3 15.4383 5.4476 78.8326 0.0000 10.3027 0.0000
# 4 0.0000 0.0000 0.0000 21.5497 0.0000 -12.3112
# 5 -17.2783 -6.0753 10.3027 0.0000 22.7253 0.0000
# 6 0.0000 0.0000 0.0000 -12.3112 0.0000 9.6917
#
#
#
# Elastic Compliance Matrix: (Units=1/GPa)
#
#
# Indices 1 2 3 4 5 6 
#
# 1 0.063313 0.013779 -0.021391 0.000000 0.061519 0.000000
# 2 0.013779 0.070687 -0.012141 0.000000 0.034878 0.000000
# 3 -0.021391 -0.012141 0.021539 0.000000 -0.029275 0.000000
# 4 0.000000 0.000000 0.000000 0.169174 0.000000 0.214897
# 5 0.061519 0.034878 -0.029275 0.000000 0.113374 0.000000
# 6 0.000000 0.000000 0.000000 0.214897 0.000000 0.376159
#
#
# Mechanical properties :
#
#
# Convention : Reuss Voigt Hill
#
# Bulk Modulus (GPa) = 8.61833 20.31093 14.46463
# Shear Modulus (GPa) = 5.60268 18.00717 11.80492
#
# Velocity S-wave (km/s) = 1.65182 2.96133 2.39770
# Velocity P-wave (km/s) = 2.79913 4.64586 3.83531
#
# Compressibility (1/GPa) = 0.11603172
#
# Stress axis : x y z
#
# Youngs Moduli (GPa) = 15.79448 14.14693 46.42677
#
# Poissons Ratio (x) = -0.19493 0.99313
# Poissons Ratio (y) = -0.21763 0.56368
# Poissons Ratio (z) = 0.33786 0.17176
#
# Static dielectric constant tensor:
#      x y z
#    x 1.783040 0.000000 0.001470 
#    y 0.000000 1.755370 0.000000 
#    z 0.001470 0.000000 1.784020 
# 
# From -- ./inp_files/65034.got.cif
#   From: 2010.05.17/outbox.cif.g08.bks.cpg/sg15_33_cif.got.tgz:65034.got - 2010.06.03 18:47:42.
