data_PCOD9308755
_publ_section_title
;
Structure prediction by ZEFSAII (Michael W. Deem and Ramdas Pophale) SiO2 
 PCOD9308755
Probable space group: C 2/C
;
_chemical_formula_sum "Si O2"
_cell_formula_units_Z 28
_cell_length_a 15.000000
_cell_length_b 21.000000
_cell_length_c 18.000000
_cell_angle_alpha 90.000000
_cell_angle_beta 30.000000
_cell_angle_gamma 90.000000
_cell_volume 2835.000000
_symmetry_space_group_name_H-M "C 2/C"
_symmetry_group_IT_number 15
_symmetry_cell_setting 'monoclinic'
loop_
_space_group_symop_operation_xyz
x,y,z
-x,y,1/2-z
-x,-y,-z
x,-y,1/2+z
1/2+x,1/2+y,z
1/2-x,1/2+y,1/2-z
1/2-x,1/2-y,-z
1/2+x,1/2-y,1/2+z
loop_
_atom_site_type_symbol
_atom_site_label
_atom_site_fract_x
_atom_site_fract_y
_atom_site_fract_z
Si Si1 0.927199 0.168602 0.476942
Si Si2 0.191112 0.306787 0.879316
Si Si3 0.941874 0.218164 0.868690
Si Si4 0.175121 0.463909 0.572413
Si Si5 0.464808 0.147889 0.150492
Si Si6 0.799710 0.903043 0.926246
Si Si7 0.098711 0.107809 0.483940
O O1 0.846092 0.234445 0.567790
O O2 0.815822 0.134691 0.492509
O O3 0.119875 0.187938 0.301558
O O4 0.956025 0.115943 0.521215
O O5 0.040151 0.334027 0.932360
O O6 0.203626 0.355093 0.938939
O O7 0.941328 0.169081 0.935846
O O8 0.000000 0.186519 0.750000
O O9 0.055461 0.282331 0.797838
O O10 0.750000 0.250000 0.000000
O O11 0.210689 0.527757 0.500360
O O12 0.352283 0.448624 0.494009
O O13 0.000000 0.474793 0.750000
O O14 0.122868 0.398477 0.564985
O O15 0.285652 0.113033 0.305143
O O16 0.000000 0.912319 0.750000
#
# Coordination Sequence:
#
# PCOD9308755 Si02
#       7
#     8   8   8   8   8   8   8
#     4  10  21  38  60  83 113 144 185 232 282 326
#     4  10  21  37  60  84 113 143 184 234 282 324
#     4  12  19  30  53  81 116 147 176 222 278 335
#     4  10  21  38  58  78 112 152 187 222 277 338
#     4  10  19  35  55  83 114 145 178 226 280 332
#     4  10  23  41  56  79 112 151 190 236 272 315
#     4  10  20  35  55  84 113 146 179 225 281 331
#
# _framework density 9.8765429999999999
#
# number of rings (size 3 to 8) (size 9 to 14) (size 15 to 20)
#    0.000    1.714    4.286    0.857    0.000    2.857 
#    0.000    0.000    0.000    0.000    0.000    0.000 
#    0.000    0.000    0.000    0.000    0.000    0.000 
#
# Total GULP energy -156036.880896 kJ/mol
# GULP energy per Si atom -5572.745746 kJ/mol
# Density = 0.985406 g / cm^3
# Si number density = 9.876543 Si / 1000 Ang^3
#
#
#
# Elastic Constant Matrix: (Units=GPa)
#
#
# Indices 1 2 3 4 5 6 
#
# 1 113.4525 25.8649 14.5119 -0.0175 24.6219 0.0022
# 2 25.8649 78.2130 7.6847 -0.0409 4.9328 0.0029
# 3 14.5119 7.6847 26.7539 -0.0274 8.6110 0.0058
# 4 -0.0175 -0.0409 -0.0274 25.0235 0.0032 2.6386
# 5 24.6219 4.9328 8.6110 0.0032 14.0116 -0.0061
# 6 0.0022 0.0029 0.0058 2.6386 -0.0061 16.0821
#
#
#
# Elastic Compliance Matrix: (Units=1/GPa)
#
#
# Indices 1 2 3 4 5 6 
#
# 1 0.015109 -0.003470 0.001189 0.000011 -0.026059 -0.000014
# 2 -0.003470 0.014048 -0.003146 0.000017 0.003085 -0.000003
# 3 0.001189 -0.003146 0.047311 0.000055 -0.030057 -0.000037
# 4 0.000011 0.000017 0.000055 0.040666 -0.000071 -0.006672
# 5 -0.026059 0.003085 -0.030057 -0.000071 0.134546 0.000077
# 6 -0.000014 -0.000003 -0.000037 -0.006672 0.000077 0.063276
#
#
# Mechanical properties :
#
#
# Convention : Reuss Voigt Hill
#
# Bulk Modulus (GPa) = 15.24085 34.94913 25.09499
# Shear Modulus (GPa) = 14.38104 22.38063 18.38083
#
# Velocity S-wave (km/s) = 2.70115 3.36969 3.05377
# Velocity P-wave (km/s) = 4.17860 5.73333 5.01656
#
# Compressibility (1/GPa) = 0.06561312
#
# Stress axis : x y z
#
# Youngs Moduli (GPa) = 66.18755 71.18678 21.13682
#
# Poissons Ratio (x) = 0.24700 -0.02512
# Poissons Ratio (y) = 0.22965 0.06649
# Poissons Ratio (z) = -0.07867 0.22394
#
# Static dielectric constant tensor:
#      x y z
#    x 1.834440 0.000000 -0.028750 
#    y 0.000000 1.643830 -0.000010 
#    z -0.028750 -0.000010 1.706580 
# 
# From -- ./inp_files/41220.got.cif
#   From: 2010.05.17/outbox.ucp.g08.bks.cvg/sg15_21_cif.got.tgz:41220.got - 2010.06.11 12:40:34.
