data_PCOD9308641
_publ_section_title
;
Structure prediction by ZEFSAII (Michael W. Deem and Ramdas Pophale) SiO2 
 PCOD9308641
Probable space group: C 2/C
;
_chemical_formula_sum "Si O2"
_cell_formula_units_Z 32
_cell_length_a 18.000000
_cell_length_b 24.000000
_cell_length_c 15.000000
_cell_angle_alpha 90.000000
_cell_angle_beta 30.000000
_cell_angle_gamma 90.000000
_cell_volume 3240.000000
_symmetry_space_group_name_H-M "C 2/C"
_symmetry_group_IT_number 15
_symmetry_cell_setting 'monoclinic'
loop_
_space_group_symop_operation_xyz
x,y,z
-x,y,1/2-z
-x,-y,-z
x,-y,1/2+z
1/2+x,1/2+y,z
1/2-x,1/2+y,1/2-z
1/2-x,1/2-y,-z
1/2+x,1/2-y,1/2+z
loop_
_atom_site_type_symbol
_atom_site_label
_atom_site_fract_x
_atom_site_fract_y
_atom_site_fract_z
Si Si1 0.680842 0.887576 0.871429
Si Si2 0.190422 0.697358 0.902362
Si Si3 0.821528 0.377233 0.244514
Si Si4 0.171447 0.617188 0.567940
Si Si5 0.334302 0.014070 0.402449
Si Si6 0.837062 0.684318 0.283547
Si Si7 0.176252 0.498816 0.296045
Si Si8 0.833192 0.117641 0.888700
O O1 0.703333 0.847694 0.765091
O O2 0.737957 0.949708 0.789047
O O3 0.499736 0.888966 0.069015
O O4 0.740729 0.864546 0.902715
O O5 0.199228 0.678212 0.790652
O O6 0.253844 0.756758 0.864978
O O7 0.295030 0.652437 0.841546
O O8 0.015146 0.691834 0.107864
O O9 0.758524 0.370707 0.409320
O O10 0.768148 0.435128 0.253860
O O11 0.167633 0.549749 0.564841
O O12 0.000000 0.637337 0.750000
O O13 0.500000 0.035986 0.250000
O O14 0.215769 0.053851 0.571064
O O15 0.307386 0.014070 0.324820
O O16 0.775187 0.646091 0.426250
O O17 0.000000 0.500000 0.500000
O O18 0.000000 0.122554 0.750000
#
# Coordination Sequence:
#
# PCOD9308641 Si02
#       8
#     8   8   8   8   8   8   8   8
#     4   9  16  28  52  80 115 143 176 230 275 321
#     4  11  23  38  61  79 111 147 186 238 276 331
#     4   8  17  29  50  84 111 140 182 227 274 324
#     4   8  15  29  52  86 116 142 181 232 273 318
#     4  10  18  30  54  86 116 145 186 229 272 327
#     4  11  22  40  57  83 108 146 192 229 283 329
#     4   9  15  26  49  85 116 135 180 228 276 321
#     4  12  25  38  54  80 116 151 186 228 279 337
#
# _framework density 9.8765429999999999
#
# number of rings (size 3 to 8) (size 9 to 14) (size 15 to 20)
#    0.000    2.250    1.250    4.500    5.250    0.000 
#    0.000    0.625    0.000    9.750    0.000    0.000 
#    0.000    0.000    0.000    0.000    0.000    0.000 
#
# Total GULP energy -178305.687561 kJ/mol
# GULP energy per Si atom -5572.052736 kJ/mol
# Density = 0.985406 g / cm^3
# Si number density = 9.876543 Si / 1000 Ang^3
#
#
#
# Elastic Constant Matrix: (Units=GPa)
#
#
# Indices 1 2 3 4 5 6 
#
# 1 54.5646 -9.2193 17.2964 0.0038 5.9771 0.0061
# 2 -9.2193 10.8593 -3.3936 0.0169 -12.2454 0.0063
# 3 17.2964 -3.3936 8.0843 0.0090 -9.3940 -0.0111
# 4 0.0038 0.0169 0.0090 13.4546 0.0094 -2.0695
# 5 5.9771 -12.2454 -9.3940 0.0094 29.3412 0.0170
# 6 0.0061 0.0063 -0.0111 -2.0695 0.0170 6.9986
#
#
#
# Elastic Compliance Matrix: (Units=1/GPa)
#
#
# Indices 1 2 3 4 5 6 
#
# 1 0.013828 0.060495 0.034833 -0.000147 0.033583 -0.000136
# 2 0.060495 0.055852 -0.148445 -0.000001 -0.036541 -0.000249
# 3 0.034833 -0.148445 -0.148697 0.000397 -0.116657 0.000268
# 4 -0.000147 -0.000001 0.000397 0.077865 0.000119 0.023025
# 5 0.033583 -0.036541 -0.116657 0.000119 -0.025359 -0.000084
# 6 -0.000136 -0.000249 0.000268 0.023025 -0.000084 0.149695
#
#
# Mechanical properties :
#
#
# Convention : Reuss Voigt Hill
#
# Bulk Modulus (GPa) = -5.39807 9.20836 1.90515
# Shear Modulus (GPa) = 29.82093 14.54719 22.18406
#
# Velocity S-wave (km/s) = 3.88968 2.71671 3.35486
# Velocity P-wave (km/s) = 4.17542 3.80953 3.99666
#
# Compressibility (1/GPa) = -0.18525143
#
# Stress axis : x y z
#
# Youngs Moduli (GPa) = 72.31749 17.90449 -6.72507
#
# Poissons Ratio (x) = -1.08313 0.23425
# Poissons Ratio (y) = -4.37484 -0.99830
# Poissons Ratio (z) = -2.51901 2.65782
#
# Static dielectric constant tensor:
#      x y z
#    x 1.707420 -0.000020 0.048520 
#    y -0.000020 1.705040 0.000010 
#    z 0.048520 0.000010 1.692990 
# 
# From -- ./inp_files/164220.got.cif
#   From: 2010.05.17/outbox.ucp.g08.bks.cvg/sg15_83_cif.got.tgz:164220.got - 2010.06.11 12:40:34.
