data_PCOD9308165
_publ_section_title
;
Structure prediction by ZEFSAII (Michael W. Deem and Ramdas Pophale) SiO2 
 PCOD9308165
Probable space group: C 2/C
;
_chemical_formula_sum "Si O2"
_cell_formula_units_Z 28
_cell_length_a 8.337834
_cell_length_b 5.062570
_cell_length_c 28.713419
_cell_angle_alpha 90.000000
_cell_angle_beta 117.092038
_cell_angle_gamma 90.000000
_cell_volume 1079.030967
_symmetry_space_group_name_H-M "C 2/C"
_symmetry_group_IT_number 15
_symmetry_cell_setting 'monoclinic'
loop_
_space_group_symop_operation_xyz
x,y,z
-x,y,1/2-z
-x,-y,-z
x,-y,1/2+z
1/2+x,1/2+y,z
1/2-x,1/2+y,1/2-z
1/2-x,1/2-y,-z
1/2+x,1/2-y,1/2+z
loop_
_atom_site_type_symbol
_atom_site_label
_atom_site_fract_x
_atom_site_fract_y
_atom_site_fract_z
Si Si1 0.693235 0.608739 0.539654
Si Si2 0.215508 0.881868 0.389669
Si Si3 0.000000 0.523759 0.250000
Si Si4 0.108492 0.189665 0.179602
O O1 0.500000 0.500000 0.500000
O O2 0.750000 0.750000 0.500000
O O3 0.789418 0.349008 0.572765
O O4 0.714853 0.841788 0.580152
O O5 0.351019 0.800176 0.366398
O O6 0.013308 0.930555 0.343977
O O7 0.993969 0.352422 0.202029
O O8 0.190619 0.669704 0.273047
#
# Coordination Sequence:
#
# PCOD9308165 Si02
#       4
#     8   8   4   8
#     4  12  28  50  78 113 154 202 256 316 382 454
#     4  12  28  51  80 115 156 204 257 317 382 457
#     4  12  26  48  76 112 152 200 252 314 380 454
#     4  12  27  48  78 114 154 202 255 315 382 455
#
# _framework density 25.949206
#
# number of rings (size 3 to 8) (size 9 to 14) (size 15 to 20)
#    0.000    0.000    0.000    8.571    0.000   16.000 
#    0.000    0.000    0.000    0.000    0.000    0.000 
#    0.000    0.000    0.000    0.000    0.000    0.000 
#
# Total GULP energy -78529.554599 kJ/mol
# GULP energy per Si atom -5609.253900 kJ/mol
# Density = 2.589014 g / cm^3
# Si number density = 25.949206 Si / 1000 Ang^3
#
#
#
# Elastic Constant Matrix: (Units=GPa)
#
#
# Indices 1 2 3 4 5 6 
#
# 1 135.9042 31.2409 24.2553 0.0000 -3.2282 0.0000
# 2 31.2409 137.7368 39.7812 0.0000 13.4075 0.0000
# 3 24.2553 39.7812 103.0567 0.0000 7.7961 0.0000
# 4 0.0000 0.0000 0.0000 60.5985 0.0000 10.7651
# 5 -3.2282 13.4075 7.7961 0.0000 39.9253 0.0000
# 6 0.0000 0.0000 0.0000 10.7651 0.0000 51.4209
#
#
#
# Elastic Compliance Matrix: (Units=1/GPa)
#
#
# Indices 1 2 3 4 5 6 
#
# 1 0.007998 -0.001552 -0.001392 0.000000 0.001440 0.000000
# 2 -0.001552 0.008660 -0.002789 0.000000 -0.002489 0.000000
# 3 -0.001392 -0.002789 0.011211 0.000000 -0.001365 0.000000
# 4 0.000000 0.000000 0.000000 0.017139 0.000000 -0.003588
# 5 0.001440 -0.002489 -0.001365 0.000000 0.026266 0.000000
# 6 0.000000 0.000000 0.000000 -0.003588 0.000000 0.020199
#
#
# Mechanical properties :
#
#
# Convention : Reuss Voigt Hill
#
# Bulk Modulus (GPa) = 60.96911 63.02806 61.99858
# Shear Modulus (GPa) = 46.12266 49.15030 47.63648
#
# Velocity S-wave (km/s) = 4.22052 4.35684 4.28922
# Velocity P-wave (km/s) = 6.87728 7.04636 6.96233
#
# Compressibility (1/GPa) = 0.01640175
#
# Stress axis : x y z
#
# Youngs Moduli (GPa) = 125.03833 115.47128 89.19790
#
# Poissons Ratio (x) = 0.17922 0.12417
# Poissons Ratio (y) = 0.19407 0.24880
# Poissons Ratio (z) = 0.17406 0.32209
#
# Static dielectric constant tensor:
#      x y z
#    x 1.979900 0.000000 0.017910 
#    y 0.000000 1.994940 0.000000 
#    z 0.017910 0.000000 2.063710 
# 
# From -- ./inp_files/286809.got.cif
#   From: 2010.05.17/outbox.cif.g08.bks.cpg/sg15_144_cif.got.tgz:286809.got - 2010.06.03 18:47:42.
