data_PCOD9308040
_publ_section_title
;
Structure prediction by ZEFSAII (Michael W. Deem and Ramdas Pophale) SiO2 
 PCOD9308040
Probable space group: C 2/C
;
_chemical_formula_sum "Si O2"
_cell_formula_units_Z 36
_cell_length_a 10.488881
_cell_length_b 20.932313
_cell_length_c 11.360843
_cell_angle_alpha 90.000000
_cell_angle_beta 144.415815
_cell_angle_gamma 90.000000
_cell_volume 1451.457032
_symmetry_space_group_name_H-M "C 2/C"
_symmetry_group_IT_number 15
_symmetry_cell_setting 'monoclinic'
loop_
_space_group_symop_operation_xyz
x,y,z
-x,y,1/2-z
-x,-y,-z
x,-y,1/2+z
1/2+x,1/2+y,z
1/2-x,1/2+y,1/2-z
1/2-x,1/2-y,-z
1/2+x,1/2-y,1/2+z
loop_
_atom_site_type_symbol
_atom_site_label
_atom_site_fract_x
_atom_site_fract_y
_atom_site_fract_z
Si Si1 0.342223 0.051323 0.437941
Si Si2 0.878524 0.326162 0.269612
Si Si3 0.000000 0.035197 0.750000
Si Si4 0.702761 0.237673 0.349570
Si Si5 0.940701 0.888548 0.970237
O O1 0.464691 0.115362 0.570813
O O2 0.500000 0.000000 0.500000
O O3 0.171176 0.065818 0.206175
O O4 0.206165 0.010673 0.430658
O O5 0.805524 0.279492 0.319221
O O6 0.646132 0.356390 0.060139
O O7 0.000000 0.294638 0.250000
O O8 0.972839 0.079962 0.843873
O O9 0.757019 0.163417 0.366973
O O10 0.925387 0.253728 0.609225
#
# Coordination Sequence:
#
# PCOD9308040 Si02
#       5
#     8   8   4   8   8
#     4  12  28  46  75 112 154 204 259 324 393 466
#     4  12  28  51  78 115 159 209 261 326 402 466
#     4  12  26  50  80 110 156 206 266 322 384 474
#     4  12  25  49  80 115 152 202 267 323 390 470
#     4  12  27  50  77 114 154 203 265 327 391 469
#
# _framework density 24.802664
#
# number of rings (size 3 to 8) (size 9 to 14) (size 15 to 20)
#    0.000    0.000    4.444    4.667    6.222    0.889 
#    2.000    0.000    0.000    0.000    0.000    0.000 
#    0.000    0.000    0.000    0.000    0.000    0.000 
#
# Total GULP energy -100723.219314 kJ/mol
# GULP energy per Si atom -5595.734406 kJ/mol
# Density = 2.474621 g / cm^3
# Si number density = 24.802664 Si / 1000 Ang^3
#
#
#
# Elastic Constant Matrix: (Units=GPa)
#
#
# Indices 1 2 3 4 5 6 
#
# 1 210.5283 62.9352 55.5263 0.0000 29.4872 0.0000
# 2 62.9352 96.2327 15.9382 0.0000 8.2657 0.0000
# 3 55.5263 15.9382 125.4290 0.0000 12.7679 0.0000
# 4 0.0000 0.0000 0.0000 60.2720 0.0000 17.4716
# 5 29.4872 8.2657 12.7679 0.0000 37.6427 0.0000
# 6 0.0000 0.0000 0.0000 17.4716 0.0000 27.7554
#
#
#
# Elastic Compliance Matrix: (Units=1/GPa)
#
#
# Indices 1 2 3 4 5 6 
#
# 1 0.007054 -0.003908 -0.002228 0.000000 -0.003912 0.000000
# 2 -0.003908 0.012919 0.000068 0.000000 0.000202 0.000000
# 3 -0.002228 0.000068 0.009088 0.000000 -0.001352 0.000000
# 4 0.000000 0.000000 0.000000 0.020295 0.000000 -0.012775
# 5 -0.003912 0.000202 -0.001352 0.000000 0.030044 0.000000
# 6 0.000000 0.000000 0.000000 -0.012775 0.000000 0.044071
#
#
# Mechanical properties :
#
#
# Convention : Reuss Voigt Hill
#
# Bulk Modulus (GPa) = 59.08602 77.88771 68.48687
# Shear Modulus (GPa) = 35.39886 44.98669 40.19278
#
# Velocity S-wave (km/s) = 3.78196 4.26348 4.02991
# Velocity P-wave (km/s) = 6.55325 7.46374 7.02327
#
# Compressibility (1/GPa) = 0.01692448
#
# Stress axis : x y z
#
# Youngs Moduli (GPa) = 141.76945 77.40686 110.03647
#
# Poissons Ratio (x) = 0.30251 0.24514
# Poissons Ratio (y) = 0.55405 -0.00748
# Poissons Ratio (z) = 0.31584 -0.00526
#
# Static dielectric constant tensor:
#      x y z
#    x 2.092130 0.000000 0.007370 
#    y 0.000000 1.903200 0.000000 
#    z 0.007370 0.000000 2.036060 
# 
# From -- ./inp_files/4269.got.cif
#   From: 2010.05.17/outbox.cif.g08.bks.cpg/sg15_3_cif.got.tgz:4269.got - 2010.06.03 18:47:42.
