data_PCOD9308049
_publ_section_title
;
Structure prediction by ZEFSAII (Michael W. Deem and Ramdas Pophale) SiO2 
 PCOD9308049
Probable space group: C 2/C
;
_chemical_formula_sum "Si O2"
_cell_formula_units_Z 32
_cell_length_a 27.908926
_cell_length_b 4.923043
_cell_length_c 19.835728
_cell_angle_alpha 90.000000
_cell_angle_beta 153.544178
_cell_angle_gamma 90.000000
_cell_volume 1214.171554
_symmetry_space_group_name_H-M "C 2/C"
_symmetry_group_IT_number 15
_symmetry_cell_setting 'monoclinic'
loop_
_space_group_symop_operation_xyz
x,y,z
-x,y,1/2-z
-x,-y,-z
x,-y,1/2+z
1/2+x,1/2+y,z
1/2-x,1/2+y,1/2-z
1/2-x,1/2-y,-z
1/2+x,1/2-y,1/2+z
loop_
_atom_site_type_symbol
_atom_site_label
_atom_site_fract_x
_atom_site_fract_y
_atom_site_fract_z
Si Si1 0.054948 0.174370 0.385197
Si Si2 0.007643 0.678282 0.113540
Si Si3 0.806802 0.120246 0.285666
Si Si4 0.724812 0.842667 0.391516
O O1 0.164784 0.037378 0.499078
O O2 0.000000 0.293141 0.250000
O O3 0.061140 0.430008 0.441876
O O4 0.984373 0.936524 0.327585
O O5 0.124391 0.542447 0.255520
O O6 0.930644 0.792382 0.957385
O O7 0.731119 0.350075 0.224517
O O8 0.795676 0.110352 0.190889
O O9 0.750000 0.750000 0.500000
#
# Coordination Sequence:
#
# PCOD9308049 Si02
#       4
#     8   8   8   8
#     4  12  26  47  75 111 155 197 251 320 380 450
#     4  12  26  48  77 109 152 202 255 314 376 456
#     4  12  25  50  77 108 155 203 249 314 383 450
#     4  12  27  49  80 115 150 203 258 310 386 453
#
# _framework density 26.355416000000002
#
# number of rings (size 3 to 8) (size 9 to 14) (size 15 to 20)
#    0.000    0.000    7.500    1.500    0.000    5.000 
#    0.000    5.000    0.000    0.000    0.000    0.000 
#    0.000    0.000    0.000    0.000    0.000    0.000 
#
# Total GULP energy -89568.199695 kJ/mol
# GULP energy per Si atom -5598.012481 kJ/mol
# Density = 2.629543 g / cm^3
# Si number density = 26.355416 Si / 1000 Ang^3
#
#
#
# Elastic Constant Matrix: (Units=GPa)
#
#
# Indices 1 2 3 4 5 6 
#
# 1 139.0669 51.8436 54.1060 0.0014 -7.9387 0.0002
# 2 51.8436 144.9211 12.8895 0.0054 -13.1858 0.0041
# 3 54.1060 12.8895 153.2603 0.0016 -8.5338 0.0011
# 4 0.0014 0.0054 0.0016 28.5644 -0.0011 8.9771
# 5 -7.9387 -13.1858 -8.5338 -0.0011 50.0709 -0.0006
# 6 0.0002 0.0041 0.0011 8.9771 -0.0006 26.7908
#
#
#
# Elastic Compliance Matrix: (Units=1/GPa)
#
#
# Indices 1 2 3 4 5 6 
#
# 1 0.009578 -0.003135 -0.003109 0.000000 0.000163 0.000001
# 2 -0.003135 0.008133 0.000519 -0.000001 0.001733 -0.000001
# 3 -0.003109 0.000519 0.007631 0.000000 0.000944 0.000000
# 4 0.000000 -0.000001 0.000000 0.039129 0.000000 -0.013112
# 5 0.000163 0.001733 0.000944 0.000000 0.020615 0.000000
# 6 0.000001 -0.000001 0.000000 -0.013112 0.000000 0.041720
#
#
# Mechanical properties :
#
#
# Convention : Reuss Voigt Hill
#
# Bulk Modulus (GPa) = 71.97454 74.99182 73.48318
# Shear Modulus (GPa) = 34.99255 42.31249 38.65252
#
# Velocity S-wave (km/s) = 3.64774 4.01116 3.83376
# Velocity P-wave (km/s) = 6.71638 7.06883 6.89486
#
# Compressibility (1/GPa) = 0.01389380
#
# Stress axis : x y z
#
# Youngs Moduli (GPa) = 104.40178 122.94978 131.04017
#
# Poissons Ratio (x) = 0.38547 0.40737
# Poissons Ratio (y) = 0.32732 -0.06805
# Poissons Ratio (z) = 0.32456 -0.06385
#
# Static dielectric constant tensor:
#      x y z
#    x 2.088780 0.000000 0.042320 
#    y 0.000000 1.961510 0.000000 
#    z 0.042320 0.000000 2.215730 
# 
# From -- ./inp_files/256420.got.cif
#   From: 2010.05.17/outbox.cif.g08.bks.cpg/sg15_129_cif.got.tgz:256420.got - 2010.06.03 18:47:42.
