data_PCOD9308144
_publ_section_title
;
Structure prediction by ZEFSAII (Michael W. Deem and Ramdas Pophale) SiO2 
 PCOD9308144
Probable space group: C 2/C
;
_chemical_formula_sum "Si O2"
_cell_formula_units_Z 32
_cell_length_a 8.836545
_cell_length_b 4.754528
_cell_length_c 28.738459
_cell_angle_alpha 90.000000
_cell_angle_beta 99.350166
_cell_angle_gamma 90.000000
_cell_volume 1191.364353
_symmetry_space_group_name_H-M "C 2/C"
_symmetry_group_IT_number 15
_symmetry_cell_setting 'monoclinic'
loop_
_space_group_symop_operation_xyz
x,y,z
-x,y,1/2-z
-x,-y,-z
x,-y,1/2+z
1/2+x,1/2+y,z
1/2-x,1/2+y,1/2-z
1/2-x,1/2-y,-z
1/2+x,1/2-y,1/2+z
loop_
_atom_site_type_symbol
_atom_site_label
_atom_site_fract_x
_atom_site_fract_y
_atom_site_fract_z
Si Si1 0.137556 0.642133 0.534479
Si Si2 0.433292 0.483175 0.593890
Si Si3 0.062292 0.487847 0.842407
Si Si4 0.702942 0.347209 0.219050
O O1 0.250000 0.750000 0.500000
O O2 0.255181 0.446732 0.569736
O O3 0.000000 0.500000 0.500000
O O4 0.054158 0.878488 0.561745
O O5 0.468169 0.299704 0.641223
O O6 0.437045 0.805306 0.610337
O O7 0.218608 0.513862 0.821989
O O8 0.942869 0.335672 0.802827
O O9 0.685983 0.605292 0.253807
#
# Coordination Sequence:
#
# PCOD9308144 Si02
#       4
#     8   8   8   8
#     4  12  27  49  78 113 154 202 256 316 382 454
#     4  12  26  48  76 112 154 202 255 315 380 455
#     4  12  26  48  76 111 151 200 252 313 380 453
#     4  12  26  47  77 112 151 198 252 314 380 454
#
# _framework density 26.859960999999998
#
# number of rings (size 3 to 8) (size 9 to 14) (size 15 to 20)
#    0.000    0.000    0.000    9.750    0.000    6.000 
#    0.000    0.000    0.000    0.000    0.000    0.000 
#    0.000    0.000    0.000    0.000    0.000    0.000 
#
# Total GULP energy -89775.202926 kJ/mol
# GULP energy per Si atom -5610.950183 kJ/mol
# Density = 2.679883 g / cm^3
# Si number density = 26.859961 Si / 1000 Ang^3
#
#
#
# Elastic Constant Matrix: (Units=GPa)
#
#
# Indices 1 2 3 4 5 6 
#
# 1 204.5284 61.6516 56.4144 0.0000 2.7459 0.0000
# 2 61.6516 116.4282 29.8951 0.0000 10.1146 0.0000
# 3 56.4144 29.8951 95.7559 0.0000 -3.0904 0.0000
# 4 0.0000 0.0000 0.0000 36.1690 0.0000 5.2168
# 5 2.7459 10.1146 -3.0904 0.0000 45.4076 0.0000
# 6 0.0000 0.0000 0.0000 5.2168 0.0000 53.3159
#
#
#
# Elastic Compliance Matrix: (Units=1/GPa)
#
#
# Indices 1 2 3 4 5 6 
#
# 1 0.006528 -0.002684 -0.003008 0.000000 -0.000002 0.000000
# 2 -0.002684 0.010684 -0.001830 0.000000 -0.002342 0.000000
# 3 -0.003008 -0.001830 0.012834 0.000000 0.001463 0.000000
# 4 0.000000 0.000000 0.000000 0.028044 0.000000 -0.002744
# 5 -0.000002 -0.002342 0.001463 0.000000 0.022644 0.000000
# 6 0.000000 0.000000 0.000000 -0.002744 0.000000 0.019025
#
#
# Mechanical properties :
#
#
# Convention : Reuss Voigt Hill
#
# Bulk Modulus (GPa) = 66.65896 79.18164 72.92030
# Shear Modulus (GPa) = 41.73535 44.89527 43.31531
#
# Velocity S-wave (km/s) = 3.94612 4.09278 4.02012
# Velocity P-wave (km/s) = 6.75526 7.20263 6.98253
#
# Compressibility (1/GPa) = 0.01500173
#
# Stress axis : x y z
#
# Youngs Moduli (GPa) = 153.18249 93.60114 77.91915
#
# Poissons Ratio (x) = 0.25125 0.23439
# Poissons Ratio (y) = 0.41119 0.14256
# Poissons Ratio (z) = 0.46078 0.17125
#
# Static dielectric constant tensor:
#      x y z
#    x 2.044790 0.000000 0.058830 
#    y 0.000000 1.994060 0.000000 
#    z 0.058830 0.000000 2.129780 
# 
# From -- ./inp_files/306253.got.cif
#   From: 2010.05.17/outbox.cif.g08.bks.cpg/sg15_154_cif.got.tgz:306253.got - 2010.06.03 18:47:42.
