data_PCOD9308394
_publ_section_title
;
Structure prediction by ZEFSAII (Michael W. Deem and Ramdas Pophale) SiO2 
 PCOD9308394
Probable space group: C 2/C
;
_chemical_formula_sum "Si O2"
_cell_formula_units_Z 20
_cell_length_a 5.206277
_cell_length_b 18.857411
_cell_length_c 9.044030
_cell_angle_alpha 90.000000
_cell_angle_beta 122.753047
_cell_angle_gamma 90.000000
_cell_volume 746.745505
_symmetry_space_group_name_H-M "C 2/C"
_symmetry_group_IT_number 15
_symmetry_cell_setting 'monoclinic'
loop_
_space_group_symop_operation_xyz
x,y,z
-x,y,1/2-z
-x,-y,-z
x,-y,1/2+z
1/2+x,1/2+y,z
1/2-x,1/2+y,1/2-z
1/2-x,1/2-y,-z
1/2+x,1/2-y,1/2+z
loop_
_atom_site_type_symbol
_atom_site_label
_atom_site_fract_x
_atom_site_fract_y
_atom_site_fract_z
Si Si1 0.790993 0.545355 0.545688
Si Si2 0.933624 0.658276 0.390178
Si Si3 0.000000 0.205076 0.750000
O O1 0.500000 0.500000 0.500000
O O2 0.714007 0.616462 0.431179
O O3 0.000000 0.563223 0.750000
O O4 0.000000 0.500000 0.500000
O O5 0.000000 0.623631 0.250000
O O6 0.852850 0.738914 0.320876
O O7 0.250690 0.662285 0.581344
#
# Coordination Sequence:
#
# PCOD9308394 Si02
#       3
#     8   8   4
#     4  12  28  50  77 112 161 214 269 326 393 471
#     4   9  19  43  79 118 163 199 270 321 408 469
#     4   8  18  40  86 118 160 208 254 332 404 478
#
# _framework density 26.782889000000001
#
# number of rings (size 3 to 8) (size 9 to 14) (size 15 to 20)
#    1.200    0.800    0.000    2.400    5.600    0.000 
#    0.000    2.000    0.000    0.000    0.000    0.000 
#    0.000    0.000    0.000    0.000    0.000    0.000 
#
# Total GULP energy -56068.713260 kJ/mol
# GULP energy per Si atom -5606.871326 kJ/mol
# Density = 2.672193 g / cm^3
# Si number density = 26.782889 Si / 1000 Ang^3
#
#
#
# Elastic Constant Matrix: (Units=GPa)
#
#
# Indices 1 2 3 4 5 6 
#
# 1 179.7439 63.1178 66.7879 0.0000 -12.0492 0.0000
# 2 63.1178 109.1796 59.6992 0.0000 -22.1440 0.0000
# 3 66.7879 59.6992 272.1656 0.0000 -5.0090 0.0000
# 4 0.0000 0.0000 0.0000 42.9488 0.0000 -24.2619
# 5 -12.0492 -22.1440 -5.0090 0.0000 36.8329 0.0000
# 6 0.0000 0.0000 0.0000 -24.2619 0.0000 53.6995
#
#
#
# Elastic Compliance Matrix: (Units=1/GPa)
#
#
# Indices 1 2 3 4 5 6 
#
# 1 0.007199 -0.003621 -0.000971 0.000000 0.000046 0.000000
# 2 -0.003621 0.013722 -0.001996 0.000000 0.006794 0.000000
# 3 -0.000971 -0.001996 0.004333 0.000000 -0.000929 0.000000
# 4 0.000000 0.000000 0.000000 0.031263 0.000000 0.014125
# 5 0.000046 0.006794 -0.000929 0.000000 0.031123 0.000000
# 6 0.000000 0.000000 0.000000 0.014125 0.000000 0.025004
#
#
# Mechanical properties :
#
#
# Convention : Reuss Voigt Hill
#
# Bulk Modulus (GPa) = 82.80496 104.47765 93.64130
# Shear Modulus (GPa) = 38.50660 51.46186 44.98423
#
# Velocity S-wave (km/s) = 3.79586 4.38818 4.10272
# Velocity P-wave (km/s) = 7.08488 8.04790 7.58170
#
# Compressibility (1/GPa) = 0.01207657
#
# Stress axis : x y z
#
# Youngs Moduli (GPa) = 138.90465 72.87427 230.76556
#
# Poissons Ratio (x) = 0.26391 0.22417
# Poissons Ratio (y) = 0.50304 0.46066
# Poissons Ratio (z) = 0.13494 0.14547
#
# Static dielectric constant tensor:
#      x y z
#    x 2.139800 0.000000 0.016940 
#    y 0.000000 2.140740 0.000000 
#    z 0.016940 0.000000 2.035520 
# 
# From -- ./inp_files/19301.got.cif
#   From: 2010.05.17/outbox.cif.g08.bks.cpg/sg15_10_cif.got.tgz:19301.got - 2010.06.03 18:47:42.
