data_PCOD9308210
_publ_section_title
;
Structure prediction by ZEFSAII (Michael W. Deem and Ramdas Pophale) SiO2 
 PCOD9308210
Probable space group: C 2/C
;
_chemical_formula_sum "Si O2"
_cell_formula_units_Z 28
_cell_length_a 8.430682
_cell_length_b 28.959113
_cell_length_c 5.032214
_cell_angle_alpha 90.000000
_cell_angle_beta 108.025766
_cell_angle_gamma 90.000000
_cell_volume 1168.287916
_symmetry_space_group_name_H-M "C 2/C"
_symmetry_group_IT_number 15
_symmetry_cell_setting 'monoclinic'
loop_
_space_group_symop_operation_xyz
x,y,z
-x,y,1/2-z
-x,-y,-z
x,-y,1/2+z
1/2+x,1/2+y,z
1/2-x,1/2+y,1/2-z
1/2-x,1/2-y,-z
1/2+x,1/2-y,1/2+z
loop_
_atom_site_type_symbol
_atom_site_label
_atom_site_fract_x
_atom_site_fract_y
_atom_site_fract_z
Si Si1 0.312107 0.280194 0.269291
Si Si2 0.189334 0.616527 0.758523
Si Si3 0.752979 0.530655 0.067708
Si Si4 0.500000 0.576855 0.250000
O O1 0.500000 0.289265 0.250000
O O2 0.250000 0.250000 0.500000
O O3 0.226503 0.330073 0.224129
O O4 0.250000 0.250000 0.000000
O O5 0.190855 0.580082 0.516488
O O6 0.000000 0.613237 0.750000
O O7 0.339788 0.603157 0.043513
O O8 0.802207 0.493133 0.871516
O O9 0.564676 0.544828 0.047487
#
# Coordination Sequence:
#
# PCOD9308210 Si02
#       4
#     8   8   8   4
#     4  12  28  53  84 119 159 208 264 332 407 480
#     4  12  30  51  79 118 162 208 269 330 400 480
#     4  12  26  49  79 113 157 213 267 329 402 475
#     4  12  26  50  80 110 162 206 272 324 406 468
#
# _framework density 23.966694
#
# number of rings (size 3 to 8) (size 9 to 14) (size 15 to 20)
#    0.000    0.000    2.857    6.000    8.000    2.286 
#    0.000    0.000    0.000    0.000    0.000    0.000 
#    0.000    0.000    0.000    0.000    0.000    0.000 
#
# Total GULP energy -77965.653980 kJ/mol
# GULP energy per Si atom -5568.975284 kJ/mol
# Density = 2.391215 g / cm^3
# Si number density = 23.966694 Si / 1000 Ang^3
#
#
#
# Elastic Constant Matrix: (Units=GPa)
#
#
# Indices 1 2 3 4 5 6 
#
# 1 212.3517 85.9633 70.5523 0.0000 -30.6067 0.0000
# 2 85.9633 207.8726 51.5151 0.0000 -35.1195 0.0000
# 3 70.5523 51.5151 144.5895 0.0000 -38.4945 0.0000
# 4 0.0000 0.0000 0.0000 25.2948 0.0000 -11.7400
# 5 -30.6067 -35.1195 -38.4945 0.0000 53.1626 0.0000
# 6 0.0000 0.0000 0.0000 -11.7400 0.0000 42.8721
#
#
#
# Elastic Compliance Matrix: (Units=1/GPa)
#
#
# Indices 1 2 3 4 5 6 
#
# 1 0.006337 -0.001946 -0.002192 0.000000 0.000775 0.000000
# 2 -0.001946 0.006189 -0.000576 0.000000 0.002551 0.000000
# 3 -0.002192 -0.000576 0.009606 0.000000 0.005312 0.000000
# 4 0.000000 0.000000 0.000000 0.045290 0.000000 0.012402
# 5 0.000775 0.002551 0.005312 0.000000 0.024788 0.000000
# 6 0.000000 0.000000 0.000000 0.012402 0.000000 0.026721
#
#
# Mechanical properties :
#
#
# Convention : Reuss Voigt Hill
#
# Bulk Modulus (GPa) = 78.72828 108.98611 93.85720
# Shear Modulus (GPa) = 37.70855 48.05144 42.87999
#
# Velocity S-wave (km/s) = 3.97088 4.48250 4.23442
# Velocity P-wave (km/s) = 7.34467 8.50665 7.94693
#
# Compressibility (1/GPa) = 0.01270192
#
# Stress axis : x y z
#
# Youngs Moduli (GPa) = 157.79734 161.56839 104.10626
#
# Poissons Ratio (x) = 0.31448 0.22824
# Poissons Ratio (y) = 0.30714 0.06000
# Poissons Ratio (z) = 0.34595 0.09311
#
# Static dielectric constant tensor:
#      x y z
#    x 1.480850 0.000000 0.248260 
#    y 0.000000 1.772290 0.000000 
#    z 0.248260 0.000000 1.859240 
# 
# From -- ./inp_files/2220.got.cif
#   From: 2010.05.17/outbox.cif.g08.bks.cpg/sg15_2_cif.got.tgz:2220.got - 2010.06.03 18:47:42.
