data_PCOD9308202
_publ_section_title
;
Structure prediction by ZEFSAII (Michael W. Deem and Ramdas Pophale) SiO2 
 PCOD9308202
Probable space group: C 2/C
;
_chemical_formula_sum "Si O2"
_cell_formula_units_Z 24
_cell_length_a 17.941629
_cell_length_b 7.745343
_cell_length_c 8.420918
_cell_angle_alpha 90.000000
_cell_angle_beta 134.562674
_cell_angle_gamma 90.000000
_cell_volume 833.751575
_symmetry_space_group_name_H-M "C 2/C"
_symmetry_group_IT_number 15
_symmetry_cell_setting 'monoclinic'
loop_
_space_group_symop_operation_xyz
x,y,z
-x,y,1/2-z
-x,-y,-z
x,-y,1/2+z
1/2+x,1/2+y,z
1/2-x,1/2+y,1/2-z
1/2-x,1/2-y,-z
1/2+x,1/2-y,1/2+z
loop_
_atom_site_type_symbol
_atom_site_label
_atom_site_fract_x
_atom_site_fract_y
_atom_site_fract_z
Si Si1 0.180197 0.127014 0.004606
Si Si2 0.665362 0.849449 0.267336
Si Si3 0.500000 0.210500 0.750000
Si Si4 0.500000 0.500000 0.500000
O O1 0.267822 0.000594 0.209586
O O2 0.122588 0.219220 0.067910
O O3 0.250000 0.250000 0.000000
O O4 0.094358 0.034517 0.770301
O O5 0.750000 0.750000 0.500000
O O6 0.578495 0.905389 0.263209
O O7 0.455722 0.334504 0.545835
#
# Coordination Sequence:
#
# PCOD9308202 Si02
#       4
#     8   8   4   4
#     4  12  28  54  90 125 175 236 292 374 451 537
#     4  12  26  52  85 121 174 225 294 362 448 530
#     4  12  26  48  86 122 162 230 292 356 442 530
#     4  12  26  50  86 120 168 230 294 360 454 524
#
# _framework density 28.785554999999999
#
# number of rings (size 3 to 8) (size 9 to 14) (size 15 to 20)
#    0.000    0.000    3.333    6.000    0.000    0.000 
#    0.000   16.667    7.333    0.000    0.000    0.000 
#    0.000    0.000    0.000    0.000    0.000    0.000 
#
# Total GULP energy -66939.340911 kJ/mol
# GULP energy per Si atom -5578.278409 kJ/mol
# Density = 2.872004 g / cm^3
# Si number density = 28.785555 Si / 1000 Ang^3
#
#
#
# Elastic Constant Matrix: (Units=GPa)
#
#
# Indices 1 2 3 4 5 6 
#
# 1 251.8470 29.4976 45.9716 0.0000 -19.3835 0.0000
# 2 29.4976 50.2712 46.2092 0.0000 -2.3721 0.0000
# 3 45.9716 46.2092 175.1243 0.0000 -3.2490 0.0000
# 4 0.0000 0.0000 0.0000 51.1074 0.0000 -13.2070
# 5 -19.3835 -2.3721 -3.2490 0.0000 43.1206 0.0000
# 6 0.0000 0.0000 0.0000 -13.2070 0.0000 41.0610
#
#
#
# Elastic Compliance Matrix: (Units=1/GPa)
#
#
# Indices 1 2 3 4 5 6 
#
# 1 0.004455 -0.001958 -0.000618 0.000000 0.001848 0.000000
# 2 -0.001958 0.027159 -0.006650 0.000000 0.000113 0.000000
# 3 -0.000618 -0.006650 0.007626 0.000000 -0.000069 0.000000
# 4 0.000000 0.000000 0.000000 0.021340 0.000000 0.006864
# 5 0.001848 0.000113 -0.000069 0.000000 0.024023 0.000000
# 6 0.000000 0.000000 0.000000 0.006864 0.000000 0.026562
#
#
# Mechanical properties :
#
#
# Convention : Reuss Voigt Hill
#
# Bulk Modulus (GPa) = 48.10839 80.06658 64.08748
# Shear Modulus (GPa) = 36.61701 50.76209 43.68955
#
# Velocity S-wave (km/s) = 3.57047 4.20391 3.90007
# Velocity P-wave (km/s) = 5.80918 7.17210 6.52632
#
# Compressibility (1/GPa) = 0.02078640
#
# Stress axis : x y z
#
# Youngs Moduli (GPa) = 224.45672 36.81961 131.12931
#
# Poissons Ratio (x) = 0.07211 0.08110
# Poissons Ratio (y) = 0.43959 0.87204
# Poissons Ratio (z) = 0.13882 0.24486
#
# Static dielectric constant tensor:
#      x y z
#    x 1.762270 0.000000 0.079460 
#    y 0.000000 2.202460 0.000000 
#    z 0.079460 0.000000 2.021960 
# 
# From -- ./inp_files/45587.got.cif
#   From: 2010.05.17/outbox.cif.g08.bks.cpg/sg15_23_cif.got.tgz:45587.got - 2010.06.03 18:47:42.
