data_PCOD9308080
_publ_section_title
;
Structure prediction by ZEFSAII (Michael W. Deem and Ramdas Pophale) SiO2 
 PCOD9308080
Probable space group: C 2/C
;
_chemical_formula_sum "Si O2"
_cell_formula_units_Z 40
_cell_length_a 14.382008
_cell_length_b 23.888425
_cell_length_c 11.527967
_cell_angle_alpha 90.000000
_cell_angle_beta 30.425153
_cell_angle_gamma 90.000000
_cell_volume 2005.691184
_symmetry_space_group_name_H-M "C 2/C"
_symmetry_group_IT_number 15
_symmetry_cell_setting 'monoclinic'
loop_
_space_group_symop_operation_xyz
x,y,z
-x,y,1/2-z
-x,-y,-z
x,-y,1/2+z
1/2+x,1/2+y,z
1/2-x,1/2+y,1/2-z
1/2-x,1/2-y,-z
1/2+x,1/2-y,1/2+z
loop_
_atom_site_type_symbol
_atom_site_label
_atom_site_fract_x
_atom_site_fract_y
_atom_site_fract_z
Si Si1 0.734272 0.898165 0.693186
Si Si2 0.805898 0.396068 0.150134
Si Si3 0.718228 0.185190 0.010420
Si Si4 0.292833 0.009676 0.465638
Si Si5 0.528500 0.588142 0.337528
O O1 0.795194 0.852289 0.532442
O O2 0.853172 0.892427 0.680077
O O3 0.748307 0.958265 0.611490
O O4 0.518779 0.890660 0.954795
O O5 0.675006 0.418109 0.391390
O O6 0.731272 0.339036 0.170259
O O7 0.798067 0.440493 0.054102
O O8 0.500000 0.174683 0.250000
O O9 0.750000 0.250000 0.000000
O O10 0.500000 0.985390 0.250000
O O11 0.143506 0.965624 0.669097
O O12 0.500000 0.623363 0.250000
#
# Coordination Sequence:
#
# PCOD9308080 Si02
#       5
#     8   8   8   8   8
#     4   9  22  41  54  83 126 145 192 254 277 343
#     4   9  21  40  55  85 121 146 192 246 286 348
#     4   9  19  37  67  95 109 139 185 247 316 337
#     4   9  21  37  57  81 115 159 197 240 291 330
#     4  12  26  33  56  83 116 169 202 222 285 345
#
# _framework density 19.943249000000002
#
# number of rings (size 3 to 8) (size 9 to 14) (size 15 to 20)
#    0.000    2.400    0.000    3.000   11.200    3.200 
#    0.000    0.000    0.000    1.200    0.000    0.000 
#    0.000    0.000    0.000    0.000    0.000    0.000 
#
# Total GULP energy -111562.336251 kJ/mol
# GULP energy per Si atom -5578.116813 kJ/mol
# Density = 1.989786 g / cm^3
# Si number density = 19.943249 Si / 1000 Ang^3
#
#
#
# Elastic Constant Matrix: (Units=GPa)
#
#
# Indices 1 2 3 4 5 6 
#
# 1 123.4287 13.0618 34.0603 0.0000 15.3648 0.0002
# 2 13.0618 80.2234 28.0246 0.0003 5.5310 0.0001
# 3 34.0603 28.0246 119.9114 -0.0010 4.3878 0.0012
# 4 0.0000 0.0003 -0.0010 18.1165 0.0006 -3.2775
# 5 15.3648 5.5310 4.3878 0.0006 17.5171 -0.0006
# 6 0.0002 0.0001 0.0012 -3.2775 -0.0006 15.1929
#
#
#
# Elastic Compliance Matrix: (Units=1/GPa)
#
#
# Indices 1 2 3 4 5 6 
#
# 1 0.009781 -0.000194 -0.002444 0.000000 -0.007906 0.000000
# 2 -0.000194 0.013796 -0.003044 0.000000 -0.003424 0.000000
# 3 -0.002444 -0.003044 0.009720 0.000000 0.000670 -0.000001
# 4 0.000000 0.000000 0.000000 0.057440 -0.000001 0.012391
# 5 -0.007906 -0.003424 0.000670 -0.000001 0.064935 0.000002
# 6 0.000000 0.000000 -0.000001 0.012391 0.000002 0.068493
#
#
# Mechanical properties :
#
#
# Convention : Reuss Voigt Hill
#
# Bulk Modulus (GPa) = 45.58997 52.65076 49.12036
# Shear Modulus (GPa) = 20.58975 26.72645 23.65810
#
# Velocity S-wave (km/s) = 3.21661 3.66474 3.44796
# Velocity P-wave (km/s) = 6.05846 6.66069 6.36670
#
# Compressibility (1/GPa) = 0.02193465
#
# Stress axis : x y z
#
# Youngs Moduli (GPa) = 102.24117 72.48403 102.87539
#
# Poissons Ratio (x) = 0.01405 0.25139
# Poissons Ratio (y) = 0.01981 0.31315
# Poissons Ratio (z) = 0.24984 0.22064
#
# Static dielectric constant tensor:
#      x y z
#    x 1.780390 0.000000 -0.024230 
#    y 0.000000 1.723660 0.000000 
#    z -0.024230 0.000000 1.743540 
# 
# From -- ./inp_files/100566.got.cif
#   From: 2010.05.17/outbox.cif.g08.bks.cpg/sg15_51_cif.got.tgz:100566.got - 2010.06.03 18:47:42.
