data_PCOD9308573
_publ_section_title
;
Structure prediction by ZEFSAII (Michael W. Deem and Ramdas Pophale) SiO2 
 PCOD9308573
Probable space group: C 2/C
;
_chemical_formula_sum "Si O2"
_cell_formula_units_Z 32
_cell_length_a 8.735771
_cell_length_b 22.299874
_cell_length_c 9.266230
_cell_angle_alpha 90.000000
_cell_angle_beta 47.455642
_cell_angle_gamma 90.000000
_cell_volume 1329.931506
_symmetry_space_group_name_H-M "C 2/C"
_symmetry_group_IT_number 15
_symmetry_cell_setting 'monoclinic'
loop_
_space_group_symop_operation_xyz
x,y,z
-x,y,1/2-z
-x,-y,-z
x,-y,1/2+z
1/2+x,1/2+y,z
1/2-x,1/2+y,1/2-z
1/2-x,1/2-y,-z
1/2+x,1/2-y,1/2+z
loop_
_atom_site_type_symbol
_atom_site_label
_atom_site_fract_x
_atom_site_fract_y
_atom_site_fract_z
Si Si1 0.173621 0.100973 0.262289
Si Si2 0.664236 0.081568 0.874354
Si Si3 0.738020 0.999570 0.582301
Si Si4 0.234308 0.680797 0.049515
O O1 0.146465 0.159049 0.382969
O O2 0.000000 0.098792 0.250000
O O3 0.139705 0.046896 0.396137
O O4 0.412128 0.092869 0.049046
O O5 0.718554 0.063555 0.676092
O O6 0.764425 0.138804 0.889762
O O7 0.756156 0.023903 0.906229
O O8 0.500000 0.977504 0.750000
O O9 0.000000 0.668876 0.250000
O O10 0.250000 0.750000 0.000000
#
# Coordination Sequence:
#
# PCOD9308573 Si02
#       4
#     8   8   8   8
#     4   9  17  31  52  74 100 132 168 217 266 308
#     4   9  18  34  54  73 104 142 172 214 268 320
#     4   9  16  31  51  73 103 138 167 203 264 324
#     4   9  19  38  56  72 103 144 180 218 265 316
#
# _framework density 24.061388000000001
#
# number of rings (size 3 to 8) (size 9 to 14) (size 15 to 20)
#    0.000    3.000    0.000    6.000    0.000    0.000 
#    0.000   32.500    0.000    0.000    0.000    0.000 
#    0.000    0.000    0.000    0.000    0.000    0.000 
#
# Total GULP energy -89126.636127 kJ/mol
# GULP energy per Si atom -5570.414758 kJ/mol
# Density = 2.400662 g / cm^3
# Si number density = 24.061388 Si / 1000 Ang^3
#
#
#
# Elastic Constant Matrix: (Units=GPa)
#
#
# Indices 1 2 3 4 5 6 
#
# 1 212.5666 64.6529 53.0862 0.0000 15.3761 0.0000
# 2 64.6529 158.5320 22.0164 0.0000 20.3157 0.0000
# 3 53.0862 22.0164 85.7106 0.0000 -6.5749 0.0000
# 4 0.0000 0.0000 0.0000 34.9056 0.0000 17.2991
# 5 15.3761 20.3157 -6.5749 0.0000 51.9862 0.0000
# 6 0.0000 0.0000 0.0000 17.2991 0.0000 34.6250
#
#
#
# Elastic Compliance Matrix: (Units=1/GPa)
#
#
# Indices 1 2 3 4 5 6 
#
# 1 0.006265 -0.001865 -0.003521 0.000000 -0.001570 0.000000
# 2 -0.001865 0.007525 -0.000971 0.000000 -0.002512 0.000000
# 3 -0.003521 -0.000971 0.014346 0.000000 0.003235 0.000000
# 4 0.000000 0.000000 0.000000 0.038077 0.000000 -0.019024
# 5 -0.001570 -0.002512 0.003235 0.000000 0.021091 0.000000
# 6 0.000000 0.000000 0.000000 -0.019024 0.000000 0.038385
#
#
# Mechanical properties :
#
#
# Convention : Reuss Voigt Hill
#
# Bulk Modulus (GPa) = 64.84398 81.81337 73.32868
# Shear Modulus (GPa) = 34.83290 45.44029 40.13660
#
# Velocity S-wave (km/s) = 3.80895 4.35042 4.08866
# Velocity P-wave (km/s) = 6.80823 7.70134 7.26852
#
# Compressibility (1/GPa) = 0.01542163
#
# Stress axis : x y z
#
# Youngs Moduli (GPa) = 159.62900 132.88976 69.70689
#
# Poissons Ratio (x) = 0.24779 0.24547
# Poissons Ratio (y) = 0.29765 0.06767
# Poissons Ratio (z) = 0.56213 0.12900
#
# Static dielectric constant tensor:
#      x y z
#    x 2.268100 0.000000 0.029190 
#    y 0.000000 1.926900 0.000000 
#    z 0.029190 0.000000 2.057870 
# 
# From -- ./inp_files/77542.got.cif
#   From: 2010.05.17/outbox.cif.g08.bks.cpg/sg15_39_cif.got.tgz:77542.got - 2010.06.03 18:47:42.
