data_PCOD9308114
_publ_section_title
;
Structure prediction by ZEFSAII (Michael W. Deem and Ramdas Pophale) SiO2 
 PCOD9308114
Probable space group: C 2/C
;
_chemical_formula_sum "Si O2"
_cell_formula_units_Z 44
_cell_length_a 5.789684
_cell_length_b 13.474690
_cell_length_c 24.538328
_cell_angle_alpha 90.000000
_cell_angle_beta 96.909445
_cell_angle_gamma 90.000000
_cell_volume 1900.435124
_symmetry_space_group_name_H-M "C 2/C"
_symmetry_group_IT_number 15
_symmetry_cell_setting 'monoclinic'
loop_
_space_group_symop_operation_xyz
x,y,z
-x,y,1/2-z
-x,-y,-z
x,-y,1/2+z
1/2+x,1/2+y,z
1/2-x,1/2+y,1/2-z
1/2-x,1/2-y,-z
1/2+x,1/2-y,1/2+z
loop_
_atom_site_type_symbol
_atom_site_label
_atom_site_fract_x
_atom_site_fract_y
_atom_site_fract_z
Si Si1 0.670616 0.278140 0.436292
Si Si2 0.239267 0.996895 0.468265
Si Si3 0.329116 0.516207 0.793260
Si Si4 0.500000 0.159515 0.250000
Si Si5 0.711911 0.281705 0.161643
Si Si6 0.498051 0.628949 0.383300
O O1 0.750000 0.250000 0.500000
O O2 0.746701 0.393404 0.435263
O O3 0.415696 0.287418 0.400912
O O4 0.797046 0.189081 0.407757
O O5 0.500000 0.000000 0.500000
O O6 0.198367 0.094288 0.430586
O O7 0.000000 0.000000 0.500000
O O8 0.500000 0.548959 0.750000
O O9 0.201413 0.614810 0.810865
O O10 0.434322 0.472544 0.851736
O O11 0.202450 0.420145 0.765737
O O12 0.539579 0.229308 0.199442
O O13 0.916331 0.204737 0.159532
#
# Coordination Sequence:
#
# PCOD9308114 Si02
#       6
#     8   8   8   4   8   8
#     4  12  26  47  77 112 157 201 261 319 396 476
#     4  12  28  49  78 115 162 210 262 323 394 472
#     4  12  26  47  73 108 148 198 257 321 402 466
#     4  12  26  46  76 106 150 196 260 334 392 474
#     4  12  27  45  76 112 150 198 260 324 398 476
#     4  12  27  46  78 112 152 200 264 327 396 472
#
# _framework density 23.152594000000001
#
# number of rings (size 3 to 8) (size 9 to 14) (size 15 to 20)
#    0.000    0.000    8.182    1.091    2.545    5.818 
#    0.000    0.000    0.000    0.000    0.000    0.000 
#    0.000    0.000    0.000    0.000    0.000    0.000 
#
# Total GULP energy -122603.079651 kJ/mol
# GULP energy per Si atom -5572.867257 kJ/mol
# Density = 2.309990 g / cm^3
# Si number density = 23.152594 Si / 1000 Ang^3
#
#
#
# Elastic Constant Matrix: (Units=GPa)
#
#
# Indices 1 2 3 4 5 6 
#
# 1 47.4486 4.7686 13.2952 0.0000 9.6958 0.0000
# 2 4.7686 128.2687 19.2274 0.0000 1.6086 0.0000
# 3 13.2952 19.2274 81.6242 0.0000 0.1941 0.0000
# 4 0.0000 0.0000 0.0000 155.6808 0.0000 -124.3791
# 5 9.6958 1.6086 0.1941 0.0000 39.2065 0.0000
# 6 0.0000 0.0000 0.0000 -124.3791 0.0000 146.9372
#
#
#
# Elastic Compliance Matrix: (Units=1/GPa)
#
#
# Indices 1 2 3 4 5 6 
#
# 1 0.023316 -0.000236 -0.003729 0.000000 -0.005738 0.000000
# 2 -0.000236 0.008088 -0.001866 0.000000 -0.000264 0.000000
# 3 -0.003729 -0.001866 0.013296 0.000000 0.000933 0.000000
# 4 0.000000 0.000000 0.000000 0.019843 0.000000 0.016796
# 5 -0.005738 -0.000264 0.000933 0.000000 0.026931 0.000000
# 6 0.000000 0.000000 0.000000 0.016796 0.000000 0.021023
#
#
# Mechanical properties :
#
#
# Convention : Reuss Voigt Hill
#
# Bulk Modulus (GPa) = 30.26731 36.88043 33.57387
# Shear Modulus (GPa) = 36.98995 83.03494 60.01244
#
# Velocity S-wave (km/s) = 4.00141 5.99517 5.09673
# Velocity P-wave (km/s) = 5.86939 7.99291 7.01200
#
# Compressibility (1/GPa) = 0.03303895
#
# Stress axis : x y z
#
# Youngs Moduli (GPa) = 42.88816 123.64069 75.21076
#
# Poissons Ratio (x) = 0.02917 0.28043
# Poissons Ratio (y) = 0.01012 0.14035
# Poissons Ratio (z) = 0.15991 0.23073
#
# Static dielectric constant tensor:
#      x y z
#    x 1.982550 0.000000 0.017870 
#    y 0.000000 1.879870 0.000000 
#    z 0.017870 0.000000 1.921830 
# 
# From -- ./inp_files/260429.got.cif
#   From: 2010.05.17/outbox.cif.g08.bks.cpg/sg15_131_cif.got.tgz:260429.got - 2010.06.03 18:47:42.
