data_PCOD9308691
_publ_section_title
;
Structure prediction by ZEFSAII (Michael W. Deem and Ramdas Pophale) SiO2 
 PCOD9308691
Probable space group: C 2/C
;
_chemical_formula_sum "Si O2"
_cell_formula_units_Z 24
_cell_length_a 12.000000
_cell_length_b 21.000000
_cell_length_c 15.000000
_cell_angle_alpha 90.000000
_cell_angle_beta 40.000000
_cell_angle_gamma 90.000000
_cell_volume 2429.737165
_symmetry_space_group_name_H-M "C 2/C"
_symmetry_group_IT_number 15
_symmetry_cell_setting 'monoclinic'
loop_
_space_group_symop_operation_xyz
x,y,z
-x,y,1/2-z
-x,-y,-z
x,-y,1/2+z
1/2+x,1/2+y,z
1/2-x,1/2+y,1/2-z
1/2-x,1/2-y,-z
1/2+x,1/2-y,1/2+z
loop_
_atom_site_type_symbol
_atom_site_label
_atom_site_fract_x
_atom_site_fract_y
_atom_site_fract_z
Si Si1 0.625719 0.392399 0.885659
Si Si2 0.850515 0.095382 0.403202
Si Si3 0.607972 0.207189 0.538548
Si Si4 0.929960 0.877752 0.191145
Si Si5 0.203591 0.503382 0.348244
Si Si6 0.764456 0.744435 0.229686
O O1 0.445829 0.404718 0.940081
O O2 0.749796 0.446570 0.762050
O O3 0.709331 0.322027 0.813725
O O4 0.568574 0.393218 0.025404
O O5 0.675609 0.136006 0.512248
O O6 0.803350 0.032503 0.374758
O O7 0.000000 0.128555 0.250000
O O8 0.750000 0.250000 0.500000
O O9 0.418536 0.224893 0.687882
O O10 0.622021 0.223160 0.424761
O O11 0.859092 0.805077 0.218604
O O12 0.000000 0.880303 0.250000
O O13 0.783934 0.933970 0.276201
O O14 0.000000 0.500000 0.500000
#
# Coordination Sequence:
#
# PCOD9308691 Si02
#       6
#     8   8   8   8   8   8
#     4  11  23  44  69  97 133 179 228 283 342 400
#     4  10  18  37  67  96 131 170 211 273 349 396
#     4  12  19  35  63 102 134 163 210 279 346 406
#     4  12  27  46  65  96 139 187 232 278 343 413
#     4  11  24  44  72 100 136 175 222 284 343 424
#     4  12  23  39  65  99 136 173 226 279 338 407
#
# _framework density 9.8776119999999992
#
# number of rings (size 3 to 8) (size 9 to 14) (size 15 to 20)
#    0.000    0.667    6.667    3.500    0.000    0.667 
#    0.000    5.000    0.000    0.000    0.000    0.000 
#    0.000    0.000    0.000    0.000    0.000    0.000 
#
# Total GULP energy -133910.667887 kJ/mol
# GULP energy per Si atom -5579.611162 kJ/mol
# Density = 0.985513 g / cm^3
# Si number density = 9.877612 Si / 1000 Ang^3
#
#
#
# Elastic Constant Matrix: (Units=GPa)
#
#
# Indices 1 2 3 4 5 6 
#
# 1 81.3686 24.1863 40.6777 0.0006 17.3607 -0.0001
# 2 24.1863 126.8106 36.7034 -0.0012 1.8320 0.0004
# 3 40.6777 36.7034 109.2037 -0.0009 6.9060 0.0000
# 4 0.0006 -0.0012 -0.0009 35.7323 -0.0006 -7.6811
# 5 17.3607 1.8320 6.9060 -0.0006 40.9158 0.0003
# 6 -0.0001 0.0004 0.0000 -7.6811 0.0003 37.3897
#
#
#
# Elastic Compliance Matrix: (Units=1/GPa)
#
#
# Indices 1 2 3 4 5 6 
#
# 1 0.016718 -0.001562 -0.005315 -0.000001 -0.006127 0.000000
# 2 -0.001562 0.008882 -0.002446 0.000000 0.000678 0.000000
# 3 -0.005315 -0.002446 0.011937 0.000000 0.000350 0.000000
# 4 -0.000001 0.000000 0.000000 0.029279 0.000001 0.006015
# 5 -0.006127 0.000678 0.000350 0.000001 0.026951 0.000000
# 6 0.000000 0.000000 0.000000 0.006015 0.000000 0.027981
#
#
# Mechanical properties :
#
#
# Convention : Reuss Voigt Hill
#
# Bulk Modulus (GPa) = 52.93552 57.83530 55.38541
# Shear Modulus (GPa) = 34.08524 37.19526 35.64025
#
# Velocity S-wave (km/s) = 4.15827 4.34384 4.25207
# Velocity P-wave (km/s) = 7.06462 7.38228 7.22520
#
# Compressibility (1/GPa) = 0.01889091
#
# Stress axis : x y z
#
# Youngs Moduli (GPa) = 59.81488 112.58846 83.77233
#
# Poissons Ratio (x) = 0.17584 0.44526
# Poissons Ratio (y) = 0.09342 0.20493
# Poissons Ratio (z) = 0.31792 0.27543
#
# Static dielectric constant tensor:
#      x y z
#    x 1.716990 0.000000 0.006520 
#    y 0.000000 1.751570 0.000000 
#    z 0.006520 0.000000 1.702480 
# 
# From -- ./inp_files/147376.got.cif
#   From: 2010.05.17/outbox.ucp.g08.bks.cvg/sg15_74_cif.got.tgz:147376.got - 2010.06.11 12:40:34.
