data_PCOD9308136
_publ_section_title
;
Structure prediction by ZEFSAII (Michael W. Deem and Ramdas Pophale) SiO2 
 PCOD9308136
Probable space group: C 2/C
;
_chemical_formula_sum "Si O2"
_cell_formula_units_Z 32
_cell_length_a 9.233995
_cell_length_b 17.492099
_cell_length_c 12.900260
_cell_angle_alpha 90.000000
_cell_angle_beta 139.930322
_cell_angle_gamma 90.000000
_cell_volume 1341.300758
_symmetry_space_group_name_H-M "C 2/C"
_symmetry_group_IT_number 15
_symmetry_cell_setting 'monoclinic'
loop_
_space_group_symop_operation_xyz
x,y,z
-x,y,1/2-z
-x,-y,-z
x,-y,1/2+z
1/2+x,1/2+y,z
1/2-x,1/2+y,1/2-z
1/2-x,1/2-y,-z
1/2+x,1/2-y,1/2+z
loop_
_atom_site_type_symbol
_atom_site_label
_atom_site_fract_x
_atom_site_fract_y
_atom_site_fract_z
Si Si1 0.000000 0.568563 0.750000
Si Si2 0.164846 0.194807 0.624238
Si Si3 0.644967 0.354277 0.737379
Si Si4 0.915492 0.448491 0.546770
Si Si5 0.000000 0.154974 0.750000
O O1 0.847631 0.626628 0.732134
O O2 0.144138 0.509548 0.896959
O O3 0.265935 0.277614 0.657119
O O4 0.004975 0.169942 0.442853
O O5 0.057291 0.202269 0.678765
O O6 0.500000 0.394915 0.750000
O O7 0.860979 0.398312 0.810442
O O8 0.000000 0.500000 0.500000
O O9 0.708813 0.396942 0.399675
#
# Coordination Sequence:
#
# PCOD9308136 Si02
#       5
#     4   8   8   8   4
#     4  12  26  47  75 114 148 200 254 308 380 443
#     4  12  27  47  79 112 153 196 255 314 374 455
#     4  12  27  48  79 111 151 202 254 311 380 449
#     4  12  27  45  74 109 151 196 246 310 375 446
#     4  12  28  49  73 114 154 196 250 312 386 445
#
# _framework density 23.857437999999998
#
# number of rings (size 3 to 8) (size 9 to 14) (size 15 to 20)
#    0.000    0.000    3.750    5.250    5.250    7.000 
#    0.000    0.000    0.000    0.000    0.000    0.000 
#    0.000    0.000    0.000    0.000    0.000    0.000 
#
# Total GULP energy -89570.435102 kJ/mol
# GULP energy per Si atom -5598.152194 kJ/mol
# Density = 2.380314 g / cm^3
# Si number density = 23.857438 Si / 1000 Ang^3
#
#
#
# Elastic Constant Matrix: (Units=GPa)
#
#
# Indices 1 2 3 4 5 6 
#
# 1 95.4027 1.7415 3.4957 0.0001 -3.8944 0.0001
# 2 1.7415 73.0284 5.9621 -0.0001 12.4373 0.0000
# 3 3.4957 5.9621 80.0367 0.0001 0.6746 0.0001
# 4 0.0001 -0.0001 0.0001 9.1871 0.0002 -24.2477
# 5 -3.8944 12.4373 0.6746 0.0002 39.6132 0.0001
# 6 0.0001 0.0000 0.0001 -24.2477 0.0001 32.9400
#
#
#
# Elastic Compliance Matrix: (Units=1/GPa)
#
#
# Indices 1 2 3 4 5 6 
#
# 1 0.010554 -0.000416 -0.000440 0.000000 0.001176 0.000000
# 2 -0.000416 0.014570 -0.001028 0.000000 -0.004598 0.000000
# 3 -0.000440 -0.001028 0.012590 0.000000 0.000065 0.000000
# 4 0.000000 0.000000 0.000000 -0.115446 0.000001 -0.084982
# 5 0.001176 -0.004598 0.000065 0.000001 0.026802 0.000001
# 6 0.000000 0.000000 0.000000 -0.084982 0.000001 -0.032198
#
#
# Mechanical properties :
#
#
# Convention : Reuss Voigt Hill
#
# Bulk Modulus (GPa) = 29.45960 30.09628 29.77794
# Shear Modulus (GPa) = -73.48002 32.16596 -20.65703
#
# Velocity S-wave (km/s) = -5.55576 3.67585 -2.94573
# Velocity P-wave (km/s) = 5.36473 5.53699 0.96899
#
# Compressibility (1/GPa) = 0.03394480
#
# Stress axis : x y z
#
# Youngs Moduli (GPa) = 94.75457 68.63296 79.43103
#
# Poissons Ratio (x) = 0.02855 0.03494
# Poissons Ratio (y) = 0.03942 0.08169
# Poissons Ratio (z) = 0.04168 0.07059
#
# Static dielectric constant tensor:
#      x y z
#    x 2.033060 0.000000 0.094680 
#    y 0.000000 1.888770 0.000000 
#    z 0.094680 0.000000 1.983180 
# 
# From -- ./inp_files/78052.got.cif
#   From: 2010.05.17/outbox.cif.g08.bks.cpg/sg15_40_cif.got.tgz:78052.got - 2010.06.03 18:47:42.
