data_PCOD9308517
_publ_section_title
;
Structure prediction by ZEFSAII (Michael W. Deem and Ramdas Pophale) SiO2 
 PCOD9308517
Probable space group: C 2/C
;
_chemical_formula_sum "Si O2"
_cell_formula_units_Z 40
_cell_length_a 7.451780
_cell_length_b 12.995166
_cell_length_c 19.630808
_cell_angle_alpha 90.000000
_cell_angle_beta 114.957096
_cell_angle_gamma 90.000000
_cell_volume 1723.483942
_symmetry_space_group_name_H-M "C 2/C"
_symmetry_group_IT_number 15
_symmetry_cell_setting 'monoclinic'
loop_
_space_group_symop_operation_xyz
x,y,z
-x,y,1/2-z
-x,-y,-z
x,-y,1/2+z
1/2+x,1/2+y,z
1/2-x,1/2+y,1/2-z
1/2-x,1/2-y,-z
1/2+x,1/2-y,1/2+z
loop_
_atom_site_type_symbol
_atom_site_label
_atom_site_fract_x
_atom_site_fract_y
_atom_site_fract_z
Si Si1 0.737858 0.898764 0.992021
Si Si2 0.165001 0.762737 0.375894
Si Si3 0.801694 0.091098 0.926140
Si Si4 0.538774 0.216174 0.682320
Si Si5 0.642477 0.571140 0.716335
O O1 0.620484 0.826788 0.921502
O O2 0.709086 0.016636 0.968125
O O3 0.716816 0.852765 0.063785
O O4 0.974973 0.881693 0.016752
O O5 0.308384 0.723846 0.339945
O O6 0.973809 0.821129 0.318041
O O7 0.662421 0.187277 0.887941
O O8 0.824163 0.032597 0.855596
O O9 0.500000 0.262749 0.750000
O O10 0.653517 0.107440 0.716778
O O11 0.500000 0.518757 0.750000
#
# Coordination Sequence:
#
# PCOD9308517 Si02
#       5
#     8   8   8   8   8
#     4   9  18  31  47  70  94 122 150 186 230 275
#     4   9  17  31  50  67  91 122 155 185 225 276
#     4   9  17  30  48  69  95 118 152 193 228 266
#     4   9  17  30  48  68  90 121 153 188 227 265
#     4   8  15  30  48  64  88 125 156 182 224 275
#
# _framework density 23.208804000000001
#
# number of rings (size 3 to 8) (size 9 to 14) (size 15 to 20)
#    0.000    3.200    0.000    0.000    0.000    1.600 
#    0.000   10.000    0.000    0.000    0.000    0.000 
#    0.000    0.000    0.000    0.000    0.000    0.000 
#
# Total GULP energy -111406.448130 kJ/mol
# GULP energy per Si atom -5570.322407 kJ/mol
# Density = 2.315598 g / cm^3
# Si number density = 23.208804 Si / 1000 Ang^3
#
#
#
# Elastic Constant Matrix: (Units=GPa)
#
#
# Indices 1 2 3 4 5 6 
#
# 1 58.3637 -4.3789 -6.2008 0.0000 -5.3771 0.0000
# 2 -4.3789 34.2734 -1.0474 0.0000 9.8427 0.0000
# 3 -6.2008 -1.0474 52.6552 0.0000 4.5958 0.0000
# 4 0.0000 0.0000 0.0000 2.6659 0.0000 -3.8803
# 5 -5.3771 9.8427 4.5958 0.0000 40.1619 0.0000
# 6 0.0000 0.0000 0.0000 -3.8803 0.0000 4.4305
#
#
#
# Elastic Compliance Matrix: (Units=1/GPa)
#
#
# Indices 1 2 3 4 5 6 
#
# 1 0.017636 0.001828 0.001966 0.000000 0.001688 0.000000
# 2 0.001828 0.031665 0.001516 0.000000 -0.007689 0.000000
# 3 0.001966 0.001516 0.019457 0.000000 -0.002335 0.000000
# 4 0.000000 0.000000 0.000000 -1.365309 0.000000 -1.195745
# 5 0.001688 -0.007689 -0.002335 0.000000 0.027277 0.000000
# 6 0.000000 0.000000 0.000000 -1.195745 0.000000 -0.821533
#
#
# Mechanical properties :
#
#
# Convention : Reuss Voigt Hill
#
# Bulk Modulus (GPa) = 12.59783 13.55981 13.07882
# Shear Modulus (GPa) = -2.40967 19.91297 8.75165
#
# Velocity S-wave (km/s) = -1.02006 2.93233 1.94397
# Velocity P-wave (km/s) = 2.01308 4.16172 3.26898
#
# Compressibility (1/GPa) = 0.07937875
#
# Stress axis : x y z
#
# Youngs Moduli (GPa) = 56.70379 31.58041 51.39555
#
# Poissons Ratio (x) = -0.05774 -0.10103
# Poissons Ratio (y) = -0.10368 -0.07793
# Poissons Ratio (z) = -0.11147 -0.04788
#
# Static dielectric constant tensor:
#      x y z
#    x 1.926380 0.000000 -0.054480 
#    y 0.000000 1.839160 0.000000 
#    z -0.054480 0.000000 1.887360 
# 
# From -- ./inp_files/188385.got.cif
#   From: 2010.05.17/outbox.cif.g08.bks.cpg/sg15_95_cif.got.tgz:188385.got - 2010.06.03 18:47:42.
