data_PCOD9308520
_publ_section_title
;
Structure prediction by ZEFSAII (Michael W. Deem and Ramdas Pophale) SiO2 
 PCOD9308520
Probable space group: C 2/C
;
_chemical_formula_sum "Si O2"
_cell_formula_units_Z 40
_cell_length_a 10.634167
_cell_length_b 10.727567
_cell_length_c 13.442766
_cell_angle_alpha 90.000000
_cell_angle_beta 73.532633
_cell_angle_gamma 90.000000
_cell_volume 1470.630294
_symmetry_space_group_name_H-M "C 2/C"
_symmetry_group_IT_number 15
_symmetry_cell_setting 'monoclinic'
loop_
_space_group_symop_operation_xyz
x,y,z
-x,y,1/2-z
-x,-y,-z
x,-y,1/2+z
1/2+x,1/2+y,z
1/2-x,1/2+y,1/2-z
1/2-x,1/2-y,-z
1/2+x,1/2-y,1/2+z
loop_
_atom_site_type_symbol
_atom_site_label
_atom_site_fract_x
_atom_site_fract_y
_atom_site_fract_z
Si Si1 0.671936 0.693611 0.113307
Si Si2 0.906870 0.725235 0.181671
Si Si3 0.948552 0.857476 0.531561
Si Si4 0.209350 0.550833 0.981271
Si Si5 0.964785 0.563512 0.650721
O O1 0.753611 0.750999 0.188313
O O2 0.701598 0.546330 0.098917
O O3 0.750000 0.750000 0.000000
O O4 0.518300 0.690906 0.117259
O O5 0.000000 0.772794 0.250000
O O6 0.986676 0.775124 0.069448
O O7 0.909838 0.575592 0.186697
O O8 0.794222 0.873509 0.542178
O O9 0.000000 0.000000 0.500000
O O10 0.133127 0.620110 0.909609
O O11 0.100252 0.470361 0.063812
O O12 0.000000 0.616716 0.750000
#
# Coordination Sequence:
#
# PCOD9308520 Si02
#       5
#     8   8   8   8   8
#     4   8  15  30  51  73 102 142 171 205 273 333
#     4   9  17  31  52  75 102 143 181 215 268 330
#     4   9  17  31  50  79 102 137 176 215 273 324
#     4   9  17  31  51  76 102 136 180 227 262 324
#     4   9  18  33  51  73 102 141 185 224 275 322
#
# _framework density 27.199221999999999
#
# number of rings (size 3 to 8) (size 9 to 14) (size 15 to 20)
#    0.000    3.200    0.000    0.000    0.000    0.800 
#   10.800    0.000    0.000    0.000    0.000    0.000 
#    0.000    0.000    0.000    0.000    0.000    0.000 
#
# Total GULP energy -111557.445750 kJ/mol
# GULP energy per Si atom -5577.872287 kJ/mol
# Density = 2.713732 g / cm^3
# Si number density = 27.199222 Si / 1000 Ang^3
#
#
#
# Elastic Constant Matrix: (Units=GPa)
#
#
# Indices 1 2 3 4 5 6 
#
# 1 227.0851 34.9796 87.0488 0.0000 92.9452 0.0000
# 2 34.9796 61.7225 44.1265 0.0000 30.2239 0.0000
# 3 87.0488 44.1265 174.1527 0.0000 72.0322 0.0000
# 4 0.0000 0.0000 0.0000 40.6487 0.0000 18.5931
# 5 92.9452 30.2239 72.0322 0.0000 60.5854 0.0000
# 6 0.0000 0.0000 0.0000 18.5931 0.0000 55.0545
#
#
#
# Elastic Compliance Matrix: (Units=1/GPa)
#
#
# Indices 1 2 3 4 5 6 
#
# 1 0.013084 0.002628 0.003224 0.000000 -0.025217 0.000000
# 2 0.002628 0.022321 -0.001369 0.000000 -0.013538 0.000000
# 3 0.003224 -0.001369 0.012279 0.000000 -0.018863 0.000000
# 4 0.000000 0.000000 0.000000 0.029096 0.000000 -0.009826
# 5 -0.025217 -0.013538 -0.018863 0.000000 0.084372 0.000000
# 6 0.000000 0.000000 0.000000 -0.009826 0.000000 0.021482
#
#
# Mechanical properties :
#
#
# Convention : Reuss Voigt Hill
#
# Bulk Modulus (GPa) = 17.65241 88.36336 53.00789
# Shear Modulus (GPa) = 25.96711 51.04476 38.50593
#
# Velocity S-wave (km/s) = 3.09317 4.33679 3.76666
# Velocity P-wave (km/s) = 4.38875 7.59177 6.20065
#
# Compressibility (1/GPa) = 0.05664948
#
# Stress axis : x y z
#
# Youngs Moduli (GPa) = 76.42857 44.80163 81.43806
#
# Poissons Ratio (x) = -0.11774 -0.26258
# Poissons Ratio (y) = -0.20085 0.11153
# Poissons Ratio (z) = -0.24643 0.06135
#
# Static dielectric constant tensor:
#      x y z
#    x 1.970900 0.000000 0.177090 
#    y 0.000000 2.259180 0.000000 
#    z 0.177090 0.000000 2.046580 
# 
# From -- ./inp_files/142622.got.cif
#   From: 2010.05.17/outbox.cif.g08.bks.cpg/sg15_72_cif.got.tgz:142622.got - 2010.06.03 18:47:42.
