data_PCOD9308274
_publ_section_title
;
Structure prediction by ZEFSAII (Michael W. Deem and Ramdas Pophale) SiO2 
 PCOD9308274
Probable space group: C 2/C
;
_chemical_formula_sum "Si O2"
_cell_formula_units_Z 36
_cell_length_a 14.510533
_cell_length_b 12.199109
_cell_length_c 11.540140
_cell_angle_alpha 90.000000
_cell_angle_beta 52.622323
_cell_angle_gamma 90.000000
_cell_volume 1623.301156
_symmetry_space_group_name_H-M "C 2/C"
_symmetry_group_IT_number 15
_symmetry_cell_setting 'monoclinic'
loop_
_space_group_symop_operation_xyz
x,y,z
-x,y,1/2-z
-x,-y,-z
x,-y,1/2+z
1/2+x,1/2+y,z
1/2-x,1/2+y,1/2-z
1/2-x,1/2-y,-z
1/2+x,1/2-y,1/2+z
loop_
_atom_site_type_symbol
_atom_site_label
_atom_site_fract_x
_atom_site_fract_y
_atom_site_fract_z
Si Si1 0.845952 0.200562 0.511735
Si Si2 0.250000 0.750000 0.000000
Si Si3 0.909951 0.405052 0.596329
Si Si4 0.209719 0.930547 0.216601
Si Si5 0.500000 0.467605 0.750000
Si Si6 0.500000 0.787120 0.750000
O O1 0.750000 0.250000 0.500000
O O2 0.920359 0.303204 0.501440
O O3 0.793017 0.143094 0.666080
O O4 0.918215 0.110175 0.388820
O O5 0.266506 0.856894 0.072724
O O6 0.106884 0.773419 0.106788
O O7 0.783832 0.459940 0.681806
O O8 0.930166 0.358650 0.709100
O O9 0.000000 0.500000 0.500000
O O10 0.081674 0.964834 0.274517
#
# Coordination Sequence:
#
# PCOD9308274 Si02
#       6
#     8   4   8   8   4   4
#     4  12  29  51  74 117 157 204 264 333 398 483
#     4  12  26  52  76 120 152 212 264 330 386 482
#     4  12  28  47  77 113 151 212 254 333 387 488
#     4  12  28  50  81 112 158 204 274 325 413 471
#     4  12  29  51  80 116 156 214 263 345 404 478
#     4  12  27  47  80 110 160 200 265 317 398 462
#
# _framework density 22.177032000000001
#
# number of rings (size 3 to 8) (size 9 to 14) (size 15 to 20)
#    0.000    0.000    6.667    1.333    9.333    1.778 
#    0.000    0.000    0.000    0.000    0.000    0.000 
#    0.000    0.000    0.000    0.000    0.000    0.000 
#
# Total GULP energy -100242.292800 kJ/mol
# GULP energy per Si atom -5569.016267 kJ/mol
# Density = 2.212656 g / cm^3
# Si number density = 22.177032 Si / 1000 Ang^3
#
#
#
# Elastic Constant Matrix: (Units=GPa)
#
#
# Indices 1 2 3 4 5 6 
#
# 1 155.2748 34.6204 32.7338 0.0000 5.4836 0.0000
# 2 34.6204 71.5979 19.2567 0.0000 18.8202 0.0000
# 3 32.7338 19.2567 40.5738 0.0000 2.9823 0.0000
# 4 0.0000 0.0000 0.0000 33.0136 0.0000 -3.4343
# 5 5.4836 18.8202 2.9823 0.0000 48.1630 0.0000
# 6 0.0000 0.0000 0.0000 -3.4343 0.0000 62.5223
#
#
#
# Elastic Compliance Matrix: (Units=1/GPa)
#
#
# Indices 1 2 3 4 5 6 
#
# 1 0.008135 -0.002604 -0.005359 0.000000 0.000423 0.000000
# 2 -0.002604 0.018646 -0.006264 0.000000 -0.006602 0.000000
# 3 -0.005359 -0.006264 0.031863 0.000000 0.001085 0.000000
# 4 0.000000 0.000000 0.000000 0.030465 0.000000 0.001673
# 5 0.000423 -0.006602 0.001085 0.000000 0.023227 0.000000
# 6 0.000000 0.000000 0.000000 0.001673 0.000000 0.016086
#
#
# Mechanical properties :
#
#
# Convention : Reuss Voigt Hill
#
# Bulk Modulus (GPa) = 33.12153 48.96314 41.04234
# Shear Modulus (GPa) = 29.95115 40.79548 35.37331
#
# Velocity S-wave (km/s) = 3.67897 4.29364 3.99813
# Velocity P-wave (km/s) = 5.74577 6.83423 6.31350
#
# Compressibility (1/GPa) = 0.03019184
#
# Stress axis : x y z
#
# Youngs Moduli (GPa) = 122.91820 53.63123 31.38454
#
# Poissons Ratio (x) = 0.13964 0.16818
# Poissons Ratio (y) = 0.32005 0.19658
# Poissons Ratio (z) = 0.65870 0.33593
#
# Static dielectric constant tensor:
#      x y z
#    x 1.878620 0.000000 0.018600 
#    y 0.000000 1.843700 0.000000 
#    z 0.018600 0.000000 1.871540 
# 
# From -- ./inp_files/94406.got.cif
#   From: 2010.05.17/outbox.cif.g08.bks.cpg/sg15_48_cif.got.tgz:94406.got - 2010.06.03 18:47:42.
