data_PCOD9308751
_publ_section_title
;
Structure prediction by ZEFSAII (Michael W. Deem and Ramdas Pophale) SiO2 
 PCOD9308751
Probable space group: C 2/C
;
_chemical_formula_sum "Si O2"
_cell_formula_units_Z 32
_cell_length_a 30.000000
_cell_length_b 18.000000
_cell_length_c 6.000000
_cell_angle_alpha 90.000000
_cell_angle_beta 90.000000
_cell_angle_gamma 90.000000
_cell_volume 3240.000000
_symmetry_space_group_name_H-M "C 2/C"
_symmetry_group_IT_number 15
_symmetry_cell_setting 'monoclinic'
loop_
_space_group_symop_operation_xyz
x,y,z
-x,y,1/2-z
-x,-y,-z
x,-y,1/2+z
1/2+x,1/2+y,z
1/2-x,1/2+y,1/2-z
1/2-x,1/2-y,-z
1/2+x,1/2-y,1/2+z
loop_
_atom_site_type_symbol
_atom_site_label
_atom_site_fract_x
_atom_site_fract_y
_atom_site_fract_z
Si Si1 0.454305 0.903641 0.858133
Si Si2 0.132222 0.203385 0.576057
Si Si3 0.369915 0.970472 0.958954
Si Si4 0.655929 0.467920 0.152813
Si Si5 0.737643 0.966829 0.318907
Si Si6 0.889720 0.312773 0.542997
Si Si7 0.325167 0.163494 0.661994
Si Si8 0.953642 0.257377 0.159200
O O1 0.500000 0.929070 0.750000
O O2 0.420923 0.869571 0.674019
O O3 0.423804 0.965839 0.970889
O O4 0.463548 0.833905 0.024140
O O5 0.145168 0.118895 0.615756
O O6 0.131234 0.249652 0.803672
O O7 0.165654 0.251433 0.413950
O O8 0.081028 0.209646 0.487541
O O9 0.352149 0.886038 0.983122
O O10 0.357276 0.002059 0.207824
O O11 0.641051 0.494017 0.409533
O O12 0.709320 0.475957 0.170239
O O13 0.721494 0.880286 0.324159
O O14 0.723664 0.000883 0.568155
O O15 0.850549 0.347965 0.395974
O O16 0.923682 0.276779 0.369716
O O17 0.000000 0.225007 0.250000
#
# Coordination Sequence:
#
# PCOD9308751 Si02
#       8
#     8   8   8   8   8   8   8   8
#     4  11  21  35  54  76 116 169 218 268 310 368
#     4  10  23  37  66  98 120 165 210 262 317 372
#     4  12  25  37  53  78 118 168 213 262 315 352
#     4  10  24  47  70  96 132 165 201 248 321 403
#     4  10  23  42  65  92 129 179 214 252 314 376
#     4  10  19  36  57  88 120 155 211 263 316 357
#     4  11  22  37  61  90 125 162 218 270 303 366
#     4  10  19  34  62  89 121 160 210 265 313 374
#
# _framework density 9.8765429999999999
#
# number of rings (size 3 to 8) (size 9 to 14) (size 15 to 20)
#    0.000    1.500    5.000    1.500    5.250    1.000 
#    0.000    0.625    0.000    0.750    0.000    0.000 
#    0.000    0.000    0.000    0.000    0.000    0.000 
#
# Total GULP energy -178135.659152 kJ/mol
# GULP energy per Si atom -5566.739348 kJ/mol
# Density = 0.985406 g / cm^3
# Si number density = 9.876543 Si / 1000 Ang^3
#
#
#
# Elastic Constant Matrix: (Units=GPa)
#
#
# Indices 1 2 3 4 5 6 
#
# 1 14.1767 0.4832 28.7628 0.0000 2.7101 0.0000
# 2 0.4832 95.2333 53.0447 0.0000 13.3706 0.0000
# 3 28.7628 53.0447 139.1077 0.0000 14.0752 0.0000
# 4 0.0000 0.0000 0.0000 27.1408 0.0000 -2.0310
# 5 2.7101 13.3706 14.0752 0.0000 28.9067 0.0000
# 6 0.0000 0.0000 0.0000 -2.0310 0.0000 13.1639
#
#
#
# Elastic Compliance Matrix: (Units=1/GPa)
#
#
# Indices 1 2 3 4 5 6 
#
# 1 0.148538 0.021310 -0.038320 0.000000 -0.005124 0.000000
# 2 0.021310 0.016817 -0.010339 0.000000 -0.004742 0.000000
# 3 -0.038320 -0.010339 0.019151 0.000000 -0.000950 0.000000
# 4 0.000000 0.000000 0.000000 0.037275 0.000000 0.005751
# 5 -0.005124 -0.004742 -0.000950 0.000000 0.037730 0.000000
# 6 0.000000 0.000000 0.000000 0.005751 0.000000 0.076852
#
#
# Mechanical properties :
#
#
# Convention : Reuss Voigt Hill
#
# Bulk Modulus (GPa) = 7.70374 45.89989 26.80181
# Shear Modulus (GPa) = 11.51196 24.92410 18.21803
#
# Velocity S-wave (km/s) = 2.41673 3.55601 3.04021
# Velocity P-wave (km/s) = 3.41993 6.33621 5.09134
#
# Compressibility (1/GPa) = 0.12980711
#
# Stress axis : x y z
#
# Youngs Moduli (GPa) = 6.73229 59.46355 52.21774
#
# Poissons Ratio (x) = -1.26717 2.00099
# Poissons Ratio (y) = -0.14347 0.53988
# Poissons Ratio (z) = 0.25798 0.61480
#
# Static dielectric constant tensor:
#      x y z
#    x 1.780120 0.000000 -0.018470 
#    y 0.000000 1.707470 0.000000 
#    z -0.018470 0.000000 1.779370 
# 
# From -- ./inp_files/18462.got.cif
#   From: 2010.05.17/outbox.ucp.g08.bks.cvg/sg15_10_cif.got.tgz:18462.got - 2010.06.11 12:40:34.
