data_PCOD9308708
_publ_section_title
;
Structure prediction by ZEFSAII (Michael W. Deem and Ramdas Pophale) SiO2 
 PCOD9308708
Probable space group: C 2/C
;
_chemical_formula_sum "Si O2"
_cell_formula_units_Z 28
_cell_length_a 27.000000
_cell_length_b 12.000000
_cell_length_c 21.000000
_cell_angle_alpha 90.000000
_cell_angle_beta 30.000000
_cell_angle_gamma 90.000000
_cell_volume 3402.000000
_symmetry_space_group_name_H-M "C 2/C"
_symmetry_group_IT_number 15
_symmetry_cell_setting 'monoclinic'
loop_
_space_group_symop_operation_xyz
x,y,z
-x,y,1/2-z
-x,-y,-z
x,-y,1/2+z
1/2+x,1/2+y,z
1/2-x,1/2+y,1/2-z
1/2-x,1/2-y,-z
1/2+x,1/2-y,1/2+z
loop_
_atom_site_type_symbol
_atom_site_label
_atom_site_fract_x
_atom_site_fract_y
_atom_site_fract_z
Si Si1 0.544571 0.893364 0.632678
Si Si2 0.032845 0.175615 0.847835
Si Si3 0.456932 0.961355 0.116309
Si Si4 0.426369 0.487546 0.021405
Si Si5 0.252386 0.784257 0.072054
Si Si6 0.228299 0.599801 0.206860
Si Si7 0.061197 0.256711 0.958434
O O1 0.500000 0.928409 0.750000
O O2 0.502632 0.771063 0.660496
O O3 0.660432 0.870955 0.511579
O O4 0.512332 0.975880 0.612151
O O5 0.148344 0.162038 0.707030
O O6 0.018390 0.225450 0.935633
O O7 0.978922 0.057339 0.906804
O O8 0.344044 0.004049 0.240791
O O9 0.483724 0.831492 0.083868
O O10 0.500000 0.000000 0.000000
O O11 0.319572 0.546501 0.143078
O O12 0.413715 0.355468 0.031805
O O13 0.500000 0.500000 0.000000
O O14 0.261662 0.679001 0.110663
O O15 0.250000 0.750000 0.000000
O O16 0.159827 0.673936 0.330100
#
# Coordination Sequence:
#
# PCOD9308708 Si02
#       7
#     8   8   8   8   8   8   8
#     4  12  20  33  59  83 112 144 190 239 278 331
#     4  10  19  34  49  82 109 140 186 228 277 324
#     4  10  19  35  54  79 108 148 189 229 278 333
#     4  10  21  33  49  79 114 145 180 229 283 341
#     4  11  20  33  54  82 111 144 184 235 288 326
#     4  10  19  32  53  77 107 143 191 225 275 339
#     4   9  20  35  53  78 112 146 182 225 285 329
#
# _framework density 8.2304530000000007
#
# number of rings (size 3 to 8) (size 9 to 14) (size 15 to 20)
#    0.000    1.714    7.143    0.000    0.000    9.143 
#    0.000    0.000    0.000    2.571    0.000    4.000 
#    0.000    0.000    0.000    0.000    0.000    0.000 
#
# Total GULP energy -155881.684889 kJ/mol
# GULP energy per Si atom -5567.203032 kJ/mol
# Density = 0.821172 g / cm^3
# Si number density = 8.230453 Si / 1000 Ang^3
#
#
#
# Elastic Constant Matrix: (Units=GPa)
#
#
# Indices 1 2 3 4 5 6 
#
# 1 78.2857 27.3863 33.0372 0.0000 -2.1611 0.0000
# 2 27.3863 99.1255 43.0206 0.0001 -4.3454 0.0000
# 3 33.0372 43.0206 72.7106 0.0000 -9.0043 0.0000
# 4 0.0000 0.0001 0.0000 17.6128 0.0000 -1.8116
# 5 -2.1611 -4.3454 -9.0043 0.0000 33.1008 0.0000
# 6 0.0000 0.0000 0.0000 -1.8116 0.0000 24.9270
#
#
#
# Elastic Compliance Matrix: (Units=1/GPa)
#
#
# Indices 1 2 3 4 5 6 
#
# 1 0.016042 -0.001695 -0.006400 0.000000 -0.000916 0.000000
# 2 -0.001695 0.013758 -0.007410 0.000000 -0.000320 0.000000
# 3 -0.006400 -0.007410 0.021601 0.000000 0.004485 0.000000
# 4 0.000000 0.000000 0.000000 0.057204 0.000000 0.004157
# 5 -0.000916 -0.000320 0.004485 0.000000 0.031329 0.000000
# 6 0.000000 0.000000 0.000000 0.004157 0.000000 0.040419
#
#
# Mechanical properties :
#
#
# Convention : Reuss Voigt Hill
#
# Bulk Modulus (GPa) = 49.03832 50.77888 49.90860
# Shear Modulus (GPa) = 22.91898 24.90665 23.91282
#
# Velocity S-wave (km/s) = 3.73544 3.89405 3.81557
# Velocity P-wave (km/s) = 6.96133 7.15076 7.05668
#
# Compressibility (1/GPa) = 0.02039222
#
# Stress axis : x y z
#
# Youngs Moduli (GPa) = 62.33633 72.68304 46.29496
#
# Poissons Ratio (x) = 0.12318 0.29627
# Poissons Ratio (y) = 0.10565 0.34305
# Poissons Ratio (z) = 0.39893 0.53858
#
# Static dielectric constant tensor:
#      x y z
#    x 1.578190 0.000000 -0.031940 
#    y 0.000000 1.606040 0.000000 
#    z -0.031940 0.000000 1.582190 
# 
# From -- ./inp_files/255291.got.cif
#   From: 2010.05.17/outbox.ucp.g08.bks.cvg/sg15_128_cif.got.tgz:255291.got - 2010.06.11 12:40:34.
