data_PCOD9308842
_publ_section_title
;
Structure prediction by ZEFSAII (Michael W. Deem and Ramdas Pophale) SiO2 
 PCOD9308842
Probable space group: C 2/C
;
_chemical_formula_sum "Si O2"
_cell_formula_units_Z 24
_cell_length_a 30.000000
_cell_length_b 15.000000
_cell_length_c 15.000000
_cell_angle_alpha 90.000000
_cell_angle_beta 160.000000
_cell_angle_gamma 90.000000
_cell_volume 2308.635967
_symmetry_space_group_name_H-M "C 2/C"
_symmetry_group_IT_number 15
_symmetry_cell_setting 'monoclinic'
loop_
_space_group_symop_operation_xyz
x,y,z
-x,y,1/2-z
-x,-y,-z
x,-y,1/2+z
1/2+x,1/2+y,z
1/2-x,1/2+y,1/2-z
1/2-x,1/2-y,-z
1/2+x,1/2-y,1/2+z
loop_
_atom_site_type_symbol
_atom_site_label
_atom_site_fract_x
_atom_site_fract_y
_atom_site_fract_z
Si Si1 0.248525 0.870347 0.312712
Si Si2 0.968108 0.422254 0.007601
Si Si3 0.000000 0.805575 0.750000
Si Si4 0.935509 0.093938 0.880040
Si Si5 0.500000 0.982774 0.750000
Si Si6 0.783438 0.807456 0.972817
Si Si7 0.608966 0.750959 0.276502
O O1 0.197357 0.910064 0.311119
O O2 0.369770 0.922602 0.500974
O O3 0.287085 0.767514 0.404723
O O4 0.117595 0.865689 0.008431
O O5 0.043258 0.337065 0.111828
O O6 0.011687 0.457541 0.184813
O O7 0.000000 0.500000 0.000000
O O8 0.823901 0.382561 0.746026
O O9 0.074088 0.745308 0.815839
O O10 0.909846 0.137076 0.735739
O O11 0.032812 0.162292 0.108637
O O12 0.000000 0.000000 0.000000
O O13 0.750000 0.750000 0.000000
O O14 0.750000 0.750000 0.500000
#
# Coordination Sequence:
#
# PCOD9308842 Si02
#       7
#     8   8   4   8   4   8   8
#     4  10  23  43  68  92 141 183 227 293 357 414
#     4  12  25  42  69 104 141 179 235 291 350 423
#     4  10  21  46  68  95 142 178 237 290 354 415
#     4  10  22  41  68  98 133 176 233 284 349 434
#     4  12  29  42  70 109 138 182 245 298 356 423
#     4  10  19  42  67  89 131 180 222 283 357 412
#     4  11  25  41  70 100 135 187 231 287 356 420
#
# _framework density 10.395749
#
# number of rings (size 3 to 8) (size 9 to 14) (size 15 to 20)
#    0.000    1.333    5.000    2.500    7.000    1.333 
#    0.000    1.667    0.000    0.000    0.000    0.000 
#    0.000    0.000    0.000    0.000    0.000    0.000 
#
# Total GULP energy -133661.121320 kJ/mol
# GULP energy per Si atom -5569.213388 kJ/mol
# Density = 1.037209 g / cm^3
# Si number density = 10.395749 Si / 1000 Ang^3
#
#
#
# Elastic Constant Matrix: (Units=GPa)
#
#
# Indices 1 2 3 4 5 6 
#
# 1 38.2021 31.8568 25.2401 0.0000 15.4369 0.0000
# 2 31.8568 146.6416 36.6802 0.0000 -1.5037 0.0000
# 3 25.2401 36.6802 75.9775 0.0000 6.7901 0.0000
# 4 0.0000 0.0000 0.0000 34.7536 0.0000 3.2082
# 5 15.4369 -1.5037 6.7901 0.0000 36.0510 0.0000
# 6 0.0000 0.0000 0.0000 3.2082 0.0000 13.0656
#
#
#
# Elastic Compliance Matrix: (Units=1/GPa)
#
#
# Indices 1 2 3 4 5 6 
#
# 1 0.046885 -0.007839 -0.010138 0.000000 -0.018493 0.000000
# 2 -0.007839 0.009106 -0.002162 0.000000 0.004144 0.000000
# 3 -0.010138 -0.002162 0.017488 0.000000 0.000957 0.000000
# 4 0.000000 0.000000 0.000000 0.029441 0.000000 -0.007229
# 5 -0.018493 0.004144 0.000957 0.000000 0.035650 0.000000
# 6 0.000000 0.000000 0.000000 -0.007229 0.000000 0.078312
#
#
# Mechanical properties :
#
#
# Convention : Reuss Voigt Hill
#
# Bulk Modulus (GPa) = 30.12072 49.81949 39.97010
# Shear Modulus (GPa) = 18.64097 27.91033 23.27565
#
# Velocity S-wave (km/s) = 2.99752 3.66784 3.34949
# Velocity P-wave (km/s) = 5.14769 6.47695 5.85020
#
# Compressibility (1/GPa) = 0.03319974
#
# Stress axis : x y z
#
# Youngs Moduli (GPa) = 21.32894 109.82192 57.18205
#
# Poissons Ratio (x) = 0.86091 0.57971
# Poissons Ratio (y) = 0.16720 0.12363
# Poissons Ratio (z) = 0.21623 0.23745
#
# Static dielectric constant tensor:
#      x y z
#    x 1.833880 0.000000 -0.028830 
#    y 0.000000 1.939400 0.000000 
#    z -0.028830 0.000000 1.687750 
# 
# From -- ./inp_files/182573.got.cif
#   From: 2010.05.17/outbox.ucp.g08.bks.cvg/sg15_92_cif.got.tgz:182573.got - 2010.06.11 12:40:34.
