data_PCOD9308747
_publ_section_title
;
Structure prediction by ZEFSAII (Michael W. Deem and Ramdas Pophale) SiO2 
 PCOD9308747
Probable space group: C 2/C
;
_chemical_formula_sum "Si O2"
_cell_formula_units_Z 30
_cell_length_a 9.000000
_cell_length_b 21.000000
_cell_length_c 18.000000
_cell_angle_alpha 90.000000
_cell_angle_beta 100.000000
_cell_angle_gamma 90.000000
_cell_volume 3350.315976
_symmetry_space_group_name_H-M "C 2/C"
_symmetry_group_IT_number 15
_symmetry_cell_setting 'monoclinic'
loop_
_space_group_symop_operation_xyz
x,y,z
-x,y,1/2-z
-x,-y,-z
x,-y,1/2+z
1/2+x,1/2+y,z
1/2-x,1/2+y,1/2-z
1/2-x,1/2-y,-z
1/2+x,1/2-y,1/2+z
loop_
_atom_site_type_symbol
_atom_site_label
_atom_site_fract_x
_atom_site_fract_y
_atom_site_fract_z
Si Si1 0.565608 0.605841 0.563646
Si Si2 0.759341 0.570165 0.012860
Si Si3 0.538027 0.835620 0.882171
Si Si4 0.000000 0.566626 0.250000
Si Si5 0.400541 0.305882 0.167666
Si Si6 0.087512 0.622890 0.617541
Si Si7 0.168004 0.529535 0.855857
Si Si8 0.322960 0.181011 0.501829
O O1 0.421908 0.570615 0.513594
O O2 0.484019 0.660359 0.605289
O O3 0.672054 0.565750 0.629348
O O4 0.688248 0.633081 0.515166
O O5 0.820048 0.631947 0.063172
O O6 0.820328 0.510681 0.065833
O O7 0.838905 0.577890 0.939867
O O8 0.477979 0.886266 0.817015
O O9 0.592933 0.769501 0.850520
O O10 0.402159 0.826973 0.928973
O O11 0.863299 0.520669 0.212532
O O12 0.500000 0.316821 0.250000
O O13 0.231896 0.337024 0.160624
O O14 0.976211 0.577181 0.655350
O O15 0.964581 0.670171 0.569652
O O16 0.250000 0.250000 0.500000
#
# Coordination Sequence:
#
# PCOD9308747 Si02
#       8
#     8   8   8   4   8   8   8   8
#     4  10  21  35  59  90 112 149 188 247 288 322
#     4   9  19  35  61  84 114 148 190 237 280 335
#     4  10  20  37  59  84 115 153 191 231 290 353
#     4  10  22  38  58  78 110 164 188 226 280 360
#     4  11  22  36  57  84 120 149 192 232 286 356
#     4   9  21  34  56  88 108 151 189 238 287 332
#     4  10  20  37  57  81 116 147 197 229 285 342
#     4  10  19  34  58  88 117 143 186 242 294 336
#
# _framework density 8.9543789999999994
#
# number of rings (size 3 to 8) (size 9 to 14) (size 15 to 20)
#    0.000    2.133    2.000    0.800    3.733    2.667 
#    0.000    0.000    0.000    5.600    0.000    0.000 
#    0.000    0.000    0.000    0.000    0.000    0.000 
#
# Total GULP energy -167122.267605 kJ/mol
# GULP energy per Si atom -5570.742253 kJ/mol
# Density = 0.893400 g / cm^3
# Si number density = 8.954379 Si / 1000 Ang^3
#
#
#
# Elastic Constant Matrix: (Units=GPa)
#
#
# Indices 1 2 3 4 5 6 
#
# 1 143.1238 44.1902 38.6000 0.0000 22.9716 0.0000
# 2 44.1902 95.0021 29.8934 0.0000 11.1660 0.0000
# 3 38.6000 29.8934 72.5316 0.0000 14.6343 0.0000
# 4 0.0000 0.0000 0.0000 29.5128 0.0000 4.7080
# 5 22.9716 11.1660 14.6343 0.0000 19.6729 0.0000
# 6 0.0000 0.0000 0.0000 4.7080 0.0000 25.0682
#
#
#
# Elastic Compliance Matrix: (Units=1/GPa)
#
#
# Indices 1 2 3 4 5 6 
#
# 1 0.009812 -0.002857 -0.002423 0.000000 -0.008033 0.000000
# 2 -0.002857 0.013162 -0.003612 0.000000 -0.001447 0.000000
# 3 -0.002423 -0.003612 0.018332 0.000000 -0.008757 0.000000
# 4 0.000000 0.000000 0.000000 0.034930 0.000000 -0.006560
# 5 -0.008033 -0.001447 -0.008757 0.000000 0.067547 0.000000
# 6 0.000000 0.000000 0.000000 -0.006560 0.000000 0.041123
#
#
# Mechanical properties :
#
#
# Convention : Reuss Voigt Hill
#
# Bulk Modulus (GPa) = 42.51571 59.55829 51.03700
# Shear Modulus (GPa) = 23.74938 28.04905 25.89922
#
# Velocity S-wave (km/s) = 3.64556 3.96184 3.80699
# Velocity P-wave (km/s) = 6.44297 7.36593 6.91986
#
# Compressibility (1/GPa) = 0.02352072
#
# Stress axis : x y z
#
# Youngs Moduli (GPa) = 101.91552 75.97744 54.54850
#
# Poissons Ratio (x) = 0.21710 0.13219
# Poissons Ratio (y) = 0.29121 0.19702
# Poissons Ratio (z) = 0.24698 0.27442
#
# Static dielectric constant tensor:
#      x y z
#    x 1.582010 0.000000 -0.002770 
#    y 0.000000 1.646180 0.000000 
#    z -0.002770 0.000000 1.641400 
# 
# From -- ./inp_files/192090.got.cif
#   From: 2010.05.17/outbox.ucp.g08.bks.cvg/sg15_97_cif.got.tgz:192090.got - 2010.06.11 12:40:34.
