data_PCOD9308615
_publ_section_title
;
Structure prediction by ZEFSAII (Michael W. Deem and Ramdas Pophale) SiO2 
 PCOD9308615
Probable space group: C 2/C
;
_chemical_formula_sum "Si O2"
_cell_formula_units_Z 28
_cell_length_a 30.000000
_cell_length_b 15.000000
_cell_length_c 9.000000
_cell_angle_alpha 90.000000
_cell_angle_beta 60.000000
_cell_angle_gamma 90.000000
_cell_volume 3507.402885
_symmetry_space_group_name_H-M "C 2/C"
_symmetry_group_IT_number 15
_symmetry_cell_setting 'monoclinic'
loop_
_space_group_symop_operation_xyz
x,y,z
-x,y,1/2-z
-x,-y,-z
x,-y,1/2+z
1/2+x,1/2+y,z
1/2-x,1/2+y,1/2-z
1/2-x,1/2-y,-z
1/2+x,1/2-y,1/2+z
loop_
_atom_site_type_symbol
_atom_site_label
_atom_site_fract_x
_atom_site_fract_y
_atom_site_fract_z
Si Si1 0.692311 0.763427 0.156482
Si Si2 0.593980 0.516872 0.902593
Si Si3 0.056310 0.873889 0.204732
Si Si4 0.657216 0.599397 0.058376
Si Si5 0.723952 0.055781 0.704112
Si Si6 0.671386 0.709647 0.530242
Si Si7 0.226300 0.384264 0.538356
O O1 0.656838 0.702887 0.109852
O O2 0.688252 0.869746 0.184178
O O3 0.686263 0.724349 0.332593
O O4 0.750000 0.750000 0.000000
O O5 0.555500 0.574236 0.864111
O O6 0.629780 0.460757 0.729575
O O7 0.567567 0.446815 0.057640
O O8 0.628781 0.579438 0.950787
O O9 0.000000 0.834085 0.250000
O O10 0.110690 0.817425 0.130623
O O11 0.716974 0.571431 0.946363
O O12 0.708694 0.956628 0.686491
O O13 0.724246 0.072811 0.878746
O O14 0.714311 0.641053 0.522016
O O15 0.688665 0.798818 0.590291
#
# Coordination Sequence:
#
# PCOD9308615 Si02
#       7
#     8   8   8   8   8   8   8
#     4   9  19  30  47  71 102 133 170 209 253 300
#     4  10  20  31  51  71  99 135 176 208 244 295
#     4  11  21  35  52  75 103 137 174 211 252 298
#     4  10  17  30  47  71 101 136 166 207 252 297
#     4  10  19  30  46  73 100 138 167 205 252 306
#     4  10  20  35  50  74 105 136 167 212 251 312
#     4  10  21  33  51  74 105 133 171 204 257 306
#
# _framework density 7.9831149999999997
#
# number of rings (size 3 to 8) (size 9 to 14) (size 15 to 20)
#    0.000    2.000    1.429    3.857    4.000    1.143 
#    0.000    0.000    0.000    0.000    0.000    4.000 
#    0.000    0.000    0.000    0.000    0.000    0.143 
#
# Total GULP energy -155976.657613 kJ/mol
# GULP energy per Si atom -5570.594915 kJ/mol
# Density = 0.796494 g / cm^3
# Si number density = 7.983115 Si / 1000 Ang^3
#
#
#
# Elastic Constant Matrix: (Units=GPa)
#
#
# Indices 1 2 3 4 5 6 
#
# 1 111.4507 50.9678 23.6195 0.0000 1.6350 0.0000
# 2 50.9678 91.1580 22.1685 0.0000 8.7501 0.0000
# 3 23.6195 22.1685 41.5130 0.0000 9.1900 0.0000
# 4 0.0000 0.0000 0.0000 20.4912 0.0000 4.4099
# 5 1.6350 8.7501 9.1900 0.0000 19.7690 0.0000
# 6 0.0000 0.0000 0.0000 4.4099 0.0000 27.1747
#
#
#
# Elastic Compliance Matrix: (Units=1/GPa)
#
#
# Indices 1 2 3 4 5 6 
#
# 1 0.012858 -0.006411 -0.004777 0.000000 0.003995 0.000000
# 2 -0.006411 0.015937 -0.003811 0.000000 -0.004752 0.000000
# 3 -0.004777 -0.003811 0.031637 0.000000 -0.012625 0.000000
# 4 0.000000 0.000000 0.000000 0.050568 0.000000 -0.008206
# 5 0.003995 -0.004752 -0.012625 0.000000 0.058226 0.000000
# 6 0.000000 0.000000 0.000000 -0.008206 0.000000 0.038131
#
#
# Mechanical properties :
#
#
# Convention : Reuss Voigt Hill
#
# Bulk Modulus (GPa) = 32.85718 48.62591 40.74155
# Shear Modulus (GPa) = 20.20212 23.31138 21.75675
#
# Velocity S-wave (km/s) = 3.56097 3.82520 3.69544
# Velocity P-wave (km/s) = 6.12627 7.07327 6.61673
#
# Compressibility (1/GPa) = 0.03043475
#
# Stress axis : x y z
#
# Youngs Moduli (GPa) = 77.77212 62.74542 31.60893
#
# Poissons Ratio (x) = 0.40226 0.15098
# Poissons Ratio (y) = 0.49860 0.12047
# Poissons Ratio (z) = 0.37149 0.23913
#
# Static dielectric constant tensor:
#      x y z
#    x 1.539200 0.000000 0.028930 
#    y 0.000000 1.590810 0.000000 
#    z 0.028930 0.000000 1.564120 
# 
# From -- ./inp_files/65932.got.cif
#   From: 2010.05.17/outbox.ucp.g08.bks.cvg/sg15_33_cif.got.tgz:65932.got - 2010.06.11 12:40:34.
