data_PCOD9308257
_publ_section_title
;
Structure prediction by ZEFSAII (Michael W. Deem and Ramdas Pophale) SiO2 
 PCOD9308257
Probable space group: C 2/C
;
_chemical_formula_sum "Si O2"
_cell_formula_units_Z 36
_cell_length_a 21.732047
_cell_length_b 6.939336
_cell_length_c 9.736240
_cell_angle_alpha 90.000000
_cell_angle_beta 66.339254
_cell_angle_gamma 90.000000
_cell_volume 1344.856000
_symmetry_space_group_name_H-M "C 2/C"
_symmetry_group_IT_number 15
_symmetry_cell_setting 'monoclinic'
loop_
_space_group_symop_operation_xyz
x,y,z
-x,y,1/2-z
-x,-y,-z
x,-y,1/2+z
1/2+x,1/2+y,z
1/2-x,1/2+y,1/2-z
1/2-x,1/2-y,-z
1/2+x,1/2-y,1/2+z
loop_
_atom_site_type_symbol
_atom_site_label
_atom_site_fract_x
_atom_site_fract_y
_atom_site_fract_z
Si Si1 0.263042 0.533539 0.448608
Si Si2 0.000000 0.796285 0.750000
Si Si3 0.404221 0.614869 0.779644
Si Si4 0.937113 0.543814 0.458289
Si Si5 0.178231 0.422949 0.770355
O O1 0.250000 0.750000 0.500000
O O2 0.160685 0.018347 0.593003
O O3 0.208306 0.423648 0.590840
O O4 0.242131 0.534536 0.308211
O O5 0.943571 0.649777 0.859556
O O6 0.958104 0.949883 0.694837
O O7 0.434150 0.776342 0.856721
O O8 0.368680 0.731855 0.687199
O O9 0.875124 0.569904 0.617753
O O10 0.000000 0.500000 0.500000
#
# Coordination Sequence:
#
# PCOD9308257 Si02
#       5
#     8   4   8   8   8
#     4  12  28  47  82 121 164 216 274 339 422 503
#     4  12  28  54  80 124 160 226 278 346 422 488
#     4  12  28  52  82 121 169 218 277 349 419 501
#     4  12  28  49  83 117 167 217 287 344 416 499
#     4  12  26  51  77 121 165 214 271 345 413 499
#
# _framework density 26.768664000000001
#
# number of rings (size 3 to 8) (size 9 to 14) (size 15 to 20)
#    0.000    0.000    2.222    6.667    6.222    5.333 
#    0.000    0.000    0.000    0.000    0.000    0.000 
#    0.000    0.000    0.000    0.000    0.000    0.000 
#
# Total GULP energy -100537.667912 kJ/mol
# GULP energy per Si atom -5585.425995 kJ/mol
# Density = 2.670774 g / cm^3
# Si number density = 26.768664 Si / 1000 Ang^3
#
#
#
# Elastic Constant Matrix: (Units=GPa)
#
#
# Indices 1 2 3 4 5 6 
#
# 1 138.8360 60.1284 24.7443 0.0000 2.7342 0.0000
# 2 60.1284 129.2390 28.5158 0.0000 -2.5332 0.0000
# 3 24.7443 28.5158 98.8593 0.0000 -0.3374 0.0000
# 4 0.0000 0.0000 0.0000 28.7463 0.0000 -5.3850
# 5 2.7342 -2.5332 -0.3374 0.0000 52.2434 0.0000
# 6 0.0000 0.0000 0.0000 -5.3850 0.0000 62.1858
#
#
#
# Elastic Compliance Matrix: (Units=1/GPa)
#
#
# Indices 1 2 3 4 5 6 
#
# 1 0.009162 -0.004026 -0.001134 0.000000 -0.000682 0.000000
# 2 -0.004026 0.010040 -0.001886 0.000000 0.000685 0.000000
# 3 -0.001134 -0.001886 0.010943 0.000000 0.000039 0.000000
# 4 0.000000 0.000000 0.000000 0.035361 0.000000 0.003062
# 5 -0.000682 0.000685 0.000039 0.000000 0.019210 0.000000
# 6 0.000000 0.000000 0.000000 0.003062 0.000000 0.016346
#
#
# Mechanical properties :
#
#
# Convention : Reuss Voigt Hill
#
# Bulk Modulus (GPa) = 62.29250 65.96791 64.13021
# Shear Modulus (GPa) = 41.49185 45.53815 43.51500
#
# Velocity S-wave (km/s) = 3.94130 4.12900 4.03624
# Velocity P-wave (km/s) = 6.63573 6.88685 6.76246
#
# Compressibility (1/GPa) = 0.01605330
#
# Stress axis : x y z
#
# Youngs Moduli (GPa) = 109.14903 99.60053 91.37855
#
# Poissons Ratio (x) = 0.40095 0.10365
# Poissons Ratio (y) = 0.43939 0.17235
# Poissons Ratio (z) = 0.12381 0.18786
#
# Static dielectric constant tensor:
#      x y z
#    x 2.109590 0.000000 0.016910 
#    y 0.000000 2.200710 0.000000 
#    z 0.016910 0.000000 2.155450 
# 
# From -- ./inp_files/120657.got.cif
#   From: 2010.05.17/outbox.cif.g08.bks.cpg/sg15_61_cif.got.tgz:120657.got - 2010.06.03 18:47:42.
