data_PCOD9308606
_publ_section_title
;
Structure prediction by ZEFSAII (Michael W. Deem and Ramdas Pophale) SiO2 
 PCOD9308606
Probable space group: C 2/C
;
_chemical_formula_sum "Si O2"
_cell_formula_units_Z 28
_cell_length_a 30.000000
_cell_length_b 9.000000
_cell_length_c 18.000000
_cell_angle_alpha 90.000000
_cell_angle_beta 140.000000
_cell_angle_gamma 90.000000
_cell_volume 3123.947783
_symmetry_space_group_name_H-M "C 2/C"
_symmetry_group_IT_number 15
_symmetry_cell_setting 'monoclinic'
loop_
_space_group_symop_operation_xyz
x,y,z
-x,y,1/2-z
-x,-y,-z
x,-y,1/2+z
1/2+x,1/2+y,z
1/2-x,1/2+y,1/2-z
1/2-x,1/2-y,-z
1/2+x,1/2-y,1/2+z
loop_
_atom_site_type_symbol
_atom_site_label
_atom_site_fract_x
_atom_site_fract_y
_atom_site_fract_z
Si Si1 0.984645 0.169643 0.606109
Si Si2 0.000000 0.081427 0.250000
Si Si3 0.689811 0.127579 0.134770
Si Si4 0.916839 0.609020 0.818359
Si Si5 0.500000 0.908220 0.750000
Si Si6 0.440614 0.798279 0.935017
Si Si7 0.609938 0.843631 0.386209
Si Si8 0.336712 0.780908 0.355259
O O1 0.903087 0.206887 0.483517
O O2 0.011681 0.301947 0.694652
O O3 0.029879 0.178746 0.587526
O O4 0.994329 0.022912 0.669164
O O5 0.066360 0.190719 0.333691
O O6 0.629613 0.213242 0.106074
O O7 0.765611 0.185426 0.258211
O O8 0.680193 0.948930 0.136421
O O9 0.672814 0.159655 0.025692
O O10 0.926520 0.445061 0.866429
O O11 0.884627 0.619894 0.695109
O O12 0.867516 0.695704 0.812197
O O13 0.995177 0.674005 0.926149
O O14 0.438093 0.018549 0.649228
#
# Coordination Sequence:
#
# PCOD9308606 Si02
#       8
#     8   4   8   8   4   8   8   8
#     4  10  19  38  60  89 111 149 195 248 282 336
#     4  10  24  32  58  94 126 140 190 254 298 332
#     4  11  23  39  62  84 120 158 192 234 295 354
#     4   9  18  35  62  88 110 145 204 242 283 342
#     4  10  16  32  64  84 106 142 196 236 294 332
#     4   9  17  35  62  89 109 147 200 246 278 345
#     4  11  20  36  57  89 115 155 185 245 293 344
#     4  10  23  40  60  86 117 158 194 234 288 358
#
# _framework density 8.9630179999999999
#
# number of rings (size 3 to 8) (size 9 to 14) (size 15 to 20)
#    0.000    2.000    2.857    2.571    2.000    0.571 
#    2.571    2.143    0.000    5.143    0.000    0.000 
#    0.000    0.000    0.000    0.000    0.000    0.000 
#
# Total GULP energy -156064.939330 kJ/mol
# GULP energy per Si atom -5573.747833 kJ/mol
# Density = 0.894262 g / cm^3
# Si number density = 8.963018 Si / 1000 Ang^3
#
#
#
# Elastic Constant Matrix: (Units=GPa)
#
#
# Indices 1 2 3 4 5 6 
#
# 1 69.9379 9.5538 33.7385 0.0000 -4.6641 0.0000
# 2 9.5538 73.3843 29.2931 0.0000 -1.0954 0.0000
# 3 33.7385 29.2931 119.6273 0.0000 -3.6646 0.0000
# 4 0.0000 0.0000 0.0000 27.4065 0.0000 0.3837
# 5 -4.6641 -1.0954 -3.6646 0.0000 41.6774 0.0000
# 6 0.0000 0.0000 0.0000 0.3837 0.0000 20.2294
#
#
#
# Elastic Compliance Matrix: (Units=1/GPa)
#
#
# Indices 1 2 3 4 5 6 
#
# 1 0.016644 -0.000321 -0.004571 0.000000 0.001452 0.000000
# 2 -0.000321 0.015110 -0.003608 0.000000 0.000044 0.000000
# 3 -0.004571 -0.003608 0.010542 0.000000 0.000321 0.000000
# 4 0.000000 0.000000 0.000000 0.036497 0.000000 -0.000692
# 5 0.001452 0.000044 0.000321 0.000000 0.024186 0.000000
# 6 0.000000 0.000000 0.000000 -0.000692 0.000000 0.049446
#
#
# Mechanical properties :
#
#
# Convention : Reuss Voigt Hill
#
# Bulk Modulus (GPa) = 39.53204 45.34671 42.43938
# Shear Modulus (GPa) = 28.11255 30.55358 29.33306
#
# Velocity S-wave (km/s) = 3.96441 4.13295 4.04956
# Velocity P-wave (km/s) = 6.56172 6.93733 6.75213
#
# Compressibility (1/GPa) = 0.02529593
#
# Stress axis : x y z
#
# Youngs Moduli (GPa) = 60.08095 66.18328 94.85997
#
# Poissons Ratio (x) = 0.02121 0.43362
# Poissons Ratio (y) = 0.01926 0.34227
# Poissons Ratio (z) = 0.27464 0.23880
#
# Static dielectric constant tensor:
#      x y z
#    x 1.652180 0.000000 -0.015600 
#    y 0.000000 1.637080 0.000000 
#    z -0.015600 0.000000 1.600750 
# 
# From -- ./inp_files/214044.got.cif
#   From: 2010.05.17/outbox.ucp.g08.bks.cvg/sg15_108_cif.got.tgz:214044.got - 2010.06.11 12:40:34.
