data_PCOD9308340
_publ_section_title
;
Structure prediction by ZEFSAII (Michael W. Deem and Ramdas Pophale) SiO2 
 PCOD9308340
Probable space group: C 2/C
;
_chemical_formula_sum "Si O2"
_cell_formula_units_Z 28
_cell_length_a 8.384979
_cell_length_b 7.121499
_cell_length_c 17.713093
_cell_angle_alpha 90.000000
_cell_angle_beta 109.465269
_cell_angle_gamma 90.000000
_cell_volume 997.257901
_symmetry_space_group_name_H-M "C 2/C"
_symmetry_group_IT_number 15
_symmetry_cell_setting 'monoclinic'
loop_
_space_group_symop_operation_xyz
x,y,z
-x,y,1/2-z
-x,-y,-z
x,-y,1/2+z
1/2+x,1/2+y,z
1/2-x,1/2+y,1/2-z
1/2-x,1/2-y,-z
1/2+x,1/2-y,1/2+z
loop_
_atom_site_type_symbol
_atom_site_label
_atom_site_fract_x
_atom_site_fract_y
_atom_site_fract_z
Si Si1 0.199473 0.513399 0.550286
Si Si2 0.741807 0.159072 0.852377
Si Si3 0.500000 0.500000 0.500000
Si Si4 0.178499 0.259445 0.797212
O O1 0.289396 0.315332 0.588784
O O2 0.307656 0.559707 0.493815
O O3 0.215514 0.645529 0.625167
O O4 0.000000 0.500000 0.500000
O O5 0.734230 0.264550 0.770757
O O6 0.642358 0.966802 0.823867
O O7 0.928312 0.090958 0.908431
O O8 0.000000 0.165010 0.750000
#
# Coordination Sequence:
#
# PCOD9308340 Si02
#       4
#     8   8   4   8
#     4  12  29  55  86 128 172 224 286 353 431 516
#     4  12  27  49  81 123 165 225 287 348 426 511
#     4  12  28  52  82 124 174 220 278 356 430 510
#     4  12  27  50  85 120 171 227 290 355 426 509
#
# _framework density 28.076988
#
# number of rings (size 3 to 8) (size 9 to 14) (size 15 to 20)
#    0.000    0.000    5.714    2.571    4.000    5.714 
#    0.000    1.429    0.000    0.000    0.000    0.000 
#    0.000    0.000    0.000    0.000    0.000    0.000 
#
# Total GULP energy -77966.546748 kJ/mol
# GULP energy per Si atom -5569.039053 kJ/mol
# Density = 2.801308 g / cm^3
# Si number density = 28.076988 Si / 1000 Ang^3
#
#
#
# Elastic Constant Matrix: (Units=GPa)
#
#
# Indices 1 2 3 4 5 6 
#
# 1 124.3395 2.1854 30.8864 0.0000 17.5593 0.0000
# 2 2.1854 119.2700 52.2342 0.0000 16.2094 0.0000
# 3 30.8864 52.2342 210.6439 0.0000 18.0844 0.0000
# 4 0.0000 0.0000 0.0000 58.2728 0.0000 11.4331
# 5 17.5593 16.2094 18.0844 0.0000 50.5373 0.0000
# 6 0.0000 0.0000 0.0000 11.4331 0.0000 12.9302
#
#
#
# Elastic Compliance Matrix: (Units=1/GPa)
#
#
# Indices 1 2 3 4 5 6 
#
# 1 0.008735 0.000763 -0.001226 0.000000 -0.002841 0.000000
# 2 0.000763 0.009727 -0.002304 0.000000 -0.002561 0.000000
# 3 -0.001226 -0.002304 0.005570 0.000000 -0.000828 0.000000
# 4 0.000000 0.000000 0.000000 0.020763 0.000000 -0.018359
# 5 -0.002841 -0.002561 -0.000828 0.000000 0.021892 0.000000
# 6 0.000000 0.000000 0.000000 -0.018359 0.000000 0.093572
#
#
# Mechanical properties :
#
#
# Convention : Reuss Voigt Hill
#
# Bulk Modulus (GPa) = 54.06176 69.42949 61.74562
# Shear Modulus (GPa) = 29.07679 48.94456 39.01068
#
# Velocity S-wave (km/s) = 3.22158 4.17973 3.73153
# Velocity P-wave (km/s) = 5.75628 6.93364 6.37221
#
# Compressibility (1/GPa) = 0.01849736
#
# Stress axis : x y z
#
# Youngs Moduli (GPa) = 114.48394 102.80157 179.54627
#
# Poissons Ratio (x) = -0.07844 0.22014
# Poissons Ratio (y) = -0.08735 0.41371
# Poissons Ratio (z) = 0.14037 0.23688
#
# Static dielectric constant tensor:
#      x y z
#    x 2.135940 0.000000 0.133000 
#    y 0.000000 2.583550 0.000000 
#    z 0.133000 0.000000 1.480290 
# 
# From -- ./inp_files/187165.got.cif
#   From: 2010.05.17/outbox.cif.g08.bks.cpg/sg15_94_cif.got.tgz:187165.got - 2010.06.03 18:47:42.
