data_PCOD9308142
_publ_section_title
;
Structure prediction by ZEFSAII (Michael W. Deem and Ramdas Pophale) SiO2 
 PCOD9308142
Probable space group: C 2/C
;
_chemical_formula_sum "Si O2"
_cell_formula_units_Z 40
_cell_length_a 9.312118
_cell_length_b 11.622664
_cell_length_c 17.961749
_cell_angle_alpha 90.000000
_cell_angle_beta 65.114746
_cell_angle_gamma 90.000000
_cell_volume 1763.530618
_symmetry_space_group_name_H-M "C 2/C"
_symmetry_group_IT_number 15
_symmetry_cell_setting 'monoclinic'
loop_
_space_group_symop_operation_xyz
x,y,z
-x,y,1/2-z
-x,-y,-z
x,-y,1/2+z
1/2+x,1/2+y,z
1/2-x,1/2+y,1/2-z
1/2-x,1/2-y,-z
1/2+x,1/2-y,1/2+z
loop_
_atom_site_type_symbol
_atom_site_label
_atom_site_fract_x
_atom_site_fract_y
_atom_site_fract_z
Si Si1 0.380375 0.677896 0.426882
Si Si2 0.347332 0.868844 0.318504
Si Si3 0.680506 0.301962 0.206986
Si Si4 0.178971 0.544374 0.950419
Si Si5 0.285280 0.402462 0.588090
O O1 0.250000 0.750000 0.500000
O O2 0.418586 0.766433 0.352811
O O3 0.293404 0.564671 0.417321
O O4 0.533812 0.637477 0.439056
O O5 0.500000 0.930250 0.250000
O O6 0.243899 0.811765 0.276516
O O7 0.245967 0.964051 0.384444
O O8 0.500000 0.343685 0.250000
O O9 0.789217 0.378555 0.128417
O O10 0.688674 0.176956 0.166853
O O11 0.229321 0.609560 0.015241
O O12 0.000000 0.500000 0.000000
#
# Coordination Sequence:
#
# PCOD9308142 Si02
#       5
#     8   8   8   8   8
#     4  12  26  47  77 107 147 202 253 319 383 468
#     4  12  26  49  74 110 152 198 257 320 393 456
#     4  12  28  44  73 111 153 197 254 325 387 457
#     4  12  27  48  78 110 152 204 261 315 390 469
#     4  12  26  50  75 107 151 204 257 314 387 470
#
# _framework density 22.681771999999999
#
# number of rings (size 3 to 8) (size 9 to 14) (size 15 to 20)
#    0.000    0.000    4.000    5.400    8.400    0.800 
#    0.000    0.000    0.000    0.000    0.000    0.000 
#    0.000    0.000    0.000    0.000    0.000    0.000 
#
# Total GULP energy -111977.210033 kJ/mol
# GULP energy per Si atom -5598.860502 kJ/mol
# Density = 2.263015 g / cm^3
# Si number density = 22.681772 Si / 1000 Ang^3
#
#
#
# Elastic Constant Matrix: (Units=GPa)
#
#
# Indices 1 2 3 4 5 6 
#
# 1 169.0383 22.8067 38.1282 0.0000 0.1018 0.0000
# 2 22.8067 100.5074 16.9987 0.0000 9.0083 0.0000
# 3 38.1282 16.9987 76.3818 0.0000 7.6072 0.0000
# 4 0.0000 0.0000 0.0000 32.1205 0.0000 -2.4111
# 5 0.1018 9.0083 7.6072 0.0000 44.7652 0.0000
# 6 0.0000 0.0000 0.0000 -2.4111 0.0000 37.1414
#
#
#
# Elastic Compliance Matrix: (Units=1/GPa)
#
#
# Indices 1 2 3 4 5 6 
#
# 1 0.006786 -0.001061 -0.003226 0.000000 0.000746 0.000000
# 2 -0.001061 0.010636 -0.001652 0.000000 -0.001857 0.000000
# 3 -0.003226 -0.001652 0.015295 0.000000 -0.002259 0.000000
# 4 0.000000 0.000000 0.000000 0.031285 0.000000 0.002031
# 5 0.000746 -0.001857 -0.002259 0.000000 0.023095 0.000000
# 6 0.000000 0.000000 0.000000 0.002031 0.000000 0.027056
#
#
# Mechanical properties :
#
#
# Convention : Reuss Voigt Hill
#
# Bulk Modulus (GPa) = 47.98715 55.75499 51.87107
# Shear Modulus (GPa) = 37.60016 40.67168 39.13592
#
# Velocity S-wave (km/s) = 4.07594 4.23915 4.15834
# Velocity P-wave (km/s) = 6.58435 6.97103 6.78045
#
# Compressibility (1/GPa) = 0.02083891
#
# Stress axis : x y z
#
# Youngs Moduli (GPa) = 147.35958 94.01813 65.38066
#
# Poissons Ratio (x) = 0.09977 0.21089
# Poissons Ratio (y) = 0.15638 0.10803
# Poissons Ratio (z) = 0.47533 0.15535
#
# Static dielectric constant tensor:
#      x y z
#    x 1.833000 0.000000 -0.052200 
#    y 0.000000 1.965980 0.000000 
#    z -0.052200 0.000000 1.928750 
# 
# From -- ./inp_files/187823.got.cif
#   From: 2010.05.17/outbox.cif.g08.bks.cpg/sg15_94_cif.got.tgz:187823.got - 2010.06.03 18:47:42.
