data_PCOD9308826
_publ_section_title
;
Structure prediction by ZEFSAII (Michael W. Deem and Ramdas Pophale) SiO2 
 PCOD9308826
Probable space group: C 2/C
;
_chemical_formula_sum "Si O2"
_cell_formula_units_Z 32
_cell_length_a 9.000000
_cell_length_b 18.000000
_cell_length_c 30.000000
_cell_angle_alpha 90.000000
_cell_angle_beta 40.000000
_cell_angle_gamma 90.000000
_cell_volume 3123.947783
_symmetry_space_group_name_H-M "C 2/C"
_symmetry_group_IT_number 15
_symmetry_cell_setting 'monoclinic'
loop_
_space_group_symop_operation_xyz
x,y,z
-x,y,1/2-z
-x,-y,-z
x,-y,1/2+z
1/2+x,1/2+y,z
1/2-x,1/2+y,1/2-z
1/2-x,1/2-y,-z
1/2+x,1/2-y,1/2+z
loop_
_atom_site_type_symbol
_atom_site_label
_atom_site_fract_x
_atom_site_fract_y
_atom_site_fract_z
Si Si1 0.420446 0.983431 0.607580
Si Si2 0.578148 0.071193 0.299264
Si Si3 0.940313 0.945994 0.188795
Si Si4 0.309892 0.408480 0.059575
Si Si5 0.446268 0.384534 0.585457
Si Si6 0.754843 0.288421 0.794161
Si Si7 0.828325 0.970007 0.454900
Si Si8 0.549842 0.837207 0.290682
O O1 0.607951 0.041942 0.583737
O O2 0.171949 0.021783 0.658269
O O3 0.381820 0.926254 0.656864
O O4 0.563032 0.955640 0.531088
O O5 0.299224 0.070736 0.359594
O O6 0.662481 0.141139 0.252798
O O7 0.729895 0.005783 0.242066
O O8 0.798922 0.877029 0.240753
O O9 0.047928 0.929865 0.115081
O O10 0.514622 0.450902 0.038259
O O11 0.162260 0.367301 0.131333
O O12 0.443873 0.367383 0.988179
O O13 0.384892 0.314496 0.630015
O O14 0.625397 0.442852 0.565870
O O15 0.590888 0.244152 0.799352
O O16 0.000000 0.250716 0.750000
O O17 0.500000 0.844231 0.250000
#
# Coordination Sequence:
#
# PCOD9308826 Si02
#       8
#     8   8   8   8   8   8   8   8
#     4  11  22  35  62  97 132 158 202 263 307 380
#     4  11  20  38  64  94 121 158 207 265 311 362
#     4  12  24  36  63  97 128 162 206 261 320 369
#     4  11  21  37  67  92 126 166 209 255 313 387
#     4  10  19  39  64  93 121 160 215 253 307 378
#     4  10  25  41  66  88 123 168 217 265 308 376
#     4  11  19  39  63  96 128 163 203 255 322 378
#     4  12  26  42  62  90 130 172 209 264 318 374
#
# _framework density 10.243449
#
# number of rings (size 3 to 8) (size 9 to 14) (size 15 to 20)
#    0.000    1.000    6.250    1.500    1.750    1.500 
#    0.000    0.000    0.000    3.750    0.000    0.000 
#    0.000    0.000    0.000    0.000    0.000    0.000 
#
# Total GULP energy -178212.460857 kJ/mol
# GULP energy per Si atom -5569.139402 kJ/mol
# Density = 1.022013 g / cm^3
# Si number density = 10.243449 Si / 1000 Ang^3
#
#
#
# Elastic Constant Matrix: (Units=GPa)
#
#
# Indices 1 2 3 4 5 6 
#
# 1 64.1792 28.8389 49.3907 0.0004 -5.0601 0.0000
# 2 28.8389 37.9230 38.0873 -0.0013 1.4053 0.0010
# 3 49.3907 38.0873 198.0406 -0.0079 15.3868 0.0021
# 4 0.0004 -0.0013 -0.0079 6.5693 0.0031 3.9570
# 5 -5.0601 1.4053 15.3868 0.0031 28.0048 0.0004
# 6 0.0000 0.0010 0.0021 3.9570 0.0004 21.3927
#
#
#
# Elastic Compliance Matrix: (Units=1/GPa)
#
#
# Indices 1 2 3 4 5 6 
#
# 1 0.026815 -0.016545 -0.004122 -0.000016 0.007940 0.000004
# 2 -0.016545 0.042987 -0.003908 0.000008 -0.002999 -0.000003
# 3 -0.004122 -0.003908 0.007178 0.000012 -0.004493 -0.000003
# 4 -0.000016 0.000008 0.000012 0.171310 -0.000028 -0.031687
# 5 0.007940 -0.002999 -0.004493 -0.000028 0.039762 0.000005
# 6 0.000004 -0.000003 -0.000003 -0.031687 0.000005 0.052606
#
#
# Mechanical properties :
#
#
# Convention : Reuss Voigt Hill
#
# Bulk Modulus (GPa) = 35.93409 59.19739 47.56574
# Shear Modulus (GPa) = 12.52864 23.44843 17.98853
#
# Velocity S-wave (km/s) = 2.47562 3.38680 2.96641
# Velocity P-wave (km/s) = 5.07442 6.65221 5.91615
#
# Compressibility (1/GPa) = 0.02782873
#
# Stress axis : x y z
#
# Youngs Moduli (GPa) = 37.29313 23.26260 139.31049
#
# Poissons Ratio (x) = 0.38489 0.57429
# Poissons Ratio (y) = 0.61703 0.54442
# Poissons Ratio (z) = 0.15374 0.09091
#
# Static dielectric constant tensor:
#      x y z
#    x 1.825250 0.000000 0.028640 
#    y 0.000000 1.801250 0.000000 
#    z 0.028640 0.000000 1.763110 
# 
# From -- ./inp_files/308741.got.cif
#   From: 2010.05.17/outbox.ucp.g08.bks.cvg/sg15_155_cif.got.tgz:308741.got - 2010.06.11 12:40:34.
