data_PCOD9308770
_publ_section_title
;
Structure prediction by ZEFSAII (Michael W. Deem and Ramdas Pophale) SiO2 
 PCOD9308770
Probable space group: C 2/C
;
_chemical_formula_sum "Si O2"
_cell_formula_units_Z 24
_cell_length_a 12.000000
_cell_length_b 18.000000
_cell_length_c 12.000000
_cell_angle_alpha 90.000000
_cell_angle_beta 110.000000
_cell_angle_gamma 90.000000
_cell_volume 2435.683273
_symmetry_space_group_name_H-M "C 2/C"
_symmetry_group_IT_number 15
_symmetry_cell_setting 'monoclinic'
loop_
_space_group_symop_operation_xyz
x,y,z
-x,y,1/2-z
-x,-y,-z
x,-y,1/2+z
1/2+x,1/2+y,z
1/2-x,1/2+y,1/2-z
1/2-x,1/2-y,-z
1/2+x,1/2-y,1/2+z
loop_
_atom_site_type_symbol
_atom_site_label
_atom_site_fract_x
_atom_site_fract_y
_atom_site_fract_z
Si Si1 0.376197 0.790289 0.265695
Si Si2 0.726206 0.458150 0.608095
Si Si3 0.028169 0.868965 0.638621
Si Si4 0.770918 0.871377 0.462454
Si Si5 0.872431 0.406235 0.459782
Si Si6 0.624037 0.073756 0.125175
O O1 0.500000 0.813331 0.250000
O O2 0.395269 0.705392 0.310773
O O3 0.282030 0.809439 0.137686
O O4 0.354274 0.841868 0.364627
O O5 0.596537 0.430046 0.592670
O O6 0.734576 0.547280 0.599206
O O7 0.765982 0.420325 0.507377
O O8 0.809692 0.426103 0.734801
O O9 0.000000 0.902035 0.750000
O O10 0.904143 0.849929 0.539493
O O11 0.698155 0.886366 0.551898
O O12 0.887900 0.485527 0.403975
O O13 0.992203 0.393684 0.571852
#
# Coordination Sequence:
#
# PCOD9308770 Si02
#       6
#     8   8   8   8   8   8
#     4  11  23  40  64  92 125 167 207 256 317 369
#     4  11  22  39  63  94 127 163 208 261 310 369
#     4  11  25  41  62  90 126 171 208 250 310 383
#     4  11  22  41  66  92 125 161 213 262 303 371
#     4  10  21  35  61  95 124 160 203 263 308 362
#     4  10  19  35  63  92 125 157 207 260 309 357
#
# _framework density 9.8534980000000001
#
# number of rings (size 3 to 8) (size 9 to 14) (size 15 to 20)
#    0.000    1.333    5.000    1.000    0.000    4.667 
#    0.000    0.833    0.000    0.000    0.000    0.000 
#    0.000    0.000    0.000    0.000    0.000    0.000 
#
# Total GULP energy -134027.373350 kJ/mol
# GULP energy per Si atom -5584.473890 kJ/mol
# Density = 0.983107 g / cm^3
# Si number density = 9.853498 Si / 1000 Ang^3
#
#
#
# Elastic Constant Matrix: (Units=GPa)
#
#
# Indices 1 2 3 4 5 6 
#
# 1 60.6224 14.7967 15.4395 0.0000 -1.5097 0.0000
# 2 14.7967 34.7406 9.3547 0.0000 -24.0642 0.0000
# 3 15.4395 9.3547 76.1386 0.0000 11.2133 0.0000
# 4 0.0000 0.0000 0.0000 11.6580 0.0000 1.6644
# 5 -1.5097 -24.0642 11.2133 0.0000 28.1838 0.0000
# 6 0.0000 0.0000 0.0000 1.6644 0.0000 20.2136
#
#
#
# Elastic Compliance Matrix: (Units=1/GPa)
#
#
# Indices 1 2 3 4 5 6 
#
# 1 0.021007 -0.021182 0.000893 0.000000 -0.017316 0.000000
# 2 -0.021182 0.130112 -0.029621 0.000000 0.121744 0.000000
# 3 0.000893 -0.029621 0.021574 0.000000 -0.033827 0.000000
# 4 0.000000 0.000000 0.000000 0.086798 0.000000 -0.007147
# 5 -0.017316 0.121744 -0.033827 0.000000 0.151960 0.000000
# 6 0.000000 0.000000 0.000000 -0.007147 0.000000 0.050060
#
#
# Mechanical properties :
#
#
# Convention : Reuss Voigt Hill
#
# Bulk Modulus (GPa) = 13.72238 27.85371 20.78804
# Shear Modulus (GPa) = 8.53792 20.80514 14.67153
#
# Velocity S-wave (km/s) = 2.08371 3.25272 2.73148
# Velocity P-wave (km/s) = 3.57315 5.31709 4.52984
#
# Compressibility (1/GPa) = 0.07287367
#
# Stress axis : x y z
#
# Youngs Moduli (GPa) = 47.60310 7.68568 46.35212
#
# Poissons Ratio (x) = 0.16280 -0.04138
# Poissons Ratio (y) = 1.00833 1.37298
# Poissons Ratio (z) = -0.04250 0.22765
#
# Static dielectric constant tensor:
#      x y z
#    x 1.715580 0.000000 0.016610 
#    y 0.000000 1.667330 0.000000 
#    z 0.016610 0.000000 1.694910 
# 
# From -- ./inp_files/87232.got.cif
#   From: 2010.05.17/outbox.ucp.g08.bks.cvg/sg15_44_cif.got.tgz:87232.got - 2010.06.11 12:40:34.
