data_PCOD9308943
_publ_section_title
;
Structure prediction by ZEFSAII (Michael W. Deem and Ramdas Pophale) SiO2 
 PCOD9308943
Probable space group: C 2/C
;
_chemical_formula_sum "Si O2"
_cell_formula_units_Z 18
_cell_length_a 18.000000
_cell_length_b 15.000000
_cell_length_c 9.000000
_cell_angle_alpha 90.000000
_cell_angle_beta 130.000000
_cell_angle_gamma 90.000000
_cell_volume 1861.487997
_symmetry_space_group_name_H-M "C 2/C"
_symmetry_group_IT_number 15
_symmetry_cell_setting 'monoclinic'
loop_
_space_group_symop_operation_xyz
x,y,z
-x,y,1/2-z
-x,-y,-z
x,-y,1/2+z
1/2+x,1/2+y,z
1/2-x,1/2+y,1/2-z
1/2-x,1/2-y,-z
1/2+x,1/2-y,1/2+z
loop_
_atom_site_type_symbol
_atom_site_label
_atom_site_fract_x
_atom_site_fract_y
_atom_site_fract_z
Si Si1 0.815090 0.610893 0.250109
Si Si2 0.500000 0.489258 0.750000
Si Si3 0.606114 0.390308 0.633010
Si Si4 0.496216 0.215572 0.067598
Si Si5 0.894103 0.448974 0.543406
O O1 0.712266 0.630497 0.197306
O O2 0.855402 0.529697 0.399223
O O3 0.821314 0.579937 0.083573
O O4 0.897610 0.687799 0.353972
O O5 0.583769 0.436964 0.763421
O O6 0.444930 0.548363 0.557123
O O7 0.547863 0.298694 0.570047
O O8 0.500000 0.236179 0.250000
O O9 0.422060 0.132432 0.970360
O O10 0.000000 0.470775 0.750000
#
# Coordination Sequence:
#
# PCOD9308943 Si02
#       5
#     8   4   8   8   8
#     4  10  20  36  62  85 112 152 187 225 288 333
#     4  10  24  40  60  76 120 150 182 240 280 328
#     4  11  21  42  58  83 113 150 192 229 281 338
#     4   9  19  36  58  86 115 145 188 236 273 330
#     4   9  18  35  59  88 114 144 183 239 282 323
#
# _framework density 9.6696840000000002
#
# number of rings (size 3 to 8) (size 9 to 14) (size 15 to 20)
#    0.000    2.667    1.111    4.000    0.000    3.556 
#   14.000    1.111    0.000    0.000    0.000    0.000 
#    0.000    0.000    0.000    0.000    0.000    0.000 
#
# Total GULP energy -100235.706685 kJ/mol
# GULP energy per Si atom -5568.650371 kJ/mol
# Density = 0.964767 g / cm^3
# Si number density = 9.669684 Si / 1000 Ang^3
#
#
#
# Elastic Constant Matrix: (Units=GPa)
#
#
# Indices 1 2 3 4 5 6 
#
# 1 185.7984 40.7392 22.2285 0.0000 10.0507 0.0000
# 2 40.7392 81.0099 38.6920 0.0000 6.5112 0.0000
# 3 22.2285 38.6920 20.0241 0.0000 -3.3210 0.0000
# 4 0.0000 0.0000 0.0000 4.6544 0.0000 -1.6866
# 5 10.0507 6.5112 -3.3210 0.0000 21.0942 0.0000
# 6 0.0000 0.0000 0.0000 -1.6866 0.0000 12.3932
#
#
#
# Elastic Compliance Matrix: (Units=1/GPa)
#
#
# Indices 1 2 3 4 5 6 
#
# 1 0.004666 -0.026814 0.048913 0.000000 0.013754 0.000000
# 2 -0.026814 -0.375233 0.796952 0.000000 0.254068 0.000000
# 3 0.048913 0.796952 -1.631546 0.000000 -0.526165 0.000000
# 4 0.000000 0.000000 0.000000 0.225996 0.000000 0.030756
# 5 0.013754 0.254068 -0.526165 0.000000 -0.120408 0.000000
# 6 0.000000 0.000000 0.000000 0.030756 0.000000 0.084875
#
#
# Mechanical properties :
#
#
# Convention : Reuss Voigt Hill
#
# Bulk Modulus (GPa) = -2.74718 54.46132 25.85707
# Shear Modulus (GPa) = -1.40013 19.97320 9.28654
#
# Velocity S-wave (km/s) = -0.85179 3.21717 2.19370
# Velocity P-wave (km/s) = 1.54629 6.48245 4.45147
#
# Compressibility (1/GPa) = -0.36400997
#
# Stress axis : x y z
#
# Youngs Moduli (GPa) = 214.33349 -2.66501 -0.61292
#
# Poissons Ratio (x) = -0.07146 0.02998
# Poissons Ratio (y) = 5.74704 0.48846
# Poissons Ratio (z) = -10.48366 2.12389
#
# Static dielectric constant tensor:
#      x y z
#    x 1.678650 0.000000 0.006960 
#    y 0.000000 1.720590 0.000000 
#    z 0.006960 0.000000 1.683990 
# 
# From -- ./inp_files/38505.got.cif
#   From: 2010.05.17/outbox.ucp.g08.bks.cvg/sg15_20_cif.got.tgz:38505.got - 2010.06.11 12:40:34.
