data_PCOD9308608
_publ_section_title
;
Structure prediction by ZEFSAII (Michael W. Deem and Ramdas Pophale) SiO2 
 PCOD9308608
Probable space group: C 2/C
;
_chemical_formula_sum "Si O2"
_cell_formula_units_Z 20
_cell_length_a 18.000000
_cell_length_b 15.000000
_cell_length_c 24.000000
_cell_angle_alpha 90.000000
_cell_angle_beta 160.000000
_cell_angle_gamma 90.000000
_cell_volume 2216.290529
_symmetry_space_group_name_H-M "C 2/C"
_symmetry_group_IT_number 15
_symmetry_cell_setting 'monoclinic'
loop_
_space_group_symop_operation_xyz
x,y,z
-x,y,1/2-z
-x,-y,-z
x,-y,1/2+z
1/2+x,1/2+y,z
1/2-x,1/2+y,1/2-z
1/2-x,1/2-y,-z
1/2+x,1/2-y,1/2+z
loop_
_atom_site_type_symbol
_atom_site_label
_atom_site_fract_x
_atom_site_fract_y
_atom_site_fract_z
Si Si1 0.624632 0.251293 0.603220
Si Si2 0.353721 0.305984 0.756317
Si Si3 0.818387 0.046832 0.005580
Si Si4 0.049754 0.878362 0.113798
Si Si5 0.897077 0.395176 0.261667
O O1 0.645831 0.306158 0.675799
O O2 0.394102 0.198672 0.439713
O O3 0.601705 0.316184 0.533337
O O4 0.821343 0.181849 0.750038
O O5 0.452545 0.209857 0.808264
O O6 0.494670 0.389834 0.837686
O O7 0.729435 0.092538 0.885806
O O8 0.615225 0.047209 0.905425
O O9 0.917518 0.954253 0.052937
O O10 0.234362 0.914343 0.199332
#
# Coordination Sequence:
#
# PCOD9308608 Si02
#       5
#     8   8   8   8   8
#     4   8  18  32  53  78 109 142 178 214 282 306
#     4  10  16  33  51  80 114 141 167 223 277 332
#     4  11  19  31  57  81 109 143 186 215 267 326
#     4  10  19  36  56  83 105 146 179 229 261 324
#     4   9  20  32  49  83 109 141 174 219 275 323
#
# _framework density 9.0240880000000008
#
# number of rings (size 3 to 8) (size 9 to 14) (size 15 to 20)
#    0.000    2.800    4.000    1.200    0.000    0.800 
#    0.000    0.000    0.000    4.800    5.200    0.000 
#    0.000    0.000    0.000    0.000    0.000    0.000 
#
# Total GULP energy -111338.538354 kJ/mol
# GULP energy per Si atom -5566.926918 kJ/mol
# Density = 0.900355 g / cm^3
# Si number density = 9.024088 Si / 1000 Ang^3
#
#
#
# Elastic Constant Matrix: (Units=GPa)
#
#
# Indices 1 2 3 4 5 6 
#
# 1 54.7614 45.0645 26.4715 0.0081 9.0781 -0.0036
# 2 45.0645 87.3149 36.1656 0.0130 14.6204 0.0034
# 3 26.4715 36.1656 68.2489 0.0632 -15.7304 -0.0156
# 4 0.0081 0.0130 0.0632 20.5916 0.0005 0.3701
# 5 9.0781 14.6204 -15.7304 0.0005 22.3830 -0.0033
# 6 -0.0036 0.0034 -0.0156 0.3701 -0.0033 28.6403
#
#
#
# Elastic Compliance Matrix: (Units=1/GPa)
#
#
# Indices 1 2 3 4 5 6 
#
# 1 0.035293 -0.010978 -0.011358 0.000028 -0.015125 -0.000003
# 2 -0.010978 0.028380 -0.016739 0.000039 -0.025849 -0.000017
# 3 -0.011358 -0.016739 0.037600 -0.000102 0.041965 0.000027
# 4 0.000028 0.000039 -0.000102 0.048575 -0.000109 -0.000628
# 5 -0.015125 -0.025849 0.041965 -0.000109 0.097188 0.000037
# 6 -0.000003 -0.000017 0.000027 -0.000628 0.000037 0.034924
#
#
# Mechanical properties :
#
#
# Convention : Reuss Voigt Hill
#
# Bulk Modulus (GPa) = 43.24546 47.30317 45.27431
# Shear Modulus (GPa) = 13.59375 21.16457 17.37916
#
# Velocity S-wave (km/s) = 2.74741 3.42814 3.10648
# Velocity P-wave (km/s) = 5.83759 6.47579 6.16496
#
# Compressibility (1/GPa) = 0.02312382
#
# Stress axis : x y z
#
# Youngs Moduli (GPa) = 28.33430 35.23590 26.59592
#
# Poissons Ratio (x) = 0.38683 0.30207
# Poissons Ratio (y) = 0.31106 0.44518
# Poissons Ratio (z) = 0.32181 0.58980
#
# Static dielectric constant tensor:
#      x y z
#    x 1.610510 0.000000 0.020610 
#    y 0.000000 1.646030 -0.000010 
#    z 0.020610 -0.000010 1.655930 
# 
# From -- ./inp_files/277592.got.cif
#   From: 2010.05.17/outbox.ucp.g08.bks.cvg/sg15_139_cif.got.tgz:277592.got - 2010.06.11 12:40:34.
