data_PCOD9308772
_publ_section_title
;
Structure prediction by ZEFSAII (Michael W. Deem and Ramdas Pophale) SiO2 
 PCOD9308772
Probable space group: C 2/C
;
_chemical_formula_sum "Si O2"
_cell_formula_units_Z 28
_cell_length_a 12.000000
_cell_length_b 18.000000
_cell_length_c 15.000000
_cell_angle_alpha 90.000000
_cell_angle_beta 120.000000
_cell_angle_gamma 90.000000
_cell_volume 2805.922308
_symmetry_space_group_name_H-M "C 2/C"
_symmetry_group_IT_number 15
_symmetry_cell_setting 'monoclinic'
loop_
_space_group_symop_operation_xyz
x,y,z
-x,y,1/2-z
-x,-y,-z
x,-y,1/2+z
1/2+x,1/2+y,z
1/2-x,1/2+y,1/2-z
1/2-x,1/2-y,-z
1/2+x,1/2-y,1/2+z
loop_
_atom_site_type_symbol
_atom_site_label
_atom_site_fract_x
_atom_site_fract_y
_atom_site_fract_z
Si Si1 0.857475 0.471361 0.913113
Si Si2 0.028504 0.700928 0.857250
Si Si3 0.866812 0.359739 0.751420
Si Si4 0.936053 0.834762 0.941117
Si Si5 0.774147 0.900138 0.468384
Si Si6 0.702698 0.089472 0.750406
Si Si7 0.052937 0.808791 0.175837
O O1 0.866071 0.407050 0.841913
O O2 0.787293 0.535512 0.828877
O O3 0.774048 0.443954 0.963831
O O4 0.000000 0.500000 0.000000
O O5 0.973761 0.756402 0.909558
O O6 0.935917 0.628719 0.814875
O O7 0.000000 0.738863 0.750000
O O8 0.176634 0.672834 0.926837
O O9 0.715212 0.357446 0.648131
O O10 0.905157 0.276265 0.794244
O O11 0.000000 0.384627 0.750000
O O12 0.070014 0.883242 0.970327
O O13 0.952992 0.823124 0.054784
O O14 0.728091 0.943463 0.359665
O O15 0.815283 0.149437 0.792505
O O16 0.000000 0.834879 0.250000
#
# Coordination Sequence:
#
# PCOD9308772 Si02
#       7
#     8   8   8   8   8   8   8
#     4  12  26  42  71  99 139 185 228 281 340 421
#     4  10  19  35  69 100 138 174 218 285 338 400
#     4  11  27  44  70 104 140 183 234 282 343 414
#     4  11  23  43  69 101 142 171 232 293 335 406
#     4  10  23  41  68 103 134 182 226 283 346 397
#     4  10  22  44  66 100 139 175 231 282 338 415
#     4  10  23  45  69 100 137 184 228 281 351 406
#
# _framework density 9.9788940000000004
#
# number of rings (size 3 to 8) (size 9 to 14) (size 15 to 20)
#    0.000    1.429    2.857    1.286    4.000    3.429 
#    2.571    1.429    0.000    0.000    0.000    0.000 
#    0.000    0.000    0.000    0.000    0.000    0.000 
#
# Total GULP energy -155948.206259 kJ/mol
# GULP energy per Si atom -5569.578795 kJ/mol
# Density = 0.995618 g / cm^3
# Si number density = 9.978894 Si / 1000 Ang^3
#
#
#
# Elastic Constant Matrix: (Units=GPa)
#
#
# Indices 1 2 3 4 5 6 
#
# 1 122.8296 16.1509 67.9374 0.0000 7.1960 0.0000
# 2 16.1509 31.2262 37.6793 0.0000 -4.8648 0.0000
# 3 67.9374 37.6793 166.5865 0.0000 -5.6555 0.0000
# 4 0.0000 0.0000 0.0000 33.1206 0.0000 -1.0733
# 5 7.1960 -4.8648 -5.6555 0.0000 55.0297 0.0000
# 6 0.0000 0.0000 0.0000 -1.0733 0.0000 21.2310
#
#
#
# Elastic Compliance Matrix: (Units=1/GPa)
#
#
# Indices 1 2 3 4 5 6 
#
# 1 0.010708 -0.000670 -0.004280 0.000000 -0.001899 0.000000
# 2 -0.000670 0.044547 -0.009700 0.000000 0.003029 0.000000
# 3 -0.004280 -0.009700 0.009967 0.000000 0.000726 0.000000
# 4 0.000000 0.000000 0.000000 0.030242 0.000000 0.001529
# 5 -0.001899 0.003029 0.000726 0.000000 0.018763 0.000000
# 6 0.000000 0.000000 0.000000 0.001529 0.000000 0.047178
#
#
# Mechanical properties :
#
#
# Convention : Reuss Voigt Hill
#
# Bulk Modulus (GPa) = 27.83752 62.68637 45.26195
# Shear Modulus (GPa) = 24.66957 35.13458 29.90207
#
# Velocity S-wave (km/s) = 3.51962 4.20032 3.87494
# Velocity P-wave (km/s) = 5.52227 7.41628 6.53822
#
# Compressibility (1/GPa) = 0.03592273
#
# Stress axis : x y z
#
# Youngs Moduli (GPa) = 93.38877 22.44811 100.33192
#
# Poissons Ratio (x) = 0.01504 0.42941
# Poissons Ratio (y) = 0.06257 0.97320
# Poissons Ratio (z) = 0.39969 0.21774
#
# Static dielectric constant tensor:
#      x y z
#    x 1.743850 0.000000 -0.033050 
#    y 0.000000 1.766860 0.000000 
#    z -0.033050 0.000000 1.732590 
# 
# From -- ./inp_files/88870.got.cif
#   From: 2010.05.17/outbox.ucp.g08.bks.cvg/sg15_45_cif.got.tgz:88870.got - 2010.06.11 12:40:34.
