data_PCOD9308625
_publ_section_title
;
Structure prediction by ZEFSAII (Michael W. Deem and Ramdas Pophale) SiO2 
 PCOD9308625
Probable space group: C 2/C
;
_chemical_formula_sum "Si O2"
_cell_formula_units_Z 28
_cell_length_a 15.000000
_cell_length_b 12.000000
_cell_length_c 30.000000
_cell_angle_alpha 90.000000
_cell_angle_beta 30.000000
_cell_angle_gamma 90.000000
_cell_volume 2700.000000
_symmetry_space_group_name_H-M "C 2/C"
_symmetry_group_IT_number 15
_symmetry_cell_setting 'monoclinic'
loop_
_space_group_symop_operation_xyz
x,y,z
-x,y,1/2-z
-x,-y,-z
x,-y,1/2+z
1/2+x,1/2+y,z
1/2-x,1/2+y,1/2-z
1/2-x,1/2-y,-z
1/2+x,1/2-y,1/2+z
loop_
_atom_site_type_symbol
_atom_site_label
_atom_site_fract_x
_atom_site_fract_y
_atom_site_fract_z
Si Si1 0.330645 0.142498 0.579080
Si Si2 0.842722 0.743448 0.666979
Si Si3 0.232770 0.137655 0.800808
Si Si4 0.111457 0.947596 0.796880
Si Si5 0.531905 0.864121 0.901472
Si Si6 0.072781 0.323858 0.648174
Si Si7 0.500000 0.511237 0.250000
Si Si8 0.500000 0.988736 0.250000
O O1 0.410208 0.194311 0.590857
O O2 0.454820 0.100104 0.483491
O O3 0.217906 0.238694 0.603367
O O4 0.180022 0.060012 0.664451
O O5 0.862878 0.672277 0.703578
O O6 0.924402 0.858622 0.648931
O O7 0.627370 0.770820 0.757363
O O8 0.131305 0.245016 0.863888
O O9 0.345500 0.079472 0.791041
O O10 0.096129 0.061583 0.831137
O O11 0.314550 0.937622 0.689665
O O12 0.010575 0.929970 0.793791
O O13 0.400315 0.848571 0.916056
O O14 0.078307 0.431844 0.677290
#
# Coordination Sequence:
#
# PCOD9308625 Si02
#       8
#     8   8   8   8   8   8   4   4
#     4  12  19  37  60  88 114 160 199 243 296 337
#     4  10  19  35  58  77 122 152 193 240 285 347
#     4  10  19  37  58  86 113 159 195 236 297 351
#     4  10  20  39  58  88 116 155 200 239 290 354
#     4  10  24  35  56  90 128 144 194 256 289 342
#     4  10  17  34  56  86 108 152 196 248 274 341
#     4  12  21  35  68  82 114 164 196 234 302 352
#     4  12  17  33  68  78 114 156 208 222 294 362
#
# _framework density 10.370369999999999
#
# number of rings (size 3 to 8) (size 9 to 14) (size 15 to 20)
#    0.000    1.714    7.143    1.286    0.000    2.857 
#    0.000    4.286    0.000    1.714    0.000    0.000 
#    0.000    0.000    0.000    0.000    0.000    0.000 
#
# Total GULP energy -155874.544828 kJ/mol
# GULP energy per Si atom -5566.948030 kJ/mol
# Density = 1.034677 g / cm^3
# Si number density = 10.370370 Si / 1000 Ang^3
#
#
#
# Elastic Constant Matrix: (Units=GPa)
#
#
# Indices 1 2 3 4 5 6 
#
# 1 132.7994 8.9007 15.0052 0.0001 27.7715 0.0000
# 2 8.9007 42.7411 3.1020 0.0000 -0.8376 0.0000
# 3 15.0052 3.1020 60.2419 -0.0002 34.2044 0.0000
# 4 0.0001 0.0000 -0.0002 15.7442 0.0001 6.5477
# 5 27.7715 -0.8376 34.2044 0.0001 39.9963 0.0000
# 6 0.0000 0.0000 0.0000 6.5477 0.0000 50.2873
#
#
#
# Elastic Compliance Matrix: (Units=1/GPa)
#
#
# Indices 1 2 3 4 5 6 
#
# 1 0.009224 -0.002305 0.002887 0.000000 -0.008922 0.000000
# 2 -0.002305 0.024243 -0.003637 0.000000 0.005219 0.000000
# 3 0.002887 -0.003637 0.033531 0.000001 -0.030756 0.000000
# 4 0.000000 0.000000 0.000001 0.067152 -0.000001 -0.008743
# 5 -0.008922 0.005219 -0.030756 -0.000001 0.057608 0.000000
# 6 0.000000 0.000000 0.000000 -0.008743 0.000000 0.021024
#
#
# Mechanical properties :
#
#
# Convention : Reuss Voigt Hill
#
# Bulk Modulus (GPa) = 16.42411 32.19979 24.31195
# Shear Modulus (GPa) = 20.90395 35.12387 28.01391
#
# Velocity S-wave (km/s) = 3.17814 4.11965 3.67913
# Velocity P-wave (km/s) = 4.62638 6.17958 5.45851
#
# Compressibility (1/GPa) = 0.06088609
#
# Stress axis : x y z
#
# Youngs Moduli (GPa) = 108.40966 41.24895 29.82352
#
# Poissons Ratio (x) = 0.09509 -0.08610
# Poissons Ratio (y) = 0.24992 0.10848
# Poissons Ratio (z) = -0.31296 0.15004
#
# Static dielectric constant tensor:
#      x y z
#    x 1.836270 0.000000 -0.050330 
#    y 0.000000 1.879650 0.000000 
#    z -0.050330 0.000000 1.733910 
# 
# From -- ./inp_files/313744.got.cif
#   From: 2010.05.17/outbox.ucp.g08.bks.cvg/sg15_157_cif.got.tgz:313744.got - 2010.06.11 12:40:34.
