data_PCOD9308138
_publ_section_title
;
Structure prediction by ZEFSAII (Michael W. Deem and Ramdas Pophale) SiO2 
 PCOD9308138
Probable space group: C 2/C
;
_chemical_formula_sum "Si O2"
_cell_formula_units_Z 36
_cell_length_a 22.493586
_cell_length_b 6.101954
_cell_length_c 18.147704
_cell_angle_alpha 90.000000
_cell_angle_beta 143.256848
_cell_angle_gamma 90.000000
_cell_volume 1490.104249
_symmetry_space_group_name_H-M "C 2/C"
_symmetry_group_IT_number 15
_symmetry_cell_setting 'monoclinic'
loop_
_space_group_symop_operation_xyz
x,y,z
-x,y,1/2-z
-x,-y,-z
x,-y,1/2+z
1/2+x,1/2+y,z
1/2-x,1/2+y,1/2-z
1/2-x,1/2-y,-z
1/2+x,1/2-y,1/2+z
loop_
_atom_site_type_symbol
_atom_site_label
_atom_site_fract_x
_atom_site_fract_y
_atom_site_fract_z
Si Si1 0.725463 0.497910 0.160646
Si Si2 0.665314 0.854894 0.867301
Si Si3 0.500000 0.470079 0.250000
Si Si4 0.904698 0.382534 0.445203
Si Si5 0.623947 0.177103 0.951039
O O1 0.793075 0.640181 0.172912
O O2 0.801258 0.453666 0.302294
O O3 0.622053 0.621570 0.078417
O O4 0.702423 0.291279 0.084220
O O5 0.575228 0.690797 0.784674
O O6 0.647805 0.083205 0.893351
O O7 0.750000 0.750000 0.000000
O O8 0.451117 0.628151 0.141270
O O9 0.912572 0.473242 0.536319
O O10 0.000000 0.500000 0.500000
#
# Coordination Sequence:
#
# PCOD9308138 Si02
#       5
#     8   8   4   8   8
#     4  12  27  49  74 111 153 206 259 320 389 468
#     4  12  26  47  76 108 151 196 260 318 382 458
#     4  12  28  44  76 116 150 196 262 316 394 454
#     4  12  29  48  75 110 158 203 256 317 394 469
#     4  12  26  48  75 112 151 200 257 324 387 459
#
# _framework density 24.159382999999998
#
# number of rings (size 3 to 8) (size 9 to 14) (size 15 to 20)
#    0.000    0.000    6.667    1.333    9.333    2.667 
#    0.000    0.000    0.000    0.000    0.000    0.000 
#    0.000    0.000    0.000    0.000    0.000    0.000 
#
# Total GULP energy -100458.140464 kJ/mol
# GULP energy per Si atom -5581.007804 kJ/mol
# Density = 2.410440 g / cm^3
# Si number density = 24.159383 Si / 1000 Ang^3
#
#
#
# Elastic Constant Matrix: (Units=GPa)
#
#
# Indices 1 2 3 4 5 6 
#
# 1 82.0902 20.3610 22.3078 0.0000 -3.6862 0.0000
# 2 20.3610 85.9382 47.5395 0.0001 10.9327 0.0001
# 3 22.3078 47.5395 113.7387 0.0000 -9.2210 0.0000
# 4 0.0000 0.0001 0.0000 67.9405 0.0000 -5.4246
# 5 -3.6862 10.9327 -9.2210 0.0000 41.7620 0.0000
# 6 0.0000 0.0001 0.0000 -5.4246 0.0000 14.7592
#
#
#
# Elastic Compliance Matrix: (Units=1/GPa)
#
#
# Indices 1 2 3 4 5 6 
#
# 1 0.013268 -0.002559 -0.001409 0.000000 0.001530 0.000000
# 2 -0.002559 0.016958 -0.007091 0.000000 -0.006231 0.000000
# 3 -0.001409 -0.007091 0.012395 0.000000 0.004469 0.000000
# 4 0.000000 0.000000 0.000000 0.015164 0.000000 0.005573
# 5 0.001530 -0.006231 0.004469 0.000000 0.026698 0.000000
# 6 0.000000 0.000000 0.000000 0.005573 0.000000 0.069803
#
#
# Mechanical properties :
#
#
# Convention : Reuss Voigt Hill
#
# Bulk Modulus (GPa) = 48.77366 51.35376 50.06371
# Shear Modulus (GPa) = 27.28710 37.66292 32.47501
#
# Velocity S-wave (km/s) = 3.36439 3.95262 3.67031
# Velocity P-wave (km/s) = 5.94342 6.49102 6.22325
#
# Compressibility (1/GPa) = 0.02050287
#
# Stress axis : x y z
#
# Youngs Moduli (GPa) = 75.36979 58.96944 80.68041
#
# Poissons Ratio (x) = 0.15090 0.11365
# Poissons Ratio (y) = 0.19286 0.57212
# Poissons Ratio (z) = 0.10617 0.41816
#
# Static dielectric constant tensor:
#      x y z
#    x 1.931840 0.000000 0.084710 
#    y 0.000000 2.113010 0.000000 
#    z 0.084710 0.000000 1.885990 
# 
# From -- ./inp_files/256698.got.cif
#   From: 2010.05.17/outbox.cif.g08.bks.cpg/sg15_129_cif.got.tgz:256698.got - 2010.06.03 18:47:42.
