data_PCOD9308051
_publ_section_title
;
Structure prediction by ZEFSAII (Michael W. Deem and Ramdas Pophale) SiO2 
 PCOD9308051
Probable space group: C 2/C
;
_chemical_formula_sum "Si O2"
_cell_formula_units_Z 40
_cell_length_a 25.393088
_cell_length_b 11.682220
_cell_length_c 10.617713
_cell_angle_alpha 90.000000
_cell_angle_beta 31.716065
_cell_angle_gamma 90.000000
_cell_volume 1655.839632
_symmetry_space_group_name_H-M "C 2/C"
_symmetry_group_IT_number 15
_symmetry_cell_setting 'monoclinic'
loop_
_space_group_symop_operation_xyz
x,y,z
-x,y,1/2-z
-x,-y,-z
x,-y,1/2+z
1/2+x,1/2+y,z
1/2-x,1/2+y,1/2-z
1/2-x,1/2-y,-z
1/2+x,1/2-y,1/2+z
loop_
_atom_site_type_symbol
_atom_site_label
_atom_site_fract_x
_atom_site_fract_y
_atom_site_fract_z
Si Si1 0.238128 0.853407 0.431749
Si Si2 0.802315 0.267528 0.726783
Si Si3 0.932007 0.491531 0.511730
Si Si4 0.877621 0.044012 0.678770
Si Si5 0.087437 0.882612 0.133738
O O1 0.250000 0.750000 0.500000
O O2 0.172781 0.795570 0.455131
O O3 0.343558 0.913264 0.182124
O O4 0.181864 0.950483 0.622289
O O5 0.877464 0.367062 0.615269
O O6 0.807240 0.155664 0.803285
O O7 0.693775 0.321992 0.923620
O O8 0.000000 0.500000 0.500000
O O9 0.000000 0.500999 0.250000
O O10 0.902081 0.986713 0.492154
O O11 0.948003 0.089676 0.651031
O O12 0.000000 0.807603 0.250000
#
# Coordination Sequence:
#
# PCOD9308051 Si02
#       5
#     8   8   8   8   8
#     4  12  26  51  82 111 165 216 263 333 412 476
#     4  12  26  50  81 108 165 205 266 334 403 468
#     4  12  30  53  84 124 163 214 277 331 411 492
#     4  12  25  50  78 112 155 211 261 330 402 480
#     4  12  27  47  76 114 153 202 267 325 403 479
#
# _framework density 24.156927
#
# number of rings (size 3 to 8) (size 9 to 14) (size 15 to 20)
#    0.000    0.000    6.000    2.400    2.800    3.200 
#    7.200    0.000    0.000    0.000    0.000    0.000 
#    0.000    0.000    0.000    0.000    0.000    0.000 
#
# Total GULP energy -111639.825035 kJ/mol
# GULP energy per Si atom -5581.991252 kJ/mol
# Density = 2.410195 g / cm^3
# Si number density = 24.156927 Si / 1000 Ang^3
#
#
#
# Elastic Constant Matrix: (Units=GPa)
#
#
# Indices 1 2 3 4 5 6 
#
# 1 183.2326 66.9290 29.1723 0.0000 -0.3016 0.0000
# 2 66.9290 156.4459 34.6597 0.0000 -9.8537 0.0000
# 3 29.1723 34.6597 107.5257 0.0000 5.7526 0.0000
# 4 0.0000 0.0000 0.0000 28.4989 0.0000 13.3677
# 5 -0.3016 -9.8537 5.7526 0.0000 37.9893 0.0000
# 6 0.0000 0.0000 0.0000 13.3677 0.0000 44.8614
#
#
#
# Elastic Compliance Matrix: (Units=1/GPa)
#
#
# Indices 1 2 3 4 5 6 
#
# 1 0.006565 -0.002639 -0.000904 0.000000 -0.000496 0.000000
# 2 -0.002639 0.008122 -0.002030 0.000000 0.002393 0.000000
# 3 -0.000904 -0.002030 0.010312 0.000000 -0.002095 0.000000
# 4 0.000000 0.000000 0.000000 0.040790 0.000000 -0.012155
# 5 -0.000496 0.002393 -0.002095 0.000000 0.027257 0.000000
# 6 0.000000 0.000000 0.000000 -0.012155 0.000000 0.025913
#
#
# Mechanical properties :
#
#
# Convention : Reuss Voigt Hill
#
# Bulk Modulus (GPa) = 72.19198 78.74738 75.46968
# Shear Modulus (GPa) = 37.11360 43.36611 40.23986
#
# Velocity S-wave (km/s) = 3.92389 4.24156 4.08581
# Velocity P-wave (km/s) = 7.10483 7.52707 7.31900
#
# Compressibility (1/GPa) = 0.01385195
#
# Stress axis : x y z
#
# Youngs Moduli (GPa) = 152.32950 123.12861 96.97746
#
# Poissons Ratio (x) = 0.32499 0.08764
# Poissons Ratio (y) = 0.40207 0.19685
# Poissons Ratio (z) = 0.13766 0.24993
#
# Static dielectric constant tensor:
#      x y z
#    x 1.676480 0.000000 0.124430 
#    y 0.000000 1.822710 0.000000 
#    z 0.124430 0.000000 1.924930 
# 
# From -- ./inp_files/122782.got.cif
#   From: 2010.05.17/outbox.cif.g08.bks.cpg/sg15_62_cif.got.tgz:122782.got - 2010.06.03 18:47:42.
