data_PCOD9308875
_publ_section_title
;
Structure prediction by ZEFSAII (Michael W. Deem and Ramdas Pophale) SiO2 
 PCOD9308875
Probable space group: C 2/C
;
_chemical_formula_sum "Si O2"
_cell_formula_units_Z 26
_cell_length_a 6.000000
_cell_length_b 21.000000
_cell_length_c 21.000000
_cell_angle_alpha 90.000000
_cell_angle_beta 90.000000
_cell_angle_gamma 90.000000
_cell_volume 2646.000000
_symmetry_space_group_name_H-M "C 2/C"
_symmetry_group_IT_number 15
_symmetry_cell_setting 'monoclinic'
loop_
_space_group_symop_operation_xyz
x,y,z
-x,y,1/2-z
-x,-y,-z
x,-y,1/2+z
1/2+x,1/2+y,z
1/2-x,1/2+y,1/2-z
1/2-x,1/2-y,-z
1/2+x,1/2-y,1/2+z
loop_
_atom_site_type_symbol
_atom_site_label
_atom_site_fract_x
_atom_site_fract_y
_atom_site_fract_z
Si Si1 0.339970 0.295540 0.409970
Si Si2 0.000000 0.191686 0.250000
Si Si3 0.311449 0.106305 0.339074
Si Si4 0.257395 0.957250 0.319940
Si Si5 0.746210 0.413437 0.173021
Si Si6 0.197001 0.302837 0.858907
Si Si7 0.921524 0.828296 0.549994
O O1 0.266117 0.341914 0.353739
O O2 0.540877 0.252172 0.385262
O O3 0.158121 0.243320 0.431344
O O4 0.406465 0.333336 0.474220
O O5 0.150291 0.148096 0.295178
O O6 0.157211 0.225683 0.198989
O O7 0.553817 0.137882 0.332083
O O8 0.233573 0.122172 0.411512
O O9 0.282777 0.033634 0.319898
O O10 0.251954 0.927085 0.248825
O O11 0.501877 0.936306 0.348949
O O12 0.004109 0.941641 0.346723
O O13 0.338463 0.331102 0.917318
#
# Coordination Sequence:
#
# PCOD9308875 Si02
#       7
#     8   4   8   8   8   8   8
#     4  10  21  42  62  91 129 165 218 255 326 388
#     4  10  20  34  56  96 124 156 208 266 330 376
#     4  10  21  38  63  91 122 162 218 262 323 373
#     4  10  23  42  62  91 127 173 212 265 323 383
#     4  10  23  41  64  91 125 177 209 260 327 387
#     4  10  21  36  61  95 121 168 202 277 320 380
#     4   9  21  40  66  91 121 168 210 272 316 378
#
# _framework density 9.8261529999999997
#
# number of rings (size 3 to 8) (size 9 to 14) (size 15 to 20)
#    0.000    2.154    0.000    1.846   10.769    0.000 
#   16.615    1.538    0.000    0.000    0.000    0.000 
#    0.000    0.000    0.000    0.000    0.000    0.000 
#
# Total GULP energy -144769.157939 kJ/mol
# GULP energy per Si atom -5568.044536 kJ/mol
# Density = 0.980379 g / cm^3
# Si number density = 9.826153 Si / 1000 Ang^3
#
#
#
# Elastic Constant Matrix: (Units=GPa)
#
#
# Indices 1 2 3 4 5 6 
#
# 1 123.1107 9.4809 8.8555 0.0000 5.4075 0.0000
# 2 9.4809 41.0807 39.9141 0.0000 -4.5211 0.0000
# 3 8.8555 39.9141 66.2881 0.0000 -1.0371 0.0000
# 4 0.0000 0.0000 0.0000 -38.9243 0.0000 -14.4031
# 5 5.4075 -4.5211 -1.0371 0.0000 18.8529 0.0000
# 6 0.0000 0.0000 0.0000 -14.4031 0.0000 -34.4912
#
#
#
# Elastic Compliance Matrix: (Units=1/GPa)
#
#
# Indices 1 2 3 4 5 6 
#
# 1 0.008434 -0.002750 0.000482 0.000000 -0.003052 0.000000
# 2 -0.002750 0.062469 -0.037032 0.000000 0.013732 0.000000
# 3 0.000482 -0.037032 0.037210 0.000000 -0.006972 0.000000
# 4 0.000000 0.000000 0.000000 -0.030386 0.000000 0.012689
# 5 -0.003052 0.013732 -0.006972 0.000000 0.056827 0.000000
# 6 0.000000 0.000000 0.000000 0.012689 0.000000 -0.034292
#
#
# Mechanical properties :
#
#
# Convention : Reuss Voigt Hill
#
# Bulk Modulus (GPa) = 33.88494 38.55338 36.21916
# Shear Modulus (GPa) = 26.49688 0.56943 13.53315
#
# Velocity S-wave (km/s) = 3.67588 0.53887 2.62702
# Velocity P-wave (km/s) = 5.94103 4.47744 5.26038
#
# Compressibility (1/GPa) = 0.02951164
#
# Stress axis : x y z
#
# Youngs Moduli (GPa) = 118.56788 16.00799 26.87419
#
# Poissons Ratio (x) = 0.04403 -0.01294
# Poissons Ratio (y) = 0.32608 0.99521
# Poissons Ratio (z) = -0.05709 0.59281
#
# Static dielectric constant tensor:
#      x y z
#    x 1.809950 0.000000 0.054490 
#    y 0.000000 1.666880 0.000000 
#    z 0.054490 0.000000 1.888070 
# 
# From -- ./inp_files/227549.got.cif
#   From: 2010.05.17/outbox.ucp.g08.bks.cvg/sg15_114_cif.got.tgz:227549.got - 2010.06.11 12:40:34.
