data_PCOD9308485
_publ_section_title
;
Structure prediction by ZEFSAII (Michael W. Deem and Ramdas Pophale) SiO2 
 PCOD9308485
Probable space group: C 2/C
;
_chemical_formula_sum "Si O2"
_cell_formula_units_Z 48
_cell_length_a 9.621434
_cell_length_b 26.573043
_cell_length_c 11.315751
_cell_angle_alpha 90.000000
_cell_angle_beta 42.981094
_cell_angle_gamma 90.000000
_cell_volume 1972.395856
_symmetry_space_group_name_H-M "C 2/C"
_symmetry_group_IT_number 15
_symmetry_cell_setting 'monoclinic'
loop_
_space_group_symop_operation_xyz
x,y,z
-x,y,1/2-z
-x,-y,-z
x,-y,1/2+z
1/2+x,1/2+y,z
1/2-x,1/2+y,1/2-z
1/2-x,1/2-y,-z
1/2+x,1/2-y,1/2+z
loop_
_atom_site_type_symbol
_atom_site_label
_atom_site_fract_x
_atom_site_fract_y
_atom_site_fract_z
Si Si1 0.773064 0.858343 0.643104
Si Si2 0.770174 0.978739 0.642983
Si Si3 0.751287 0.854984 0.397476
Si Si4 0.749065 0.693060 0.105929
Si Si5 0.719541 0.309803 0.365564
Si Si6 0.250914 0.472249 0.396963
O O1 0.768953 0.918423 0.641010
O O2 0.687594 0.839323 0.570001
O O3 0.690342 0.841134 0.821362
O O4 0.005624 0.839064 0.499883
O O5 0.684288 0.992723 0.566927
O O6 0.689812 0.997124 0.819172
O O7 0.000000 0.000000 0.500000
O O8 0.694015 0.822512 0.318138
O O9 0.694284 0.913614 0.416303
O O10 0.000000 0.853545 0.250000
O O11 0.500000 0.693521 0.250000
O O12 0.809145 0.749928 0.102158
O O13 0.818791 0.677162 0.931301
O O14 0.500000 0.473051 0.250000
#
# Coordination Sequence:
#
# PCOD9308485 Si02
#       6
#     8   8   8   8   8   8
#     4   9  17  27  39  57  79 105 131 154 186 227
#     4   9  15  22  34  53  77 104 124 141 174 225
#     4   8  14  25  38  54  76 102 126 152 184 223
#     4   9  18  28  38  54  73  98 132 166 195 222
#     4   9  16  27  40  52  72 101 129 163 194 223
#     4   8  14  21  31  50  75 101 122 141 170 217
#
# _framework density 24.335885999999999
#
# number of rings (size 3 to 8) (size 9 to 14) (size 15 to 20)
#    0.000    3.333    0.000    3.000    0.000    8.000 
#    0.000    0.000    0.000    0.000    0.000    0.000 
#    0.000    0.000    0.000  312.000    0.000   35.000 
#
# Total GULP energy -134069.091426 kJ/mol
# GULP energy per Si atom -5586.212143 kJ/mol
# Density = 2.428050 g / cm^3
# Si number density = 24.335886 Si / 1000 Ang^3
#
#
#
# Elastic Constant Matrix: (Units=GPa)
#
#
# Indices 1 2 3 4 5 6 
#
# 1 163.0151 62.2502 75.4190 0.0000 63.0765 0.0000
# 2 62.2502 50.0359 56.9488 0.0000 43.2477 0.0000
# 3 75.4190 56.9488 255.6247 0.0000 68.4240 0.0000
# 4 0.0000 0.0000 0.0000 42.1995 0.0000 21.9609
# 5 63.0765 43.2477 68.4240 0.0000 73.8240 0.0000
# 6 0.0000 0.0000 0.0000 21.9609 0.0000 26.0867
#
#
#
# Elastic Compliance Matrix: (Units=1/GPa)
#
#
# Indices 1 2 3 4 5 6 
#
# 1 0.012018 -0.012323 0.000021 0.000000 -0.003069 0.000000
# 2 -0.012323 0.055701 -0.003800 0.000000 -0.018580 0.000000
# 3 0.000021 -0.003800 0.005534 0.000000 -0.002921 0.000000
# 4 0.000000 0.000000 0.000000 0.042173 0.000000 -0.035503
# 5 -0.003069 -0.018580 -0.002921 0.000000 0.029760 0.000000
# 6 0.000000 0.000000 0.000000 -0.035503 0.000000 0.068222
#
#
# Mechanical properties :
#
#
# Convention : Reuss Voigt Hill
#
# Bulk Modulus (GPa) = 24.36130 95.32353 59.84241
# Shear Modulus (GPa) = 19.28302 46.69255 32.98778
#
# Velocity S-wave (km/s) = 2.81796 4.38502 3.68573
# Velocity P-wave (km/s) = 4.54093 8.05561 6.53884
#
# Compressibility (1/GPa) = 0.04104871
#
# Stress axis : x y z
#
# Youngs Moduli (GPa) = 83.20957 17.95291 180.68992
#
# Poissons Ratio (x) = 0.22124 -0.00381
# Poissons Ratio (y) = 1.02541 0.68666
# Poissons Ratio (z) = -0.00175 0.06822
#
# Static dielectric constant tensor:
#      x y z
#    x 1.956030 0.000000 -0.058640 
#    y 0.000000 1.809710 0.000000 
#    z -0.058640 0.000000 2.055100 
# 
# From -- ./inp_files/90267.got.cif
#   From: 2010.05.17/outbox.cif.g08.bks.cpg/sg15_46_cif.got.tgz:90267.got - 2010.06.03 18:47:42.
