data_PCOD9308600
_publ_section_title
;
Structure prediction by ZEFSAII (Michael W. Deem and Ramdas Pophale) SiO2 
 PCOD9308600
Probable space group: C 2/C
;
_chemical_formula_sum "Si O2"
_cell_formula_units_Z 32
_cell_length_a 21.000000
_cell_length_b 18.000000
_cell_length_c 24.000000
_cell_angle_alpha 90.000000
_cell_angle_beta 20.000000
_cell_angle_gamma 90.000000
_cell_volume 3102.806740
_symmetry_space_group_name_H-M "C 2/C"
_symmetry_group_IT_number 15
_symmetry_cell_setting 'monoclinic'
loop_
_space_group_symop_operation_xyz
x,y,z
-x,y,1/2-z
-x,-y,-z
x,-y,1/2+z
1/2+x,1/2+y,z
1/2-x,1/2+y,1/2-z
1/2-x,1/2-y,-z
1/2+x,1/2-y,1/2+z
loop_
_atom_site_type_symbol
_atom_site_label
_atom_site_fract_x
_atom_site_fract_y
_atom_site_fract_z
Si Si1 0.836011 0.668957 0.023238
Si Si2 0.741335 0.025146 0.180337
Si Si3 0.353569 0.664873 0.142809
Si Si4 0.056446 0.172108 0.092543
Si Si5 0.960268 0.676709 0.529152
Si Si6 0.286674 0.029232 0.670010
Si Si7 0.814324 0.495829 0.521835
Si Si8 0.724315 0.973355 0.067111
O O1 0.632018 0.669372 0.217395
O O2 0.864149 0.590768 0.971360
O O3 0.983752 0.668879 0.952141
O O4 0.865858 0.744904 0.966513
O O5 0.851625 0.100338 0.099963
O O6 0.781641 0.986744 0.209471
O O7 0.515493 0.034985 0.363840
O O8 0.785342 0.999016 0.080345
O O9 0.499374 0.658099 0.074309
O O10 0.150314 0.663997 0.339050
O O11 0.390439 0.740657 0.080921
O O12 0.195366 0.109787 0.999186
O O13 0.803648 0.616637 0.646478
O O14 0.500000 0.000000 0.500000
O O15 0.221217 0.998923 0.661720
O O16 0.720714 0.513480 0.538005
O O17 0.500000 0.977123 0.250000
#
# Coordination Sequence:
#
# PCOD9308600 Si02
#       8
#     8   8   8   8   8   8   8   8
#     4  10  20  35  57  85 117 164 197 246 289 355
#     4  10  19  36  63  86 115 153 202 241 297 353
#     4  10  20  35  58  89 119 151 192 247 301 349
#     4  10  23  37  56  85 126 157 203 246 294 351
#     4  10  18  33  56  89 118 146 192 244 300 346
#     4  10  15  31  63  84 105 152 204 236 277 358
#     4  10  19  36  60  84 112 159 204 234 290 365
#     4  10  24  39  56  84 119 160 200 247 295 354
#
# _framework density 10.313243
#
# number of rings (size 3 to 8) (size 9 to 14) (size 15 to 20)
#    0.000    2.000    5.000    0.750    3.500    3.500 
#    0.000    1.250    0.000    0.750    0.000    0.000 
#    0.000    0.000    0.000    0.000    0.000    0.000 
#
# Total GULP energy -178208.620065 kJ/mol
# GULP energy per Si atom -5569.019377 kJ/mol
# Density = 1.028977 g / cm^3
# Si number density = 10.313243 Si / 1000 Ang^3
#
#
#
# Elastic Constant Matrix: (Units=GPa)
#
#
# Indices 1 2 3 4 5 6 
#
# 1 135.3310 45.4188 22.0200 0.0069 17.9798 -0.0127
# 2 45.4188 95.6035 31.9180 0.0030 -17.0985 0.0046
# 3 22.0200 31.9180 7.6711 -0.0587 11.9410 -0.0026
# 4 0.0069 0.0030 -0.0587 20.0693 0.0295 -1.6817
# 5 17.9798 -17.0985 11.9410 0.0295 17.9334 0.0097
# 6 -0.0127 0.0046 -0.0026 -1.6817 0.0097 28.3000
#
#
#
# Elastic Compliance Matrix: (Units=1/GPa)
#
#
# Indices 1 2 3 4 5 6 
#
# 1 0.010840 -0.002586 -0.010925 -0.000026 -0.006059 0.000005
# 2 -0.002586 0.000765 0.025429 0.000096 -0.013610 0.000011
# 3 -0.010925 0.025429 -0.030784 -0.000175 0.055696 -0.000041
# 4 -0.000026 0.000096 -0.000175 0.050076 0.000150 0.002976
# 5 -0.006059 -0.013610 0.055696 0.000150 0.011774 0.000009
# 6 0.000005 0.000011 -0.000041 0.002976 0.000009 0.035513
#
#
# Mechanical properties :
#
#
# Convention : Reuss Voigt Hill
#
# Bulk Modulus (GPa) = 214.76934 48.59101 131.68018
# Shear Modulus (GPa) = 89.44739 22.54379 55.99559
#
# Velocity S-wave (km/s) = 6.59238 3.30957 5.21597
# Velocity P-wave (km/s) = 12.73951 6.18167 10.01270
#
# Compressibility (1/GPa) = 0.00465616
#
# Stress axis : x y z
#
# Youngs Moduli (GPa) = 92.25315 1308.01356 -32.48432
#
# Poissons Ratio (x) = 3.38240 -0.35489
# Poissons Ratio (y) = 0.23856 0.82604
# Poissons Ratio (z) = 1.00786 -33.26129
#
# Static dielectric constant tensor:
#      x y z
#    x 1.818610 -0.000010 0.036610 
#    y -0.000010 1.799260 0.000050 
#    z 0.036610 0.000050 1.782300 
# 
# From -- ./inp_files/280476.got.cif
#   From: 2010.05.17/outbox.ucp.g08.bks.cvg/sg15_141_cif.got.tgz:280476.got - 2010.06.11 12:40:34.
