data_PCOD9308601
_publ_section_title
;
Structure prediction by ZEFSAII (Michael W. Deem and Ramdas Pophale) SiO2 
 PCOD9308601
Probable space group: C 2/C
;
_chemical_formula_sum "Si O2"
_cell_formula_units_Z 24
_cell_length_a 15.000000
_cell_length_b 27.000000
_cell_length_c 15.000000
_cell_angle_alpha 90.000000
_cell_angle_beta 150.000000
_cell_angle_gamma 90.000000
_cell_volume 3037.500000
_symmetry_space_group_name_H-M "C 2/C"
_symmetry_group_IT_number 15
_symmetry_cell_setting 'monoclinic'
loop_
_space_group_symop_operation_xyz
x,y,z
-x,y,1/2-z
-x,-y,-z
x,-y,1/2+z
1/2+x,1/2+y,z
1/2-x,1/2+y,1/2-z
1/2-x,1/2-y,-z
1/2+x,1/2-y,1/2+z
loop_
_atom_site_type_symbol
_atom_site_label
_atom_site_fract_x
_atom_site_fract_y
_atom_site_fract_z
Si Si1 0.038222 0.953003 0.389617
Si Si2 0.667481 0.650967 0.959864
Si Si3 0.360179 0.170448 0.957446
Si Si4 0.860306 0.564621 0.890264
Si Si5 0.093081 0.496732 0.732886
Si Si6 0.868564 0.264874 0.722862
O O1 0.125425 0.898289 0.477066
O O2 0.196765 0.987007 0.564788
O O3 0.000000 0.960134 0.250000
O O4 0.842318 0.953806 0.264099
O O5 0.500000 0.655087 0.750000
O O6 0.828221 0.646144 0.028131
O O7 0.708115 0.699891 0.050307
O O8 0.359484 0.124214 0.892137
O O9 0.208034 0.212182 0.814336
O O10 0.535829 0.203340 0.118546
O O11 0.918635 0.543273 0.845037
O O12 0.991358 0.544630 0.083075
O O13 0.000000 0.500393 0.750000
O O14 0.000000 0.261556 0.750000
#
# Coordination Sequence:
#
# PCOD9308601 Si02
#       6
#     8   8   8   8   8   8
#     4  11  19  33  57  76 107 142 171 211 255 309
#     4  10  16  27  44  66  99 134 164 191 241 304
#     4  11  18  30  42  70  98 133 165 205 243 306
#     4  11  23  35  56  78 105 139 178 209 263 309
#     4  11  22  39  54  78 104 136 177 223 259 306
#     4  10  20  26  43  65 102 137 165 197 245 303
#
# _framework density 7.9012349999999998
#
# number of rings (size 3 to 8) (size 9 to 14) (size 15 to 20)
#    0.000    1.333    5.000    5.000    0.000    1.333 
#    0.000    0.000    0.000    0.000    0.000    1.167 
#    0.000    0.000    0.000    0.000    0.000    0.000 
#
# Total GULP energy -133642.943959 kJ/mol
# GULP energy per Si atom -5568.455998 kJ/mol
# Density = 0.788325 g / cm^3
# Si number density = 7.901235 Si / 1000 Ang^3
#
#
#
# Elastic Constant Matrix: (Units=GPa)
#
#
# Indices 1 2 3 4 5 6 
#
# 1 47.2694 27.2478 22.6930 0.0000 -13.9067 0.0000
# 2 27.2478 97.4463 37.7705 0.0000 -10.3437 0.0000
# 3 22.6930 37.7705 98.7987 0.0000 -0.1681 0.0000
# 4 0.0000 0.0000 0.0000 15.6119 0.0000 0.1413
# 5 -13.9067 -10.3437 -0.1681 0.0000 16.0898 0.0000
# 6 0.0000 0.0000 0.0000 0.1413 0.0000 25.9839
#
#
#
# Elastic Compliance Matrix: (Units=1/GPa)
#
#
# Indices 1 2 3 4 5 6 
#
# 1 0.034638 -0.004401 -0.006228 0.000000 0.027044 0.000000
# 2 -0.004401 0.013641 -0.004196 0.000000 0.004922 0.000000
# 3 -0.006228 -0.004196 0.013143 0.000000 -0.007943 0.000000
# 4 0.000000 0.000000 0.000000 0.064057 0.000000 -0.000348
# 5 0.027044 0.004922 -0.007943 0.000000 0.088607 0.000000
# 6 0.000000 0.000000 0.000000 -0.000348 0.000000 0.038487
#
#
# Mechanical properties :
#
#
# Convention : Reuss Voigt Hill
#
# Bulk Modulus (GPa) = 31.47274 46.54857 39.01065
# Shear Modulus (GPa) = 17.07571 21.92401 19.49986
#
# Velocity S-wave (km/s) = 3.29077 3.72879 3.51661
# Velocity P-wave (km/s) = 5.86502 6.93246 6.42096
#
# Compressibility (1/GPa) = 0.03177352
#
# Stress axis : x y z
#
# Youngs Moduli (GPa) = 28.86968 73.30595 76.08887
#
# Poissons Ratio (x) = 0.32262 0.47385
# Poissons Ratio (y) = 0.12706 0.31926
# Poissons Ratio (z) = 0.17979 0.30758
#
# Static dielectric constant tensor:
#      x y z
#    x 1.528420 0.000000 0.043260 
#    y 0.000000 1.585620 0.000000 
#    z 0.043260 0.000000 1.615820 
# 
# From -- ./inp_files/149218.got.cif
#   From: 2010.05.17/outbox.ucp.g08.bks.cvg/sg15_75_cif.got.tgz:149218.got - 2010.06.11 12:40:34.
