data_PCOD9308152
_publ_section_title
;
Structure prediction by ZEFSAII (Michael W. Deem and Ramdas Pophale) SiO2 
 PCOD9308152
Probable space group: C 2/C
;
_chemical_formula_sum "Si O2"
_cell_formula_units_Z 40
_cell_length_a 15.897887
_cell_length_b 11.561625
_cell_length_c 8.996466
_cell_angle_alpha 90.000000
_cell_angle_beta 73.498239
_cell_angle_gamma 90.000000
_cell_volume 1585.489017
_symmetry_space_group_name_H-M "C 2/C"
_symmetry_group_IT_number 15
_symmetry_cell_setting 'monoclinic'
loop_
_space_group_symop_operation_xyz
x,y,z
-x,y,1/2-z
-x,-y,-z
x,-y,1/2+z
1/2+x,1/2+y,z
1/2-x,1/2+y,1/2-z
1/2-x,1/2-y,-z
1/2+x,1/2-y,1/2+z
loop_
_atom_site_type_symbol
_atom_site_label
_atom_site_fract_x
_atom_site_fract_y
_atom_site_fract_z
Si Si1 0.481419 0.877682 0.587129
Si Si2 0.599072 0.460184 0.921303
Si Si3 0.711687 0.587864 0.645770
Si Si4 0.630286 0.775011 0.322726
Si Si5 0.684511 0.143596 0.498360
O O1 0.500000 0.883112 0.750000
O O2 0.550639 0.796652 0.472053
O O3 0.383947 0.835353 0.599068
O O4 0.500000 0.000000 0.500000
O O5 0.659788 0.561017 0.824096
O O6 0.614972 0.358983 0.790656
O O7 0.500000 0.500000 0.000000
O O8 0.641005 0.407509 0.049774
O O9 0.778324 0.692732 0.642853
O O10 0.771392 0.477869 0.565794
O O11 0.628849 0.857868 0.179672
O O12 0.750000 0.250000 0.500000
#
# Coordination Sequence:
#
# PCOD9308152 Si02
#       5
#     8   8   8   8   8
#     4  12  28  47  77 117 161 206 271 342 417 490
#     4  12  29  49  77 115 161 215 271 341 418 502
#     4  12  26  49  77 113 160 209 277 330 412 498
#     4  12  27  48  80 115 159 211 274 338 415 487
#     4  12  26  47  82 115 157 214 267 334 412 489
#
# _framework density 25.228808999999998
#
# number of rings (size 3 to 8) (size 9 to 14) (size 15 to 20)
#    0.000    0.000    6.000    3.000    5.600    4.800 
#    0.000    0.000    0.000    0.000    0.000    0.000 
#    0.000    0.000    0.000    0.000    0.000    0.000 
#
# Total GULP energy -112073.721589 kJ/mol
# GULP energy per Si atom -5603.686079 kJ/mol
# Density = 2.517139 g / cm^3
# Si number density = 25.228809 Si / 1000 Ang^3
#
#
#
# Elastic Constant Matrix: (Units=GPa)
#
#
# Indices 1 2 3 4 5 6 
#
# 1 178.1541 62.0698 34.7193 0.0000 12.1787 0.0000
# 2 62.0698 113.6561 10.8937 0.0000 -18.9104 0.0000
# 3 34.7193 10.8937 103.8415 0.0000 17.1140 0.0000
# 4 0.0000 0.0000 0.0000 33.1051 0.0000 -9.9407
# 5 12.1787 -18.9104 17.1140 0.0000 50.7535 0.0000
# 6 0.0000 0.0000 0.0000 -9.9407 0.0000 51.3172
#
#
#
# Elastic Compliance Matrix: (Units=1/GPa)
#
#
# Indices 1 2 3 4 5 6 
#
# 1 0.007722 -0.004565 -0.001607 0.000000 -0.003012 0.000000
# 2 -0.004565 0.012353 -0.000751 0.000000 0.005951 0.000000
# 3 -0.001607 -0.000751 0.010830 0.000000 -0.003546 0.000000
# 4 0.000000 0.000000 0.000000 0.032072 0.000000 0.006213
# 5 -0.003012 0.005951 -0.003546 0.000000 0.023839 0.000000
# 6 0.000000 0.000000 0.000000 0.006213 0.000000 0.020690
#
#
# Mechanical properties :
#
#
# Convention : Reuss Voigt Hill
#
# Bulk Modulus (GPa) = 58.60802 67.89080 63.24941
# Shear Modulus (GPa) = 39.35800 46.23309 42.79555
#
# Velocity S-wave (km/s) = 3.95402 4.28548 4.12308
# Velocity P-wave (km/s) = 6.64280 7.17325 6.91311
#
# Compressibility (1/GPa) = 0.01706251
#
# Stress axis : x y z
#
# Youngs Moduli (GPa) = 129.49266 80.94957 92.33222
#
# Poissons Ratio (x) = 0.36950 0.14835
# Poissons Ratio (y) = 0.59107 0.06931
# Poissons Ratio (z) = 0.20806 0.06076
#
# Static dielectric constant tensor:
#      x y z
#    x 2.053420 0.000000 -0.016350 
#    y 0.000000 2.067130 0.000000 
#    z -0.016350 0.000000 2.051400 
# 
# From -- ./inp_files/46064.got.cif
#   From: 2010.05.17/outbox.cif.g08.bks.cpg/sg15_24_cif.got.tgz:46064.got - 2010.06.03 18:47:42.
