data_PCOD9308583
_publ_section_title
;
Structure prediction by ZEFSAII (Michael W. Deem and Ramdas Pophale) SiO2 
 PCOD9308583
Probable space group: C 2/C
;
_chemical_formula_sum "Si O2"
_cell_formula_units_Z 48
_cell_length_a 26.536305
_cell_length_b 15.632902
_cell_length_c 9.239809
_cell_angle_alpha 90.000000
_cell_angle_beta 145.680372
_cell_angle_gamma 90.000000
_cell_volume 2161.101004
_symmetry_space_group_name_H-M "C 2/C"
_symmetry_group_IT_number 15
_symmetry_cell_setting 'monoclinic'
loop_
_space_group_symop_operation_xyz
x,y,z
-x,y,1/2-z
-x,-y,-z
x,-y,1/2+z
1/2+x,1/2+y,z
1/2-x,1/2+y,1/2-z
1/2-x,1/2-y,-z
1/2+x,1/2-y,1/2+z
loop_
_atom_site_type_symbol
_atom_site_label
_atom_site_fract_x
_atom_site_fract_y
_atom_site_fract_z
Si Si1 0.402114 0.903456 0.332523
Si Si2 0.377887 0.480196 0.073482
Si Si3 0.067613 0.900432 0.580020
Si Si4 0.277893 0.858711 0.760050
Si Si5 0.434141 0.102584 0.455254
Si Si6 0.169900 0.255586 0.194187
O O1 0.501674 0.872821 0.524438
O O2 0.366310 0.851044 0.384156
O O3 0.405600 0.004222 0.364997
O O4 0.338042 0.881278 0.044511
O O5 0.462981 0.422732 0.327810
O O6 0.394612 0.574776 0.173741
O O7 0.385182 0.467850 0.918625
O O8 0.286889 0.439676 0.913764
O O9 0.095588 0.809403 0.582997
O O10 0.212280 0.781662 0.649133
O O11 0.346253 0.845600 0.791334
O O12 0.500000 0.104715 0.750000
O O13 0.250000 0.250000 0.500000
#
# Coordination Sequence:
#
# PCOD9308583 Si02
#       6
#     8   8   8   8   8   8
#     4   9  18  34  54  80 110 142 188 225 288 340
#     4   9  18  31  55  77 109 147 186 232 272 331
#     4   9  18  34  52  81 109 146 188 229 281 334
#     4   9  18  30  54  79 106 144 180 236 272 333
#     4   9  18  33  54  80 105 144 185 232 281 335
#     4   9  18  32  54  80 104 144 181 229 281 336
#
# _framework density 22.210901
#
# number of rings (size 3 to 8) (size 9 to 14) (size 15 to 20)
#    0.000    3.000    0.000    0.000    7.000    0.000 
#    6.000    0.000   36.667    1.000    0.000    0.000 
#    0.000    0.000    0.000    0.000    0.000    0.000 
#
# Total GULP energy -133831.102768 kJ/mol
# GULP energy per Si atom -5576.295949 kJ/mol
# Density = 2.216035 g / cm^3
# Si number density = 22.210901 Si / 1000 Ang^3
#
#
#
# Elastic Constant Matrix: (Units=GPa)
#
#
# Indices 1 2 3 4 5 6 
#
# 1 51.7963 21.3570 25.0511 0.0000 31.5358 0.0000
# 2 21.3570 45.9997 14.4047 0.0000 15.0588 0.0000
# 3 25.0511 14.4047 65.6949 0.0000 22.4816 0.0000
# 4 0.0000 0.0000 0.0000 23.8504 0.0000 3.4347
# 5 31.5358 15.0588 22.4816 0.0000 39.0127 0.0000
# 6 0.0000 0.0000 0.0000 3.4347 0.0000 17.6830
#
#
#
# Elastic Compliance Matrix: (Units=1/GPa)
#
#
# Indices 1 2 3 4 5 6 
#
# 1 0.042358 -0.009033 -0.004543 0.000000 -0.028135 0.000000
# 2 -0.009033 0.027201 -0.001776 0.000000 -0.002174 0.000000
# 3 -0.004543 -0.001776 0.019746 0.000000 -0.007021 0.000000
# 4 0.000000 0.000000 0.000000 0.043135 0.000000 -0.008378
# 5 -0.028135 -0.002174 -0.007021 0.000000 0.053261 0.000000
# 6 0.000000 0.000000 0.000000 -0.008378 0.000000 0.058179
#
#
# Mechanical properties :
#
#
# Convention : Reuss Voigt Hill
#
# Bulk Modulus (GPa) = 17.06433 31.67962 24.37197
# Shear Modulus (GPa) = 16.99993 22.95443 19.97718
#
# Velocity S-wave (km/s) = 2.76956 3.21826 3.00231
# Velocity P-wave (km/s) = 4.23401 5.30129 4.79742
#
# Compressibility (1/GPa) = 0.05860177
#
# Stress axis : x y z
#
# Youngs Moduli (GPa) = 23.60807 36.76325 50.64197
#
# Poissons Ratio (x) = 0.33209 0.23008
# Poissons Ratio (y) = 0.21325 0.08992
# Poissons Ratio (z) = 0.10726 0.06528
#
# Static dielectric constant tensor:
#      x y z
#    x 1.861720 0.000000 0.001840 
#    y 0.000000 1.810730 0.000000 
#    z 0.001840 0.000000 1.835000 
# 
# From -- ./inp_files/127117.got.cif
#   From: 2010.05.17/outbox.cif.g08.bks.cpg/sg15_64_cif.got.tgz:127117.got - 2010.06.03 18:47:42.
