data_PCOD9308885
_publ_section_title
;
Structure prediction by ZEFSAII (Michael W. Deem and Ramdas Pophale) SiO2 
 PCOD9308885
Probable space group: C 2/C
;
_chemical_formula_sum "Si O2"
_cell_formula_units_Z 32
_cell_length_a 18.000000
_cell_length_b 24.000000
_cell_length_c 15.000000
_cell_angle_alpha 90.000000
_cell_angle_beta 30.000000
_cell_angle_gamma 90.000000
_cell_volume 3240.000000
_symmetry_space_group_name_H-M "C 2/C"
_symmetry_group_IT_number 15
_symmetry_cell_setting 'monoclinic'
loop_
_space_group_symop_operation_xyz
x,y,z
-x,y,1/2-z
-x,-y,-z
x,-y,1/2+z
1/2+x,1/2+y,z
1/2-x,1/2+y,1/2-z
1/2-x,1/2-y,-z
1/2+x,1/2-y,1/2+z
loop_
_atom_site_type_symbol
_atom_site_label
_atom_site_fract_x
_atom_site_fract_y
_atom_site_fract_z
Si Si1 0.712960 0.698043 0.100591
Si Si2 0.364202 0.426388 0.648934
Si Si3 0.428827 0.134069 0.995607
Si Si4 0.870044 0.777070 0.440681
Si Si5 0.551612 0.317779 0.495341
Si Si6 0.413872 0.211746 0.163088
Si Si7 0.758666 0.386991 0.402289
Si Si8 0.442805 0.506024 0.409135
O O1 0.561610 0.705906 0.312128
O O2 0.750000 0.750000 0.000000
O O3 0.844532 0.684169 0.031928
O O4 0.707716 0.642142 0.046711
O O5 0.460207 0.369382 0.548401
O O6 0.381769 0.456838 0.535791
O O7 0.432235 0.464502 0.657901
O O8 0.196620 0.410900 0.850049
O O9 0.565339 0.112554 0.795514
O O10 0.477903 0.162634 0.036372
O O11 0.750000 0.750000 0.500000
O O12 0.753366 0.804434 0.631235
O O13 0.000000 0.809193 0.250000
O O14 0.966032 0.728542 0.387561
O O15 0.596601 0.269745 0.380834
O O16 0.691301 0.345516 0.398115
O O17 0.683349 0.446771 0.471902
O O18 0.500000 0.491204 0.250000
#
# Coordination Sequence:
#
# PCOD9308885 Si02
#       8
#     8   8   8   8   8   8   8   8
#     4  11  21  34  51  82 124 162 195 226 272 350
#     4   9  21  39  59  84 114 147 197 249 289 350
#     4  11  22  34  53  86 120 152 186 232 288 347
#     4   9  19  33  50  71  95 137 191 235 272 319
#     4  10  20  35  54  79 113 154 191 227 277 343
#     4  11  19  34  54  77 112 149 184 217 277 350
#     4  11  21  33  54  82 114 150 187 231 286 345
#     4  10  20  40  64  82 106 149 199 248 301 351
#
# _framework density 9.8765429999999999
#
# number of rings (size 3 to 8) (size 9 to 14) (size 15 to 20)
#    0.000    1.750    0.000    6.750    0.000    1.500 
#    0.000    6.250    0.000    1.500    0.000    0.000 
#    0.000    0.000    0.000    0.000    0.000    0.000 
#
# Total GULP energy -178633.799571 kJ/mol
# GULP energy per Si atom -5582.306237 kJ/mol
# Density = 0.985406 g / cm^3
# Si number density = 9.876543 Si / 1000 Ang^3
#
#
#
# Elastic Constant Matrix: (Units=GPa)
#
#
# Indices 1 2 3 4 5 6 
#
# 1 90.4510 24.5253 34.7007 0.0174 5.6877 -0.0002
# 2 24.5253 59.6991 26.6527 0.0209 11.5064 -0.0011
# 3 34.7007 26.6527 139.2913 0.0214 2.7611 -0.0022
# 4 0.0174 0.0209 0.0214 30.1114 -0.0130 6.3244
# 5 5.6877 11.5064 2.7611 -0.0130 34.9711 -0.0018
# 6 -0.0002 -0.0011 -0.0022 6.3244 -0.0018 24.9287
#
#
#
# Elastic Compliance Matrix: (Units=1/GPa)
#
#
# Indices 1 2 3 4 5 6 
#
# 1 0.013177 -0.004203 -0.002467 -0.000003 -0.000566 0.000000
# 2 -0.004203 0.020892 -0.002832 -0.000013 -0.005967 0.000004
# 3 -0.002467 -0.002832 0.008322 -0.000003 0.000676 0.000001
# 4 -0.000003 -0.000013 -0.000003 0.035079 0.000018 -0.008900
# 5 -0.000566 -0.005967 0.000676 0.000018 0.030597 -0.000002
# 6 0.000000 0.000004 0.000001 -0.008900 -0.000002 0.042372
#
#
# Mechanical properties :
#
#
# Convention : Reuss Voigt Hill
#
# Bulk Modulus (GPa) = 42.75957 51.24433 47.00195
# Shear Modulus (GPa) = 28.21021 31.57307 29.89164
#
# Velocity S-wave (km/s) = 3.78318 4.00232 3.89429
# Velocity P-wave (km/s) = 6.38571 6.88163 6.63830
#
# Compressibility (1/GPa) = 0.02338658
#
# Stress axis : x y z
#
# Youngs Moduli (GPa) = 75.88715 47.86567 120.15742
#
# Poissons Ratio (x) = 0.20118 0.29648
# Poissons Ratio (y) = 0.31895 0.34031
# Poissons Ratio (z) = 0.18724 0.13557
#
# Static dielectric constant tensor:
#      x y z
#    x 1.825580 -0.000020 0.058300 
#    y -0.000020 1.679680 0.000000 
#    z 0.058300 0.000000 1.722570 
# 
# From -- ./inp_files/164206.got.cif
#   From: 2010.05.17/outbox.ucp.g08.bks.cvg/sg15_83_cif.got.tgz:164206.got - 2010.06.11 12:40:34.
