data_PCOD9308733
_publ_section_title
;
Structure prediction by ZEFSAII (Michael W. Deem and Ramdas Pophale) SiO2 
 PCOD9308733
Probable space group: C 2/C
;
_chemical_formula_sum "Si O2"
_cell_formula_units_Z 32
_cell_length_a 9.000000
_cell_length_b 30.000000
_cell_length_c 15.000000
_cell_angle_alpha 90.000000
_cell_angle_beta 130.000000
_cell_angle_gamma 90.000000
_cell_volume 3102.479995
_symmetry_space_group_name_H-M "C 2/C"
_symmetry_group_IT_number 15
_symmetry_cell_setting 'monoclinic'
loop_
_space_group_symop_operation_xyz
x,y,z
-x,y,1/2-z
-x,-y,-z
x,-y,1/2+z
1/2+x,1/2+y,z
1/2-x,1/2+y,1/2-z
1/2-x,1/2-y,-z
1/2+x,1/2-y,1/2+z
loop_
_atom_site_type_symbol
_atom_site_label
_atom_site_fract_x
_atom_site_fract_y
_atom_site_fract_z
Si Si1 0.561283 0.037571 0.877215
Si Si2 0.539924 0.328702 0.549916
Si Si3 0.454156 0.574642 0.966972
Si Si4 0.390521 0.942519 0.614062
Si Si5 0.731985 0.884175 0.216148
Si Si6 0.627038 0.790654 0.708943
Si Si7 0.713416 0.206179 0.817255
Si Si8 0.172810 0.348563 0.000199
O O1 0.500000 0.034141 0.750000
O O2 0.786335 0.049408 0.954611
O O3 0.436681 0.079057 0.864947
O O4 0.532067 0.987608 0.902629
O O5 0.485304 0.380159 0.534348
O O6 0.672144 0.313303 0.682322
O O7 0.345570 0.301091 0.455540
O O8 0.665572 0.328805 0.505434
O O9 0.386366 0.588944 0.839302
O O10 0.660643 0.550900 0.041889
O O11 0.500000 0.936369 0.750000
O O12 0.400205 0.896064 0.566010
O O13 0.682988 0.842250 0.260470
O O14 0.761961 0.860440 0.131395
O O15 0.500000 0.793466 0.750000
O O16 0.670675 0.740059 0.700402
O O17 0.508992 0.815027 0.583620
O O18 0.500000 0.225111 0.750000
#
# Coordination Sequence:
#
# PCOD9308733 Si02
#       8
#     8   8   8   8   8   8   8   8
#     4   9  18  34  56  85 114 154 196 242 296 354
#     4   9  20  37  59  81 114 152 194 241 291 354
#     4   9  17  34  57  82 111 152 196 237 293 348
#     4  10  19  33  59  84 114 153 202 241 286 351
#     4  10  21  36  58  85 120 151 191 249 301 353
#     4  10  23  40  61  85 117 153 201 247 299 359
#     4  11  24  39  60  87 116 156 199 247 298 353
#     4  10  21  37  59  88 116 154 192 246 304 345
#
# _framework density 10.314329000000001
#
# number of rings (size 3 to 8) (size 9 to 14) (size 15 to 20)
#    0.000    2.250    0.000    4.125    3.500    6.000 
#    2.250    0.000    0.000    3.000    0.000    0.000 
#    0.000    0.000    0.000    0.000    0.000    0.000 
#
# Total GULP energy -178335.145235 kJ/mol
# GULP energy per Si atom -5572.973289 kJ/mol
# Density = 1.029085 g / cm^3
# Si number density = 10.314329 Si / 1000 Ang^3
#
#
#
# Elastic Constant Matrix: (Units=GPa)
#
#
# Indices 1 2 3 4 5 6 
#
# 1 20.5270 8.7346 16.7993 0.0000 14.6964 0.0000
# 2 8.7346 87.3095 18.4568 0.0000 21.1630 0.0000
# 3 16.7993 18.4568 87.9820 0.0000 20.4083 0.0000
# 4 0.0000 0.0000 0.0000 -1.0129 0.0000 -14.0986
# 5 14.6964 21.1630 20.4083 0.0000 25.1630 0.0000
# 6 0.0000 0.0000 0.0000 -14.0986 0.0000 10.1627
#
#
#
# Elastic Compliance Matrix: (Units=1/GPa)
#
#
# Indices 1 2 3 4 5 6 
#
# 1 0.087629 0.004683 -0.006071 0.000000 -0.050194 0.000000
# 2 0.004683 0.014641 -0.000585 0.000000 -0.014575 0.000000
# 3 -0.006071 -0.000585 0.014425 0.000000 -0.007661 0.000000
# 4 0.000000 0.000000 0.000000 -0.048610 0.000000 -0.067437
# 5 -0.050194 -0.014575 -0.007661 0.000000 0.087528 0.000000
# 6 0.000000 0.000000 0.000000 -0.067437 0.000000 0.004845
#
#
# Mechanical properties :
#
#
# Convention : Reuss Voigt Hill
#
# Bulk Modulus (GPa) = 8.86921 31.53333 20.20127
# Shear Modulus (GPa) = 24.75408 16.98441 20.86924
#
# Velocity S-wave (km/s) = 3.46784 2.87250 3.18412
# Velocity P-wave (km/s) = 4.51036 5.13041 4.83034
#
# Compressibility (1/GPa) = 0.11274962
#
# Stress axis : x y z
#
# Youngs Moduli (GPa) = 11.41180 68.29922 69.32371
#
# Poissons Ratio (x) = -0.31988 0.42088
# Poissons Ratio (y) = -0.05345 0.04055
# Poissons Ratio (z) = 0.06928 0.03995
#
# Static dielectric constant tensor:
#      x y z
#    x 1.790410 0.000000 0.031390 
#    y 0.000000 1.756120 0.000000 
#    z 0.031390 0.000000 1.747000 
# 
# From -- ./inp_files/139840.got.cif
#   From: 2010.05.17/outbox.ucp.g08.bks.cvg/sg15_70_cif.got.tgz:139840.got - 2010.06.11 12:40:34.
