data_PCOD9308091
_publ_section_title
;
Structure prediction by ZEFSAII (Michael W. Deem and Ramdas Pophale) SiO2 
 PCOD9308091
Probable space group: C 2/C
;
_chemical_formula_sum "Si O2"
_cell_formula_units_Z 44
_cell_length_a 25.908224
_cell_length_b 10.742660
_cell_length_c 16.609155
_cell_angle_alpha 90.000000
_cell_angle_beta 156.922953
_cell_angle_gamma 90.000000
_cell_volume 1811.958678
_symmetry_space_group_name_H-M "C 2/C"
_symmetry_group_IT_number 15
_symmetry_cell_setting 'monoclinic'
loop_
_space_group_symop_operation_xyz
x,y,z
-x,y,1/2-z
-x,-y,-z
x,-y,1/2+z
1/2+x,1/2+y,z
1/2-x,1/2+y,1/2-z
1/2-x,1/2-y,-z
1/2+x,1/2-y,1/2+z
loop_
_atom_site_type_symbol
_atom_site_label
_atom_site_fract_x
_atom_site_fract_y
_atom_site_fract_z
Si Si1 0.686908 0.228675 0.145451
Si Si2 0.520005 0.273243 0.374421
Si Si3 0.508284 0.003045 0.606399
Si Si4 0.279051 0.603197 0.048108
Si Si5 0.000000 0.141843 0.250000
Si Si6 0.127074 0.079117 0.703963
O O1 0.838988 0.191084 0.381636
O O2 0.663169 0.330095 0.182788
O O3 0.594770 0.108823 0.018803
O O4 0.622676 0.291182 0.972921
O O5 0.500000 0.300375 0.250000
O O6 0.406577 0.333677 0.267351
O O7 0.516034 0.124899 0.382539
O O8 0.657705 0.041381 0.831794
O O9 0.500000 0.000000 0.500000
O O10 0.250000 0.750000 0.000000
O O11 0.418825 0.577661 0.205356
O O12 0.276933 0.532309 0.130545
O O13 0.000000 0.000000 0.500000
#
# Coordination Sequence:
#
# PCOD9308091 Si02
#       6
#     8   8   8   8   4   8
#     4  12  28  48  79 116 156 207 264 320 396 469
#     4  12  31  50  78 119 156 212 261 325 400 473
#     4  12  26  49  77 107 159 202 252 321 388 467
#     4  12  27  50  78 111 154 202 260 318 394 459
#     4  12  26  44  82 120 144 208 264 322 380 472
#     4  12  27  50  75 110 156 203 255 331 388 460
#
# _framework density 24.283116
#
# number of rings (size 3 to 8) (size 9 to 14) (size 15 to 20)
#    0.000    0.000    5.455    2.182   10.182    1.455 
#    0.000    0.000    0.000    0.000    0.000    0.000 
#    0.000    0.000    0.000    0.000    0.000    0.000 
#
# Total GULP energy -122921.175370 kJ/mol
# GULP energy per Si atom -5587.326153 kJ/mol
# Density = 2.422785 g / cm^3
# Si number density = 24.283116 Si / 1000 Ang^3
#
#
#
# Elastic Constant Matrix: (Units=GPa)
#
#
# Indices 1 2 3 4 5 6 
#
# 1 122.1004 26.9278 21.2808 0.0000 -21.6412 0.0000
# 2 26.9278 84.1850 -15.2984 0.0000 -10.1218 0.0000
# 3 21.2808 -15.2984 137.1109 0.0000 -22.5556 0.0000
# 4 0.0000 0.0000 0.0000 47.3828 0.0000 4.9592
# 5 -21.6412 -10.1218 -22.5556 0.0000 56.5567 0.0000
# 6 0.0000 0.0000 0.0000 4.9592 0.0000 42.2803
#
#
#
# Elastic Compliance Matrix: (Units=1/GPa)
#
#
# Indices 1 2 3 4 5 6 
#
# 1 0.009549 -0.003000 -0.001396 0.000000 0.002560 0.000000
# 2 -0.003000 0.013528 0.002338 0.000000 0.002206 0.000000
# 3 -0.001396 0.002338 0.008296 0.000000 0.003193 0.000000
# 4 0.000000 0.000000 0.000000 0.021367 0.000000 -0.002506
# 5 0.002560 0.002206 0.003193 0.000000 0.020329 0.000000
# 6 0.000000 0.000000 0.000000 -0.002506 0.000000 0.023946
#
#
# Mechanical properties :
#
#
# Convention : Reuss Voigt Hill
#
# Bulk Modulus (GPa) = 36.68717 45.46853 41.07785
# Shear Modulus (GPa) = 45.36543 49.94304 47.65424
#
# Velocity S-wave (km/s) = 4.32694 4.54000 4.43475
# Velocity P-wave (km/s) = 6.33278 6.80053 6.57082
#
# Compressibility (1/GPa) = 0.02725749
#
# Stress axis : x y z
#
# Youngs Moduli (GPa) = 104.72714 73.91944 120.53867
#
# Poissons Ratio (x) = 0.22176 0.16822
# Poissons Ratio (y) = 0.31419 -0.28181
# Poissons Ratio (z) = 0.14616 -0.17282
#
# Static dielectric constant tensor:
#      x y z
#    x 1.921830 0.000000 -0.043640 
#    y 0.000000 2.208220 0.000000 
#    z -0.043640 0.000000 1.955920 
# 
# From -- ./inp_files/225231.got.cif
#   From: 2010.05.17/outbox.cif.g08.bks.cpg/sg15_113_cif.got.tgz:225231.got - 2010.06.03 18:47:42.
