data_PCOD9308586
_publ_section_title
;
Structure prediction by ZEFSAII (Michael W. Deem and Ramdas Pophale) SiO2 
 PCOD9308586
Probable space group: C 2/C
;
_chemical_formula_sum "Si O2"
_cell_formula_units_Z 48
_cell_length_a 21.979843
_cell_length_b 10.012908
_cell_length_c 10.259297
_cell_angle_alpha 90.000000
_cell_angle_beta 72.723419
_cell_angle_gamma 90.000000
_cell_volume 2156.017309
_symmetry_space_group_name_H-M "C 2/C"
_symmetry_group_IT_number 15
_symmetry_cell_setting 'monoclinic'
loop_
_space_group_symop_operation_xyz
x,y,z
-x,y,1/2-z
-x,-y,-z
x,-y,1/2+z
1/2+x,1/2+y,z
1/2-x,1/2+y,1/2-z
1/2-x,1/2-y,-z
1/2+x,1/2-y,1/2+z
loop_
_atom_site_type_symbol
_atom_site_label
_atom_site_fract_x
_atom_site_fract_y
_atom_site_fract_z
Si Si1 0.917455 0.873996 0.591567
Si Si2 0.405432 0.417727 0.308742
Si Si3 0.742449 0.447835 0.096923
Si Si4 0.065255 0.577991 0.929339
Si Si5 0.577774 0.883293 0.706888
Si Si6 0.737116 0.347927 0.816877
O O1 0.935683 0.910592 0.432443
O O2 0.946137 0.729597 0.605965
O O3 0.840139 0.859991 0.637860
O O4 0.934807 0.983944 0.685470
O O5 0.333349 0.465996 0.371711
O O6 0.403584 0.264641 0.262064
O O7 0.763059 0.574278 0.172463
O O8 0.750762 0.310258 0.173789
O O9 0.763079 0.416939 0.934336
O O10 0.098242 0.495139 0.795059
O O11 0.100720 0.589183 0.045150
O O12 0.000000 0.500000 0.000000
O O13 0.500000 0.883454 0.750000
#
# Coordination Sequence:
#
# PCOD9308586 Si02
#       6
#     8   8   8   8   8   8
#     4   9  18  33  51  71  97 127 161 198 237 283
#     4   9  18  33  50  70  97 126 159 198 239 282
#     4   9  18  32  49  70  98 128 159 198 238 281
#     4   9  18  33  50  69  95 125 157 196 239 284
#     4   9  18  33  49  69  95 124 158 197 239 285
#     4   9  18  32  49  71  98 128 160 197 239 281
#
# _framework density 22.263272000000001
#
# number of rings (size 3 to 8) (size 9 to 14) (size 15 to 20)
#    0.000    3.000    0.000    0.000    0.000    3.333 
#    0.000   10.000    0.000    0.000    0.000    0.000 
#    0.000    0.000    0.000    0.000    0.000    0.000 
#
# Total GULP energy -133936.141968 kJ/mol
# GULP energy per Si atom -5580.672582 kJ/mol
# Density = 2.221260 g / cm^3
# Si number density = 22.263272 Si / 1000 Ang^3
#
#
#
# Elastic Constant Matrix: (Units=GPa)
#
#
# Indices 1 2 3 4 5 6 
#
# 1 -6.2822 -38.2513 18.4302 0.0000 -72.0772 0.0000
# 2 -38.2513 130.4116 108.8224 0.0000 -3.0101 0.0000
# 3 18.4302 108.8224 53.1108 0.0000 66.1018 0.0000
# 4 0.0000 0.0000 0.0000 51.3896 0.0000 7.1705
# 5 -72.0772 -3.0101 66.1018 0.0000 -56.8164 0.0000
# 6 0.0000 0.0000 0.0000 7.1705 0.0000 20.7629
#
#
#
# Elastic Compliance Matrix: (Units=1/GPa)
#
#
# Indices 1 2 3 4 5 6 
#
# 1 0.022415 -0.009196 0.018729 0.000000 -0.006158 0.000000
# 2 -0.009196 0.025870 -0.025583 0.000000 -0.019469 0.000000
# 3 0.018729 -0.025583 0.037840 0.000000 0.021620 0.000000
# 4 0.000000 0.000000 0.000000 0.020444 0.000000 -0.007061
# 5 -0.006158 -0.019469 0.021620 0.000000 0.016397 0.000000
# 6 0.000000 0.000000 0.000000 -0.007061 0.000000 0.050601
#
#
# Mechanical properties :
#
#
# Convention : Reuss Voigt Hill
#
# Bulk Modulus (GPa) = 18.51057 39.47143 28.99100
# Shear Modulus (GPa) = 22.35373 8.94983 15.65178
#
# Velocity S-wave (km/s) = 3.17213 2.00717 2.65435
# Velocity P-wave (km/s) = 4.66358 4.81035 4.73754
#
# Compressibility (1/GPa) = 0.05402317
#
# Stress axis : x y z
#
# Youngs Moduli (GPa) = 44.61365 38.65549 26.42693
#
# Poissons Ratio (x) = 0.35547 -0.49494
# Poissons Ratio (y) = 0.41026 0.67609
# Poissons Ratio (z) = -0.83556 0.98894
#
# Static dielectric constant tensor:
#      x y z
#    x 1.865330 0.000000 -0.026440 
#    y 0.000000 1.778100 0.000000 
#    z -0.026440 0.000000 1.863430 
# 
# From -- ./inp_files/116440.got.cif
#   From: 2010.05.17/outbox.cif.g08.bks.cpg/sg15_59_cif.got.tgz:116440.got - 2010.06.03 18:47:42.
