data_PCOD9308882
_publ_section_title
;
Structure prediction by ZEFSAII (Michael W. Deem and Ramdas Pophale) SiO2 
 PCOD9308882
Probable space group: C 2/C
;
_chemical_formula_sum "Si O2"
_cell_formula_units_Z 24
_cell_length_a 12.000000
_cell_length_b 21.000000
_cell_length_c 15.000000
_cell_angle_alpha 90.000000
_cell_angle_beta 140.000000
_cell_angle_gamma 90.000000
_cell_volume 2429.737165
_symmetry_space_group_name_H-M "C 2/C"
_symmetry_group_IT_number 15
_symmetry_cell_setting 'monoclinic'
loop_
_space_group_symop_operation_xyz
x,y,z
-x,y,1/2-z
-x,-y,-z
x,-y,1/2+z
1/2+x,1/2+y,z
1/2-x,1/2+y,1/2-z
1/2-x,1/2-y,-z
1/2+x,1/2-y,1/2+z
loop_
_atom_site_type_symbol
_atom_site_label
_atom_site_fract_x
_atom_site_fract_y
_atom_site_fract_z
Si Si1 0.852539 0.794128 0.411974
Si Si2 0.278275 0.773330 0.366101
Si Si3 0.000000 0.231058 0.250000
Si Si4 0.769615 0.451876 0.893010
Si Si5 0.000000 0.665962 0.250000
Si Si6 0.535863 0.389166 0.894183
Si Si7 0.103065 0.404957 0.992845
O O1 0.796871 0.787506 0.276465
O O2 0.678707 0.771201 0.358942
O O3 0.907134 0.866075 0.473584
O O4 0.022112 0.749155 0.520718
O O5 0.162919 0.715561 0.337426
O O6 0.281525 0.842816 0.414006
O O7 0.010077 0.180409 0.175338
O O8 0.694796 0.416684 0.934366
O O9 0.623125 0.436410 0.726942
O O10 0.942996 0.417742 0.963061
O O11 0.799874 0.526196 0.938001
O O12 0.024859 0.618653 0.349791
#
# Coordination Sequence:
#
# PCOD9308882 Si02
#       7
#     8   8   4   8   4   8   8
#     4  12  23  39  67 102 138 165 219 268 353 391
#     4  12  25  43  66 102 133 176 218 287 328 399
#     4  10  20  34  64  98 134 172 202 278 342 406
#     4   9  22  44  67  87 135 172 225 266 331 386
#     4  12  26  44  70  94 140 172 238 268 340 386
#     4  10  20  39  64  97 128 171 209 277 329 404
#     4  11  23  45  66  93 128 186 217 279 322 401
#
# _framework density 9.8776119999999992
#
# number of rings (size 3 to 8) (size 9 to 14) (size 15 to 20)
#    0.000    1.333    3.333    4.000    2.333    1.333 
#    6.000    0.833    0.000    0.000    0.000    0.000 
#    0.000    0.000    0.000    0.000    0.000    0.000 
#
# Total GULP energy -133746.158567 kJ/mol
# GULP energy per Si atom -5572.756607 kJ/mol
# Density = 0.985513 g / cm^3
# Si number density = 9.877612 Si / 1000 Ang^3
#
#
#
# Elastic Constant Matrix: (Units=GPa)
#
#
# Indices 1 2 3 4 5 6 
#
# 1 41.7463 29.8984 25.3560 0.0000 10.4945 -0.0001
# 2 29.8984 141.8039 49.9869 0.0000 2.9044 0.0000
# 3 25.3560 49.9869 96.9362 0.0000 -1.0306 -0.0001
# 4 0.0000 0.0000 0.0000 45.8772 0.0000 7.6647
# 5 10.4945 2.9044 -1.0306 0.0000 35.2661 -0.0001
# 6 -0.0001 0.0000 -0.0001 7.6647 -0.0001 33.3929
#
#
#
# Elastic Compliance Matrix: (Units=1/GPa)
#
#
# Indices 1 2 3 4 5 6 
#
# 1 0.033696 -0.004594 -0.006550 0.000000 -0.009840 0.000000
# 2 -0.004594 0.009270 -0.003573 0.000000 0.000499 0.000000
# 3 -0.006550 -0.003573 0.013900 0.000000 0.002650 0.000000
# 4 0.000000 0.000000 0.000000 0.022667 0.000000 -0.005203
# 5 -0.009840 0.000499 0.002650 0.000000 0.031320 0.000000
# 6 0.000000 0.000000 0.000000 -0.005203 0.000000 0.031141
#
#
# Mechanical properties :
#
#
# Convention : Reuss Voigt Hill
#
# Bulk Modulus (GPa) = 36.45341 54.55211 45.50276
# Shear Modulus (GPa) = 27.68970 34.59025 31.13998
#
# Velocity S-wave (km/s) = 3.74791 4.18897 3.97456
# Velocity P-wave (km/s) = 6.10096 7.14637 6.64425
#
# Compressibility (1/GPa) = 0.02743228
#
# Stress axis : x y z
#
# Youngs Moduli (GPa) = 29.67668 107.87461 71.94234
#
# Poissons Ratio (x) = 0.49561 0.47119
# Poissons Ratio (y) = 0.13634 0.25706
# Poissons Ratio (z) = 0.19437 0.38546
#
# Static dielectric constant tensor:
#      x y z
#    x 1.743760 0.000000 -0.036550 
#    y 0.000000 1.667120 0.000000 
#    z -0.036550 0.000000 1.828360 
# 
# From -- ./inp_files/147494.got.cif
#   From: 2010.05.17/outbox.ucp.g08.bks.cvg/sg15_74_cif.got.tgz:147494.got - 2010.06.11 12:40:34.
