data_PCOD9308390
_publ_section_title
;
Structure prediction by ZEFSAII (Michael W. Deem and Ramdas Pophale) SiO2 
 PCOD9308390
Probable space group: C 2/C
;
_chemical_formula_sum "Si O2"
_cell_formula_units_Z 24
_cell_length_a 10.713518
_cell_length_b 8.770780
_cell_length_c 10.358064
_cell_angle_alpha 90.000000
_cell_angle_beta 53.684117
_cell_angle_gamma 90.000000
_cell_volume 784.254187
_symmetry_space_group_name_H-M "C 2/C"
_symmetry_group_IT_number 15
_symmetry_cell_setting 'monoclinic'
loop_
_space_group_symop_operation_xyz
x,y,z
-x,y,1/2-z
-x,-y,-z
x,-y,1/2+z
1/2+x,1/2+y,z
1/2-x,1/2+y,1/2-z
1/2-x,1/2-y,-z
1/2+x,1/2-y,1/2+z
loop_
_atom_site_type_symbol
_atom_site_label
_atom_site_fract_x
_atom_site_fract_y
_atom_site_fract_z
Si Si1 0.000000 0.323546 0.750000
Si Si2 0.765165 0.351993 0.234380
Si Si3 0.955515 0.133700 0.424358
Si Si4 0.500000 0.000000 0.500000
O O1 0.862973 0.215509 0.780513
O O2 0.064950 0.430588 0.598774
O O3 0.713005 0.336248 0.413241
O O4 0.814574 0.522711 0.169190
O O5 0.942874 0.287452 0.106955
O O6 0.000000 0.100625 0.250000
O O7 0.000000 0.000000 0.500000
#
# Coordination Sequence:
#
# PCOD9308390 Si02
#       4
#     4   8   8   4
#     4  12  28  54  84 128 172 228 276 356 424 512
#     4  12  28  54  87 123 171 220 288 346 431 502
#     4  12  30  53  84 123 170 223 284 352 424 511
#     4  12  28  48  90 124 170 220 288 346 430 504
#
# _framework density 30.602325
#
# number of rings (size 3 to 8) (size 9 to 14) (size 15 to 20)
#    0.000    0.000    3.333    4.000    4.667    8.000 
#    0.000    0.000    0.000    0.000    0.000    0.000 
#    0.000    0.000    0.000    0.000    0.000    0.000 
#
# Total GULP energy -66965.253890 kJ/mol
# GULP energy per Si atom -5580.437824 kJ/mol
# Density = 3.053267 g / cm^3
# Si number density = 30.602325 Si / 1000 Ang^3
#
#
#
# Elastic Constant Matrix: (Units=GPa)
#
#
# Indices 1 2 3 4 5 6 
#
# 1 164.5937 65.6996 111.2332 0.0000 15.8796 0.0000
# 2 65.6996 120.3934 44.8979 0.0000 11.2331 0.0000
# 3 111.2332 44.8979 352.2341 0.0000 32.7465 0.0000
# 4 0.0000 0.0000 0.0000 46.3433 0.0000 -17.8834
# 5 15.8796 11.2331 32.7465 0.0000 90.3672 0.0000
# 6 0.0000 0.0000 0.0000 -17.8834 0.0000 72.5512
#
#
#
# Elastic Compliance Matrix: (Units=1/GPa)
#
#
# Indices 1 2 3 4 5 6 
#
# 1 0.009411 -0.004213 -0.002411 0.000000 -0.000256 0.000000
# 2 -0.004213 0.010650 0.000028 0.000000 -0.000594 0.000000
# 3 -0.002411 0.000028 0.003682 0.000000 -0.000914 0.000000
# 4 0.000000 0.000000 0.000000 0.023846 0.000000 0.005878
# 5 -0.000256 -0.000594 -0.000914 0.000000 0.011516 0.000000
# 6 0.000000 0.000000 0.000000 0.005878 0.000000 0.015232
#
#
# Mechanical properties :
#
#
# Convention : Reuss Voigt Hill
#
# Bulk Modulus (GPa) = 94.77449 120.09807 107.43628
# Shear Modulus (GPa) = 54.91680 69.54504 62.23092
#
# Velocity S-wave (km/s) = 4.24079 4.77229 4.51437
# Velocity P-wave (km/s) = 7.41727 8.34843 7.89659
#
# Compressibility (1/GPa) = 0.01055136
#
# Stress axis : x y z
#
# Youngs Moduli (GPa) = 106.25419 93.89708 271.60094
#
# Poissons Ratio (x) = 0.39556 0.65490
# Poissons Ratio (y) = 0.44762 -0.00762
# Poissons Ratio (z) = 0.25620 -0.00263
#
# Static dielectric constant tensor:
#      x y z
#    x 2.457400 0.000000 -0.238330 
#    y 0.000000 -0.222300 0.000000 
#    z -0.238330 0.000000 1.659770 
# 
# From -- ./inp_files/83756.got.cif
#   From: 2010.05.17/outbox.cif.g08.bks.cpg/sg15_42_cif.got.tgz:83756.got - 2010.06.03 18:47:42.
