data_PCOD9308000
_publ_section_title
;
Structure prediction by ZEFSAII (Michael W. Deem and Ramdas Pophale) SiO2 
 PCOD9308000
Probable space group: C 2/C
;
_chemical_formula_sum "Si O2"
_cell_formula_units_Z 40
_cell_length_a 5.073813
_cell_length_b 22.663794
_cell_length_c 13.398818
_cell_angle_alpha 90.000000
_cell_angle_beta 73.453777
_cell_angle_gamma 90.000000
_cell_volume 1476.952699
_symmetry_space_group_name_H-M "C 2/C"
_symmetry_group_IT_number 15
_symmetry_cell_setting 'monoclinic'
loop_
_space_group_symop_operation_xyz
x,y,z
-x,y,1/2-z
-x,-y,-z
x,-y,1/2+z
1/2+x,1/2+y,z
1/2-x,1/2+y,1/2-z
1/2-x,1/2-y,-z
1/2+x,1/2-y,1/2+z
loop_
_atom_site_type_symbol
_atom_site_label
_atom_site_fract_x
_atom_site_fract_y
_atom_site_fract_z
Si Si1 0.777694 0.539123 0.079883
Si Si2 0.500000 0.541580 0.750000
Si Si3 0.000000 0.601116 0.250000
Si Si4 0.712672 0.162304 0.521404
Si Si5 0.000000 0.623995 0.750000
Si Si6 0.750000 0.250000 0.000000
Si Si7 0.349415 0.288366 0.666197
O O1 0.529012 0.499345 0.148222
O O2 0.916906 0.563323 0.165242
O O3 0.710086 0.596842 0.022766
O O4 0.000000 0.500000 0.000000
O O5 0.232310 0.582018 0.772694
O O6 0.242766 0.646907 0.200328
O O7 0.641990 0.159073 0.644485
O O8 0.449071 0.187646 0.492799
O O9 0.966396 0.205449 0.458934
O O10 0.857502 0.245671 0.866763
O O11 0.500000 0.270793 0.750000
#
# Coordination Sequence:
#
# PCOD9308000 Si02
#       7
#     8   4   4   8   4   4   8
#     4  12  25  47  80 117 162 219 271 343 423 517
#     4  12  28  52  77 127 169 225 276 354 438 514
#     4  12  25  50  77 120 164 215 280 353 424 522
#     4  12  28  52  77 119 163 220 279 349 427 516
#     4  12  31  52  82 125 175 224 282 357 438 522
#     4  12  28  52  78 116 164 216 286 358 428 504
#     4  12  25  51  83 117 158 218 284 353 429 515
#
# _framework density 27.082788999999998
#
# number of rings (size 3 to 8) (size 9 to 14) (size 15 to 20)
#    0.000    0.000    6.000    2.400    7.000    0.800 
#    3.600    0.000    0.000    0.000    0.000    0.000 
#    0.000    0.000    0.000    0.000    0.000    0.000 
#
# Total GULP energy -111855.830206 kJ/mol
# GULP energy per Si atom -5592.791510 kJ/mol
# Density = 2.702115 g / cm^3
# Si number density = 27.082789 Si / 1000 Ang^3
#
#
#
# Elastic Constant Matrix: (Units=GPa)
#
#
# Indices 1 2 3 4 5 6 
#
# 1 106.8602 41.4742 48.5510 0.0000 -4.7609 0.0000
# 2 41.4742 132.4283 66.8899 0.0000 -15.2706 0.0000
# 3 48.5510 66.8899 237.9210 0.0000 7.6193 0.0000
# 4 0.0000 0.0000 0.0000 -43.6941 0.0000 -33.5022
# 5 -4.7609 -15.2706 7.6193 0.0000 60.0528 0.0000
# 6 0.0000 0.0000 0.0000 -33.5022 0.0000 36.0381
#
#
#
# Elastic Compliance Matrix: (Units=1/GPa)
#
#
# Indices 1 2 3 4 5 6 
#
# 1 0.011103 -0.002658 -0.001531 0.000000 0.000399 0.000000
# 2 -0.002658 0.009848 -0.002309 0.000000 0.002587 0.000000
# 3 -0.001531 -0.002309 0.005209 0.000000 -0.001369 0.000000
# 4 0.000000 0.000000 0.000000 -0.013362 0.000000 -0.012422
# 5 0.000399 0.002587 -0.001369 0.000000 0.017515 0.000000
# 6 0.000000 0.000000 0.000000 -0.012422 0.000000 0.016201
#
#
# Mechanical properties :
#
#
# Convention : Reuss Voigt Hill
#
# Bulk Modulus (GPa) = 75.96895 87.89330 81.93113
# Shear Modulus (GPa) = 78.24936 31.83232 55.04084
#
# Velocity S-wave (km/s) = 5.38102 3.43209 4.51301
# Velocity P-wave (km/s) = 8.16815 6.94476 7.58117
#
# Compressibility (1/GPa) = 0.01316327
#
# Stress axis : x y z
#
# Youngs Moduli (GPa) = 90.06524 101.54006 191.98891
#
# Poissons Ratio (x) = 0.26988 0.29398
# Poissons Ratio (y) = 0.23938 0.44335
# Poissons Ratio (z) = 0.13791 0.23448
#
# Static dielectric constant tensor:
#      x y z
#    x 2.392220 0.000000 0.122720 
#    y 0.000000 2.162410 0.000000 
#    z 0.122720 0.000000 2.117150 
# 
# From -- ./inp_files/129100.got.cif
#   From: 2010.05.17/outbox.cif.g08.bks.cpg/sg15_65_cif.got.tgz:129100.got - 2010.06.03 18:47:42.
