data_PCOD9308534
_publ_section_title
;
Structure prediction by ZEFSAII (Michael W. Deem and Ramdas Pophale) SiO2 
 PCOD9308534
Probable space group: C 2/C
;
_chemical_formula_sum "Si O2"
_cell_formula_units_Z 40
_cell_length_a 13.299391
_cell_length_b 10.859439
_cell_length_c 13.203177
_cell_angle_alpha 90.000000
_cell_angle_beta 117.732246
_cell_angle_gamma 90.000000
_cell_volume 1687.817827
_symmetry_space_group_name_H-M "C 2/C"
_symmetry_group_IT_number 15
_symmetry_cell_setting 'monoclinic'
loop_
_space_group_symop_operation_xyz
x,y,z
-x,y,1/2-z
-x,-y,-z
x,-y,1/2+z
1/2+x,1/2+y,z
1/2-x,1/2+y,1/2-z
1/2-x,1/2-y,-z
1/2+x,1/2-y,1/2+z
loop_
_atom_site_type_symbol
_atom_site_label
_atom_site_fract_x
_atom_site_fract_y
_atom_site_fract_z
Si Si1 0.283358 0.421410 0.944187
Si Si2 0.411602 0.185329 0.010079
Si Si3 0.136094 0.441445 0.607969
Si Si4 0.880797 0.382352 0.140566
Si Si5 0.870541 0.906499 0.663731
O O1 0.175668 0.344587 0.939340
O O2 0.342903 0.496570 0.062840
O O3 0.377519 0.321074 0.955079
O O4 0.217887 0.533191 0.857015
O O5 0.387618 0.087569 0.908320
O O6 0.538947 0.148378 0.106268
O O7 0.124023 0.412340 0.481129
O O8 0.267025 0.418982 0.694704
O O9 0.862931 0.237151 0.134070
O O10 0.000000 0.411474 0.250000
O O11 0.000000 0.930716 0.750000
#
# Coordination Sequence:
#
# PCOD9308534 Si02
#       5
#     8   8   8   8   8
#     4   9  16  31  53  74  94 135 166 210 245 309
#     4   8  16  30  52  72 100 126 172 196 270 300
#     4   9  16  31  53  70 100 137 158 210 253 305
#     4   9  17  30  50  70  98 135 172 201 255 305
#     4   9  17  30  50  70  98 135 172 201 255 305
#
# _framework density 23.699238999999999
#
# number of rings (size 3 to 8) (size 9 to 14) (size 15 to 20)
#    0.000    3.600    0.000    2.400    0.000    0.000 
#    0.000   20.000   70.400    0.000    0.000    0.000 
#    0.000    0.000    0.000    0.000    0.000    0.000 
#
# Total GULP energy -111344.174563 kJ/mol
# GULP energy per Si atom -5567.208728 kJ/mol
# Density = 2.364530 g / cm^3
# Si number density = 23.699239 Si / 1000 Ang^3
#
#
#
# Elastic Constant Matrix: (Units=GPa)
#
#
# Indices 1 2 3 4 5 6 
#
# 1 82.8721 47.5049 50.8816 0.0000 37.6584 0.0000
# 2 47.5049 138.3435 53.6308 0.0000 30.3225 0.0000
# 3 50.8816 53.6308 76.6936 0.0000 38.3803 0.0000
# 4 0.0000 0.0000 0.0000 19.0404 0.0000 19.1560
# 5 37.6584 30.3225 38.3803 0.0000 56.5434 0.0000
# 6 0.0000 0.0000 0.0000 19.1560 0.0000 32.4887
#
#
#
# Elastic Compliance Matrix: (Units=1/GPa)
#
#
# Indices 1 2 3 4 5 6 
#
# 1 0.022741 -0.002440 -0.009777 0.000000 -0.007200 0.000000
# 2 -0.002440 0.010211 -0.005443 0.000000 -0.000156 0.000000
# 3 -0.009777 -0.005443 0.028187 0.000000 -0.009702 0.000000
# 4 0.000000 0.000000 0.000000 0.129104 0.000000 -0.076122
# 5 -0.007200 -0.000156 -0.009702 0.000000 0.029150 0.000000
# 6 0.000000 0.000000 0.000000 -0.076122 0.000000 0.075663
#
#
# Mechanical properties :
#
#
# Convention : Reuss Voigt Hill
#
# Bulk Modulus (GPa) = 38.73473 66.88263 52.80868
# Shear Modulus (GPa) = 14.75001 31.34062 23.04532
#
# Velocity S-wave (km/s) = 2.49747 3.64047 3.12173
# Velocity P-wave (km/s) = 4.96953 6.77889 5.94347
#
# Compressibility (1/GPa) = 0.02581662
#
# Stress axis : x y z
#
# Youngs Moduli (GPa) = 43.97432 97.93732 35.47711
#
# Poissons Ratio (x) = 0.23899 0.34687
# Poissons Ratio (y) = 0.10731 0.19311
# Poissons Ratio (z) = 0.42995 0.53310
#
# Static dielectric constant tensor:
#      x y z
#    x 2.056860 0.000000 -0.003120 
#    y 0.000000 1.947070 0.000000 
#    z -0.003120 0.000000 2.010330 
# 
# From -- ./inp_files/181361.got.cif
#   From: 2010.05.17/outbox.cif.g08.bks.cpg/sg15_91_cif.got.tgz:181361.got - 2010.06.03 18:47:42.
