data_PCOD9308372
_publ_section_title
;
Structure prediction by ZEFSAII (Michael W. Deem and Ramdas Pophale) SiO2 
 PCOD9308372
Probable space group: C 2/C
;
_chemical_formula_sum "Si O2"
_cell_formula_units_Z 40
_cell_length_a 25.913591
_cell_length_b 5.164470
_cell_length_c 22.248668
_cell_angle_alpha 90.000000
_cell_angle_beta 147.458808
_cell_angle_gamma 90.000000
_cell_volume 1601.635228
_symmetry_space_group_name_H-M "C 2/C"
_symmetry_group_IT_number 15
_symmetry_cell_setting 'monoclinic'
loop_
_space_group_symop_operation_xyz
x,y,z
-x,y,1/2-z
-x,-y,-z
x,-y,1/2+z
1/2+x,1/2+y,z
1/2-x,1/2+y,1/2-z
1/2-x,1/2-y,-z
1/2+x,1/2-y,1/2+z
loop_
_atom_site_type_symbol
_atom_site_label
_atom_site_fract_x
_atom_site_fract_y
_atom_site_fract_z
Si Si1 0.659971 0.639980 0.023324
Si Si2 0.264031 0.376878 0.223464
Si Si3 0.466977 0.522451 0.398455
Si Si4 0.608268 0.640672 0.838333
Si Si5 0.853962 0.359847 0.203481
O O1 0.690087 0.875143 0.095960
O O2 0.891207 0.599222 0.200389
O O3 0.556834 0.549777 0.945403
O O4 0.659252 0.692768 0.951981
O O5 0.253179 0.437167 0.381676
O O6 0.239456 0.136813 0.241703
O O7 0.371247 0.347945 0.303187
O O8 0.500000 0.500000 0.500000
O O9 0.424215 0.786256 0.327722
O O10 0.500000 0.570431 0.750000
O O11 0.648840 0.396722 0.841302
#
# Coordination Sequence:
#
# PCOD9308372 Si02
#       5
#     8   8   8   8   8
#     4  12  28  52  87 119 170 221 273 349 418 490
#     4  12  28  53  78 119 167 214 276 333 410 497
#     4  12  28  53  84 124 166 221 276 342 418 502
#     4  12  27  53  84 119 162 216 277 342 417 489
#     4  12  28  55  79 122 163 213 280 339 413 497
#
# _framework density 24.974477
#
# number of rings (size 3 to 8) (size 9 to 14) (size 15 to 20)
#    0.000    0.000    4.000    4.200    0.000    5.600 
#    0.000    0.000    0.000    0.000    0.000    0.000 
#    0.000    0.000    0.000    0.000    0.000    0.000 
#
# Total GULP energy -112133.216457 kJ/mol
# GULP energy per Si atom -5606.660823 kJ/mol
# Density = 2.491763 g / cm^3
# Si number density = 24.974477 Si / 1000 Ang^3
#
#
#
# Elastic Constant Matrix: (Units=GPa)
#
#
# Indices 1 2 3 4 5 6 
#
# 1 175.5280 50.1789 52.2288 0.0001 3.9650 0.0001
# 2 50.1789 103.7853 4.1594 0.0004 -5.5372 0.0021
# 3 52.2288 4.1594 117.0594 -0.0007 3.8195 -0.0005
# 4 0.0001 0.0004 -0.0007 45.2907 0.0002 4.0243
# 5 3.9650 -5.5372 3.8195 0.0002 75.7675 0.0005
# 6 0.0001 0.0021 -0.0005 4.0243 0.0005 38.9753
#
#
#
# Elastic Compliance Matrix: (Units=1/GPa)
#
#
# Indices 1 2 3 4 5 6 
#
# 1 0.007730 -0.003632 -0.003303 0.000000 -0.000503 0.000000
# 2 -0.003632 0.011395 0.001184 0.000000 0.000963 -0.000001
# 3 -0.003303 0.001184 0.009982 0.000000 -0.000244 0.000000
# 4 0.000000 0.000000 0.000000 0.022284 0.000000 -0.002301
# 5 -0.000503 0.000963 -0.000244 0.000000 0.013307 0.000000
# 6 0.000000 -0.000001 0.000000 -0.002301 0.000000 0.025895
#
#
# Mechanical properties :
#
#
# Convention : Reuss Voigt Hill
#
# Bulk Modulus (GPa) = 56.80120 67.72299 62.26209
# Shear Modulus (GPa) = 46.31204 51.32707 48.81956
#
# Velocity S-wave (km/s) = 4.31092 4.53833 4.42608
# Velocity P-wave (km/s) = 6.89723 7.39173 7.14876
#
# Compressibility (1/GPa) = 0.01760526
#
# Stress axis : x y z
#
# Youngs Moduli (GPa) = 129.37374 87.75742 100.17649
#
# Poissons Ratio (x) = 0.31870 0.33091
# Poissons Ratio (y) = 0.46984 -0.11861
# Poissons Ratio (z) = 0.42735 -0.10391
#
# Static dielectric constant tensor:
#      x y z
#    x 1.985850 0.000000 -0.040800 
#    y 0.000000 1.974480 0.000000 
#    z -0.040800 0.000000 2.009790 
# 
# From -- ./inp_files/251709.got.cif
#   From: 2010.05.17/outbox.cif.g08.bks.cpg/sg15_126_cif.got.tgz:251709.got - 2010.06.03 18:47:42.
