data_PCOD9308116
_publ_section_title
;
Structure prediction by ZEFSAII (Michael W. Deem and Ramdas Pophale) SiO2 
 PCOD9308116
Probable space group: C 2/C
;
_chemical_formula_sum "Si O2"
_cell_formula_units_Z 60
_cell_length_a 5.260469
_cell_length_b 17.713770
_cell_length_c 25.867385
_cell_angle_alpha 90.000000
_cell_angle_beta 84.743597
_cell_angle_gamma 90.000000
_cell_volume 2400.257319
_symmetry_space_group_name_H-M "C 2/C"
_symmetry_group_IT_number 15
_symmetry_cell_setting 'monoclinic'
loop_
_space_group_symop_operation_xyz
x,y,z
-x,y,1/2-z
-x,-y,-z
x,-y,1/2+z
1/2+x,1/2+y,z
1/2-x,1/2+y,1/2-z
1/2-x,1/2-y,-z
1/2+x,1/2-y,1/2+z
loop_
_atom_site_type_symbol
_atom_site_label
_atom_site_fract_x
_atom_site_fract_y
_atom_site_fract_z
Si Si1 0.284585 0.711808 0.785867
Si Si2 0.453479 0.364212 0.387801
Si Si3 0.110834 0.134083 0.080489
Si Si4 0.104627 0.281958 0.552187
Si Si5 0.976367 0.133276 0.190938
Si Si6 0.000000 0.417056 0.250000
Si Si7 0.169025 0.490265 0.446534
Si Si8 0.346616 0.002275 0.851019
O O1 0.500000 0.756279 0.750000
O O2 0.328300 0.667849 0.838068
O O3 0.091402 0.778472 0.802630
O O4 0.223982 0.644833 0.746246
O O5 0.528899 0.287662 0.415095
O O6 0.266649 0.406960 0.431257
O O7 0.656413 0.427761 0.367463
O O8 0.359224 0.166005 0.046251
O O9 0.094426 0.048761 0.059220
O O10 0.841974 0.177305 0.077609
O O11 0.181801 0.134633 0.140536
O O12 0.250000 0.250000 0.500000
O O13 0.785818 0.072430 0.168655
O O14 0.000000 0.107015 0.250000
O O15 0.984099 0.466969 0.199606
O O16 0.000000 0.500000 0.500000
O O17 0.002724 0.511460 0.399601
#
# Coordination Sequence:
#
# PCOD9308116 Si02
#       8
#     8   8   8   8   8   4   8   8
#     4  12  26  47  73 112 150 207 261 325 397 481
#     4  12  27  47  77 108 155 200 262 328 402 472
#     4  12  28  53  76 118 161 203 272 329 400 494
#     4  12  29  51  84 114 157 210 269 336 402 478
#     4  12  29  47  76 113 159 212 257 329 407 488
#     4  12  26  46  76 108 152 196 264 322 394 474
#     4  12  29  51  79 109 154 209 268 334 407 482
#     4  12  29  49  75 114 159 209 267 330 407 492
#
# _framework density 24.997316999999999
#
# number of rings (size 3 to 8) (size 9 to 14) (size 15 to 20)
#    0.000    0.000    6.000    2.000   12.133    0.533 
#    0.000    0.000    0.000    0.000    0.000    0.000 
#    0.000    0.000    0.000    0.000    0.000    0.000 
#
# Total GULP energy -167619.897142 kJ/mol
# GULP energy per Si atom -5587.329905 kJ/mol
# Density = 2.494042 g / cm^3
# Si number density = 24.997317 Si / 1000 Ang^3
#
#
#
# Elastic Constant Matrix: (Units=GPa)
#
#
# Indices 1 2 3 4 5 6 
#
# 1 57.3943 24.8471 -4.5131 0.0000 -6.2104 0.0000
# 2 24.8471 130.7059 35.8690 0.0000 2.0271 0.0000
# 3 -4.5131 35.8690 103.7787 0.0000 -15.1225 0.0000
# 4 0.0000 0.0000 0.0000 26.3082 0.0000 -17.0728
# 5 -6.2104 2.0271 -15.1225 0.0000 37.4667 0.0000
# 6 0.0000 0.0000 0.0000 -17.0728 0.0000 24.0888
#
#
#
# Elastic Compliance Matrix: (Units=1/GPa)
#
#
# Indices 1 2 3 4 5 6 
#
# 1 0.020311 -0.004837 0.003276 0.000000 0.004951 0.000000
# 2 -0.004837 0.009712 -0.003996 0.000000 -0.002940 0.000000
# 3 0.003276 -0.003996 0.011974 0.000000 0.005592 0.000000
# 4 0.000000 0.000000 0.000000 0.070383 0.000000 0.049884
# 5 0.004951 -0.002940 0.005592 0.000000 0.029927 0.000000
# 6 0.000000 0.000000 0.000000 0.049884 0.000000 0.076868
#
#
# Mechanical properties :
#
#
# Convention : Reuss Voigt Hill
#
# Bulk Modulus (GPa) = 32.37807 44.92057 38.64932
# Shear Modulus (GPa) = 20.78284 33.28446 27.03365
#
# Velocity S-wave (km/s) = 2.88653 3.65296 3.29213
# Velocity P-wave (km/s) = 4.90817 5.98342 5.47227
#
# Compressibility (1/GPa) = 0.03088510
#
# Stress axis : x y z
#
# Youngs Moduli (GPa) = 49.23514 102.96141 83.51215
#
# Poissons Ratio (x) = 0.49802 -0.27363
# Poissons Ratio (y) = 0.23815 0.33368
# Poissons Ratio (z) = -0.16132 0.41140
#
# Static dielectric constant tensor:
#      x y z
#    x 2.213500 0.000000 -0.011580 
#    y 0.000000 1.975370 0.000000 
#    z -0.011580 0.000000 1.997460 
# 
# From -- ./inp_files/286060.got.cif
#   From: 2010.05.17/outbox.cif.g08.bks.cpg/sg15_144_cif.got.tgz:286060.got - 2010.06.03 18:47:42.
