data_PCOD9308621
_publ_section_title
;
Structure prediction by ZEFSAII (Michael W. Deem and Ramdas Pophale) SiO2 
 PCOD9308621
Probable space group: C 2/C
;
_chemical_formula_sum "Si O2"
_cell_formula_units_Z 28
_cell_length_a 27.000000
_cell_length_b 18.000000
_cell_length_c 9.000000
_cell_angle_alpha 90.000000
_cell_angle_beta 40.000000
_cell_angle_gamma 90.000000
_cell_volume 2811.553005
_symmetry_space_group_name_H-M "C 2/C"
_symmetry_group_IT_number 15
_symmetry_cell_setting 'monoclinic'
loop_
_space_group_symop_operation_xyz
x,y,z
-x,y,1/2-z
-x,-y,-z
x,-y,1/2+z
1/2+x,1/2+y,z
1/2-x,1/2+y,1/2-z
1/2-x,1/2-y,-z
1/2+x,1/2-y,1/2+z
loop_
_atom_site_type_symbol
_atom_site_label
_atom_site_fract_x
_atom_site_fract_y
_atom_site_fract_z
Si Si1 0.926553 0.069034 0.324518
Si Si2 0.006344 0.818456 0.407181
Si Si3 0.178475 0.784069 0.970921
Si Si4 0.371795 0.786906 0.228991
Si Si5 0.192331 0.814362 0.374701
Si Si6 0.220655 0.426610 0.107639
Si Si7 0.787140 0.045993 0.136130
O O1 0.875555 0.132213 0.528864
O O2 0.000000 0.042784 0.250000
O O3 0.867698 0.000383 0.426286
O O4 0.964424 0.117840 0.102628
O O5 0.958480 0.741963 0.530205
O O6 0.000000 0.843587 0.250000
O O7 0.093960 0.793560 0.235654
O O8 0.163754 0.758925 0.830902
O O9 0.238412 0.719482 0.881459
O O10 0.209711 0.867707 0.913187
O O11 0.338335 0.755583 0.460440
O O12 0.352666 0.874108 0.257838
O O13 0.228008 0.869461 0.415481
O O14 0.219485 0.500413 0.209463
O O15 0.266155 0.451589 0.857344
#
# Coordination Sequence:
#
# PCOD9308621 Si02
#       7
#     8   8   8   8   8   8   8
#     4  10  23  37  48  81 125 146 168 220 290 332
#     4   9  20  33  57  82 103 144 187 225 264 313
#     4  10  17  31  57  84 103 132 196 226 258 313
#     4   9  15  33  57  76 101 144 198 226 247 309
#     4   9  16  35  59  74  99 154 197 222 247 316
#     4  10  19  34  54  80 110 145 185 222 265 327
#     4  11  22  32  54  82 118 150 173 216 282 331
#
# _framework density 9.9589090000000002
#
# number of rings (size 3 to 8) (size 9 to 14) (size 15 to 20)
#    0.000    2.286    2.857    0.857    4.000    2.286 
#    0.000    0.714    6.286    0.000    0.000   43.000 
#    0.000    0.000    0.000    0.000    0.000    0.000 
#
# Total GULP energy -155939.308378 kJ/mol
# GULP energy per Si atom -5569.261014 kJ/mol
# Density = 0.993624 g / cm^3
# Si number density = 9.958909 Si / 1000 Ang^3
#
#
#
# Elastic Constant Matrix: (Units=GPa)
#
#
# Indices 1 2 3 4 5 6 
#
# 1 11.0527 8.6757 13.4037 0.0000 -1.2352 0.0000
# 2 8.6757 108.8196 32.1014 0.0000 -21.3763 0.0000
# 3 13.4037 32.1014 73.2585 0.0000 -4.5152 0.0000
# 4 0.0000 0.0000 0.0000 37.9153 0.0000 -3.5775
# 5 -1.2352 -21.3763 -4.5152 0.0000 14.3690 0.0000
# 6 0.0000 0.0000 0.0000 -3.5775 0.0000 33.5182
#
#
#
# Elastic Compliance Matrix: (Units=1/GPa)
#
#
# Indices 1 2 3 4 5 6 
#
# 1 0.117443 -0.003864 -0.019912 0.000000 -0.001911 0.000000
# 2 -0.003864 0.014822 -0.004537 0.000000 0.020293 0.000000
# 3 -0.019912 -0.004537 0.019131 0.000000 -0.002450 0.000000
# 4 0.000000 0.000000 0.000000 0.026643 0.000000 0.002844
# 5 -0.001911 0.020293 -0.002450 0.000000 0.098849 0.000000
# 6 0.000000 0.000000 0.000000 0.002844 0.000000 0.030138
#
#
# Mechanical properties :
#
#
# Convention : Reuss Voigt Hill
#
# Bulk Modulus (GPa) = 10.55208 33.49915 22.02562
# Shear Modulus (GPa) = 12.65044 26.42384 19.53714
#
# Velocity S-wave (km/s) = 2.52292 3.64626 3.13531
# Velocity P-wave (km/s) = 3.71431 5.88066 4.91825
#
# Compressibility (1/GPa) = 0.09476801
#
# Stress axis : x y z
#
# Youngs Moduli (GPa) = 8.51478 67.46554 52.27191
#
# Poissons Ratio (x) = 0.26072 1.04085
# Poissons Ratio (y) = 0.03290 0.23717
# Poissons Ratio (z) = 0.16955 0.30611
#
# Static dielectric constant tensor:
#      x y z
#    x 1.809040 0.000000 0.014980 
#    y 0.000000 1.690860 0.000000 
#    z 0.014980 0.000000 1.777490 
# 
# From -- ./inp_files/67113.got.cif
#   From: 2010.05.17/outbox.ucp.g08.bks.cvg/sg15_34_cif.got.tgz:67113.got - 2010.06.11 12:40:34.
