data_PCOD9308319
_publ_section_title
;
Structure prediction by ZEFSAII (Michael W. Deem and Ramdas Pophale) SiO2 
 PCOD9308319
Probable space group: C 2/C
;
_chemical_formula_sum "Si O2"
_cell_formula_units_Z 24
_cell_length_a 17.470977
_cell_length_b 7.299583
_cell_length_c 13.553071
_cell_angle_alpha 90.000000
_cell_angle_beta 146.106632
_cell_angle_gamma 90.000000
_cell_volume 963.859891
_symmetry_space_group_name_H-M "C 2/C"
_symmetry_group_IT_number 15
_symmetry_cell_setting 'monoclinic'
loop_
_space_group_symop_operation_xyz
x,y,z
-x,y,1/2-z
-x,-y,-z
x,-y,1/2+z
1/2+x,1/2+y,z
1/2-x,1/2+y,1/2-z
1/2-x,1/2-y,-z
1/2+x,1/2-y,1/2+z
loop_
_atom_site_type_symbol
_atom_site_label
_atom_site_fract_x
_atom_site_fract_y
_atom_site_fract_z
Si Si1 0.688081 0.197919 0.828042
Si Si2 0.509450 0.140677 0.371442
Si Si3 0.316967 0.418381 0.277211
O O1 0.648044 0.383366 0.728376
O O2 0.798617 0.097087 0.875141
O O3 0.562571 0.058234 0.704832
O O4 0.750000 0.250000 0.000000
O O5 0.500000 0.213603 0.250000
O O6 0.420732 0.269040 0.347033
O O7 0.665191 0.122576 0.571904
#
# Coordination Sequence:
#
# PCOD9308319 Si02
#       3
#     8   8   8
#     4  12  27  48  79 116 157 206 259 322 393 463
#     4  12  27  50  82 117 159 206 265 321 394 468
#     4  12  28  50  79 117 161 204 263 328 388 465
#
# _framework density 24.899885000000001
#
# number of rings (size 3 to 8) (size 9 to 14) (size 15 to 20)
#    0.000    0.000    6.667    2.000    0.000    5.333 
#    0.000    0.000    0.000    0.000    0.000    0.000 
#    0.000    0.000    0.000    0.000    0.000    0.000 
#
# Total GULP energy -67445.312917 kJ/mol
# GULP energy per Si atom -5620.442743 kJ/mol
# Density = 2.484321 g / cm^3
# Si number density = 24.899885 Si / 1000 Ang^3
#
#
#
# Elastic Constant Matrix: (Units=GPa)
#
#
# Indices 1 2 3 4 5 6 
#
# 1 162.7955 27.0882 82.1677 0.0000 -22.9224 0.0000
# 2 27.0882 131.1605 58.1070 0.0000 0.6313 0.0000
# 3 82.1677 58.1070 173.2386 0.0000 4.4726 0.0000
# 4 0.0000 0.0000 0.0000 36.6173 0.0000 0.3033
# 5 -22.9224 0.6313 4.4726 0.0000 61.3454 0.0000
# 6 0.0000 0.0000 0.0000 0.3033 0.0000 46.0098
#
#
#
# Elastic Compliance Matrix: (Units=1/GPa)
#
#
# Indices 1 2 3 4 5 6 
#
# 1 0.008805 0.000065 -0.004291 0.000000 0.003602 0.000000
# 2 0.000065 0.008956 -0.003039 0.000000 0.000154 0.000000
# 3 -0.004291 -0.003039 0.008884 0.000000 -0.002220 0.000000
# 4 0.000000 0.000000 0.000000 0.027311 0.000000 -0.000180
# 5 0.003602 0.000154 -0.002220 0.000000 0.017807 0.000000
# 6 0.000000 0.000000 0.000000 -0.000180 0.000000 0.021736
#
#
# Mechanical properties :
#
#
# Convention : Reuss Voigt Hill
#
# Bulk Modulus (GPa) = 82.53645 89.10228 85.81937
# Shear Modulus (GPa) = 44.61579 48.78328 46.69953
#
# Velocity S-wave (km/s) = 4.23757 4.43106 4.33539
# Velocity P-wave (km/s) = 7.56055 7.87661 7.72020
#
# Compressibility (1/GPa) = 0.01211586
#
# Stress axis : x y z
#
# Youngs Moduli (GPa) = 113.57364 111.65214 112.55803
#
# Poissons Ratio (x) = -0.00729 0.48299
# Poissons Ratio (y) = -0.00741 0.34207
# Poissons Ratio (z) = 0.48735 0.33932
#
# Static dielectric constant tensor:
#      x y z
#    x 1.953630 0.000000 -0.012270 
#    y 0.000000 1.971730 0.000000 
#    z -0.012270 0.000000 1.941660 
# 
# From -- ./inp_files/36150.got.cif
#   From: 2010.05.17/outbox.cif.g08.bks.cpg/sg15_19_cif.got.tgz:36150.got - 2010.06.03 18:47:42.
