data_PCOD9308985
_publ_section_title
;
Structure prediction by ZEFSAII (Michael W. Deem and Ramdas Pophale) SiO2 
 PCOD9308985
Probable space group: C 2/C
;
_chemical_formula_sum "Si O2"
_cell_formula_units_Z 30
_cell_length_a 24.000000
_cell_length_b 18.000000
_cell_length_c 9.000000
_cell_angle_alpha 90.000000
_cell_angle_beta 120.000000
_cell_angle_gamma 90.000000
_cell_volume 3367.106770
_symmetry_space_group_name_H-M "C 2/C"
_symmetry_group_IT_number 15
_symmetry_cell_setting 'monoclinic'
loop_
_space_group_symop_operation_xyz
x,y,z
-x,y,1/2-z
-x,-y,-z
x,-y,1/2+z
1/2+x,1/2+y,z
1/2-x,1/2+y,1/2-z
1/2-x,1/2-y,-z
1/2+x,1/2-y,1/2+z
loop_
_atom_site_type_symbol
_atom_site_label
_atom_site_fract_x
_atom_site_fract_y
_atom_site_fract_z
Si Si1 0.382663 0.465402 0.574203
Si Si2 0.335774 0.337584 0.715105
Si Si3 0.500000 0.583618 0.750000
Si Si4 0.421046 0.220496 0.636930
Si Si5 0.792214 0.821681 0.003478
Si Si6 0.416767 0.659164 0.877149
Si Si7 0.260244 0.028242 0.148450
Si Si8 0.196551 0.603803 0.988804
O O1 0.368581 0.416473 0.706154
O O2 0.437730 0.528686 0.655849
O O3 0.404860 0.407152 0.478588
O O4 0.313487 0.499336 0.438237
O O5 0.385322 0.276893 0.709481
O O6 0.261571 0.344782 0.551599
O O7 0.320080 0.321769 0.869088
O O8 0.479108 0.636276 0.861052
O O9 0.500000 0.204821 0.750000
O O10 0.419140 0.266264 0.479316
O O11 0.369844 0.150960 0.578826
O O12 0.854651 0.832216 0.189322
O O13 0.750000 0.750000 0.000000
O O14 0.747894 0.895752 0.957734
O O15 0.287918 0.057676 0.340529
O O16 0.300977 0.960194 0.134310
#
# Coordination Sequence:
#
# PCOD9308985 Si02
#       8
#     8   8   4   8   8   8   8   8
#     4  10  22  37  59  88 126 169 201 241 303 393
#     4   9  22  39  64  88 128 164 206 249 310 382
#     4  12  24  34  60  90 134 166 204 240 316 378
#     4  11  25  43  62  87 126 171 214 256 314 380
#     4  11  22  38  63  94 124 154 210 264 316 365
#     4  11  24  37  58  87 127 167 205 249 309 373
#     4  10  20  37  63  89 120 153 205 258 305 361
#     4  10  21  40  66  91 119 158 210 258 314 367
#
# _framework density 8.9097259999999991
#
# number of rings (size 3 to 8) (size 9 to 14) (size 15 to 20)
#    0.000    1.600    1.333    3.200    9.333    3.200 
#    0.000    0.667    0.000    0.000    0.000    0.000 
#    0.000    0.000    0.000    0.000    0.000    0.000 
#
# Total GULP energy -167215.368301 kJ/mol
# GULP energy per Si atom -5573.845610 kJ/mol
# Density = 0.888945 g / cm^3
# Si number density = 8.909726 Si / 1000 Ang^3
#
#
#
# Elastic Constant Matrix: (Units=GPa)
#
#
# Indices 1 2 3 4 5 6 
#
# 1 154.9351 66.4821 39.5538 0.0000 -2.6191 0.0000
# 2 66.4821 108.0685 29.2848 0.0000 -4.3356 0.0000
# 3 39.5538 29.2848 68.0020 0.0000 -5.5201 0.0000
# 4 0.0000 0.0000 0.0000 27.3694 0.0000 2.3497
# 5 -2.6191 -4.3356 -5.5201 0.0000 36.7207 0.0000
# 6 0.0000 0.0000 0.0000 2.3497 0.0000 56.2145
#
#
#
# Elastic Compliance Matrix: (Units=1/GPa)
#
#
# Indices 1 2 3 4 5 6 
#
# 1 0.009412 -0.004884 -0.003405 0.000000 -0.000417 0.000000
# 2 -0.004884 0.013022 -0.002703 0.000000 0.000783 0.000000
# 3 -0.003405 -0.002703 0.018025 0.000000 0.002148 0.000000
# 4 0.000000 0.000000 0.000000 0.036669 0.000000 -0.001533
# 5 -0.000417 0.000783 0.002148 0.000000 0.027618 0.000000
# 6 0.000000 0.000000 0.000000 -0.001533 0.000000 0.017853
#
#
# Mechanical properties :
#
#
# Convention : Reuss Voigt Hill
#
# Bulk Modulus (GPa) = 54.13222 66.84964 60.49093
# Shear Modulus (GPa) = 33.16905 37.10657 35.13781
#
# Velocity S-wave (km/s) = 4.31907 4.56824 4.44540
# Velocity P-wave (km/s) = 7.43751 8.08836 7.76975
#
# Compressibility (1/GPa) = 0.01847329
#
# Stress axis : x y z
#
# Youngs Moduli (GPa) = 106.24209 76.79224 55.47954
#
# Poissons Ratio (x) = 0.37508 0.18892
# Poissons Ratio (y) = 0.51893 0.14998
# Poissons Ratio (z) = 0.36178 0.20760
#
# Static dielectric constant tensor:
#      x y z
#    x 1.601970 0.000000 -0.016570 
#    y 0.000000 1.645410 0.000000 
#    z -0.016570 0.000000 1.666190 
# 
# From -- ./inp_files/56995.got.cif
#   From: 2010.05.17/outbox.ucp.g08.bks.cvg/sg15_29_cif.got.tgz:56995.got - 2010.06.11 12:40:34.
