data_PCOD9308588
_publ_section_title
;
Structure prediction by ZEFSAII (Michael W. Deem and Ramdas Pophale) SiO2 
 PCOD9308588
Probable space group: C 2/C
;
_chemical_formula_sum "Si O2"
_cell_formula_units_Z 48
_cell_length_a 10.357124
_cell_length_b 9.456448
_cell_length_c 27.208296
_cell_angle_alpha 90.000000
_cell_angle_beta 98.463128
_cell_angle_gamma 90.000000
_cell_volume 2635.806309
_symmetry_space_group_name_H-M "C 2/C"
_symmetry_group_IT_number 15
_symmetry_cell_setting 'monoclinic'
loop_
_space_group_symop_operation_xyz
x,y,z
-x,y,1/2-z
-x,-y,-z
x,-y,1/2+z
1/2+x,1/2+y,z
1/2-x,1/2+y,1/2-z
1/2-x,1/2-y,-z
1/2+x,1/2-y,1/2+z
loop_
_atom_site_type_symbol
_atom_site_label
_atom_site_fract_x
_atom_site_fract_y
_atom_site_fract_z
Si Si1 0.762613 0.822705 0.053773
Si Si2 0.902029 0.080181 0.424858
Si Si3 0.686965 0.400497 0.986472
Si Si4 0.881320 0.321015 0.777804
Si Si5 0.509170 0.360298 0.365367
Si Si6 0.859907 0.972192 0.221450
O O1 0.674603 0.726918 0.084059
O O2 0.909960 0.814310 0.082267
O O3 0.750000 0.750000 0.000000
O O4 0.733369 0.988178 0.043130
O O5 0.047108 0.115909 0.452220
O O6 0.837917 0.982442 0.463647
O O7 0.911680 0.983616 0.377215
O O8 0.750000 0.250000 0.000000
O O9 0.760820 0.424945 0.777702
O O10 0.000000 0.377282 0.750000
O O11 0.940988 0.267132 0.832841
O O12 0.837980 0.175206 0.748894
O O13 0.611688 0.430550 0.333272
O O14 0.000000 0.027728 0.250000
#
# Coordination Sequence:
#
# PCOD9308588 Si02
#       6
#     8   8   8   8   8   8
#     4   9  18  34  52  73 106 145 182 222 265 311
#     4   9  18  33  49  69 103 137 171 220 268 311
#     4   9  18  32  50  70  96 137 183 223 264 308
#     4   9  20  38  59  82 110 142 177 222 276 333
#     4   9  19  33  54  80 108 140 178 223 272 324
#     4   9  20  38  58  81 109 139 177 224 275 333
#
# _framework density 18.210747000000001
#
# number of rings (size 3 to 8) (size 9 to 14) (size 15 to 20)
#    0.000    3.333    0.000    1.000    0.000    9.333 
#    0.000    3.333    0.000    0.000    0.000    0.000 
#    0.000    0.000    0.000    0.000    0.000    0.000 
#
# Total GULP energy -133623.247827 kJ/mol
# GULP energy per Si atom -5567.635326 kJ/mol
# Density = 1.816930 g / cm^3
# Si number density = 18.210747 Si / 1000 Ang^3
#
#
#
# Elastic Constant Matrix: (Units=GPa)
#
#
# Indices 1 2 3 4 5 6 
#
# 1 91.7520 60.2231 11.7148 0.0000 -1.0769 0.0000
# 2 60.2231 85.4663 1.8233 0.0000 6.5540 0.0000
# 3 11.7148 1.8233 48.6903 0.0000 4.6521 0.0000
# 4 0.0000 0.0000 0.0000 7.9085 0.0000 -0.7222
# 5 -1.0769 6.5540 4.6521 0.0000 9.0752 0.0000
# 6 0.0000 0.0000 0.0000 -0.7222 0.0000 49.4758
#
#
#
# Elastic Compliance Matrix: (Units=1/GPa)
#
#
# Indices 1 2 3 4 5 6 
#
# 1 0.024017 -0.018280 -0.006969 0.000000 0.019624 0.000000
# 2 -0.018280 0.026307 0.005715 0.000000 -0.024098 0.000000
# 3 -0.006969 0.005715 0.023631 0.000000 -0.017068 0.000000
# 4 0.000000 0.000000 0.000000 0.126614 0.000000 0.001848
# 5 0.019624 -0.024098 -0.017068 0.000000 0.138671 0.000000
# 6 0.000000 0.000000 0.000000 0.001848 0.000000 0.020239
#
#
# Mechanical properties :
#
#
# Convention : Reuss Voigt Hill
#
# Bulk Modulus (GPa) = 28.66216 41.49236 35.07726
# Shear Modulus (GPa) = 12.18985 23.43506 17.81246
#
# Velocity S-wave (km/s) = 2.59004 3.59120 3.13090
# Velocity P-wave (km/s) = 4.97169 6.32690 5.68979
#
# Compressibility (1/GPa) = 0.03488921
#
# Stress axis : x y z
#
# Youngs Moduli (GPa) = 41.63657 38.01232 42.31654
#
# Poissons Ratio (x) = 0.69486 0.29490
# Poissons Ratio (y) = 0.76111 -0.24185
# Poissons Ratio (z) = 0.29016 -0.21725
#
# Static dielectric constant tensor:
#      x y z
#    x 1.636370 0.000000 -0.019140 
#    y 0.000000 1.701290 0.000000 
#    z -0.019140 0.000000 1.665930 
# 
# From -- ./inp_files/290847.got.cif
#   From: 2010.05.17/outbox.cif.g08.bks.cpg/sg15_146_cif.got.tgz:290847.got - 2010.06.03 18:47:42.
