data_PCOD9308465
_publ_section_title
;
Structure prediction by ZEFSAII (Michael W. Deem and Ramdas Pophale) SiO2 
 PCOD9308465
Probable space group: C 2/C
;
_chemical_formula_sum "Si O2"
_cell_formula_units_Z 36
_cell_length_a 5.016043
_cell_length_b 10.211154
_cell_length_c 25.262438
_cell_angle_alpha 90.000000
_cell_angle_beta 75.166939
_cell_angle_gamma 90.000000
_cell_volume 1250.812456
_symmetry_space_group_name_H-M "C 2/C"
_symmetry_group_IT_number 15
_symmetry_cell_setting 'monoclinic'
loop_
_space_group_symop_operation_xyz
x,y,z
-x,y,1/2-z
-x,-y,-z
x,-y,1/2+z
1/2+x,1/2+y,z
1/2-x,1/2+y,1/2-z
1/2-x,1/2-y,-z
1/2+x,1/2-y,1/2+z
loop_
_atom_site_type_symbol
_atom_site_label
_atom_site_fract_x
_atom_site_fract_y
_atom_site_fract_z
Si Si1 0.496709 0.094769 0.849089
Si Si2 0.722787 0.160797 0.166452
Si Si3 0.014073 0.161341 0.954257
Si Si4 0.789750 0.090413 0.438780
Si Si5 0.500000 0.739945 0.250000
O O1 0.512661 0.940229 0.838101
O O2 0.771198 0.182228 0.843815
O O3 0.279201 0.116131 0.906835
O O4 0.381799 0.163520 0.801216
O O5 0.991430 0.116758 0.118881
O O6 0.796394 0.154208 0.224830
O O7 0.022815 0.317554 0.944554
O O8 0.075823 0.136988 0.012694
O O9 0.769420 0.065505 0.948144
#
# Coordination Sequence:
#
# PCOD9308465 Si02
#       5
#     8   8   8   8   4
#     4   8  14  24  38  59  87 122 159 199 245 293
#     4   8  14  24  38  59  87 122 159 199 245 293
#     4   8  12  18  30  50  79 112 149 192 238 287
#     4   8  12  18  30  50  79 112 149 192 238 287
#     4   8  16  24  38  60  84 124 156 198 240 292
#
# _framework density 28.781293999999999
#
# number of rings (size 3 to 8) (size 9 to 14) (size 15 to 20)
#    1.333    2.667    0.000    0.000    0.000    0.000 
#    0.000    0.000    0.000    1.333    0.000    0.000 
#    0.000    7.111    0.000   22.222    0.000    1.778 
#
# Total GULP energy -100577.418989 kJ/mol
# GULP energy per Si atom -5587.634388 kJ/mol
# Density = 2.871579 g / cm^3
# Si number density = 28.781294 Si / 1000 Ang^3
#
#
#
# Elastic Constant Matrix: (Units=GPa)
#
#
# Indices 1 2 3 4 5 6 
#
# 1 111.0298 98.9042 47.2213 0.0000 -8.6188 0.0000
# 2 98.9042 239.7842 29.3696 0.0000 18.5725 0.0000
# 3 47.2213 29.3696 203.1958 0.0000 2.0205 0.0000
# 4 0.0000 0.0000 0.0000 48.7835 0.0000 12.4380
# 5 -8.6188 18.5725 2.0205 0.0000 25.3934 0.0000
# 6 0.0000 0.0000 0.0000 12.4380 0.0000 45.0173
#
#
#
# Elastic Compliance Matrix: (Units=1/GPa)
#
#
# Indices 1 2 3 4 5 6 
#
# 1 0.018848 -0.008359 -0.003299 0.000000 0.012774 0.000000
# 2 -0.008359 0.008205 0.000845 0.000000 -0.008905 0.000000
# 3 -0.003299 0.000845 0.005588 0.000000 -0.002183 0.000000
# 4 0.000000 0.000000 0.000000 0.022052 0.000000 -0.006093
# 5 0.012774 -0.008905 -0.002183 0.000000 0.050403 0.000000
# 6 0.000000 0.000000 0.000000 -0.006093 0.000000 0.023897
#
#
# Mechanical properties :
#
#
# Convention : Reuss Voigt Hill
#
# Bulk Modulus (GPa) = 90.79370 100.55554 95.67462
# Shear Modulus (GPa) = 32.40666 49.07318 40.73992
#
# Velocity S-wave (km/s) = 3.35918 4.13369 3.76639
# Velocity P-wave (km/s) = 6.83081 7.60242 7.22692
#
# Compressibility (1/GPa) = 0.01101398
#
# Stress axis : x y z
#
# Youngs Moduli (GPa) = 53.05685 121.88149 178.97081
#
# Poissons Ratio (x) = 1.01887 0.59039
# Poissons Ratio (y) = 0.44353 -0.15129
# Poissons Ratio (z) = 0.17503 -0.10303
#
# Static dielectric constant tensor:
#      x y z
#    x 2.124060 0.000000 0.014880 
#    y 0.000000 2.277250 0.000000 
#    z 0.014880 0.000000 2.211070 
# 
# From -- ./inp_files/262342.got.cif
#   From: 2010.05.17/outbox.cif.g08.bks.cpg/sg15_132_cif.got.tgz:262342.got - 2010.06.03 18:47:42.
