data_PCOD9308159
_publ_section_title
;
Structure prediction by ZEFSAII (Michael W. Deem and Ramdas Pophale) SiO2 
 PCOD9308159
Probable space group: C 2/C
;
_chemical_formula_sum "Si O2"
_cell_formula_units_Z 28
_cell_length_a 15.906742
_cell_length_b 6.448185
_cell_length_c 18.434216
_cell_angle_alpha 90.000000
_cell_angle_beta 141.653079
_cell_angle_gamma 90.000000
_cell_volume 1173.087037
_symmetry_space_group_name_H-M "C 2/C"
_symmetry_group_IT_number 15
_symmetry_cell_setting 'monoclinic'
loop_
_space_group_symop_operation_xyz
x,y,z
-x,y,1/2-z
-x,-y,-z
x,-y,1/2+z
1/2+x,1/2+y,z
1/2-x,1/2+y,1/2-z
1/2-x,1/2-y,-z
1/2+x,1/2-y,1/2+z
loop_
_atom_site_type_symbol
_atom_site_label
_atom_site_fract_x
_atom_site_fract_y
_atom_site_fract_z
Si Si1 0.373873 0.654402 0.407592
Si Si2 0.500000 0.476896 0.750000
Si Si3 0.120374 0.357277 0.246629
Si Si4 0.100550 0.686606 0.424303
O O1 0.500000 0.500000 0.500000
O O2 0.238972 0.524110 0.334392
O O3 0.364655 0.754605 0.322459
O O4 0.396710 0.817345 0.487216
O O5 0.379606 0.323484 0.693280
O O6 0.480974 0.623420 0.667700
O O7 0.977142 0.480204 0.152705
O O8 0.250000 0.750000 0.500000
#
# Coordination Sequence:
#
# PCOD9308159 Si02
#       4
#     8   4   8   8
#     4  12  26  48  76 107 149 198 241 307 374 427
#     4  12  26  48  72 110 152 190 254 296 360 452
#     4  12  28  48  74 112 151 189 254 304 359 455
#     4  12  27  47  76 107 147 201 244 304 372 430
#
# _framework density 23.868644
#
# number of rings (size 3 to 8) (size 9 to 14) (size 15 to 20)
#    0.000    0.000    2.857    6.857    8.000    2.286 
#    0.000    0.000    0.000    0.000    0.000    0.000 
#    0.000    0.000    0.000    0.000    0.000    0.000 
#
# Total GULP energy -78358.121623 kJ/mol
# GULP energy per Si atom -5597.008687 kJ/mol
# Density = 2.381432 g / cm^3
# Si number density = 23.868644 Si / 1000 Ang^3
#
#
#
# Elastic Constant Matrix: (Units=GPa)
#
#
# Indices 1 2 3 4 5 6 
#
# 1 69.0338 11.7920 3.5871 0.0000 -15.5522 0.0000
# 2 11.7920 74.1918 10.5109 0.0000 -4.8072 0.0000
# 3 3.5871 10.5109 55.1348 0.0000 -2.8693 0.0000
# 4 0.0000 0.0000 0.0000 39.0047 0.0000 -8.4587
# 5 -15.5522 -4.8072 -2.8693 0.0000 61.8657 0.0000
# 6 0.0000 0.0000 0.0000 -8.4587 0.0000 65.9957
#
#
#
# Elastic Compliance Matrix: (Units=1/GPa)
#
#
# Indices 1 2 3 4 5 6 
#
# 1 0.015731 -0.002198 -0.000408 0.000000 0.003765 0.000000
# 2 -0.002198 0.014217 -0.002545 0.000000 0.000434 0.000000
# 3 -0.000408 -0.002545 0.018679 0.000000 0.000566 0.000000
# 4 0.000000 0.000000 0.000000 0.026371 0.000000 0.003380
# 5 0.003765 0.000434 0.000566 0.000000 0.017170 0.000000
# 6 0.000000 0.000000 0.000000 0.003380 0.000000 0.015586
#
#
# Mechanical properties :
#
#
# Convention : Reuss Voigt Hill
#
# Bulk Modulus (GPa) = 26.09418 27.79338 26.94378
# Shear Modulus (GPa) = 38.21757 44.87123 41.54440
#
# Velocity S-wave (km/s) = 4.00579 4.34051 4.17651
# Velocity P-wave (km/s) = 5.68782 6.06545 5.87967
#
# Compressibility (1/GPa) = 0.03832272
#
# Stress axis : x y z
#
# Youngs Moduli (GPa) = 63.57069 70.34019 53.53748
#
# Poissons Ratio (x) = 0.15464 0.02186
# Poissons Ratio (y) = 0.13975 0.13623
# Poissons Ratio (z) = 0.02596 0.17899
#
# Static dielectric constant tensor:
#      x y z
#    x 1.939380 0.000000 0.001670 
#    y 0.000000 1.984160 0.000000 
#    z 0.001670 0.000000 1.907210 
# 
# From -- ./inp_files/108803.got.cif
#   From: 2010.05.17/outbox.cif.g08.bks.cpg/sg15_55_cif.got.tgz:108803.got - 2010.06.03 18:47:42.
