data_PCOD9308712
_publ_section_title
;
Structure prediction by ZEFSAII (Michael W. Deem and Ramdas Pophale) SiO2 
 PCOD9308712
Probable space group: C 2/C
;
_chemical_formula_sum "Si O2"
_cell_formula_units_Z 30
_cell_length_a 21.000000
_cell_length_b 18.000000
_cell_length_c 9.000000
_cell_angle_alpha 90.000000
_cell_angle_beta 70.000000
_cell_angle_gamma 90.000000
_cell_volume 3196.834296
_symmetry_space_group_name_H-M "C 2/C"
_symmetry_group_IT_number 15
_symmetry_cell_setting 'monoclinic'
loop_
_space_group_symop_operation_xyz
x,y,z
-x,y,1/2-z
-x,-y,-z
x,-y,1/2+z
1/2+x,1/2+y,z
1/2-x,1/2+y,1/2-z
1/2-x,1/2-y,-z
1/2+x,1/2-y,1/2+z
loop_
_atom_site_type_symbol
_atom_site_label
_atom_site_fract_x
_atom_site_fract_y
_atom_site_fract_z
Si Si1 0.427125 0.825580 0.583379
Si Si2 0.960573 0.780660 0.442144
Si Si3 0.313249 0.432633 0.413896
Si Si4 0.000000 0.556737 0.250000
Si Si5 0.329497 0.740820 0.888489
Si Si6 0.876790 0.444394 0.427050
Si Si7 0.955370 0.052468 0.931525
Si Si8 0.278431 0.997371 0.765699
O O1 0.485954 0.765657 0.506607
O O2 0.464176 0.888753 0.657482
O O3 0.363117 0.788369 0.725231
O O4 0.405544 0.864491 0.448058
O O5 0.886316 0.745303 0.472050
O O6 0.949777 0.864766 0.503841
O O7 0.000000 0.781199 0.250000
O O8 0.333893 0.348159 0.358934
O O9 0.380514 0.470124 0.432095
O O10 0.256240 0.440797 0.588935
O O11 0.280244 0.467793 0.292094
O O12 0.938706 0.503318 0.356724
O O13 0.250000 0.750000 0.000000
O O14 0.831661 0.463674 0.607605
O O15 0.824745 0.448559 0.330607
O O16 0.000000 0.060304 0.750000
O O17 0.000000 0.000000 0.000000
#
# Coordination Sequence:
#
# PCOD9308712 Si02
#       8
#     8   8   8   4   8   8   8   8
#     4  11  20  37  59  85 119 151 197 256 294 356
#     4   8  17  33  53  81 111 148 187 236 295 341
#     4  10  21  37  58  89 118 160 200 247 304 357
#     4  12  22  38  62  92 116 154 200 252 304 358
#     4  10  19  32  56  83 115 154 202 235 292 364
#     4  11  23  38  60  89 119 156 205 243 307 364
#     4  10  19  34  61  88 113 147 200 248 293 355
#     4  10  22  38  58  87 126 157 199 254 299 359
#
# _framework density 9.3842839999999992
#
# number of rings (size 3 to 8) (size 9 to 14) (size 15 to 20)
#    0.000    1.867    3.333    2.800    1.867    0.000 
#    0.000    0.667    1.467    1.600    0.000    0.000 
#    0.000    0.000    0.000    0.000    0.000    0.000 
#
# Total GULP energy -167089.179061 kJ/mol
# GULP energy per Si atom -5569.639302 kJ/mol
# Density = 0.936292 g / cm^3
# Si number density = 9.384284 Si / 1000 Ang^3
#
#
#
# Elastic Constant Matrix: (Units=GPa)
#
#
# Indices 1 2 3 4 5 6 
#
# 1 157.1182 42.8318 29.4293 0.0000 -0.3480 0.0000
# 2 42.8318 73.6400 16.8902 0.0000 11.8083 0.0000
# 3 29.4293 16.8902 53.6955 0.0000 -0.7138 0.0000
# 4 0.0000 0.0000 0.0000 23.4209 0.0000 -2.8278
# 5 -0.3480 11.8083 -0.7138 0.0000 41.6310 0.0000
# 6 0.0000 0.0000 0.0000 -2.8278 0.0000 35.2365
#
#
#
# Elastic Compliance Matrix: (Units=1/GPa)
#
#
# Indices 1 2 3 4 5 6 
#
# 1 0.008089 -0.004187 -0.003101 0.000000 0.001202 0.000000
# 2 -0.004187 0.017587 -0.003305 0.000000 -0.005080 0.000000
# 3 -0.003101 -0.003305 0.021380 0.000000 0.001278 0.000000
# 4 0.000000 0.000000 0.000000 0.043115 0.000000 0.003460
# 5 0.001202 -0.005080 0.001278 0.000000 0.025494 0.000000
# 6 0.000000 0.000000 0.000000 0.003460 0.000000 0.028657
#
#
# Mechanical properties :
#
#
# Convention : Reuss Voigt Hill
#
# Bulk Modulus (GPa) = 38.65269 51.41737 45.03503
# Shear Modulus (GPa) = 28.71408 33.07784 30.89596
#
# Velocity S-wave (km/s) = 3.91564 4.20266 4.06168
# Velocity P-wave (km/s) = 6.40953 7.14176 6.78553
#
# Compressibility (1/GPa) = 0.02587142
#
# Stress axis : x y z
#
# Youngs Moduli (GPa) = 123.61859 56.85897 46.77354
#
# Poissons Ratio (x) = 0.23805 0.14503
# Poissons Ratio (y) = 0.51755 0.15459
# Poissons Ratio (z) = 0.38330 0.18793
#
# Static dielectric constant tensor:
#      x y z
#    x 1.676480 0.000000 -0.003580 
#    y 0.000000 1.707650 0.000000 
#    z -0.003580 0.000000 1.642350 
# 
# From -- ./inp_files/56543.got.cif
#   From: 2010.05.17/outbox.ucp.g08.bks.cvg/sg15_29_cif.got.tgz:56543.got - 2010.06.11 12:40:34.
