data_PCOD9308230
_publ_section_title
;
Structure prediction by ZEFSAII (Michael W. Deem and Ramdas Pophale) SiO2 
 PCOD9308230
Probable space group: C 2/C
;
_chemical_formula_sum "Si O2"
_cell_formula_units_Z 32
_cell_length_a 18.199178
_cell_length_b 4.921933
_cell_length_c 28.338793
_cell_angle_alpha 90.000000
_cell_angle_beta 145.538086
_cell_angle_gamma 90.000000
_cell_volume 1436.403666
_symmetry_space_group_name_H-M "C 2/C"
_symmetry_group_IT_number 15
_symmetry_cell_setting 'monoclinic'
loop_
_space_group_symop_operation_xyz
x,y,z
-x,y,1/2-z
-x,-y,-z
x,-y,1/2+z
1/2+x,1/2+y,z
1/2-x,1/2+y,1/2-z
1/2-x,1/2-y,-z
1/2+x,1/2-y,1/2+z
loop_
_atom_site_type_symbol
_atom_site_label
_atom_site_fract_x
_atom_site_fract_y
_atom_site_fract_z
Si Si1 0.769849 0.957515 0.730597
Si Si2 0.472977 0.645057 0.682560
Si Si3 0.801816 0.646057 0.577180
Si Si4 0.597950 0.250688 0.052630
O O1 0.693407 0.204408 0.715885
O O2 0.895534 0.116306 0.777343
O O3 0.689096 0.812886 0.646055
O O4 0.500000 0.738556 0.750000
O O5 0.417451 0.342689 0.654229
O O6 0.362370 0.846496 0.604854
O O7 0.750000 0.750000 0.500000
O O8 0.691544 0.691928 0.557906
O O9 0.500000 0.500000 0.000000
O O10 0.500000 0.000000 0.000000
#
# Coordination Sequence:
#
# PCOD9308230 Si02
#       4
#     8   8   8   8
#     4  12  28  48  77 111 147 199 251 308 376 442
#     4  12  26  50  76 104 147 194 256 306 361 443
#     4  12  28  48  74 109 146 199 245 305 375 437
#     4  12  28  49  73 108 153 193 243 305 376 446
#
# _framework density 22.277857000000001
#
# number of rings (size 3 to 8) (size 9 to 14) (size 15 to 20)
#    0.000    0.000    2.500    6.000   14.000    0.000 
#    0.000    0.000    0.000    0.000    0.000    0.000 
#    0.000    0.000    0.000    0.000    0.000    0.000 
#
# Total GULP energy -89509.659871 kJ/mol
# GULP energy per Si atom -5594.353742 kJ/mol
# Density = 2.222715 g / cm^3
# Si number density = 22.277857 Si / 1000 Ang^3
#
#
#
# Elastic Constant Matrix: (Units=GPa)
#
#
# Indices 1 2 3 4 5 6 
#
# 1 156.0494 50.7744 67.4566 0.0045 1.2075 -0.0191
# 2 50.7744 139.4508 16.3730 0.0081 4.3203 -0.0081
# 3 67.4566 16.3730 78.0062 0.0016 -4.6615 0.0024
# 4 0.0045 0.0081 0.0016 66.8134 -0.0007 16.1941
# 5 1.2075 4.3203 -4.6615 -0.0007 41.2122 -0.0014
# 6 -0.0191 -0.0081 0.0024 16.1941 -0.0014 19.7492
#
#
#
# Elastic Compliance Matrix: (Units=1/GPa)
#
#
# Indices 1 2 3 4 5 6 
#
# 1 0.011428 -0.003035 -0.009310 -0.000004 -0.001070 0.000014
# 2 -0.003035 0.008195 0.000864 -0.000001 -0.000672 0.000001
# 3 -0.009310 0.000864 0.020841 0.000003 0.002539 -0.000014
# 4 -0.000004 -0.000001 0.000003 0.018680 0.000000 -0.015317
# 5 -0.001070 -0.000672 0.002539 0.000000 0.024654 0.000000
# 6 0.000014 0.000001 -0.000014 -0.015317 0.000000 0.063195
#
#
# Mechanical properties :
#
#
# Convention : Reuss Voigt Hill
#
# Bulk Modulus (GPa) = 57.13212 71.41273 64.27242
# Shear Modulus (GPa) = 28.44342 41.48180 34.96261
#
# Velocity S-wave (km/s) = 3.57705 4.31979 3.96585
# Velocity P-wave (km/s) = 6.53921 7.55022 7.06283
#
# Compressibility (1/GPa) = 0.01750329
#
# Stress axis : x y z
#
# Youngs Moduli (GPa) = 87.50168 122.02005 47.98344
#
# Poissons Ratio (x) = 0.37032 0.44671
# Poissons Ratio (y) = 0.26556 -0.04146
# Poissons Ratio (z) = 0.81461 -0.10544
#
# Static dielectric constant tensor:
#      x y z
#    x 1.589490 0.000080 -0.474360 
#    y 0.000080 1.669300 -0.000480 
#    z -0.474360 -0.000480 0.981920 
# 
# From -- ./inp_files/315165.got.cif
#   From: 2010.05.17/outbox.cif.g08.bks.cpg/sg15_158_cif.got.tgz:315165.got - 2010.06.03 18:47:42.
