data_PCOD9308415
_publ_section_title
;
Structure prediction by ZEFSAII (Michael W. Deem and Ramdas Pophale) SiO2 
 PCOD9308415
Probable space group: C 2/C
;
_chemical_formula_sum "Si O2"
_cell_formula_units_Z 28
_cell_length_a 17.928052
_cell_length_b 5.213774
_cell_length_c 12.737235
_cell_angle_alpha 90.000000
_cell_angle_beta 63.589356
_cell_angle_gamma 90.000000
_cell_volume 1066.322772
_symmetry_space_group_name_H-M "C 2/C"
_symmetry_group_IT_number 15
_symmetry_cell_setting 'monoclinic'
loop_
_space_group_symop_operation_xyz
x,y,z
-x,y,1/2-z
-x,-y,-z
x,-y,1/2+z
1/2+x,1/2+y,z
1/2-x,1/2+y,1/2-z
1/2-x,1/2-y,-z
1/2+x,1/2-y,1/2+z
loop_
_atom_site_type_symbol
_atom_site_label
_atom_site_fract_x
_atom_site_fract_y
_atom_site_fract_z
Si Si1 0.573317 0.897126 0.884916
Si Si2 0.500000 0.538977 0.750000
Si Si3 0.336156 0.386765 0.982890
Si Si4 0.795111 0.768235 0.686336
O O1 0.540283 0.716839 0.815034
O O2 0.623546 0.143326 0.813170
O O3 0.629453 0.761057 0.936868
O O4 0.500000 0.000000 0.000000
O O5 0.418242 0.409284 0.857266
O O6 0.250000 0.250000 0.000000
O O7 0.311165 0.656984 0.054931
O O8 0.732394 0.527710 0.737405
#
# Coordination Sequence:
#
# PCOD9308415 Si02
#       4
#     8   4   8   8
#     4  12  29  58  85 137 187 240 323 382 468 566
#     4  12  30  58  96 132 192 256 304 400 472 558
#     4  12  31  57  95 139 184 249 317 387 477 559
#     4  12  28  55  92 131 184 236 307 386 461 557
#
# _framework density 26.258462999999999
#
# number of rings (size 3 to 8) (size 9 to 14) (size 15 to 20)
#    0.000    0.000    5.714    0.857    8.000    4.571 
#    0.000    1.429    0.000    0.000    0.000    0.000 
#    0.000    0.000    0.000    0.000    0.000    0.000 
#
# Total GULP energy -78317.205060 kJ/mol
# GULP energy per Si atom -5594.086076 kJ/mol
# Density = 2.619870 g / cm^3
# Si number density = 26.258463 Si / 1000 Ang^3
#
#
#
# Elastic Constant Matrix: (Units=GPa)
#
#
# Indices 1 2 3 4 5 6 
#
# 1 227.8423 95.0186 111.1279 0.0002 0.1857 0.0002
# 2 95.0186 161.8574 101.9780 0.0005 -9.3350 0.0021
# 3 111.1279 101.9780 223.0848 -0.0001 -32.0483 -0.0003
# 4 0.0002 0.0005 -0.0001 75.3002 -0.0002 6.4053
# 5 0.1857 -9.3350 -32.0483 -0.0002 67.4654 0.0000
# 6 0.0002 0.0021 -0.0003 6.4053 0.0000 51.9064
#
#
#
# Elastic Compliance Matrix: (Units=1/GPa)
#
#
# Indices 1 2 3 4 5 6 
#
# 1 0.006564 -0.002451 -0.002362 0.000000 -0.001479 0.000000
# 2 -0.002451 0.009626 -0.003206 0.000000 -0.000184 0.000000
# 3 -0.002362 -0.003206 0.007579 0.000000 0.003163 0.000000
# 4 0.000000 0.000000 0.000000 0.013421 0.000000 -0.001656
# 5 -0.001479 -0.000184 0.003163 0.000000 0.016304 0.000000
# 6 0.000000 0.000000 0.000000 -0.001656 0.000000 0.019470
#
#
# Mechanical properties :
#
#
# Convention : Reuss Voigt Hill
#
# Bulk Modulus (GPa) = 129.33243 136.55928 132.94586
# Shear Modulus (GPa) = 54.59701 59.24507 56.92104
#
# Velocity S-wave (km/s) = 4.56479 4.75513 4.66093
# Velocity P-wave (km/s) = 8.78314 9.07012 8.92778
#
# Compressibility (1/GPa) = 0.00773201
#
# Stress axis : x y z
#
# Youngs Moduli (GPa) = 152.33754 103.88178 131.93606
#
# Poissons Ratio (x) = 0.25457 0.31167
# Poissons Ratio (y) = 0.37332 0.42301
# Poissons Ratio (z) = 0.35986 0.33306
#
# Static dielectric constant tensor:
#      x y z
#    x 2.098900 0.000000 -0.101960 
#    y 0.000000 2.013230 0.000000 
#    z -0.101960 0.000000 2.137130 
# 
# From -- ./inp_files/157977.got.cif
#   From: 2010.05.17/outbox.cif.g08.bks.cpg/sg15_79_cif.got.tgz:157977.got - 2010.06.03 18:47:42.
