data_PCOD9308898
_publ_section_title
;
Structure prediction by ZEFSAII (Michael W. Deem and Ramdas Pophale) SiO2 
 PCOD9308898
Probable space group: C 2/C
;
_chemical_formula_sum "Si O2"
_cell_formula_units_Z 24
_cell_length_a 15.000000
_cell_length_b 30.000000
_cell_length_c 15.000000
_cell_angle_alpha 90.000000
_cell_angle_beta 160.000000
_cell_angle_gamma 90.000000
_cell_volume 2308.635967
_symmetry_space_group_name_H-M "C 2/C"
_symmetry_group_IT_number 15
_symmetry_cell_setting 'monoclinic'
loop_
_space_group_symop_operation_xyz
x,y,z
-x,y,1/2-z
-x,-y,-z
x,-y,1/2+z
1/2+x,1/2+y,z
1/2-x,1/2+y,1/2-z
1/2-x,1/2-y,-z
1/2+x,1/2-y,1/2+z
loop_
_atom_site_type_symbol
_atom_site_label
_atom_site_fract_x
_atom_site_fract_y
_atom_site_fract_z
Si Si1 0.738301 0.475057 0.542880
Si Si2 0.844490 0.170085 0.316442
Si Si3 0.915575 0.440437 0.305196
Si Si4 0.054417 0.722353 0.199160
Si Si5 0.583342 0.834386 0.227816
Si Si6 0.866449 0.935732 0.862409
O O1 0.808598 0.526776 0.628504
O O2 0.706980 0.454067 0.610731
O O3 0.000000 0.453806 0.750000
O O4 0.500000 0.470711 0.250000
O O5 0.714745 0.190477 0.283693
O O6 0.835176 0.117162 0.323750
O O7 0.136625 0.179683 0.552330
O O8 0.642868 0.182586 0.049437
O O9 0.925028 0.388926 0.283600
O O10 0.182094 0.453611 0.607743
O O11 0.673908 0.444442 0.145490
O O12 0.261402 0.763751 0.394855
O O13 0.000000 0.706860 0.250000
O O14 0.500000 0.821424 0.250000
#
# Coordination Sequence:
#
# PCOD9308898 Si02
#       6
#     8   8   8   8   8   8
#     4  12  23  34  51  77 108 143 187 237 288 335
#     4  10  21  37  60  86 115 150 186 234 288 338
#     4  10  20  36  55  74 104 148 195 235 275 328
#     4  10  21  39  64  91 116 148 188 228 274 334
#     4  10  20  35  58  86 115 150 194 237 280 331
#     4  10  21  37  54  76 107 146 185 229 288 339
#
# _framework density 10.395749
#
# number of rings (size 3 to 8) (size 9 to 14) (size 15 to 20)
#    0.000    1.667    0.000    5.000    0.000    3.333 
#    0.000    2.500    0.000   10.000    0.000    0.000 
#    0.000    0.000    0.000    0.000    0.000    0.000 
#
# Total GULP energy -133759.073629 kJ/mol
# GULP energy per Si atom -5573.294735 kJ/mol
# Density = 1.037209 g / cm^3
# Si number density = 10.395749 Si / 1000 Ang^3
#
#
#
# Elastic Constant Matrix: (Units=GPa)
#
#
# Indices 1 2 3 4 5 6 
#
# 1 125.9876 20.6716 32.5384 -0.0017 21.2594 -0.0013
# 2 20.6716 4.5577 19.2531 0.0018 5.2925 0.0014
# 3 32.5384 19.2531 112.3127 -0.0063 -7.4531 -0.0013
# 4 -0.0017 0.0018 -0.0063 6.8879 -0.0009 -2.3136
# 5 21.2594 5.2925 -7.4531 -0.0009 33.8401 0.0002
# 6 -0.0013 0.0014 -0.0013 -2.3136 0.0002 21.2978
#
#
#
# Elastic Compliance Matrix: (Units=1/GPa)
#
#
# Indices 1 2 3 4 5 6 
#
# 1 0.000328 0.092286 -0.017137 -0.000047 -0.018414 -0.000012
# 2 0.092286 -0.881640 0.131624 0.000431 0.108897 0.000116
# 3 -0.017137 0.131624 -0.009485 -0.000055 -0.011908 -0.000016
# 4 -0.000047 0.000431 -0.000055 0.150681 -0.000046 0.016369
# 5 -0.018414 0.108897 -0.011908 -0.000046 0.021465 -0.000014
# 6 -0.000012 0.000116 -0.000016 0.016369 -0.000014 0.048731
#
#
# Mechanical properties :
#
#
# Convention : Reuss Voigt Hill
#
# Bulk Modulus (GPa) = -2.09534 43.08711 20.49589
# Shear Modulus (GPa) = -4.02399 23.76483 9.87042
#
# Velocity S-wave (km/s) = -1.39270 3.38451 2.18120
# Velocity P-wave (km/s) = 1.89634 6.00347 4.02775
#
# Compressibility (1/GPa) = -0.47724973
#
# Stress axis : x y z
#
# Youngs Moduli (GPa) = 3044.45997 -1.13425 -105.42755
#
# Poissons Ratio (x) = 0.10468 -1.80674
# Poissons Ratio (y) = -280.96235 13.87680
# Poissons Ratio (z) = 52.17358 0.14929
#
# Static dielectric constant tensor:
#      x y z
#    x 1.802230 0.000000 0.027740 
#    y 0.000000 1.781950 0.000000 
#    z 0.027740 0.000000 1.745130 
# 
# From -- ./inp_files/157599.got.cif
#   From: 2010.05.17/outbox.ucp.g08.bks.cvg/sg15_79_cif.got.tgz:157599.got - 2010.06.11 12:40:34.
