data_PCOD9308209
_publ_section_title
;
Structure prediction by ZEFSAII (Michael W. Deem and Ramdas Pophale) SiO2 
 PCOD9308209
Probable space group: C 2/C
;
_chemical_formula_sum "Si O2"
_cell_formula_units_Z 40
_cell_length_a 18.845395
_cell_length_b 5.311113
_cell_length_c 17.663941
_cell_angle_alpha 90.000000
_cell_angle_beta 68.853704
_cell_angle_gamma 90.000000
_cell_volume 1648.932339
_symmetry_space_group_name_H-M "C 2/C"
_symmetry_group_IT_number 15
_symmetry_cell_setting 'monoclinic'
loop_
_space_group_symop_operation_xyz
x,y,z
-x,y,1/2-z
-x,-y,-z
x,-y,1/2+z
1/2+x,1/2+y,z
1/2-x,1/2+y,1/2-z
1/2-x,1/2-y,-z
1/2+x,1/2-y,1/2+z
loop_
_atom_site_type_symbol
_atom_site_label
_atom_site_fract_x
_atom_site_fract_y
_atom_site_fract_z
Si Si1 0.291037 0.781439 0.813575
Si Si2 0.706604 0.361126 0.444420
Si Si3 0.515797 0.155223 0.653162
Si Si4 0.111067 0.151965 0.587110
Si Si5 0.861547 0.483591 0.646996
O O1 0.329551 0.632681 0.866844
O O2 0.212204 0.660466 0.818732
O O3 0.268290 0.048385 0.859509
O O4 0.349685 0.796503 0.722683
O O5 0.750000 0.250000 0.500000
O O6 0.659280 0.602169 0.492677
O O7 0.648892 0.171545 0.425924
O O8 0.500000 0.143903 0.750000
O O9 0.569790 0.919115 0.610994
O O10 0.553658 0.420663 0.618716
O O11 0.060563 0.376861 0.366550
#
# Coordination Sequence:
#
# PCOD9308209 Si02
#       5
#     8   8   8   8   8
#     4  12  26  49  79 112 151 207 263 321 380 473
#     4  12  27  48  78 117 153 200 262 328 389 454
#     4  12  29  49  77 112 157 204 255 316 393 465
#     4  12  28  50  79 109 158 203 250 320 390 457
#     4  12  28  46  81 114 151 205 265 320 384 471
#
# _framework density 24.258123000000001
#
# number of rings (size 3 to 8) (size 9 to 14) (size 15 to 20)
#    0.000    0.000    6.000    2.400    8.400    1.600 
#    0.000    0.000    0.000    0.000    0.000    0.000 
#    0.000    0.000    0.000    0.000    0.000    0.000 
#
# Total GULP energy -112159.457594 kJ/mol
# GULP energy per Si atom -5607.972880 kJ/mol
# Density = 2.420291 g / cm^3
# Si number density = 24.258123 Si / 1000 Ang^3
#
#
#
# Elastic Constant Matrix: (Units=GPa)
#
#
# Indices 1 2 3 4 5 6 
#
# 1 152.2300 9.3259 10.8425 0.0023 14.2054 0.0022
# 2 9.3259 57.1799 11.0218 0.0041 2.5520 0.0056
# 3 10.8425 11.0218 96.9563 0.0005 13.5689 0.0003
# 4 0.0023 0.0041 0.0005 -10.0049 0.0011 -32.8648
# 5 14.2054 2.5520 13.5689 0.0011 34.6689 0.0008
# 6 0.0022 0.0056 0.0003 -32.8648 0.0008 47.9842
#
#
#
# Elastic Compliance Matrix: (Units=1/GPa)
#
#
# Indices 1 2 3 4 5 6 
#
# 1 0.006894 -0.000950 -0.000294 0.000000 -0.002640 0.000000
# 2 -0.000950 0.018021 -0.001916 0.000004 -0.000187 0.000001
# 3 -0.000294 -0.001916 0.011138 0.000000 -0.004098 0.000000
# 4 0.000000 0.000004 0.000000 -0.030756 0.000001 -0.021065
# 5 -0.002640 -0.000187 -0.004098 0.000001 0.031544 0.000000
# 6 0.000000 0.000001 0.000000 -0.021065 0.000000 0.006413
#
#
# Mechanical properties :
#
#
# Convention : Reuss Voigt Hill
#
# Bulk Modulus (GPa) = 33.63107 40.97184 37.30145
# Shear Modulus (GPa) = 84.05391 32.87469 58.46430
#
# Velocity S-wave (km/s) = 5.89279 3.68530 4.91459
# Velocity P-wave (km/s) = 7.75848 5.91906 6.90033
#
# Compressibility (1/GPa) = 0.02973441
#
# Stress axis : x y z
#
# Youngs Moduli (GPa) = 145.04347 55.48976 89.78214
#
# Poissons Ratio (x) = 0.05272 0.02635
# Poissons Ratio (y) = 0.13780 0.17204
# Poissons Ratio (z) = 0.04257 0.10633
#
# Static dielectric constant tensor:
#      x y z
#    x 1.884020 0.000000 0.008590 
#    y 0.000000 1.977510 0.000000 
#    z 0.008590 0.000000 1.956450 
# 
# From -- ./inp_files/217414.got.cif
#   From: 2010.05.17/outbox.cif.g08.bks.cpg/sg15_109_cif.got.tgz:217414.got - 2010.06.03 18:47:42.
