data_PCOD9308581
_publ_section_title
;
Structure prediction by ZEFSAII (Michael W. Deem and Ramdas Pophale) SiO2 
 PCOD9308581
Probable space group: C 2/C
;
_chemical_formula_sum "Si O2"
_cell_formula_units_Z 48
_cell_length_a 7.064528
_cell_length_b 17.858809
_cell_length_c 14.936108
_cell_angle_alpha 90.000000
_cell_angle_beta 79.159447
_cell_angle_gamma 90.000000
_cell_volume 1850.771682
_symmetry_space_group_name_H-M "C 2/C"
_symmetry_group_IT_number 15
_symmetry_cell_setting 'monoclinic'
loop_
_space_group_symop_operation_xyz
x,y,z
-x,y,1/2-z
-x,-y,-z
x,-y,1/2+z
1/2+x,1/2+y,z
1/2-x,1/2+y,1/2-z
1/2-x,1/2-y,-z
1/2+x,1/2-y,1/2+z
loop_
_atom_site_type_symbol
_atom_site_label
_atom_site_fract_x
_atom_site_fract_y
_atom_site_fract_z
Si Si1 0.213401 0.877450 0.311844
Si Si2 0.755894 0.521356 0.407393
Si Si3 0.609017 0.154437 0.880199
Si Si4 0.348671 0.784879 0.649734
Si Si5 0.292376 0.317155 0.646520
Si Si6 0.887890 0.578713 0.048674
O O1 0.219585 0.866283 0.203744
O O2 0.423492 0.865080 0.337812
O O3 0.121638 0.803462 0.364024
O O4 0.170655 0.961484 0.344631
O O5 0.658042 0.600918 0.394562
O O6 0.753112 0.474976 0.501505
O O7 0.992914 0.536418 0.382790
O O8 0.612457 0.242563 0.902218
O O9 0.570112 0.107588 0.972132
O O10 0.564645 0.811329 0.648186
O O11 0.210137 0.801725 0.746296
O O12 0.281540 0.844251 0.581972
#
# Coordination Sequence:
#
# PCOD9308581 Si02
#       6
#     8   8   8   8   8   8
#     4   9  18  33  51  70  94 126 159 191 232 282
#     4   9  18  29  48  72  96 121 158 198 232 268
#     4   9  18  31  51  71  94 126 159 190 232 284
#     4   9  18  31  51  71  94 126 159 190 232 284
#     4   9  18  33  51  70  94 126 159 191 232 282
#     4   9  18  30  48  73  96 122 158 197 232 272
#
# _framework density 25.935127000000001
#
# number of rings (size 3 to 8) (size 9 to 14) (size 15 to 20)
#    0.000    3.000    0.000    0.000    0.000   17.333 
#    0.000    0.000    0.000   33.000    0.000    0.000 
#    0.000    0.000    0.000    0.000    0.000    0.000 
#
# Total GULP energy -133680.397195 kJ/mol
# GULP energy per Si atom -5570.016550 kJ/mol
# Density = 2.587610 g / cm^3
# Si number density = 25.935127 Si / 1000 Ang^3
#
#
#
# Elastic Constant Matrix: (Units=GPa)
#
#
# Indices 1 2 3 4 5 6 
#
# 1 33.5520 28.2897 3.3993 0.0000 -5.1049 0.0000
# 2 28.2897 256.5365 59.9036 0.0000 5.7260 0.0000
# 3 3.3993 59.9036 64.5312 0.0000 8.5700 0.0000
# 4 0.0000 0.0000 0.0000 -36.8124 0.0000 17.2486
# 5 -5.1049 5.7260 8.5700 0.0000 12.0373 0.0000
# 6 0.0000 0.0000 0.0000 17.2486 0.0000 30.1443
#
#
#
# Elastic Compliance Matrix: (Units=1/GPa)
#
#
# Indices 1 2 3 4 5 6 
#
# 1 0.036143 -0.004327 -0.000217 0.000000 0.017541 0.000000
# 2 -0.004327 0.005506 -0.004740 0.000000 -0.001079 0.000000
# 3 -0.000217 -0.004740 0.021670 0.000000 -0.013265 0.000000
# 4 0.000000 0.000000 0.000000 -0.021422 0.000000 0.012257
# 5 0.017541 -0.001079 -0.013265 0.000000 0.100472 0.000000
# 6 0.000000 0.000000 0.000000 0.012257 0.000000 0.026160
#
#
# Mechanical properties :
#
#
# Convention : Reuss Voigt Hill
#
# Bulk Modulus (GPa) = 22.34554 59.75610 41.05082
# Shear Modulus (GPa) = 24.75081 18.60897 21.67989
#
# Velocity S-wave (km/s) = 3.09258 2.68156 2.89438
# Velocity P-wave (km/s) = 4.62458 5.71650 5.19928
#
# Compressibility (1/GPa) = 0.04475166
#
# Stress axis : x y z
#
# Youngs Moduli (GPa) = 27.66768 181.61592 46.14766
#
# Poissons Ratio (x) = 0.78577 0.01002
# Poissons Ratio (y) = 0.11971 0.21874
# Poissons Ratio (z) = 0.00601 0.86086
#
# Static dielectric constant tensor:
#      x y z
#    x 2.038090 0.000000 0.034160 
#    y 0.000000 2.129570 0.000000 
#    z 0.034160 0.000000 2.236500 
# 
# From -- ./inp_files/189772.got.cif
#   From: 2010.05.17/outbox.cif.g08.bks.cpg/sg15_95_cif.got.tgz:189772.got - 2010.06.03 18:47:42.
