data_PCOD9308411
_publ_section_title
;
Structure prediction by ZEFSAII (Michael W. Deem and Ramdas Pophale) SiO2 
 PCOD9308411
Probable space group: C 2/C
;
_chemical_formula_sum "Si O2"
_cell_formula_units_Z 32
_cell_length_a 14.121231
_cell_length_b 7.880790
_cell_length_c 11.962409
_cell_angle_alpha 90.000000
_cell_angle_beta 62.522741
_cell_angle_gamma 90.000000
_cell_volume 1181.080698
_symmetry_space_group_name_H-M "C 2/C"
_symmetry_group_IT_number 15
_symmetry_cell_setting 'monoclinic'
loop_
_space_group_symop_operation_xyz
x,y,z
-x,y,1/2-z
-x,-y,-z
x,-y,1/2+z
1/2+x,1/2+y,z
1/2-x,1/2+y,1/2-z
1/2-x,1/2-y,-z
1/2+x,1/2-y,1/2+z
loop_
_atom_site_type_symbol
_atom_site_label
_atom_site_fract_x
_atom_site_fract_y
_atom_site_fract_z
Si Si1 0.915274 0.819699 0.128245
Si Si2 0.793568 0.833746 0.743027
Si Si3 0.098682 0.702979 0.610485
Si Si4 0.638443 0.818927 0.514743
O O1 0.854346 0.989864 0.195583
O O2 0.833213 0.671813 0.211653
O O3 0.921034 0.811679 0.990172
O O4 0.034530 0.789421 0.105924
O O5 0.807214 0.772215 0.862143
O O6 0.847839 0.705718 0.625680
O O7 0.117656 0.510841 0.561121
O O8 0.000000 0.711811 0.750000
O O9 0.750000 0.750000 0.500000
#
# Coordination Sequence:
#
# PCOD9308411 Si02
#       4
#     8   8   8   8
#     4  12  28  55  85 122 168 216 279 337 414 491
#     4  12  28  54  85 124 164 219 277 345 408 491
#     4  12  28  53  83 120 169 214 272 348 411 485
#     4  12  29  52  83 121 163 221 276 337 414 488
#
# _framework density 27.093833
#
# number of rings (size 3 to 8) (size 9 to 14) (size 15 to 20)
#    0.000    0.000    2.500    5.250    7.000    2.000 
#    0.000    0.000    0.000    0.000    0.000    0.000 
#    0.000    0.000    0.000    0.000    0.000    0.000 
#
# Total GULP energy -89914.014147 kJ/mol
# GULP energy per Si atom -5619.625884 kJ/mol
# Density = 2.703217 g / cm^3
# Si number density = 27.093833 Si / 1000 Ang^3
#
#
#
# Elastic Constant Matrix: (Units=GPa)
#
#
# Indices 1 2 3 4 5 6 
#
# 1 175.4619 53.9396 61.0341 0.0000 -37.3869 0.0000
# 2 53.9396 179.8338 63.3851 0.0000 -10.4277 0.0000
# 3 61.0341 63.3851 177.3402 0.0000 -5.8604 0.0000
# 4 0.0000 0.0000 0.0000 69.6028 0.0000 0.5025
# 5 -37.3869 -10.4277 -5.8604 0.0000 75.3772 0.0000
# 6 0.0000 0.0000 0.0000 0.5025 0.0000 31.2570
#
#
#
# Elastic Compliance Matrix: (Units=1/GPa)
#
#
# Indices 1 2 3 4 5 6 
#
# 1 0.007534 -0.001360 -0.001995 0.000000 0.003394 0.000000
# 2 -0.001360 0.006645 -0.001904 0.000000 0.000097 0.000000
# 3 -0.001995 -0.001904 0.006982 0.000000 -0.000710 0.000000
# 4 0.000000 0.000000 0.000000 0.014369 0.000000 -0.000231
# 5 0.003394 0.000097 -0.000710 0.000000 0.014908 0.000000
# 6 0.000000 0.000000 0.000000 -0.000231 0.000000 0.031997
#
#
# Mechanical properties :
#
#
# Convention : Reuss Voigt Hill
#
# Bulk Modulus (GPa) = 93.94357 98.81704 96.38030
# Shear Modulus (GPa) = 51.81280 58.86589 55.33934
#
# Velocity S-wave (km/s) = 4.37778 4.66624 4.52431
# Velocity P-wave (km/s) = 7.76544 8.09834 7.93363
#
# Compressibility (1/GPa) = 0.01064469
#
# Stress axis : x y z
#
# Youngs Moduli (GPa) = 132.72543 150.48290 143.21594
#
# Poissons Ratio (x) = 0.20465 0.28569
# Poissons Ratio (y) = 0.18050 0.27267
# Poissons Ratio (z) = 0.26476 0.28651
#
# Static dielectric constant tensor:
#      x y z
#    x 2.207590 0.000000 -0.020330 
#    y 0.000000 2.062620 0.000000 
#    z -0.020330 0.000000 2.116890 
# 
# From -- ./inp_files/27872.got.cif
#   From: 2010.05.17/outbox.cif.g08.bks.cpg/sg15_14_cif.got.tgz:27872.got - 2010.06.03 18:47:42.
