data_PCOD9308851
_publ_section_title
;
Structure prediction by ZEFSAII (Michael W. Deem and Ramdas Pophale) SiO2 
 PCOD9308851
Probable space group: C 2/C
;
_chemical_formula_sum "Si O2"
_cell_formula_units_Z 32
_cell_length_a 21.000000
_cell_length_b 27.000000
_cell_length_c 18.000000
_cell_angle_alpha 90.000000
_cell_angle_beta 20.000000
_cell_angle_gamma 90.000000
_cell_volume 3490.657583
_symmetry_space_group_name_H-M "C 2/C"
_symmetry_group_IT_number 15
_symmetry_cell_setting 'monoclinic'
loop_
_space_group_symop_operation_xyz
x,y,z
-x,y,1/2-z
-x,-y,-z
x,-y,1/2+z
1/2+x,1/2+y,z
1/2-x,1/2+y,1/2-z
1/2-x,1/2-y,-z
1/2+x,1/2-y,1/2+z
loop_
_atom_site_type_symbol
_atom_site_label
_atom_site_fract_x
_atom_site_fract_y
_atom_site_fract_z
Si Si1 0.656581 0.706826 0.930045
Si Si2 0.043009 0.688421 0.293940
Si Si3 0.131282 0.208224 0.781636
Si Si4 0.484861 0.081144 0.855078
Si Si5 0.121727 0.950630 0.839679
Si Si6 0.297957 0.638832 0.132772
Si Si7 0.087898 0.898314 0.570560
Si Si8 0.922982 0.314704 0.488139
O O1 0.597760 0.713053 0.907591
O O2 0.871941 0.692830 0.703191
O O3 0.564536 0.659890 0.072498
O O4 0.631177 0.762370 0.988905
O O5 0.118845 0.741408 0.245170
O O6 0.169523 0.646549 0.198610
O O7 0.000000 0.687513 0.250000
O O8 0.836244 0.686216 0.552456
O O9 0.986502 0.168476 0.909055
O O10 0.500000 0.068830 0.750000
O O11 0.695249 0.083913 0.658554
O O12 0.416522 0.138281 0.940287
O O13 0.332405 0.048301 0.069602
O O14 0.153270 0.913427 0.877397
O O15 0.004518 0.926851 0.898764
O O16 0.000000 0.000000 0.000000
O O17 0.200790 0.670429 0.305204
O O18 0.000000 0.905697 0.750000
#
# Coordination Sequence:
#
# PCOD9308851 Si02
#       8
#     8   8   8   8   8   8   8   8
#     4  11  19  33  55  91 132 182 214 255 303 379
#     4  12  24  36  57  91 130 177 222 275 330 389
#     4  12  20  34  57  85 127 175 227 255 317 390
#     4  10  22  40  65  99 136 172 211 270 333 399
#     4  11  25  45  72  96 120 169 229 279 342 410
#     4  11  22  38  62  88 127 170 220 282 321 396
#     4  11  23  40  67 101 135 169 217 272 331 399
#     4  10  20  31  54  90 134 174 219 248 304 381
#
# _framework density 9.1673270000000002
#
# number of rings (size 3 to 8) (size 9 to 14) (size 15 to 20)
#    0.000    1.000    6.250    1.125    1.750    1.000 
#    0.000    2.500    2.750    1.500    0.000    0.000 
#    0.000    0.000    0.000    0.000    0.000    0.000 
#
# Total GULP energy -178138.711974 kJ/mol
# GULP energy per Si atom -5566.834749 kJ/mol
# Density = 0.914646 g / cm^3
# Si number density = 9.167327 Si / 1000 Ang^3
#
#
#
# Elastic Constant Matrix: (Units=GPa)
#
#
# Indices 1 2 3 4 5 6 
#
# 1 119.9288 39.9648 26.9640 0.0022 -1.0264 0.0028
# 2 39.9648 97.9555 37.8199 0.0086 2.5340 -0.0047
# 3 26.9640 37.8199 95.7694 -0.0091 -13.5708 -0.0021
# 4 0.0022 0.0086 -0.0091 29.9552 -0.0035 -1.3687
# 5 -1.0264 2.5340 -13.5708 -0.0035 37.7036 0.0274
# 6 0.0028 -0.0047 -0.0021 -1.3687 0.0274 28.1523
#
#
#
# Elastic Compliance Matrix: (Units=1/GPa)
#
#
# Indices 1 2 3 4 5 6 
#
# 1 0.009805 -0.003462 -0.001394 0.000000 -0.000002 -0.000002
# 2 -0.003462 0.013526 -0.004751 -0.000005 -0.002713 0.000005
# 3 -0.001394 -0.004751 0.013436 0.000006 0.005117 -0.000004
# 4 0.000000 -0.000005 0.000006 0.033457 0.000004 0.001627
# 5 -0.000002 -0.002713 0.005117 0.000004 0.028547 -0.000028
# 6 -0.000002 0.000005 -0.000004 0.001627 -0.000028 0.035600
#
#
# Mechanical properties :
#
#
# Convention : Reuss Voigt Hill
#
# Bulk Modulus (GPa) = 56.97206 58.12790 57.54998
# Shear Modulus (GPa) = 31.36045 33.08923 32.22484
#
# Velocity S-wave (km/s) = 4.14024 4.25283 4.19691
# Velocity P-wave (km/s) = 7.34822 7.47583 7.41230
#
# Compressibility (1/GPa) = 0.01755246
#
# Stress axis : x y z
#
# Youngs Moduli (GPa) = 101.98459 73.93236 74.42945
#
# Poissons Ratio (x) = 0.25598 0.10373
# Poissons Ratio (y) = 0.35311 0.35362
# Poissons Ratio (z) = 0.14214 0.35126
#
# Static dielectric constant tensor:
#      x y z
#    x 1.654840 -0.000030 -0.011500 
#    y -0.000030 1.664000 0.000080 
#    z -0.011500 0.000080 1.698340 
# 
# From -- ./inp_files/217119.got.cif
#   From: 2010.05.17/outbox.ucp.g08.bks.cvg/sg15_109_cif.got.tgz:217119.got - 2010.06.11 12:40:34.
