data_PCOD9308327
_publ_section_title
;
Structure prediction by ZEFSAII (Michael W. Deem and Ramdas Pophale) SiO2 
 PCOD9308327
Probable space group: C 2/C
;
_chemical_formula_sum "Si O2"
_cell_formula_units_Z 32
_cell_length_a 19.043142
_cell_length_b 9.123235
_cell_length_c 7.994739
_cell_angle_alpha 90.000000
_cell_angle_beta 119.797076
_cell_angle_gamma 90.000000
_cell_volume 1205.332333
_symmetry_space_group_name_H-M "C 2/C"
_symmetry_group_IT_number 15
_symmetry_cell_setting 'monoclinic'
loop_
_space_group_symop_operation_xyz
x,y,z
-x,y,1/2-z
-x,-y,-z
x,-y,1/2+z
1/2+x,1/2+y,z
1/2-x,1/2+y,1/2-z
1/2-x,1/2-y,-z
1/2+x,1/2-y,1/2+z
loop_
_atom_site_type_symbol
_atom_site_label
_atom_site_fract_x
_atom_site_fract_y
_atom_site_fract_z
Si Si1 0.163666 0.466229 0.594658
Si Si2 0.919309 0.933557 0.042075
Si Si3 0.072224 0.670056 0.700370
Si Si4 0.821106 0.839256 0.234056
O O1 0.148436 0.381164 0.402703
O O2 0.180673 0.332747 0.739306
O O3 0.238300 0.576339 0.671024
O O4 0.084006 0.555199 0.560698
O O5 0.851628 0.871180 0.084895
O O6 0.000000 0.935760 0.250000
O O7 0.926147 0.826035 0.890495
O O8 0.888200 0.088529 0.936762
O O9 0.000000 0.665023 0.750000
#
# Coordination Sequence:
#
# PCOD9308327 Si02
#       4
#     8   8   8   8
#     4  12  27  49  77 111 150 196 249 307 371 440
#     4  12  27  50  78 110 150 196 248 306 373 444
#     4  12  27  50  78 110 150 196 248 306 373 444
#     4  12  27  49  77 111 150 196 249 307 371 440
#
# _framework density 26.548697000000001
#
# number of rings (size 3 to 8) (size 9 to 14) (size 15 to 20)
#    0.000    0.000    0.000    9.000    0.000   10.000 
#    0.000    5.000    0.000    0.000    0.000    0.000 
#    0.000    0.000    0.000    0.000    0.000    0.000 
#
# Total GULP energy -89805.677869 kJ/mol
# GULP energy per Si atom -5612.854867 kJ/mol
# Density = 2.648827 g / cm^3
# Si number density = 26.548697 Si / 1000 Ang^3
#
#
#
# Elastic Constant Matrix: (Units=GPa)
#
#
# Indices 1 2 3 4 5 6 
#
# 1 198.6074 66.8976 18.9730 0.0000 -18.3155 0.0000
# 2 66.8976 180.2918 18.4849 0.0000 5.2913 0.0000
# 3 18.9730 18.4849 77.1123 0.0000 -0.5220 0.0000
# 4 0.0000 0.0000 0.0000 56.6470 0.0000 -17.8538
# 5 -18.3155 5.2913 -0.5220 0.0000 50.8188 0.0000
# 6 0.0000 0.0000 0.0000 -17.8538 0.0000 42.4816
#
#
#
# Elastic Compliance Matrix: (Units=1/GPa)
#
#
# Indices 1 2 3 4 5 6 
#
# 1 0.006103 -0.002238 -0.000949 0.000000 0.002423 0.000000
# 2 -0.002238 0.006526 -0.001024 0.000000 -0.001497 0.000000
# 3 -0.000949 -0.001024 0.013446 0.000000 -0.000097 0.000000
# 4 0.000000 0.000000 0.000000 0.020349 0.000000 0.008552
# 5 0.002423 -0.001497 -0.000097 0.000000 0.020706 0.000000
# 6 0.000000 0.000000 0.000000 0.008552 0.000000 0.027134
#
#
# Mechanical properties :
#
#
# Convention : Reuss Voigt Hill
#
# Bulk Modulus (GPa) = 56.64523 73.85805 65.25164
# Shear Modulus (GPa) = 46.05334 53.43322 49.74328
#
# Velocity S-wave (km/s) = 4.16946 4.49112 4.33328
# Velocity P-wave (km/s) = 6.67547 7.40093 7.04754
#
# Compressibility (1/GPa) = 0.01765374
#
# Stress axis : x y z
#
# Youngs Moduli (GPa) = 163.85124 153.23274 74.37007
#
# Poissons Ratio (x) = 0.34300 0.07055
# Poissons Ratio (y) = 0.36677 0.07614
# Poissons Ratio (z) = 0.15544 0.15687
#
# Static dielectric constant tensor:
#      x y z
#    x 2.065320 0.000000 -0.022410 
#    y 0.000000 2.030640 0.000000 
#    z -0.022410 0.000000 2.175520 
# 
# From -- ./inp_files/45965.got.cif
#   From: 2010.05.17/outbox.cif.g08.bks.cpg/sg15_23_cif.got.tgz:45965.got - 2010.06.03 18:47:42.
