data_PCOD9308039
_publ_section_title
;
Structure prediction by ZEFSAII (Michael W. Deem and Ramdas Pophale) SiO2 
 PCOD9308039
Probable space group: C 2/C
;
_chemical_formula_sum "Si O2"
_cell_formula_units_Z 24
_cell_length_a 10.504580
_cell_length_b 9.810481
_cell_length_c 10.345605
_cell_angle_alpha 90.000000
_cell_angle_beta 86.149875
_cell_angle_gamma 90.000000
_cell_volume 1063.759919
_symmetry_space_group_name_H-M "C 2/C"
_symmetry_group_IT_number 15
_symmetry_cell_setting 'monoclinic'
loop_
_space_group_symop_operation_xyz
x,y,z
-x,y,1/2-z
-x,-y,-z
x,-y,1/2+z
1/2+x,1/2+y,z
1/2-x,1/2+y,1/2-z
1/2-x,1/2-y,-z
1/2+x,1/2-y,1/2+z
loop_
_atom_site_type_symbol
_atom_site_label
_atom_site_fract_x
_atom_site_fract_y
_atom_site_fract_z
Si Si1 0.641707 0.865709 0.478514
Si Si2 0.000000 0.337261 0.750000
Si Si3 0.260312 0.155430 0.122280
Si Si4 0.000000 0.770054 0.750000
O O1 0.750000 0.750000 0.500000
O O2 0.565271 0.900242 0.616113
O O3 0.545641 0.812386 0.373839
O O4 0.702939 0.003156 0.419959
O O5 0.872437 0.273766 0.698521
O O6 0.126143 0.148724 0.203582
O O7 0.250000 0.250000 0.000000
#
# Coordination Sequence:
#
# PCOD9308039 Si02
#       4
#     8   4   8   4
#     4  12  28  48  77 112 152 195 252 313 374 444
#     4  12  25  49  80 106 153 199 252 304 381 443
#     4  12  28  47  79 111 151 199 251 307 379 447
#     4  12  27  51  78 114 153 199 252 312 377 451
#
# _framework density 22.561481000000001
#
# number of rings (size 3 to 8) (size 9 to 14) (size 15 to 20)
#    0.000    0.000    6.667    2.000    4.667    2.667 
#    0.000    0.000    0.000    0.000    0.000    0.000 
#    0.000    0.000    0.000    0.000    0.000    0.000 
#
# Total GULP energy -66989.757647 kJ/mol
# GULP energy per Si atom -5582.479804 kJ/mol
# Density = 2.251013 g / cm^3
# Si number density = 22.561481 Si / 1000 Ang^3
#
#
#
# Elastic Constant Matrix: (Units=GPa)
#
#
# Indices 1 2 3 4 5 6 
#
# 1 208.9802 48.9429 74.2630 0.0000 -2.1010 0.0000
# 2 48.9429 80.0255 28.7579 0.0000 0.6712 0.0000
# 3 74.2630 28.7579 173.7321 0.0000 2.9544 0.0000
# 4 0.0000 0.0000 0.0000 -14.0683 0.0000 -11.5014
# 5 -2.1010 0.6712 2.9544 0.0000 79.0379 0.0000
# 6 0.0000 0.0000 0.0000 -11.5014 0.0000 42.7393
#
#
#
# Elastic Compliance Matrix: (Units=1/GPa)
#
#
# Indices 1 2 3 4 5 6 
#
# 1 0.006280 -0.003059 -0.002183 0.000000 0.000275 0.000000
# 2 -0.003059 0.014776 -0.001136 0.000000 -0.000164 0.000000
# 3 -0.002183 -0.001136 0.006882 0.000000 -0.000306 0.000000
# 4 0.000000 0.000000 0.000000 -0.058264 0.000000 -0.015679
# 5 0.000275 -0.000164 -0.000306 0.000000 0.012672 0.000000
# 6 0.000000 0.000000 0.000000 -0.015679 0.000000 0.019178
#
#
# Mechanical properties :
#
#
# Convention : Reuss Voigt Hill
#
# Bulk Modulus (GPa) = 65.85826 85.18504 75.52165
# Shear Modulus (GPa) = 258.52006 42.26004 150.39005
#
# Velocity S-wave (km/s) = 10.71604 4.33263 8.17329
# Velocity P-wave (km/s) = 13.50427 7.92892 11.07323
#
# Compressibility (1/GPa) = 0.01518412
#
# Stress axis : x y z
#
# Youngs Moduli (GPa) = 159.23832 67.67663 145.30223
#
# Poissons Ratio (x) = 0.20700 0.31716
# Poissons Ratio (y) = 0.48705 0.16501
# Poissons Ratio (z) = 0.34758 0.07686
#
# Static dielectric constant tensor:
#      x y z
#    x 1.867570 0.000000 0.020420 
#    y 0.000000 1.832550 0.000000 
#    z 0.020420 0.000000 1.845230 
# 
# From -- ./inp_files/27022.got.cif
#   From: 2010.05.17/outbox.cif.g08.bks.cpg/sg15_14_cif.got.tgz:27022.got - 2010.06.03 18:47:42.
