data_PCOD9308409
_publ_section_title
;
Structure prediction by ZEFSAII (Michael W. Deem and Ramdas Pophale) SiO2 
 PCOD9308409
Probable space group: C 2/C
;
_chemical_formula_sum "Si O2"
_cell_formula_units_Z 28
_cell_length_a 25.173396
_cell_length_b 4.756832
_cell_length_c 17.239335
_cell_angle_alpha 90.000000
_cell_angle_beta 147.680038
_cell_angle_gamma 90.000000
_cell_volume 1103.690003
_symmetry_space_group_name_H-M "C 2/C"
_symmetry_group_IT_number 15
_symmetry_cell_setting 'monoclinic'
loop_
_space_group_symop_operation_xyz
x,y,z
-x,y,1/2-z
-x,-y,-z
x,-y,1/2+z
1/2+x,1/2+y,z
1/2-x,1/2+y,1/2-z
1/2-x,1/2-y,-z
1/2+x,1/2-y,1/2+z
loop_
_atom_site_type_symbol
_atom_site_label
_atom_site_fract_x
_atom_site_fract_y
_atom_site_fract_z
Si Si1 0.000000 0.844408 0.750000
Si Si2 0.673639 0.591489 0.739193
Si Si3 0.069670 0.408761 0.189245
Si Si4 0.116598 0.772099 0.516035
O O1 0.932156 0.646545 0.720761
O O2 0.934845 0.043946 0.614197
O O3 0.595918 0.394913 0.688575
O O4 0.791459 0.581435 0.898115
O O5 0.656741 0.489953 0.630332
O O6 0.647766 0.895443 0.741941
O O7 0.964316 0.561015 0.046438
#
# Coordination Sequence:
#
# PCOD9308409 Si02
#       4
#     4   8   8   8
#     4  12  30  52  80 118 182 200 270 334 412 472
#     4  12  29  49  92 111 160 214 282 320 408 471
#     4  12  28  53  81 121 159 220 262 340 398 479
#     4  12  29  56  80 127 160 213 273 340 389 500
#
# _framework density 25.369444999999999
#
# number of rings (size 3 to 8) (size 9 to 14) (size 15 to 20)
#    0.000    0.000    2.857    4.286   12.000    2.286 
#    0.000    0.000    0.000    0.000    0.000    0.000 
#    0.000    0.000    0.000    0.000    0.000    0.000 
#
# Total GULP energy -78369.508044 kJ/mol
# GULP energy per Si atom -5597.822003 kJ/mol
# Density = 2.531170 g / cm^3
# Si number density = 25.369445 Si / 1000 Ang^3
#
#
#
# Elastic Constant Matrix: (Units=GPa)
#
#
# Indices 1 2 3 4 5 6 
#
# 1 124.9766 26.5586 69.1498 0.0019 -0.5138 0.0028
# 2 26.5586 102.4529 32.2056 0.0093 -11.1932 0.0031
# 3 69.1498 32.2056 132.2308 -0.0003 3.3267 -0.0013
# 4 0.0019 0.0093 -0.0003 36.9138 0.0025 -23.0012
# 5 -0.5138 -11.1932 3.3267 0.0025 53.4404 0.0017
# 6 0.0028 0.0031 -0.0013 -23.0012 0.0017 20.0937
#
#
#
# Elastic Compliance Matrix: (Units=1/GPa)
#
#
# Indices 1 2 3 4 5 6 
#
# 1 0.011390 -0.001141 -0.005684 -0.000005 0.000224 -0.000008
# 2 -0.001141 0.010995 -0.002142 -0.000014 0.002425 -0.000018
# 3 -0.005684 -0.002142 0.011087 0.000008 -0.001193 0.000011
# 4 -0.000005 -0.000014 0.000008 0.094479 -0.000011 0.108150
# 5 0.000224 0.002425 -0.001193 -0.000011 0.019297 -0.000015
# 6 -0.000008 -0.000018 0.000011 0.108150 -0.000015 0.173565
#
#
# Mechanical properties :
#
#
# Convention : Reuss Voigt Hill
#
# Bulk Modulus (GPa) = 64.36373 68.38759 66.37566
# Shear Modulus (GPa) = 14.53802 37.53935 26.03868
#
# Velocity S-wave (km/s) = 2.39645 3.85087 3.20719
# Velocity P-wave (km/s) = 5.75178 6.84014 6.31943
#
# Compressibility (1/GPa) = 0.01553670
#
# Stress axis : x y z
#
# Youngs Moduli (GPa) = 87.79691 90.95259 90.19833
#
# Poissons Ratio (x) = 0.10381 0.51269
# Poissons Ratio (y) = 0.10021 0.19320
# Poissons Ratio (z) = 0.49904 0.19482
#
# Static dielectric constant tensor:
#      x y z
#    x 1.988580 0.000000 -0.044840 
#    y 0.000000 1.998550 0.000000 
#    z -0.044840 0.000000 1.983530 
# 
# From -- ./inp_files/158113.got.cif
#   From: 2010.05.17/outbox.cif.g08.bks.cpg/sg15_80_cif.got.tgz:158113.got - 2010.06.03 18:47:42.
