data_PCOD9308793
_publ_section_title
;
Structure prediction by ZEFSAII (Michael W. Deem and Ramdas Pophale) SiO2 
 PCOD9308793
Probable space group: C 2/C
;
_chemical_formula_sum "Si O2"
_cell_formula_units_Z 28
_cell_length_a 9.000000
_cell_length_b 18.000000
_cell_length_c 24.000000
_cell_angle_alpha 90.000000
_cell_angle_beta 50.000000
_cell_angle_gamma 90.000000
_cell_volume 2978.380795
_symmetry_space_group_name_H-M "C 2/C"
_symmetry_group_IT_number 15
_symmetry_cell_setting 'monoclinic'
loop_
_space_group_symop_operation_xyz
x,y,z
-x,y,1/2-z
-x,-y,-z
x,-y,1/2+z
1/2+x,1/2+y,z
1/2-x,1/2+y,1/2-z
1/2-x,1/2-y,-z
1/2+x,1/2-y,1/2+z
loop_
_atom_site_type_symbol
_atom_site_label
_atom_site_fract_x
_atom_site_fract_y
_atom_site_fract_z
Si Si1 0.959512 0.353219 0.646044
Si Si2 0.698990 0.189225 0.430784
Si Si3 0.421727 0.422850 0.961520
Si Si4 0.801103 0.502683 0.889157
Si Si5 0.286305 0.245794 0.285190
Si Si6 0.635753 0.288629 0.941360
Si Si7 0.550044 0.831804 0.173964
O O1 0.846299 0.353980 0.615370
O O2 0.827230 0.313397 0.725487
O O3 0.046423 0.433495 0.644196
O O4 0.147144 0.299688 0.587856
O O5 0.810984 0.130869 0.444244
O O6 0.501478 0.220376 0.507901
O O7 0.816588 0.265048 0.384519
O O8 0.612884 0.471726 0.900215
O O9 0.513866 0.363098 0.982696
O O10 0.277142 0.476766 0.029877
O O11 0.877320 0.583200 0.849617
O O12 0.500000 0.270207 0.250000
O O13 0.183094 0.209753 0.363736
O O14 0.157556 0.317139 0.303736
O O15 0.500000 0.815265 0.250000
#
# Coordination Sequence:
#
# PCOD9308793 Si02
#       7
#     8   8   8   8   8   8   8
#     4  10  23  39  61  91 134 165 206 263 327 377
#     4  12  21  38  67  98 121 166 218 268 307 369
#     4  10  20  37  63  92 126 161 209 257 313 384
#     4  10  23  41  60  92 128 168 205 254 325 383
#     4  10  21  39  63  91 122 167 212 254 317 386
#     4  10  19  36  64  91 120 166 212 255 305 382
#     4  12  23  40  65  93 123 162 219 267 306 379
#
# _framework density 9.4010809999999996
#
# number of rings (size 3 to 8) (size 9 to 14) (size 15 to 20)
#    0.000    1.429    4.286    1.714    0.000    3.429 
#    0.000    1.429    0.000    0.000    0.000    0.000 
#    0.000    0.000    0.000    0.000    0.000    0.000 
#
# Total GULP energy -155890.579753 kJ/mol
# GULP energy per Si atom -5567.520705 kJ/mol
# Density = 0.937968 g / cm^3
# Si number density = 9.401081 Si / 1000 Ang^3
#
#
#
# Elastic Constant Matrix: (Units=GPa)
#
#
# Indices 1 2 3 4 5 6 
#
# 1 70.6790 33.1374 29.2462 0.0004 0.7505 -0.0004
# 2 33.1374 114.3065 37.6248 0.0004 -8.0656 -0.0004
# 3 29.2462 37.6248 99.7085 0.0008 -3.9553 -0.0005
# 4 0.0004 0.0004 0.0008 27.3253 -0.0004 -7.0551
# 5 0.7505 -8.0656 -3.9553 -0.0004 18.0547 0.0002
# 6 -0.0004 -0.0004 -0.0005 -7.0551 0.0002 37.1326
#
#
#
# Elastic Compliance Matrix: (Units=1/GPa)
#
#
# Indices 1 2 3 4 5 6 
#
# 1 0.017676 -0.004126 -0.003763 0.000000 -0.003402 0.000000
# 2 -0.004126 0.011199 -0.002835 0.000000 0.004553 0.000000
# 3 -0.003763 -0.002835 0.012265 0.000000 0.001577 0.000000
# 4 0.000000 0.000000 0.000000 0.038484 0.000001 0.007312
# 5 -0.003402 0.004553 0.001577 0.000001 0.057908 0.000000
# 6 0.000000 0.000000 0.000000 0.007312 0.000000 0.028320
#
#
# Mechanical properties :
#
#
# Convention : Reuss Voigt Hill
#
# Bulk Modulus (GPa) = 50.77976 53.85675 52.31826
# Shear Modulus (GPa) = 25.79132 28.81489 27.30311
#
# Velocity S-wave (km/s) = 3.70769 3.91900 3.81481
# Velocity P-wave (km/s) = 6.73761 7.01314 6.87676
#
# Compressibility (1/GPa) = 0.01969288
#
# Stress axis : x y z
#
# Youngs Moduli (GPa) = 56.57406 89.29411 81.53079
#
# Poissons Ratio (x) = 0.36841 0.30678
# Poissons Ratio (y) = 0.23341 0.23115
# Poissons Ratio (z) = 0.21288 0.25316
#
# Static dielectric constant tensor:
#      x y z
#    x 1.783740 0.000000 0.009210 
#    y 0.000000 1.636670 0.000000 
#    z 0.009210 0.000000 1.704930 
# 
# From -- ./inp_files/265481.got.cif
#   From: 2010.05.17/outbox.ucp.g08.bks.cvg/sg15_133_cif.got.tgz:265481.got - 2010.06.11 12:40:34.
