data_PCOD9308738
_publ_section_title
;
Structure prediction by ZEFSAII (Michael W. Deem and Ramdas Pophale) SiO2 
 PCOD9308738
Probable space group: C 2/C
;
_chemical_formula_sum "Si O2"
_cell_formula_units_Z 28
_cell_length_a 15.000000
_cell_length_b 24.000000
_cell_length_c 9.000000
_cell_angle_alpha 90.000000
_cell_angle_beta 110.000000
_cell_angle_gamma 90.000000
_cell_volume 3044.604091
_symmetry_space_group_name_H-M "C 2/C"
_symmetry_group_IT_number 15
_symmetry_cell_setting 'monoclinic'
loop_
_space_group_symop_operation_xyz
x,y,z
-x,y,1/2-z
-x,-y,-z
x,-y,1/2+z
1/2+x,1/2+y,z
1/2-x,1/2+y,1/2-z
1/2-x,1/2-y,-z
1/2+x,1/2-y,1/2+z
loop_
_atom_site_type_symbol
_atom_site_label
_atom_site_fract_x
_atom_site_fract_y
_atom_site_fract_z
Si Si1 0.316803 0.672416 0.952544
Si Si2 0.361066 0.521213 0.663217
Si Si3 0.115325 0.277474 0.324033
Si Si4 0.613522 0.279514 0.302135
Si Si5 0.329989 0.578252 0.353639
Si Si6 0.055225 0.928500 0.994796
Si Si7 0.219597 0.801430 0.655088
O O1 0.201415 0.677229 0.903088
O O2 0.351590 0.679046 0.804608
O O3 0.373403 0.617471 0.032995
O O4 0.365074 0.728168 0.047478
O O5 0.306489 0.558697 0.509949
O O6 0.308316 0.473843 0.732107
O O7 0.427044 0.484106 0.591308
O O8 0.412744 0.558281 0.818002
O O9 0.157909 0.245550 0.205130
O O10 0.000000 0.290370 0.250000
O O11 0.500000 0.272677 0.250000
O O12 0.674920 0.222825 0.309482
O O13 0.658952 0.306117 0.472750
O O14 0.445001 0.587705 0.418645
O O15 0.281204 0.636418 0.280483
#
# Coordination Sequence:
#
# PCOD9308738 Si02
#       7
#     8   8   8   8   8   8   8
#     4  10  21  31  50  74  96 129 163 187 237 287
#     4  10  21  30  44  66  93 122 155 192 236 280
#     4  10  19  34  49  72 101 126 157 198 231 280
#     4  10  19  34  49  72 101 126 157 198 231 280
#     4  11  18  30  45  66  94 123 153 191 233 281
#     4  11  18  30  45  66  94 123 153 191 233 281
#     4  10  21  31  50  74  96 129 163 187 237 287
#
# _framework density 9.1965979999999998
#
# number of rings (size 3 to 8) (size 9 to 14) (size 15 to 20)
#    0.000    1.714    0.000    7.714    0.000    0.000 
#    0.000    0.000    0.000    0.000    0.000    6.000 
#    0.000    0.000    0.000    0.000    0.000    0.000 
#
# Total GULP energy -155897.734748 kJ/mol
# GULP energy per Si atom -5567.776241 kJ/mol
# Density = 0.917567 g / cm^3
# Si number density = 9.196598 Si / 1000 Ang^3
#
#
#
# Elastic Constant Matrix: (Units=GPa)
#
#
# Indices 1 2 3 4 5 6 
#
# 1 68.1313 55.9311 53.2486 0.0000 13.4254 0.0000
# 2 55.9311 76.7849 -19.0567 0.0000 13.5076 0.0000
# 3 53.2486 -19.0567 38.5992 0.0000 -5.1058 0.0000
# 4 0.0000 0.0000 0.0000 11.1172 0.0000 0.2724
# 5 13.4254 13.5076 -5.1058 0.0000 29.1584 0.0000
# 6 0.0000 0.0000 0.0000 0.2724 0.0000 33.3309
#
#
#
# Elastic Compliance Matrix: (Units=1/GPa)
#
#
# Indices 1 2 3 4 5 6 
#
# 1 -0.009300 0.010947 0.018560 0.000000 0.002460 0.000000
# 2 0.010947 0.002951 -0.014836 0.000000 -0.009006 0.000000
# 3 0.018560 -0.014836 -0.007414 0.000000 -0.002971 0.000000
# 4 0.000000 0.000000 0.000000 0.089968 0.000000 -0.000735
# 5 0.002460 -0.009006 -0.002971 0.000000 0.036814 0.000000
# 6 0.000000 0.000000 0.000000 -0.000735 0.000000 0.030008
#
#
# Mechanical properties :
#
#
# Convention : Reuss Voigt Hill
#
# Bulk Modulus (GPa) = 64.19112 40.41793 52.30453
# Shear Modulus (GPa) = 42.05919 20.94746 31.50333
#
# Velocity S-wave (km/s) = 4.78710 3.37838 4.14305
# Velocity P-wave (km/s) = 8.09508 6.10246 7.16834
#
# Compressibility (1/GPa) = 0.01557848
#
# Stress axis : x y z
#
# Youngs Moduli (GPa) = -107.52923 338.84370 -134.87958
#
# Poissons Ratio (x) = -3.70947 2.50331
# Poissons Ratio (y) = 1.17717 -2.00114
# Poissons Ratio (z) = 1.99570 5.02725
#
# Static dielectric constant tensor:
#      x y z
#    x 1.602670 0.000000 0.033010 
#    y 0.000000 1.755480 0.000000 
#    z 0.033010 0.000000 1.394950 
# 
# From -- ./inp_files/42260.got.cif
#   From: 2010.05.17/outbox.ucp.g08.bks.cvg/sg15_22_cif.got.tgz:42260.got - 2010.06.11 12:40:34.
