data_PCOD9308962
_publ_section_title
;
Structure prediction by ZEFSAII (Michael W. Deem and Ramdas Pophale) SiO2 
 PCOD9308962
Probable space group: C 2/C
;
_chemical_formula_sum "Si O2"
_cell_formula_units_Z 24
_cell_length_a 12.000000
_cell_length_b 9.000000
_cell_length_c 24.000000
_cell_angle_alpha 90.000000
_cell_angle_beta 110.000000
_cell_angle_gamma 90.000000
_cell_volume 2435.683273
_symmetry_space_group_name_H-M "C 2/C"
_symmetry_group_IT_number 15
_symmetry_cell_setting 'monoclinic'
loop_
_space_group_symop_operation_xyz
x,y,z
-x,y,1/2-z
-x,-y,-z
x,-y,1/2+z
1/2+x,1/2+y,z
1/2-x,1/2+y,1/2-z
1/2-x,1/2-y,-z
1/2+x,1/2-y,1/2+z
loop_
_atom_site_type_symbol
_atom_site_label
_atom_site_fract_x
_atom_site_fract_y
_atom_site_fract_z
Si Si1 0.689216 0.952761 0.863499
Si Si2 0.676858 0.255152 0.928462
Si Si3 0.488246 0.332011 0.161905
Si Si4 0.964743 0.041253 0.430945
Si Si5 0.236426 0.644301 0.762298
Si Si6 0.193639 0.936112 0.818741
O O1 0.660950 0.089453 0.900833
O O2 0.696746 0.026236 0.803085
O O3 0.826636 0.911970 0.901434
O O4 0.595136 0.816043 0.850477
O O5 0.552491 0.331953 0.923005
O O6 0.729340 0.352871 0.883974
O O7 0.750000 0.250000 0.000000
O O8 0.510502 0.396392 0.103476
O O9 0.622225 0.316935 0.208317
O O10 0.418728 0.464015 0.182247
O O11 0.000000 0.000000 0.500000
O O12 0.224208 0.557655 0.700799
O O13 0.175044 0.800727 0.770720
#
# Coordination Sequence:
#
# PCOD9308962 Si02
#       6
#     8   8   8   8   8   8
#     4  10  21  38  62  88 120 163 202 253 307 366
#     4  10  20  38  62  92 130 165 208 258 310 373
#     4  10  22  38  59  88 119 155 204 254 307 367
#     4  10  20  37  59  83 123 164 200 249 306 362
#     4  10  21  39  61  87 122 152 202 256 310 372
#     4  10  21  38  63  88 120 164 201 258 317 372
#
# _framework density 9.8534980000000001
#
# number of rings (size 3 to 8) (size 9 to 14) (size 15 to 20)
#    0.000    2.000    1.667    1.500    0.000    2.000 
#    0.000    7.500    0.000    0.000    0.000    0.000 
#    0.000    0.000    0.000    0.000    0.000    0.000 
#
# Total GULP energy -133892.626987 kJ/mol
# GULP energy per Si atom -5578.859458 kJ/mol
# Density = 0.983107 g / cm^3
# Si number density = 9.853498 Si / 1000 Ang^3
#
#
#
# Elastic Constant Matrix: (Units=GPa)
#
#
# Indices 1 2 3 4 5 6 
#
# 1 100.4960 63.9921 24.9613 0.0000 -5.5892 0.0000
# 2 63.9921 143.2739 42.3280 0.0000 -0.9067 0.0000
# 3 24.9613 42.3280 98.9124 0.0000 -28.3476 0.0000
# 4 0.0000 0.0000 0.0000 35.4523 0.0000 -11.8013
# 5 -5.5892 -0.9067 -28.3476 0.0000 34.2085 0.0000
# 6 0.0000 0.0000 0.0000 -11.8013 0.0000 50.4953
#
#
#
# Elastic Compliance Matrix: (Units=1/GPa)
#
#
# Indices 1 2 3 4 5 6 
#
# 1 0.014069 -0.006154 -0.000400 0.000000 0.001804 0.000000
# 2 -0.006154 0.011003 -0.004406 0.000000 -0.004365 0.000000
# 3 -0.000400 -0.004406 0.015796 0.000000 0.012907 0.000000
# 4 0.000000 0.000000 0.000000 0.030586 0.000000 0.007148
# 5 0.001804 -0.004365 0.012907 0.000000 0.040107 0.000000
# 6 0.000000 0.000000 0.000000 0.007148 0.000000 0.021474
#
#
# Mechanical properties :
#
#
# Convention : Reuss Voigt Hill
#
# Bulk Modulus (GPa) = 52.78015 67.24946 60.01480
# Shear Modulus (GPa) = 31.00352 38.12462 34.56407
#
# Velocity S-wave (km/s) = 3.97069 4.40315 4.19250
# Velocity P-wave (km/s) = 6.91827 7.74913 7.34546
#
# Compressibility (1/GPa) = 0.01894652
#
# Stress axis : x y z
#
# Youngs Moduli (GPa) = 71.07755 90.88764 63.30889
#
# Poissons Ratio (x) = 0.55936 0.02530
# Poissons Ratio (y) = 0.43744 0.27896
# Poissons Ratio (z) = 0.02841 0.40048
#
# Static dielectric constant tensor:
#      x y z
#    x 1.707840 0.000000 -0.011820 
#    y 0.000000 1.708290 0.000000 
#    z -0.011820 0.000000 1.725110 
# 
# From -- ./inp_files/267627.got.cif
#   From: 2010.05.17/outbox.ucp.g08.bks.cvg/sg15_134_cif.got.tgz:267627.got - 2010.06.11 12:40:34.
