data_PCOD9308737
_publ_section_title
;
Structure prediction by ZEFSAII (Michael W. Deem and Ramdas Pophale) SiO2 
 PCOD9308737
Probable space group: C 2/C
;
_chemical_formula_sum "Si O2"
_cell_formula_units_Z 24
_cell_length_a 27.000000
_cell_length_b 12.000000
_cell_length_c 21.000000
_cell_angle_alpha 90.000000
_cell_angle_beta 20.000000
_cell_angle_gamma 90.000000
_cell_volume 2327.105055
_symmetry_space_group_name_H-M "C 2/C"
_symmetry_group_IT_number 15
_symmetry_cell_setting 'monoclinic'
loop_
_space_group_symop_operation_xyz
x,y,z
-x,y,1/2-z
-x,-y,-z
x,-y,1/2+z
1/2+x,1/2+y,z
1/2-x,1/2+y,1/2-z
1/2-x,1/2-y,-z
1/2+x,1/2-y,1/2+z
loop_
_atom_site_type_symbol
_atom_site_label
_atom_site_fract_x
_atom_site_fract_y
_atom_site_fract_z
Si Si1 0.300041 0.983172 0.800176
Si Si2 0.000000 0.701904 0.250000
Si Si3 0.532236 0.333000 0.085538
Si Si4 0.118386 0.610562 0.917507
Si Si5 0.746991 0.956005 0.394845
Si Si6 0.782058 0.605309 0.948802
Si Si7 0.500000 0.750699 0.250000
O O1 0.449763 0.917814 0.609709
O O2 0.304564 0.083067 0.742571
O O3 0.302888 0.011625 0.871204
O O4 0.156624 0.915077 0.958837
O O5 0.965976 0.775493 0.228957
O O6 0.867087 0.624841 0.431953
O O7 0.403828 0.397176 0.204846
O O8 0.612433 0.238165 0.947330
O O9 0.187138 0.539270 0.893968
O O10 0.756270 0.061142 0.433357
O O11 0.939700 0.665795 0.767257
O O12 0.646546 0.673823 0.079286
#
# Coordination Sequence:
#
# PCOD9308737 Si02
#       7
#     8   4   8   8   8   8   4
#     4  11  23  42  62  86 129 169 209 256 319 370
#     4  10  19  33  62  98 124 156 188 262 328 372
#     4  11  21  38  63  97 122 159 210 257 313 383
#     4  10  23  41  58  91 127 170 204 257 318 379
#     4  11  21  37  66  91 126 156 207 265 318 367
#     4  11  21  41  61  92 119 166 208 266 304 376
#     4  10  23  39  60  90 122 158 220 250 316 362
#
# _framework density 10.313243
#
# number of rings (size 3 to 8) (size 9 to 14) (size 15 to 20)
#    0.000    1.333    0.000    8.000    0.000    0.667 
#   15.000    0.000    0.000    0.000    0.000    0.000 
#    0.000    0.000    0.000    0.000    0.000    0.000 
#
# Total GULP energy -133719.572501 kJ/mol
# GULP energy per Si atom -5571.648854 kJ/mol
# Density = 1.028977 g / cm^3
# Si number density = 10.313243 Si / 1000 Ang^3
#
#
#
# Elastic Constant Matrix: (Units=GPa)
#
#
# Indices 1 2 3 4 5 6 
#
# 1 73.3037 -9.6647 33.2555 0.0000 -15.3574 0.0000
# 2 -9.6647 26.0095 16.6519 0.0000 -2.8442 0.0000
# 3 33.2555 16.6519 46.5709 -0.0004 -35.0663 0.0000
# 4 0.0000 0.0000 -0.0004 19.7444 0.0002 -20.0440
# 5 -15.3574 -2.8442 -35.0663 0.0002 46.6267 0.0000
# 6 0.0000 0.0000 0.0000 -20.0440 0.0000 27.6066
#
#
#
# Elastic Compliance Matrix: (Units=1/GPa)
#
#
# Indices 1 2 3 4 5 6 
#
# 1 2.632416 4.475604 -6.044571 -0.000239 -3.405873 -0.000169
# 2 4.475604 7.674269-10.323541 -0.000407 -5.821736 -0.000289
# 3 -6.044571-10.323541 13.962598 0.000551 7.880174 0.000391
# 4 -0.000239 -0.000407 0.000551 0.192631 0.000310 0.139861
# 5 -3.405873 -5.821736 7.880174 0.000310 4.470949 0.000220
# 6 -0.000169 -0.000289 0.000391 0.139861 0.000220 0.137771
#
#
# Mechanical properties :
#
#
# Convention : Reuss Voigt Hill
#
# Bulk Modulus (GPa) = 2.06499 25.15216 13.60857
# Shear Modulus (GPa) = 0.09431 25.83828 12.96629
#
# Velocity S-wave (km/s) = 0.21406 3.54315 2.50996
# Velocity P-wave (km/s) = 1.03170 5.38137 3.87450
#
# Compressibility (1/GPa) = 0.48426446
#
# Stress axis : x y z
#
# Youngs Moduli (GPa) = 0.37988 0.13031 0.07162
#
# Poissons Ratio (x) = -0.58320 0.43291
# Poissons Ratio (y) = -1.70019 0.73937
# Poissons Ratio (z) = 2.29621 1.34521
#
# Static dielectric constant tensor:
#      x y z
#    x 1.733280 0.000000 0.010360 
#    y 0.000000 1.857570 0.000000 
#    z 0.010360 0.000000 1.704850 
# 
# From -- ./inp_files/69874.got.cif
#   From: 2010.05.17/outbox.ucp.g08.bks.cvg/sg15_35_cif.got.tgz:69874.got - 2010.06.11 12:40:34.
