data_PCOD9308018
_publ_section_title
;
Structure prediction by ZEFSAII (Michael W. Deem and Ramdas Pophale) SiO2 
 PCOD9308018
Probable space group: C 2/C
;
_chemical_formula_sum "Si O2"
_cell_formula_units_Z 48
_cell_length_a 17.804240
_cell_length_b 8.339264
_cell_length_c 27.746664
_cell_angle_alpha 90.000000
_cell_angle_beta 151.998775
_cell_angle_gamma 90.000000
_cell_volume 1934.143495
_symmetry_space_group_name_H-M "C 2/C"
_symmetry_group_IT_number 15
_symmetry_cell_setting 'monoclinic'
loop_
_space_group_symop_operation_xyz
x,y,z
-x,y,1/2-z
-x,-y,-z
x,-y,1/2+z
1/2+x,1/2+y,z
1/2-x,1/2+y,1/2-z
1/2-x,1/2-y,-z
1/2+x,1/2-y,1/2+z
loop_
_atom_site_type_symbol
_atom_site_label
_atom_site_fract_x
_atom_site_fract_y
_atom_site_fract_z
Si Si1 0.599148 0.848392 0.758167
Si Si2 0.171483 0.663142 0.736220
Si Si3 0.018922 0.824638 0.395407
Si Si4 0.679815 0.686051 0.338187
Si Si5 0.134782 0.174857 0.475118
Si Si6 0.135972 0.615944 0.551235
O O1 0.500000 0.885724 0.750000
O O2 0.632238 0.006021 0.745133
O O3 0.726327 0.488341 0.882972
O O4 0.765638 0.753697 0.863713
O O5 0.332915 0.635727 0.799374
O O6 0.198278 0.799974 0.791738
O O7 0.028059 0.724498 0.622084
O O8 0.931750 0.300112 0.534985
O O9 0.020089 0.754735 0.342804
O O10 0.113396 0.988760 0.452952
O O11 0.500000 0.723479 0.250000
O O12 0.794992 0.805385 0.431880
O O13 0.250000 0.250000 0.500000
O O14 0.000000 0.500000 0.500000
#
# Coordination Sequence:
#
# PCOD9308018 Si02
#       6
#     8   8   8   8   8   8
#     4  12  30  50  78 117 167 209 271 336 408 487
#     4  12  26  50  81 115 160 208 269 334 409 481
#     4  12  29  51  82 118 163 213 273 342 410 490
#     4  12  25  48  76 113 158 206 265 335 402 486
#     4  12  28  47  82 113 156 215 272 330 413 486
#     4  12  28  49  80 119 160 212 270 335 409 490
#
# _framework density 24.817188000000002
#
# number of rings (size 3 to 8) (size 9 to 14) (size 15 to 20)
#    0.000    0.000    3.333    5.000   11.667    2.000 
#    0.000    0.000    0.000    0.000    0.000    0.000 
#    0.000    0.000    0.000    0.000    0.000    0.000 
#
# Total GULP energy -134663.469548 kJ/mol
# GULP energy per Si atom -5610.977898 kJ/mol
# Density = 2.476070 g / cm^3
# Si number density = 24.817188 Si / 1000 Ang^3
#
#
#
# Elastic Constant Matrix: (Units=GPa)
#
#
# Indices 1 2 3 4 5 6 
#
# 1 79.0475 24.6059 25.8273 0.0000 -1.8496 0.0000
# 2 24.6059 129.7490 45.5015 0.0000 5.3159 0.0001
# 3 25.8273 45.5015 152.9679 0.0002 -12.1104 0.0002
# 4 0.0000 0.0000 0.0002 32.1494 0.0000 -4.4721
# 5 -1.8496 5.3159 -12.1104 0.0000 27.0784 0.0000
# 6 0.0000 0.0001 0.0002 -4.4721 0.0000 33.6724
#
#
#
# Elastic Compliance Matrix: (Units=1/GPa)
#
#
# Indices 1 2 3 4 5 6 
#
# 1 0.013855 -0.002064 -0.001678 0.000000 0.000601 0.000000
# 2 -0.002064 0.009144 -0.002617 0.000000 -0.003107 0.000000
# 3 -0.001678 -0.002617 0.007911 0.000000 0.003937 0.000000
# 4 0.000000 0.000000 0.000000 0.031690 0.000000 0.004209
# 5 0.000601 -0.003107 0.003937 0.000000 0.039342 0.000000
# 6 0.000000 0.000000 0.000000 0.004209 0.000000 0.030257
#
#
# Mechanical properties :
#
#
# Convention : Reuss Voigt Hill
#
# Bulk Modulus (GPa) = 54.96956 61.51488 58.24222
# Shear Modulus (GPa) = 33.11684 36.30204 34.70944
#
# Velocity S-wave (km/s) = 3.65695 3.82878 3.74385
# Velocity P-wave (km/s) = 6.32684 6.66236 6.49677
#
# Compressibility (1/GPa) = 0.01819189
#
# Stress axis : x y z
#
# Youngs Moduli (GPa) = 72.17455 109.36454 126.40823
#
# Poissons Ratio (x) = 0.22570 0.21210
# Poissons Ratio (y) = 0.14895 0.33086
# Poissons Ratio (z) = 0.12110 0.28625
#
# Static dielectric constant tensor:
#      x y z
#    x 1.948280 0.000000 0.012790 
#    y 0.000000 1.999850 0.000000 
#    z 0.012790 0.000000 1.977650 
# 
# From -- ./inp_files/298802.got.cif
#   From: 2010.05.17/outbox.cif.g08.bks.cpg/sg15_150_cif.got.tgz:298802.got - 2010.06.03 18:47:42.
