data_PCOD9308976
_publ_section_title
;
Structure prediction by ZEFSAII (Michael W. Deem and Ramdas Pophale) SiO2 
 PCOD9308976
Probable space group: C 2/C
;
_chemical_formula_sum "Si O2"
_cell_formula_units_Z 20
_cell_length_a 12.000000
_cell_length_b 9.000000
_cell_length_c 18.000000
_cell_angle_alpha 90.000000
_cell_angle_beta 100.000000
_cell_angle_gamma 90.000000
_cell_volume 1914.466272
_symmetry_space_group_name_H-M "C 2/C"
_symmetry_group_IT_number 15
_symmetry_cell_setting 'monoclinic'
loop_
_space_group_symop_operation_xyz
x,y,z
-x,y,1/2-z
-x,-y,-z
x,-y,1/2+z
1/2+x,1/2+y,z
1/2-x,1/2+y,1/2-z
1/2-x,1/2-y,-z
1/2+x,1/2-y,1/2+z
loop_
_atom_site_type_symbol
_atom_site_label
_atom_site_fract_x
_atom_site_fract_y
_atom_site_fract_z
Si Si1 0.872153 0.148790 0.915813
Si Si2 0.586026 0.798316 0.988473
Si Si3 0.071013 0.160883 0.148112
Si Si4 0.822698 0.818249 0.683005
Si Si5 0.225131 0.015449 0.955961
O O1 0.765728 0.194541 0.853776
O O2 0.962701 0.279309 0.939265
O O3 0.929890 0.007824 0.882858
O O4 0.834657 0.098427 0.994116
O O5 0.658497 0.670510 0.955336
O O6 0.591060 0.756186 0.076450
O O7 0.652316 0.952258 0.993605
O O8 0.161137 0.169525 0.226302
O O9 0.949337 0.204368 0.166737
O O10 0.778635 0.958385 0.628680
#
# Coordination Sequence:
#
# PCOD9308976 Si02
#       5
#     8   8   8   8   8
#     4  11  21  41  59  85 116 153 193 239 280 344
#     4  10  20  38  63  85 115 154 192 238 282 338
#     4  10  22  40  57  85 123 149 189 241 287 336
#     4  11  22  37  61  86 116 156 188 237 290 340
#     4  10  20  37  62  87 113 150 198 233 282 344
#
# _framework density 10.446776
#
# number of rings (size 3 to 8) (size 9 to 14) (size 15 to 20)
#    0.000    1.600    4.000    1.800    2.800    0.800 
#    0.000    0.000    0.000    0.000    0.000    0.000 
#    0.000    0.000    0.000    0.000    0.000    0.000 
#
# Total GULP energy -111597.474162 kJ/mol
# GULP energy per Si atom -5579.873708 kJ/mol
# Density = 1.042300 g / cm^3
# Si number density = 10.446776 Si / 1000 Ang^3
#
#
#
# Elastic Constant Matrix: (Units=GPa)
#
#
# Indices 1 2 3 4 5 6 
#
# 1 87.4210 22.1356 15.2387 0.0000 26.2185 0.0000
# 2 22.1356 -0.0587 -21.7324 0.0000 3.2702 0.0000
# 3 15.2387 -21.7324 101.6067 0.0000 21.9460 0.0000
# 4 0.0000 0.0000 0.0000 20.7311 0.0000 15.6914
# 5 26.2185 3.2702 21.9460 0.0000 40.0469 0.0000
# 6 0.0000 0.0000 0.0000 15.6914 0.0000 31.7645
#
#
#
# Elastic Compliance Matrix: (Units=1/GPa)
#
#
# Indices 1 2 3 4 5 6 
#
# 1 0.007511 0.023357 0.006061 0.000000 -0.010146 0.000000
# 2 0.023357 -0.081133 -0.021533 0.000000 0.003134 0.000000
# 3 0.006061 -0.021533 0.005449 0.000000 -0.005196 0.000000
# 4 0.000000 0.000000 0.000000 0.077044 0.000000 -0.038059
# 5 -0.010146 0.003134 -0.005196 0.000000 0.034205 0.000000
# 6 0.000000 0.000000 0.000000 -0.038059 0.000000 0.050282
#
#
# Mechanical properties :
#
#
# Convention : Reuss Voigt Hill
#
# Bulk Modulus (GPa) = -19.08290 24.47256 2.69483
# Shear Modulus (GPa) = 83.16460 30.06364 56.61412
#
# Velocity S-wave (km/s) = 6.31588 3.79739 5.21107
# Velocity P-wave (km/s) = 6.63581 5.56465 6.12369
#
# Compressibility (1/GPa) = -0.05240293
#
# Stress axis : x y z
#
# Youngs Moduli (GPa) = 133.13472 -12.32546 183.50386
#
# Poissons Ratio (x) = 0.28789 -1.11217
# Poissons Ratio (y) = -3.10964 3.95143
# Poissons Ratio (z) = -0.80690 -0.26541
#
# Static dielectric constant tensor:
#      x y z
#    x 1.835160 0.000000 0.005400 
#    y 0.000000 1.782460 0.000000 
#    z 0.005400 0.000000 1.698230 
# 
# From -- ./inp_files/141747.got.cif
#   From: 2010.05.17/outbox.ucp.g08.bks.cvg/sg15_71_cif.got.tgz:141747.got - 2010.06.11 12:40:34.
