data_PCOD9308869
_publ_section_title
;
Structure prediction by ZEFSAII (Michael W. Deem and Ramdas Pophale) SiO2 
 PCOD9308869
Probable space group: C 2/C
;
_chemical_formula_sum "Si O2"
_cell_formula_units_Z 26
_cell_length_a 21.000000
_cell_length_b 27.000000
_cell_length_c 15.000000
_cell_angle_alpha 90.000000
_cell_angle_beta 20.000000
_cell_angle_gamma 90.000000
_cell_volume 2908.881319
_symmetry_space_group_name_H-M "C 2/C"
_symmetry_group_IT_number 15
_symmetry_cell_setting 'monoclinic'
loop_
_space_group_symop_operation_xyz
x,y,z
-x,y,1/2-z
-x,-y,-z
x,-y,1/2+z
1/2+x,1/2+y,z
1/2-x,1/2+y,1/2-z
1/2-x,1/2-y,-z
1/2+x,1/2-y,1/2+z
loop_
_atom_site_type_symbol
_atom_site_label
_atom_site_fract_x
_atom_site_fract_y
_atom_site_fract_z
Si Si1 0.509975 0.052728 0.535958
Si Si2 0.500000 0.979225 0.250000
Si Si3 0.802211 0.128572 0.561844
Si Si4 0.189452 0.694755 0.553817
Si Si5 0.593234 0.585351 0.535166
Si Si6 0.088855 0.009955 0.287304
Si Si7 0.034919 0.121941 0.409683
O O1 0.538513 0.048720 0.605694
O O2 0.310695 0.077961 0.788108
O O3 0.500000 0.000000 0.500000
O O4 0.681698 0.083332 0.267568
O O5 0.303733 0.006559 0.493981
O O6 0.683549 0.165356 0.655676
O O7 0.846558 0.139550 0.607075
O O8 0.000000 0.128078 0.250000
O O9 0.250000 0.750000 0.500000
O O10 0.320327 0.663338 0.313964
O O11 0.000000 0.697810 0.750000
O O12 0.500000 0.605304 0.750000
O O13 0.531262 0.527367 0.613383
O O14 0.531248 0.610504 0.520926
O O15 0.083811 0.069786 0.293532
O O16 0.000000 0.000000 0.500000
#
# Coordination Sequence:
#
# PCOD9308869 Si02
#       7
#     8   4   8   8   8   8   8
#     4  12  24  35  56  83 112 162 215 250 307 359
#     4  12  20  34  56  74 108 152 208 252 310 336
#     4  10  22  36  60  88 120 157 194 251 317 368
#     4  11  22  38  63  96 126 150 191 250 323 379
#     4  11  23  40  54  82 122 171 215 257 291 363
#     4  10  20  34  54  78 119 159 212 247 302 355
#     4  10  20  37  58  81 122 158 200 249 313 360
#
# _framework density 8.9381439999999994
#
# number of rings (size 3 to 8) (size 9 to 14) (size 15 to 20)
#    0.000    1.231    3.077    6.000    4.308    2.462 
#    0.000    0.000    0.000    0.000    0.000    9.692 
#    0.000    0.000    0.000    0.000    0.000    0.000 
#
# Total GULP energy -144739.807688 kJ/mol
# GULP energy per Si atom -5566.915680 kJ/mol
# Density = 0.891780 g / cm^3
# Si number density = 8.938144 Si / 1000 Ang^3
#
#
#
# Elastic Constant Matrix: (Units=GPa)
#
#
# Indices 1 2 3 4 5 6 
#
# 1 140.1842 33.3039 26.3401 0.0347 9.0645 -0.0134
# 2 33.3039 91.2296 15.4676 0.0343 -0.4938 -0.0385
# 3 26.3401 15.4676 71.6729 -0.0241 -1.0237 0.0261
# 4 0.0347 0.0343 -0.0241 20.9315 -0.0129 -2.8375
# 5 9.0645 -0.4938 -1.0237 -0.0129 42.3697 0.0165
# 6 -0.0134 -0.0385 0.0261 -2.8375 0.0165 29.5133
#
#
#
# Elastic Compliance Matrix: (Units=1/GPa)
#
#
# Indices 1 2 3 4 5 6 
#
# 1 0.008355 -0.002631 -0.002530 -0.000013 -0.001879 0.000002
# 2 -0.002631 0.012207 -0.001658 -0.000015 0.000665 0.000014
# 3 -0.002530 -0.001658 0.015252 0.000023 0.000890 -0.000015
# 4 -0.000013 -0.000015 0.000023 0.048406 0.000016 0.004654
# 5 -0.001879 0.000665 0.000890 0.000016 0.024033 -0.000013
# 6 0.000002 0.000014 -0.000015 0.004654 -0.000013 0.034330
#
#
# Mechanical properties :
#
#
# Convention : Reuss Voigt Hill
#
# Bulk Modulus (GPa) = 45.09202 50.36776 47.72989
# Shear Modulus (GPa) = 30.55974 33.76124 32.16049
#
# Velocity S-wave (km/s) = 4.13911 4.35052 4.24613
# Velocity P-wave (km/s) = 6.93702 7.31252 7.12724
#
# Compressibility (1/GPa) = 0.02217687
#
# Stress axis : x y z
#
# Youngs Moduli (GPa) = 119.68196 81.92246 65.56342
#
# Poissons Ratio (x) = 0.21558 0.16585
# Poissons Ratio (y) = 0.31494 0.10869
# Poissons Ratio (z) = 0.30275 0.13580
#
# Static dielectric constant tensor:
#      x y z
#    x 1.822680 0.000050 0.015130 
#    y 0.000050 1.650220 0.000210 
#    z 0.015130 0.000210 1.692990 
# 
# From -- ./inp_files/169859.got.cif
#   From: 2010.05.17/outbox.ucp.g08.bks.cvg/sg15_85_cif.got.tgz:169859.got - 2010.06.11 12:40:34.
