data_PCOD9308038
_publ_section_title
;
Structure prediction by ZEFSAII (Michael W. Deem and Ramdas Pophale) SiO2 
 PCOD9308038
Probable space group: C 2/C
;
_chemical_formula_sum "Si O2"
_cell_formula_units_Z 40
_cell_length_a 8.990665
_cell_length_b 24.418059
_cell_length_c 7.237994
_cell_angle_alpha 90.000000
_cell_angle_beta 88.630502
_cell_angle_gamma 90.000000
_cell_volume 1588.536146
_symmetry_space_group_name_H-M "C 2/C"
_symmetry_group_IT_number 15
_symmetry_cell_setting 'monoclinic'
loop_
_space_group_symop_operation_xyz
x,y,z
-x,y,1/2-z
-x,-y,-z
x,-y,1/2+z
1/2+x,1/2+y,z
1/2-x,1/2+y,1/2-z
1/2-x,1/2-y,-z
1/2+x,1/2-y,1/2+z
loop_
_atom_site_type_symbol
_atom_site_label
_atom_site_fract_x
_atom_site_fract_y
_atom_site_fract_z
Si Si1 0.571257 0.736871 0.452679
Si Si2 0.337216 0.088311 0.787748
Si Si3 0.891619 0.994251 0.629550
Si Si4 0.883127 0.666190 0.123778
Si Si5 0.323398 0.369883 0.567206
O O1 0.500000 0.745695 0.250000
O O2 0.750000 0.750000 0.500000
O O3 0.465571 0.777688 0.571115
O O4 0.551535 0.672524 0.504612
O O5 0.500000 0.064068 0.750000
O O6 0.282177 0.117424 0.602449
O O7 0.230831 0.041113 0.865304
O O8 0.349731 0.134896 0.939537
O O9 0.859065 0.929813 0.640128
O O10 0.925412 0.995666 0.379092
O O11 0.741584 0.665042 0.259992
O O12 0.000000 0.633412 0.250000
#
# Coordination Sequence:
#
# PCOD9308038 Si02
#       5
#     8   8   8   8   8
#     4  12  26  51  78 116 164 211 281 343 414 496
#     4  12  26  50  82 119 164 210 276 338 419 504
#     4  12  26  52  77 117 160 211 268 338 416 497
#     4  12  25  49  79 112 160 209 275 330 415 487
#     4  12  27  52  77 118 164 212 272 339 416 500
#
# _framework density 25.180418
#
# number of rings (size 3 to 8) (size 9 to 14) (size 15 to 20)
#    0.000    0.000    6.000    3.600    0.000    2.400 
#    7.200    0.000    0.000    0.000    0.000    0.000 
#    0.000    0.000    0.000    0.000    0.000    0.000 
#
# Total GULP energy -111639.713857 kJ/mol
# GULP energy per Si atom -5581.985693 kJ/mol
# Density = 2.512311 g / cm^3
# Si number density = 25.180418 Si / 1000 Ang^3
#
#
#
# Elastic Constant Matrix: (Units=GPa)
#
#
# Indices 1 2 3 4 5 6 
#
# 1 117.1648 83.8286 77.3371 0.0000 -0.8913 0.0000
# 2 83.8286 208.9483 62.1541 0.0000 -12.1896 0.0000
# 3 77.3371 62.1541 180.0976 0.0000 13.7268 0.0000
# 4 0.0000 0.0000 0.0000 33.5347 0.0000 -6.8160
# 5 -0.8913 -12.1896 13.7268 0.0000 53.8556 0.0000
# 6 0.0000 0.0000 0.0000 -6.8160 0.0000 21.4472
#
#
#
# Elastic Compliance Matrix: (Units=1/GPa)
#
#
# Indices 1 2 3 4 5 6 
#
# 1 0.015040 -0.004540 -0.004928 0.000000 0.000477 0.000000
# 2 -0.004540 0.006863 -0.000542 0.000000 0.001616 0.000000
# 3 -0.004928 -0.000542 0.008027 0.000000 -0.002250 0.000000
# 4 0.000000 0.000000 0.000000 0.031879 0.000000 0.010131
# 5 0.000477 0.001616 -0.002250 0.000000 0.019515 0.000000
# 6 0.000000 0.000000 0.000000 0.010131 0.000000 0.049846
#
#
# Mechanical properties :
#
#
# Convention : Reuss Voigt Hill
#
# Bulk Modulus (GPa) = 100.91063 105.87225 103.39144
# Shear Modulus (GPa) = 32.36383 40.62690 36.49537
#
# Velocity S-wave (km/s) = 3.58897 4.02111 3.81117
# Velocity P-wave (km/s) = 7.57207 7.98097 7.77921
#
# Compressibility (1/GPa) = 0.00990976
#
# Stress axis : x y z
#
# Youngs Moduli (GPa) = 66.49068 145.71150 124.57608
#
# Poissons Ratio (x) = 0.66155 0.61389
# Poissons Ratio (y) = 0.30188 0.06753
# Poissons Ratio (z) = 0.32766 0.07898
#
# Static dielectric constant tensor:
#      x y z
#    x 2.565030 0.000000 0.200020 
#    y 0.000000 1.967940 0.000000 
#    z 0.200020 0.000000 3.098330 
# 
# From -- ./inp_files/5023.got.cif
#   From: 2010.05.17/outbox.cif.g08.bks.cpg/sg15_3_cif.got.tgz:5023.got - 2010.06.03 18:47:42.
