data_PCOD9308582
_publ_section_title
;
Structure prediction by ZEFSAII (Michael W. Deem and Ramdas Pophale) SiO2 
 PCOD9308582
Probable space group: C 2/C
;
_chemical_formula_sum "Si O2"
_cell_formula_units_Z 48
_cell_length_a 6.770541
_cell_length_b 33.713357
_cell_length_c 9.805575
_cell_angle_alpha 90.000000
_cell_angle_beta 55.082902
_cell_angle_gamma 90.000000
_cell_volume 1835.279784
_symmetry_space_group_name_H-M "C 2/C"
_symmetry_group_IT_number 15
_symmetry_cell_setting 'monoclinic'
loop_
_space_group_symop_operation_xyz
x,y,z
-x,y,1/2-z
-x,-y,-z
x,-y,1/2+z
1/2+x,1/2+y,z
1/2-x,1/2+y,1/2-z
1/2-x,1/2-y,-z
1/2+x,1/2-y,1/2+z
loop_
_atom_site_type_symbol
_atom_site_label
_atom_site_fract_x
_atom_site_fract_y
_atom_site_fract_z
Si Si1 0.889619 0.637900 0.447170
Si Si2 0.346806 0.382880 0.948472
Si Si3 0.149475 0.447515 0.552148
Si Si4 0.306422 0.468181 0.948332
Si Si5 0.589537 0.783829 0.419488
Si Si6 0.101612 0.201342 0.972813
O O1 0.086563 0.628732 0.490381
O O2 0.000000 0.640036 0.250000
O O3 0.745618 0.596297 0.514604
O O4 0.814105 0.682345 0.516987
O O5 0.500000 0.386456 0.750000
O O6 0.348478 0.426898 0.012028
O O7 0.451547 0.345417 0.988899
O O8 0.298597 0.487721 0.511831
O O9 0.000000 0.442965 0.750000
O O10 0.956664 0.458600 0.511647
O O11 0.500000 0.470010 0.750000
O O12 0.744754 0.791992 0.223885
O O13 0.301677 0.791092 0.513659
O O14 0.592379 0.736573 0.440943
#
# Coordination Sequence:
#
# PCOD9308582 Si02
#       6
#     8   8   8   8   8   8
#     4   9  18  34  55  73 105 148 180 213 269 329
#     4   9  18  32  55  80 106 136 178 228 271 316
#     4   9  18  34  54  76 108 147 181 221 273 325
#     4   9  18  34  52  80 108 140 184 226 270 323
#     4   9  18  31  51  76 103 137 175 216 270 318
#     4   9  18  30  51  79 103 132 173 225 269 313
#
# _framework density 26.154050999999999
#
# number of rings (size 3 to 8) (size 9 to 14) (size 15 to 20)
#    0.000    3.000    0.000    0.000    7.000    0.667 
#   12.000    0.833    0.000    0.000    0.000    0.000 
#    0.000    0.000    0.000    0.000    0.000    0.000 
#
# Total GULP energy -133952.796456 kJ/mol
# GULP energy per Si atom -5581.366519 kJ/mol
# Density = 2.609452 g / cm^3
# Si number density = 26.154051 Si / 1000 Ang^3
#
#
#
# Elastic Constant Matrix: (Units=GPa)
#
#
# Indices 1 2 3 4 5 6 
#
# 1 87.3238 61.6963 -7.6256 0.0000 15.4574 0.0000
# 2 61.6963 362.7043 63.4698 0.0000 22.5410 0.0000
# 3 -7.6256 63.4698 41.3615 0.0000 5.1816 0.0000
# 4 0.0000 0.0000 0.0000 38.6468 0.0000 4.7675
# 5 15.4574 22.5410 5.1816 0.0000 19.5810 0.0000
# 6 0.0000 0.0000 0.0000 4.7675 0.0000 58.5757
#
#
#
# Elastic Compliance Matrix: (Units=1/GPa)
#
#
# Indices 1 2 3 4 5 6 
#
# 1 0.017494 -0.004183 0.011140 0.000000 -0.011942 0.000000
# 2 -0.004183 0.004936 -0.008324 0.000000 -0.000178 0.000000
# 3 0.011140 -0.008324 0.040239 0.000000 -0.009860 0.000000
# 4 0.000000 0.000000 0.000000 0.026138 0.000000 -0.002127
# 5 -0.011942 -0.000178 -0.009860 0.000000 0.063311 0.000000
# 6 0.000000 0.000000 0.000000 -0.002127 0.000000 0.017245
#
#
# Mechanical properties :
#
#
# Convention : Reuss Voigt Hill
#
# Bulk Modulus (GPa) = 16.68449 80.71895 48.70172
# Shear Modulus (GPa) = 26.03161 48.28398 37.15779
#
# Velocity S-wave (km/s) = 3.15829 4.30133 3.77334
# Velocity P-wave (km/s) = 4.43767 7.45644 6.13561
#
# Compressibility (1/GPa) = 0.05993590
#
# Stress axis : x y z
#
# Youngs Moduli (GPa) = 57.16335 202.58627 24.85165
#
# Poissons Ratio (x) = 0.84740 -0.27685
# Poissons Ratio (y) = 0.23911 0.20685
# Poissons Ratio (z) = -0.63680 1.68623
#
# Static dielectric constant tensor:
#      x y z
#    x 2.132680 0.000000 0.007030 
#    y 0.000000 2.104130 0.000000 
#    z 0.007030 0.000000 1.894860 
# 
# From -- ./inp_files/80522.got.cif
#   From: 2010.05.17/outbox.cif.g08.bks.cpg/sg15_41_cif.got.tgz:80522.got - 2010.06.03 18:47:42.
