data_PCOD9308013
_publ_section_title
;
Structure prediction by ZEFSAII (Michael W. Deem and Ramdas Pophale) SiO2 
 PCOD9308013
Probable space group: C 2/C
;
_chemical_formula_sum "Si O2"
_cell_formula_units_Z 36
_cell_length_a 7.967654
_cell_length_b 22.541779
_cell_length_c 16.747066
_cell_angle_alpha 90.000000
_cell_angle_beta 34.238634
_cell_angle_gamma 90.000000
_cell_volume 1692.344280
_symmetry_space_group_name_H-M "C 2/C"
_symmetry_group_IT_number 15
_symmetry_cell_setting 'monoclinic'
loop_
_space_group_symop_operation_xyz
x,y,z
-x,y,1/2-z
-x,-y,-z
x,-y,1/2+z
1/2+x,1/2+y,z
1/2-x,1/2+y,1/2-z
1/2-x,1/2-y,-z
1/2+x,1/2-y,1/2+z
loop_
_atom_site_type_symbol
_atom_site_label
_atom_site_fract_x
_atom_site_fract_y
_atom_site_fract_z
Si Si1 0.942214 0.632682 0.419845
Si Si2 0.000000 0.288923 0.750000
Si Si3 0.260434 0.112214 0.773039
Si Si4 0.024561 0.295379 0.043794
Si Si5 0.818764 0.510225 0.152322
O O1 0.578795 0.630664 0.570348
O O2 0.084750 0.660646 0.445033
O O3 0.074068 0.670972 0.296215
O O4 0.021714 0.564801 0.368759
O O5 0.733280 0.248132 0.884808
O O6 0.500000 0.107934 0.750000
O O7 0.384736 0.162260 0.665464
O O8 0.268155 0.049409 0.722870
O O9 0.250000 0.250000 0.000000
O O10 0.500000 0.532692 0.250000
O O11 0.000000 0.500000 0.000000
#
# Coordination Sequence:
#
# PCOD9308013 Si02
#       5
#     8   4   8   8   8
#     4  12  27  50  72 108 150 189 250 303 368 444
#     4  12  28  44  74 102 146 194 240 298 364 442
#     4  12  26  47  76 105 149 191 242 311 373 430
#     4  12  26  46  73 104 145 193 242 300 369 440
#     4  12  25  48  76 105 146 197 245 303 372 433
#
# _framework density 21.272265999999998
#
# number of rings (size 3 to 8) (size 9 to 14) (size 15 to 20)
#    0.000    0.000    6.667    2.000    7.778    2.667 
#    0.000    0.000    0.000    0.000    0.000    0.000 
#    0.000    0.000    0.000    0.000    0.000    0.000 
#
# Total GULP energy -100516.950096 kJ/mol
# GULP energy per Si atom -5584.275005 kJ/mol
# Density = 2.122385 g / cm^3
# Si number density = 21.272266 Si / 1000 Ang^3
#
#
#
# Elastic Constant Matrix: (Units=GPa)
#
#
# Indices 1 2 3 4 5 6 
#
# 1 64.9955 4.8218 6.5303 0.0002 -2.5650 0.0004
# 2 4.8218 120.0614 13.7867 0.0000 2.1356 0.0005
# 3 6.5303 13.7867 63.3919 0.0002 0.9936 0.0009
# 4 0.0002 0.0000 0.0002 -2.0694 -0.0002 -6.6745
# 5 -2.5650 2.1356 0.9936 -0.0002 31.5544 0.0000
# 6 0.0004 0.0005 0.0009 -6.6745 0.0000 17.2942
#
#
#
# Elastic Compliance Matrix: (Units=1/GPa)
#
#
# Indices 1 2 3 4 5 6 
#
# 1 0.015628 -0.000476 -0.001527 0.000001 0.001351 0.000000
# 2 -0.000476 0.008565 -0.001805 0.000000 -0.000562 0.000000
# 3 -0.001527 -0.001805 0.016333 0.000002 -0.000516 0.000000
# 4 0.000001 0.000000 0.000002 -0.215272 -0.000001 -0.083081
# 5 0.001351 -0.000562 -0.000516 -0.000001 0.031855 0.000000
# 6 0.000000 0.000000 0.000000 -0.083081 0.000000 0.025759
#
#
# Mechanical properties :
#
#
# Convention : Reuss Voigt Hill
#
# Bulk Modulus (GPa) = 30.38713 33.19183 31.78948
# Shear Modulus (GPa) = -50.73851 24.24320 -13.24766
#
# Velocity S-wave (km/s) = -4.88914 3.37955 -2.49824
# Velocity P-wave (km/s) = 4.18996 5.55569 2.57972
#
# Compressibility (1/GPa) = 0.03290867
#
# Stress axis : x y z
#
# Youngs Moduli (GPa) = 63.98860 116.74809 61.22621
#
# Poissons Ratio (x) = 0.05560 0.09352
# Poissons Ratio (y) = 0.03048 0.11051
# Poissons Ratio (z) = 0.09774 0.21073
#
# Static dielectric constant tensor:
#      x y z
#    x 1.841620 0.000000 0.073170 
#    y 0.000000 1.860740 0.000000 
#    z 0.073170 0.000000 1.699970 
# 
# From -- ./inp_files/22507.got.cif
#   From: 2010.05.17/outbox.cif.g08.bks.cpg/sg15_12_cif.got.tgz:22507.got - 2010.06.03 18:47:42.
