data_PCOD9308438
_publ_section_title
;
Structure prediction by ZEFSAII (Michael W. Deem and Ramdas Pophale) SiO2 
 PCOD9308438
Probable space group: C 2/C
;
_chemical_formula_sum "Si O2"
_cell_formula_units_Z 36
_cell_length_a 11.332994
_cell_length_b 8.590461
_cell_length_c 25.176947
_cell_angle_alpha 90.000000
_cell_angle_beta 37.773652
_cell_angle_gamma 90.000000
_cell_volume 1501.416630
_symmetry_space_group_name_H-M "C 2/C"
_symmetry_group_IT_number 15
_symmetry_cell_setting 'monoclinic'
loop_
_space_group_symop_operation_xyz
x,y,z
-x,y,1/2-z
-x,-y,-z
x,-y,1/2+z
1/2+x,1/2+y,z
1/2-x,1/2+y,1/2-z
1/2-x,1/2-y,-z
1/2+x,1/2-y,1/2+z
loop_
_atom_site_type_symbol
_atom_site_label
_atom_site_fract_x
_atom_site_fract_y
_atom_site_fract_z
Si Si1 0.305691 0.159172 0.065322
Si Si2 0.526830 0.404092 0.044501
Si Si3 0.500000 0.362956 0.750000
Si Si4 0.339574 0.947252 0.264930
Si Si5 0.086049 0.552303 0.582137
O O1 0.447716 0.236897 0.057053
O O2 0.145820 0.061861 0.155546
O O3 0.183672 0.299870 0.079396
O O4 0.434156 0.095694 0.971831
O O5 0.378211 0.478912 0.139847
O O6 0.500000 0.500000 0.000000
O O7 0.748834 0.421992 0.977670
O O8 0.628354 0.238077 0.737788
O O9 0.500000 0.014345 0.250000
O O10 0.403836 0.989101 0.182972
#
# Coordination Sequence:
#
# PCOD9308438 Si02
#       5
#     8   8   4   8   8
#     4   8  13  20  32  51  76 105 135 169 214 255
#     4   9  13  21  33  50  79 109 132 172 219 246
#     4   6  10  20  30  44  70  98 124 164 202 238
#     4   8  12  20  30  46  74 102 128 170 206 242
#     4   9  14  20  33  53  78 106 137 172 210 258
#
# _framework density 23.977354999999999
#
# number of rings (size 3 to 8) (size 9 to 14) (size 15 to 20)
#    0.667    3.111    4.444    0.000    0.000    0.000 
#    0.000    0.000    0.000    0.000    0.000    1.556 
#    0.000   74.667    0.000    0.000    0.000    0.000 
#
# Total GULP energy -100207.770430 kJ/mol
# GULP energy per Si atom -5567.098357 kJ/mol
# Density = 2.392278 g / cm^3
# Si number density = 23.977355 Si / 1000 Ang^3
#
#
#
# Elastic Constant Matrix: (Units=GPa)
#
#
# Indices 1 2 3 4 5 6 
#
# 1 65.4009 9.3773 56.7414 0.0000 11.0091 0.0000
# 2 9.3773 26.6457 29.5917 0.0000 -6.4356 0.0000
# 3 56.7414 29.5917 292.4849 0.0000 33.4039 0.0000
# 4 0.0000 0.0000 0.0000 15.4245 0.0000 -1.7653
# 5 11.0091 -6.4356 33.4039 0.0000 14.5734 0.0000
# 6 0.0000 0.0000 0.0000 -1.7653 0.0000 24.8515
#
#
#
# Elastic Compliance Matrix: (Units=1/GPa)
#
#
# Indices 1 2 3 4 5 6 
#
# 1 0.020669 -0.010925 -0.000773 0.000000 -0.018668 0.000000
# 2 -0.010925 0.073814 -0.013565 0.000000 0.071941 0.000000
# 3 -0.000773 -0.013565 0.007530 0.000000 -0.022666 0.000000
# 4 0.000000 0.000000 0.000000 0.065363 0.000000 0.004643
# 5 -0.018668 0.071941 -0.022666 0.000000 0.166442 0.000000
# 6 0.000000 0.000000 0.000000 0.004643 0.000000 0.040569
#
#
# Mechanical properties :
#
#
# Convention : Reuss Voigt Hill
#
# Bulk Modulus (GPa) = 19.42158 63.99469 41.70813
# Shear Modulus (GPa) = 11.31031 30.22462 20.76747
#
# Velocity S-wave (km/s) = 2.17424 3.55427 2.94620
# Velocity P-wave (km/s) = 3.79745 6.60238 5.38572
#
# Compressibility (1/GPa) = 0.05148911
#
# Stress axis : x y z
#
# Youngs Moduli (GPa) = 48.38087 13.54752 132.80486
#
# Poissons Ratio (x) = 0.14800 0.10259
# Poissons Ratio (y) = 0.52855 1.80147
# Poissons Ratio (z) = 0.03737 0.18377
#
# Static dielectric constant tensor:
#      x y z
#    x 1.916860 0.000000 -0.020220 
#    y 0.000000 2.044580 0.000000 
#    z -0.020220 0.000000 1.950550 
# 
# From -- ./inp_files/152856.got.cif
#   From: 2010.05.17/outbox.cif.g08.bks.cpg/sg15_77_cif.got.tgz:152856.got - 2010.06.03 18:47:42.
