data_PCOD9308154
_publ_section_title
;
Structure prediction by ZEFSAII (Michael W. Deem and Ramdas Pophale) SiO2 
 PCOD9308154
Probable space group: C 2/C
;
_chemical_formula_sum "Si O2"
_cell_formula_units_Z 28
_cell_length_a 9.145574
_cell_length_b 23.957002
_cell_length_c 10.013006
_cell_angle_alpha 90.000000
_cell_angle_beta 150.038595
_cell_angle_gamma 90.000000
_cell_volume 1095.647421
_symmetry_space_group_name_H-M "C 2/C"
_symmetry_group_IT_number 15
_symmetry_cell_setting 'monoclinic'
loop_
_space_group_symop_operation_xyz
x,y,z
-x,y,1/2-z
-x,-y,-z
x,-y,1/2+z
1/2+x,1/2+y,z
1/2-x,1/2+y,1/2-z
1/2-x,1/2-y,-z
1/2+x,1/2-y,1/2+z
loop_
_atom_site_type_symbol
_atom_site_label
_atom_site_fract_x
_atom_site_fract_y
_atom_site_fract_z
Si Si1 0.157908 0.607608 0.506756
Si Si2 0.020835 0.712520 0.985769
Si Si3 0.000000 0.865441 0.750000
Si Si4 0.262741 0.453883 0.356311
O O1 0.500000 0.607777 0.750000
O O2 0.118257 0.570319 0.607297
O O3 0.052706 0.670173 0.453838
O O4 0.000000 0.587133 0.250000
O O5 0.222225 0.764131 0.189069
O O6 0.223017 0.674759 0.050894
O O7 0.935157 0.904506 0.571129
O O8 0.500000 0.500000 0.500000
O O9 0.000000 0.469451 0.250000
#
# Coordination Sequence:
#
# PCOD9308154 Si02
#       4
#     8   8   4   8
#     4  12  28  54  84 123 179 225 282 353 426 516
#     4  12  26  47  85 126 171 227 280 348 426 506
#     4  12  26  52  82 126 172 218 294 348 432 518
#     4  12  30  56  89 122 169 229 295 361 436 509
#
# _framework density 25.555665999999999
#
# number of rings (size 3 to 8) (size 9 to 14) (size 15 to 20)
#    0.000    0.000    2.857    6.000    2.000    8.000 
#    0.000    1.429    0.000    0.000    0.000    0.000 
#    0.000    0.000    0.000    0.000    0.000    0.000 
#
# Total GULP energy -78659.750222 kJ/mol
# GULP energy per Si atom -5618.553587 kJ/mol
# Density = 2.549750 g / cm^3
# Si number density = 25.555666 Si / 1000 Ang^3
#
#
#
# Elastic Constant Matrix: (Units=GPa)
#
#
# Indices 1 2 3 4 5 6 
#
# 1 190.7359 65.0608 72.0024 0.0000 -4.4910 0.0000
# 2 65.0608 129.6445 41.0842 0.0000 -20.4691 0.0000
# 3 72.0024 41.0842 165.1179 0.0000 -24.1658 0.0000
# 4 0.0000 0.0000 0.0000 31.5120 0.0000 21.4571
# 5 -4.4910 -20.4691 -24.1658 0.0000 61.4653 0.0000
# 6 0.0000 0.0000 0.0000 21.4571 0.0000 50.4698
#
#
#
# Elastic Compliance Matrix: (Units=1/GPa)
#
#
# Indices 1 2 3 4 5 6 
#
# 1 0.007232 -0.003038 -0.002619 0.000000 -0.001513 0.000000
# 2 -0.003038 0.009911 -0.000733 0.000000 0.002790 0.000000
# 3 -0.002619 -0.000733 0.007764 0.000000 0.002617 0.000000
# 4 0.000000 0.000000 0.000000 0.044664 0.000000 -0.018989
# 5 -0.001513 0.002790 0.002617 0.000000 0.018117 0.000000
# 6 0.000000 0.000000 0.000000 -0.018989 0.000000 0.027887
#
#
# Mechanical properties :
#
#
# Convention : Reuss Voigt Hill
#
# Bulk Modulus (GPa) = 82.46428 93.53256 87.99842
# Shear Modulus (GPa) = 37.76508 49.17948 43.47228
#
# Velocity S-wave (km/s) = 3.84833 4.39156 4.12889
# Velocity P-wave (km/s) = 7.21698 7.89895 7.56565
#
# Compressibility (1/GPa) = 0.01212646
#
# Stress axis : x y z
#
# Youngs Moduli (GPa) = 138.26684 100.89857 128.80331
#
# Poissons Ratio (x) = 0.30657 0.33737
# Poissons Ratio (y) = 0.42011 0.09437
# Poissons Ratio (z) = 0.36216 0.07393
#
# Static dielectric constant tensor:
#      x y z
#    x 2.026710 0.000000 -0.003770 
#    y 0.000000 1.988790 0.000000 
#    z -0.003770 0.000000 1.948390 
# 
# From -- ./inp_files/25931.got.cif
#   From: 2010.05.17/outbox.cif.g08.bks.cpg/sg15_13_cif.got.tgz:25931.got - 2010.06.03 18:47:42.
