data_PCOD9308455
_publ_section_title
;
Structure prediction by ZEFSAII (Michael W. Deem and Ramdas Pophale) SiO2 
 PCOD9308455
Probable space group: C 2/C
;
_chemical_formula_sum "Si O2"
_cell_formula_units_Z 40
_cell_length_a 16.869003
_cell_length_b 6.976920
_cell_length_c 29.512591
_cell_angle_alpha 90.000000
_cell_angle_beta 149.512961
_cell_angle_gamma 90.000000
_cell_volume 1762.229821
_symmetry_space_group_name_H-M "C 2/C"
_symmetry_group_IT_number 15
_symmetry_cell_setting 'monoclinic'
loop_
_space_group_symop_operation_xyz
x,y,z
-x,y,1/2-z
-x,-y,-z
x,-y,1/2+z
1/2+x,1/2+y,z
1/2-x,1/2+y,1/2-z
1/2-x,1/2-y,-z
1/2+x,1/2-y,1/2+z
loop_
_atom_site_type_symbol
_atom_site_label
_atom_site_fract_x
_atom_site_fract_y
_atom_site_fract_z
Si Si1 0.207422 0.472935 0.489891
Si Si2 0.126798 0.653321 0.695974
Si Si3 0.310398 0.162043 0.208627
Si Si4 0.074156 0.860179 0.833756
Si Si5 0.326706 0.088391 0.119261
O O1 0.250000 0.250000 0.500000
O O2 0.291284 0.495660 0.579206
O O3 0.260907 0.593468 0.472170
O O4 0.020106 0.471612 0.395030
O O5 0.230600 0.696510 0.704074
O O6 0.216736 0.539807 0.779359
O O7 0.049977 0.829301 0.686372
O O8 0.250513 0.160437 0.127885
O O9 0.498754 0.175794 0.299117
O O10 0.138556 0.642402 0.856583
O O11 0.000000 0.924696 0.750000
#
# Coordination Sequence:
#
# PCOD9308455 Si02
#       5
#     8   8   8   8   8
#     4   7  14  24  42  69  86 114 150 196 208 260
#     4   9  16  26  44  69  92 115 151 186 219 261
#     4   9  15  26  46  65  91 121 148 182 219 267
#     4   9  13  27  46  66  86 117 155 186 220 261
#     4   8  13  27  44  58  87 121 150 168 227 266
#
# _framework density 22.698515
#
# number of rings (size 3 to 8) (size 9 to 14) (size 15 to 20)
#    0.000    4.400    4.000    0.000    0.000    0.000 
#    0.000    9.000    4.400    4.800    0.000   50.400 
#    0.000    0.000    0.000    0.000    0.000    0.000 
#
# Total GULP energy -111388.156188 kJ/mol
# GULP energy per Si atom -5569.407809 kJ/mol
# Density = 2.264685 g / cm^3
# Si number density = 22.698515 Si / 1000 Ang^3
#
#
#
# Elastic Constant Matrix: (Units=GPa)
#
#
# Indices 1 2 3 4 5 6 
#
# 1 170.7924 34.3727 56.1252 0.0000 -47.8335 0.0000
# 2 34.3727 38.5726 21.1442 0.0001 -6.3087 -0.0001
# 3 56.1252 21.1442 122.4285 0.0000 -63.8332 0.0000
# 4 0.0000 0.0001 0.0000 26.0699 0.0000 -7.6315
# 5 -47.8335 -6.3087 -63.8332 0.0000 41.1528 0.0000
# 6 0.0000 -0.0001 0.0000 -7.6315 0.0000 31.8421
#
#
#
# Elastic Compliance Matrix: (Units=1/GPa)
#
#
# Indices 1 2 3 4 5 6 
#
# 1 0.016313 -0.018199 0.021418 0.000000 0.049393 0.000000
# 2 -0.018199 0.051460 -0.039008 0.000000 -0.073771 0.000000
# 3 0.021418 -0.039008 0.078160 0.000000 0.140151 0.000000
# 4 0.000000 0.000000 0.000000 0.041253 0.000000 0.009887
# 5 0.049393 -0.073771 0.140151 0.000000 0.287794 0.000000
# 6 0.000000 0.000000 0.000000 0.009887 0.000000 0.033775
#
#
# Mechanical properties :
#
#
# Convention : Reuss Voigt Hill
#
# Bulk Modulus (GPa) = 13.44914 61.67530 37.56222
# Shear Modulus (GPa) = 8.26288 34.48972 21.37630
#
# Velocity S-wave (km/s) = 1.91002 3.90227 3.07212
# Velocity P-wave (km/s) = 3.28667 6.89450 5.40075
#
# Compressibility (1/GPa) = 0.07435417
#
# Stress axis : x y z
#
# Youngs Moduli (GPa) = 61.30188 19.43269 12.79427
#
# Poissons Ratio (x) = 0.35365 -0.27402
# Poissons Ratio (y) = 1.11561 0.49908
# Poissons Ratio (z) = -1.31294 0.75803
#
# Static dielectric constant tensor:
#      x y z
#    x 1.840170 0.000000 -0.024760 
#    y 0.000000 2.038110 0.000000 
#    z -0.024760 0.000000 1.927720 
# 
# From -- ./inp_files/294947.got.cif
#   From: 2010.05.17/outbox.cif.g08.bks.cpg/sg15_148_cif.got.tgz:294947.got - 2010.06.03 18:47:42.
