data_PCOD9308632
_publ_section_title
;
Structure prediction by ZEFSAII (Michael W. Deem and Ramdas Pophale) SiO2 
 PCOD9308632
Probable space group: C 2/C
;
_chemical_formula_sum "Si O2"
_cell_formula_units_Z 20
_cell_length_a 15.000000
_cell_length_b 15.000000
_cell_length_c 18.000000
_cell_angle_alpha 90.000000
_cell_angle_beta 150.000000
_cell_angle_gamma 90.000000
_cell_volume 2025.000000
_symmetry_space_group_name_H-M "C 2/C"
_symmetry_group_IT_number 15
_symmetry_cell_setting 'monoclinic'
loop_
_space_group_symop_operation_xyz
x,y,z
-x,y,1/2-z
-x,-y,-z
x,-y,1/2+z
1/2+x,1/2+y,z
1/2-x,1/2+y,1/2-z
1/2-x,1/2-y,-z
1/2+x,1/2-y,1/2+z
loop_
_atom_site_type_symbol
_atom_site_label
_atom_site_fract_x
_atom_site_fract_y
_atom_site_fract_z
Si Si1 0.022498 0.931383 0.850081
Si Si2 0.581176 0.863012 0.174197
Si Si3 0.108434 0.463680 0.897438
Si Si4 0.179272 0.554360 0.608608
Si Si5 0.811424 0.228647 0.960837
O O1 0.053527 0.854151 0.931944
O O2 0.000000 0.893209 0.750000
O O3 0.846739 0.989150 0.730776
O O4 0.199832 0.992814 0.983742
O O5 0.713001 0.880108 0.201554
O O6 0.661614 0.800871 0.295819
O O7 0.414707 0.816808 0.013582
O O8 0.514233 0.952140 0.166179
O O9 0.000000 0.422273 0.750000
O O10 0.145706 0.410210 0.000835
O O11 0.000000 0.500000 0.500000
O O12 0.750000 0.250000 0.000000
#
# Coordination Sequence:
#
# PCOD9308632 Si02
#       5
#     8   8   8   8   8
#     4  10  19  33  56  80 109 152 185 222 278 334
#     4  11  22  35  50  85 123 145 180 231 275 344
#     4  10  17  36  56  81 108 143 189 227 268 333
#     4   9  22  36  50  77 122 146 187 229 272 330
#     4  12  21  33  57  83 119 151 182 215 288 347
#
# _framework density 9.8765429999999999
#
# number of rings (size 3 to 8) (size 9 to 14) (size 15 to 20)
#    0.000    1.600    4.000    1.800    5.600    0.800 
#    0.000    0.000    0.000    0.000    0.000   18.200 
#    0.000    0.000    0.000    0.000    0.000    0.000 
#
# Total GULP energy -111405.763347 kJ/mol
# GULP energy per Si atom -5570.288167 kJ/mol
# Density = 0.985406 g / cm^3
# Si number density = 9.876543 Si / 1000 Ang^3
#
#
#
# Elastic Constant Matrix: (Units=GPa)
#
#
# Indices 1 2 3 4 5 6 
#
# 1 75.3530 28.6850 38.6174 -0.0015 -15.1311 -0.0013
# 2 28.6850 18.1675 11.0383 0.0260 -7.6134 0.0058
# 3 38.6174 11.0383 114.9003 0.0235 -14.3101 0.0070
# 4 -0.0015 0.0260 0.0235 24.7882 0.0015 -4.2807
# 5 -15.1311 -7.6134 -14.3101 0.0015 15.2673 -0.0004
# 6 -0.0013 0.0058 0.0070 -4.2807 -0.0004 21.1587
#
#
#
# Elastic Compliance Matrix: (Units=1/GPa)
#
#
# Indices 1 2 3 4 5 6 
#
# 1 0.038789 -0.055097 -0.007221 0.000073 0.004199 0.000035
# 2 -0.055097 0.148582 0.007553 -0.000182 0.026567 -0.000083
# 3 -0.007221 0.007553 0.011302 -0.000021 0.007203 -0.000010
# 4 0.000073 -0.000182 -0.000021 0.041802 -0.000043 0.008457
# 5 0.004199 0.026567 0.007203 -0.000043 0.089661 -0.000016
# 6 0.000035 -0.000083 -0.000010 0.008457 -0.000016 0.048973
#
#
# Mechanical properties :
#
#
# Convention : Reuss Voigt Hill
#
# Bulk Modulus (GPa) = 11.21808 40.56691 25.89250
# Shear Modulus (GPa) = 9.64595 20.91486 15.28041
#
# Velocity S-wave (km/s) = 2.21221 3.25747 2.78433
# Velocity P-wave (km/s) = 3.49523 5.89320 4.84491
#
# Compressibility (1/GPa) = 0.08914178
#
# Stress axis : x y z
#
# Youngs Moduli (GPa) = 25.78077 6.73030 88.48357
#
# Poissons Ratio (x) = 0.37082 0.63890
# Poissons Ratio (y) = 1.42045 -0.66829
# Poissons Ratio (z) = 0.18615 -0.05083
#
# Static dielectric constant tensor:
#      x y z
#    x 1.859320 -0.000030 0.021600 
#    y -0.000030 1.852400 -0.000020 
#    z 0.021600 -0.000020 1.742960 
# 
# From -- ./inp_files/37942.got.cif
#   From: 2010.05.17/outbox.ucp.g08.bks.cvg/sg15_19_cif.got.tgz:37942.got - 2010.06.11 12:40:34.
