data_PCOD9308548
_publ_section_title
;
Structure prediction by ZEFSAII (Michael W. Deem and Ramdas Pophale) SiO2 
 PCOD9308548
Probable space group: C 2/C
;
_chemical_formula_sum "Si O2"
_cell_formula_units_Z 44
_cell_length_a 32.964727
_cell_length_b 10.191906
_cell_length_c 10.481446
_cell_angle_alpha 90.000000
_cell_angle_beta 32.267866
_cell_angle_gamma 90.000000
_cell_volume 1880.045180
_symmetry_space_group_name_H-M "C 2/C"
_symmetry_group_IT_number 15
_symmetry_cell_setting 'monoclinic'
loop_
_space_group_symop_operation_xyz
x,y,z
-x,y,1/2-z
-x,-y,-z
x,-y,1/2+z
1/2+x,1/2+y,z
1/2-x,1/2+y,1/2-z
1/2-x,1/2-y,-z
1/2+x,1/2-y,1/2+z
loop_
_atom_site_type_symbol
_atom_site_label
_atom_site_fract_x
_atom_site_fract_y
_atom_site_fract_z
Si Si1 0.973513 0.084394 0.188390
Si Si2 0.671997 0.301918 0.543665
Si Si3 0.500000 0.832729 0.250000
Si Si4 0.776049 0.045807 0.982378
Si Si5 0.630791 0.040862 0.551329
Si Si6 0.315320 0.197202 0.491585
O O1 0.884239 0.119732 0.405141
O O2 0.011400 0.228086 0.105297
O O3 0.000000 0.017161 0.250000
O O4 0.000000 0.000000 0.000000
O O5 0.683400 0.404441 0.629066
O O6 0.636042 0.156405 0.644007
O O7 0.755343 0.277368 0.264450
O O8 0.429633 0.917432 0.393560
O O9 0.710938 0.036112 0.263837
O O10 0.829936 0.164476 0.885480
O O11 0.732854 0.103062 0.975691
O O12 0.617622 0.896590 0.641039
#
# Coordination Sequence:
#
# PCOD9308548 Si02
#       6
#     8   8   4   8   8   8
#     4   9  19  31  53  80 107 145 184 226 274 325
#     4   9  18  31  51  75 104 135 171 225 268 319
#     4   8  18  34  56  74 108 146 180 220 272 334
#     4   9  18  30  52  75 102 132 174 228 267 314
#     4   9  17  34  51  74  99 141 179 213 272 329
#     4   9  18  31  51  76 101 137 176 216 272 323
#
# _framework density 23.403691999999999
#
# number of rings (size 3 to 8) (size 9 to 14) (size 15 to 20)
#    0.545    2.545    0.000    0.000    2.545    2.182 
#    0.000    0.909    2.000    0.000    0.000    0.000 
#    0.000    0.000    0.000    0.000    0.000    0.000 
#
# Total GULP energy -122535.424648 kJ/mol
# GULP energy per Si atom -5569.792029 kJ/mol
# Density = 2.335042 g / cm^3
# Si number density = 23.403692 Si / 1000 Ang^3
#
#
#
# Elastic Constant Matrix: (Units=GPa)
#
#
# Indices 1 2 3 4 5 6 
#
# 1 58.1572 36.7912 9.1305 0.0000 -3.1077 0.0000
# 2 36.7912 84.2908 19.5573 0.0000 -10.8517 0.0000
# 3 9.1305 19.5573 42.6540 0.0000 -9.0585 0.0000
# 4 0.0000 0.0000 0.0000 13.8166 0.0000 -1.9788
# 5 -3.1077 -10.8517 -9.0585 0.0000 23.7814 0.0000
# 6 0.0000 0.0000 0.0000 -1.9788 0.0000 42.9537
#
#
#
# Elastic Compliance Matrix: (Units=1/GPa)
#
#
# Indices 1 2 3 4 5 6 
#
# 1 0.023839 -0.010491 -0.000705 0.000000 -0.001941 0.000000
# 2 -0.010491 0.018265 -0.005059 0.000000 0.005036 0.000000
# 3 -0.000705 -0.005059 0.027641 0.000000 0.008128 0.000000
# 4 0.000000 0.000000 0.000000 0.072858 0.000000 0.003356
# 5 -0.001941 0.005036 0.008128 0.000000 0.047190 0.000000
# 6 0.000000 0.000000 0.000000 0.003356 0.000000 0.023435
#
#
# Mechanical properties :
#
#
# Convention : Reuss Voigt Hill
#
# Bulk Modulus (GPa) = 26.85693 35.11777 30.98735
# Shear Modulus (GPa) = 19.36851 24.08521 21.72686
#
# Velocity S-wave (km/s) = 2.87990 3.21147 3.05019
# Velocity P-wave (km/s) = 4.74961 5.36556 5.06695
#
# Compressibility (1/GPa) = 0.03723434
#
# Stress axis : x y z
#
# Youngs Moduli (GPa) = 41.94849 54.74867 36.17784
#
# Poissons Ratio (x) = 0.57439 0.02549
# Poissons Ratio (y) = 0.44010 0.18304
# Poissons Ratio (z) = 0.02956 0.27700
#
# Static dielectric constant tensor:
#      x y z
#    x 1.937130 0.000000 -0.007180 
#    y 0.000000 1.929010 0.000000 
#    z -0.007180 0.000000 1.895780 
# 
# From -- ./inp_files/126224.got.cif
#   From: 2010.05.17/outbox.cif.g08.bks.cpg/sg15_64_cif.got.tgz:126224.got - 2010.06.03 18:47:42.
