data_PCOD9308716
_publ_section_title
;
Structure prediction by ZEFSAII (Michael W. Deem and Ramdas Pophale) SiO2 
 PCOD9308716
Probable space group: C 2/C
;
_chemical_formula_sum "Si O2"
_cell_formula_units_Z 20
_cell_length_a 15.000000
_cell_length_b 21.000000
_cell_length_c 21.000000
_cell_angle_alpha 90.000000
_cell_angle_beta 20.000000
_cell_angle_gamma 90.000000
_cell_volume 2262.463248
_symmetry_space_group_name_H-M "C 2/C"
_symmetry_group_IT_number 15
_symmetry_cell_setting 'monoclinic'
loop_
_space_group_symop_operation_xyz
x,y,z
-x,y,1/2-z
-x,-y,-z
x,-y,1/2+z
1/2+x,1/2+y,z
1/2-x,1/2+y,1/2-z
1/2-x,1/2-y,-z
1/2+x,1/2-y,1/2+z
loop_
_atom_site_type_symbol
_atom_site_label
_atom_site_fract_x
_atom_site_fract_y
_atom_site_fract_z
Si Si1 0.329246 0.340544 0.616461
Si Si2 0.902256 0.553026 0.431499
Si Si3 0.785527 0.053590 0.661843
Si Si4 0.496515 0.275741 0.132589
Si Si5 0.819337 0.910171 0.287071
O O1 0.593067 0.382586 0.452873
O O2 0.392553 0.307682 0.506218
O O3 0.096129 0.392782 0.773550
O O4 0.209717 0.282178 0.738015
O O5 0.873547 0.564248 0.527879
O O6 0.609217 0.563224 0.605102
O O7 0.015994 0.484980 0.332057
O O8 0.762649 0.070185 0.752455
O O9 0.000000 0.000000 0.500000
O O10 0.352423 0.333340 0.266969
O O11 0.750000 0.250000 0.000000
#
# Coordination Sequence:
#
# PCOD9308716 Si02
#       5
#     8   8   8   8   8
#     4  10  20  30  44  68 101 138 163 201 251 303
#     4  10  19  33  48  71 103 137 177 206 255 304
#     4   9  20  33  48  68 103 140 174 212 245 309
#     4  11  19  27  45  70 104 133 164 200 252 321
#     4  10  20  31  51  74 101 139 167 215 255 305
#
# _framework density 8.8399230000000006
#
# number of rings (size 3 to 8) (size 9 to 14) (size 15 to 20)
#    0.000    2.000    2.000    2.400    5.600    2.400 
#    0.000    0.000    0.000    0.000    0.000    0.000 
#    0.000  195.200    0.000    0.000    0.000    0.000 
#
# Total GULP energy -111348.313483 kJ/mol
# GULP energy per Si atom -5567.415674 kJ/mol
# Density = 0.881980 g / cm^3
# Si number density = 8.839923 Si / 1000 Ang^3
#
#
#
# Elastic Constant Matrix: (Units=GPa)
#
#
# Indices 1 2 3 4 5 6 
#
# 1 12.1921 11.7666 3.1366 0.0710 8.9817 0.0073
# 2 11.7666 116.1569 45.3592 0.0663 -7.1185 -0.0388
# 3 3.1366 45.3592 97.3624 0.0179 15.1975 -0.1224
# 4 0.0710 0.0663 0.0179 58.0762 -0.1512 4.4043
# 5 8.9817 -7.1185 15.1975 -0.1512 23.9568 0.0454
# 6 0.0073 -0.0388 -0.1224 4.4043 0.0454 24.8069
#
#
#
# Elastic Compliance Matrix: (Units=1/GPa)
#
#
# Indices 1 2 3 4 5 6 
#
# 1 0.172347 -0.031965 0.023207 -0.000432 -0.088838 0.000253
# 2 -0.031965 0.017599 -0.010940 0.000091 0.024154 -0.000077
# 3 0.023207 -0.010940 0.018297 -0.000092 -0.023559 0.000126
# 4 -0.000432 0.000091 -0.000092 0.017455 0.000364 -0.003100
# 5 -0.088838 0.024154 -0.023559 0.000364 0.097174 -0.000295
# 6 0.000253 -0.000077 0.000126 -0.003100 -0.000295 0.040863
#
#
# Mechanical properties :
#
#
# Convention : Reuss Voigt Hill
#
# Bulk Modulus (GPa) = 5.92247 38.47070 22.19658
# Shear Modulus (GPa) = 10.88342 32.39789 21.64065
#
# Velocity S-wave (km/s) = 2.48379 4.28539 3.50241
# Velocity P-wave (km/s) = 3.40334 6.80389 5.37939
#
# Compressibility (1/GPa) = 0.16884852
#
# Stress axis : x y z
#
# Youngs Moduli (GPa) = 5.80224 56.82080 54.65230
#
# Poissons Ratio (x) = 1.81627 -1.26831
# Poissons Ratio (y) = 0.18547 0.59788
# Poissons Ratio (z) = -0.13465 0.62160
#
# Static dielectric constant tensor:
#      x y z
#    x 1.635230 -0.000010 0.015750 
#    y -0.000010 1.651100 0.000140 
#    z 0.015750 0.000140 1.611840 
# 
# From -- ./inp_files/30522.got.cif
#   From: 2010.05.17/outbox.ucp.g08.bks.cvg/sg15_16_cif.got.tgz:30522.got - 2010.06.11 12:40:34.
