data_PCOD9308489
_publ_section_title
;
Structure prediction by ZEFSAII (Michael W. Deem and Ramdas Pophale) SiO2 
 PCOD9308489
Probable space group: C 2/C
;
_chemical_formula_sum "Si O2"
_cell_formula_units_Z 48
_cell_length_a 17.052389
_cell_length_b 8.559985
_cell_length_c 21.797735
_cell_angle_alpha 90.000000
_cell_angle_beta 35.595515
_cell_angle_gamma 90.000000
_cell_volume 1851.982384
_symmetry_space_group_name_H-M "C 2/C"
_symmetry_group_IT_number 15
_symmetry_cell_setting 'monoclinic'
loop_
_space_group_symop_operation_xyz
x,y,z
-x,y,1/2-z
-x,-y,-z
x,-y,1/2+z
1/2+x,1/2+y,z
1/2-x,1/2+y,1/2-z
1/2-x,1/2-y,-z
1/2+x,1/2-y,1/2+z
loop_
_atom_site_type_symbol
_atom_site_label
_atom_site_fract_x
_atom_site_fract_y
_atom_site_fract_z
Si Si1 0.422920 0.593223 0.492661
Si Si2 0.626530 0.627507 0.635863
Si Si3 0.826244 0.024802 0.707707
Si Si4 0.914008 0.585502 0.424167
Si Si5 0.166879 0.564746 0.191157
Si Si6 0.616783 0.850612 0.897739
O O1 0.500000 0.500000 0.500000
O O2 0.527327 0.549822 0.373604
O O3 0.269039 0.538625 0.585747
O O4 0.421087 0.771695 0.514064
O O5 0.500000 0.547879 0.750000
O O6 0.760797 0.535443 0.532285
O O7 0.592017 0.735675 0.598292
O O8 0.660456 0.767636 0.663147
O O9 0.748484 0.931776 0.702855
O O10 0.729970 0.983550 0.825312
O O11 0.833292 0.196788 0.673753
O O12 0.017594 0.510706 0.308290
O O13 0.988867 0.592342 0.441315
#
# Coordination Sequence:
#
# PCOD9308489 Si02
#       6
#     8   8   8   8   8   8
#     4   8  14  25  41  56  78 115 147 173 206 254
#     4   9  15  22  34  56  84 108 136 176 221 251
#     4   9  16  26  43  60  84 115 145 178 210 253
#     4   9  15  22  36  57  85 108 134 178 218 249
#     4   8  14  24  37  55  78 108 143 169 202 252
#     4   9  16  27  41  62  87 115 146 174 212 257
#
# _framework density 25.918171999999998
#
# number of rings (size 3 to 8) (size 9 to 14) (size 15 to 20)
#    0.000    3.667    0.000    3.000    0.000    0.000 
#    0.000    0.833    0.000    4.000    0.000    0.000 
#    0.000  406.667    0.000    1.500    0.000   23.167 
#
# Total GULP energy -133826.009381 kJ/mol
# GULP energy per Si atom -5576.083724 kJ/mol
# Density = 2.585918 g / cm^3
# Si number density = 25.918172 Si / 1000 Ang^3
#
#
#
# Elastic Constant Matrix: (Units=GPa)
#
#
# Indices 1 2 3 4 5 6 
#
# 1 55.6926 17.4821 41.4085 0.0000 -6.5909 0.0000
# 2 17.4821 77.4651 18.7323 0.0000 0.0381 0.0000
# 3 41.4085 18.7323 231.5003 0.0000 -37.6776 0.0000
# 4 0.0000 0.0000 0.0000 42.7723 0.0000 -1.0380
# 5 -6.5909 0.0381 -37.6776 0.0000 38.6913 0.0000
# 6 0.0000 0.0000 0.0000 -1.0380 0.0000 16.1002
#
#
#
# Elastic Compliance Matrix: (Units=1/GPa)
#
#
# Indices 1 2 3 4 5 6 
#
# 1 0.021905 -0.004087 -0.003541 0.000000 0.000288 0.000000
# 2 -0.004087 0.013980 -0.000613 0.000000 -0.001307 0.000000
# 3 -0.003541 -0.000613 0.005828 0.000000 0.005073 0.000000
# 4 0.000000 0.000000 0.000000 0.023416 0.000000 0.001510
# 5 0.000288 -0.001307 0.005073 0.000000 0.030836 0.000000
# 6 0.000000 0.000000 0.000000 0.001510 0.000000 0.062208
#
#
# Mechanical properties :
#
#
# Convention : Reuss Voigt Hill
#
# Bulk Modulus (GPa) = 39.63224 57.76708 48.69966
# Shear Modulus (GPa) = 27.31240 38.64843 32.98041
#
# Velocity S-wave (km/s) = 3.24974 3.86576 3.57106
# Velocity P-wave (km/s) = 5.42269 6.50093 5.98614
#
# Compressibility (1/GPa) = 0.02523198
#
# Stress axis : x y z
#
# Youngs Moduli (GPa) = 45.65090 71.52915 171.57969
#
# Poissons Ratio (x) = 0.29238 0.60750
# Poissons Ratio (y) = 0.18660 0.10514
# Poissons Ratio (z) = 0.16163 0.04383
#
# Static dielectric constant tensor:
#      x y z
#    x 2.133060 0.000000 0.090390 
#    y 0.000000 2.011360 0.000000 
#    z 0.090390 0.000000 2.326540 
# 
# From -- ./inp_files/300628.got.cif
#   From: 2010.05.17/outbox.cif.g08.bks.cpg/sg15_151_cif.got.tgz:300628.got - 2010.06.03 18:47:42.
