data_PCOD9308980
_publ_section_title
;
Structure prediction by ZEFSAII (Michael W. Deem and Ramdas Pophale) SiO2 
 PCOD9308980
Probable space group: C 2/C
;
_chemical_formula_sum "Si O2"
_cell_formula_units_Z 28
_cell_length_a 18.000000
_cell_length_b 21.000000
_cell_length_c 9.000000
_cell_angle_alpha 90.000000
_cell_angle_beta 60.000000
_cell_angle_gamma 90.000000
_cell_volume 2946.218424
_symmetry_space_group_name_H-M "C 2/C"
_symmetry_group_IT_number 15
_symmetry_cell_setting 'monoclinic'
loop_
_space_group_symop_operation_xyz
x,y,z
-x,y,1/2-z
-x,-y,-z
x,-y,1/2+z
1/2+x,1/2+y,z
1/2-x,1/2+y,1/2-z
1/2-x,1/2-y,-z
1/2+x,1/2-y,1/2+z
loop_
_atom_site_type_symbol
_atom_site_label
_atom_site_fract_x
_atom_site_fract_y
_atom_site_fract_z
Si Si1 0.342614 0.428126 0.227545
Si Si2 0.002638 0.283489 0.566400
Si Si3 0.166249 0.636582 0.871045
Si Si4 0.505238 0.642665 0.425884
Si Si5 0.171901 0.928667 0.894321
Si Si6 0.936566 0.474603 0.186315
Si Si7 0.142296 0.612128 0.236286
O O1 0.267893 0.378183 0.248828
O O2 0.340970 0.431447 0.411422
O O3 0.328132 0.499607 0.175282
O O4 0.431782 0.401498 0.073882
O O5 0.930825 0.341274 0.618416
O O6 0.000000 0.274020 0.750000
O O7 0.095656 0.307678 0.410989
O O8 0.988566 0.215092 0.502093
O O9 0.124563 0.577137 0.825195
O O10 0.160327 0.638880 0.055415
O O11 0.500000 0.640460 0.250000
O O12 0.596207 0.613654 0.395039
O O13 0.266529 0.897189 0.772646
O O14 0.888464 0.540172 0.274110
O O15 0.000000 0.449301 0.250000
O O16 0.000000 0.500000 0.000000
#
# Coordination Sequence:
#
# PCOD9308980 Si02
#       7
#     8   8   8   8   8   8   8
#     4  11  23  42  68  95 125 160 209 259 313 366
#     4  10  21  42  66  90 128 170 208 244 302 377
#     4  10  21  37  61  97 127 164 202 249 305 374
#     4  12  27  47  62  86 121 166 217 268 312 364
#     4  11  23  41  68  96 124 162 207 258 314 365
#     4  12  19  32  57  91 132 167 197 245 304 367
#     4  10  20  37  62  95 129 162 203 247 306 372
#
# _framework density 9.5037079999999996
#
# number of rings (size 3 to 8) (size 9 to 14) (size 15 to 20)
#    0.000    1.143    4.286    3.000    0.000    1.714 
#    2.571    5.714    0.000    0.000    0.000    0.000 
#    0.000    0.000    0.000    0.000    0.000    0.000 
#
# Total GULP energy -155944.332639 kJ/mol
# GULP energy per Si atom -5569.440451 kJ/mol
# Density = 0.948208 g / cm^3
# Si number density = 9.503708 Si / 1000 Ang^3
#
#
#
# Elastic Constant Matrix: (Units=GPa)
#
#
# Indices 1 2 3 4 5 6 
#
# 1 143.9894 37.7683 32.3883 0.0000 -6.1010 0.0000
# 2 37.7683 96.7677 17.3269 0.0000 2.3407 0.0000
# 3 32.3883 17.3269 63.7961 0.0000 6.6969 0.0000
# 4 0.0000 0.0000 0.0000 26.2720 0.0000 9.1870
# 5 -6.1010 2.3407 6.6969 0.0000 30.4433 0.0000
# 6 0.0000 0.0000 0.0000 9.1870 0.0000 29.2459
#
#
#
# Elastic Compliance Matrix: (Units=1/GPa)
#
#
# Indices 1 2 3 4 5 6 
#
# 1 0.008674 -0.002746 -0.003954 0.000000 0.002819 0.000000
# 2 -0.002746 0.011732 -0.001679 0.000000 -0.001083 0.000000
# 3 -0.003954 -0.001679 0.018638 0.000000 -0.004763 0.000000
# 4 0.000000 0.000000 0.000000 0.042760 0.000000 -0.013432
# 5 0.002819 -0.001083 -0.004763 0.000000 0.034544 0.000000
# 6 0.000000 0.000000 0.000000 -0.013432 0.000000 0.038412
#
#
# Mechanical properties :
#
#
# Convention : Reuss Voigt Hill
#
# Bulk Modulus (GPa) = 44.86747 53.28002 49.07374
# Shear Modulus (GPa) = 27.94114 31.66355 29.80235
#
# Velocity S-wave (km/s) = 3.83823 4.08591 3.96401
# Velocity P-wave (km/s) = 6.58021 7.09589 6.84291
#
# Compressibility (1/GPa) = 0.02228786
#
# Stress axis : x y z
#
# Youngs Moduli (GPa) = 115.28764 85.23351 53.65305
#
# Poissons Ratio (x) = 0.23402 0.21214
# Poissons Ratio (y) = 0.31654 0.09008
# Poissons Ratio (z) = 0.45583 0.14310
#
# Static dielectric constant tensor:
#      x y z
#    x 1.689270 0.000000 -0.023270 
#    y 0.000000 1.591980 0.000000 
#    z -0.023270 0.000000 1.653800 
# 
# From -- ./inp_files/50113.got.cif
#   From: 2010.05.17/outbox.ucp.g08.bks.cvg/sg15_26_cif.got.tgz:50113.got - 2010.06.11 12:40:34.
