data_PCOD9308214
_publ_section_title
;
Structure prediction by ZEFSAII (Michael W. Deem and Ramdas Pophale) SiO2 
 PCOD9308214
Probable space group: C 2/C
;
_chemical_formula_sum "Si O2"
_cell_formula_units_Z 28
_cell_length_a 23.630524
_cell_length_b 5.931344
_cell_length_c 9.702417
_cell_angle_alpha 90.000000
_cell_angle_beta 136.540784
_cell_angle_gamma 90.000000
_cell_volume 935.389756
_symmetry_space_group_name_H-M "C 2/C"
_symmetry_group_IT_number 15
_symmetry_cell_setting 'monoclinic'
loop_
_space_group_symop_operation_xyz
x,y,z
-x,y,1/2-z
-x,-y,-z
x,-y,1/2+z
1/2+x,1/2+y,z
1/2-x,1/2+y,1/2-z
1/2-x,1/2-y,-z
1/2+x,1/2-y,1/2+z
loop_
_atom_site_type_symbol
_atom_site_label
_atom_site_fract_x
_atom_site_fract_y
_atom_site_fract_z
Si Si1 0.626146 0.380487 0.991872
Si Si2 0.000000 0.000000 0.500000
Si Si3 0.706247 0.938549 0.832421
Si Si4 0.956290 0.424055 0.321528
O O1 0.582169 0.515458 0.036083
O O2 0.649493 0.148442 0.108973
O O3 0.560841 0.377590 0.747818
O O4 0.714970 0.451711 0.097664
O O5 0.015870 0.318152 0.553517
O O6 0.640957 0.056704 0.816747
O O7 0.750000 0.750000 0.000000
O O8 0.000000 0.461650 0.250000
#
# Coordination Sequence:
#
# PCOD9308214 Si02
#       4
#     8   4   8   8
#     4  12  26  49  79 119 160 212 270 331 409 488
#     4  12  26  50  76 118 158 206 272 330 406 480
#     4  12  26  51  82 116 162 215 274 337 405 491
#     4  12  27  50  78 117 160 209 271 334 407 478
#
# _framework density 29.934044
#
# number of rings (size 3 to 8) (size 9 to 14) (size 15 to 20)
#    0.000    0.000    2.857    6.857    0.000    0.000 
#    5.143    0.000    0.000    0.000    0.000    0.000 
#    0.000    0.000    0.000    0.000    0.000    0.000 
#
# Total GULP energy -78097.944620 kJ/mol
# GULP energy per Si atom -5578.424616 kJ/mol
# Density = 2.986591 g / cm^3
# Si number density = 29.934044 Si / 1000 Ang^3
#
#
#
# Elastic Constant Matrix: (Units=GPa)
#
#
# Indices 1 2 3 4 5 6 
#
# 1 445.3541 104.1065 134.4943 0.0000 -2.9172 0.0000
# 2 104.1065 122.1793 82.7526 0.0000 -8.1347 0.0000
# 3 134.4943 82.7526 229.4646 0.0000 -26.2937 0.0000
# 4 0.0000 0.0000 0.0000 92.3156 0.0000 5.7420
# 5 -2.9172 -8.1347 -26.2937 0.0000 84.7754 0.0000
# 6 0.0000 0.0000 0.0000 5.7420 0.0000 98.2441
#
#
#
# Elastic Compliance Matrix: (Units=1/GPa)
#
#
# Indices 1 2 3 4 5 6 
#
# 1 0.003018 -0.001811 -0.001165 0.000000 -0.000431 0.000000
# 2 -0.001811 0.011919 -0.003228 0.000000 0.000080 0.000000
# 3 -0.001165 -0.003228 0.006392 0.000000 0.001633 0.000000
# 4 0.000000 0.000000 0.000000 0.010872 0.000000 -0.000635
# 5 -0.000431 0.000080 0.001633 0.000000 0.012295 0.000000
# 6 0.000000 0.000000 0.000000 -0.000635 0.000000 0.010216
#
#
# Mechanical properties :
#
#
# Convention : Reuss Voigt Hill
#
# Bulk Modulus (GPa) = 112.09159 159.96718 136.02939
# Shear Modulus (GPa) = 71.33303 86.77666 79.05484
#
# Velocity S-wave (km/s) = 4.88690 5.39001 5.14461
# Velocity P-wave (km/s) = 8.32886 9.60688 8.99061
#
# Compressibility (1/GPa) = 0.00892128
#
# Stress axis : x y z
#
# Youngs Moduli (GPa) = 331.37085 83.89705 156.44465
#
# Poissons Ratio (x) = 0.15193 0.18228
# Poissons Ratio (y) = 0.60010 0.50498
# Poissons Ratio (z) = 0.38608 0.27081
#
# Static dielectric constant tensor:
#      x y z
#    x -0.100490 0.000000 -0.574820 
#    y 0.000000 3.613380 0.000000 
#    z -0.574820 0.000000 2.530800 
# 
# From -- ./inp_files/124572.got.cif
#   From: 2010.05.17/outbox.cif.g08.bks.cpg/sg15_63_cif.got.tgz:124572.got - 2010.06.03 18:47:42.
