data_PCOD9308066
_publ_section_title
;
Structure prediction by ZEFSAII (Michael W. Deem and Ramdas Pophale) SiO2 
 PCOD9308066
Probable space group: C 2/C
;
_chemical_formula_sum "Si O2"
_cell_formula_units_Z 44
_cell_length_a 26.734764
_cell_length_b 8.506211
_cell_length_c 23.472156
_cell_angle_alpha 90.000000
_cell_angle_beta 161.517814
_cell_angle_gamma 90.000000
_cell_volume 1692.147319
_symmetry_space_group_name_H-M "C 2/C"
_symmetry_group_IT_number 15
_symmetry_cell_setting 'monoclinic'
loop_
_space_group_symop_operation_xyz
x,y,z
-x,y,1/2-z
-x,-y,-z
x,-y,1/2+z
1/2+x,1/2+y,z
1/2-x,1/2+y,1/2-z
1/2-x,1/2-y,-z
1/2+x,1/2-y,1/2+z
loop_
_atom_site_type_symbol
_atom_site_label
_atom_site_fract_x
_atom_site_fract_y
_atom_site_fract_z
Si Si1 0.934149 0.895680 0.091372
Si Si2 0.454599 0.669486 0.429778
Si Si3 0.120910 0.344976 0.520951
Si Si4 0.750000 0.750000 0.000000
Si Si5 0.407307 0.856605 0.816478
Si Si6 0.775427 0.097527 0.065903
O O1 0.983186 0.205325 0.066040
O O2 0.041273 0.041789 0.226958
O O3 0.776006 0.908619 0.881979
O O4 0.059433 0.781819 0.194083
O O5 0.500000 0.500000 0.500000
O O6 0.525995 0.791695 0.552019
O O7 0.268624 0.667092 0.222893
O O8 0.190240 0.358374 0.533064
O O9 0.014688 0.498067 0.415252
O O10 0.635627 0.693889 0.929710
O O11 0.794830 0.561253 0.037185
O O12 0.750000 0.250000 0.000000
#
# Coordination Sequence:
#
# PCOD9308066 Si02
#       6
#     8   8   8   4   8   8
#     4  12  25  51  89 127 179 238 314 385 470 566
#     4  12  27  48  83 126 178 234 299 387 472 560
#     4  12  28  53  78 126 177 235 317 381 465 563
#     4  12  26  54  92 128 180 246 310 382 478 548
#     4  12  25  51  89 125 174 241 303 378 477 561
#     4  12  30  56  88 131 186 245 319 393 482 562
#
# _framework density 26.002462000000001
#
# number of rings (size 3 to 8) (size 9 to 14) (size 15 to 20)
#    0.000    0.000    3.636    5.455    0.000    8.727 
#    0.000    6.364    0.000    0.000    0.000    0.000 
#    0.000    0.000    0.000    0.000    0.000    0.000 
#
# Total GULP energy -122838.951326 kJ/mol
# GULP energy per Si atom -5583.588697 kJ/mol
# Density = 2.594328 g / cm^3
# Si number density = 26.002462 Si / 1000 Ang^3
#
#
#
# Elastic Constant Matrix: (Units=GPa)
#
#
# Indices 1 2 3 4 5 6 
#
# 1 165.7750 98.2952 35.5357 -0.0001 0.4701 0.0000
# 2 98.2952 197.8043 80.9065 0.0000 -10.4678 0.0000
# 3 35.5357 80.9065 181.1342 -0.0002 29.5748 -0.0001
# 4 -0.0001 0.0000 -0.0002 53.5222 -0.0001 2.7452
# 5 0.4701 -10.4678 29.5748 -0.0001 33.6068 -0.0001
# 6 0.0000 0.0000 -0.0001 2.7452 -0.0001 58.0569
#
#
#
# Elastic Compliance Matrix: (Units=1/GPa)
#
#
# Indices 1 2 3 4 5 6 
#
# 1 0.008697 -0.004773 0.000804 0.000000 -0.002316 0.000000
# 2 -0.004773 0.009653 -0.004527 0.000000 0.007058 0.000000
# 3 0.000804 -0.004527 0.008896 0.000000 -0.009250 0.000000
# 4 0.000000 0.000000 0.000000 0.018729 0.000000 -0.000886
# 5 -0.002316 0.007058 -0.009250 0.000000 0.040127 0.000000
# 6 0.000000 0.000000 0.000000 -0.000886 0.000000 0.017266
#
#
# Mechanical properties :
#
#
# Convention : Reuss Voigt Hill
#
# Bulk Modulus (GPa) = 97.54424 108.24313 102.89369
# Shear Modulus (GPa) = 40.39502 51.03559 45.71530
#
# Velocity S-wave (km/s) = 3.94573 4.43507 4.19754
# Velocity P-wave (km/s) = 7.63893 8.24287 7.94664
#
# Compressibility (1/GPa) = 0.01025176
#
# Stress axis : x y z
#
# Youngs Moduli (GPa) = 114.98706 103.59805 112.41521
#
# Poissons Ratio (x) = 0.49447 -0.09037
# Poissons Ratio (y) = 0.54883 0.50896
# Poissons Ratio (z) = -0.09244 0.46904
#
# Static dielectric constant tensor:
#      x y z
#    x 2.465560 0.000000 0.290920 
#    y 0.000000 2.032390 0.000000 
#    z 0.290920 0.000000 2.838710 
# 
# From -- ./inp_files/284480.got.cif
#   From: 2010.05.17/outbox.cif.g08.bks.cpg/sg15_143_cif.got.tgz:284480.got - 2010.06.03 18:47:42.
