data_PCOD9308058
_publ_section_title
;
Structure prediction by ZEFSAII (Michael W. Deem and Ramdas Pophale) SiO2 
 PCOD9308058
Probable space group: C 2/C
;
_chemical_formula_sum "Si O2"
_cell_formula_units_Z 40
_cell_length_a 7.148069
_cell_length_b 14.351717
_cell_length_c 18.913544
_cell_angle_alpha 90.000000
_cell_angle_beta 129.142259
_cell_angle_gamma 90.000000
_cell_volume 1504.848201
_symmetry_space_group_name_H-M "C 2/C"
_symmetry_group_IT_number 15
_symmetry_cell_setting 'monoclinic'
loop_
_space_group_symop_operation_xyz
x,y,z
-x,y,1/2-z
-x,-y,-z
x,-y,1/2+z
1/2+x,1/2+y,z
1/2-x,1/2+y,1/2-z
1/2-x,1/2-y,-z
1/2+x,1/2-y,1/2+z
loop_
_atom_site_type_symbol
_atom_site_label
_atom_site_fract_x
_atom_site_fract_y
_atom_site_fract_z
Si Si1 0.977346 0.673360 0.088973
Si Si2 0.904746 0.624983 0.535038
Si Si3 0.133974 0.945586 0.611543
Si Si4 0.767141 0.343624 0.143253
Si Si5 0.752654 0.516785 0.298741
O O1 0.783274 0.623051 0.094157
O O2 0.057978 0.778225 0.123188
O O3 0.223534 0.616797 0.160812
O O4 0.946188 0.659526 0.997219
O O5 0.643742 0.584636 0.450534
O O6 0.855931 0.696130 0.588353
O O7 0.056967 0.545665 0.613371
O O8 0.257763 0.954877 0.718041
O O9 0.152190 0.055710 0.597557
O O10 0.000000 0.351651 0.250000
O O11 0.500000 0.467700 0.250000
#
# Coordination Sequence:
#
# PCOD9308058 Si02
#       5
#     8   8   8   8   8
#     4  12  27  50  81 116 160 220 271 347 418 493
#     4  12  27  52  83 117 169 216 276 350 419 498
#     4  12  27  53  83 115 167 223 275 346 427 499
#     4  12  26  50  81 122 170 211 282 348 410 509
#     4  12  25  50  84 116 161 228 279 339 435 496
#
# _framework density 26.580753999999999
#
# number of rings (size 3 to 8) (size 9 to 14) (size 15 to 20)
#    0.000    0.000    6.000    3.000    0.000    0.800 
#    0.000    4.000    0.000    0.000    0.000    0.000 
#    0.000    0.000    0.000    0.000    0.000    0.000 
#
# Total GULP energy -111745.061968 kJ/mol
# GULP energy per Si atom -5587.253098 kJ/mol
# Density = 2.652025 g / cm^3
# Si number density = 26.580754 Si / 1000 Ang^3
#
#
#
# Elastic Constant Matrix: (Units=GPa)
#
#
# Indices 1 2 3 4 5 6 
#
# 1 173.5412 59.0317 87.9326 0.0000 26.5028 0.0000
# 2 59.0317 135.1382 31.4493 0.0000 23.9445 0.0000
# 3 87.9326 31.4493 151.6751 0.0000 10.7354 0.0000
# 4 0.0000 0.0000 0.0000 26.0192 0.0000 -11.0408
# 5 26.5028 23.9445 10.7354 0.0000 61.2680 0.0000
# 6 0.0000 0.0000 0.0000 -11.0408 0.0000 10.7433
#
#
#
# Elastic Compliance Matrix: (Units=1/GPa)
#
#
# Indices 1 2 3 4 5 6 
#
# 1 0.009393 -0.002606 -0.004748 0.000000 -0.002213 0.000000
# 2 -0.002606 0.009000 -0.000188 0.000000 -0.002357 0.000000
# 3 -0.004748 -0.000188 0.009350 0.000000 0.000489 0.000000
# 4 0.000000 0.000000 0.000000 0.068154 0.000000 0.070041
# 5 -0.002213 -0.002357 0.000489 0.000000 0.018114 0.000000
# 6 0.000000 0.000000 0.000000 0.070041 0.000000 0.165062
#
#
# Mechanical properties :
#
#
# Convention : Reuss Voigt Hill
#
# Bulk Modulus (GPa) = 79.00704 90.79796 84.90250
# Shear Modulus (GPa) = 16.75735 38.40217 27.57976
#
# Velocity S-wave (km/s) = 2.51356 3.80509 3.22465
# Velocity P-wave (km/s) = 6.18158 7.31699 6.77312
#
# Compressibility (1/GPa) = 0.01265710
#
# Stress axis : x y z
#
# Youngs Moduli (GPa) = 106.46671 111.11588 106.94807
#
# Poissons Ratio (x) = 0.28955 0.50783
# Poissons Ratio (y) = 0.27744 0.02016
# Poissons Ratio (z) = 0.50554 0.02094
#
# Static dielectric constant tensor:
#      x y z
#    x 2.280990 0.000000 -0.053140 
#    y 0.000000 2.125340 0.000000 
#    z -0.053140 0.000000 2.192030 
# 
# From -- ./inp_files/231450.got.cif
#   From: 2010.05.17/outbox.cif.g08.bks.cpg/sg15_116_cif.got.tgz:231450.got - 2010.06.03 18:47:42.
