data_PCOD9308006
_publ_section_title
;
Structure prediction by ZEFSAII (Michael W. Deem and Ramdas Pophale) SiO2 
 PCOD9308006
Probable space group: C 2/C
;
_chemical_formula_sum "Si O2"
_cell_formula_units_Z 44
_cell_length_a 24.124755
_cell_length_b 4.959523
_cell_length_c 14.180650
_cell_angle_alpha 90.000000
_cell_angle_beta 84.063779
_cell_angle_gamma 90.000000
_cell_volume 1687.577967
_symmetry_space_group_name_H-M "C 2/C"
_symmetry_group_IT_number 15
_symmetry_cell_setting 'monoclinic'
loop_
_space_group_symop_operation_xyz
x,y,z
-x,y,1/2-z
-x,-y,-z
x,-y,1/2+z
1/2+x,1/2+y,z
1/2-x,1/2+y,1/2-z
1/2-x,1/2-y,-z
1/2+x,1/2-y,1/2+z
loop_
_atom_site_type_symbol
_atom_site_label
_atom_site_fract_x
_atom_site_fract_y
_atom_site_fract_z
Si Si1 0.898242 0.812171 0.253906
Si Si2 0.362946 0.948449 0.939217
Si Si3 0.285917 0.592863 0.221095
Si Si4 0.698902 0.457261 0.496497
Si Si5 0.448790 0.968775 0.081767
Si Si6 0.000000 0.847182 0.750000
O O1 0.886923 0.574355 0.330201
O O2 0.843067 0.995563 0.258779
O O3 0.918434 0.709149 0.147232
O O4 0.949421 0.967223 0.291498
O O5 0.310345 0.741259 0.949167
O O6 0.401672 0.851280 0.019600
O O7 0.350296 0.256654 0.964684
O O8 0.265296 0.896435 0.240916
O O9 0.298872 0.538837 0.111320
O O10 0.750000 0.250000 0.500000
O O11 0.475025 0.807759 0.165017
O O12 0.500000 0.000000 0.000000
#
# Coordination Sequence:
#
# PCOD9308006 Si02
#       6
#     8   8   8   8   8   4
#     4  12  28  49  76 118 155 209 269 332 399 482
#     4  12  27  47  79 111 158 204 257 327 389 471
#     4  12  26  47  78 115 159 209 261 323 394 474
#     4  12  25  48  74 114 156 204 262 319 389 468
#     4  12  28  51  77 115 157 205 270 328 412 474
#     4  12  28  48  82 108 156 206 264 330 406 464
#
# _framework density 26.072866999999999
#
# number of rings (size 3 to 8) (size 9 to 14) (size 15 to 20)
#    0.000    0.000    1.818    7.636    7.636    1.455 
#    0.000    0.000    0.000    0.000    0.000    0.000 
#    0.000    0.000    0.000    0.000    0.000    0.000 
#
# Total GULP energy -123196.911346 kJ/mol
# GULP energy per Si atom -5599.859607 kJ/mol
# Density = 2.601352 g / cm^3
# Si number density = 26.072867 Si / 1000 Ang^3
#
#
#
# Elastic Constant Matrix: (Units=GPa)
#
#
# Indices 1 2 3 4 5 6 
#
# 1 133.5510 21.5852 19.2347 0.0000 10.7417 0.0000
# 2 21.5852 106.8745 23.9596 0.0000 -2.2124 0.0000
# 3 19.2347 23.9596 145.7280 0.0000 -2.3395 0.0000
# 4 0.0000 0.0000 0.0000 33.5166 0.0000 -2.7430
# 5 10.7417 -2.2124 -2.3395 0.0000 32.0798 0.0000
# 6 0.0000 0.0000 0.0000 -2.7430 0.0000 46.5837
#
#
#
# Elastic Compliance Matrix: (Units=1/GPa)
#
#
# Indices 1 2 3 4 5 6 
#
# 1 0.008086 -0.001498 -0.000867 0.000000 -0.002874 0.000000
# 2 -0.001498 0.010002 -0.001429 0.000000 0.001087 0.000000
# 3 -0.000867 -0.001429 0.007223 0.000000 0.000719 0.000000
# 4 0.000000 0.000000 0.000000 0.029980 0.000000 0.001765
# 5 -0.002874 0.001087 0.000719 0.000000 0.032262 0.000000
# 6 0.000000 0.000000 0.000000 0.001765 0.000000 0.021571
#
#
# Mechanical properties :
#
#
# Convention : Reuss Voigt Hill
#
# Bulk Modulus (GPa) = 56.42662 57.30141 56.86402
# Shear Modulus (GPa) = 40.77602 43.86095 42.31849
#
# Velocity S-wave (km/s) = 3.95894 4.10597 4.03312
# Velocity P-wave (km/s) = 6.52583 6.67111 6.59887
#
# Compressibility (1/GPa) = 0.01772213
#
# Stress axis : x y z
#
# Youngs Moduli (GPa) = 123.67093 99.97708 138.44516
#
# Poissons Ratio (x) = 0.14979 0.12004
# Poissons Ratio (y) = 0.18529 0.19788
# Poissons Ratio (z) = 0.10723 0.14290
#
# Static dielectric constant tensor:
#      x y z
#    x 2.180250 0.000000 -0.045640 
#    y 0.000000 2.004090 0.000000 
#    z -0.045640 0.000000 2.006690 
# 
# From -- ./inp_files/170802.got.cif
#   From: 2010.05.17/outbox.cif.g08.bks.cpg/sg15_86_cif.got.tgz:170802.got - 2010.06.03 18:47:42.
