data_PCOD9308310
_publ_section_title
;
Structure prediction by ZEFSAII (Michael W. Deem and Ramdas Pophale) SiO2 
 PCOD9308310
Probable space group: C 2/C
;
_chemical_formula_sum "Si O2"
_cell_formula_units_Z 32
_cell_length_a 15.226756
_cell_length_b 16.792562
_cell_length_c 5.331232
_cell_angle_alpha 90.000000
_cell_angle_beta 69.781493
_cell_angle_gamma 90.000000
_cell_volume 1279.179057
_symmetry_space_group_name_H-M "C 2/C"
_symmetry_group_IT_number 15
_symmetry_cell_setting 'monoclinic'
loop_
_space_group_symop_operation_xyz
x,y,z
-x,y,1/2-z
-x,-y,-z
x,-y,1/2+z
1/2+x,1/2+y,z
1/2-x,1/2+y,1/2-z
1/2-x,1/2-y,-z
1/2+x,1/2-y,1/2+z
loop_
_atom_site_type_symbol
_atom_site_label
_atom_site_fract_x
_atom_site_fract_y
_atom_site_fract_z
Si Si1 0.272781 0.542547 0.500708
Si Si2 0.432471 0.924807 0.128313
Si Si3 0.356498 0.777180 0.955558
Si Si4 0.901660 0.189402 0.423097
O O1 0.300116 0.519631 0.191619
O O2 0.161040 0.549925 0.631613
O O3 0.320998 0.624318 0.528577
O O4 0.500000 0.876256 0.250000
O O5 0.390514 0.869130 0.948188
O O6 0.500000 0.000000 0.000000
O O7 0.411010 0.736841 0.672307
O O8 0.250000 0.750000 0.000000
O O9 0.373843 0.743498 0.215417
O O10 0.000000 0.150098 0.250000
#
# Coordination Sequence:
#
# PCOD9308310 Si02
#       4
#     8   8   8   8
#     4  12  27  49  79 116 160 212 271 347 418 499
#     4  12  27  47  80 119 169 210 277 348 436 501
#     4  12  27  51  81 113 162 224 277 341 421 511
#     4  12  28  52  78 115 160 216 283 335 412 507
#
# _framework density 25.016044999999998
#
# number of rings (size 3 to 8) (size 9 to 14) (size 15 to 20)
#    0.000    0.000    5.000    3.750    0.000    5.000 
#    0.000    0.000    0.000    0.000    0.000    0.000 
#    0.000    0.000    0.000    0.000    0.000    0.000 
#
# Total GULP energy -89606.819748 kJ/mol
# GULP energy per Si atom -5600.426234 kJ/mol
# Density = 2.495911 g / cm^3
# Si number density = 25.016045 Si / 1000 Ang^3
#
#
#
# Elastic Constant Matrix: (Units=GPa)
#
#
# Indices 1 2 3 4 5 6 
#
# 1 149.2847 74.6655 42.6520 0.0000 2.3003 0.0000
# 2 74.6655 118.0391 26.0597 0.0000 -2.3085 0.0000
# 3 42.6520 26.0597 102.4593 0.0000 13.7282 0.0000
# 4 0.0000 0.0000 0.0000 54.2155 0.0000 3.6717
# 5 2.3003 -2.3085 13.7282 0.0000 55.9511 0.0000
# 6 0.0000 0.0000 0.0000 3.6717 0.0000 47.8442
#
#
#
# Elastic Compliance Matrix: (Units=1/GPa)
#
#
# Indices 1 2 3 4 5 6 
#
# 1 0.010529 -0.006030 -0.002852 0.000000 0.000018 0.000000
# 2 -0.006030 0.012480 -0.000792 0.000000 0.000957 0.000000
# 3 -0.002852 -0.000792 0.011516 0.000000 -0.002741 0.000000
# 4 0.000000 0.000000 0.000000 0.018541 0.000000 -0.001423
# 5 0.000018 0.000957 -0.002741 0.000000 0.018584 0.000000
# 6 0.000000 0.000000 0.000000 -0.001423 0.000000 0.021010
#
#
# Mechanical properties :
#
#
# Convention : Reuss Voigt Hill
#
# Bulk Modulus (GPa) = 65.89122 72.94863 69.41993
# Shear Modulus (GPa) = 42.71036 46.69589 44.70312
#
# Velocity S-wave (km/s) = 4.13645 4.32515 4.23185
# Velocity P-wave (km/s) = 7.01501 7.35979 7.18947
#
# Compressibility (1/GPa) = 0.01517653
#
# Stress axis : x y z
#
# Youngs Moduli (GPa) = 94.97414 80.12943 86.83702
#
# Poissons Ratio (x) = 0.48320 0.24764
# Poissons Ratio (y) = 0.57272 0.06878
# Poissons Ratio (z) = 0.27084 0.06347
#
# Static dielectric constant tensor:
#      x y z
#    x 2.004730 0.000000 0.056950 
#    y 0.000000 2.022120 0.000000 
#    z 0.056950 0.000000 2.120740 
# 
# From -- ./inp_files/6499.got.cif
#   From: 2010.05.17/outbox.cif.g08.bks.cpg/sg15_4_cif.got.tgz:6499.got - 2010.06.03 18:47:42.
