data_PCOD9308324
_publ_section_title
;
Structure prediction by ZEFSAII (Michael W. Deem and Ramdas Pophale) SiO2 
 PCOD9308324
Probable space group: C 2/C
;
_chemical_formula_sum "Si O2"
_cell_formula_units_Z 32
_cell_length_a 29.680435
_cell_length_b 5.046803
_cell_length_c 15.576058
_cell_angle_alpha 90.000000
_cell_angle_beta 145.938289
_cell_angle_gamma 90.000000
_cell_volume 1306.768031
_symmetry_space_group_name_H-M "C 2/C"
_symmetry_group_IT_number 15
_symmetry_cell_setting 'monoclinic'
loop_
_space_group_symop_operation_xyz
x,y,z
-x,y,1/2-z
-x,-y,-z
x,-y,1/2+z
1/2+x,1/2+y,z
1/2-x,1/2+y,1/2-z
1/2-x,1/2-y,-z
1/2+x,1/2-y,1/2+z
loop_
_atom_site_type_symbol
_atom_site_label
_atom_site_fract_x
_atom_site_fract_y
_atom_site_fract_z
Si Si1 0.043104 0.050057 0.455789
Si Si2 0.169722 0.660120 0.716954
Si Si3 0.349585 0.838771 0.991733
Si Si4 0.430100 0.048774 0.287983
O O1 0.116374 0.927763 0.627020
O O2 0.976300 0.823812 0.353188
O O3 0.086575 0.113874 0.434587
O O4 0.997926 0.320690 0.409527
O O5 0.262854 0.723016 0.877260
O O6 0.160931 0.515478 0.610866
O O7 0.134037 0.486646 0.737561
O O8 0.386462 0.992580 0.129400
#
# Coordination Sequence:
#
# PCOD9308324 Si02
#       4
#     8   8   8   8
#     4  12  27  49  74 113 148 203 251 309 368 449
#     4  12  27  51  75 113 153 200 250 311 381 445
#     4  12  28  48  80 112 156 200 252 309 382 447
#     4  12  30  48  79 110 153 197 256 310 373 448
#
# _framework density 24.487895999999999
#
# number of rings (size 3 to 8) (size 9 to 14) (size 15 to 20)
#    0.000    0.000    5.000    3.000   10.500    0.000 
#    0.000    3.750    0.000    0.000    0.000    0.000 
#    0.000    0.000    0.000    0.000    0.000    0.000 
#
# Total GULP energy -89783.478738 kJ/mol
# GULP energy per Si atom -5611.467421 kJ/mol
# Density = 2.443216 g / cm^3
# Si number density = 24.487896 Si / 1000 Ang^3
#
#
#
# Elastic Constant Matrix: (Units=GPa)
#
#
# Indices 1 2 3 4 5 6 
#
# 1 142.5408 44.7357 62.3730 0.0000 26.7076 0.0001
# 2 44.7357 133.8507 29.6059 0.0001 17.2033 -0.0001
# 3 62.3730 29.6059 104.6828 0.0000 30.6678 0.0000
# 4 0.0000 0.0001 0.0000 20.8685 0.0000 -5.9575
# 5 26.7076 17.2033 30.6678 0.0000 49.2927 0.0000
# 6 0.0001 -0.0001 0.0000 -5.9575 0.0000 24.6297
#
#
#
# Elastic Compliance Matrix: (Units=1/GPa)
#
#
# Indices 1 2 3 4 5 6 
#
# 1 0.010159 -0.002079 -0.004971 0.000000 -0.001686 0.000000
# 2 -0.002079 0.008511 -0.000768 0.000000 -0.001366 0.000000
# 3 -0.004971 -0.000768 0.014509 0.000000 -0.006065 0.000000
# 4 0.000000 0.000000 0.000000 0.051473 0.000000 0.012451
# 5 -0.001686 -0.001366 -0.006065 0.000000 0.025451 0.000000
# 6 0.000000 0.000000 0.000000 0.012451 0.000000 0.043613
#
#
# Mechanical properties :
#
#
# Convention : Reuss Voigt Hill
#
# Bulk Modulus (GPa) = 57.00495 72.72262 64.86379
# Shear Modulus (GPa) = 28.53861 35.24882 31.89371
#
# Velocity S-wave (km/s) = 3.41752 3.79811 3.61283
# Velocity P-wave (km/s) = 6.23715 6.99972 6.62940
#
# Compressibility (1/GPa) = 0.01754234
#
# Stress axis : x y z
#
# Youngs Moduli (GPa) = 98.43201 117.48965 68.92378
#
# Poissons Ratio (x) = 0.24428 0.34264
# Poissons Ratio (y) = 0.20466 0.05294
# Poissons Ratio (z) = 0.48933 0.09024
#
# Static dielectric constant tensor:
#      x y z
#    x 1.955780 0.000000 -0.027570 
#    y 0.000000 1.963680 0.000000 
#    z -0.027570 0.000000 1.898220 
# 
# From -- ./inp_files/223983.got.cif
#   From: 2010.05.17/outbox.cif.g08.bks.cpg/sg15_112_cif.got.tgz:223983.got - 2010.06.03 18:47:42.
