data_PCOD9308535
_publ_section_title
;
Structure prediction by ZEFSAII (Michael W. Deem and Ramdas Pophale) SiO2 
 PCOD9308535
Probable space group: C 2/C
;
_chemical_formula_sum "Si O2"
_cell_formula_units_Z 36
_cell_length_a 14.014433
_cell_length_b 11.763964
_cell_length_c 9.845571
_cell_angle_alpha 90.000000
_cell_angle_beta 56.482036
_cell_angle_gamma 90.000000
_cell_volume 1353.276563
_symmetry_space_group_name_H-M "C 2/C"
_symmetry_group_IT_number 15
_symmetry_cell_setting 'monoclinic'
loop_
_space_group_symop_operation_xyz
x,y,z
-x,y,1/2-z
-x,-y,-z
x,-y,1/2+z
1/2+x,1/2+y,z
1/2-x,1/2+y,1/2-z
1/2-x,1/2-y,-z
1/2+x,1/2-y,1/2+z
loop_
_atom_site_type_symbol
_atom_site_label
_atom_site_fract_x
_atom_site_fract_y
_atom_site_fract_z
Si Si1 0.755191 0.382521 0.074698
Si Si2 0.678525 0.009449 0.729663
Si Si3 0.919793 0.281778 0.147635
Si Si4 0.500000 0.569255 0.750000
Si Si5 0.613849 0.356858 0.548012
O O1 0.807894 0.409241 0.886093
O O2 0.777566 0.496958 0.150105
O O3 0.830237 0.288818 0.094602
O O4 0.618729 0.367196 0.184916
O O5 0.564355 0.084574 0.828787
O O6 0.764467 0.107065 0.602255
O O7 0.884788 0.203867 0.304824
O O8 0.041221 0.228779 0.013295
O O9 0.545631 0.476623 0.604575
#
# Coordination Sequence:
#
# PCOD9308535 Si02
#       5
#     8   8   8   4   8
#     4   9  18  30  51  82 103 128 169 216 260 291
#     4   9  18  32  56  77 103 131 170 218 252 302
#     4   8  17  30  51  81  98 132 172 218 241 302
#     4   8  16  30  52  76  96 130 168 216 242 298
#     4   9  16  32  53  78  98 135 181 205 244 302
#
# _framework density 26.6021
#
# number of rings (size 3 to 8) (size 9 to 14) (size 15 to 20)
#    1.333    2.222    0.000    0.667    0.000    3.556 
#    0.000    4.444    0.000   21.333    0.000    0.000 
#    0.000    0.000    0.000    0.000    0.000    0.000 
#
# Total GULP energy -100230.487236 kJ/mol
# GULP energy per Si atom -5568.360402 kJ/mol
# Density = 2.654155 g / cm^3
# Si number density = 26.602100 Si / 1000 Ang^3
#
#
#
# Elastic Constant Matrix: (Units=GPa)
#
#
# Indices 1 2 3 4 5 6 
#
# 1 138.6746 67.9361 -0.0737 0.0000 23.0131 0.0000
# 2 67.9361 77.7457 38.6705 0.0000 18.5661 0.0000
# 3 -0.0737 38.6705 79.9890 0.0000 24.3840 0.0000
# 4 0.0000 0.0000 0.0000 29.6862 0.0000 -6.6285
# 5 23.0131 18.5661 24.3840 0.0000 26.6745 0.0000
# 6 0.0000 0.0000 0.0000 -6.6285 0.0000 29.4735
#
#
#
# Elastic Compliance Matrix: (Units=1/GPa)
#
#
# Indices 1 2 3 4 5 6 
#
# 1 0.020892 -0.022070 0.015944 0.000000 -0.017238 0.000000
# 2 -0.022070 0.040962 -0.023479 0.000000 0.011993 0.000000
# 3 0.015944 -0.023479 0.031995 0.000000 -0.026660 0.000000
# 4 0.000000 0.000000 0.000000 0.035467 0.000000 0.007976
# 5 -0.017238 0.011993 -0.026660 0.000000 0.068384 0.000000
# 6 0.000000 0.000000 0.000000 0.007976 0.000000 0.035723
#
#
# Mechanical properties :
#
#
# Convention : Reuss Voigt Hill
#
# Bulk Modulus (GPa) = 28.87017 56.60833 42.73925
# Shear Modulus (GPa) = 16.43762 29.82527 23.13144
#
# Velocity S-wave (km/s) = 2.48847 3.35201 2.95199
# Velocity P-wave (km/s) = 4.37411 6.02554 5.26497
#
# Compressibility (1/GPa) = 0.03463783
#
# Stress axis : x y z
#
# Youngs Moduli (GPa) = 47.86461 24.41265 31.25522
#
# Poissons Ratio (x) = 0.53879 -0.49833
# Poissons Ratio (y) = 1.05637 0.73386
# Poissons Ratio (z) = -0.76314 0.57320
#
# Static dielectric constant tensor:
#      x y z
#    x 2.213930 0.000000 -0.027480 
#    y 0.000000 2.110430 0.000000 
#    z -0.027480 0.000000 2.217050 
# 
# From -- ./inp_files/94028.got.cif
#   From: 2010.05.17/outbox.cif.g08.bks.cpg/sg15_48_cif.got.tgz:94028.got - 2010.06.03 18:47:42.
