data_PCOD9308698
_publ_section_title
;
Structure prediction by ZEFSAII (Michael W. Deem and Ramdas Pophale) SiO2 
 PCOD9308698
Probable space group: C 2/C
;
_chemical_formula_sum "Si O2"
_cell_formula_units_Z 32
_cell_length_a 21.000000
_cell_length_b 9.000000
_cell_length_c 21.000000
_cell_angle_alpha 90.000000
_cell_angle_beta 120.000000
_cell_angle_gamma 90.000000
_cell_volume 3437.254828
_symmetry_space_group_name_H-M "C 2/C"
_symmetry_group_IT_number 15
_symmetry_cell_setting 'monoclinic'
loop_
_space_group_symop_operation_xyz
x,y,z
-x,y,1/2-z
-x,-y,-z
x,-y,1/2+z
1/2+x,1/2+y,z
1/2-x,1/2+y,1/2-z
1/2-x,1/2-y,-z
1/2+x,1/2-y,1/2+z
loop_
_atom_site_type_symbol
_atom_site_label
_atom_site_fract_x
_atom_site_fract_y
_atom_site_fract_z
Si Si1 0.178888 0.131055 0.538221
Si Si2 0.325493 0.686882 0.815540
Si Si3 0.776288 0.535025 0.473796
Si Si4 0.940075 0.666511 0.921498
Si Si5 0.942109 0.423408 0.562711
Si Si6 0.218984 0.519141 0.666322
Si Si7 0.014422 0.944642 0.934846
Si Si8 0.517007 0.691002 0.682252
O O1 0.174497 0.108861 0.613380
O O2 0.212174 0.292850 0.540151
O O3 0.224552 0.026453 0.510956
O O4 0.094151 0.130173 0.475780
O O5 0.271478 0.598986 0.742252
O O6 0.401234 0.702261 0.811265
O O7 0.295267 0.850205 0.818422
O O8 0.857577 0.470499 0.528556
O O9 0.752268 0.467915 0.392840
O O10 0.861371 0.593924 0.872158
O O11 0.004977 0.560302 0.928807
O O12 0.950894 0.823079 0.893195
O O13 0.948429 0.679334 0.002393
O O14 0.974115 0.338958 0.639151
O O15 0.015272 0.058895 0.877368
O O16 0.000000 0.000000 0.000000
O O17 0.500000 0.668794 0.750000
#
# Coordination Sequence:
#
# PCOD9308698 Si02
#       8
#     8   8   8   8   8   8   8   8
#     4  10  20  39  63  92 122 159 211 256 307 362
#     4  11  23  42  60  88 126 169 203 254 320 377
#     4   9  20  38  65  94 119 157 208 266 298 363
#     4  10  19  38  68  91 115 160 223 248 296 375
#     4  10  18  40  66  91 118 160 210 261 304 370
#     4  10  23  38  64  92 126 162 207 256 315 374
#     4  12  22  39  66  94 122 165 215 256 306 382
#     4  12  27  42  60  93 135 165 201 269 326 366
#
# _framework density 9.3097549999999991
#
# number of rings (size 3 to 8) (size 9 to 14) (size 15 to 20)
#    0.000    1.500    5.000    0.000    3.500    1.000 
#    0.000    1.250    0.000    0.000    0.000    0.000 
#    0.000    0.000    0.000    0.000    0.000    0.000 
#
# Total GULP energy -178192.910340 kJ/mol
# GULP energy per Si atom -5568.528448 kJ/mol
# Density = 0.928857 g / cm^3
# Si number density = 9.309755 Si / 1000 Ang^3
#
#
#
# Elastic Constant Matrix: (Units=GPa)
#
#
# Indices 1 2 3 4 5 6 
#
# 1 109.3988 24.0652 57.0262 0.0000 -28.7810 0.0000
# 2 24.0652 42.1180 40.4524 0.0000 -8.7060 0.0000
# 3 57.0262 40.4524 133.4558 0.0000 -24.2978 0.0000
# 4 0.0000 0.0000 0.0000 32.5031 0.0000 2.6673
# 5 -28.7810 -8.7060 -24.2978 0.0000 36.7104 0.0000
# 6 0.0000 0.0000 0.0000 2.6673 0.0000 25.3227
#
#
#
# Elastic Compliance Matrix: (Units=1/GPa)
#
#
# Indices 1 2 3 4 5 6 
#
# 1 0.013636 -0.002753 -0.003599 0.000000 0.007656 0.000000
# 2 -0.002753 0.034112 -0.009191 0.000000 -0.000152 0.000000
# 3 -0.003599 -0.009191 0.012401 0.000000 0.003207 0.000000
# 4 0.000000 0.000000 0.000000 0.031035 0.000000 -0.003269
# 5 0.007656 -0.000152 0.003207 0.000000 0.035329 0.000000
# 6 0.000000 0.000000 0.000000 -0.003269 0.000000 0.039835
#
#
# Mechanical properties :
#
#
# Convention : Reuss Voigt Hill
#
# Bulk Modulus (GPa) = 34.40667 58.67336 46.54002
# Shear Modulus (GPa) = 24.14052 29.80250 26.97151
#
# Velocity S-wave (km/s) = 3.60462 4.00510 3.81013
# Velocity P-wave (km/s) = 5.98693 7.27791 6.66376
#
# Compressibility (1/GPa) = 0.02906413
#
# Stress axis : x y z
#
# Youngs Moduli (GPa) = 73.33274 29.31515 80.64087
#
# Poissons Ratio (x) = 0.08069 0.29019
# Poissons Ratio (y) = 0.20186 0.74119
# Poissons Ratio (z) = 0.26389 0.26944
#
# Static dielectric constant tensor:
#      x y z
#    x 1.643790 0.000000 0.004930 
#    y 0.000000 1.691940 0.000000 
#    z 0.004930 0.000000 1.638830 
# 
# From -- ./inp_files/251909.got.cif
#   From: 2010.05.17/outbox.ucp.g08.bks.cvg/sg15_126_cif.got.tgz:251909.got - 2010.06.11 12:40:34.
