data_PCOD9308201
_publ_section_title
;
Structure prediction by ZEFSAII (Michael W. Deem and Ramdas Pophale) SiO2 
 PCOD9308201
Probable space group: C 2/C
;
_chemical_formula_sum "Si O2"
_cell_formula_units_Z 40
_cell_length_a 18.556291
_cell_length_b 8.710077
_cell_length_c 21.173093
_cell_angle_alpha 90.000000
_cell_angle_beta 151.609466
_cell_angle_gamma 90.000000
_cell_volume 1627.154153
_symmetry_space_group_name_H-M "C 2/C"
_symmetry_group_IT_number 15
_symmetry_cell_setting 'monoclinic'
loop_
_space_group_symop_operation_xyz
x,y,z
-x,y,1/2-z
-x,-y,-z
x,-y,1/2+z
1/2+x,1/2+y,z
1/2-x,1/2+y,1/2-z
1/2-x,1/2-y,-z
1/2+x,1/2-y,1/2+z
loop_
_atom_site_type_symbol
_atom_site_label
_atom_site_fract_x
_atom_site_fract_y
_atom_site_fract_z
Si Si1 0.362871 0.362130 0.193574
Si Si2 0.500000 0.000000 0.500000
Si Si3 0.643944 0.693049 0.259087
Si Si4 0.500000 0.897904 0.250000
Si Si5 0.051126 0.387900 0.904294
Si Si6 0.535269 0.669477 0.501786
O O1 0.500000 0.393812 0.250000
O O2 0.313477 0.519401 0.189737
O O3 0.426381 0.237600 0.290556
O O4 0.212272 0.309921 0.041912
O O5 0.491116 0.007433 0.415404
O O6 0.554719 0.183646 0.541073
O O7 0.607304 0.786516 0.293487
O O8 0.506107 0.671922 0.104344
O O9 0.794928 0.775190 0.350313
O O10 0.426789 0.005549 0.140477
O O11 0.500000 0.500000 0.500000
#
# Coordination Sequence:
#
# PCOD9308201 Si02
#       6
#     8   4   8   4   8   8
#     4  12  26  49  82 118 164 213 275 342 410 497
#     4  12  26  54  76 118 162 212 274 340 400 504
#     4  12  27  51  80 118 155 219 269 338 408 498
#     4  12  26  48  84 116 168 208 276 344 414 494
#     4  12  28  50  80 118 165 212 277 341 416 493
#     4  12  30  52  82 116 164 215 270 341 415 483
#
# _framework density 24.582796999999999
#
# number of rings (size 3 to 8) (size 9 to 14) (size 15 to 20)
#    0.000    0.000    6.000    1.800    5.600    4.800 
#    0.000    0.000    0.000    0.000    0.000    0.000 
#    0.000    0.000    0.000    0.000    0.000    0.000 
#
# Total GULP energy -111470.019630 kJ/mol
# GULP energy per Si atom -5573.500981 kJ/mol
# Density = 2.452685 g / cm^3
# Si number density = 24.582797 Si / 1000 Ang^3
#
#
#
# Elastic Constant Matrix: (Units=GPa)
#
#
# Indices 1 2 3 4 5 6 
#
# 1 80.3176 69.3982 33.3672 0.0001 -17.1294 0.0000
# 2 69.3982 208.1609 65.0543 0.0001 -3.2997 0.0000
# 3 33.3672 65.0543 148.8485 0.0002 -9.2394 0.0000
# 4 0.0001 0.0001 0.0002 71.8199 0.0000 -19.6454
# 5 -17.1294 -3.2997 -9.2394 0.0000 29.4411 0.0000
# 6 0.0000 0.0000 0.0000 -19.6454 0.0000 60.8444
#
#
#
# Elastic Compliance Matrix: (Units=1/GPa)
#
#
# Indices 1 2 3 4 5 6 
#
# 1 0.020821 -0.006396 -0.001188 0.000000 0.011025 0.000000
# 2 -0.006396 0.007529 -0.002076 0.000000 -0.003529 0.000000
# 3 -0.001188 -0.002076 0.007990 0.000000 0.001584 0.000000
# 4 0.000000 0.000000 0.000000 0.015273 0.000000 0.004931
# 5 0.011025 -0.003529 0.001584 0.000000 0.040482 0.000000
# 6 0.000000 0.000000 0.000000 0.004931 0.000000 0.018028
#
#
# Mechanical properties :
#
#
# Convention : Reuss Voigt Hill
#
# Bulk Modulus (GPa) = 58.74878 85.88516 72.31697
# Shear Modulus (GPa) = 37.00534 50.38823 43.69678
#
# Velocity S-wave (km/s) = 3.88407 4.53231 4.22066
# Velocity P-wave (km/s) = 6.63814 7.89950 7.29613
#
# Compressibility (1/GPa) = 0.01702163
#
# Stress axis : x y z
#
# Youngs Moduli (GPa) = 48.02740 132.81977 125.15440
#
# Poissons Ratio (x) = 0.84946 0.14868
# Poissons Ratio (y) = 0.30716 0.25981
# Poissons Ratio (z) = 0.05706 0.27572
#
# Static dielectric constant tensor:
#      x y z
#    x 2.081730 0.000000 -0.004320 
#    y 0.000000 1.963360 0.000000 
#    z -0.004320 0.000000 2.175580 
# 
# From -- ./inp_files/279649.got.cif
#   From: 2010.05.17/outbox.cif.g08.bks.cpg/sg15_140_cif.got.tgz:279649.got - 2010.06.03 18:47:42.
