data_PCOD9308139
_publ_section_title
;
Structure prediction by ZEFSAII (Michael W. Deem and Ramdas Pophale) SiO2 
 PCOD9308139
Probable space group: C 2/C
;
_chemical_formula_sum "Si O2"
_cell_formula_units_Z 40
_cell_length_a 16.454259
_cell_length_b 8.156058
_cell_length_c 24.219482
_cell_angle_alpha 90.000000
_cell_angle_beta 149.450232
_cell_angle_gamma 90.000000
_cell_volume 1652.084063
_symmetry_space_group_name_H-M "C 2/C"
_symmetry_group_IT_number 15
_symmetry_cell_setting 'monoclinic'
loop_
_space_group_symop_operation_xyz
x,y,z
-x,y,1/2-z
-x,-y,-z
x,-y,1/2+z
1/2+x,1/2+y,z
1/2-x,1/2+y,1/2-z
1/2-x,1/2-y,-z
1/2+x,1/2-y,1/2+z
loop_
_atom_site_type_symbol
_atom_site_label
_atom_site_fract_x
_atom_site_fract_y
_atom_site_fract_z
Si Si1 0.645246 0.841660 0.619581
Si Si2 0.282057 0.932900 0.041755
Si Si3 0.357998 0.051336 0.776370
Si Si4 0.824232 0.038123 0.634110
Si Si5 0.821215 0.134941 0.417051
O O1 0.786742 0.731684 0.727890
O O2 0.490843 0.726196 0.521692
O O3 0.616093 0.986181 0.646743
O O4 0.702850 0.921798 0.596357
O O5 0.472457 0.957687 0.155473
O O6 0.201349 0.989984 0.051270
O O7 0.250000 0.750000 0.000000
O O8 0.211673 0.043169 0.951442
O O9 0.226879 0.937959 0.669649
O O10 0.804750 0.221222 0.644637
O O11 0.000000 0.974198 0.750000
#
# Coordination Sequence:
#
# PCOD9308139 Si02
#       5
#     8   8   8   8   8
#     4  12  28  47  77 114 151 204 249 319 379 457
#     4  12  27  47  76 107 148 197 255 313 384 456
#     4  12  27  46  75 108 156 192 258 308 386 452
#     4  12  26  47  76 108 154 197 255 309 382 452
#     4  12  27  49  77 111 151 201 256 316 384 454
#
# _framework density 24.211842999999998
#
# number of rings (size 3 to 8) (size 9 to 14) (size 15 to 20)
#    0.000    0.000    2.000    7.200   11.200    0.000 
#    0.000    0.000    0.000    0.000    0.000    0.000 
#    0.000    0.000    0.000    0.000    0.000    0.000 
#
# Total GULP energy -112139.731143 kJ/mol
# GULP energy per Si atom -5606.986557 kJ/mol
# Density = 2.415674 g / cm^3
# Si number density = 24.211843 Si / 1000 Ang^3
#
#
#
# Elastic Constant Matrix: (Units=GPa)
#
#
# Indices 1 2 3 4 5 6 
#
# 1 83.4542 7.8459 55.9643 0.0000 -1.2468 0.0000
# 2 7.8459 80.9677 21.0606 0.0000 0.6390 0.0000
# 3 55.9643 21.0606 130.8192 0.0002 6.7116 0.0000
# 4 0.0000 0.0000 0.0002 46.9492 0.0000 -0.4521
# 5 -1.2468 0.6390 6.7116 0.0000 37.9793 0.0000
# 6 0.0000 0.0000 0.0000 -0.4521 0.0000 43.2814
#
#
#
# Elastic Compliance Matrix: (Units=1/GPa)
#
#
# Indices 1 2 3 4 5 6 
#
# 1 0.016937 0.000265 -0.007383 0.000000 0.001856 0.000000
# 2 0.000265 0.012895 -0.002198 0.000000 0.000180 0.000000
# 3 -0.007383 -0.002198 0.011269 0.000000 -0.002197 0.000000
# 4 0.000000 0.000000 0.000000 0.021302 0.000000 0.000222
# 5 0.001856 0.000180 -0.002197 0.000000 0.026776 0.000000
# 6 0.000000 0.000000 0.000000 0.000222 0.000000 0.023107
#
#
# Mechanical properties :
#
#
# Convention : Reuss Voigt Hill
#
# Bulk Modulus (GPa) = 44.50954 51.66475 48.08715
# Shear Modulus (GPa) = 36.12456 39.66667 37.89562
#
# Velocity S-wave (km/s) = 3.86686 4.05200 3.96051
# Velocity P-wave (km/s) = 6.19355 6.57850 6.38892
#
# Compressibility (1/GPa) = 0.02246709
#
# Stress axis : x y z
#
# Youngs Moduli (GPa) = 59.04314 77.54705 88.73594
#
# Poissons Ratio (x) = -0.02052 0.65517
# Poissons Ratio (y) = -0.01563 0.19509
# Poissons Ratio (z) = 0.43594 0.17049
#
# Static dielectric constant tensor:
#      x y z
#    x 1.921660 0.000000 0.020580 
#    y 0.000000 1.948560 0.000000 
#    z 0.020580 0.000000 1.897530 
# 
# From -- ./inp_files/247215.got.cif
#   From: 2010.05.17/outbox.cif.g08.bks.cpg/sg15_124_cif.got.tgz:247215.got - 2010.06.03 18:47:42.
