data_PCOD9308809
_publ_section_title
;
Structure prediction by ZEFSAII (Michael W. Deem and Ramdas Pophale) SiO2 
 PCOD9308809
Probable space group: C 2/C
;
_chemical_formula_sum "Si O2"
_cell_formula_units_Z 28
_cell_length_a 9.000000
_cell_length_b 15.000000
_cell_length_c 21.000000
_cell_angle_alpha 90.000000
_cell_angle_beta 90.000000
_cell_angle_gamma 90.000000
_cell_volume 2835.000000
_symmetry_space_group_name_H-M "C 2/C"
_symmetry_group_IT_number 15
_symmetry_cell_setting 'monoclinic'
loop_
_space_group_symop_operation_xyz
x,y,z
-x,y,1/2-z
-x,-y,-z
x,-y,1/2+z
1/2+x,1/2+y,z
1/2-x,1/2+y,1/2-z
1/2-x,1/2-y,-z
1/2+x,1/2-y,1/2+z
loop_
_atom_site_type_symbol
_atom_site_label
_atom_site_fract_x
_atom_site_fract_y
_atom_site_fract_z
Si Si1 0.734431 0.788368 0.138133
Si Si2 0.179769 0.867359 0.739020
Si Si3 0.001792 0.895546 0.176268
Si Si4 0.752088 0.993410 0.873629
Si Si5 0.909800 0.659642 0.055003
Si Si6 0.177776 0.716194 0.139014
Si Si7 0.072031 0.333905 0.417749
O O1 0.728573 0.715790 0.194326
O O2 0.813230 0.746501 0.075118
O O3 0.565032 0.810590 0.126882
O O4 0.835253 0.871614 0.156920
O O5 0.249798 0.948560 0.697163
O O6 0.249241 0.845696 0.807466
O O7 0.000000 0.872701 0.750000
O O8 0.096727 0.803274 0.169986
O O9 0.000000 0.923306 0.250000
O O10 0.081276 0.965680 0.129268
O O11 0.702561 0.919940 0.925520
O O12 0.647040 0.076320 0.890955
O O13 0.048726 0.662471 0.103521
O O14 0.991428 0.657314 0.986686
O O15 0.302160 0.757104 0.090918
#
# Coordination Sequence:
#
# PCOD9308809 Si02
#       7
#     8   8   8   8   8   8   8
#     4  10  21  36  66  90 112 160 198 251 292 345
#     4  11  20  40  60  90 123 146 198 251 306 349
#     4  10  19  38  58  86 123 152 189 242 304 357
#     4  10  24  38  59  84 125 160 186 247 306 349
#     4  10  22  41  61  86 122 158 201 243 292 355
#     4  10  21  37  66  89 112 158 201 249 295 350
#     4  11  21  42  61  89 117 158 206 242 288 356
#
# _framework density 9.8765429999999999
#
# number of rings (size 3 to 8) (size 9 to 14) (size 15 to 20)
#    0.000    1.714    2.857    1.714    0.000    0.000 
#    7.714    0.714    0.000    0.000    0.000    0.000 
#    0.000    0.000    0.000    0.000    0.000    0.000 
#
# Total GULP energy -156063.917518 kJ/mol
# GULP energy per Si atom -5573.711340 kJ/mol
# Density = 0.985406 g / cm^3
# Si number density = 9.876543 Si / 1000 Ang^3
#
#
#
# Elastic Constant Matrix: (Units=GPa)
#
#
# Indices 1 2 3 4 5 6 
#
# 1 82.0433 2.1015 7.3873 0.0000 -17.9389 0.0000
# 2 2.1015 38.1918 16.3313 0.0000 -5.0190 0.0000
# 3 7.3873 16.3313 72.0017 0.0000 -28.8548 0.0000
# 4 0.0000 0.0000 0.0000 16.3770 0.0000 -14.4682
# 5 -17.9389 -5.0190 -28.8548 0.0000 41.4637 0.0000
# 6 0.0000 0.0000 0.0000 -14.4682 0.0000 32.9351
#
#
#
# Elastic Compliance Matrix: (Units=1/GPa)
#
#
# Indices 1 2 3 4 5 6 
#
# 1 0.013561 -0.000469 0.001447 0.000000 0.006817 0.000000
# 2 -0.000469 0.029078 -0.007236 0.000000 -0.001719 0.000000
# 3 0.001447 -0.007236 0.021191 0.000000 0.014497 0.000000
# 4 0.000000 0.000000 0.000000 0.099788 0.000000 0.043836
# 5 0.006817 -0.001719 0.014497 0.000000 0.036948 0.000000
# 6 0.000000 0.000000 0.000000 0.043836 0.000000 0.049620
#
#
# Mechanical properties :
#
#
# Convention : Reuss Voigt Hill
#
# Bulk Modulus (GPa) = 19.48792 27.09744 23.29268
# Shear Modulus (GPa) = 17.86950 29.24962 23.55956
#
# Velocity S-wave (km/s) = 3.01099 3.85224 3.45730
# Velocity P-wave (km/s) = 4.68778 5.79087 5.26828
#
# Compressibility (1/GPa) = 0.05131383
#
# Stress axis : x y z
#
# Youngs Moduli (GPa) = 73.74084 34.39052 47.18951
#
# Poissons Ratio (x) = 0.01613 -0.06829
# Poissons Ratio (y) = 0.03459 0.34147
# Poissons Ratio (z) = -0.10671 0.24885
#
# Static dielectric constant tensor:
#      x y z
#    x 1.679530 0.000000 0.020450 
#    y 0.000000 1.740950 0.000000 
#    z 0.020450 0.000000 1.696300 
# 
# From -- ./inp_files/231553.got.cif
#   From: 2010.05.17/outbox.ucp.g08.bks.cvg/sg15_116_cif.got.tgz:231553.got - 2010.06.11 12:40:34.
