data_PCOD9308236
_publ_section_title
;
Structure prediction by ZEFSAII (Michael W. Deem and Ramdas Pophale) SiO2 
 PCOD9308236
Probable space group: C 2/C
;
_chemical_formula_sum "Si O2"
_cell_formula_units_Z 32
_cell_length_a 17.305489
_cell_length_b 4.745673
_cell_length_c 16.248243
_cell_angle_alpha 90.000000
_cell_angle_beta 103.000856
_cell_angle_gamma 90.000000
_cell_volume 1300.201090
_symmetry_space_group_name_H-M "C 2/C"
_symmetry_group_IT_number 15
_symmetry_cell_setting 'monoclinic'
loop_
_space_group_symop_operation_xyz
x,y,z
-x,y,1/2-z
-x,-y,-z
x,-y,1/2+z
1/2+x,1/2+y,z
1/2-x,1/2+y,1/2-z
1/2-x,1/2-y,-z
1/2+x,1/2-y,1/2+z
loop_
_atom_site_type_symbol
_atom_site_label
_atom_site_fract_x
_atom_site_fract_y
_atom_site_fract_z
Si Si1 0.696933 0.994614 0.952414
Si Si2 0.297683 0.803683 0.232998
Si Si3 0.968693 0.298812 0.327060
Si Si4 0.528137 0.703491 0.932548
O O1 0.691202 0.056212 0.853557
O O2 0.609364 0.880995 0.957414
O O3 0.750000 0.250000 0.000000
O O4 0.750000 0.750000 0.000000
O O5 0.237886 0.543540 0.216547
O O6 0.379984 0.695627 0.290506
O O7 0.000000 0.431450 0.250000
O O8 0.968054 0.547030 0.394021
O O9 0.026282 0.036843 0.361348
O O10 0.500000 0.500000 0.000000
#
# Coordination Sequence:
#
# PCOD9308236 Si02
#       4
#     8   8   8   8
#     4  12  28  49  77 111 162 206 258 329 407 477
#     4  12  28  48  76 112 152 207 262 322 399 475
#     4  12  26  50  78 107 155 204 269 327 390 474
#     4  12  28  48  79 114 153 209 266 329 400 475
#
# _framework density 24.61158
#
# number of rings (size 3 to 8) (size 9 to 14) (size 15 to 20)
#    0.000    0.000    2.500    6.000   14.000    0.000 
#    0.000    0.000    0.000    0.000    0.000    0.000 
#    0.000    0.000    0.000    0.000    0.000    0.000 
#
# Total GULP energy -89407.282698 kJ/mol
# GULP energy per Si atom -5587.955169 kJ/mol
# Density = 2.455556 g / cm^3
# Si number density = 24.611580 Si / 1000 Ang^3
#
#
#
# Elastic Constant Matrix: (Units=GPa)
#
#
# Indices 1 2 3 4 5 6 
#
# 1 138.8128 49.2292 56.2967 0.0000 9.7790 0.0000
# 2 49.2292 184.9863 43.5086 0.0000 3.1107 0.0000
# 3 56.2967 43.5086 94.0613 0.0000 -0.3152 0.0000
# 4 0.0000 0.0000 0.0000 47.5384 0.0000 5.7910
# 5 9.7790 3.1107 -0.3152 0.0000 34.8356 0.0000
# 6 0.0000 0.0000 0.0000 5.7910 0.0000 53.6877
#
#
#
# Elastic Compliance Matrix: (Units=1/GPa)
#
#
# Indices 1 2 3 4 5 6 
#
# 1 0.010075 -0.001363 -0.005409 0.000000 -0.002755 0.000000
# 2 -0.001363 0.006261 -0.002081 0.000000 -0.000195 0.000000
# 3 -0.005409 -0.002081 0.014838 0.000000 0.001838 0.000000
# 4 0.000000 0.000000 0.000000 0.021316 0.000000 -0.002299
# 5 -0.002755 -0.000195 0.001838 0.000000 0.029514 0.000000
# 6 0.000000 0.000000 0.000000 -0.002299 0.000000 0.018874
#
#
# Mechanical properties :
#
#
# Convention : Reuss Voigt Hill
#
# Bulk Modulus (GPa) = 74.24978 79.54774 76.89876
# Shear Modulus (GPa) = 40.62647 45.13407 42.88027
#
# Velocity S-wave (km/s) = 4.06730 4.28700 4.17859
# Velocity P-wave (km/s) = 7.23127 7.54294 7.38875
#
# Compressibility (1/GPa) = 0.01346805
#
# Stress axis : x y z
#
# Youngs Moduli (GPa) = 99.25607 159.71271 67.39680
#
# Poissons Ratio (x) = 0.21764 0.36454
# Poissons Ratio (y) = 0.13525 0.14027
# Poissons Ratio (z) = 0.53686 0.33240
#
# Static dielectric constant tensor:
#      x y z
#    x 1.762940 0.000000 -0.037600 
#    y 0.000000 1.878120 0.000000 
#    z -0.037600 0.000000 2.113350 
# 
# From -- ./inp_files/201851.got.cif
#   From: 2010.05.17/outbox.cif.g08.bks.cpg/sg15_101_cif.got.tgz:201851.got - 2010.06.03 18:47:42.
