data_PCOD9308312
_publ_section_title
;
Structure prediction by ZEFSAII (Michael W. Deem and Ramdas Pophale) SiO2 
 PCOD9308312
Probable space group: C 2/C
;
_chemical_formula_sum "Si O2"
_cell_formula_units_Z 36
_cell_length_a 6.665085
_cell_length_b 21.516073
_cell_length_c 11.059787
_cell_angle_alpha 90.000000
_cell_angle_beta 96.015480
_cell_angle_gamma 90.000000
_cell_volume 1577.311482
_symmetry_space_group_name_H-M "C 2/C"
_symmetry_group_IT_number 15
_symmetry_cell_setting 'monoclinic'
loop_
_space_group_symop_operation_xyz
x,y,z
-x,y,1/2-z
-x,-y,-z
x,-y,1/2+z
1/2+x,1/2+y,z
1/2-x,1/2+y,1/2-z
1/2-x,1/2-y,-z
1/2+x,1/2-y,1/2+z
loop_
_atom_site_type_symbol
_atom_site_label
_atom_site_fract_x
_atom_site_fract_y
_atom_site_fract_z
Si Si1 0.000000 0.227457 0.250000
Si Si2 0.618107 0.985043 0.632778
Si Si3 0.758989 0.860293 0.556263
Si Si4 0.643066 0.196324 0.567234
Si Si5 0.064766 0.911997 0.385221
O O1 0.906223 0.183923 0.141421
O O2 0.843020 0.275324 0.298202
O O3 0.500000 0.003650 0.750000
O O4 0.659124 0.911525 0.637348
O O5 0.500000 0.000000 0.500000
O O6 0.830373 0.021597 0.631661
O O7 0.586460 0.818394 0.484104
O O8 0.881256 0.901086 0.465156
O O9 0.750000 0.250000 0.500000
O O10 0.757992 0.132304 0.557723
O O11 0.000000 0.888984 0.250000
#
# Coordination Sequence:
#
# PCOD9308312 Si02
#       5
#     4   8   8   8   8
#     4  12  28  44  78 108 152 194 254 310 380 456
#     4  12  28  50  80 112 156 201 261 323 389 458
#     4  12  28  50  76 113 152 201 257 315 388 459
#     4  12  27  48  73 109 153 198 252 312 378 461
#     4  12  27  49  79 109 153 205 253 317 390 459
#
# _framework density 22.823647000000001
#
# number of rings (size 3 to 8) (size 9 to 14) (size 15 to 20)
#    0.000    0.000    4.444    4.000   12.444    0.000 
#    0.000    0.000    0.000    0.000    0.000    0.000 
#    0.000    0.000    0.000    0.000    0.000    0.000 
#
# Total GULP energy -100617.827494 kJ/mol
# GULP energy per Si atom -5589.879305 kJ/mol
# Density = 2.277170 g / cm^3
# Si number density = 22.823647 Si / 1000 Ang^3
#
#
#
# Elastic Constant Matrix: (Units=GPa)
#
#
# Indices 1 2 3 4 5 6 
#
# 1 103.8468 30.1766 56.2408 0.0000 -6.8854 0.0000
# 2 30.1766 112.8806 15.6757 0.0000 -3.7624 0.0000
# 3 56.2408 15.6757 95.2793 0.0000 -17.2894 0.0000
# 4 0.0000 0.0000 0.0000 30.4798 0.0000 -7.9672
# 5 -6.8854 -3.7624 -17.2894 0.0000 48.0366 0.0000
# 6 0.0000 0.0000 0.0000 -7.9672 0.0000 31.9072
#
#
#
# Elastic Compliance Matrix: (Units=1/GPa)
#
#
# Indices 1 2 3 4 5 6 
#
# 1 0.015058 -0.002866 -0.008630 0.000000 -0.001172 0.000000
# 2 -0.002866 0.009613 0.000184 0.000000 0.000408 0.000000
# 3 -0.008630 0.000184 0.016409 0.000000 0.004683 0.000000
# 4 0.000000 0.000000 0.000000 0.035100 0.000000 0.008764
# 5 -0.001172 0.000408 0.004683 0.000000 0.022367 0.000000
# 6 0.000000 0.000000 0.000000 0.008764 0.000000 0.033529
#
#
# Mechanical properties :
#
#
# Convention : Reuss Voigt Hill
#
# Bulk Modulus (GPa) = 54.17905 57.35476 55.76691
# Shear Modulus (GPa) = 31.08451 36.07896 33.58173
#
# Velocity S-wave (km/s) = 3.69446 3.98020 3.83999
# Velocity P-wave (km/s) = 6.47984 6.80491 6.64436
#
# Compressibility (1/GPa) = 0.01845732
#
# Stress axis : x y z
#
# Youngs Moduli (GPa) = 66.40833 104.02398 60.94285
#
# Poissons Ratio (x) = 0.29816 0.52592
# Poissons Ratio (y) = 0.19034 -0.01124
# Poissons Ratio (z) = 0.57308 -0.01918
#
# Static dielectric constant tensor:
#      x y z
#    x 1.685770 0.000000 0.236010 
#    y 0.000000 1.822220 0.000000 
#    z 0.236010 0.000000 1.567860 
# 
# From -- ./inp_files/72428.got.cif
#   From: 2010.05.17/outbox.cif.g08.bks.cpg/sg15_37_cif.got.tgz:72428.got - 2010.06.03 18:47:42.
