data_PCOD9308275
_publ_section_title
;
Structure prediction by ZEFSAII (Michael W. Deem and Ramdas Pophale) SiO2 
 PCOD9308275
Probable space group: C 2/C
;
_chemical_formula_sum "Si O2"
_cell_formula_units_Z 36
_cell_length_a 22.842034
_cell_length_b 10.125077
_cell_length_c 9.603539
_cell_angle_alpha 90.000000
_cell_angle_beta 139.973561
_cell_angle_gamma 90.000000
_cell_volume 1428.468375
_symmetry_space_group_name_H-M "C 2/C"
_symmetry_group_IT_number 15
_symmetry_cell_setting 'monoclinic'
loop_
_space_group_symop_operation_xyz
x,y,z
-x,y,1/2-z
-x,-y,-z
x,-y,1/2+z
1/2+x,1/2+y,z
1/2-x,1/2+y,1/2-z
1/2-x,1/2-y,-z
1/2+x,1/2-y,1/2+z
loop_
_atom_site_type_symbol
_atom_site_label
_atom_site_fract_x
_atom_site_fract_y
_atom_site_fract_z
Si Si1 0.816226 0.958356 0.027688
Si Si2 0.055086 0.783003 0.078170
Si Si3 0.138851 0.589173 0.020401
Si Si4 0.500000 0.523534 0.250000
Si Si5 0.250000 0.750000 0.000000
Si Si6 0.000000 0.641832 0.250000
O O1 0.848629 0.850326 0.200364
O O2 0.903366 0.954199 0.084383
O O3 0.729610 0.924590 0.777356
O O4 0.795455 0.103169 0.049382
O O5 0.071502 0.666335 0.000124
O O6 0.001744 0.728442 0.113898
O O7 0.003042 0.892532 0.896190
O O8 0.167976 0.674262 0.940564
O O9 0.089956 0.449962 0.902013
#
# Coordination Sequence:
#
# PCOD9308275 Si02
#       6
#     8   8   8   4   4   4
#     4  12  28  49  83 118 165 219 276 346 424 503
#     4  12  27  52  82 119 165 217 286 343 424 505
#     4  12  28  52  80 121 167 222 276 349 418 508
#     4  12  26  52  76 120 158 212 272 348 416 490
#     4  12  28  46  82 116 166 210 282 334 430 484
#     4  12  30  54  86 126 170 224 282 352 434 500
#
# _framework density 25.201817999999999
#
# number of rings (size 3 to 8) (size 9 to 14) (size 15 to 20)
#    0.000    0.000    2.222    6.000    6.222    0.000 
#    0.000    0.000    0.000    0.000    0.000    0.000 
#    0.000    0.000    0.000    0.000    0.000    0.000 
#
# Total GULP energy -100361.701079 kJ/mol
# GULP energy per Si atom -5575.650060 kJ/mol
# Density = 2.514446 g / cm^3
# Si number density = 25.201818 Si / 1000 Ang^3
#
#
#
# Elastic Constant Matrix: (Units=GPa)
#
#
# Indices 1 2 3 4 5 6 
#
# 1 156.0279 34.5878 13.2606 0.0000 -29.1954 0.0000
# 2 34.5878 99.1226 23.1746 0.0000 -21.9983 0.0000
# 3 13.2606 23.1746 116.6275 0.0000 10.1031 0.0000
# 4 0.0000 0.0000 0.0000 48.4835 0.0000 4.8572
# 5 -29.1954 -21.9983 10.1031 0.0000 33.9214 0.0000
# 6 0.0000 0.0000 0.0000 4.8572 0.0000 61.1687
#
#
#
# Elastic Compliance Matrix: (Units=1/GPa)
#
#
# Indices 1 2 3 4 5 6 
#
# 1 0.007976 -0.001025 -0.001273 0.000000 0.006579 0.000000
# 2 -0.001025 0.013106 -0.003231 0.000000 0.008579 0.000000
# 3 -0.001273 -0.003231 0.009893 0.000000 -0.006137 0.000000
# 4 0.000000 0.000000 0.000000 0.020791 0.000000 -0.001651
# 5 0.006579 0.008579 -0.006137 0.000000 0.042533 0.000000
# 6 0.000000 0.000000 0.000000 -0.001651 0.000000 0.016479
#
#
# Mechanical properties :
#
#
# Convention : Reuss Voigt Hill
#
# Bulk Modulus (GPa) = 50.21187 57.09156 53.65172
# Shear Modulus (GPa) = 38.91841 48.76505 43.84173
#
# Velocity S-wave (km/s) = 3.93398 4.40361 4.17541
# Velocity P-wave (km/s) = 6.37198 6.96841 6.67686
#
# Compressibility (1/GPa) = 0.01991561
#
# Stress axis : x y z
#
# Youngs Moduli (GPa) = 125.38303 76.30365 101.08513
#
# Poissons Ratio (x) = 0.07824 0.12868
# Poissons Ratio (y) = 0.12857 0.32658
# Poissons Ratio (z) = 0.15961 0.24652
#
# Static dielectric constant tensor:
#      x y z
#    x 1.931280 0.000000 0.006980 
#    y 0.000000 2.013040 0.000000 
#    z 0.006980 0.000000 2.009540 
# 
# From -- ./inp_files/60770.got.cif
#   From: 2010.05.17/outbox.cif.g08.bks.cpg/sg15_31_cif.got.tgz:60770.got - 2010.06.03 18:47:42.
