data_PCOD9308678
_publ_section_title
;
Structure prediction by ZEFSAII (Michael W. Deem and Ramdas Pophale) SiO2 
 PCOD9308678
Probable space group: C 2/C
;
_chemical_formula_sum "Si O2"
_cell_formula_units_Z 32
_cell_length_a 18.000000
_cell_length_b 9.000000
_cell_length_c 30.000000
_cell_angle_alpha 90.000000
_cell_angle_beta 140.000000
_cell_angle_gamma 90.000000
_cell_volume 3123.947783
_symmetry_space_group_name_H-M "C 2/C"
_symmetry_group_IT_number 15
_symmetry_cell_setting 'monoclinic'
loop_
_space_group_symop_operation_xyz
x,y,z
-x,y,1/2-z
-x,-y,-z
x,-y,1/2+z
1/2+x,1/2+y,z
1/2-x,1/2+y,1/2-z
1/2-x,1/2-y,-z
1/2+x,1/2-y,1/2+z
loop_
_atom_site_type_symbol
_atom_site_label
_atom_site_fract_x
_atom_site_fract_y
_atom_site_fract_z
Si Si1 0.331041 0.435832 0.656952
Si Si2 0.960458 0.074206 0.601093
Si Si3 0.037334 0.672607 0.455293
Si Si4 0.195982 0.777900 0.398468
Si Si5 0.257049 0.539401 0.946219
Si Si6 0.396111 0.213892 0.476895
Si Si7 0.439466 0.340555 0.792413
Si Si8 0.968115 0.615828 0.604088
O O1 0.331352 0.614949 0.655571
O O2 0.213887 0.394052 0.577959
O O3 0.341221 0.370034 0.710979
O O4 0.439784 0.370817 0.679262
O O5 0.013237 0.176034 0.587538
O O6 0.902774 0.179226 0.611837
O O7 0.848385 0.999999 0.526931
O O8 0.049818 0.964162 0.664516
O O9 0.176381 0.685874 0.522907
O O10 0.008564 0.543778 0.407088
O O11 0.985240 0.664236 0.480472
O O12 0.201914 0.602488 0.396740
O O13 0.331841 0.628981 0.944723
O O14 0.152571 0.618161 0.924192
O O15 0.452365 0.209209 0.551479
O O16 0.442549 0.185476 0.819902
#
# Coordination Sequence:
#
# PCOD9308678 Si02
#       8
#     8   8   8   8   8   8   8   8
#     4  10  21  38  59  86 118 152 198 251 303 353
#     4  10  18  36  57  85 115 153 199 247 295 359
#     4  11  22  35  58  89 124 151 195 252 302 354
#     4  10  19  35  59  85 116 154 194 247 301 355
#     4  11  19  34  60  87 115 150 200 250 290 350
#     4  12  23  35  57  93 125 150 195 261 301 344
#     4  10  21  37  62  83 113 161 202 242 300 362
#     4  12  19  37  60  90 114 158 201 242 297 357
#
# _framework density 10.243449
#
# number of rings (size 3 to 8) (size 9 to 14) (size 15 to 20)
#    0.000    1.250    6.250    2.250    0.000    2.000 
#    0.000    2.500    2.750    0.000    0.000    0.000 
#    0.000    0.000    0.000    0.000    0.000    0.000 
#
# Total GULP energy -178209.520851 kJ/mol
# GULP energy per Si atom -5569.047527 kJ/mol
# Density = 1.022013 g / cm^3
# Si number density = 10.243449 Si / 1000 Ang^3
#
#
#
# Elastic Constant Matrix: (Units=GPa)
#
#
# Indices 1 2 3 4 5 6 
#
# 1 45.1599 28.4502 7.8324 0.0000 -16.8515 0.0000
# 2 28.4502 52.6371 3.0769 0.0000 -21.3340 0.0000
# 3 7.8324 3.0769 31.9608 0.0000 -30.9051 0.0000
# 4 0.0000 0.0000 0.0000 15.5783 0.0000 -15.0114
# 5 -16.8515 -21.3340 -30.9051 0.0000 18.4072 0.0000
# 6 0.0000 0.0000 0.0000 -15.0114 0.0000 11.4046
#
#
#
# Elastic Compliance Matrix: (Units=1/GPa)
#
#
# Indices 1 2 3 4 5 6 
#
# 1 0.034970 -0.018206 -0.005993 0.000000 0.000852 0.000000
# 2 -0.018206 0.021717 -0.016989 0.000000 -0.020021 0.000000
# 3 -0.005993 -0.016989 -0.016114 0.000000 -0.052232 0.000000
# 4 0.000000 0.000000 0.000000 -0.239200 0.000000 -0.314849
# 5 0.000852 -0.020021 -0.052232 0.000000 -0.055794 0.000000
# 6 0.000000 0.000000 0.000000 -0.314849 0.000000 -0.326739
#
#
# Mechanical properties :
#
#
# Convention : Reuss Voigt Hill
#
# Bulk Modulus (GPa) = -23.92225 23.16408 -0.37908
# Shear Modulus (GPa) = -9.75192 15.10457 2.67632
#
# Velocity S-wave (km/s) = -2.18413 2.71823 1.14420
# Velocity P-wave (km/s) = 4.25003 4.60251 1.24906
#
# Compressibility (1/GPa) = -0.04180209
#
# Stress axis : x y z
#
# Youngs Moduli (GPa) = 28.59570 46.04764 -62.05640
#
# Poissons Ratio (x) = 0.83832 -0.37191
# Poissons Ratio (y) = 0.52060 -1.05426
# Poissons Ratio (z) = 0.17138 0.78229
#
# Static dielectric constant tensor:
#      x y z
#    x 1.713390 0.000000 -0.012240 
#    y 0.000000 2.129780 0.000000 
#    z -0.012240 0.000000 1.693900 
# 
# From -- ./inp_files/315747.got.cif
#   From: 2010.05.17/outbox.ucp.g08.bks.cvg/sg15_158_cif.got.tgz:315747.got - 2010.06.11 12:40:34.
