data_PCOD9308805
_publ_section_title
;
Structure prediction by ZEFSAII (Michael W. Deem and Ramdas Pophale) SiO2 
 PCOD9308805
Probable space group: C 2/C
;
_chemical_formula_sum "Si O2"
_cell_formula_units_Z 26
_cell_length_a 12.000000
_cell_length_b 9.000000
_cell_length_c 27.000000
_cell_angle_alpha 90.000000
_cell_angle_beta 120.000000
_cell_angle_gamma 90.000000
_cell_volume 2525.330077
_symmetry_space_group_name_H-M "C 2/C"
_symmetry_group_IT_number 15
_symmetry_cell_setting 'monoclinic'
loop_
_space_group_symop_operation_xyz
x,y,z
-x,y,1/2-z
-x,-y,-z
x,-y,1/2+z
1/2+x,1/2+y,z
1/2-x,1/2+y,1/2-z
1/2-x,1/2-y,-z
1/2+x,1/2-y,1/2+z
loop_
_atom_site_type_symbol
_atom_site_label
_atom_site_fract_x
_atom_site_fract_y
_atom_site_fract_z
Si Si1 0.398005 0.432500 0.018943
Si Si2 0.111500 0.741366 0.314473
Si Si3 0.201067 0.558994 0.779586
Si Si4 0.500000 0.677782 0.250000
Si Si5 0.977321 0.064684 0.354533
Si Si6 0.903007 0.628092 0.075799
Si Si7 0.627970 0.898113 0.150796
O O1 0.429436 0.514102 0.079248
O O2 0.421303 0.258085 0.038541
O O3 0.500000 0.500000 0.000000
O O4 0.245621 0.435923 0.966454
O O5 0.150533 0.580753 0.299850
O O6 0.085915 0.704123 0.366760
O O7 0.232604 0.855718 0.341386
O O8 0.000000 0.788190 0.250000
O O9 0.124765 0.710837 0.775608
O O10 0.354142 0.547937 0.823951
O O11 0.165484 0.538228 0.713672
O O12 0.514853 0.586453 0.304670
O O13 0.933985 0.233612 0.357669
O O14 0.019928 0.505896 0.102018
#
# Coordination Sequence:
#
# PCOD9308805 Si02
#       7
#     8   8   8   4   8   8   8
#     4  11  26  49  73  97 140 196 240 282 346 421
#     4  11  20  39  71 103 139 183 229 288 356 423
#     4  10  19  37  64 100 147 179 213 285 361 414
#     4  10  20  40  64 100 140 180 224 294 364 402
#     4  10  23  39  68 105 135 178 240 285 346 419
#     4  11  25  48  72  98 140 192 232 289 354 409
#     4  10  22  40  70 107 141 181 233 289 355 417
#
# _framework density 10.295684
#
# number of rings (size 3 to 8) (size 9 to 14) (size 15 to 20)
#    0.000    1.538    2.308    2.769    2.154    3.077 
#    0.000   11.538    0.000    0.000    0.000    0.000 
#    0.000    0.000    0.000    0.000    0.000    0.000 
#
# Total GULP energy -145074.705154 kJ/mol
# GULP energy per Si atom -5579.796352 kJ/mol
# Density = 1.027225 g / cm^3
# Si number density = 10.295684 Si / 1000 Ang^3
#
#
#
# Elastic Constant Matrix: (Units=GPa)
#
#
# Indices 1 2 3 4 5 6 
#
# 1 112.0397 57.2180 59.1757 0.0000 10.7949 0.0000
# 2 57.2180 89.4066 52.0691 0.0000 2.6096 0.0000
# 3 59.1757 52.0691 164.2197 0.0000 24.8057 0.0000
# 4 0.0000 0.0000 0.0000 56.1900 0.0000 3.4713
# 5 10.7949 2.6096 24.8057 0.0000 46.5993 0.0000
# 6 0.0000 0.0000 0.0000 3.4713 0.0000 43.0675
#
#
#
# Elastic Compliance Matrix: (Units=1/GPa)
#
#
# Indices 1 2 3 4 5 6 
#
# 1 0.014301 -0.007657 -0.002490 0.000000 -0.001558 0.000000
# 2 -0.007657 0.017940 -0.003312 0.000000 0.002532 0.000000
# 3 -0.002490 -0.003312 0.008614 0.000000 -0.003823 0.000000
# 4 0.000000 0.000000 0.000000 0.017886 0.000000 -0.001442
# 5 -0.001558 0.002532 -0.003823 0.000000 0.023714 0.000000
# 6 0.000000 0.000000 0.000000 -0.001442 0.000000 0.023336
#
#
# Mechanical properties :
#
#
# Convention : Reuss Voigt Hill
#
# Bulk Modulus (GPa) = 71.74527 78.06574 74.90551
# Shear Modulus (GPa) = 36.40265 42.31823 39.36044
#
# Velocity S-wave (km/s) = 4.20915 4.53829 4.37682
# Velocity P-wave (km/s) = 7.65119 8.09046 7.87389
#
# Compressibility (1/GPa) = 0.01393820
#
# Stress axis : x y z
#
# Youngs Moduli (GPa) = 69.92539 55.74281 116.08707
#
# Poissons Ratio (x) = 0.42680 0.28908
# Poissons Ratio (y) = 0.53538 0.38443
# Poissons Ratio (z) = 0.17413 0.18459
#
# Static dielectric constant tensor:
#      x y z
#    x 1.835820 0.000000 -0.009440 
#    y 0.000000 1.765600 0.000000 
#    z -0.009440 0.000000 1.709180 
# 
# From -- ./inp_files/291682.got.cif
#   From: 2010.05.17/outbox.ucp.g08.bks.cvg/sg15_146_cif.got.tgz:291682.got - 2010.06.11 12:40:34.
