data_PCOD9308171
_publ_section_title
;
Structure prediction by ZEFSAII (Michael W. Deem and Ramdas Pophale) SiO2 
 PCOD9308171
Probable space group: C 2/C
;
_chemical_formula_sum "Si O2"
_cell_formula_units_Z 48
_cell_length_a 7.652778
_cell_length_b 24.828178
_cell_length_c 13.649269
_cell_angle_alpha 90.000000
_cell_angle_beta 137.608467
_cell_angle_gamma 90.000000
_cell_volume 1748.468291
_symmetry_space_group_name_H-M "C 2/C"
_symmetry_group_IT_number 15
_symmetry_cell_setting 'monoclinic'
loop_
_space_group_symop_operation_xyz
x,y,z
-x,y,1/2-z
-x,-y,-z
x,-y,1/2+z
1/2+x,1/2+y,z
1/2-x,1/2+y,1/2-z
1/2-x,1/2-y,-z
1/2+x,1/2-y,1/2+z
loop_
_atom_site_type_symbol
_atom_site_label
_atom_site_fract_x
_atom_site_fract_y
_atom_site_fract_z
Si Si1 0.514243 0.127274 0.458146
Si Si2 0.950144 0.792404 0.537808
Si Si3 0.267446 0.477143 0.721905
Si Si4 0.658463 0.087787 0.721049
Si Si5 0.101709 0.902829 0.547951
Si Si6 0.939737 0.260505 0.857192
O O1 0.340941 0.074534 0.380034
O O2 0.657551 0.122780 0.622075
O O3 0.663293 0.124758 0.414572
O O4 0.384872 0.185298 0.396829
O O5 0.750000 0.750000 0.500000
O O6 0.973903 0.856441 0.563890
O O7 0.858201 0.791170 0.385932
O O8 0.240447 0.769227 0.685552
O O9 0.500000 0.497727 0.750000
O O10 0.073409 0.526973 0.656518
O O11 0.336023 0.452240 0.856126
O O12 0.500000 0.107115 0.750000
O O13 0.935059 0.079288 0.885888
O O14 0.250000 0.250000 0.000000
#
# Coordination Sequence:
#
# PCOD9308171 Si02
#       6
#     8   8   8   8   8   8
#     4  12  26  48  79 109 157 204 263 325 401 472
#     4  12  29  48  77 116 162 208 264 332 392 472
#     4  12  26  48  79 112 154 203 262 326 401 472
#     4  12  28  48  76 115 154 202 261 328 398 483
#     4  12  26  48  77 110 158 205 261 325 398 471
#     4  12  27  49  80 113 160 211 268 320 399 473
#
# _framework density 27.452601000000001
#
# number of rings (size 3 to 8) (size 9 to 14) (size 15 to 20)
#    0.000    0.000    3.333    6.000    7.000    1.333 
#    0.000    0.000    0.000    0.000    0.000    0.000 
#    0.000    0.000    0.000    0.000    0.000    0.000 
#
# Total GULP energy -133958.370372 kJ/mol
# GULP energy per Si atom -5581.598765 kJ/mol
# Density = 2.739012 g / cm^3
# Si number density = 27.452601 Si / 1000 Ang^3
#
#
#
# Elastic Constant Matrix: (Units=GPa)
#
#
# Indices 1 2 3 4 5 6 
#
# 1 107.6892 24.2311 39.3882 0.0000 -19.4379 0.0000
# 2 24.2311 123.4720 44.2553 0.0000 -12.5751 0.0000
# 3 39.3882 44.2553 192.4983 0.0000 -45.5520 0.0000
# 4 0.0000 0.0000 0.0000 44.9826 0.0000 -18.2821
# 5 -19.4379 -12.5751 -45.5520 0.0000 53.4254 0.0000
# 6 0.0000 0.0000 0.0000 -18.2821 0.0000 42.2264
#
#
#
# Elastic Compliance Matrix: (Units=1/GPa)
#
#
# Indices 1 2 3 4 5 6 
#
# 1 0.010490 -0.001360 -0.001261 0.000000 0.002422 0.000000
# 2 -0.001360 0.009011 -0.001764 0.000000 0.000122 0.000000
# 3 -0.001261 -0.001764 0.007080 0.000000 0.005163 0.000000
# 4 0.000000 0.000000 0.000000 0.026978 0.000000 0.011680
# 5 0.002422 0.000122 0.005163 0.000000 0.024029 0.000000
# 6 0.000000 0.000000 0.000000 0.011680 0.000000 0.028739
#
#
# Mechanical properties :
#
#
# Convention : Reuss Voigt Hill
#
# Bulk Modulus (GPa) = 56.14703 71.04543 63.59623
# Shear Modulus (GPa) = 41.31045 49.17921 45.24483
#
# Velocity S-wave (km/s) = 3.88337 4.23711 4.06409
# Velocity P-wave (km/s) = 6.37214 7.06208 6.72596
#
# Compressibility (1/GPa) = 0.01781038
#
# Stress axis : x y z
#
# Youngs Moduli (GPa) = 95.32651 110.97854 141.23981
#
# Poissons Ratio (x) = 0.15095 0.17807
# Poissons Ratio (y) = 0.12966 0.24921
# Poissons Ratio (z) = 0.12018 0.19582
#
# Static dielectric constant tensor:
#      x y z
#    x 2.307870 0.000000 0.125230 
#    y 0.000000 2.006690 0.000000 
#    z 0.125230 0.000000 2.158940 
# 
# From -- ./inp_files/139029.got.cif
#   From: 2010.05.17/outbox.cif.g08.bks.cpg/sg15_70_cif.got.tgz:139029.got - 2010.06.03 18:47:42.
