data_PCOD9308937
_publ_section_title
;
Structure prediction by ZEFSAII (Michael W. Deem and Ramdas Pophale) SiO2 
 PCOD9308937
Probable space group: C 2/C
;
_chemical_formula_sum "Si O2"
_cell_formula_units_Z 26
_cell_length_a 15.000000
_cell_length_b 21.000000
_cell_length_c 27.000000
_cell_angle_alpha 90.000000
_cell_angle_beta 160.000000
_cell_angle_gamma 90.000000
_cell_volume 2908.881319
_symmetry_space_group_name_H-M "C 2/C"
_symmetry_group_IT_number 15
_symmetry_cell_setting 'monoclinic'
loop_
_space_group_symop_operation_xyz
x,y,z
-x,y,1/2-z
-x,-y,-z
x,-y,1/2+z
1/2+x,1/2+y,z
1/2-x,1/2+y,1/2-z
1/2-x,1/2-y,-z
1/2+x,1/2-y,1/2+z
loop_
_atom_site_type_symbol
_atom_site_label
_atom_site_fract_x
_atom_site_fract_y
_atom_site_fract_z
Si Si1 0.500000 0.191064 0.750000
Si Si2 0.391256 0.228776 0.397798
Si Si3 0.577243 0.353467 0.145007
Si Si4 0.196942 0.772619 0.305788
Si Si5 0.101365 0.446027 0.860726
Si Si6 0.846284 0.401342 0.091965
Si Si7 0.716739 0.645800 0.217459
O O1 0.377583 0.238350 0.725850
O O2 0.686763 0.140689 0.874865
O O3 0.513050 0.289831 0.432356
O O4 0.542210 0.210523 0.526786
O O5 0.347385 0.172245 0.336193
O O6 0.602698 0.325568 0.215410
O O7 0.871642 0.378398 0.283604
O O8 0.365456 0.407246 0.016550
O O9 0.255331 0.707171 0.305537
O O10 0.000000 0.764353 0.250000
O O11 0.139647 0.522295 0.891035
O O12 0.000000 0.439094 0.750000
O O13 0.876188 0.412390 0.776144
O O14 0.578855 0.378547 0.925707
#
# Coordination Sequence:
#
# PCOD9308937 Si02
#       7
#     4   8   8   8   8   8   8
#     4  10  20  36  60  92 118 154 196 248 312 354
#     4  10  21  36  61  89 122 153 200 254 302 355
#     4  10  24  39  59  92 123 156 203 253 307 358
#     4  11  21  38  63  87 123 160 200 254 305 364
#     4  12  24  39  62  88 126 166 197 244 308 371
#     4  11  23  39  60  92 126 154 202 252 301 365
#     4  11  23  37  62  93 123 160 205 249 305 359
#
# _framework density 8.9381439999999994
#
# number of rings (size 3 to 8) (size 9 to 14) (size 15 to 20)
#    0.000    1.231    2.308    4.154    4.308    5.538 
#    0.000    0.000    0.000   10.154    0.000    0.000 
#    0.000    0.000    0.000    0.000    0.000    0.000 
#
# Total GULP energy -144776.848194 kJ/mol
# GULP energy per Si atom -5568.340315 kJ/mol
# Density = 0.891780 g / cm^3
# Si number density = 8.938144 Si / 1000 Ang^3
#
#
#
# Elastic Constant Matrix: (Units=GPa)
#
#
# Indices 1 2 3 4 5 6 
#
# 1 86.8640 37.9832 30.2835 -0.0068 -15.1123 -0.0032
# 2 37.9832 106.5101 38.0731 -0.0086 -6.9920 -0.0023
# 3 30.2835 38.0731 108.1347 0.0228 -4.2067 0.0187
# 4 -0.0068 -0.0086 0.0228 38.3610 -0.0011 -0.2848
# 5 -15.1123 -6.9920 -4.2067 -0.0011 39.0076 -0.0013
# 6 -0.0032 -0.0023 0.0187 -0.2848 -0.0013 26.1009
#
#
#
# Elastic Compliance Matrix: (Units=1/GPa)
#
#
# Indices 1 2 3 4 5 6 
#
# 1 0.015054 -0.004133 -0.002574 0.000003 0.004814 0.000004
# 2 -0.004133 0.011966 -0.003047 0.000004 0.000215 0.000003
# 3 -0.002574 -0.003047 0.011028 -0.000008 -0.000354 -0.000009
# 4 0.000003 0.000004 -0.000008 0.026070 0.000002 0.000285
# 5 0.004814 0.000215 -0.000354 0.000002 0.027501 0.000002
# 6 0.000004 0.000003 -0.000009 0.000285 0.000002 0.038316
#
#
# Mechanical properties :
#
#
# Convention : Reuss Voigt Hill
#
# Bulk Modulus (GPa) = 53.93583 57.13205 55.53394
# Shear Modulus (GPa) = 32.12898 33.70515 32.91707
#
# Velocity S-wave (km/s) = 4.24405 4.34691 4.29579
# Velocity P-wave (km/s) = 7.36568 7.56460 7.46580
#
# Compressibility (1/GPa) = 0.01854055
#
# Stress axis : x y z
#
# Youngs Moduli (GPa) = 66.42727 83.57037 90.68100
#
# Poissons Ratio (x) = 0.34536 0.23338
# Poissons Ratio (y) = 0.27451 0.27634
# Poissons Ratio (z) = 0.17096 0.25467
#
# Static dielectric constant tensor:
#      x y z
#    x 1.652450 0.000000 0.027220 
#    y 0.000000 1.582560 -0.000010 
#    z 0.027220 -0.000010 1.700050 
# 
# From -- ./inp_files/296990.got.cif
#   From: 2010.05.17/outbox.ucp.g08.bks.cvg/sg15_149_cif.got.tgz:296990.got - 2010.06.11 12:40:34.
