data_PCOD9308083
_publ_section_title
;
Structure prediction by ZEFSAII (Michael W. Deem and Ramdas Pophale) SiO2 
 PCOD9308083
Probable space group: C 2/C
;
_chemical_formula_sum "Si O2"
_cell_formula_units_Z 60
_cell_length_a 8.748658
_cell_length_b 19.386925
_cell_length_c 20.983827
_cell_angle_alpha 90.000000
_cell_angle_beta 45.245782
_cell_angle_gamma 90.000000
_cell_volume 2527.406484
_symmetry_space_group_name_H-M "C 2/C"
_symmetry_group_IT_number 15
_symmetry_cell_setting 'monoclinic'
loop_
_space_group_symop_operation_xyz
x,y,z
-x,y,1/2-z
-x,-y,-z
x,-y,1/2+z
1/2+x,1/2+y,z
1/2-x,1/2+y,1/2-z
1/2-x,1/2-y,-z
1/2+x,1/2-y,1/2+z
loop_
_atom_site_type_symbol
_atom_site_label
_atom_site_fract_x
_atom_site_fract_y
_atom_site_fract_z
Si Si1 0.833115 0.526216 0.353219
Si Si2 0.039213 0.546303 0.050145
Si Si3 0.241970 0.659270 0.406632
Si Si4 0.229420 0.813975 0.388198
Si Si5 0.110919 0.166667 0.396211
Si Si6 0.000000 0.924366 0.250000
Si Si7 0.983492 0.068786 0.616943
Si Si8 0.100309 0.676756 0.876897
O O1 0.927872 0.506689 0.393787
O O2 0.782418 0.607752 0.361881
O O3 0.614370 0.485931 0.402989
O O4 0.000000 0.505709 0.250000
O O5 0.842753 0.598820 0.112728
O O6 0.268953 0.583086 0.972041
O O7 0.000000 0.500000 0.000000
O O8 0.239574 0.732599 0.372139
O O9 0.464648 0.646260 0.377998
O O10 0.064921 0.664923 0.515784
O O11 0.155568 0.862131 0.352284
O O12 0.454931 0.830492 0.356235
O O13 0.050196 0.827039 0.495982
O O14 0.184649 0.244662 0.359861
O O15 0.030694 0.961741 0.307966
O O16 0.206571 0.876176 0.178699
#
# Coordination Sequence:
#
# PCOD9308083 Si02
#       8
#     8   8   8   8   8   4   8   8
#     4  12  29  45  65  96 135 179 221 285 339 397
#     4  12  26  44  72  97 129 180 230 276 332 407
#     4   9  19  41  69 101 127 169 222 274 325 400
#     4   9  20  40  71  95 128 174 217 270 336 400
#     4   9  19  43  68  97 131 170 216 265 335 407
#     4  12  26  40  64 102 134 170 222 284 326 384
#     4  12  27  43  67  94 134 178 227 273 333 406
#     4   9  20  38  68  99 135 166 211 276 332 393
#
# _framework density 23.739749
#
# number of rings (size 3 to 8) (size 9 to 14) (size 15 to 20)
#    0.000    1.600    2.667    2.800    8.400    1.600 
#    0.000    0.000    0.000    0.000    0.000    0.000 
#    0.000    0.000    0.000    0.000    0.000    0.000 
#
# Total GULP energy -167934.188798 kJ/mol
# GULP energy per Si atom -5597.806293 kJ/mol
# Density = 2.368572 g / cm^3
# Si number density = 23.739749 Si / 1000 Ang^3
#
#
#
# Elastic Constant Matrix: (Units=GPa)
#
#
# Indices 1 2 3 4 5 6 
#
# 1 114.1755 41.6157 20.9058 -0.0006 31.1179 0.0006
# 2 41.6157 64.7167 -2.1684 -0.0003 7.6598 0.0002
# 3 20.9058 -2.1684 57.0613 -0.0007 13.4074 0.0006
# 4 -0.0006 -0.0003 -0.0007 16.0264 0.0006 -0.2997
# 5 31.1179 7.6598 13.4074 0.0006 37.1455 -0.0006
# 6 0.0006 0.0002 0.0006 -0.2997 -0.0006 42.3963
#
#
#
# Elastic Compliance Matrix: (Units=1/GPa)
#
#
# Indices 1 2 3 4 5 6 
#
# 1 0.015266 -0.008797 -0.003659 0.000001 -0.009654 0.000000
# 2 -0.008797 0.021025 0.003616 0.000000 0.001728 0.000000
# 3 -0.003659 0.003616 0.020168 0.000001 -0.004960 0.000000
# 4 0.000001 0.000000 0.000001 0.062405 -0.000002 0.000441
# 5 -0.009654 0.001728 -0.004960 -0.000002 0.036443 0.000001
# 6 0.000000 0.000000 0.000000 0.000441 0.000001 0.023590
#
#
# Mechanical properties :
#
#
# Convention : Reuss Voigt Hill
#
# Bulk Modulus (GPa) = 25.78669 39.62885 32.70777
# Shear Modulus (GPa) = 23.86595 30.82033 27.34314
#
# Velocity S-wave (km/s) = 3.17411 3.60704 3.39748
# Velocity P-wave (km/s) = 4.93144 5.83755 5.40352
#
# Compressibility (1/GPa) = 0.03877970
#
# Stress axis : x y z
#
# Youngs Moduli (GPa) = 65.50583 47.56218 49.58259
#
# Poissons Ratio (x) = 0.41838 0.18142
# Poissons Ratio (y) = 0.57623 -0.17928
# Poissons Ratio (z) = 0.23968 -0.17197
#
# Static dielectric constant tensor:
#      x y z
#    x 1.876260 0.000000 0.033950 
#    y 0.000000 1.909520 0.000000 
#    z 0.033950 0.000000 1.912840 
# 
# From -- ./inp_files/234064.got.cif
#   From: 2010.05.17/outbox.cif.g08.bks.cpg/sg15_118_cif.got.tgz:234064.got - 2010.06.03 18:47:42.
