data_PCOD9308822
_publ_section_title
;
Structure prediction by ZEFSAII (Michael W. Deem and Ramdas Pophale) SiO2 
 PCOD9308822
Probable space group: C 2/C
;
_chemical_formula_sum "Si O2"
_cell_formula_units_Z 24
_cell_length_a 9.000000
_cell_length_b 27.000000
_cell_length_c 12.000000
_cell_angle_alpha 90.000000
_cell_angle_beta 60.000000
_cell_angle_gamma 90.000000
_cell_volume 2525.330077
_symmetry_space_group_name_H-M "C 2/C"
_symmetry_group_IT_number 15
_symmetry_cell_setting 'monoclinic'
loop_
_space_group_symop_operation_xyz
x,y,z
-x,y,1/2-z
-x,-y,-z
x,-y,1/2+z
1/2+x,1/2+y,z
1/2-x,1/2+y,1/2-z
1/2-x,1/2-y,-z
1/2+x,1/2-y,1/2+z
loop_
_atom_site_type_symbol
_atom_site_label
_atom_site_fract_x
_atom_site_fract_y
_atom_site_fract_z
Si Si1 0.145290 0.430306 0.109839
Si Si2 0.000870 0.704514 0.073109
Si Si3 0.015664 0.114479 0.109026
Si Si4 0.495426 0.085053 0.070773
Si Si5 0.302230 0.284392 0.645051
Si Si6 0.756778 0.458578 0.859122
O O1 0.215352 0.482700 0.133981
O O2 0.000000 0.411164 0.250000
O O3 0.295151 0.391789 0.016437
O O4 0.048960 0.440074 0.029188
O O5 0.983546 0.644866 0.061291
O O6 0.153754 0.709341 0.107157
O O7 0.817505 0.721504 0.197785
O O8 0.072242 0.739271 0.944208
O O9 0.000000 0.114123 0.250000
O O10 0.913902 0.164697 0.111751
O O11 0.927219 0.063740 0.099484
O O12 0.676888 0.068772 0.053907
O O13 0.367709 0.063506 0.213693
#
# Coordination Sequence:
#
# PCOD9308822 Si02
#       6
#     8   8   8   8   8   8
#     4  12  26  39  62  97 132 167 210 271 316 367
#     4  10  19  38  67  90 126 160 213 256 314 378
#     4  12  23  43  65  94 130 169 214 258 317 386
#     4  11  20  41  69  91 127 175 212 254 321 380
#     4  10  20  37  64  97 118 167 208 259 311 381
#     4  11  21  41  70  89 123 175 225 249 307 390
#
# _framework density 9.5037079999999996
#
# number of rings (size 3 to 8) (size 9 to 14) (size 15 to 20)
#    0.000    1.000    6.667    2.000    0.000    1.333 
#    0.000    5.000    0.000    0.000    0.000    0.000 
#    0.000    0.000    0.000    0.000    0.000    0.000 
#
# Total GULP energy -133787.077698 kJ/mol
# GULP energy per Si atom -5574.461571 kJ/mol
# Density = 0.948208 g / cm^3
# Si number density = 9.503708 Si / 1000 Ang^3
#
#
#
# Elastic Constant Matrix: (Units=GPa)
#
#
# Indices 1 2 3 4 5 6 
#
# 1 60.5978 11.8840 46.8017 0.0000 -8.6292 0.0000
# 2 11.8840 109.1997 48.6001 0.0000 -14.5946 0.0000
# 3 46.8017 48.6001 132.3891 0.0000 -23.2384 0.0000
# 4 0.0000 0.0000 0.0000 31.7325 0.0000 -4.9904
# 5 -8.6292 -14.5946 -23.2384 0.0000 36.2139 0.0000
# 6 0.0000 0.0000 0.0000 -4.9904 0.0000 34.9679
#
#
#
# Elastic Compliance Matrix: (Units=1/GPa)
#
#
# Indices 1 2 3 4 5 6 
#
# 1 0.022869 0.001363 -0.008488 0.000000 0.000552 0.000000
# 2 0.001363 0.011166 -0.004208 0.000000 0.002125 0.000000
# 3 -0.008488 -0.004208 0.012899 0.000000 0.004559 0.000000
# 4 0.000000 0.000000 0.000000 0.032237 0.000000 0.004601
# 5 0.000552 0.002125 0.004559 0.000000 0.031527 0.000000
# 6 0.000000 0.000000 0.000000 0.004601 0.000000 0.029254
#
#
# Mechanical properties :
#
#
# Convention : Reuss Voigt Hill
#
# Bulk Modulus (GPa) = 41.20696 57.41758 49.31227
# Shear Modulus (GPa) = 29.28982 33.57624 31.43303
#
# Velocity S-wave (km/s) = 3.92977 4.20751 4.07101
# Velocity P-wave (km/s) = 6.50518 7.34015 6.93524
#
# Compressibility (1/GPa) = 0.02426774
#
# Stress axis : x y z
#
# Youngs Moduli (GPa) = 43.72699 89.55849 77.52513
#
# Poissons Ratio (x) = -0.12203 0.65803
# Poissons Ratio (y) = -0.05958 0.32621
# Poissons Ratio (z) = 0.37115 0.37684
#
# Static dielectric constant tensor:
#      x y z
#    x 1.736120 0.000000 -0.035980 
#    y 0.000000 1.646530 0.000000 
#    z -0.035980 0.000000 1.681960 
# 
# From -- ./inp_files/80514.got.cif
#   From: 2010.05.17/outbox.ucp.g08.bks.cvg/sg15_41_cif.got.tgz:80514.got - 2010.06.11 12:40:34.
