data_PCOD9308413
_publ_section_title
;
Structure prediction by ZEFSAII (Michael W. Deem and Ramdas Pophale) SiO2 
 PCOD9308413
Probable space group: C 2/C
;
_chemical_formula_sum "Si O2"
_cell_formula_units_Z 24
_cell_length_a 14.216496
_cell_length_b 5.202804
_cell_length_c 14.184308
_cell_angle_alpha 90.000000
_cell_angle_beta 72.753410
_cell_angle_gamma 90.000000
_cell_volume 1001.979075
_symmetry_space_group_name_H-M "C 2/C"
_symmetry_group_IT_number 15
_symmetry_cell_setting 'monoclinic'
loop_
_space_group_symop_operation_xyz
x,y,z
-x,y,1/2-z
-x,-y,-z
x,-y,1/2+z
1/2+x,1/2+y,z
1/2-x,1/2+y,1/2-z
1/2-x,1/2-y,-z
1/2+x,1/2-y,1/2+z
loop_
_atom_site_type_symbol
_atom_site_label
_atom_site_fract_x
_atom_site_fract_y
_atom_site_fract_z
Si Si1 0.801490 0.200799 0.885001
Si Si2 0.489348 0.484656 0.115599
Si Si3 0.865066 0.480154 0.205249
O O1 0.827998 0.463826 0.821826
O O2 0.727384 0.056048 0.836760
O O3 0.750000 0.250000 0.000000
O O4 0.902850 0.053721 0.873441
O O5 0.425557 0.233782 0.158981
O O6 0.434233 0.735760 0.169534
O O7 0.500000 0.500000 0.000000
#
# Coordination Sequence:
#
# PCOD9308413 Si02
#       3
#     8   8   8
#     4  12  29  53  86 121 167 215 277 343 402 492
#     4  12  28  55  83 116 166 217 270 341 416 479
#     4  12  29  54  79 122 163 217 275 333 418 482
#
# _framework density 23.952596
#
# number of rings (size 3 to 8) (size 9 to 14) (size 15 to 20)
#    0.000    0.000    3.333    4.000    0.000   14.667 
#    0.000    0.000    0.000    0.000    0.000    0.000 
#    0.000    0.000    0.000    0.000    0.000    0.000 
#
# Total GULP energy -67433.778576 kJ/mol
# GULP energy per Si atom -5619.481548 kJ/mol
# Density = 2.389808 g / cm^3
# Si number density = 23.952596 Si / 1000 Ang^3
#
#
#
# Elastic Constant Matrix: (Units=GPa)
#
#
# Indices 1 2 3 4 5 6 
#
# 1 261.0817 100.7516 91.4540 0.0000 -2.4965 0.0000
# 2 100.7516 221.1796 109.6319 -0.0001 -21.4867 0.0000
# 3 91.4540 109.6319 240.0380 0.0000 9.0992 0.0000
# 4 0.0000 -0.0001 0.0000 33.7760 0.0000 0.5222
# 5 -2.4965 -21.4867 9.0992 0.0000 43.9035 0.0000
# 6 0.0000 0.0000 0.0000 0.5222 0.0000 51.3948
#
#
#
# Elastic Compliance Matrix: (Units=1/GPa)
#
#
# Indices 1 2 3 4 5 6 
#
# 1 0.004861 -0.001729 -0.001049 0.000000 -0.000352 0.000000
# 2 -0.001729 0.007024 -0.002697 0.000000 0.003899 0.000000
# 3 -0.001049 -0.002697 0.005896 0.000000 -0.002602 0.000000
# 4 0.000000 0.000000 0.000000 0.029611 0.000000 -0.000301
# 5 -0.000352 0.003899 -0.002602 0.000000 0.025204 0.000000
# 6 0.000000 0.000000 0.000000 -0.000301 0.000000 0.019460
#
#
# Mechanical properties :
#
#
# Convention : Reuss Voigt Hill
#
# Bulk Modulus (GPa) = 146.37966 147.33045 146.85506
# Shear Modulus (GPa) = 47.48954 53.84567 50.66761
#
# Velocity S-wave (km/s) = 4.45752 4.74646 4.60426
# Velocity P-wave (km/s) = 9.36683 9.57503 9.47151
#
# Compressibility (1/GPa) = 0.00683155
#
# Stress axis : x y z
#
# Youngs Moduli (GPa) = 205.69808 142.36179 169.59379
#
# Poissons Ratio (x) = 0.24608 0.17797
# Poissons Ratio (y) = 0.35556 0.45747
# Poissons Ratio (z) = 0.21586 0.38401
#
# Static dielectric constant tensor:
#      x y z
#    x 1.890790 0.000000 -0.002840 
#    y 0.000000 1.890100 0.000000 
#    z -0.002840 0.000000 1.911050 
# 
# From -- ./inp_files/149439.got.cif
#   From: 2010.05.17/outbox.cif.g08.bks.cpg/sg15_75_cif.got.tgz:149439.got - 2010.06.03 18:47:42.
