data_PCOD9308522
_publ_section_title
;
Structure prediction by ZEFSAII (Michael W. Deem and Ramdas Pophale) SiO2 
 PCOD9308522
Probable space group: C 2/C
;
_chemical_formula_sum "Si O2"
_cell_formula_units_Z 32
_cell_length_a 8.439797
_cell_length_b 14.064729
_cell_length_c 11.229683
_cell_angle_alpha 90.000000
_cell_angle_beta 88.248779
_cell_angle_gamma 90.000000
_cell_volume 1332.379608
_symmetry_space_group_name_H-M "C 2/C"
_symmetry_group_IT_number 15
_symmetry_cell_setting 'monoclinic'
loop_
_space_group_symop_operation_xyz
x,y,z
-x,y,1/2-z
-x,-y,-z
x,-y,1/2+z
1/2+x,1/2+y,z
1/2-x,1/2+y,1/2-z
1/2-x,1/2-y,-z
1/2+x,1/2-y,1/2+z
loop_
_atom_site_type_symbol
_atom_site_label
_atom_site_fract_x
_atom_site_fract_y
_atom_site_fract_z
Si Si1 0.553537 0.210850 0.564443
Si Si2 0.738332 0.691419 0.725306
Si Si3 0.586083 0.111237 0.140355
Si Si4 0.899812 0.091754 0.981674
O O1 0.403284 0.185776 0.650313
O O2 0.710756 0.195393 0.638497
O O3 0.545094 0.140827 0.453022
O O4 0.499235 0.316724 0.526309
O O5 0.655109 0.791279 0.696054
O O6 0.638003 0.612718 0.656504
O O7 0.500000 0.055647 0.250000
O O8 0.737996 0.077031 0.062129
O O9 0.000000 0.000000 0.000000
#
# Coordination Sequence:
#
# PCOD9308522 Si02
#       4
#     8   8   8   8
#     4   8  15  30  54  85 121 167 212 242 293 383
#     4   8  15  30  54  86 120 163 212 243 294 384
#     4   9  17  29  52  88 121 164 211 250 300 378
#     4   9  17  31  56  90 128 161 209 267 312 360
#
# _framework density 24.017178999999999
#
# number of rings (size 3 to 8) (size 9 to 14) (size 15 to 20)
#    0.000    3.500    0.000    3.000    0.000    1.000 
#    0.000    0.000   44.000    3.000   13.000    5.250 
#    0.000    0.250    0.000    0.000    0.000    0.000 
#
# Total GULP energy -89312.776139 kJ/mol
# GULP energy per Si atom -5582.048509 kJ/mol
# Density = 2.396252 g / cm^3
# Si number density = 24.017179 Si / 1000 Ang^3
#
#
#
# Elastic Constant Matrix: (Units=GPa)
#
#
# Indices 1 2 3 4 5 6 
#
# 1 120.3757 48.2261 94.9526 0.0000 7.8136 0.0000
# 2 48.2261 66.5883 33.6937 0.0000 21.7266 0.0000
# 3 94.9526 33.6937 155.9616 0.0000 32.6018 0.0000
# 4 0.0000 0.0000 0.0000 5.8786 0.0000 9.5264
# 5 7.8136 21.7266 32.6018 0.0000 75.4641 0.0000
# 6 0.0000 0.0000 0.0000 9.5264 0.0000 27.9473
#
#
#
# Elastic Compliance Matrix: (Units=1/GPa)
#
#
# Indices 1 2 3 4 5 6 
#
# 1 0.022663 -0.012220 -0.012534 0.000000 0.006587 0.000000
# 2 -0.012220 0.024393 0.003708 0.000000 -0.007360 0.000000
# 3 -0.012534 0.003708 0.014504 0.000000 -0.006036 0.000000
# 4 0.000000 0.000000 0.000000 0.380033 0.000000 -0.129541
# 5 0.006587 -0.007360 -0.006036 0.000000 0.017296 0.000000
# 6 0.000000 0.000000 0.000000 -0.129541 0.000000 0.079938
#
#
# Mechanical properties :
#
#
# Convention : Reuss Voigt Hill
#
# Bulk Modulus (GPa) = 51.36871 77.40783 64.38827
# Shear Modulus (GPa) = 8.51199 32.92820 20.72010
#
# Velocity S-wave (km/s) = 1.88463 3.70676 2.94040
# Velocity P-wave (km/s) = 5.11571 7.11479 6.19640
#
# Compressibility (1/GPa) = 0.01946710
#
# Stress axis : x y z
#
# Youngs Moduli (GPa) = 44.12554 40.99576 68.94883
#
# Poissons Ratio (x) = 0.50097 0.86423
# Poissons Ratio (y) = 0.53921 -0.25569
# Poissons Ratio (z) = 0.55309 -0.15203
#
# Static dielectric constant tensor:
#      x y z
#    x 2.048540 0.000000 -0.050520 
#    y 0.000000 1.897160 0.000000 
#    z -0.050520 0.000000 2.041800 
# 
# From -- ./inp_files/75607.got.cif
#   From: 2010.05.17/outbox.cif.g08.bks.cpg/sg15_38_cif.got.tgz:75607.got - 2010.06.03 18:47:42.
