data_PCOD9308261
_publ_section_title
;
Structure prediction by ZEFSAII (Michael W. Deem and Ramdas Pophale) SiO2 
 PCOD9308261
Probable space group: C 2/C
;
_chemical_formula_sum "Si O2"
_cell_formula_units_Z 40
_cell_length_a 22.904454
_cell_length_b 5.153951
_cell_length_c 26.439265
_cell_angle_alpha 90.000000
_cell_angle_beta 149.798439
_cell_angle_gamma 90.000000
_cell_volume 1570.055998
_symmetry_space_group_name_H-M "C 2/C"
_symmetry_group_IT_number 15
_symmetry_cell_setting 'monoclinic'
loop_
_space_group_symop_operation_xyz
x,y,z
-x,y,1/2-z
-x,-y,-z
x,-y,1/2+z
1/2+x,1/2+y,z
1/2-x,1/2+y,1/2-z
1/2-x,1/2-y,-z
1/2+x,1/2-y,1/2+z
loop_
_atom_site_type_symbol
_atom_site_label
_atom_site_fract_x
_atom_site_fract_y
_atom_site_fract_z
Si Si1 0.115871 0.832099 0.592248
Si Si2 0.720117 0.997071 0.594463
Si Si3 0.380629 0.760264 0.632953
Si Si4 0.148934 0.333221 0.231726
Si Si5 0.601255 0.760398 0.418198
O O1 0.115732 0.631683 0.545907
O O2 0.124274 0.712732 0.654408
O O3 0.239324 0.981997 0.679477
O O4 0.000000 0.000000 0.500000
O O5 0.789013 0.175753 0.606823
O O6 0.806767 0.915220 0.703774
O O7 0.669363 0.764865 0.522269
O O8 0.500000 0.821891 0.750000
O O9 0.405650 0.516236 0.614354
O O10 0.342842 0.021965 0.576345
O O11 0.025317 0.385269 0.164869
#
# Coordination Sequence:
#
# PCOD9308261 Si02
#       5
#     8   8   8   8   8
#     4  12  29  49  82 113 158 213 273 326 402 471
#     4  12  28  49  80 112 160 209 264 336 397 479
#     4  12  26  51  79 117 158 207 259 330 403 477
#     4  12  27  50  77 114 158 211 267 331 399 475
#     4  12  29  48  83 116 158 206 267 324 406 475
#
# _framework density 25.476796
#
# number of rings (size 3 to 8) (size 9 to 14) (size 15 to 20)
#    0.000    0.000    4.000    4.200   11.200    1.600 
#    0.000    0.000    0.000    0.000    0.000    0.000 
#    0.000    0.000    0.000    0.000    0.000    0.000 
#
# Total GULP energy -112123.788381 kJ/mol
# GULP energy per Si atom -5606.189419 kJ/mol
# Density = 2.541881 g / cm^3
# Si number density = 25.476796 Si / 1000 Ang^3
#
#
#
# Elastic Constant Matrix: (Units=GPa)
#
#
# Indices 1 2 3 4 5 6 
#
# 1 133.0008 35.6239 40.9620 -0.0104 -10.6223 0.0100
# 2 35.6239 89.0632 20.7765 -0.0174 -31.1070 0.0254
# 3 40.9620 20.7765 126.8937 0.0065 -12.3734 -0.0122
# 4 -0.0104 -0.0174 0.0065 27.2348 -0.0005 1.9275
# 5 -10.6223 -31.1070 -12.3734 -0.0005 46.5002 -0.0005
# 6 0.0100 0.0254 -0.0122 1.9275 -0.0005 54.7223
#
#
#
# Elastic Compliance Matrix: (Units=1/GPa)
#
#
# Indices 1 2 3 4 5 6 
#
# 1 0.009113 -0.003355 -0.002473 0.000002 -0.000820 -0.000001
# 2 -0.003355 0.016163 -0.000599 0.000010 0.009886 -0.000007
# 3 -0.002473 -0.000599 0.008914 -0.000004 0.001406 0.000003
# 4 0.000002 0.000010 -0.000004 0.036809 0.000007 -0.001297
# 5 -0.000820 0.009886 0.001406 0.000007 0.028306 -0.000004
# 6 -0.000001 -0.000007 0.000003 -0.001297 -0.000004 0.018320
#
#
# Mechanical properties :
#
#
# Convention : Reuss Voigt Hill
#
# Bulk Modulus (GPa) = 46.86812 60.40918 53.63865
# Shear Modulus (GPa) = 36.33961 42.46448 39.40205
#
# Velocity S-wave (km/s) = 3.78084 4.08706 3.93693
# Velocity P-wave (km/s) = 6.12340 6.78491 6.46263
#
# Compressibility (1/GPa) = 0.02133647
#
# Stress axis : x y z
#
# Youngs Moduli (GPa) = 109.72923 61.87057 112.18305
#
# Poissons Ratio (x) = 0.20757 0.27738
# Poissons Ratio (y) = 0.36814 0.06723
# Poissons Ratio (z) = 0.27131 0.03708
#
# Static dielectric constant tensor:
#      x y z
#    x 2.013370 -0.000010 0.037390 
#    y -0.000010 2.069800 0.000010 
#    z 0.037390 0.000010 1.979300 
# 
# From -- ./inp_files/279091.got.cif
#   From: 2010.05.17/outbox.cif.g08.bks.cpg/sg15_140_cif.got.tgz:279091.got - 2010.06.03 18:47:42.
