data_PCOD9308523
_publ_section_title
;
Structure prediction by ZEFSAII (Michael W. Deem and Ramdas Pophale) SiO2 
 PCOD9308523
Probable space group: C 2/C
;
_chemical_formula_sum "Si O2"
_cell_formula_units_Z 32
_cell_length_a 12.855409
_cell_length_b 7.627572
_cell_length_c 17.945204
_cell_angle_alpha 90.000000
_cell_angle_beta 127.799335
_cell_angle_gamma 90.000000
_cell_volume 1390.390601
_symmetry_space_group_name_H-M "C 2/C"
_symmetry_group_IT_number 15
_symmetry_cell_setting 'monoclinic'
loop_
_space_group_symop_operation_xyz
x,y,z
-x,y,1/2-z
-x,-y,-z
x,-y,1/2+z
1/2+x,1/2+y,z
1/2-x,1/2+y,1/2-z
1/2-x,1/2-y,-z
1/2+x,1/2-y,1/2+z
loop_
_atom_site_type_symbol
_atom_site_label
_atom_site_fract_x
_atom_site_fract_y
_atom_site_fract_z
Si Si1 0.315707 0.533810 0.027780
Si Si2 0.186391 0.237216 0.622564
Si Si3 0.607379 0.823425 0.026017
Si Si4 0.391598 0.618637 0.324654
O O1 0.202934 0.470510 0.034448
O O2 0.453704 0.595638 0.123516
O O3 0.278524 0.667228 0.944737
O O4 0.352560 0.355531 0.999297
O O5 0.047447 0.341378 0.560339
O O6 0.302369 0.335764 0.715547
O O7 0.156357 0.060914 0.657457
O O8 0.622042 0.771028 0.118869
#
# Coordination Sequence:
#
# PCOD9308523 Si02
#       4
#     8   8   8   8
#     4   8  15  31  54  82 117 153 197 245 290 354
#     4   9  17  31  55  85 117 155 196 243 298 351
#     4   8  15  31  54  80 113 156 200 239 289 355
#     4   9  17  31  55  85 117 155 196 243 298 351
#
# _framework density 23.015114000000001
#
# number of rings (size 3 to 8) (size 9 to 14) (size 15 to 20)
#    0.000    3.500    0.000    3.000    0.000    0.000 
#    0.000   25.000    0.000    9.000    0.000   14.000 
#    0.000   16.000    0.000    2.000    0.000    0.000 
#
# Total GULP energy -89538.889752 kJ/mol
# GULP energy per Si atom -5596.180609 kJ/mol
# Density = 2.296273 g / cm^3
# Si number density = 23.015114 Si / 1000 Ang^3
#
#
#
# Elastic Constant Matrix: (Units=GPa)
#
#
# Indices 1 2 3 4 5 6 
#
# 1 200.3375 79.7754 117.4639 0.0000 11.8256 0.0000
# 2 79.7754 120.6145 80.6259 0.0000 13.9256 0.0000
# 3 117.4639 80.6259 244.3250 0.0000 14.4946 0.0000
# 4 0.0000 0.0000 0.0000 43.9645 0.0000 5.2435
# 5 11.8256 13.9256 14.4946 0.0000 21.8013 0.0000
# 6 0.0000 0.0000 0.0000 5.2435 0.0000 49.9019
#
#
#
# Elastic Compliance Matrix: (Units=1/GPa)
#
#
# Indices 1 2 3 4 5 6 
#
# 1 0.007941 -0.003431 -0.002665 0.000000 -0.000344 0.000000
# 2 -0.003431 0.012591 -0.002227 0.000000 -0.004701 0.000000
# 3 -0.002665 -0.002227 0.006183 0.000000 -0.001243 0.000000
# 4 0.000000 0.000000 0.000000 0.023034 0.000000 -0.002420
# 5 -0.000344 -0.004701 -0.001243 0.000000 0.049885 0.000000
# 6 0.000000 0.000000 0.000000 -0.002420 0.000000 0.020294
#
#
# Mechanical properties :
#
#
# Convention : Reuss Voigt Hill
#
# Bulk Modulus (GPa) = 99.31012 124.55637 111.93324
# Shear Modulus (GPa) = 35.73243 42.29431 39.01337
#
# Velocity S-wave (km/s) = 3.94453 4.29146 4.12165
# Velocity P-wave (km/s) = 7.99934 8.87651 8.44931
#
# Compressibility (1/GPa) = 0.01006947
#
# Stress axis : x y z
#
# Youngs Moduli (GPa) = 125.93419 79.41977 161.74112
#
# Poissons Ratio (x) = 0.27247 0.43105
# Poissons Ratio (y) = 0.43206 0.36015
# Poissons Ratio (z) = 0.33562 0.17685
#
# Static dielectric constant tensor:
#      x y z
#    x 1.845500 0.000000 -0.004150 
#    y 0.000000 1.982640 0.000000 
#    z -0.004150 0.000000 1.775070 
# 
# From -- ./inp_files/242688.got.cif
#   From: 2010.05.17/outbox.cif.g08.bks.cpg/sg15_122_cif.got.tgz:242688.got - 2010.06.03 18:47:42.
