data_PCOD9308990
_publ_section_title
;
Structure prediction by ZEFSAII (Michael W. Deem and Ramdas Pophale) SiO2 
 PCOD9308990
Probable space group: C 2/C
;
_chemical_formula_sum "Si O2"
_cell_formula_units_Z 26
_cell_length_a 9.000000
_cell_length_b 30.000000
_cell_length_c 15.000000
_cell_angle_alpha 90.000000
_cell_angle_beta 140.000000
_cell_angle_gamma 90.000000
_cell_volume 2603.289819
_symmetry_space_group_name_H-M "C 2/C"
_symmetry_group_IT_number 15
_symmetry_cell_setting 'monoclinic'
loop_
_space_group_symop_operation_xyz
x,y,z
-x,y,1/2-z
-x,-y,-z
x,-y,1/2+z
1/2+x,1/2+y,z
1/2-x,1/2+y,1/2-z
1/2-x,1/2-y,-z
1/2+x,1/2-y,1/2+z
loop_
_atom_site_type_symbol
_atom_site_label
_atom_site_fract_x
_atom_site_fract_y
_atom_site_fract_z
Si Si1 0.289470 0.796520 0.727721
Si Si2 0.431870 0.063890 0.537287
Si Si3 0.978336 0.289780 0.470003
Si Si4 0.500000 0.656301 0.750000
Si Si5 0.337219 0.354323 0.531456
Si Si6 0.313980 0.530161 0.583012
Si Si7 0.355283 0.404666 0.349041
O O1 0.500000 0.803115 0.750000
O O2 0.120912 0.756763 0.614771
O O3 0.101699 0.836384 0.657626
O O4 0.401585 0.785568 0.876752
O O5 0.248030 0.104002 0.447318
O O6 0.598410 0.057712 0.527259
O O7 0.613075 0.075899 0.699806
O O8 0.294861 0.017811 0.490520
O O9 0.155785 0.315364 0.482505
O O10 0.738423 0.316918 0.372428
O O11 0.547900 0.627343 0.684337
O O12 0.321410 0.375753 0.423517
O O13 0.500000 0.525142 0.750000
O O14 0.452824 0.555411 0.567633
#
# Coordination Sequence:
#
# PCOD9308990 Si02
#       7
#     8   8   8   4   8   8   8
#     4  12  28  49  72 106 145 185 234 288 360 427
#     4  10  20  37  65  97 136 185 233 294 348 414
#     4  12  27  47  74 105 140 186 232 296 354 424
#     4  12  22  44  76 100 140 182 242 286 352 430
#     4  12  26  42  70 102 143 181 238 291 350 425
#     4   9  19  39  64  97 138 188 238 292 355 418
#     4  11  21  41  67 103 136 188 238 289 356 419
#
# _framework density 9.9873630000000002
#
# number of rings (size 3 to 8) (size 9 to 14) (size 15 to 20)
#    0.000    0.923    4.615    2.769    2.154    1.846 
#    0.000    3.077    0.000    0.000    0.000    0.000 
#    0.000    0.000    0.000    0.000    0.000    0.000 
#
# Total GULP energy -145137.675075 kJ/mol
# GULP energy per Si atom -5582.218272 kJ/mol
# Density = 0.996463 g / cm^3
# Si number density = 9.987363 Si / 1000 Ang^3
#
#
#
# Elastic Constant Matrix: (Units=GPa)
#
#
# Indices 1 2 3 4 5 6 
#
# 1 150.4056 56.5173 52.4930 0.0000 19.4003 0.0000
# 2 56.5173 109.2786 51.4697 0.0000 16.6615 0.0000
# 3 52.4930 51.4697 115.2501 0.0000 11.2499 0.0000
# 4 0.0000 0.0000 0.0000 51.0714 0.0000 16.0588
# 5 19.4003 16.6615 11.2499 0.0000 39.6365 0.0000
# 6 0.0000 0.0000 0.0000 16.0588 0.0000 46.6306
#
#
#
# Elastic Compliance Matrix: (Units=1/GPa)
#
#
# Indices 1 2 3 4 5 6 
#
# 1 0.008992 -0.003124 -0.002467 0.000000 -0.002387 0.000000
# 2 -0.003124 0.013166 -0.004182 0.000000 -0.002818 0.000000
# 3 -0.002467 -0.004182 0.011703 0.000000 -0.000356 0.000000
# 4 0.000000 0.000000 0.000000 0.021958 0.000000 -0.007562
# 5 -0.002387 -0.002818 -0.000356 0.000000 0.027684 0.000000
# 6 0.000000 0.000000 0.000000 -0.007562 0.000000 0.024049
#
#
# Mechanical properties :
#
#
# Convention : Reuss Voigt Hill
#
# Bulk Modulus (GPa) = 69.86066 77.32161 73.59114
# Shear Modulus (GPa) = 37.91629 41.76467 39.84048
#
# Velocity S-wave (km/s) = 4.36158 4.57757 4.47088
# Velocity P-wave (km/s) = 7.77270 8.16900 7.97332
#
# Compressibility (1/GPa) = 0.01431421
#
# Stress axis : x y z
#
# Youngs Moduli (GPa) = 111.21355 75.95284 85.45000
#
# Poissons Ratio (x) = 0.23731 0.21081
# Poissons Ratio (y) = 0.34747 0.35732
# Poissons Ratio (z) = 0.27437 0.31761
#
# Static dielectric constant tensor:
#      x y z
#    x 1.718930 0.000000 -0.002350 
#    y 0.000000 1.774790 0.000000 
#    z -0.002350 0.000000 1.706170 
# 
# From -- ./inp_files/139904.got.cif
#   From: 2010.05.17/outbox.ucp.g08.bks.cvg/sg15_70_cif.got.tgz:139904.got - 2010.06.11 12:40:34.
