data_PCOD9308259
_publ_section_title
;
Structure prediction by ZEFSAII (Michael W. Deem and Ramdas Pophale) SiO2 
 PCOD9308259
Probable space group: C 2/C
;
_chemical_formula_sum "Si O2"
_cell_formula_units_Z 32
_cell_length_a 13.824203
_cell_length_b 4.804967
_cell_length_c 20.715620
_cell_angle_alpha 90.000000
_cell_angle_beta 118.224217
_cell_angle_gamma 90.000000
_cell_volume 1212.426567
_symmetry_space_group_name_H-M "C 2/C"
_symmetry_group_IT_number 15
_symmetry_cell_setting 'monoclinic'
loop_
_space_group_symop_operation_xyz
x,y,z
-x,y,1/2-z
-x,-y,-z
x,-y,1/2+z
1/2+x,1/2+y,z
1/2-x,1/2+y,1/2-z
1/2-x,1/2-y,-z
1/2+x,1/2-y,1/2+z
loop_
_atom_site_type_symbol
_atom_site_label
_atom_site_fract_x
_atom_site_fract_y
_atom_site_fract_z
Si Si1 0.908471 0.704209 0.762594
Si Si2 0.484556 0.539719 0.599289
Si Si3 0.816023 0.406963 0.861179
Si Si4 0.349311 0.956786 0.011889
O O1 0.852277 0.556287 0.806477
O O2 0.806919 0.799649 0.687374
O O3 0.000000 0.542908 0.750000
O O4 0.979628 0.949589 0.817810
O O5 0.595364 0.662121 0.604278
O O6 0.449297 0.259324 0.552072
O O7 0.389795 0.774401 0.564737
O O8 0.825528 0.560531 0.932208
O O9 0.250000 0.750000 0.000000
#
# Coordination Sequence:
#
# PCOD9308259 Si02
#       4
#     8   8   8   8
#     4  12  28  52  80 120 163 219 269 332 410 486
#     4  12  26  51  78 114 159 210 264 336 396 475
#     4  12  27  50  82 115 168 206 273 335 401 483
#     4  12  28  50  82 119 159 212 273 332 406 478
#
# _framework density 26.393352
#
# number of rings (size 3 to 8) (size 9 to 14) (size 15 to 20)
#    0.000    0.000    5.000    3.750    3.500    1.000 
#    4.500    0.000    0.000    0.000    0.000    0.000 
#    0.000    0.000    0.000    0.000    0.000    0.000 
#
# Total GULP energy -89609.800190 kJ/mol
# GULP energy per Si atom -5600.612512 kJ/mol
# Density = 2.633328 g / cm^3
# Si number density = 26.393352 Si / 1000 Ang^3
#
#
#
# Elastic Constant Matrix: (Units=GPa)
#
#
# Indices 1 2 3 4 5 6 
#
# 1 151.0628 18.6471 11.4162 0.0000 26.6674 0.0003
# 2 18.6471 115.8491 18.5178 -0.0001 11.6404 0.0006
# 3 11.4162 18.5178 96.2440 0.0000 31.5460 0.0001
# 4 0.0000 -0.0001 0.0000 37.1826 0.0000 4.5784
# 5 26.6674 11.6404 31.5460 0.0000 32.6967 0.0000
# 6 0.0003 0.0006 0.0001 4.5784 0.0000 34.2558
#
#
#
# Elastic Compliance Matrix: (Units=1/GPa)
#
#
# Indices 1 2 3 4 5 6 
#
# 1 0.007990 -0.000774 0.001823 0.000000 -0.008000 0.000000
# 2 -0.000774 0.009092 -0.001175 0.000000 -0.001472 0.000000
# 3 0.001823 -0.001175 0.015722 0.000000 -0.016238 0.000000
# 4 0.000000 0.000000 0.000000 0.027344 0.000000 -0.003655
# 5 -0.008000 -0.001472 -0.016238 0.000000 0.053300 0.000000
# 6 0.000000 0.000000 0.000000 -0.003655 0.000000 0.029681
#
#
# Mechanical properties :
#
#
# Convention : Reuss Voigt Hill
#
# Bulk Modulus (GPa) = 30.71851 51.14647 40.93249
# Shear Modulus (GPa) = 32.41897 41.79867 37.10882
#
# Velocity S-wave (km/s) = 3.50851 3.98387 3.75372
# Velocity P-wave (km/s) = 5.29876 6.37042 5.85914
#
# Compressibility (1/GPa) = 0.03255366
#
# Stress axis : x y z
#
# Youngs Moduli (GPa) = 125.16027 109.98438 63.60371
#
# Poissons Ratio (x) = 0.08509 -0.11597
# Poissons Ratio (y) = 0.09683 0.07474
# Poissons Ratio (z) = -0.22821 0.12924
#
# Static dielectric constant tensor:
#      x y z
#    x 2.126400 0.000000 -0.046780 
#    y 0.000000 2.099900 0.000000 
#    z -0.046780 0.000000 2.080620 
# 
# From -- ./inp_files/271519.got.cif
#   From: 2010.05.17/outbox.cif.g08.bks.cpg/sg15_136_cif.got.tgz:271519.got - 2010.06.03 18:47:42.
