data_PCOD9308512
_publ_section_title
;
Structure prediction by ZEFSAII (Michael W. Deem and Ramdas Pophale) SiO2 
 PCOD9308512
Probable space group: C 2/C
;
_chemical_formula_sum "Si O2"
_cell_formula_units_Z 56
_cell_length_a 7.242728
_cell_length_b 20.256934
_cell_length_c 21.909829
_cell_angle_alpha 90.000000
_cell_angle_beta 132.386953
_cell_angle_gamma 90.000000
_cell_volume 2374.266118
_symmetry_space_group_name_H-M "C 2/C"
_symmetry_group_IT_number 15
_symmetry_cell_setting 'monoclinic'
loop_
_space_group_symop_operation_xyz
x,y,z
-x,y,1/2-z
-x,-y,-z
x,-y,1/2+z
1/2+x,1/2+y,z
1/2-x,1/2+y,1/2-z
1/2-x,1/2-y,-z
1/2+x,1/2-y,1/2+z
loop_
_atom_site_type_symbol
_atom_site_label
_atom_site_fract_x
_atom_site_fract_y
_atom_site_fract_z
Si Si1 0.694838 0.552651 0.641846
Si Si2 0.561217 0.052410 0.932747
Si Si3 0.807706 0.225152 0.325965
Si Si4 0.162578 0.835305 0.223989
Si Si5 0.335486 0.907126 0.539837
Si Si6 0.669794 0.819035 0.063226
Si Si7 0.913938 0.089498 0.387584
O O1 0.877211 0.556069 0.624821
O O2 0.745009 0.599779 0.708965
O O3 0.427030 0.571944 0.551185
O O4 0.680580 0.478026 0.662200
O O5 0.378491 0.110759 0.912502
O O6 0.502945 0.974727 0.931986
O O7 0.817636 0.072832 0.023920
O O8 0.500000 0.218081 0.250000
O O9 0.864015 0.281496 0.288852
O O10 0.913603 0.258204 0.412802
O O11 0.917276 0.152875 0.345864
O O12 0.000000 0.847758 0.250000
O O13 0.965931 0.805854 0.131422
O O14 0.419696 0.840587 0.523731
O O15 0.269195 0.895455 0.595554
#
# Coordination Sequence:
#
# PCOD9308512 Si02
#       7
#     8   8   8   8   8   8   8
#     4   8  15  30  50  71  94 122 152 192 238 280
#     4   9  16  27  49  78  98 113 144 196 247 280
#     4   9  19  33  46  63  92 131 166 190 218 272
#     4   8  16  32  50  63  87 128 167 190 216 271
#     4   8  15  28  48  75  97 119 149 188 236 286
#     4   9  16  28  48  71  96 121 150 189 232 273
#     4   9  17  30  49  71  98 121 150 193 240 279
#
# _framework density 23.586236
#
# number of rings (size 3 to 8) (size 9 to 14) (size 15 to 20)
#    0.000    3.714    0.000    2.143    0.000    1.143 
#    0.000    8.571    0.000    5.143    0.000    0.000 
#    0.000    0.000    0.000    0.000    0.000    0.000 
#
# Total GULP energy -155912.594129 kJ/mol
# GULP energy per Si atom -5568.306933 kJ/mol
# Density = 2.353255 g / cm^3
# Si number density = 23.586236 Si / 1000 Ang^3
#
#
#
# Elastic Constant Matrix: (Units=GPa)
#
#
# Indices 1 2 3 4 5 6 
#
# 1 41.2497 16.7555 4.2974 0.0000 -12.0365 0.0000
# 2 16.7555 141.5864 51.6925 0.0000 -28.7149 0.0000
# 3 4.2974 51.6925 46.4896 0.0000 0.1107 0.0000
# 4 0.0000 0.0000 0.0000 36.3924 0.0000 -2.1935
# 5 -12.0365 -28.7149 0.1107 0.0000 20.2480 0.0000
# 6 0.0000 0.0000 0.0000 -2.1935 0.0000 9.9944
#
#
#
# Elastic Compliance Matrix: (Units=1/GPa)
#
#
# Indices 1 2 3 4 5 6 
#
# 1 0.030247 0.003641 -0.006900 0.000000 0.023181 0.000000
# 2 0.003641 0.023675 -0.026746 0.000000 0.035885 0.000000
# 3 -0.006900 -0.026746 0.051988 0.000000 -0.042316 0.000000
# 4 0.000000 0.000000 0.000000 0.027847 0.000000 0.006112
# 5 0.023181 0.035885 -0.042316 0.000000 0.114290 0.000000
# 6 0.000000 0.000000 0.000000 0.006112 0.000000 0.101398
#
#
# Mechanical properties :
#
#
# Convention : Reuss Voigt Hill
#
# Bulk Modulus (GPa) = 21.78656 41.64628 31.71642
# Shear Modulus (GPa) = 11.77153 23.76565 17.76859
#
# Velocity S-wave (km/s) = 2.23644 3.17773 2.74769
# Velocity P-wave (km/s) = 3.99073 5.58205 4.85207
#
# Compressibility (1/GPa) = 0.04589987
#
# Stress axis : x y z
#
# Youngs Moduli (GPa) = 33.06146 42.23929 19.23509
#
# Poissons Ratio (x) = -0.15379 0.13272
# Poissons Ratio (y) = -0.12038 0.51447
# Poissons Ratio (z) = 0.22811 1.12974
#
# Static dielectric constant tensor:
#      x y z
#    x 2.028060 0.000000 0.010100 
#    y 0.000000 1.929440 0.000000 
#    z 0.010100 0.000000 1.947250 
# 
# From -- ./inp_files/265961.got.cif
#   From: 2010.05.17/outbox.cif.g08.bks.cpg/sg15_133_cif.got.tgz:265961.got - 2010.06.03 18:47:42.
