data_PCOD9308668
_publ_section_title
;
Structure prediction by ZEFSAII (Michael W. Deem and Ramdas Pophale) SiO2 
 PCOD9308668
Probable space group: C 2/C
;
_chemical_formula_sum "Si O2"
_cell_formula_units_Z 24
_cell_length_a 15.000000
_cell_length_b 27.000000
_cell_length_c 9.000000
_cell_angle_alpha 90.000000
_cell_angle_beta 140.000000
_cell_angle_gamma 90.000000
_cell_volume 2342.960837
_symmetry_space_group_name_H-M "C 2/C"
_symmetry_group_IT_number 15
_symmetry_cell_setting 'monoclinic'
loop_
_space_group_symop_operation_xyz
x,y,z
-x,y,1/2-z
-x,-y,-z
x,-y,1/2+z
1/2+x,1/2+y,z
1/2-x,1/2+y,1/2-z
1/2-x,1/2-y,-z
1/2+x,1/2-y,1/2+z
loop_
_atom_site_type_symbol
_atom_site_label
_atom_site_fract_x
_atom_site_fract_y
_atom_site_fract_z
Si Si1 0.284686 0.855796 0.251075
Si Si2 0.550342 0.798765 0.484318
Si Si3 0.928883 0.804456 0.323068
Si Si4 0.374883 0.547270 0.979162
Si Si5 0.916579 0.060941 0.510662
Si Si6 0.814116 0.147235 0.205130
O O1 0.439639 0.835849 0.419846
O O2 0.216522 0.830440 0.310876
O O3 0.251825 0.914739 0.201223
O O4 0.210934 0.841809 0.999674
O O5 0.500000 0.786665 0.250000
O O6 0.570040 0.750922 0.611062
O O7 0.698322 0.823733 0.648681
O O8 0.000000 0.803640 0.250000
O O9 0.035202 0.834670 0.560386
O O10 0.346217 0.489753 0.978549
O O11 0.500000 0.564446 0.250000
O O12 0.452513 0.547001 0.922582
O O13 0.814212 0.091892 0.274671
O O14 0.000000 0.088310 0.750000
#
# Coordination Sequence:
#
# PCOD9308668 Si02
#       6
#     8   8   8   8   8   8
#     4  11  21  39  62  85 113 153 196 236 282 340
#     4  10  24  40  59  83 116 155 194 234 283 347
#     4  12  24  39  60  86 113 149 195 242 289 338
#     4  10  18  34  59  87 115 149 189 238 282 329
#     4  10  20  33  57  91 118 142 189 242 283 332
#     4  11  21  39  60  86 116 152 194 235 284 339
#
# _framework density 10.243449
#
# number of rings (size 3 to 8) (size 9 to 14) (size 15 to 20)
#    0.000    1.333    3.333    3.000    0.000    5.333 
#    0.000    0.833    0.000    0.000    0.000    0.000 
#    0.000    0.000    0.000    0.000    0.000    0.000 
#
# Total GULP energy -133606.869122 kJ/mol
# GULP energy per Si atom -5566.952880 kJ/mol
# Density = 1.022013 g / cm^3
# Si number density = 10.243449 Si / 1000 Ang^3
#
#
#
# Elastic Constant Matrix: (Units=GPa)
#
#
# Indices 1 2 3 4 5 6 
#
# 1 104.8451 23.2172 -1.4632 0.0000 -11.6266 0.0000
# 2 23.2172 110.7629 -3.7685 0.0000 2.6534 0.0000
# 3 -1.4632 -3.7685 1.3985 0.0000 -6.3038 0.0000
# 4 0.0000 0.0000 0.0000 -204.2961 0.0000 -26.4295
# 5 -11.6266 2.6534 -6.3038 0.0000 28.8965 0.0000
# 6 0.0000 0.0000 0.0000 -26.4295 0.0000 15.3009
#
#
#
# Elastic Compliance Matrix: (Units=1/GPa)
#
#
# Indices 1 2 3 4 5 6 
#
# 1 0.003949 -0.006340 -0.189616 0.000000 -0.039194 0.000000
# 2 -0.006340 0.007104 -0.115655 0.000000 -0.028434 0.000000
# 3 -0.189616 -0.115655 -5.451101 0.000000 -1.254839 0.000000
# 4 0.000000 0.000000 0.000000 -0.004001 0.000000 -0.006911
# 5 -0.039194 -0.028434 -1.254839 0.000000 -0.252298 0.000000
# 6 0.000000 0.000000 0.000000 -0.006911 0.000000 0.053419
#
#
# Mechanical properties :
#
#
# Convention : Reuss Voigt Hill
#
# Bulk Modulus (GPa) = -0.16493 28.10864 13.97186
# Shear Modulus (GPa) = -0.71015 -18.75168 -9.73091
#
# Velocity S-wave (km/s) = -0.58940 -3.02868 -2.18177
# Velocity P-wave (km/s) = 0.73747 1.23271 0.69847
#
# Compressibility (1/GPa) = -6.06327014
#
# Stress axis : x y z
#
# Youngs Moduli (GPa) = 253.20706 140.77538 -0.18345
#
# Poissons Ratio (x) = 0.89254 -0.03478
# Poissons Ratio (y) = 1.60537 -0.02122
# Poissons Ratio (z) = 48.01201 16.28138
#
# Static dielectric constant tensor:
#      x y z
#    x 1.773980 0.000000 -0.061520 
#    y 0.000000 1.885900 0.000000 
#    z -0.061520 0.000000 1.738300 
# 
# From -- ./inp_files/43796.got.cif
#   From: 2010.05.17/outbox.ucp.g08.bks.cvg/sg15_22_cif.got.tgz:43796.got - 2010.06.11 12:40:34.
