data_PCOD9308951
_publ_section_title
;
Structure prediction by ZEFSAII (Michael W. Deem and Ramdas Pophale) SiO2 
 PCOD9308951
Probable space group: C 2/C
;
_chemical_formula_sum "Si O2"
_cell_formula_units_Z 22
_cell_length_a 9.000000
_cell_length_b 18.000000
_cell_length_c 15.000000
_cell_angle_alpha 90.000000
_cell_angle_beta 120.000000
_cell_angle_gamma 90.000000
_cell_volume 2104.441731
_symmetry_space_group_name_H-M "C 2/C"
_symmetry_group_IT_number 15
_symmetry_cell_setting 'monoclinic'
loop_
_space_group_symop_operation_xyz
x,y,z
-x,y,1/2-z
-x,-y,-z
x,-y,1/2+z
1/2+x,1/2+y,z
1/2-x,1/2+y,1/2-z
1/2-x,1/2-y,-z
1/2+x,1/2-y,1/2+z
loop_
_atom_site_type_symbol
_atom_site_label
_atom_site_fract_x
_atom_site_fract_y
_atom_site_fract_z
Si Si1 0.178566 0.936926 0.679659
Si Si2 0.500000 0.035973 0.750000
Si Si3 0.817268 0.277940 0.741514
Si Si4 0.309093 0.473172 0.604673
Si Si5 0.658707 0.126179 0.630241
Si Si6 0.833354 0.310605 0.957372
O O1 0.195683 0.847500 0.671665
O O2 0.190242 0.951259 0.789950
O O3 0.991806 0.973084 0.608968
O O4 0.336037 0.981884 0.682107
O O5 0.560582 0.086403 0.684409
O O6 0.780353 0.191076 0.707337
O O7 0.808522 0.286694 0.846835
O O8 0.000000 0.295135 0.750000
O O9 0.230783 0.557207 0.590667
O O10 0.226794 0.396405 0.542939
O O11 0.533575 0.178264 0.535430
O O12 0.750000 0.250000 0.000000
#
# Coordination Sequence:
#
# PCOD9308951 Si02
#       6
#     8   4   8   8   8   8
#     4   9  18  38  62  91 126 176 221 261 329 402
#     4  10  20  36  64  94 126 178 220 274 330 390
#     4  11  24  41  68  94 131 179 220 272 334 395
#     4   9  20  37  65  93 131 171 216 280 332 387
#     4  11  23  39  66  97 134 171 227 280 331 390
#     4  11  23  43  67  99 134 177 225 271 334 406
#
# _framework density 10.454079
#
# number of rings (size 3 to 8) (size 9 to 14) (size 15 to 20)
#    0.000    1.818    0.909    2.727    5.091    3.636 
#    0.000    0.909    0.000    0.000    0.000    0.000 
#    0.000    0.000    0.000    0.000    0.000    0.000 
#
# Total GULP energy -122482.883546 kJ/mol
# GULP energy per Si atom -5567.403798 kJ/mol
# Density = 1.043028 g / cm^3
# Si number density = 10.454079 Si / 1000 Ang^3
#
#
#
# Elastic Constant Matrix: (Units=GPa)
#
#
# Indices 1 2 3 4 5 6 
#
# 1 130.7677 57.4425 10.5748 0.0000 3.8501 0.0000
# 2 57.4425 174.1144 28.6793 0.0000 2.1186 0.0000
# 3 10.5748 28.6793 33.1639 0.0000 7.2869 0.0000
# 4 0.0000 0.0000 0.0000 29.7443 0.0000 0.2847
# 5 3.8501 2.1186 7.2869 0.0000 14.4161 0.0000
# 6 0.0000 0.0000 0.0000 0.2847 0.0000 54.6202
#
#
#
# Elastic Compliance Matrix: (Units=1/GPa)
#
#
# Indices 1 2 3 4 5 6 
#
# 1 0.008999 -0.002968 0.000146 0.000000 -0.002041 0.000000
# 2 -0.002968 0.007738 -0.006378 0.000000 0.002879 0.000000
# 3 0.000146 -0.006378 0.039851 0.000000 -0.019245 0.000000
# 4 0.000000 0.000000 0.000000 0.033622 0.000000 -0.000175
# 5 -0.002041 0.002879 -0.019245 0.000000 0.079216 0.000000
# 6 0.000000 0.000000 0.000000 -0.000175 0.000000 0.018309
#
#
# Mechanical properties :
#
#
# Convention : Reuss Voigt Hill
#
# Bulk Modulus (GPa) = 26.18671 59.04881 42.61776
# Shear Modulus (GPa) = 22.84510 35.84608 29.34559
#
# Velocity S-wave (km/s) = 3.30910 4.14509 3.75046
# Velocity P-wave (km/s) = 5.21076 7.15628 6.25957
#
# Compressibility (1/GPa) = 0.03818730
#
# Stress axis : x y z
#
# Youngs Moduli (GPa) = 111.12009 129.23111 25.09361
#
# Poissons Ratio (x) = 0.38357 -0.00365
# Poissons Ratio (y) = 0.32982 0.16004
# Poissons Ratio (z) = -0.01618 0.82422
#
# Static dielectric constant tensor:
#      x y z
#    x 1.768870 0.000000 0.112750 
#    y 0.000000 1.753720 0.000000 
#    z 0.112750 0.000000 1.905390 
# 
# From -- ./inp_files/134956.got.cif
#   From: 2010.05.17/outbox.ucp.g08.bks.cvg/sg15_68_cif.got.tgz:134956.got - 2010.06.11 12:40:34.
