data_PCOD9308829
_publ_section_title
;
Structure prediction by ZEFSAII (Michael W. Deem and Ramdas Pophale) SiO2 
 PCOD9308829
Probable space group: C 2/C
;
_chemical_formula_sum "Si O2"
_cell_formula_units_Z 26
_cell_length_a 12.000000
_cell_length_b 15.000000
_cell_length_c 21.000000
_cell_angle_alpha 90.000000
_cell_angle_beta 50.000000
_cell_angle_gamma 90.000000
_cell_volume 2895.647995
_symmetry_space_group_name_H-M "C 2/C"
_symmetry_group_IT_number 15
_symmetry_cell_setting 'monoclinic'
loop_
_space_group_symop_operation_xyz
x,y,z
-x,y,1/2-z
-x,-y,-z
x,-y,1/2+z
1/2+x,1/2+y,z
1/2-x,1/2+y,1/2-z
1/2-x,1/2-y,-z
1/2+x,1/2-y,1/2+z
loop_
_atom_site_type_symbol
_atom_site_label
_atom_site_fract_x
_atom_site_fract_y
_atom_site_fract_z
Si Si1 0.830273 0.998517 0.580724
Si Si2 0.504428 0.627021 0.320984
Si Si3 0.194705 0.797179 0.863772
Si Si4 0.500000 0.300922 0.250000
Si Si5 0.381282 0.893138 0.085062
Si Si6 0.209797 0.459898 0.984011
Si Si7 0.347691 0.435775 0.218428
O O1 0.798892 0.894997 0.608026
O O2 0.745278 0.024870 0.546495
O O3 0.814391 0.055746 0.653765
O O4 0.000000 0.000000 0.500000
O O5 0.500000 0.661933 0.250000
O O6 0.596924 0.688781 0.335661
O O7 0.343981 0.600029 0.406984
O O8 0.592322 0.533623 0.286749
O O9 0.359686 0.762261 0.797634
O O10 0.125558 0.712765 0.925997
O O11 0.471593 0.366168 0.198919
O O12 0.288403 0.913472 0.184355
O O13 0.308822 0.951697 0.054506
O O14 0.549629 0.917442 0.034671
#
# Coordination Sequence:
#
# PCOD9308829 Si02
#       7
#     8   8   8   4   8   8   8
#     4  11  23  39  62  95 122 166 203 256 311 369
#     4  11  19  39  66  85 117 172 203 249 304 382
#     4  10  23  39  62  92 127 152 215 255 313 355
#     4  10  20  42  62  94 116 162 212 266 298 380
#     4  10  23  42  62  94 119 172 202 259 305 371
#     4  11  22  41  66  88 128 162 210 246 312 377
#     4  10  19  39  68  80 123 165 208 240 317 370
#
# _framework density 8.9789919999999999
#
# number of rings (size 3 to 8) (size 9 to 14) (size 15 to 20)
#    0.000    1.538    5.385    0.923    0.000    4.308 
#    5.538    0.000    0.000    0.000    0.000    0.000 
#    0.000    0.000    0.000    0.000    0.000    0.000 
#
# Total GULP energy -144757.844250 kJ/mol
# GULP energy per Si atom -5567.609394 kJ/mol
# Density = 0.895856 g / cm^3
# Si number density = 8.978992 Si / 1000 Ang^3
#
#
#
# Elastic Constant Matrix: (Units=GPa)
#
#
# Indices 1 2 3 4 5 6 
#
# 1 161.0936 41.7584 49.2967 0.0000 10.1039 0.0000
# 2 41.7584 87.0758 29.2692 0.0000 -5.8776 0.0000
# 3 49.2967 29.2692 87.8440 0.0000 9.1754 0.0000
# 4 0.0000 0.0000 0.0000 29.2696 0.0000 -3.6273
# 5 10.1039 -5.8776 9.1754 0.0000 48.4511 0.0000
# 6 0.0000 0.0000 0.0000 -3.6273 0.0000 42.0774
#
#
#
# Elastic Compliance Matrix: (Units=1/GPa)
#
#
# Indices 1 2 3 4 5 6 
#
# 1 0.008078 -0.002805 -0.003456 0.000000 -0.001370 0.000000
# 2 -0.002805 0.014194 -0.003465 0.000000 0.002963 0.000000
# 3 -0.003456 -0.003465 0.014738 0.000000 -0.002491 0.000000
# 4 0.000000 0.000000 0.000000 0.034534 0.000000 0.002977
# 5 -0.001370 0.002963 -0.002491 0.000000 0.021756 0.000000
# 6 0.000000 0.000000 0.000000 0.002977 0.000000 0.024022
#
#
# Mechanical properties :
#
#
# Convention : Reuss Voigt Hill
#
# Bulk Modulus (GPa) = 56.95026 64.07355 60.51191
# Shear Modulus (GPa) = 35.05672 38.33888 36.69780
#
# Velocity S-wave (km/s) = 4.42311 4.62553 4.52545
# Velocity P-wave (km/s) = 7.60704 8.01777 7.81510
#
# Compressibility (1/GPa) = 0.01755918
#
# Stress axis : x y z
#
# Youngs Moduli (GPa) = 123.79220 70.45219 67.85353
#
# Poissons Ratio (x) = 0.19761 0.23447
# Poissons Ratio (y) = 0.34723 0.23510
# Poissons Ratio (z) = 0.42777 0.24410
#
# Static dielectric constant tensor:
#      x y z
#    x 1.624850 0.000000 0.002510 
#    y 0.000000 1.630260 0.000000 
#    z 0.002510 0.000000 1.655870 
# 
# From -- ./inp_files/238645.got.cif
#   From: 2010.05.17/outbox.ucp.g08.bks.cvg/sg15_120_cif.got.tgz:238645.got - 2010.06.11 12:40:34.
