data_PCOD9308085
_publ_section_title
;
Structure prediction by ZEFSAII (Michael W. Deem and Ramdas Pophale) SiO2 
 PCOD9308085
Probable space group: C 2/C
;
_chemical_formula_sum "Si O2"
_cell_formula_units_Z 32
_cell_length_a 10.016805
_cell_length_b 15.094871
_cell_length_c 11.604228
_cell_angle_alpha 90.000000
_cell_angle_beta 124.496322
_cell_angle_gamma 90.000000
_cell_volume 1446.064794
_symmetry_space_group_name_H-M "C 2/C"
_symmetry_group_IT_number 15
_symmetry_cell_setting 'monoclinic'
loop_
_space_group_symop_operation_xyz
x,y,z
-x,y,1/2-z
-x,-y,-z
x,-y,1/2+z
1/2+x,1/2+y,z
1/2-x,1/2+y,1/2-z
1/2-x,1/2-y,-z
1/2+x,1/2-y,1/2+z
loop_
_atom_site_type_symbol
_atom_site_label
_atom_site_fract_x
_atom_site_fract_y
_atom_site_fract_z
Si Si1 0.809014 0.276739 0.154450
Si Si2 0.119295 0.877447 0.397513
Si Si3 0.791273 0.955022 0.278245
Si Si4 0.680607 0.849866 0.790375
O O1 0.250000 0.250000 0.500000
O O2 0.000000 0.260170 0.250000
O O3 0.773801 0.379085 0.168944
O O4 0.718443 0.217349 0.205807
O O5 0.245082 0.923189 0.371534
O O6 0.199654 0.829843 0.543197
O O7 0.000000 0.825155 0.250000
O O8 0.987967 0.949177 0.377554
O O9 0.727601 0.051335 0.272549
O O10 0.500000 0.855044 0.750000
#
# Coordination Sequence:
#
# PCOD9308085 Si02
#       4
#     8   8   8   8
#     4  12  29  45  71 102 143 178 232 286 350 407
#     4   8  22  41  75  91 138 177 236 267 351 396
#     4   9  23  45  70  97 139 180 231 281 336 410
#     4  12  26  42  74 104 137 182 232 282 350 404
#
# _framework density 22.129021999999999
#
# number of rings (size 3 to 8) (size 9 to 14) (size 15 to 20)
#    1.500    0.000    0.000    3.000   14.000    2.000 
#    0.000    0.000    0.000    0.000    0.000    0.000 
#    0.000    0.000    0.000    0.000    0.000    0.000 
#
# Total GULP energy -89326.656998 kJ/mol
# GULP energy per Si atom -5582.916062 kJ/mol
# Density = 2.207866 g / cm^3
# Si number density = 22.129022 Si / 1000 Ang^3
#
#
#
# Elastic Constant Matrix: (Units=GPa)
#
#
# Indices 1 2 3 4 5 6 
#
# 1 142.6839 50.3140 45.1939 0.0000 -4.2604 0.0000
# 2 50.3140 132.8146 8.0524 0.0000 -13.7330 0.0000
# 3 45.1939 8.0524 132.3758 0.0000 -25.2692 0.0000
# 4 0.0000 0.0000 0.0000 9.6544 0.0000 -9.3468
# 5 -4.2604 -13.7330 -25.2692 0.0000 44.5656 0.0000
# 6 0.0000 0.0000 0.0000 -9.3468 0.0000 4.3526
#
#
#
# Elastic Compliance Matrix: (Units=1/GPa)
#
#
# Indices 1 2 3 4 5 6 
#
# 1 0.009244 -0.003516 -0.003342 0.000000 -0.002095 0.000000
# 2 -0.003516 0.009114 0.001254 0.000000 0.003183 0.000000
# 3 -0.003342 0.001254 0.009679 0.000000 0.005555 0.000000
# 4 0.000000 0.000000 0.000000 -0.095995 0.000000 -0.206143
# 5 -0.002095 0.003183 0.005555 0.000000 0.026369 0.000000
# 6 0.000000 0.000000 0.000000 -0.206143 0.000000 -0.212927
#
#
# Mechanical properties :
#
#
# Convention : Reuss Voigt Hill
#
# Bulk Modulus (GPa) = 59.42020 68.33277 63.87649
# Shear Modulus (GPa) = -21.03522 32.00212 5.48345
#
# Velocity S-wave (km/s) = -3.08648 3.80697 1.57586
# Velocity P-wave (km/s) = 3.76938 7.09015 5.67796
#
# Compressibility (1/GPa) = 0.01682929
#
# Stress axis : x y z
#
# Youngs Moduli (GPa) = 108.17421 109.71657 103.31206
#
# Poissons Ratio (x) = 0.38576 0.34527
# Poissons Ratio (y) = 0.38034 -0.12951
# Poissons Ratio (z) = 0.36152 -0.13754
#
# Static dielectric constant tensor:
#      x y z
#    x 1.822570 0.000000 -0.006070 
#    y 0.000000 1.844010 0.000000 
#    z -0.006070 0.000000 1.847050 
# 
# From -- ./inp_files/134084.got.cif
#   From: 2010.05.17/outbox.cif.g08.bks.cpg/sg15_68_cif.got.tgz:134084.got - 2010.06.03 18:47:42.
