data_PCOD9308397
_publ_section_title
;
Structure prediction by ZEFSAII (Michael W. Deem and Ramdas Pophale) SiO2 
 PCOD9308397
Probable space group: C 2/C
;
_chemical_formula_sum "Si O2"
_cell_formula_units_Z 32
_cell_length_a 17.709368
_cell_length_b 5.444504
_cell_length_c 13.595943
_cell_angle_alpha 90.000000
_cell_angle_beta 60.735204
_cell_angle_gamma 90.000000
_cell_volume 1143.592610
_symmetry_space_group_name_H-M "C 2/C"
_symmetry_group_IT_number 15
_symmetry_cell_setting 'monoclinic'
loop_
_space_group_symop_operation_xyz
x,y,z
-x,y,1/2-z
-x,-y,-z
x,-y,1/2+z
1/2+x,1/2+y,z
1/2-x,1/2+y,1/2-z
1/2-x,1/2-y,-z
1/2+x,1/2-y,1/2+z
loop_
_atom_site_type_symbol
_atom_site_label
_atom_site_fract_x
_atom_site_fract_y
_atom_site_fract_z
Si Si1 0.402970 0.659172 0.446925
Si Si2 0.500000 0.277278 0.250000
Si Si3 0.841816 0.507021 0.809992
Si Si4 0.178083 0.758395 0.878432
Si Si5 0.500000 0.000000 0.000000
O O1 0.438818 0.439641 0.355022
O O2 0.350660 0.527663 0.566919
O O3 0.490134 0.755199 0.442260
O O4 0.354390 0.836783 0.400659
O O5 0.562948 0.108457 0.275697
O O6 0.814622 0.690099 0.740467
O O7 0.775955 0.277244 0.857996
O O8 0.104763 0.565223 0.959670
#
# Coordination Sequence:
#
# PCOD9308397 Si02
#       5
#     8   4   8   8   4
#     4  12  28  53  83 119 171 220 274 353 408 498
#     4  12  28  56  84 118 172 224 274 344 418 486
#     4  12  30  51  82 125 169 222 283 340 415 494
#     4  12  29  50  84 122 168 220 276 341 416 495
#     4  12  28  50  80 118 158 220 270 336 420 480
#
# _framework density 27.981995999999999
#
# number of rings (size 3 to 8) (size 9 to 14) (size 15 to 20)
#    0.000    0.000    0.000    8.250   10.500    6.000 
#    0.000    0.000    0.000    0.000    0.000    0.000 
#    0.000    0.000    0.000    0.000    0.000    0.000 
#
# Total GULP energy -89229.641694 kJ/mol
# GULP energy per Si atom -5576.852606 kJ/mol
# Density = 2.791831 g / cm^3
# Si number density = 27.981996 Si / 1000 Ang^3
#
#
#
# Elastic Constant Matrix: (Units=GPa)
#
#
# Indices 1 2 3 4 5 6 
#
# 1 198.4510 85.1012 64.8532 0.0000 -1.5424 0.0000
# 2 85.1012 76.9709 38.4254 0.0006 20.3925 0.0002
# 3 64.8532 38.4254 97.3629 -0.0001 12.3778 0.0000
# 4 0.0000 0.0006 -0.0001 36.6239 -0.0002 -9.6732
# 5 -1.5424 20.3925 12.3778 -0.0002 58.4166 0.0001
# 6 0.0000 0.0002 0.0000 -9.6732 0.0001 67.9043
#
#
#
# Elastic Compliance Matrix: (Units=1/GPa)
#
#
# Indices 1 2 3 4 5 6 
#
# 1 0.011571 -0.012496 -0.003463 0.000000 0.005401 0.000000
# 2 -0.012496 0.030863 -0.002513 -0.000001 -0.010571 0.000000
# 3 -0.003463 -0.002513 0.013842 0.000000 -0.002147 0.000000
# 4 0.000000 -0.000001 0.000000 0.028372 0.000000 0.004042
# 5 0.005401 -0.010571 -0.002147 0.000000 0.021406 0.000000
# 6 0.000000 0.000000 0.000000 0.004042 0.000000 0.015302
#
#
# Mechanical properties :
#
#
# Convention : Reuss Voigt Hill
#
# Bulk Modulus (GPa) = 51.72436 83.28271 67.50353
# Shear Modulus (GPa) = 30.35015 44.88263 37.61639
#
# Velocity S-wave (km/s) = 3.29695 4.00932 3.67046
# Velocity P-wave (km/s) = 5.74614 7.15964 6.49148
#
# Compressibility (1/GPa) = 0.01933325
#
# Stress axis : x y z
#
# Youngs Moduli (GPa) = 86.42243 32.40140 72.24374
#
# Poissons Ratio (x) = 0.40488 0.25015
# Poissons Ratio (y) = 1.07991 0.18155
# Poissons Ratio (z) = 0.29924 0.08143
#
# Static dielectric constant tensor:
#      x y z
#    x 2.185070 0.000000 -0.076230 
#    y 0.000000 2.187990 0.000000 
#    z -0.076230 0.000000 2.075170 
# 
# From -- ./inp_files/164994.got.cif
#   From: 2010.05.17/outbox.cif.g08.bks.cpg/sg15_83_cif.got.tgz:164994.got - 2010.06.03 18:47:42.
