data_PCOD9308878
_publ_section_title
;
Structure prediction by ZEFSAII (Michael W. Deem and Ramdas Pophale) SiO2 
 PCOD9308878
Probable space group: C 2/C
;
_chemical_formula_sum "Si O2"
_cell_formula_units_Z 30
_cell_length_a 27.000000
_cell_length_b 9.000000
_cell_length_c 27.000000
_cell_angle_alpha 90.000000
_cell_angle_beta 30.000000
_cell_angle_gamma 90.000000
_cell_volume 3280.500000
_symmetry_space_group_name_H-M "C 2/C"
_symmetry_group_IT_number 15
_symmetry_cell_setting 'monoclinic'
loop_
_space_group_symop_operation_xyz
x,y,z
-x,y,1/2-z
-x,-y,-z
x,-y,1/2+z
1/2+x,1/2+y,z
1/2-x,1/2+y,1/2-z
1/2-x,1/2-y,-z
1/2+x,1/2-y,1/2+z
loop_
_atom_site_type_symbol
_atom_site_label
_atom_site_fract_x
_atom_site_fract_y
_atom_site_fract_z
Si Si1 0.613254 0.015497 0.578949
Si Si2 0.448487 0.024006 0.981075
Si Si3 0.647205 0.109443 0.340525
Si Si4 0.855342 0.009609 0.871230
Si Si5 0.502777 0.364507 0.930262
Si Si6 0.517764 0.344479 0.667605
Si Si7 0.000000 0.717183 0.250000
Si Si8 0.337854 0.548439 0.646366
O O1 0.591257 0.001938 0.539438
O O2 0.735003 0.000591 0.477034
O O3 0.565235 0.178829 0.633946
O O4 0.553064 0.891409 0.663271
O O5 0.497647 0.187899 0.945168
O O6 0.536710 0.908892 0.914640
O O7 0.363129 0.027808 0.096826
O O8 0.671905 0.282504 0.325885
O O9 0.730812 0.027323 0.236221
O O10 0.898821 0.960780 0.886713
O O11 0.915310 0.887573 0.785184
O O12 0.909928 0.168408 0.811837
O O13 0.503902 0.372495 0.870696
O O14 0.595081 0.447287 0.875325
O O15 0.403155 0.435528 0.040019
#
# Coordination Sequence:
#
# PCOD9308878 Si02
#       8
#     8   8   8   8   8   8   4   8
#     4  11  21  40  62  87 115 162 192 245 296 347
#     4   9  21  38  56  80 113 147 197 237 283 342
#     4  10  20  37  54  83 115 148 190 238 283 349
#     4  10  22  39  61  87 119 159 191 246 298 347
#     4   9  19  37  57  82 113 148 189 242 279 346
#     4   9  20  38  61  88 115 147 205 243 284 353
#     4  10  22  40  58  86 128 150 196 246 288 358
#     4  10  20  34  59  82 115 152 185 233 294 340
#
# _framework density 9.1449470000000002
#
# number of rings (size 3 to 8) (size 9 to 14) (size 15 to 20)
#    0.000    2.400    0.000    2.400    1.867    3.200 
#    9.600    0.000    0.000    0.000    0.000    0.000 
#    0.000    0.000    0.000    0.000    0.000    0.000 
#
# Total GULP energy -167068.711919 kJ/mol
# GULP energy per Si atom -5568.957064 kJ/mol
# Density = 0.912413 g / cm^3
# Si number density = 9.144947 Si / 1000 Ang^3
#
#
#
# Elastic Constant Matrix: (Units=GPa)
#
#
# Indices 1 2 3 4 5 6 
#
# 1 51.7446 12.8286 20.7433 0.0006 5.4107 -0.0005
# 2 12.8286 69.7462 34.0833 0.0017 -3.1204 -0.0016
# 3 20.7433 34.0833 105.1652 0.0006 -10.6765 -0.0008
# 4 0.0006 0.0017 0.0006 34.1444 -0.0004 -3.0782
# 5 5.4107 -3.1204 -10.6765 -0.0004 22.7614 0.0004
# 6 -0.0005 -0.0016 -0.0008 -3.0782 0.0004 25.6296
#
#
#
# Elastic Compliance Matrix: (Units=1/GPa)
#
#
# Indices 1 2 3 4 5 6 
#
# 1 0.022504 -0.002296 -0.004483 0.000000 -0.007767 0.000000
# 2 -0.002296 0.017272 -0.005091 -0.000001 0.000525 0.000001
# 3 -0.004483 -0.005091 0.012685 0.000000 0.006318 0.000000
# 4 0.000000 -0.000001 0.000000 0.029608 0.000000 0.003556
# 5 -0.007767 0.000525 0.006318 0.000000 0.048816 -0.000001
# 6 0.000000 0.000001 0.000000 0.003556 -0.000001 0.039445
#
#
# Mechanical properties :
#
#
# Convention : Reuss Voigt Hill
#
# Bulk Modulus (GPa) = 34.81981 40.21848 37.51914
# Shear Modulus (GPa) = 24.55273 27.10711 25.82992
#
# Velocity S-wave (km/s) = 3.66788 3.85396 3.76207
# Velocity P-wave (km/s) = 6.08415 6.46848 6.27925
#
# Compressibility (1/GPa) = 0.02871929
#
# Stress axis : x y z
#
# Youngs Moduli (GPa) = 44.43581 57.89869 78.83557
#
# Poissons Ratio (x) = 0.13293 0.35345
# Poissons Ratio (y) = 0.10202 0.40138
# Poissons Ratio (z) = 0.19922 0.29479
#
# Static dielectric constant tensor:
#      x y z
#    x 1.643420 0.000000 0.025680 
#    y 0.000000 1.648370 0.000000 
#    z 0.025680 0.000000 1.631950 
# 
# From -- ./inp_files/303081.got.cif
#   From: 2010.05.17/outbox.ucp.g08.bks.cvg/sg15_152_cif.got.tgz:303081.got - 2010.06.11 12:40:34.
