data_PCOD9308496
_publ_section_title
;
Structure prediction by ZEFSAII (Michael W. Deem and Ramdas Pophale) SiO2 
 PCOD9308496
Probable space group: C 2/C
;
_chemical_formula_sum "Si O2"
_cell_formula_units_Z 48
_cell_length_a 11.558004
_cell_length_b 10.975015
_cell_length_c 15.960579
_cell_angle_alpha 90.000000
_cell_angle_beta 121.546734
_cell_angle_gamma 90.000000
_cell_volume 1725.381415
_symmetry_space_group_name_H-M "C 2/C"
_symmetry_group_IT_number 15
_symmetry_cell_setting 'monoclinic'
loop_
_space_group_symop_operation_xyz
x,y,z
-x,y,1/2-z
-x,-y,-z
x,-y,1/2+z
1/2+x,1/2+y,z
1/2-x,1/2+y,1/2-z
1/2-x,1/2-y,-z
1/2+x,1/2-y,1/2+z
loop_
_atom_site_type_symbol
_atom_site_label
_atom_site_fract_x
_atom_site_fract_y
_atom_site_fract_z
Si Si1 0.873868 0.728871 0.112395
Si Si2 0.100723 0.029443 0.925990
Si Si3 0.523862 0.310176 0.561621
Si Si4 0.593084 0.891220 0.573802
Si Si5 0.652448 0.904483 0.196809
Si Si6 0.657669 0.029891 0.870207
O O1 0.900624 0.868215 0.145721
O O2 0.846785 0.612791 0.160300
O O3 0.750000 0.750000 0.000000
O O4 0.001259 0.675916 0.108971
O O5 0.013021 0.908666 0.882335
O O6 0.247405 0.978772 0.011942
O O7 0.054484 0.106364 0.991919
O O8 0.400070 0.219064 0.489666
O O9 0.641321 0.217025 0.636902
O O10 0.500000 0.000000 0.500000
O O11 0.699687 0.975790 0.663312
O O12 0.493199 0.926714 0.163589
O O13 0.718448 0.897641 0.313787
#
# Coordination Sequence:
#
# PCOD9308496 Si02
#       6
#     8   8   8   8   8   8
#     4   8  14  26  46  67  88 116 155 197 227 278
#     4   9  17  30  48  71  95 125 161 194 245 291
#     4   9  17  30  48  69  96 127 157 200 240 288
#     4   8  14  26  44  65  87 120 158 189 226 276
#     4   9  17  30  48  68  95 127 161 202 240 280
#     4   9  17  30  48  71  93 124 163 199 241 282
#
# _framework density 27.819935000000001
#
# number of rings (size 3 to 8) (size 9 to 14) (size 15 to 20)
#    0.000    3.333    0.000    0.000    0.000    0.667 
#    3.000    0.000    0.000   16.000    0.000    0.000 
#    0.000    0.000    0.000    0.000    0.000    0.000 
#
# Total GULP energy -133723.892627 kJ/mol
# GULP energy per Si atom -5571.828859 kJ/mol
# Density = 2.775662 g / cm^3
# Si number density = 27.819935 Si / 1000 Ang^3
#
#
#
# Elastic Constant Matrix: (Units=GPa)
#
#
# Indices 1 2 3 4 5 6 
#
# 1 41.1266 45.0959 6.4821 0.0000 3.3419 0.0000
# 2 45.0959 165.2225 9.4267 0.0000 6.0373 0.0000
# 3 6.4821 9.4267 97.5947 0.0000 1.4226 0.0000
# 4 0.0000 0.0000 0.0000 15.3375 0.0000 -1.9469
# 5 3.3419 6.0373 1.4226 0.0000 23.3070 0.0000
# 6 0.0000 0.0000 0.0000 -1.9469 0.0000 57.4864
#
#
#
# Elastic Compliance Matrix: (Units=1/GPa)
#
#
# Indices 1 2 3 4 5 6 
#
# 1 0.035035 -0.009392 -0.001383 0.000000 -0.002506 0.000000
# 2 -0.009392 0.008660 -0.000200 0.000000 -0.000884 0.000000
# 3 -0.001383 -0.000200 0.010363 0.000000 -0.000382 0.000000
# 4 0.000000 0.000000 0.000000 0.065481 0.000000 0.002218
# 5 -0.002506 -0.000884 -0.000382 0.000000 0.043517 0.000000
# 6 0.000000 0.000000 0.000000 0.002218 0.000000 0.017471
#
#
# Mechanical properties :
#
#
# Convention : Reuss Voigt Hill
#
# Bulk Modulus (GPa) = 31.14488 47.32814 39.23651
# Shear Modulus (GPa) = 23.45438 35.42213 29.43825
#
# Velocity S-wave (km/s) = 2.90673 3.57215 3.25648
# Velocity P-wave (km/s) = 4.74183 5.83635 5.31732
#
# Compressibility (1/GPa) = 0.03210801
#
# Stress axis : x y z
#
# Youngs Moduli (GPa) = 28.54261 115.47850 96.49529
#
# Poissons Ratio (x) = 1.08458 0.13348
# Poissons Ratio (y) = 0.26807 0.01927
# Poissons Ratio (z) = 0.03948 0.02307
#
# Static dielectric constant tensor:
#      x y z
#    x 2.404900 0.000000 -0.070880 
#    y 0.000000 2.201860 0.000000 
#    z -0.070880 0.000000 2.304640 
# 
# From -- ./inp_files/248218.got.cif
#   From: 2010.05.17/outbox.cif.g08.bks.cpg/sg15_125_cif.got.tgz:248218.got - 2010.06.03 18:47:42.
