data_PCOD9308301
_publ_section_title
;
Structure prediction by ZEFSAII (Michael W. Deem and Ramdas Pophale) SiO2 
 PCOD9308301
Probable space group: C 2/C
;
_chemical_formula_sum "Si O2"
_cell_formula_units_Z 40
_cell_length_a 17.764333
_cell_length_b 8.967700
_cell_length_c 22.371049
_cell_angle_alpha 90.000000
_cell_angle_beta 30.302817
_cell_angle_gamma 90.000000
_cell_volume 1798.199257
_symmetry_space_group_name_H-M "C 2/C"
_symmetry_group_IT_number 15
_symmetry_cell_setting 'monoclinic'
loop_
_space_group_symop_operation_xyz
x,y,z
-x,y,1/2-z
-x,-y,-z
x,-y,1/2+z
1/2+x,1/2+y,z
1/2-x,1/2+y,1/2-z
1/2-x,1/2-y,-z
1/2+x,1/2-y,1/2+z
loop_
_atom_site_type_symbol
_atom_site_label
_atom_site_fract_x
_atom_site_fract_y
_atom_site_fract_z
Si Si1 0.914996 0.958754 0.748889
Si Si2 0.333435 0.567536 0.117654
Si Si3 0.586358 0.972052 0.502470
Si Si4 0.364145 0.318164 0.470481
Si Si5 0.626514 0.191018 0.810561
O O1 0.868986 0.816447 0.742367
O O2 0.000000 0.912194 0.750000
O O3 0.761754 0.037266 0.872327
O O4 0.023755 0.066430 0.637246
O O5 0.337936 0.719617 0.152976
O O6 0.235167 0.444883 0.219434
O O7 0.500000 0.500000 0.000000
O O8 0.287738 0.603165 0.080556
O O9 0.536673 0.115731 0.574284
O O10 0.500000 0.000000 0.500000
O O11 0.542881 0.819742 0.565161
O O12 0.250000 0.250000 0.500000
#
# Coordination Sequence:
#
# PCOD9308301 Si02
#       5
#     8   8   8   8   8
#     4  12  28  50  74 113 162 207 266 326 396 473
#     4  12  27  49  79 115 155 208 270 326 398 469
#     4  12  27  46  78 113 152 206 264 323 394 464
#     4  12  28  50  80 112 157 211 267 323 395 472
#     4  12  28  45  79 111 156 207 266 328 394 477
#
# _framework density 22.244475999999999
#
# number of rings (size 3 to 8) (size 9 to 14) (size 15 to 20)
#    0.000    0.000    6.000    2.400    5.600    2.400 
#    0.000    0.000    0.000    0.000    0.000    0.000 
#    0.000    0.000    0.000    0.000    0.000    0.000 
#
# Total GULP energy -112018.075506 kJ/mol
# GULP energy per Si atom -5600.903775 kJ/mol
# Density = 2.219385 g / cm^3
# Si number density = 22.244476 Si / 1000 Ang^3
#
#
#
# Elastic Constant Matrix: (Units=GPa)
#
#
# Indices 1 2 3 4 5 6 
#
# 1 113.3050 20.6302 25.1310 -0.0001 11.8811 0.0000
# 2 20.6302 130.9643 47.4611 -0.0006 14.3063 0.0001
# 3 25.1310 47.4611 105.8670 -0.0010 11.2234 0.0003
# 4 -0.0001 -0.0006 -0.0010 48.2440 0.0001 1.1939
# 5 11.8811 14.3063 11.2234 0.0001 32.9007 0.0000
# 6 0.0000 0.0001 0.0003 1.1939 0.0000 40.9456
#
#
#
# Elastic Compliance Matrix: (Units=1/GPa)
#
#
# Indices 1 2 3 4 5 6 
#
# 1 0.009593 -0.000598 -0.001732 0.000000 -0.002613 0.000000
# 2 -0.000598 0.009385 -0.003793 0.000000 -0.002571 0.000000
# 3 -0.001732 -0.003793 0.011741 0.000000 -0.001730 0.000000
# 4 0.000000 0.000000 0.000000 0.020743 0.000000 -0.000605
# 5 -0.002613 -0.002571 -0.001730 0.000000 0.033047 0.000000
# 6 0.000000 0.000000 0.000000 -0.000605 0.000000 0.024440
#
#
# Mechanical properties :
#
#
# Convention : Reuss Voigt Hill
#
# Bulk Modulus (GPa) = 54.13314 59.62013 56.87663
# Shear Modulus (GPa) = 39.26116 41.54566 40.40341
#
# Velocity S-wave (km/s) = 4.20573 4.32636 4.26647
# Velocity P-wave (km/s) = 6.92622 7.19840 7.06362
#
# Compressibility (1/GPa) = 0.01847297
#
# Stress axis : x y z
#
# Youngs Moduli (GPa) = 104.24471 106.54957 85.17272
#
# Poissons Ratio (x) = 0.06371 0.14752
# Poissons Ratio (y) = 0.06233 0.32306
# Poissons Ratio (z) = 0.18056 0.40414
#
# Static dielectric constant tensor:
#      x y z
#    x 1.838240 0.000000 0.051150 
#    y 0.000000 1.814060 0.000000 
#    z 0.051150 0.000000 1.841050 
# 
# From -- ./inp_files/276705.got.cif
#   From: 2010.05.17/outbox.cif.g08.bks.cpg/sg15_139_cif.got.tgz:276705.got - 2010.06.03 18:47:42.
