data_PCOD9308333
_publ_section_title
;
Structure prediction by ZEFSAII (Michael W. Deem and Ramdas Pophale) SiO2 
 PCOD9308333
Probable space group: C 2/C
;
_chemical_formula_sum "Si O2"
_cell_formula_units_Z 32
_cell_length_a 12.148001
_cell_length_b 18.569179
_cell_length_c 7.360437
_cell_angle_alpha 90.000000
_cell_angle_beta 51.473893
_cell_angle_gamma 90.000000
_cell_volume 1298.936770
_symmetry_space_group_name_H-M "C 2/C"
_symmetry_group_IT_number 15
_symmetry_cell_setting 'monoclinic'
loop_
_space_group_symop_operation_xyz
x,y,z
-x,y,1/2-z
-x,-y,-z
x,-y,1/2+z
1/2+x,1/2+y,z
1/2-x,1/2+y,1/2-z
1/2-x,1/2-y,-z
1/2+x,1/2-y,1/2+z
loop_
_atom_site_type_symbol
_atom_site_label
_atom_site_fract_x
_atom_site_fract_y
_atom_site_fract_z
Si Si1 0.483963 0.802752 0.549356
Si Si2 0.222735 0.404729 0.221786
Si Si3 0.151707 0.951142 0.037165
Si Si4 0.828723 0.171473 0.267976
O O1 0.500000 0.796747 0.750000
O O2 0.565507 0.874647 0.400555
O O3 0.323682 0.806007 0.653393
O O4 0.566002 0.736203 0.376408
O O5 0.288337 0.406461 0.355045
O O6 0.242688 0.485163 0.124740
O O7 0.306057 0.353352 0.997459
O O8 0.000000 0.981790 0.250000
O O9 0.128650 0.897986 0.893330
#
# Coordination Sequence:
#
# PCOD9308333 Si02
#       4
#     8   8   8   8
#     4  12  27  51  78 115 157 204 254 318 381 457
#     4  12  27  49  79 112 153 202 258 313 382 456
#     4  12  27  49  78 116 157 203 253 318 384 456
#     4  12  28  51  79 115 155 205 256 316 385 453
#
# _framework density 24.635532000000001
#
# number of rings (size 3 to 8) (size 9 to 14) (size 15 to 20)
#    0.000    0.000    5.000    3.750    3.500    1.000 
#    4.500    0.000    0.000    0.000    0.000    0.000 
#    0.000    0.000    0.000    0.000    0.000    0.000 
#
# Total GULP energy -89889.188721 kJ/mol
# GULP energy per Si atom -5618.074295 kJ/mol
# Density = 2.457946 g / cm^3
# Si number density = 24.635532 Si / 1000 Ang^3
#
#
#
# Elastic Constant Matrix: (Units=GPa)
#
#
# Indices 1 2 3 4 5 6 
#
# 1 109.1232 34.5323 38.0743 0.0000 -3.2793 0.0000
# 2 34.5323 122.7032 51.0509 0.0000 -15.6074 0.0000
# 3 38.0743 51.0509 110.9369 0.0000 4.2354 0.0000
# 4 0.0000 0.0000 0.0000 27.4591 0.0000 2.8615
# 5 -3.2793 -15.6074 4.2354 0.0000 55.4588 0.0000
# 6 0.0000 0.0000 0.0000 2.8615 0.0000 25.9430
#
#
#
# Elastic Compliance Matrix: (Units=1/GPa)
#
#
# Indices 1 2 3 4 5 6 
#
# 1 0.010743 -0.001779 -0.002882 0.000000 0.000355 0.000000
# 2 -0.001779 0.010974 -0.004567 0.000000 0.003332 0.000000
# 3 -0.002882 -0.004567 0.012196 0.000000 -0.002387 0.000000
# 4 0.000000 0.000000 0.000000 0.036841 0.000000 -0.004064
# 5 0.000355 0.003332 -0.002387 0.000000 0.019172 0.000000
# 6 0.000000 0.000000 0.000000 -0.004064 0.000000 0.038994
#
#
# Mechanical properties :
#
#
# Convention : Reuss Voigt Hill
#
# Bulk Modulus (GPa) = 64.69321 65.56424 65.12873
# Shear Modulus (GPa) = 32.78056 36.37924 34.57990
#
# Velocity S-wave (km/s) = 3.65173 3.84695 3.75061
# Velocity P-wave (km/s) = 6.64058 6.81201 6.72684
#
# Compressibility (1/GPa) = 0.01545757
#
# Stress axis : x y z
#
# Youngs Moduli (GPa) = 93.08209 91.12203 81.99524
#
# Poissons Ratio (x) = 0.16214 0.23630
# Poissons Ratio (y) = 0.16563 0.37445
# Poissons Ratio (z) = 0.26825 0.41612
#
# Static dielectric constant tensor:
#      x y z
#    x 1.924360 0.000000 0.017370 
#    y 0.000000 1.918330 0.000000 
#    z 0.017370 0.000000 1.929310 
# 
# From -- ./inp_files/31619.got.cif
#   From: 2010.05.17/outbox.cif.g08.bks.cpg/sg15_16_cif.got.tgz:31619.got - 2010.06.03 18:47:42.
