data_PCOD9308568
_publ_section_title
;
Structure prediction by ZEFSAII (Michael W. Deem and Ramdas Pophale) SiO2 
 PCOD9308568
Probable space group: C 2/C
;
_chemical_formula_sum "Si O2"
_cell_formula_units_Z 64
_cell_length_a 20.467699
_cell_length_b 8.509054
_cell_length_c 27.322390
_cell_angle_alpha 90.000000
_cell_angle_beta 130.777414
_cell_angle_gamma 90.000000
_cell_volume 3603.377368
_symmetry_space_group_name_H-M "C 2/C"
_symmetry_group_IT_number 15
_symmetry_cell_setting 'monoclinic'
loop_
_space_group_symop_operation_xyz
x,y,z
-x,y,1/2-z
-x,-y,-z
x,-y,1/2+z
1/2+x,1/2+y,z
1/2-x,1/2+y,1/2-z
1/2-x,1/2-y,-z
1/2+x,1/2-y,1/2+z
loop_
_atom_site_type_symbol
_atom_site_label
_atom_site_fract_x
_atom_site_fract_y
_atom_site_fract_z
Si Si1 0.213245 0.100545 0.112321
Si Si2 0.131902 0.401120 0.340621
Si Si3 0.957823 0.482835 0.798960
Si Si4 0.153713 0.188397 0.760969
Si Si5 0.792568 0.900949 0.652223
Si Si6 0.163556 0.814156 0.151017
Si Si7 0.632057 0.901346 0.041614
Si Si8 0.960911 0.466872 0.910338
O O1 0.281306 0.002283 0.113435
O O2 0.269980 0.208343 0.177088
O O3 0.157573 0.219447 0.052954
O O4 0.162134 0.974227 0.119714
O O5 0.097600 0.424024 0.268099
O O6 0.153673 0.217714 0.355317
O O7 0.056367 0.473228 0.336392
O O8 0.930767 0.300241 0.777982
O O9 0.935832 0.521501 0.843985
O O10 0.174287 0.157770 0.714114
O O11 0.151544 0.028743 0.790958
O O12 0.740520 0.792270 0.665879
O O13 0.718507 0.994577 0.586401
O O14 0.078889 0.707238 0.102705
O O15 0.582778 0.928925 0.069233
O O16 0.563181 0.956859 0.968034
#
# Coordination Sequence:
#
# PCOD9308568 Si02
#       8
#     8   8   8   8   8   8   8   8
#     4   9  17  28  46  67  93 123 153 194 238 278
#     4   9  18  33  49  68  94 124 158 194 236 281
#     4   9  18  33  50  68  93 126 156 192 239 281
#     4   9  16  27  46  71  95 121 155 197 241 284
#     4   9  17  29  47  70  96 125 156 194 237 280
#     4   9  16  26  45  72  97 121 153 196 242 285
#     4   9  18  32  48  69  95 125 159 195 234 277
#     4   9  18  32  49  68  95 126 157 194 236 280
#
# _framework density 17.761113999999999
#
# number of rings (size 3 to 8) (size 9 to 14) (size 15 to 20)
#    0.000    3.000    0.000    0.750    0.000    7.500 
#    0.000    8.750    0.000    0.000    0.000    0.000 
#    0.000    0.000    0.000    0.000    0.000    0.000 
#
# Total GULP energy -178221.210550 kJ/mol
# GULP energy per Si atom -5569.412830 kJ/mol
# Density = 1.772069 g / cm^3
# Si number density = 17.761114 Si / 1000 Ang^3
#
#
#
# Elastic Constant Matrix: (Units=GPa)
#
#
# Indices 1 2 3 4 5 6 
#
# 1 38.2612 19.5863 6.5187 0.0000 12.5929 0.0000
# 2 19.5863 77.8753 1.4151 0.0000 9.2638 0.0000
# 3 6.5187 1.4151 16.9655 0.0000 4.6567 0.0000
# 4 0.0000 0.0000 0.0000 11.4272 0.0000 2.1075
# 5 12.5929 9.2638 4.6567 0.0000 16.1656 0.0000
# 6 0.0000 0.0000 0.0000 2.1075 0.0000 21.8571
#
#
#
# Elastic Compliance Matrix: (Units=1/GPa)
#
#
# Indices 1 2 3 4 5 6 
#
# 1 0.038873 -0.006760 -0.007736 0.000000 -0.024179 0.000000
# 2 -0.006760 0.014975 0.002452 0.000000 -0.004022 0.000000
# 3 -0.007736 0.002452 0.065632 0.000000 -0.014285 0.000000
# 4 0.000000 0.000000 0.000000 0.089095 0.000000 -0.008590
# 5 -0.024179 -0.004022 -0.014285 0.000000 0.087115 0.000000
# 6 0.000000 0.000000 0.000000 -0.008590 0.000000 0.046580
#
#
# Mechanical properties :
#
#
# Convention : Reuss Voigt Hill
#
# Bulk Modulus (GPa) = 10.48296 20.90470 15.69383
# Shear Modulus (GPa) = 12.55796 16.92877 14.74336
#
# Velocity S-wave (km/s) = 2.66192 3.09064 2.88426
# Velocity P-wave (km/s) = 3.91954 4.95293 4.46623
#
# Compressibility (1/GPa) = 0.09539294
#
# Stress axis : x y z
#
# Youngs Moduli (GPa) = 25.72496 66.77738 15.23652
#
# Poissons Ratio (x) = 0.45141 0.11787
# Poissons Ratio (y) = 0.17390 -0.03736
# Poissons Ratio (z) = 0.19900 -0.16376
#
# Static dielectric constant tensor:
#      x y z
#    x 1.620030 0.000000 0.022940 
#    y 0.000000 1.614990 0.000000 
#    z 0.022940 0.000000 1.600130 
# 
# From -- ./inp_files/300371.got.cif
#   From: 2010.05.17/outbox.cif.g08.bks.cpg/sg15_151_cif.got.tgz:300371.got - 2010.06.03 18:47:42.
