data_PCOD9308404
_publ_section_title
;
Structure prediction by ZEFSAII (Michael W. Deem and Ramdas Pophale) SiO2 
 PCOD9308404
Probable space group: C 2/C
;
_chemical_formula_sum "Si O2"
_cell_formula_units_Z 24
_cell_length_a 10.707757
_cell_length_b 10.821812
_cell_length_c 10.752733
_cell_angle_alpha 90.000000
_cell_angle_beta 50.871966
_cell_angle_gamma 90.000000
_cell_volume 966.567684
_symmetry_space_group_name_H-M "C 2/C"
_symmetry_group_IT_number 15
_symmetry_cell_setting 'monoclinic'
loop_
_space_group_symop_operation_xyz
x,y,z
-x,y,1/2-z
-x,-y,-z
x,-y,1/2+z
1/2+x,1/2+y,z
1/2-x,1/2+y,1/2-z
1/2-x,1/2-y,-z
1/2+x,1/2-y,1/2+z
loop_
_atom_site_type_symbol
_atom_site_label
_atom_site_fract_x
_atom_site_fract_y
_atom_site_fract_z
Si Si1 0.918121 0.678041 0.180640
Si Si2 0.643477 0.124226 0.557390
Si Si3 0.119323 0.913181 0.997439
O O1 0.732979 0.667090 0.335126
O O2 0.000000 0.615744 0.250000
O O3 0.930387 0.623966 0.035097
O O4 0.001722 0.810653 0.126691
O O5 0.500000 0.132894 0.750000
O O6 0.750000 0.250000 0.500000
O O7 0.767157 0.007520 0.495784
O O8 0.000000 0.000000 0.000000
#
# Coordination Sequence:
#
# PCOD9308404 Si02
#       3
#     8   8   8
#     4  12  29  53  80 123 170 219 277 343 424 489
#     4  12  28  51  86 125 164 220 281 347 416 492
#     4  12  29  50  86 122 169 217 284 346 414 502
#
# _framework density 24.830128999999999
#
# number of rings (size 3 to 8) (size 9 to 14) (size 15 to 20)
#    0.000    0.000    3.333    4.000    4.667    5.333 
#    0.000    0.000    0.000    0.000    0.000    0.000 
#    0.000    0.000    0.000    0.000    0.000    0.000 
#
# Total GULP energy -67019.821029 kJ/mol
# GULP energy per Si atom -5584.985086 kJ/mol
# Density = 2.477361 g / cm^3
# Si number density = 24.830129 Si / 1000 Ang^3
#
#
#
# Elastic Constant Matrix: (Units=GPa)
#
#
# Indices 1 2 3 4 5 6 
#
# 1 201.7801 81.4519 116.7895 0.0000 29.7527 0.0000
# 2 81.4519 212.7555 120.4734 0.0000 -21.2618 0.0000
# 3 116.7895 120.4734 128.9719 0.0000 4.9725 0.0000
# 4 0.0000 0.0000 0.0000 -9.1537 0.0000 -41.2771
# 5 29.7527 -21.2618 4.9725 0.0000 60.0926 0.0000
# 6 0.0000 0.0000 0.0000 -41.2771 0.0000 58.5772
#
#
#
# Elastic Compliance Matrix: (Units=1/GPa)
#
#
# Indices 1 2 3 4 5 6 
#
# 1 0.012160 0.002284 -0.012985 0.000000 -0.004138 0.000000
# 2 0.002284 0.011663 -0.013120 0.000000 0.004081 0.000000
# 3 -0.012985 -0.013120 0.031801 0.000000 -0.000844 0.000000
# 4 0.000000 0.000000 0.000000 -0.026151 0.000000 -0.018427
# 5 -0.004138 0.004081 -0.000844 0.000000 0.020204 0.000000
# 6 0.000000 0.000000 0.000000 -0.018427 0.000000 0.004086
#
#
# Mechanical properties :
#
#
# Convention : Reuss Voigt Hill
#
# Bulk Modulus (GPa) = 125.30338 131.21525 128.25931
# Shear Modulus (GPa) = 48.04616 36.88938 42.46777
#
# Velocity S-wave (km/s) = 4.40363 3.85862 4.14010
# Velocity P-wave (km/s) = 8.74241 8.53298 8.63833
#
# Compressibility (1/GPa) = 0.00798063
#
# Stress axis : x y z
#
# Youngs Moduli (GPa) = 82.23756 85.74121 31.44572
#
# Poissons Ratio (x) = -0.19585 0.40834
# Poissons Ratio (y) = -0.18785 0.41258
# Poissons Ratio (z) = 1.06789 1.12495
#
# Static dielectric constant tensor:
#      x y z
#    x 2.016610 0.000000 -0.055480 
#    y 0.000000 1.900900 0.000000 
#    z -0.055480 0.000000 2.140020 
# 
# From -- ./inp_files/26945.got.cif
#   From: 2010.05.17/outbox.cif.g08.bks.cpg/sg15_14_cif.got.tgz:26945.got - 2010.06.03 18:47:42.
