data_PCOD9308454
_publ_section_title
;
Structure prediction by ZEFSAII (Michael W. Deem and Ramdas Pophale) SiO2 
 PCOD9308454
Probable space group: C 2/C
;
_chemical_formula_sum "Si O2"
_cell_formula_units_Z 32
_cell_length_a 13.949053
_cell_length_b 8.558842
_cell_length_c 13.744684
_cell_angle_alpha 90.000000
_cell_angle_beta 53.988156
_cell_angle_gamma 90.000000
_cell_volume 1327.354411
_symmetry_space_group_name_H-M "C 2/C"
_symmetry_group_IT_number 15
_symmetry_cell_setting 'monoclinic'
loop_
_space_group_symop_operation_xyz
x,y,z
-x,y,1/2-z
-x,-y,-z
x,-y,1/2+z
1/2+x,1/2+y,z
1/2-x,1/2+y,1/2-z
1/2-x,1/2-y,-z
1/2+x,1/2-y,1/2+z
loop_
_atom_site_type_symbol
_atom_site_label
_atom_site_fract_x
_atom_site_fract_y
_atom_site_fract_z
Si Si1 0.585461 0.307333 0.899713
Si Si2 0.588716 0.930496 0.030233
Si Si3 0.205549 0.935236 0.208290
Si Si4 0.891202 0.744110 0.395846
O O1 0.467203 0.239096 0.919083
O O2 0.639027 0.466099 0.828314
O O3 0.692167 0.182405 0.817083
O O4 0.562648 0.312574 0.029293
O O5 0.580675 0.059551 0.119384
O O6 0.720470 0.945870 0.906682
O O7 0.500000 0.000000 0.000000
O O8 0.110293 0.831517 0.206127
O O9 0.750000 0.750000 0.500000
#
# Coordination Sequence:
#
# PCOD9308454 Si02
#       4
#     8   8   8   8
#     4   9  16  29  52  83 113 150 188 231 288 339
#     4   7  13  27  49  76 111 149 186 232 281 331
#     4   9  16  29  52  83 113 150 188 231 288 339
#     4   7  13  27  49  76 111 149 186 232 281 331
#
# _framework density 24.108104999999998
#
# number of rings (size 3 to 8) (size 9 to 14) (size 15 to 20)
#    0.000    5.000    0.000    0.000    0.000    0.000 
#    0.000    2.500    0.000  121.500    0.000   35.000 
#    0.000    0.000    0.000   63.000    0.000    0.000 
#
# Total GULP energy -89130.583484 kJ/mol
# GULP energy per Si atom -5570.661468 kJ/mol
# Density = 2.405323 g / cm^3
# Si number density = 24.108105 Si / 1000 Ang^3
#
#
#
# Elastic Constant Matrix: (Units=GPa)
#
#
# Indices 1 2 3 4 5 6 
#
# 1 74.5341 33.2676 -0.9918 0.0000 -7.1518 0.0000
# 2 33.2676 86.5777 54.3051 0.0000 7.6976 0.0000
# 3 -0.9918 54.3051 113.5874 0.0000 12.5486 0.0000
# 4 0.0000 0.0000 0.0000 38.2169 0.0000 -7.6594
# 5 -7.1518 7.6976 12.5486 0.0000 13.4845 0.0000
# 6 0.0000 0.0000 0.0000 -7.6594 0.0000 54.0139
#
#
#
# Elastic Compliance Matrix: (Units=1/GPa)
#
#
# Indices 1 2 3 4 5 6 
#
# 1 0.019822 -0.011402 0.004173 0.000000 0.013139 0.000000
# 2 -0.011402 0.023122 -0.010062 0.000000 -0.009883 0.000000
# 3 0.004173 -0.010062 0.014235 0.000000 -0.005290 0.000000
# 4 0.000000 0.000000 0.000000 0.026932 0.000000 0.003819
# 5 0.013139 -0.009883 -0.005290 0.000000 0.091692 0.000000
# 6 0.000000 0.000000 0.000000 0.003819 0.000000 0.019055
#
#
# Mechanical properties :
#
#
# Convention : Reuss Voigt Hill
#
# Bulk Modulus (GPa) = 44.25510 49.76233 47.00871
# Shear Modulus (GPa) = 21.09942 33.68428 27.39185
#
# Velocity S-wave (km/s) = 2.96159 3.74199 3.37443
# Velocity P-wave (km/s) = 5.48557 6.27345 5.89269
#
# Compressibility (1/GPa) = 0.02259627
#
# Stress axis : x y z
#
# Youngs Moduli (GPa) = 50.44834 43.24949 70.24838
#
# Poissons Ratio (x) = 0.49314 -0.29314
# Poissons Ratio (y) = 0.57523 0.70684
# Poissons Ratio (z) = -0.21052 0.43518
#
# Static dielectric constant tensor:
#      x y z
#    x 1.941320 0.000000 -0.045080 
#    y 0.000000 2.123730 0.000000 
#    z -0.045080 0.000000 2.207640 
# 
# From -- ./inp_files/149788.got.cif
#   From: 2010.05.17/outbox.cif.g08.bks.cpg/sg15_75_cif.got.tgz:149788.got - 2010.06.03 18:47:42.
