data_PCOD9308531
_publ_section_title
;
Structure prediction by ZEFSAII (Michael W. Deem and Ramdas Pophale) SiO2 
 PCOD9308531
Probable space group: C 2/C
;
_chemical_formula_sum "Si O2"
_cell_formula_units_Z 40
_cell_length_a 14.840945
_cell_length_b 9.273016
_cell_length_c 12.156511
_cell_angle_alpha 90.000000
_cell_angle_beta 119.462799
_cell_angle_gamma 90.000000
_cell_volume 1456.624811
_symmetry_space_group_name_H-M "C 2/C"
_symmetry_group_IT_number 15
_symmetry_cell_setting 'monoclinic'
loop_
_space_group_symop_operation_xyz
x,y,z
-x,y,1/2-z
-x,-y,-z
x,-y,1/2+z
1/2+x,1/2+y,z
1/2-x,1/2+y,1/2-z
1/2-x,1/2-y,-z
1/2+x,1/2-y,1/2+z
loop_
_atom_site_type_symbol
_atom_site_label
_atom_site_fract_x
_atom_site_fract_y
_atom_site_fract_z
Si Si1 0.272647 0.019349 0.166513
Si Si2 0.933358 0.141042 0.927269
Si Si3 0.870030 0.735785 0.970410
Si Si4 0.327147 0.904988 0.933800
Si Si5 0.115682 0.761791 0.788559
O O1 0.218781 0.144789 0.063027
O O2 0.332808 0.092592 0.301891
O O3 0.178743 0.926154 0.166377
O O4 0.344863 0.899014 0.153109
O O5 0.600566 0.235043 0.005036
O O6 0.022169 0.217303 0.908723
O O7 0.000000 0.000000 0.000000
O O8 0.856811 0.567013 0.979840
O O9 0.880347 0.752730 0.842729
O O10 0.206695 0.868067 0.882707
O O11 0.000000 0.803649 0.750000
#
# Coordination Sequence:
#
# PCOD9308531 Si02
#       5
#     8   8   8   8   8
#     4   8  16  29  45  65  91 122 154 187 226 274
#     4   9  16  27  46  72  94 116 152 196 232 266
#     4   9  16  28  48  70  90 119 158 197 228 265
#     4   9  16  28  46  68  91 119 155 190 224 272
#     4   9  17  30  46  67  95 128 156 186 230 277
#
# _framework density 27.460743000000001
#
# number of rings (size 3 to 8) (size 9 to 14) (size 15 to 20)
#    0.000    3.200    0.000    1.800    0.000    0.000 
#    0.000    5.000    0.000    0.000    0.000   43.400 
#    0.000    0.000    0.000    0.000    0.000    0.000 
#
# Total GULP energy -111675.169978 kJ/mol
# GULP energy per Si atom -5583.758499 kJ/mol
# Density = 2.739824 g / cm^3
# Si number density = 27.460743 Si / 1000 Ang^3
#
#
#
# Elastic Constant Matrix: (Units=GPa)
#
#
# Indices 1 2 3 4 5 6 
#
# 1 64.0522 59.0890 14.7098 0.0000 15.9400 0.0000
# 2 59.0890 218.8062 40.8199 0.0000 23.7706 0.0000
# 3 14.7098 40.8199 72.5688 0.0000 30.7971 0.0000
# 4 0.0000 0.0000 0.0000 36.2626 0.0000 -5.4150
# 5 15.9400 23.7706 30.7971 0.0000 35.8855 0.0000
# 6 0.0000 0.0000 0.0000 -5.4150 0.0000 35.7616
#
#
#
# Elastic Compliance Matrix: (Units=1/GPa)
#
#
# Indices 1 2 3 4 5 6 
#
# 1 0.022204 -0.005502 0.001939 0.000000 -0.007883 0.000000
# 2 -0.005502 0.006517 -0.002762 0.000000 0.000497 0.000000
# 3 0.001939 -0.002762 0.022853 0.000000 -0.018644 0.000000
# 4 0.000000 0.000000 0.000000 0.028215 0.000000 0.004272
# 5 -0.007883 0.000497 -0.018644 0.000000 0.047040 0.000000
# 6 0.000000 0.000000 0.000000 0.004272 0.000000 0.028610
#
#
# Mechanical properties :
#
#
# Convention : Reuss Voigt Hill
#
# Bulk Modulus (GPa) = 25.68979 64.96275 45.32627
# Shear Modulus (GPa) = 27.61496 37.63581 32.62538
#
# Velocity S-wave (km/s) = 3.17458 3.70609 3.45058
# Velocity P-wave (km/s) = 4.77627 6.48239 5.69360
#
# Compressibility (1/GPa) = 0.03892597
#
# Stress axis : x y z
#
# Youngs Moduli (GPa) = 45.03701 153.44013 43.75841
#
# Poissons Ratio (x) = 0.84417 -0.08486
# Poissons Ratio (y) = 0.24778 0.12084
# Poissons Ratio (z) = -0.08734 0.42373
#
# Static dielectric constant tensor:
#      x y z
#    x 2.265540 0.000000 -0.136710 
#    y 0.000000 2.087890 0.000000 
#    z -0.136710 0.000000 2.302530 
# 
# From -- ./inp_files/150559.got.cif
#   From: 2010.05.17/outbox.cif.g08.bks.cpg/sg15_76_cif.got.tgz:150559.got - 2010.06.03 18:47:42.
