data_PCOD9308757
_publ_section_title
;
Structure prediction by ZEFSAII (Michael W. Deem and Ramdas Pophale) SiO2 
 PCOD9308757
Probable space group: C 2/C
;
_chemical_formula_sum "Si O2"
_cell_formula_units_Z 18
_cell_length_a 21.000000
_cell_length_b 18.000000
_cell_length_c 15.000000
_cell_angle_alpha 90.000000
_cell_angle_beta 160.000000
_cell_angle_gamma 90.000000
_cell_volume 1939.254213
_symmetry_space_group_name_H-M "C 2/C"
_symmetry_group_IT_number 15
_symmetry_cell_setting 'monoclinic'
loop_
_space_group_symop_operation_xyz
x,y,z
-x,y,1/2-z
-x,-y,-z
x,-y,1/2+z
1/2+x,1/2+y,z
1/2-x,1/2+y,1/2-z
1/2-x,1/2-y,-z
1/2+x,1/2-y,1/2+z
loop_
_atom_site_type_symbol
_atom_site_label
_atom_site_fract_x
_atom_site_fract_y
_atom_site_fract_z
Si Si1 0.218071 0.466836 0.688168
Si Si2 0.866470 0.032400 0.702885
Si Si3 0.371506 0.826849 0.669318
Si Si4 0.500000 0.598294 0.250000
Si Si5 0.108157 0.384354 0.149713
O O1 0.242336 0.501732 0.621605
O O2 0.165260 0.537859 0.678765
O O3 0.054973 0.406460 0.493130
O O4 0.428174 0.441141 0.992212
O O5 0.762778 0.099783 0.515074
O O6 0.908387 0.959348 0.699636
O O7 0.500000 0.829035 0.750000
O O8 0.250000 0.750000 0.500000
O O9 0.502115 0.836406 0.931097
O O10 0.686640 0.639546 0.538150
#
# Coordination Sequence:
#
# PCOD9308757 Si02
#       5
#     8   8   8   4   8
#     4   9  18  33  61  88 124 152 189 260 312 357
#     4  10  19  35  57  94 124 153 198 246 314 352
#     4  12  26  39  59  87 126 167 202 241 287 367
#     4  10  22  34  64  90 122 154 192 262 312 354
#     4  10  20  37  56  89 120 154 202 248 308 352
#
# _framework density 9.2819190000000003
#
# number of rings (size 3 to 8) (size 9 to 14) (size 15 to 20)
#    0.000    1.778    2.222    4.000    4.667    0.000 
#    0.000    0.000    0.000    1.333    0.000    0.000 
#    0.000    0.000    0.000    0.000    0.000    0.000 
#
# Total GULP energy -100266.669434 kJ/mol
# GULP energy per Si atom -5570.370524 kJ/mol
# Density = 0.926079 g / cm^3
# Si number density = 9.281919 Si / 1000 Ang^3
#
#
#
# Elastic Constant Matrix: (Units=GPa)
#
#
# Indices 1 2 3 4 5 6 
#
# 1 97.4408 6.6086 35.1721 0.0000 14.5752 0.0000
# 2 6.6086 45.9464 41.7394 0.0000 -4.6317 0.0000
# 3 35.1721 41.7394 171.6995 0.0000 -11.0128 0.0000
# 4 0.0000 0.0000 0.0000 35.5609 0.0000 -1.0989
# 5 14.5752 -4.6317 -11.0128 0.0000 37.3838 0.0000
# 6 0.0000 0.0000 0.0000 -1.0989 0.0000 14.5554
#
#
#
# Elastic Compliance Matrix: (Units=1/GPa)
#
#
# Indices 1 2 3 4 5 6 
#
# 1 0.012124 0.000355 -0.002925 0.000000 -0.005545 0.000000
# 2 0.000355 0.028025 -0.006800 0.000000 0.001331 0.000000
# 3 -0.002925 -0.006800 0.008252 0.000000 0.002729 0.000000
# 4 0.000000 0.000000 0.000000 0.028187 0.000000 0.002128
# 5 -0.005545 0.001331 0.002729 0.000000 0.029880 0.000000
# 6 0.000000 0.000000 0.000000 0.002128 0.000000 0.068864
#
#
# Mechanical properties :
#
#
# Convention : Reuss Voigt Hill
#
# Bulk Modulus (GPa) = 33.71655 53.56966 43.64311
# Shear Modulus (GPa) = 24.51479 32.93779 28.72629
#
# Velocity S-wave (km/s) = 3.63790 4.21681 3.93801
# Velocity P-wave (km/s) = 5.98730 7.25454 6.65117
#
# Compressibility (1/GPa) = 0.02965903
#
# Stress axis : x y z
#
# Youngs Moduli (GPa) = 82.48165 35.68234 121.19003
#
# Poissons Ratio (x) = -0.01266 0.35453
# Poissons Ratio (y) = -0.02927 0.82411
# Poissons Ratio (z) = 0.24129 0.24264
#
# Static dielectric constant tensor:
#      x y z
#    x 1.707060 0.000000 -0.019860 
#    y 0.000000 1.609620 0.000000 
#    z -0.019860 0.000000 1.729960 
# 
# From -- ./inp_files/55694.got.cif
#   From: 2010.05.17/outbox.ucp.g08.bks.cvg/sg15_28_cif.got.tgz:55694.got - 2010.06.11 12:40:34.
