data_PCOD9308211
_publ_section_title
;
Structure prediction by ZEFSAII (Michael W. Deem and Ramdas Pophale) SiO2 
 PCOD9308211
Probable space group: C 2/C
;
_chemical_formula_sum "Si O2"
_cell_formula_units_Z 32
_cell_length_a 9.647935
_cell_length_b 22.334027
_cell_length_c 5.381834
_cell_angle_alpha 90.000000
_cell_angle_beta 75.653098
_cell_angle_gamma 90.000000
_cell_volume 1123.496588
_symmetry_space_group_name_H-M "C 2/C"
_symmetry_group_IT_number 15
_symmetry_cell_setting 'monoclinic'
loop_
_space_group_symop_operation_xyz
x,y,z
-x,y,1/2-z
-x,-y,-z
x,-y,1/2+z
1/2+x,1/2+y,z
1/2-x,1/2+y,1/2-z
1/2-x,1/2-y,-z
1/2+x,1/2-y,1/2+z
loop_
_atom_site_type_symbol
_atom_site_label
_atom_site_fract_x
_atom_site_fract_y
_atom_site_fract_z
Si Si1 0.597813 0.384001 0.398972
Si Si2 0.181463 0.188428 0.443056
Si Si3 0.693715 0.037752 0.432220
Si Si4 0.073525 0.663026 0.474906
O O1 0.500000 0.422544 0.250000
O O2 0.486239 0.328991 0.502662
O O3 0.342088 0.426181 0.915064
O O4 0.719103 0.358769 0.151728
O O5 0.250000 0.250000 0.500000
O O6 0.261271 0.179872 0.145892
O O7 0.578109 0.091219 0.484652
O O8 0.682746 0.995979 0.677822
O O9 0.000000 0.681489 0.250000
O O10 0.000000 0.689336 0.750000
#
# Coordination Sequence:
#
# PCOD9308211 Si02
#       4
#     8   8   8   8
#     4   8  22  45  76 119 152 192 277 315 375 488
#     4   9  21  47  81 108 159 202 258 322 403 441
#     4  12  26  49  79 113 159 212 254 330 401 447
#     4  12  27  48  78 114 162 203 271 319 380 493
#
# _framework density 28.482506000000001
#
# number of rings (size 3 to 8) (size 9 to 14) (size 15 to 20)
#    1.500    0.000    0.000    4.500    3.500    5.000 
#    0.000    5.000    5.500    0.000    0.000    0.000 
#    0.000    0.000    0.000    0.000    0.000    0.000 
#
# Total GULP energy -89383.070101 kJ/mol
# GULP energy per Si atom -5586.441881 kJ/mol
# Density = 2.841768 g / cm^3
# Si number density = 28.482506 Si / 1000 Ang^3
#
#
#
# Elastic Constant Matrix: (Units=GPa)
#
#
# Indices 1 2 3 4 5 6 
#
# 1 127.0652 20.2124 48.3077 0.0000 -7.2221 0.0000
# 2 20.2124 100.9898 44.8179 0.0000 -1.9623 0.0000
# 3 48.3077 44.8179 240.2868 0.0000 -7.5962 0.0000
# 4 0.0000 0.0000 0.0000 43.0592 0.0000 4.4113
# 5 -7.2221 -1.9623 -7.5962 0.0000 55.0413 0.0000
# 6 0.0000 0.0000 0.0000 4.4113 0.0000 52.4100
#
#
#
# Elastic Compliance Matrix: (Units=1/GPa)
#
#
# Indices 1 2 3 4 5 6 
#
# 1 0.008664 -0.001043 -0.001519 0.000000 0.000890 0.000000
# 2 -0.001043 0.010922 -0.001827 0.000000 0.000000 0.000000
# 3 -0.001519 -0.001827 0.004821 0.000000 0.000401 0.000000
# 4 0.000000 0.000000 0.000000 0.023426 0.000000 -0.001972
# 5 0.000890 0.000000 0.000401 0.000000 0.018340 0.000000
# 6 0.000000 0.000000 0.000000 -0.001972 0.000000 0.019246
#
#
# Mechanical properties :
#
#
# Convention : Reuss Voigt Hill
#
# Bulk Modulus (GPa) = 63.98852 77.22419 70.60636
# Shear Modulus (GPa) = 50.29852 53.76901 52.03377
#
# Velocity S-wave (km/s) = 4.20687 4.34959 4.27882
# Velocity P-wave (km/s) = 6.79056 7.23857 7.01814
#
# Compressibility (1/GPa) = 0.01562780
#
# Stress axis : x y z
#
# Youngs Moduli (GPa) = 115.42035 91.56112 207.44072
#
# Poissons Ratio (x) = 0.09545 0.31515
# Poissons Ratio (y) = 0.12033 0.37910
# Poissons Ratio (z) = 0.17535 0.16733
#
# Static dielectric constant tensor:
#      x y z
#    x 2.581710 0.000000 0.070650 
#    y 0.000000 2.247940 0.000000 
#    z 0.070650 0.000000 2.425520 
# 
# From -- ./inp_files/7789.got.cif
#   From: 2010.05.17/outbox.cif.g08.bks.cpg/sg15_4_cif.got.tgz:7789.got - 2010.06.03 18:47:42.
