data_PCOD9308853
_publ_section_title
;
Structure prediction by ZEFSAII (Michael W. Deem and Ramdas Pophale) SiO2 
 PCOD9308853
Probable space group: C 2/C
;
_chemical_formula_sum "Si O2"
_cell_formula_units_Z 32
_cell_length_a 24.000000
_cell_length_b 21.000000
_cell_length_c 9.000000
_cell_angle_alpha 90.000000
_cell_angle_beta 50.000000
_cell_angle_gamma 90.000000
_cell_volume 3474.777594
_symmetry_space_group_name_H-M "C 2/C"
_symmetry_group_IT_number 15
_symmetry_cell_setting 'monoclinic'
loop_
_space_group_symop_operation_xyz
x,y,z
-x,y,1/2-z
-x,-y,-z
x,-y,1/2+z
1/2+x,1/2+y,z
1/2-x,1/2+y,1/2-z
1/2-x,1/2-y,-z
1/2+x,1/2-y,1/2+z
loop_
_atom_site_type_symbol
_atom_site_label
_atom_site_fract_x
_atom_site_fract_y
_atom_site_fract_z
Si Si1 0.236130 0.055157 0.776379
Si Si2 0.771733 0.078212 0.063294
Si Si3 0.191715 0.707058 0.188507
Si Si4 0.349772 0.728615 0.447856
Si Si5 0.070020 0.130444 0.725180
Si Si6 0.083829 0.280200 0.635288
Si Si7 0.808176 0.671879 0.804227
Si Si8 0.574857 0.612336 0.070385
O O1 0.244261 0.066497 0.585200
O O2 0.290895 0.100580 0.776622
O O3 0.151538 0.074953 0.953891
O O4 0.248398 0.982902 0.805252
O O5 0.857519 0.091214 0.935739
O O6 0.730769 0.143289 0.176371
O O7 0.165256 0.754888 0.357754
O O8 0.120526 0.689326 0.216837
O O9 0.250000 0.750000 0.000000
O O10 0.274735 0.695502 0.523853
O O11 0.354158 0.797382 0.361156
O O12 0.413017 0.675869 0.347179
O O13 0.082592 0.204122 0.659734
O O14 0.000000 0.108833 0.750000
O O15 0.063376 0.127201 0.915331
O O16 0.144560 0.296238 0.408115
O O17 0.000000 0.299865 0.750000
O O18 0.500000 0.579737 0.250000
#
# Coordination Sequence:
#
# PCOD9308853 Si02
#       8
#     8   8   8   8   8   8   8   8
#     4  10  23  39  56  82 113 156 199 236 284 349
#     4  11  22  38  60  82 115 154 200 241 281 348
#     4  12  18  38  61  84 116 149 191 242 293 341
#     4  10  20  31  58  84 112 153 188 239 296 331
#     4  10  21  35  55  84 115 156 197 232 282 348
#     4  11  21  35  60  88 114 147 190 239 298 351
#     4  10  20  37  52  84 118 143 191 244 288 343
#     4  10  21  37  53  82 126 157 186 239 289 342
#
# _framework density 9.2092220000000005
#
# number of rings (size 3 to 8) (size 9 to 14) (size 15 to 20)
#    0.000    1.500    5.000    0.750    5.250    1.500 
#    0.000    2.500    0.000    0.750    0.000    0.000 
#    0.000    0.000    0.000    0.000    0.000    0.000 
#
# Total GULP energy -178150.914127 kJ/mol
# GULP energy per Si atom -5567.216066 kJ/mol
# Density = 0.918826 g / cm^3
# Si number density = 9.209222 Si / 1000 Ang^3
#
#
#
# Elastic Constant Matrix: (Units=GPa)
#
#
# Indices 1 2 3 4 5 6 
#
# 1 70.1296 9.1841 -28.5081 0.0000 -3.6685 0.0000
# 2 9.1841 61.6638 -2.2665 0.0000 -8.1089 0.0000
# 3 -28.5081 -2.2665 -7.8076 0.0000 -4.7411 0.0000
# 4 0.0000 0.0000 0.0000 19.6234 0.0000 3.7935
# 5 -3.6685 -8.1089 -4.7411 0.0000 12.5448 0.0000
# 6 0.0000 0.0000 0.0000 3.7935 0.0000 24.9899
#
#
#
# Elastic Compliance Matrix: (Units=1/GPa)
#
#
# Indices 1 2 3 4 5 6 
#
# 1 0.006539 -0.002578 -0.018933 0.000000 -0.006910 0.000000
# 2 -0.002578 0.017857 -0.001887 0.000000 0.010075 0.000000
# 3 -0.018933 -0.001887 -0.044165 0.000000 -0.023448 0.000000
# 4 0.000000 0.000000 0.000000 0.052500 0.000000 -0.007970
# 5 -0.006910 0.010075 -0.023448 0.000000 0.075344 0.000000
# 6 0.000000 0.000000 0.000000 -0.007970 0.000000 0.041226
#
#
# Mechanical properties :
#
#
# Convention : Reuss Voigt Hill
#
# Bulk Modulus (GPa) = -15.02293 8.97831 -3.02231
# Shear Modulus (GPa) = 28.75059 21.13672 24.94366
#
# Velocity S-wave (km/s) = 3.95519 3.39128 3.68404
# Velocity P-wave (km/s) = 3.56145 4.49662 4.05607
#
# Compressibility (1/GPa) = -0.06656492
#
# Stress axis : x y z
#
# Youngs Moduli (GPa) = 152.92188 56.00188 -22.64253
#
# Poissons Ratio (x) = 0.14440 -0.42868
# Poissons Ratio (y) = 0.39431 -0.04272
# Poissons Ratio (z) = 2.89522 0.10567
#
# Static dielectric constant tensor:
#      x y z
#    x 1.657810 0.000000 0.037510 
#    y 0.000000 1.657430 0.000000 
#    z 0.037510 0.000000 1.676970 
# 
# From -- ./inp_files/63402.got.cif
#   From: 2010.05.17/outbox.ucp.g08.bks.cvg/sg15_32_cif.got.tgz:63402.got - 2010.06.11 12:40:34.
