data_PCOD9308436
_publ_section_title
;
Structure prediction by ZEFSAII (Michael W. Deem and Ramdas Pophale) SiO2 
 PCOD9308436
Probable space group: C 2/C
;
_chemical_formula_sum "Si O2"
_cell_formula_units_Z 24
_cell_length_a 18.291821
_cell_length_b 5.144321
_cell_length_c 19.326553
_cell_angle_alpha 90.000000
_cell_angle_beta 149.830912
_cell_angle_gamma 90.000000
_cell_volume 913.948615
_symmetry_space_group_name_H-M "C 2/C"
_symmetry_group_IT_number 15
_symmetry_cell_setting 'monoclinic'
loop_
_space_group_symop_operation_xyz
x,y,z
-x,y,1/2-z
-x,-y,-z
x,-y,1/2+z
1/2+x,1/2+y,z
1/2-x,1/2+y,1/2-z
1/2-x,1/2-y,-z
1/2+x,1/2-y,1/2+z
loop_
_atom_site_type_symbol
_atom_site_label
_atom_site_fract_x
_atom_site_fract_y
_atom_site_fract_z
Si Si1 0.090829 0.748951 0.095987
Si Si2 0.500000 0.147193 0.750000
Si Si3 0.835835 0.987518 0.710636
Si Si4 0.250000 0.250000 0.000000
O O1 0.120036 0.785262 0.200924
O O2 0.241352 0.712588 0.178454
O O3 0.000000 0.500000 0.000000
O O4 0.000000 0.000000 0.000000
O O5 0.477083 0.344351 0.795447
O O6 0.637389 0.964680 0.873899
O O7 0.749307 0.090488 0.573900
#
# Coordination Sequence:
#
# PCOD9308436 Si02
#       4
#     8   4   8   4
#     4  12  30  53  89 126 179 238 303 380 454 548
#     4  12  30  56  88 136 182 242 306 382 466 554
#     4  12  30  55  86 132 179 238 314 378 469 546
#     4  12  30  52  90 128 178 240 300 382 460 552
#
# _framework density 26.259682000000002
#
# number of rings (size 3 to 8) (size 9 to 14) (size 15 to 20)
#    0.000    0.000    0.000    6.000   23.333    0.000 
#    0.000    0.000    0.000    0.000    0.000    0.000 
#    0.000    0.000    0.000    0.000    0.000    0.000 
#
# Total GULP energy -66953.831133 kJ/mol
# GULP energy per Si atom -5579.485928 kJ/mol
# Density = 2.619991 g / cm^3
# Si number density = 26.259682 Si / 1000 Ang^3
#
#
#
# Elastic Constant Matrix: (Units=GPa)
#
#
# Indices 1 2 3 4 5 6 
#
# 1 149.4202 66.1592 44.5855 0.0004 -7.8478 0.0010
# 2 66.1592 170.3859 50.6163 0.0031 -9.4489 0.0050
# 3 44.5855 50.6163 107.5188 0.0003 -52.8625 0.0008
# 4 0.0004 0.0031 0.0003 53.2101 0.0003 -1.7352
# 5 -7.8478 -9.4489 -52.8625 0.0003 58.2703 -0.0001
# 6 0.0010 0.0050 0.0008 -1.7352 -0.0001 65.6755
#
#
#
# Elastic Compliance Matrix: (Units=1/GPa)
#
#
# Indices 1 2 3 4 5 6 
#
# 1 0.008758 -0.002419 -0.003802 0.000000 -0.002661 0.000000
# 2 -0.002419 0.007853 -0.004022 0.000000 -0.002701 -0.000001
# 3 -0.003802 -0.004022 0.022020 0.000000 0.018812 0.000000
# 4 0.000000 0.000000 0.000000 0.018810 0.000000 0.000497
# 5 -0.002661 -0.002701 0.018812 0.000000 0.033431 0.000000
# 6 0.000000 -0.000001 0.000000 0.000497 0.000000 0.015240
#
#
# Mechanical properties :
#
#
# Convention : Reuss Voigt Hill
#
# Bulk Modulus (GPa) = 55.10865 83.33856 69.22361
# Shear Modulus (GPa) = 37.69466 53.16210 45.42838
#
# Velocity S-wave (km/s) = 3.79285 4.50430 4.16380
# Velocity P-wave (km/s) = 6.34134 7.67182 7.03809
#
# Compressibility (1/GPa) = 0.01814597
#
# Stress axis : x y z
#
# Youngs Moduli (GPa) = 114.17924 127.33488 45.41423
#
# Poissons Ratio (x) = 0.30802 0.17265
# Poissons Ratio (y) = 0.27620 0.18265
# Poissons Ratio (z) = 0.43406 0.51214
#
# Static dielectric constant tensor:
#      x y z
#    x 2.128250 0.000000 0.142480 
#    y 0.000000 2.036200 0.000000 
#    z 0.142480 0.000000 2.101040 
# 
# From -- ./inp_files/53117.got.cif
#   From: 2010.05.17/outbox.cif.g08.bks.cpg/sg15_27_cif.got.tgz:53117.got - 2010.06.03 18:47:42.
