data_PCOD9308366
_publ_section_title
;
Structure prediction by ZEFSAII (Michael W. Deem and Ramdas Pophale) SiO2 
 PCOD9308366
Probable space group: C 2/C
;
_chemical_formula_sum "Si O2"
_cell_formula_units_Z 36
_cell_length_a 17.352044
_cell_length_b 8.619999
_cell_length_c 17.451368
_cell_angle_alpha 90.000000
_cell_angle_beta 33.370252
_cell_angle_gamma 90.000000
_cell_volume 1435.778020
_symmetry_space_group_name_H-M "C 2/C"
_symmetry_group_IT_number 15
_symmetry_cell_setting 'monoclinic'
loop_
_space_group_symop_operation_xyz
x,y,z
-x,y,1/2-z
-x,-y,-z
x,-y,1/2+z
1/2+x,1/2+y,z
1/2-x,1/2+y,1/2-z
1/2-x,1/2-y,-z
1/2+x,1/2-y,1/2+z
loop_
_atom_site_type_symbol
_atom_site_label
_atom_site_fract_x
_atom_site_fract_y
_atom_site_fract_z
Si Si1 0.225755 0.565793 0.017240
Si Si2 0.668956 0.132322 0.232269
Si Si3 0.000000 0.866555 0.750000
Si Si4 0.997126 0.371391 0.390670
Si Si5 0.989645 0.825012 0.480792
O O1 0.369315 0.472665 0.884115
O O2 0.250000 0.750000 0.000000
O O3 0.161679 0.551670 0.155117
O O4 0.117432 0.490617 0.047765
O O5 0.564310 0.271886 0.340637
O O6 0.622768 0.980125 0.317814
O O7 0.823525 0.197055 0.113548
O O8 0.966926 0.754920 0.704875
O O9 0.942138 0.275954 0.508611
O O10 0.000000 0.000000 0.500000
#
# Coordination Sequence:
#
# PCOD9308366 Si02
#       5
#     8   8   4   8   8
#     4  12  29  49  83 123 170 226 288 354 434 518
#     4  12  27  52  74 122 163 224 284 352 429 505
#     4  12  28  48  86 120 172 224 290 348 442 514
#     4  12  27  51  83 123 171 224 289 354 429 526
#     4  12  29  48  84 118 171 226 285 355 436 513
#
# _framework density 25.073512999999998
#
# number of rings (size 3 to 8) (size 9 to 14) (size 15 to 20)
#    0.000    0.000    2.222    5.333   15.556    0.000 
#    0.000    0.000    0.000    0.000    0.000    0.000 
#    0.000    0.000    0.000    0.000    0.000    0.000 
#
# Total GULP energy -100723.576045 kJ/mol
# GULP energy per Si atom -5595.754225 kJ/mol
# Density = 2.501644 g / cm^3
# Si number density = 25.073513 Si / 1000 Ang^3
#
#
#
# Elastic Constant Matrix: (Units=GPa)
#
#
# Indices 1 2 3 4 5 6 
#
# 1 104.1035 59.8745 38.3905 0.0000 1.9171 0.0000
# 2 59.8745 188.6890 93.3267 0.0000 -6.6316 0.0000
# 3 38.3905 93.3267 169.9297 0.0000 -19.1541 0.0000
# 4 0.0000 0.0000 0.0000 58.2344 0.0000 5.1248
# 5 1.9171 -6.6316 -19.1541 0.0000 34.0187 0.0000
# 6 0.0000 0.0000 0.0000 5.1248 0.0000 54.9506
#
#
#
# Elastic Compliance Matrix: (Units=1/GPa)
#
#
# Indices 1 2 3 4 5 6 
#
# 1 0.011955 -0.003319 -0.001096 0.000000 -0.001938 0.000000
# 2 -0.003319 0.008223 -0.003806 0.000000 -0.000353 0.000000
# 3 -0.001096 -0.003806 0.008698 0.000000 0.004217 0.000000
# 4 0.000000 0.000000 0.000000 0.017314 0.000000 -0.001615
# 5 -0.001938 -0.000353 0.004217 0.000000 0.031811 0.000000
# 6 0.000000 0.000000 0.000000 -0.001615 0.000000 0.018349
#
#
# Mechanical properties :
#
#
# Convention : Reuss Voigt Hill
#
# Bulk Modulus (GPa) = 80.43293 93.98951 87.21122
# Shear Modulus (GPa) = 42.75793 47.51609 45.13701
#
# Velocity S-wave (km/s) = 4.13401 4.35796 4.24746
# Velocity P-wave (km/s) = 7.41183 7.93029 7.67544
#
# Compressibility (1/GPa) = 0.01243272
#
# Stress axis : x y z
#
# Youngs Moduli (GPa) = 83.64750 121.60802 114.96710
#
# Poissons Ratio (x) = 0.40367 0.12603
# Poissons Ratio (y) = 0.27766 0.43757
# Poissons Ratio (z) = 0.09170 0.46285
#
# Static dielectric constant tensor:
#      x y z
#    x 2.390110 0.000000 0.294780 
#    y 0.000000 2.060520 0.000000 
#    z 0.294780 0.000000 2.285040 
# 
# From -- ./inp_files/247733.got.cif
#   From: 2010.05.17/outbox.cif.g08.bks.cpg/sg15_124_cif.got.tgz:247733.got - 2010.06.03 18:47:42.
