data_PCOD9308348
_publ_section_title
;
Structure prediction by ZEFSAII (Michael W. Deem and Ramdas Pophale) SiO2 
 PCOD9308348
Probable space group: C 2/C
;
_chemical_formula_sum "Si O2"
_cell_formula_units_Z 32
_cell_length_a 16.603967
_cell_length_b 4.941080
_cell_length_c 14.976386
_cell_angle_alpha 90.000000
_cell_angle_beta 105.459628
_cell_angle_gamma 90.000000
_cell_volume 1184.229942
_symmetry_space_group_name_H-M "C 2/C"
_symmetry_group_IT_number 15
_symmetry_cell_setting 'monoclinic'
loop_
_space_group_symop_operation_xyz
x,y,z
-x,y,1/2-z
-x,-y,-z
x,-y,1/2+z
1/2+x,1/2+y,z
1/2-x,1/2+y,1/2-z
1/2-x,1/2-y,-z
1/2+x,1/2-y,1/2+z
loop_
_atom_site_type_symbol
_atom_site_label
_atom_site_fract_x
_atom_site_fract_y
_atom_site_fract_z
Si Si1 0.932319 0.860792 0.545848
Si Si2 0.124646 0.048359 0.792426
Si Si3 0.208151 0.460006 0.058524
Si Si4 0.924275 0.438645 0.338715
O O1 0.841210 0.731093 0.491339
O O2 0.982858 0.600654 0.597842
O O3 0.917155 0.066770 0.622703
O O4 0.000000 0.000000 0.500000
O O5 0.220783 0.997340 0.845760
O O6 0.104275 0.281597 0.715117
O O7 0.089574 0.776926 0.741556
O O8 0.134081 0.340866 0.096845
O O9 0.250000 0.250000 0.000000
#
# Coordination Sequence:
#
# PCOD9308348 Si02
#       4
#     8   8   8   8
#     4  12  28  50  81 120 164 219 281 352 430 511
#     4  12  28  51  77 113 157 211 269 341 419 504
#     4  12  27  50  78 115 159 213 274 344 419 503
#     4  12  28  51  78 114 158 209 272 343 420 502
#
# _framework density 27.021777
#
# number of rings (size 3 to 8) (size 9 to 14) (size 15 to 20)
#    0.000    0.000    0.000    8.250    0.000   16.000 
#    0.000    0.000    0.000    0.000    0.000    0.000 
#    0.000    0.000    0.000    0.000    0.000    0.000 
#
# Total GULP energy -89496.378860 kJ/mol
# GULP energy per Si atom -5593.523679 kJ/mol
# Density = 2.696027 g / cm^3
# Si number density = 27.021777 Si / 1000 Ang^3
#
#
#
# Elastic Constant Matrix: (Units=GPa)
#
#
# Indices 1 2 3 4 5 6 
#
# 1 147.5561 44.4187 49.7767 0.0000 1.9048 0.0000
# 2 44.4187 80.9664 31.2103 0.0000 4.4681 0.0000
# 3 49.7767 31.2103 96.6467 0.0000 9.2688 0.0000
# 4 0.0000 0.0000 0.0000 -4.1016 0.0000 2.3927
# 5 1.9048 4.4681 9.2688 0.0000 92.2534 0.0000
# 6 0.0000 0.0000 0.0000 2.3927 0.0000 50.9977
#
#
#
# Elastic Compliance Matrix: (Units=1/GPa)
#
#
# Indices 1 2 3 4 5 6 
#
# 1 0.009053 -0.003627 -0.003524 0.000000 0.000343 0.000000
# 2 -0.003627 0.015565 -0.003123 0.000000 -0.000365 0.000000
# 3 -0.003524 -0.003123 0.013277 0.000000 -0.001110 0.000000
# 4 0.000000 0.000000 0.000000 -0.237313 0.000000 0.011134
# 5 0.000343 -0.000365 -0.001110 0.000000 0.010962 0.000000
# 6 0.000000 0.000000 0.000000 0.011134 0.000000 0.019086
#
#
# Mechanical properties :
#
#
# Convention : Reuss Voigt Hill
#
# Bulk Modulus (GPa) = 57.65072 63.99784 60.82428
# Shear Modulus (GPa) = -34.95575 41.14749 3.09587
#
# Velocity S-wave (km/s) = -3.60059 3.90648 1.07153
# Velocity P-wave (km/s) = 2.02376 6.63948 4.90807
#
# Compressibility (1/GPa) = 0.01734584
#
# Stress axis : x y z
#
# Youngs Moduli (GPa) = 110.45486 64.24784 75.31703
#
# Poissons Ratio (x) = 0.23304 0.26545
# Poissons Ratio (y) = 0.40063 0.23523
# Poissons Ratio (z) = 0.38929 0.20066
#
# Static dielectric constant tensor:
#      x y z
#    x 2.079650 0.000000 -0.151920 
#    y 0.000000 2.130940 0.000000 
#    z -0.151920 0.000000 1.871920 
# 
# From -- ./inp_files/158257.got.cif
#   From: 2010.05.17/outbox.cif.g08.bks.cpg/sg15_80_cif.got.tgz:158257.got - 2010.06.03 18:47:42.
