data_PCOD9308897
_publ_section_title
;
Structure prediction by ZEFSAII (Michael W. Deem and Ramdas Pophale) SiO2 
 PCOD9308897
Probable space group: C 2/C
;
_chemical_formula_sum "Si O2"
_cell_formula_units_Z 32
_cell_length_a 18.000000
_cell_length_b 24.000000
_cell_length_c 21.000000
_cell_angle_alpha 90.000000
_cell_angle_beta 20.000000
_cell_angle_gamma 90.000000
_cell_volume 3102.806740
_symmetry_space_group_name_H-M "C 2/C"
_symmetry_group_IT_number 15
_symmetry_cell_setting 'monoclinic'
loop_
_space_group_symop_operation_xyz
x,y,z
-x,y,1/2-z
-x,-y,-z
x,-y,1/2+z
1/2+x,1/2+y,z
1/2-x,1/2+y,1/2-z
1/2-x,1/2-y,-z
1/2+x,1/2-y,1/2+z
loop_
_atom_site_type_symbol
_atom_site_label
_atom_site_fract_x
_atom_site_fract_y
_atom_site_fract_z
Si Si1 0.831457 0.814405 0.778892
Si Si2 0.873205 0.688073 0.701066
Si Si3 0.294236 0.621270 0.780531
Si Si4 0.321938 0.887581 0.715699
Si Si5 0.266972 0.114289 0.403442
Si Si6 0.250326 0.868799 0.427323
Si Si7 0.189053 0.516005 0.648028
Si Si8 0.680257 0.988341 0.300891
O O1 0.770945 0.851104 0.766086
O O2 0.836344 0.751306 0.750936
O O3 0.070352 0.832750 0.608621
O O4 0.631650 0.822588 0.987787
O O5 0.772473 0.670301 0.714533
O O6 0.763923 0.652414 0.844141
O O7 0.530793 0.632400 0.620435
O O8 0.304658 0.564819 0.728774
O O9 0.086124 0.611301 0.993974
O O10 0.276359 0.865327 0.822789
O O11 0.223257 0.949948 0.787286
O O12 0.500000 0.126108 0.250000
O O13 0.244913 0.047299 0.415468
O O14 0.500000 0.863259 0.250000
O O15 0.165280 0.932346 0.491390
O O16 0.112914 0.525451 0.782342
O O17 0.000000 0.522142 0.750000
O O18 0.500000 0.000000 0.500000
#
# Coordination Sequence:
#
# PCOD9308897 Si02
#       8
#     8   8   8   8   8   8   8   8
#     4  11  23  39  60  85 112 151 199 250 291 343
#     4  11  22  40  59  83 112 149 200 247 293 341
#     4  10  20  35  58  84 112 150 187 247 288 347
#     4   9  21  35  57  87 110 148 192 240 293 346
#     4  10  21  36  58  87 119 151 185 231 296 362
#     4  11  23  39  58  82 121 162 196 239 287 343
#     4   9  19  35  55  85 123 159 193 234 293 353
#     4   9  17  32  56  84 116 147 195 244 289 345
#
# _framework density 10.313243
#
# number of rings (size 3 to 8) (size 9 to 14) (size 15 to 20)
#    0.000    2.000    2.500    0.750    1.750    2.500 
#    0.000    0.000    0.000    5.250    0.000    0.000 
#    0.000    0.000    0.000    0.000    0.000    0.000 
#
# Total GULP energy -178193.909008 kJ/mol
# GULP energy per Si atom -5568.559656 kJ/mol
# Density = 1.028977 g / cm^3
# Si number density = 10.313243 Si / 1000 Ang^3
#
#
#
# Elastic Constant Matrix: (Units=GPa)
#
#
# Indices 1 2 3 4 5 6 
#
# 1 43.3417 0.6279 8.0177 0.0821 -16.0482 0.2912
# 2 0.6279 6.8304 -0.2121 0.0889 0.2398 0.0402
# 3 8.0177 -0.2121 112.5839 0.3979 -25.1967 0.5200
# 4 0.0821 0.0889 0.3979 -2.8452 -0.0013 -14.4665
# 5 -16.0482 0.2398 -25.1967 -0.0013 31.4607 -0.0443
# 6 0.2912 0.0402 0.5200 -14.4665 -0.0443 -3.2329
#
#
#
# Elastic Compliance Matrix: (Units=1/GPa)
#
#
# Indices 1 2 3 4 5 6 
#
# 1 0.028717 -0.003158 0.001499 0.000558 0.015873 0.000074
# 2 -0.003158 0.146784 -0.000138 0.000158 -0.002839 0.000850
# 3 0.001499 -0.000138 0.010898 0.000339 0.009494 0.000240
# 4 0.000558 0.000158 0.000339 0.016178 0.000454 -0.072294
# 5 0.015873 -0.002839 0.009494 0.000454 0.047509 0.000240
# 6 0.000074 0.000850 0.000240 -0.072294 0.000240 0.014230
#
#
# Mechanical properties :
#
#
# Convention : Reuss Voigt Hill
#
# Bulk Modulus (GPa) = 5.47035 19.95808 12.71422
# Shear Modulus (GPa) = 15.20477 15.36471 15.28474
#
# Velocity S-wave (km/s) = 2.71799 2.73225 2.72513
# Velocity P-wave (km/s) = 3.53664 4.43289 4.00989
#
# Compressibility (1/GPa) = 0.18280353
#
# Stress axis : x y z
#
# Youngs Moduli (GPa) = 34.82276 6.81275 91.76215
#
# Poissons Ratio (x) = 0.02152 -0.13757
# Poissons Ratio (y) = 0.10997 0.01270
# Poissons Ratio (z) = -0.05221 0.00094
#
# Static dielectric constant tensor:
#      x y z
#    x 1.951900 0.000060 -0.068750 
#    y 0.000060 1.792920 0.000230 
#    z -0.068750 0.000230 1.790310 
# 
# From -- ./inp_files/250260.got.cif
#   From: 2010.05.17/outbox.ucp.g08.bks.cvg/sg15_126_cif.got.tgz:250260.got - 2010.06.11 12:40:34.
