data_PCOD9308016
_publ_section_title
;
Structure prediction by ZEFSAII (Michael W. Deem and Ramdas Pophale) SiO2 
 PCOD9308016
Probable space group: C 2/C
;
_chemical_formula_sum "Si O2"
_cell_formula_units_Z 40
_cell_length_a 14.440071
_cell_length_b 14.236103
_cell_length_c 17.272093
_cell_angle_alpha 90.000000
_cell_angle_beta 29.423915
_cell_angle_gamma 90.000000
_cell_volume 1744.308595
_symmetry_space_group_name_H-M "C 2/C"
_symmetry_group_IT_number 15
_symmetry_cell_setting 'monoclinic'
loop_
_space_group_symop_operation_xyz
x,y,z
-x,y,1/2-z
-x,-y,-z
x,-y,1/2+z
1/2+x,1/2+y,z
1/2-x,1/2+y,1/2-z
1/2-x,1/2-y,-z
1/2+x,1/2-y,1/2+z
loop_
_atom_site_type_symbol
_atom_site_label
_atom_site_fract_x
_atom_site_fract_y
_atom_site_fract_z
Si Si1 0.662346 0.943030 0.425276
Si Si2 0.202437 0.519864 0.567829
Si Si3 0.497308 0.308700 0.843297
Si Si4 0.497792 0.420446 0.436907
Si Si5 0.918053 0.718052 0.053427
O O1 0.578591 0.838590 0.480773
O O2 0.856174 0.943905 0.237541
O O3 0.500000 0.000000 0.500000
O O4 0.685079 0.985551 0.492920
O O5 0.350268 0.606556 0.462812
O O6 0.290374 0.432395 0.551873
O O7 0.000000 0.546366 0.750000
O O8 0.500000 0.285161 0.750000
O O9 0.444489 0.225362 0.941106
O O10 0.712624 0.328104 0.712652
O O11 0.500000 0.500000 0.500000
O O12 0.564835 0.323390 0.426190
#
# Coordination Sequence:
#
# PCOD9308016 Si02
#       5
#     8   8   8   8   8
#     4  12  27  48  74 112 156 202 255 323 390 458
#     4  12  28  47  80 113 154 207 262 317 388 462
#     4  12  26  48  76 115 152 201 259 321 384 455
#     4  12  25  48  76 108 156 205 256 313 390 465
#     4  12  27  48  77 112 157 202 256 322 388 464
#
# _framework density 22.931721
#
# number of rings (size 3 to 8) (size 9 to 14) (size 15 to 20)
#    0.000    0.000    4.000    6.000    2.800    3.200 
#    0.000    0.000    0.000    0.000    0.000    0.000 
#    0.000    0.000    0.000    0.000    0.000    0.000 
#
# Total GULP energy -112028.691545 kJ/mol
# GULP energy per Si atom -5601.434577 kJ/mol
# Density = 2.287953 g / cm^3
# Si number density = 22.931721 Si / 1000 Ang^3
#
#
#
# Elastic Constant Matrix: (Units=GPa)
#
#
# Indices 1 2 3 4 5 6 
#
# 1 136.7897 45.1991 41.5613 -0.0010 4.1720 0.0014
# 2 45.1991 116.8571 50.4202 0.0062 -0.5455 -0.0014
# 3 41.5613 50.4202 171.1800 0.0103 -6.2579 -0.0030
# 4 -0.0010 0.0062 0.0103 31.1480 -0.0027 -12.2751
# 5 4.1720 -0.5455 -6.2579 -0.0027 47.4740 0.0006
# 6 0.0014 -0.0014 -0.0030 -12.2751 0.0006 43.9202
#
#
#
# Elastic Compliance Matrix: (Units=1/GPa)
#
#
# Indices 1 2 3 4 5 6 
#
# 1 0.008661 -0.002786 -0.001318 0.000001 -0.000967 0.000000
# 2 -0.002786 0.010703 -0.002475 -0.000001 0.000042 0.000000
# 3 -0.001318 -0.002475 0.006927 -0.000002 0.001000 0.000000
# 4 0.000001 -0.000001 -0.000002 0.036079 0.000002 0.010083
# 5 -0.000967 0.000042 0.001000 0.000002 0.021281 0.000000
# 6 0.000000 0.000000 0.000000 0.010083 0.000000 0.025587
#
#
# Mechanical properties :
#
#
# Convention : Reuss Voigt Hill
#
# Bulk Modulus (GPa) = 76.13371 77.68755 76.91063
# Shear Modulus (GPa) = 39.44086 43.68484 41.56285
#
# Velocity S-wave (km/s) = 4.15170 4.36936 4.26192
# Velocity P-wave (km/s) = 7.50029 7.70755 7.60463
#
# Compressibility (1/GPa) = 0.01313479
#
# Stress axis : x y z
#
# Youngs Moduli (GPa) = 115.46200 93.43230 144.35974
#
# Poissons Ratio (x) = 0.26030 0.19020
# Poissons Ratio (y) = 0.32167 0.35723
# Poissons Ratio (z) = 0.15213 0.23120
#
# Static dielectric constant tensor:
#      x y z
#    x 1.824690 -0.000010 -0.012030 
#    y -0.000010 1.937730 0.000000 
#    z -0.012030 0.000000 1.874250 
# 
# From -- ./inp_files/205602.got.cif
#   From: 2010.05.17/outbox.cif.g08.bks.cpg/sg15_103_cif.got.tgz:205602.got - 2010.06.03 18:47:42.
