data_PCOD9308238
_publ_section_title
;
Structure prediction by ZEFSAII (Michael W. Deem and Ramdas Pophale) SiO2 
 PCOD9308238
Probable space group: C 2/C
;
_chemical_formula_sum "Si O2"
_cell_formula_units_Z 24
_cell_length_a 13.878865
_cell_length_b 8.453837
_cell_length_c 9.759849
_cell_angle_alpha 90.000000
_cell_angle_beta 128.826261
_cell_angle_gamma 90.000000
_cell_volume 892.106356
_symmetry_space_group_name_H-M "C 2/C"
_symmetry_group_IT_number 15
_symmetry_cell_setting 'monoclinic'
loop_
_space_group_symop_operation_xyz
x,y,z
-x,y,1/2-z
-x,-y,-z
x,-y,1/2+z
1/2+x,1/2+y,z
1/2-x,1/2+y,1/2-z
1/2-x,1/2-y,-z
1/2+x,1/2-y,1/2+z
loop_
_atom_site_type_symbol
_atom_site_label
_atom_site_fract_x
_atom_site_fract_y
_atom_site_fract_z
Si Si1 0.324043 0.509987 0.374238
Si Si2 0.133977 0.295290 0.296902
Si Si3 0.121987 0.184859 0.828581
O O1 0.250000 0.250000 0.500000
O O2 0.181005 0.463905 0.275401
O O3 0.389595 0.534580 0.577843
O O4 0.369105 0.366854 0.319284
O O5 0.000000 0.303957 0.250000
O O6 0.144290 0.164918 0.185897
O O7 0.000000 0.283676 0.750000
O O8 0.250000 0.250000 0.000000
#
# Coordination Sequence:
#
# PCOD9308238 Si02
#       3
#     8   8   8
#     4  12  26  50  78 112 155 204 259 322 388 462
#     4  12  29  48  77 116 157 202 260 327 391 462
#     4  12  27  47  78 112 153 202 260 320 391 465
#
# _framework density 26.902622000000001
#
# number of rings (size 3 to 8) (size 9 to 14) (size 15 to 20)
#    0.000    0.000    6.667    2.000    4.667    2.667 
#    0.000    0.000    0.000    0.000    0.000    0.000 
#    0.000    0.000    0.000    0.000    0.000    0.000 
#
# Total GULP energy -67113.646465 kJ/mol
# GULP energy per Si atom -5592.803872 kJ/mol
# Density = 2.684139 g / cm^3
# Si number density = 26.902622 Si / 1000 Ang^3
#
#
#
# Elastic Constant Matrix: (Units=GPa)
#
#
# Indices 1 2 3 4 5 6 
#
# 1 262.7762 65.4256 89.4237 0.0000 51.5471 0.0000
# 2 65.4256 75.7173 28.6522 0.0000 23.8594 0.0000
# 3 89.4237 28.6522 152.6730 0.0000 18.0809 0.0000
# 4 0.0000 0.0000 0.0000 24.2369 0.0000 -3.9559
# 5 51.5471 23.8594 18.0809 0.0000 75.3847 0.0000
# 6 0.0000 0.0000 0.0000 -3.9559 0.0000 60.6776
#
#
#
# Elastic Compliance Matrix: (Units=1/GPa)
#
#
# Indices 1 2 3 4 5 6 
#
# 1 0.006021 -0.003466 -0.002592 0.000000 -0.002398 0.000000
# 2 -0.003466 0.017470 -0.000900 0.000000 -0.002943 0.000000
# 3 -0.002592 -0.000900 0.008227 0.000000 0.000084 0.000000
# 4 0.000000 0.000000 0.000000 0.041703 0.000000 0.002719
# 5 -0.002398 -0.002943 0.000084 0.000000 0.015817 0.000000
# 6 0.000000 0.000000 0.000000 0.002719 0.000000 0.016658
#
#
# Mechanical properties :
#
#
# Convention : Reuss Voigt Hill
#
# Bulk Modulus (GPa) = 56.17322 95.35215 75.76269
# Shear Modulus (GPa) = 39.76269 52.57084 46.16677
#
# Velocity S-wave (km/s) = 3.84868 4.42533 4.14704
# Velocity P-wave (km/s) = 6.37772 7.85059 7.15217
#
# Compressibility (1/GPa) = 0.01780208
#
# Stress axis : x y z
#
# Youngs Moduli (GPa) = 166.08301 57.24112 121.54860
#
# Poissons Ratio (x) = 0.19840 0.31507
# Poissons Ratio (y) = 0.57565 0.10938
# Poissons Ratio (z) = 0.43051 0.05151
#
# Static dielectric constant tensor:
#      x y z
#    x 2.249890 0.000000 0.080350 
#    y 0.000000 2.336170 0.000000 
#    z 0.080350 0.000000 2.061300 
# 
# From -- ./inp_files/36211.got.cif
#   From: 2010.05.17/outbox.cif.g08.bks.cpg/sg15_19_cif.got.tgz:36211.got - 2010.06.03 18:47:42.
