data_PCOD9308729
_publ_section_title
;
Structure prediction by ZEFSAII (Michael W. Deem and Ramdas Pophale) SiO2 
 PCOD9308729
Probable space group: C 2/C
;
_chemical_formula_sum "Si O2"
_cell_formula_units_Z 32
_cell_length_a 24.000000
_cell_length_b 21.000000
_cell_length_c 9.000000
_cell_angle_alpha 90.000000
_cell_angle_beta 130.000000
_cell_angle_gamma 90.000000
_cell_volume 3474.777594
_symmetry_space_group_name_H-M "C 2/C"
_symmetry_group_IT_number 15
_symmetry_cell_setting 'monoclinic'
loop_
_space_group_symop_operation_xyz
x,y,z
-x,y,1/2-z
-x,-y,-z
x,-y,1/2+z
1/2+x,1/2+y,z
1/2-x,1/2+y,1/2-z
1/2-x,1/2-y,-z
1/2+x,1/2-y,1/2+z
loop_
_atom_site_type_symbol
_atom_site_label
_atom_site_fract_x
_atom_site_fract_y
_atom_site_fract_z
Si Si1 0.857409 0.251459 0.696689
Si Si2 0.264252 0.161320 0.869061
Si Si3 0.783970 0.679576 0.560992
Si Si4 0.947189 0.859612 0.779413
Si Si5 0.816489 0.944820 0.087077
Si Si6 0.447209 0.363705 0.291224
Si Si7 0.583358 0.777100 0.392868
Si Si8 0.682334 0.576857 0.263503
O O1 0.793374 0.215359 0.678466
O O2 0.837542 0.307070 0.551280
O O3 0.893778 0.194635 0.663437
O O4 0.896256 0.283792 0.901215
O O5 0.270933 0.152868 0.704759
O O6 0.238874 0.101547 0.922312
O O7 0.750000 0.750000 0.500000
O O8 0.864765 0.686913 0.633866
O O9 0.738961 0.633805 0.376646
O O10 0.911394 0.798690 0.639777
O O11 0.890664 0.900226 0.776696
O O12 0.000000 0.893555 0.750000
O O13 0.002933 0.833932 0.996692
O O14 0.897580 0.920191 0.270636
O O15 0.797516 0.014309 0.110515
O O16 0.821569 0.939054 0.917569
O O17 0.500000 0.384151 0.250000
O O18 0.500000 0.795879 0.250000
#
# Coordination Sequence:
#
# PCOD9308729 Si02
#       8
#     8   8   8   8   8   8   8   8
#     4  10  19  33  56  81 120 153 201 252 302 351
#     4  10  22  36  58  86 116 154 203 257 305 350
#     4  12  23  37  62  90 119 155 206 255 312 361
#     4  11  22  36  56  84 125 167 205 250 294 356
#     4  11  26  41  60  84 120 167 212 253 303 363
#     4  11  22  36  54  86 125 166 208 246 298 361
#     4  11  21  36  56  90 122 160 194 251 313 362
#     4  12  25  42  61  85 121 166 214 253 303 366
#
# _framework density 9.2092220000000005
#
# number of rings (size 3 to 8) (size 9 to 14) (size 15 to 20)
#    0.000    1.000    6.250    1.500    8.750    1.000 
#    0.000    0.000    0.000    0.000    0.000    8.750 
#    0.000    0.000    0.000    0.000    0.000    0.000 
#
# Total GULP energy -178207.960660 kJ/mol
# GULP energy per Si atom -5568.998771 kJ/mol
# Density = 0.918826 g / cm^3
# Si number density = 9.209222 Si / 1000 Ang^3
#
#
#
# Elastic Constant Matrix: (Units=GPa)
#
#
# Indices 1 2 3 4 5 6 
#
# 1 78.6239 44.9289 -2.7764 0.0000 9.9771 0.0000
# 2 44.9289 53.1278 21.9227 0.0000 3.3325 0.0000
# 3 -2.7764 21.9227 47.7586 0.0000 -3.7894 0.0000
# 4 0.0000 0.0000 0.0000 14.6734 0.0000 -10.3929
# 5 9.9771 3.3325 -3.7894 0.0000 14.4866 0.0000
# 6 0.0000 0.0000 0.0000 -10.3929 0.0000 20.5022
#
#
#
# Elastic Compliance Matrix: (Units=1/GPa)
#
#
# Indices 1 2 3 4 5 6 
#
# 1 0.036335 -0.037625 0.018468 0.000000 -0.011539 0.000000
# 2 -0.037625 0.063201 -0.030938 0.000000 0.003281 0.000000
# 3 0.018468 -0.030938 0.036528 0.000000 0.003953 0.000000
# 4 0.000000 0.000000 0.000000 0.106326 0.000000 0.053899
# 5 -0.011539 0.003281 0.003953 0.000000 0.077256 0.000000
# 6 0.000000 0.000000 0.000000 0.053899 0.000000 0.076097
#
#
# Mechanical properties :
#
#
# Convention : Reuss Voigt Hill
#
# Bulk Modulus (GPa) = 27.87564 34.18453 31.03009
# Shear Modulus (GPa) = 9.84462 17.62811 13.73637
#
# Velocity S-wave (km/s) = 2.31443 3.09704 2.73389
# Velocity P-wave (km/s) = 4.72330 5.60260 5.18164
#
# Compressibility (1/GPa) = 0.03587362
#
# Stress axis : x y z
#
# Youngs Moduli (GPa) = 27.52140 15.82244 27.37662
#
# Poissons Ratio (x) = 0.59531 -0.50558
# Poissons Ratio (y) = 1.03548 0.84699
# Poissons Ratio (z) = -0.50826 0.48952
#
# Static dielectric constant tensor:
#      x y z
#    x 1.760800 0.000000 -0.096870 
#    y 0.000000 1.638630 0.000000 
#    z -0.096870 0.000000 1.951560 
# 
# From -- ./inp_files/63440.got.cif
#   From: 2010.05.17/outbox.ucp.g08.bks.cvg/sg15_32_cif.got.tgz:63440.got - 2010.06.11 12:40:34.
