data_PCOD9308041
_publ_section_title
;
Structure prediction by ZEFSAII (Michael W. Deem and Ramdas Pophale) SiO2 
 PCOD9308041
Probable space group: C 2/C
;
_chemical_formula_sum "Si O2"
_cell_formula_units_Z 36
_cell_length_a 5.558762
_cell_length_b 18.747445
_cell_length_c 14.492895
_cell_angle_alpha 90.000000
_cell_angle_beta 84.044726
_cell_angle_gamma 90.000000
_cell_volume 1502.191019
_symmetry_space_group_name_H-M "C 2/C"
_symmetry_group_IT_number 15
_symmetry_cell_setting 'monoclinic'
loop_
_space_group_symop_operation_xyz
x,y,z
-x,y,1/2-z
-x,-y,-z
x,-y,1/2+z
1/2+x,1/2+y,z
1/2-x,1/2+y,1/2-z
1/2-x,1/2-y,-z
1/2+x,1/2-y,1/2+z
loop_
_atom_site_type_symbol
_atom_site_label
_atom_site_fract_x
_atom_site_fract_y
_atom_site_fract_z
Si Si1 0.176238 0.165096 0.604407
Si Si2 0.500000 0.219432 0.750000
Si Si3 0.000000 0.484790 0.750000
Si Si4 0.548975 0.073207 0.052182
Si Si5 0.000000 0.066833 0.750000
Si Si6 0.665275 0.212901 0.409877
O O1 0.383733 0.172159 0.673554
O O2 0.260596 0.120434 0.513189
O O3 0.970277 0.118404 0.662578
O O4 0.089371 0.246014 0.594422
O O5 0.688055 0.268502 0.687506
O O6 0.099994 0.443417 0.656580
O O7 0.247361 0.524871 0.772748
O O8 0.330791 0.129481 0.069137
O O9 0.500000 0.000000 0.000000
O O10 0.750000 0.250000 0.500000
#
# Coordination Sequence:
#
# PCOD9308041 Si02
#       6
#     8   4   4   8   4   8
#     4  12  26  49  81 114 156 215 269 336 406 489
#     4  12  25  49  82 111 161 206 282 328 411 483
#     4  12  31  51  78 123 167 216 274 342 415 487
#     4  12  29  51  77 118 161 208 271 334 414 486
#     4  12  26  50  84 114 166 220 268 334 414 488
#     4  12  28  47  81 115 154 209 274 339 404 489
#
# _framework density 23.964993
#
# number of rings (size 3 to 8) (size 9 to 14) (size 15 to 20)
#    0.000    0.000    6.667    1.333    6.222    3.556 
#    0.000    0.000    0.000    0.000    0.000    0.000 
#    0.000    0.000    0.000    0.000    0.000    0.000 
#
# Total GULP energy -100551.059434 kJ/mol
# GULP energy per Si atom -5586.169969 kJ/mol
# Density = 2.391045 g / cm^3
# Si number density = 23.964993 Si / 1000 Ang^3
#
#
#
# Elastic Constant Matrix: (Units=GPa)
#
#
# Indices 1 2 3 4 5 6 
#
# 1 79.2034 30.4623 30.6044 0.0000 -11.3937 0.0000
# 2 30.4623 155.8101 68.2093 0.0000 -11.1087 0.0000
# 3 30.6044 68.2093 174.7353 0.0000 -30.7884 0.0000
# 4 0.0000 0.0000 0.0000 48.1997 0.0000 -14.4063
# 5 -11.3937 -11.1087 -30.7884 0.0000 60.9622 0.0000
# 6 0.0000 0.0000 0.0000 -14.4063 0.0000 21.5032
#
#
#
# Elastic Compliance Matrix: (Units=1/GPa)
#
#
# Indices 1 2 3 4 5 6 
#
# 1 0.014182 -0.002044 -0.001410 0.000000 0.001566 0.000000
# 2 -0.002044 0.008036 -0.002841 0.000000 -0.000352 0.000000
# 3 -0.001410 -0.002841 0.007619 0.000000 0.003067 0.000000
# 4 0.000000 0.000000 0.000000 0.025942 0.000000 0.017380
# 5 0.001566 -0.000352 0.003067 0.000000 0.018181 0.000000
# 6 0.000000 0.000000 0.000000 0.017380 0.000000 0.058148
#
#
# Mechanical properties :
#
#
# Convention : Reuss Voigt Hill
#
# Bulk Modulus (GPa) = 57.97983 74.25566 66.11774
# Shear Modulus (GPa) = 33.23409 44.83122 39.03265
#
# Velocity S-wave (km/s) = 3.72798 4.32985 4.04014
# Velocity P-wave (km/s) = 6.54038 7.48659 7.02943
#
# Compressibility (1/GPa) = 0.01724738
#
# Stress axis : x y z
#
# Youngs Moduli (GPa) = 70.51227 124.43546 131.24406
#
# Poissons Ratio (x) = 0.25431 0.18509
# Poissons Ratio (y) = 0.14411 0.37289
# Poissons Ratio (z) = 0.09944 0.35354
#
# Static dielectric constant tensor:
#      x y z
#    x 2.032650 0.000000 0.188410 
#    y 0.000000 2.050990 0.000000 
#    z 0.188410 0.000000 1.746880 
# 
# From -- ./inp_files/128752.got.cif
#   From: 2010.05.17/outbox.cif.g08.bks.cpg/sg15_65_cif.got.tgz:128752.got - 2010.06.03 18:47:42.
