data_PCOD9308947
_publ_section_title
;
Structure prediction by ZEFSAII (Michael W. Deem and Ramdas Pophale) SiO2 
 PCOD9308947
Probable space group: C 2/C
;
_chemical_formula_sum "Si O2"
_cell_formula_units_Z 28
_cell_length_a 21.000000
_cell_length_b 24.000000
_cell_length_c 12.000000
_cell_angle_alpha 90.000000
_cell_angle_beta 30.000000
_cell_angle_gamma 90.000000
_cell_volume 3024.000000
_symmetry_space_group_name_H-M "C 2/C"
_symmetry_group_IT_number 15
_symmetry_cell_setting 'monoclinic'
loop_
_space_group_symop_operation_xyz
x,y,z
-x,y,1/2-z
-x,-y,-z
x,-y,1/2+z
1/2+x,1/2+y,z
1/2-x,1/2+y,1/2-z
1/2-x,1/2-y,-z
1/2+x,1/2-y,1/2+z
loop_
_atom_site_type_symbol
_atom_site_label
_atom_site_fract_x
_atom_site_fract_y
_atom_site_fract_z
Si Si1 0.389185 0.789902 0.656409
Si Si2 0.870963 0.444599 0.597693
Si Si3 0.255616 0.343741 0.829376
Si Si4 0.752564 0.607906 0.483572
Si Si5 0.530211 0.686699 0.828149
Si Si6 0.610811 0.134139 0.774968
Si Si7 0.627093 0.927541 0.483040
O O1 0.319373 0.801141 0.642624
O O2 0.332452 0.836872 0.826014
O O3 0.391068 0.730515 0.714654
O O4 0.533056 0.809599 0.417862
O O5 0.777601 0.404886 0.669066
O O6 0.812586 0.438938 0.810980
O O7 0.879249 0.507570 0.543263
O O8 0.007061 0.412122 0.388276
O O9 0.401667 0.328388 0.588112
O O10 0.208238 0.349264 0.028907
O O11 0.610772 0.630804 0.681325
O O12 0.766069 0.587423 0.588782
O O13 0.500000 0.711069 0.750000
O O14 0.647783 0.108256 0.839064
O O15 0.500000 0.914688 0.750000
#
# Coordination Sequence:
#
# PCOD9308947 Si02
#       7
#     8   8   8   8   8   8   8
#     4  10  21  37  64  91 117 152 203 264 296 354
#     4  10  20  36  63  88 123 157 196 258 307 352
#     4  10  22  41  59  86 126 162 199 248 302 375
#     4  10  23  40  56  99 122 147 214 254 289 374
#     4  12  23  40  67  84 123 170 205 246 305 358
#     4  10  21  38  60  92 126 152 202 250 316 359
#     4  12  21  35  64  95 122 156 203 262 305 351
#
# _framework density 9.2592590000000001
#
# number of rings (size 3 to 8) (size 9 to 14) (size 15 to 20)
#    0.000    1.714    5.714    3.429    4.000    0.571 
#    0.000    2.857    3.143    0.000    0.000    0.000 
#    0.000    0.000    0.000    0.000    0.000    0.000 
#
# Total GULP energy -156017.388277 kJ/mol
# GULP energy per Si atom -5572.049581 kJ/mol
# Density = 0.923818 g / cm^3
# Si number density = 9.259259 Si / 1000 Ang^3
#
#
#
# Elastic Constant Matrix: (Units=GPa)
#
#
# Indices 1 2 3 4 5 6 
#
# 1 85.6857 23.8000 43.4010 0.0007 26.1463 -0.0004
# 2 23.8000 27.2404 32.1145 0.0001 10.3971 -0.0003
# 3 43.4010 32.1145 127.1206 -0.0001 25.9449 -0.0008
# 4 0.0007 0.0001 -0.0001 17.1366 -0.0007 11.1819
# 5 26.1463 10.3971 25.9449 -0.0007 29.4942 0.0006
# 6 -0.0004 -0.0003 -0.0008 11.1819 0.0006 28.1826
#
#
#
# Elastic Compliance Matrix: (Units=1/GPa)
#
#
# Indices 1 2 3 4 5 6 
#
# 1 0.018861 -0.010278 -0.001426 -0.000002 -0.011843 0.000001
# 2 -0.010278 0.059605 -0.011116 -0.000001 -0.002122 0.000001
# 3 -0.001426 -0.011116 0.012315 0.000000 -0.005650 0.000000
# 4 -0.000002 -0.000001 0.000000 0.078740 0.000005 -0.031241
# 5 -0.011843 -0.002122 -0.005650 0.000005 0.050122 -0.000003
# 6 0.000001 0.000001 0.000000 -0.031241 -0.000003 0.047878
#
#
# Mechanical properties :
#
#
# Convention : Reuss Voigt Hill
#
# Bulk Modulus (GPa) = 22.15252 48.74197 35.44725
# Shear Modulus (GPa) = 15.23422 24.34476 19.78949
#
# Velocity S-wave (km/s) = 2.87130 3.62970 3.27254
# Velocity P-wave (km/s) = 4.79383 6.62903 5.78467
#
# Compressibility (1/GPa) = 0.04514158
#
# Stress axis : x y z
#
# Youngs Moduli (GPa) = 53.01826 16.77712 81.20326
#
# Poissons Ratio (x) = 0.17244 0.11579
# Poissons Ratio (y) = 0.54492 0.90264
# Poissons Ratio (z) = 0.07560 0.18649
#
# Static dielectric constant tensor:
#      x y z
#    x 1.718890 0.000000 -0.012860 
#    y 0.000000 1.618580 0.000000 
#    z -0.012860 0.000000 1.669170 
# 
# From -- ./inp_files/114680.got.cif
#   From: 2010.05.17/outbox.ucp.g08.bks.cvg/sg15_58_cif.got.tgz:114680.got - 2010.06.11 12:40:34.
