data_PCOD9308806
_publ_section_title
;
Structure prediction by ZEFSAII (Michael W. Deem and Ramdas Pophale) SiO2 
 PCOD9308806
Probable space group: C 2/C
;
_chemical_formula_sum "Si O2"
_cell_formula_units_Z 16
_cell_length_a 12.000000
_cell_length_b 15.000000
_cell_length_c 9.000000
_cell_angle_alpha 90.000000
_cell_angle_beta 70.000000
_cell_angle_gamma 90.000000
_cell_volume 1522.302046
_symmetry_space_group_name_H-M "C 2/C"
_symmetry_group_IT_number 15
_symmetry_cell_setting 'monoclinic'
loop_
_space_group_symop_operation_xyz
x,y,z
-x,y,1/2-z
-x,-y,-z
x,-y,1/2+z
1/2+x,1/2+y,z
1/2-x,1/2+y,1/2-z
1/2-x,1/2-y,-z
1/2+x,1/2-y,1/2+z
loop_
_atom_site_type_symbol
_atom_site_label
_atom_site_fract_x
_atom_site_fract_y
_atom_site_fract_z
Si Si1 0.533986 0.404309 0.559981
Si Si2 0.500434 0.217847 0.069258
Si Si3 0.886587 0.555481 0.619465
Si Si4 0.305961 0.902956 0.486328
O O1 0.500000 0.405158 0.750000
O O2 0.500000 0.500000 0.500000
O O3 0.479891 0.318169 0.498861
O O4 0.674310 0.381144 0.493055
O O5 0.500000 0.214075 0.250000
O O6 0.603004 0.151461 0.961931
O O7 0.382735 0.171596 0.042681
O O8 0.787629 0.489008 0.601940
O O9 0.872984 0.569348 0.801925
O O10 0.000000 0.500000 0.500000
#
# Coordination Sequence:
#
# PCOD9308806 Si02
#       4
#     8   8   8   8
#     4  12  26  45  63  89 128 171 212 258 310 375
#     4  11  23  41  65  95 126 163 210 262 314 374
#     4  10  19  37  66  97 124 158 205 262 315 370
#     4  11  22  41  66  95 127 166 207 258 318 373
#
# _framework density 10.510398
#
# number of rings (size 3 to 8) (size 9 to 14) (size 15 to 20)
#    0.000    1.000    0.000   10.500    0.000    0.000 
#    0.000    3.750    0.000    0.000    0.000    0.000 
#    0.000    0.000    0.000    0.000    0.000    0.000 
#
# Total GULP energy -89252.274738 kJ/mol
# GULP energy per Si atom -5578.267171 kJ/mol
# Density = 1.048648 g / cm^3
# Si number density = 10.510398 Si / 1000 Ang^3
#
#
#
# Elastic Constant Matrix: (Units=GPa)
#
#
# Indices 1 2 3 4 5 6 
#
# 1 37.0375 18.3083 23.4411 0.0000 6.4489 0.0000
# 2 18.3083 202.5836 61.0610 0.0000 32.4380 0.0000
# 3 23.4411 61.0610 208.8819 0.0000 39.1556 0.0000
# 4 0.0000 0.0000 0.0000 37.9808 0.0000 13.9096
# 5 6.4489 32.4380 39.1556 0.0000 42.3862 0.0000
# 6 0.0000 0.0000 0.0000 13.9096 0.0000 34.0887
#
#
#
# Elastic Compliance Matrix: (Units=1/GPa)
#
#
# Indices 1 2 3 4 5 6 
#
# 1 0.029692 -0.001764 -0.002688 0.000000 -0.000685 0.000000
# 2 -0.001764 0.005913 -0.000886 0.000000 -0.003439 0.000000
# 3 -0.002688 -0.000886 0.006222 0.000000 -0.004660 0.000000
# 4 0.000000 0.000000 0.000000 0.030955 0.000000 -0.012631
# 5 -0.000685 -0.003439 -0.004660 0.000000 0.030633 0.000000
# 6 0.000000 0.000000 0.000000 -0.012631 0.000000 0.034489
#
#
# Mechanical properties :
#
#
# Convention : Reuss Voigt Hill
#
# Bulk Modulus (GPa) = 32.10148 72.68041 52.39094
# Shear Modulus (GPa) = 31.45372 45.93732 38.69552
#
# Velocity S-wave (km/s) = 3.87242 4.67982 4.29513
# Velocity P-wave (km/s) = 5.94126 7.99071 7.04096
#
# Compressibility (1/GPa) = 0.03115121
#
# Stress axis : x y z
#
# Youngs Moduli (GPa) = 33.67914 169.11099 160.72767
#
# Poissons Ratio (x) = 0.29823 0.43208
# Poissons Ratio (y) = 0.05939 0.14242
# Poissons Ratio (z) = 0.09054 0.14985
#
# Static dielectric constant tensor:
#      x y z
#    x 1.935310 0.000000 -0.033240 
#    y 0.000000 1.796370 0.000000 
#    z -0.033240 0.000000 1.725190 
# 
# From -- ./inp_files/27865.got.cif
#   From: 2010.05.17/outbox.ucp.g08.bks.cvg/sg15_14_cif.got.tgz:27865.got - 2010.06.11 12:40:34.
