data_PCOD9308709
_publ_section_title
;
Structure prediction by ZEFSAII (Michael W. Deem and Ramdas Pophale) SiO2 
 PCOD9308709
Probable space group: C 2/C
;
_chemical_formula_sum "Si O2"
_cell_formula_units_Z 30
_cell_length_a 21.000000
_cell_length_b 18.000000
_cell_length_c 9.000000
_cell_angle_alpha 90.000000
_cell_angle_beta 80.000000
_cell_angle_gamma 90.000000
_cell_volume 3350.315976
_symmetry_space_group_name_H-M "C 2/C"
_symmetry_group_IT_number 15
_symmetry_cell_setting 'monoclinic'
loop_
_space_group_symop_operation_xyz
x,y,z
-x,y,1/2-z
-x,-y,-z
x,-y,1/2+z
1/2+x,1/2+y,z
1/2-x,1/2+y,1/2-z
1/2-x,1/2-y,-z
1/2+x,1/2-y,1/2+z
loop_
_atom_site_type_symbol
_atom_site_label
_atom_site_fract_x
_atom_site_fract_y
_atom_site_fract_z
Si Si1 0.699752 0.182856 0.845354
Si Si2 0.000000 0.489873 0.750000
Si Si3 0.430826 0.414479 0.095507
Si Si4 0.287810 0.597360 0.614077
Si Si5 0.732747 0.968536 0.836220
Si Si6 0.597950 0.943507 0.448382
Si Si7 0.573373 0.577205 0.546633
Si Si8 0.210433 0.148677 0.407361
O O1 0.735070 0.158709 0.679340
O O2 0.634992 0.134906 0.905463
O O3 0.693457 0.270991 0.847813
O O4 0.750358 0.162672 0.956589
O O5 0.953520 0.536988 0.659827
O O6 0.053574 0.449076 0.617761
O O7 0.362342 0.376455 0.081165
O O8 0.427120 0.423804 0.274633
O O9 0.503747 0.385372 0.030727
O O10 0.427817 0.494181 0.017015
O O11 0.273884 0.535203 0.746114
O O12 0.267569 0.558347 0.470453
O O13 0.742432 0.901476 0.714634
O O14 0.659803 0.998244 0.905864
O O15 0.640798 0.611448 0.464739
#
# Coordination Sequence:
#
# PCOD9308709 Si02
#       8
#     8   4   8   8   8   8   8   8
#     4  10  22  37  59  78 117 142 198 224 290 323
#     4  10  20  36  64  80 112 136 190 232 298 332
#     4  10  19  32  53  79 109 144 182 228 267 327
#     4  11  19  34  55  87 110 147 181 240 270 337
#     4  11  21  33  62  86 116 135 190 231 291 322
#     4  10  20  37  58  90 105 146 181 244 279 345
#     4  10  20  33  52  79 113 142 187 223 280 324
#     4  11  21  37  55  83 112 159 178 239 274 342
#
# _framework density 8.9543789999999994
#
# number of rings (size 3 to 8) (size 9 to 14) (size 15 to 20)
#    0.000    1.600    2.667    4.800    0.000    0.533 
#    0.000    1.333    8.800    0.000    0.000    0.000 
#    0.000    0.000    0.000    0.000    0.000    0.000 
#
# Total GULP energy -167104.128383 kJ/mol
# GULP energy per Si atom -5570.137613 kJ/mol
# Density = 0.893400 g / cm^3
# Si number density = 8.954379 Si / 1000 Ang^3
#
#
#
# Elastic Constant Matrix: (Units=GPa)
#
#
# Indices 1 2 3 4 5 6 
#
# 1 113.6418 3.7188 3.2589 0.0000 -18.6092 0.0000
# 2 3.7188 56.9358 -0.7852 0.0000 -9.6967 0.0000
# 3 3.2589 -0.7852 50.8769 0.0000 -11.4256 0.0000
# 4 0.0000 0.0000 0.0000 -14.5305 0.0000 14.4497
# 5 -18.6092 -9.6967 -11.4256 0.0000 38.3894 0.0000
# 6 0.0000 0.0000 0.0000 14.4497 0.0000 15.2433
#
#
#
# Elastic Compliance Matrix: (Units=1/GPa)
#
#
# Indices 1 2 3 4 5 6 
#
# 1 0.009571 0.000204 0.000475 0.000000 0.004832 0.000000
# 2 0.000204 0.018454 0.001437 0.000000 0.005188 0.000000
# 3 0.000475 0.001437 0.021197 0.000000 0.006902 0.000000
# 4 0.000000 0.000000 0.000000 -0.035426 0.000000 0.033582
# 5 0.004832 0.005188 0.006902 0.000000 0.031756 0.000000
# 6 0.000000 0.000000 0.000000 0.033582 0.000000 0.033769
#
#
# Mechanical properties :
#
#
# Convention : Reuss Voigt Hill
#
# Bulk Modulus (GPa) = 18.70751 25.98216 22.34483
# Shear Modulus (GPa) = 53.81805 22.17124 37.99465
#
# Velocity S-wave (km/s) = 5.48785 3.52236 4.61105
# Velocity P-wave (km/s) = 7.11505 5.57514 6.39164
#
# Compressibility (1/GPa) = 0.05345447
#
# Stress axis : x y z
#
# Youngs Moduli (GPa) = 104.48684 54.18982 47.17638
#
# Poissons Ratio (x) = -0.01108 -0.02243
# Poissons Ratio (y) = -0.02136 -0.06778
# Poissons Ratio (z) = -0.04967 -0.07786
#
# Static dielectric constant tensor:
#      x y z
#    x 1.635340 0.000000 0.004850 
#    y 0.000000 1.636110 0.000000 
#    z 0.004850 0.000000 1.650560 
# 
# From -- ./inp_files/56586.got.cif
#   From: 2010.05.17/outbox.ucp.g08.bks.cvg/sg15_29_cif.got.tgz:56586.got - 2010.06.11 12:40:34.
