data_PCOD9308166
_publ_section_title
;
Structure prediction by ZEFSAII (Michael W. Deem and Ramdas Pophale) SiO2 
 PCOD9308166
Probable space group: C 2/C
;
_chemical_formula_sum "Si O2"
_cell_formula_units_Z 32
_cell_length_a 22.461399
_cell_length_b 4.665995
_cell_length_c 16.383373
_cell_angle_alpha 90.000000
_cell_angle_beta 139.432628
_cell_angle_gamma 90.000000
_cell_volume 1116.672997
_symmetry_space_group_name_H-M "C 2/C"
_symmetry_group_IT_number 15
_symmetry_cell_setting 'monoclinic'
loop_
_space_group_symop_operation_xyz
x,y,z
-x,y,1/2-z
-x,-y,-z
x,-y,1/2+z
1/2+x,1/2+y,z
1/2-x,1/2+y,1/2-z
1/2-x,1/2-y,-z
1/2+x,1/2-y,1/2+z
loop_
_atom_site_type_symbol
_atom_site_label
_atom_site_fract_x
_atom_site_fract_y
_atom_site_fract_z
Si Si1 0.592692 0.368246 0.927034
Si Si2 0.199653 0.041185 0.178705
Si Si3 0.044499 0.719308 0.114668
Si Si4 0.642358 0.164393 0.376928
O O1 0.525031 0.548585 0.916226
O O2 0.596374 0.530445 0.845736
O O3 0.686112 0.431276 0.073508
O O4 0.620576 0.416352 0.152046
O O5 0.289505 0.878558 0.305325
O O6 0.102084 0.540909 0.907147
O O7 0.100274 0.564311 0.246661
O O8 0.000000 0.500000 0.000000
O O9 0.750000 0.250000 0.500000
#
# Coordination Sequence:
#
# PCOD9308166 Si02
#       4
#     8   8   8   8
#     4  12  27  48  77 115 156 209 272 336 408 486
#     4  12  26  48  76 112 157 211 268 331 403 487
#     4  12  28  50  80 119 163 211 270 343 412 484
#     4  12  28  52  80 114 160 217 273 334 407 493
#
# _framework density 28.656556999999999
#
# number of rings (size 3 to 8) (size 9 to 14) (size 15 to 20)
#    0.000    0.000    0.000    9.750    0.000   14.000 
#    0.000    0.000    0.000    0.000    0.000    0.000 
#    0.000    0.000    0.000    0.000    0.000    0.000 
#
# Total GULP energy -89397.346550 kJ/mol
# GULP energy per Si atom -5587.334159 kJ/mol
# Density = 2.859133 g / cm^3
# Si number density = 28.656557 Si / 1000 Ang^3
#
#
#
# Elastic Constant Matrix: (Units=GPa)
#
#
# Indices 1 2 3 4 5 6 
#
# 1 173.4881 74.7108 54.6261 -0.0001 18.8995 -0.0007
# 2 74.7108 168.2557 41.6674 0.0001 -0.8510 0.0010
# 3 54.6261 41.6674 207.0839 0.0008 -12.3486 0.0002
# 4 -0.0001 0.0001 0.0008 64.4100 -0.0003 -15.6723
# 5 18.8995 -0.8510 -12.3486 -0.0003 50.5962 -0.0006
# 6 -0.0007 0.0010 0.0002 -15.6723 -0.0006 55.2220
#
#
#
# Elastic Compliance Matrix: (Units=1/GPa)
#
#
# Indices 1 2 3 4 5 6 
#
# 1 0.008038 -0.003168 -0.001690 0.000000 -0.003468 0.000000
# 2 -0.003168 0.007506 -0.000605 0.000000 0.001162 0.000000
# 3 -0.001690 -0.000605 0.005514 0.000000 0.001967 0.000000
# 4 0.000000 0.000000 0.000000 0.016677 0.000000 0.004733
# 5 -0.003468 0.001162 0.001967 0.000000 0.021559 0.000000
# 6 0.000000 0.000000 0.000000 0.004733 0.000000 0.019452
#
#
# Mechanical properties :
#
#
# Convention : Reuss Voigt Hill
#
# Bulk Modulus (GPa) = 98.70266 98.98182 98.84224
# Shear Modulus (GPa) = 53.73428 59.23387 56.48408
#
# Velocity S-wave (km/s) = 4.33496 4.55139 4.44449
# Velocity P-wave (km/s) = 7.71841 7.88897 7.80416
#
# Compressibility (1/GPa) = 0.01013144
#
# Stress axis : x y z
#
# Youngs Moduli (GPa) = 124.40300 133.22762 181.36526
#
# Poissons Ratio (x) = 0.42212 0.30646
# Poissons Ratio (y) = 0.39416 0.10976
# Poissons Ratio (z) = 0.21021 0.08063
#
# Static dielectric constant tensor:
#      x y z
#    x 2.360420 0.000000 0.120880 
#    y 0.000000 2.117640 0.000000 
#    z 0.120880 0.000000 2.435890 
# 
# From -- ./inp_files/175199.got.cif
#   From: 2010.05.17/outbox.cif.g08.bks.cpg/sg15_88_cif.got.tgz:175199.got - 2010.06.03 18:47:42.
