data_PCOD9308667
_publ_section_title
;
Structure prediction by ZEFSAII (Michael W. Deem and Ramdas Pophale) SiO2 
 PCOD9308667
Probable space group: C 2/C
;
_chemical_formula_sum "Si O2"
_cell_formula_units_Z 28
_cell_length_a 21.000000
_cell_length_b 30.000000
_cell_length_c 9.000000
_cell_angle_alpha 90.000000
_cell_angle_beta 30.000000
_cell_angle_gamma 90.000000
_cell_volume 2835.000000
_symmetry_space_group_name_H-M "C 2/C"
_symmetry_group_IT_number 15
_symmetry_cell_setting 'monoclinic'
loop_
_space_group_symop_operation_xyz
x,y,z
-x,y,1/2-z
-x,-y,-z
x,-y,1/2+z
1/2+x,1/2+y,z
1/2-x,1/2+y,1/2-z
1/2-x,1/2-y,-z
1/2+x,1/2-y,1/2+z
loop_
_atom_site_type_symbol
_atom_site_label
_atom_site_fract_x
_atom_site_fract_y
_atom_site_fract_z
Si Si1 0.760521 0.873653 0.809109
Si Si2 0.000000 0.648265 0.750000
Si Si3 0.000000 0.000003 0.750000
Si Si4 0.953898 0.725144 0.077520
Si Si5 0.275598 0.297441 0.273465
Si Si6 0.901576 0.866547 0.220346
Si Si7 0.362198 0.299156 0.763842
Si Si8 0.407353 0.560602 0.206060
O O1 0.849285 0.879473 0.486782
O O2 0.768437 0.820913 0.834598
O O3 0.803405 0.903840 0.860538
O O4 0.618790 0.882097 0.047530
O O5 0.029413 0.680653 0.551331
O O6 0.103795 0.970198 0.628116
O O7 0.065336 0.029771 0.491755
O O8 0.865546 0.717905 0.399220
O O9 0.873247 0.759526 0.136420
O O10 0.085921 0.749284 0.851644
O O11 0.302100 0.341876 0.316057
O O12 0.309105 0.305776 0.035951
O O13 0.013132 0.829964 0.013255
O O14 0.967045 0.909549 0.018719
#
# Coordination Sequence:
#
# PCOD9308667 Si02
#       8
#     8   4   4   8   8   8   8   8
#     4  11  23  38  57  81 116 154 197 230 289 344
#     4  12  22  40  55  74 110 168 196 244 279 332
#     4  10  20  34  63  94 124 136 166 226 295 342
#     4  10  19  34  53  75 112 148 201 243 287 328
#     4  10  19  33  54  80 112 152 191 239 294 335
#     4  10  18  34  57  83 118 150 181 226 291 351
#     4  10  20  34  56  80 107 148 198 245 292 330
#     4  10  20  36  57  97 117 143 176 225 284 356
#
# _framework density 9.8765429999999999
#
# number of rings (size 3 to 8) (size 9 to 14) (size 15 to 20)
#    0.000    1.714    4.286    2.571    4.000    0.571 
#    0.000    2.143    0.000    0.857    0.000    0.000 
#    0.000    0.000    0.000    0.000    0.000    0.000 
#
# Total GULP energy -156274.391371 kJ/mol
# GULP energy per Si atom -5581.228263 kJ/mol
# Density = 0.985406 g / cm^3
# Si number density = 9.876543 Si / 1000 Ang^3
#
#
#
# Elastic Constant Matrix: (Units=GPa)
#
#
# Indices 1 2 3 4 5 6 
#
# 1 60.0701 19.6955 22.8555 0.0000 -5.3867 0.0000
# 2 19.6955 61.5151 5.8358 0.0000 -6.6351 0.0000
# 3 22.8555 5.8358 58.4476 0.0000 -2.0303 0.0000
# 4 0.0000 0.0000 0.0000 6.9918 0.0000 9.0160
# 5 -5.3867 -6.6351 -2.0303 0.0000 16.2171 0.0000
# 6 0.0000 0.0000 0.0000 9.0160 0.0000 26.8588
#
#
#
# Elastic Compliance Matrix: (Units=1/GPa)
#
#
# Indices 1 2 3 4 5 6 
#
# 1 0.021898 -0.005847 -0.007844 0.000000 0.003900 0.000000
# 2 -0.005847 0.018693 0.000621 0.000000 0.005784 0.000000
# 3 -0.007844 0.000621 0.020120 0.000000 0.000167 0.000000
# 4 0.000000 0.000000 0.000000 0.252192 0.000000 -0.084657
# 5 0.003900 0.005784 0.000167 0.000000 0.065346 0.000000
# 6 0.000000 0.000000 0.000000 -0.084657 0.000000 0.065650
#
#
# Mechanical properties :
#
#
# Convention : Reuss Voigt Hill
#
# Bulk Modulus (GPa) = 28.92485 30.75626 29.84056
# Shear Modulus (GPa) = 10.38286 18.78993 14.58639
#
# Velocity S-wave (km/s) = 2.29515 3.08756 2.72037
# Velocity P-wave (km/s) = 4.65818 5.32117 5.00068
#
# Compressibility (1/GPa) = 0.03457234
#
# Stress axis : x y z
#
# Youngs Moduli (GPa) = 45.66560 53.49589 49.70059
#
# Poissons Ratio (x) = 0.31276 0.38985
# Poissons Ratio (y) = 0.26698 -0.03085
# Poissons Ratio (z) = 0.35820 -0.03321
#
# Static dielectric constant tensor:
#      x y z
#    x 1.737320 0.000000 -0.034810 
#    y 0.000000 1.728740 0.000000 
#    z -0.034810 0.000000 1.716170 
# 
# From -- ./inp_files/59371.got.cif
#   From: 2010.05.17/outbox.ucp.g08.bks.cvg/sg15_30_cif.got.tgz:59371.got - 2010.06.11 12:40:34.
