data_PCOD9308497
_publ_section_title
;
Structure prediction by ZEFSAII (Michael W. Deem and Ramdas Pophale) SiO2 
 PCOD9308497
Probable space group: C 2/C
;
_chemical_formula_sum "Si O2"
_cell_formula_units_Z 64
_cell_length_a 12.021681
_cell_length_b 7.159357
_cell_length_c 28.913803
_cell_angle_alpha 90.000000
_cell_angle_beta 119.640180
_cell_angle_gamma 90.000000
_cell_volume 2162.909435
_symmetry_space_group_name_H-M "C 2/C"
_symmetry_group_IT_number 15
_symmetry_cell_setting 'monoclinic'
loop_
_space_group_symop_operation_xyz
x,y,z
-x,y,1/2-z
-x,-y,-z
x,-y,1/2+z
1/2+x,1/2+y,z
1/2-x,1/2+y,1/2-z
1/2-x,1/2-y,-z
1/2+x,1/2-y,1/2+z
loop_
_atom_site_type_symbol
_atom_site_label
_atom_site_fract_x
_atom_site_fract_y
_atom_site_fract_z
Si Si1 0.184640 0.524243 0.272107
Si Si2 0.938275 0.895683 0.145252
Si Si3 0.324546 0.059795 0.962539
Si Si4 0.835747 0.963551 0.216802
Si Si5 0.674890 0.495547 0.014510
Si Si6 0.407089 0.500495 0.408639
Si Si7 0.064708 0.456959 0.335210
Si Si8 0.413034 0.907958 0.388211
O O1 0.151119 0.740717 0.272481
O O2 0.304865 0.529529 0.262551
O O3 0.176694 0.422339 0.320580
O O4 0.067087 0.430467 0.220353
O O5 0.809393 0.958694 0.092871
O O6 0.936405 0.998967 0.195205
O O7 0.926868 0.676204 0.151803
O O8 0.048807 0.907634 0.129626
O O9 0.334236 0.279101 0.978556
O O10 0.426931 0.009902 0.943053
O O11 0.292265 0.957631 0.004085
O O12 0.699291 0.009072 0.163351
O O13 0.674431 0.411752 0.066158
O O14 0.542279 0.450542 0.962106
O O15 0.355274 0.702708 0.384412
O O16 0.033007 0.375130 0.379000
#
# Coordination Sequence:
#
# PCOD9308497 Si02
#       8
#     8   8   8   8   8   8   8   8
#     4   9  18  32  48  65  88 118 148 179 218 262
#     4   9  17  29  46  67  88 113 147 182 218 261
#     4   8  14  27  48  66  84 116 150 178 216 265
#     4   9  18  31  46  65  88 116 148 179 216 263
#     4   8  14  26  46  66  88 114 148 184 218 254
#     4   9  16  26  46  71  88 110 150 189 214 250
#     4   9  18  32  46  63  92 122 142 173 226 270
#     4   9  17  29  46  67  88 113 147 182 218 261
#
# _framework density 29.589774999999999
#
# number of rings (size 3 to 8) (size 9 to 14) (size 15 to 20)
#    0.000    3.250    0.000    0.000    0.000    2.000 
#    0.000    0.000    0.000   28.500    0.000    0.000 
#    0.000    0.000    0.000    0.000    0.000    0.000 
#
# Total GULP energy -178898.675609 kJ/mol
# GULP energy per Si atom -5590.583613 kJ/mol
# Density = 2.952243 g / cm^3
# Si number density = 29.589775 Si / 1000 Ang^3
#
#
#
# Elastic Constant Matrix: (Units=GPa)
#
#
# Indices 1 2 3 4 5 6 
#
# 1 259.2723 20.0641 89.6936 0.0000 -85.3870 0.0000
# 2 20.0641 70.9659 17.1859 0.0000 -13.7316 0.0000
# 3 89.6936 17.1859 212.1977 0.0000 -67.4694 0.0000
# 4 0.0000 0.0000 0.0000 18.2225 0.0000 -12.4284
# 5 -85.3870 -13.7316 -67.4694 0.0000 71.0411 0.0000
# 6 0.0000 0.0000 0.0000 -12.4284 0.0000 39.6346
#
#
#
# Elastic Compliance Matrix: (Units=1/GPa)
#
#
# Indices 1 2 3 4 5 6 
#
# 1 0.006411 -0.000312 -0.000363 0.000000 0.007300 0.000000
# 2 -0.000312 0.014679 -0.000393 0.000000 0.002089 0.000000
# 3 -0.000363 -0.000393 0.006783 0.000000 0.005930 0.000000
# 4 0.000000 0.000000 0.000000 0.069807 0.000000 0.021890
# 5 0.007300 0.002089 0.005930 0.000000 0.028886 0.000000
# 6 0.000000 0.000000 0.000000 0.021890 0.000000 0.032095
#
#
# Mechanical properties :
#
#
# Convention : Reuss Voigt Hill
#
# Bulk Modulus (GPa) = 38.85458 88.48035 63.66747
# Shear Modulus (GPa) = 29.52019 53.47911 41.49965
#
# Velocity S-wave (km/s) = 3.16198 4.25591 3.74906
# Velocity P-wave (km/s) = 5.14689 7.35647 6.34854
#
# Compressibility (1/GPa) = 0.02573699
#
# Stress axis : x y z
#
# Youngs Moduli (GPa) = 155.98150 68.12516 147.41973
#
# Poissons Ratio (x) = 0.02126 0.05358
# Poissons Ratio (y) = 0.04867 0.05788
# Poissons Ratio (z) = 0.05670 0.02675
#
# Static dielectric constant tensor:
#      x y z
#    x 2.485340 0.000000 -0.010160 
#    y 0.000000 2.411250 0.000000 
#    z -0.010160 0.000000 2.395060 
# 
# From -- ./inp_files/312687.got.cif
#   From: 2010.05.17/outbox.cif.g08.bks.cpg/sg15_157_cif.got.tgz:312687.got - 2010.06.03 18:47:42.
