data_PCOD9308808
_publ_section_title
;
Structure prediction by ZEFSAII (Michael W. Deem and Ramdas Pophale) SiO2 
 PCOD9308808
Probable space group: C 2/C
;
_chemical_formula_sum "Si O2"
_cell_formula_units_Z 24
_cell_length_a 12.000000
_cell_length_b 24.000000
_cell_length_c 9.000000
_cell_angle_alpha 90.000000
_cell_angle_beta 70.000000
_cell_angle_gamma 90.000000
_cell_volume 2435.683273
_symmetry_space_group_name_H-M "C 2/C"
_symmetry_group_IT_number 15
_symmetry_cell_setting 'monoclinic'
loop_
_space_group_symop_operation_xyz
x,y,z
-x,y,1/2-z
-x,-y,-z
x,-y,1/2+z
1/2+x,1/2+y,z
1/2-x,1/2+y,1/2-z
1/2-x,1/2-y,-z
1/2+x,1/2-y,1/2+z
loop_
_atom_site_type_symbol
_atom_site_label
_atom_site_fract_x
_atom_site_fract_y
_atom_site_fract_z
Si Si1 0.632238 0.904538 0.639465
Si Si2 0.439573 0.141062 0.636859
Si Si3 0.834363 0.310012 0.630985
Si Si4 0.707823 0.313000 0.385062
Si Si5 0.660002 0.474359 0.053426
Si Si6 0.098291 0.930456 0.397763
O O1 0.500000 0.921164 0.750000
O O2 0.619965 0.891129 0.470622
O O3 0.671187 0.851874 0.725626
O O4 0.731131 0.951581 0.592090
O O5 0.500000 0.109676 0.750000
O O6 0.545229 0.173607 0.508512
O O7 0.337191 0.178473 0.754005
O O8 0.730082 0.313612 0.553817
O O9 0.841252 0.244380 0.657951
O O10 0.628647 0.365929 0.381672
O O11 0.659668 0.459994 0.227566
O O12 0.540619 0.443640 0.051180
O O13 0.645550 0.539409 0.024099
#
# Coordination Sequence:
#
# PCOD9308808 Si02
#       6
#     8   8   8   8   8   8
#     4  10  20  39  59  90 121 153 196 242 292 355
#     4   9  18  36  57  79 121 157 189 245 291 346
#     4   9  21  34  57  89 123 157 191 241 298 349
#     4  10  19  38  58  85 118 161 200 233 298 356
#     4  10  22  41  60  89 115 155 200 245 300 340
#     4  10  22  40  63  84 118 153 199 250 289 347
#
# _framework density 9.8534980000000001
#
# number of rings (size 3 to 8) (size 9 to 14) (size 15 to 20)
#    0.000    2.333    1.667    0.000    2.333    2.000 
#    9.000    5.000    0.000    0.000    0.000    0.000 
#    0.000    0.000    0.000    0.000    0.000    0.000 
#
# Total GULP energy -133640.554450 kJ/mol
# GULP energy per Si atom -5568.356435 kJ/mol
# Density = 0.983107 g / cm^3
# Si number density = 9.853498 Si / 1000 Ang^3
#
#
#
# Elastic Constant Matrix: (Units=GPa)
#
#
# Indices 1 2 3 4 5 6 
#
# 1 41.4416 14.0593 17.9875 0.0000 1.7750 0.0000
# 2 14.0593 39.9998 7.9877 0.0000 -1.7024 0.0000
# 3 17.9875 7.9877 67.0085 0.0000 12.2183 0.0000
# 4 0.0000 0.0000 0.0000 7.0519 0.0000 10.6480
# 5 1.7750 -1.7024 12.2183 0.0000 16.4993 0.0000
# 6 0.0000 0.0000 0.0000 10.6480 0.0000 4.2965
#
#
#
# Elastic Compliance Matrix: (Units=1/GPa)
#
#
# Indices 1 2 3 4 5 6 
#
# 1 0.030343 -0.009164 -0.007266 0.000000 0.001171 0.000000
# 2 -0.009164 0.028845 -0.001966 0.000000 0.005418 0.000000
# 3 -0.007266 -0.001966 0.019657 0.000000 -0.013978 0.000000
# 4 0.000000 0.000000 0.000000 -0.051714 0.000000 0.128163
# 5 0.001171 0.005418 -0.013978 0.000000 0.071393 0.000000
# 6 0.000000 0.000000 0.000000 0.128163 0.000000 -0.084879
#
#
# Mechanical properties :
#
#
# Convention : Reuss Voigt Hill
#
# Bulk Modulus (GPa) = 23.78066 25.39101 24.58583
# Shear Modulus (GPa) = 77.57336 12.79722 45.18529
#
# Velocity S-wave (km/s) = 6.28083 2.55105 4.79357
# Velocity P-wave (km/s) = 8.04312 4.64643 6.56815
#
# Compressibility (1/GPa) = 0.04205098
#
# Stress axis : x y z
#
# Youngs Moduli (GPa) = 32.95634 34.66864 50.87205
#
# Poissons Ratio (x) = 0.31771 0.36965
# Poissons Ratio (y) = 0.30202 0.10003
# Poissons Ratio (z) = 0.23947 0.06817
#
# Static dielectric constant tensor:
#      x y z
#    x 1.740270 0.000000 0.021060 
#    y 0.000000 1.692490 0.000000 
#    z 0.021060 0.000000 1.732430 
# 
# From -- ./inp_files/32539.got.cif
#   From: 2010.05.17/outbox.ucp.g08.bks.cvg/sg15_17_cif.got.tgz:32539.got - 2010.06.11 12:40:34.
