data_PCOD9308243
_publ_section_title
;
Structure prediction by ZEFSAII (Michael W. Deem and Ramdas Pophale) SiO2 
 PCOD9308243
Probable space group: C 2/C
;
_chemical_formula_sum "Si O2"
_cell_formula_units_Z 36
_cell_length_a 18.154855
_cell_length_b 5.670276
_cell_length_c 14.734154
_cell_angle_alpha 90.000000
_cell_angle_beta 93.264894
_cell_angle_gamma 90.000000
_cell_volume 1514.316700
_symmetry_space_group_name_H-M "C 2/C"
_symmetry_group_IT_number 15
_symmetry_cell_setting 'monoclinic'
loop_
_space_group_symop_operation_xyz
x,y,z
-x,y,1/2-z
-x,-y,-z
x,-y,1/2+z
1/2+x,1/2+y,z
1/2-x,1/2+y,1/2-z
1/2-x,1/2-y,-z
1/2+x,1/2-y,1/2+z
loop_
_atom_site_type_symbol
_atom_site_label
_atom_site_fract_x
_atom_site_fract_y
_atom_site_fract_z
Si Si1 0.038660 0.120291 0.089554
Si Si2 0.714591 0.018526 0.723382
Si Si3 0.591507 0.957278 0.352401
Si Si4 0.000000 0.841009 0.250000
Si Si5 0.819835 0.602030 0.972143
O O1 0.113055 0.236000 0.058615
O O2 0.977428 0.298405 0.125163
O O3 0.052242 0.964220 0.179618
O O4 0.000000 0.000000 0.000000
O O5 0.760992 0.266765 0.730263
O O6 0.703546 0.954995 0.617262
O O7 0.639868 0.101407 0.768228
O O8 0.554028 0.201422 0.321077
O O9 0.646281 0.962943 0.441127
O O10 0.750000 0.750000 0.000000
#
# Coordination Sequence:
#
# PCOD9308243 Si02
#       5
#     8   8   8   4   8
#     4  12  28  48  82 113 156 214 275 334 401 492
#     4  12  30  51  81 119 167 213 265 335 415 483
#     4  12  28  50  78 118 156 212 274 332 408 488
#     4  12  26  50  80 110 162 204 276 330 404 484
#     4  12  27  50  78 119 159 208 269 343 402 489
#
# _framework density 23.773097
#
# number of rings (size 3 to 8) (size 9 to 14) (size 15 to 20)
#    0.000    0.000    4.444    4.000   12.444    0.889 
#    0.000    0.000    0.000    0.000    0.000    0.000 
#    0.000    0.000    0.000    0.000    0.000    0.000 
#
# Total GULP energy -100636.811193 kJ/mol
# GULP energy per Si atom -5590.933955 kJ/mol
# Density = 2.371899 g / cm^3
# Si number density = 23.773097 Si / 1000 Ang^3
#
#
#
# Elastic Constant Matrix: (Units=GPa)
#
#
# Indices 1 2 3 4 5 6 
#
# 1 102.3975 3.8019 -10.9388 0.0000 -27.0824 0.0000
# 2 3.8019 48.0004 2.0447 0.0000 5.4401 0.0000
# 3 -10.9388 2.0447 123.8469 0.0000 5.1064 0.0000
# 4 0.0000 0.0000 0.0000 37.5469 0.0000 -7.6813
# 5 -27.0824 5.4401 5.1064 0.0000 58.2964 0.0000
# 6 0.0000 0.0000 0.0000 -7.6813 0.0000 -35.7255
#
#
#
# Elastic Compliance Matrix: (Units=1/GPa)
#
#
# Indices 1 2 3 4 5 6 
#
# 1 0.011319 -0.001535 0.000805 0.000000 0.005331 0.000000
# 2 -0.001535 0.021273 -0.000377 0.000000 -0.002665 0.000000
# 3 0.000805 -0.000377 0.008164 0.000000 -0.000306 0.000000
# 4 0.000000 0.000000 0.000000 0.025511 0.000000 -0.005485
# 5 0.005331 -0.002665 -0.000306 0.000000 0.019906 0.000000
# 6 0.000000 0.000000 0.000000 -0.005485 0.000000 -0.026812
#
#
# Mechanical properties :
#
#
# Convention : Reuss Voigt Hill
#
# Bulk Modulus (GPa) = 25.94512 29.34004 27.64258
# Shear Modulus (GPa) = 67.18422 30.64602 48.91512
#
# Velocity S-wave (km/s) = 5.32184 3.59431 4.54098
# Velocity P-wave (km/s) = 6.97854 5.44003 6.25675
#
# Compressibility (1/GPa) = 0.03854289
#
# Stress axis : x y z
#
# Youngs Moduli (GPa) = 88.34817 47.00828 122.48224
#
# Poissons Ratio (x) = 0.07216 -0.09863
# Poissons Ratio (y) = 0.13561 0.04616
# Poissons Ratio (z) = -0.07114 0.01772
#
# Static dielectric constant tensor:
#      x y z
#    x 1.904990 0.000000 0.034690 
#    y 0.000000 2.005570 0.000000 
#    z 0.034690 0.000000 1.905580 
# 
# From -- ./inp_files/165091.got.cif
#   From: 2010.05.17/outbox.cif.g08.bks.cpg/sg15_83_cif.got.tgz:165091.got - 2010.06.03 18:47:42.
