data_PCOD9308393
_publ_section_title
;
Structure prediction by ZEFSAII (Michael W. Deem and Ramdas Pophale) SiO2 
 PCOD9308393
Probable space group: C 2/C
;
_chemical_formula_sum "Si O2"
_cell_formula_units_Z 32
_cell_length_a 19.790513
_cell_length_b 7.295499
_cell_length_c 8.633012
_cell_angle_alpha 90.000000
_cell_angle_beta 73.524807
_cell_angle_gamma 90.000000
_cell_volume 1195.272746
_symmetry_space_group_name_H-M "C 2/C"
_symmetry_group_IT_number 15
_symmetry_cell_setting 'monoclinic'
loop_
_space_group_symop_operation_xyz
x,y,z
-x,y,1/2-z
-x,-y,-z
x,-y,1/2+z
1/2+x,1/2+y,z
1/2-x,1/2+y,1/2-z
1/2-x,1/2-y,-z
1/2+x,1/2-y,1/2+z
loop_
_atom_site_type_symbol
_atom_site_label
_atom_site_fract_x
_atom_site_fract_y
_atom_site_fract_z
Si Si1 0.017529 0.798058 0.556277
Si Si2 0.304437 0.546770 0.883742
Si Si3 0.830295 0.362909 0.631173
Si Si4 0.371280 0.748289 0.135759
O O1 0.094517 0.720777 0.469709
O O2 0.000000 0.788745 0.750000
O O3 0.949740 0.699280 0.526037
O O4 0.167719 0.147349 0.481807
O O5 0.231701 0.434331 0.942638
O O6 0.298164 0.707608 0.761485
O O7 0.360261 0.401503 0.778092
O O8 0.845324 0.554191 0.706778
O O9 0.500000 0.500000 0.000000
#
# Coordination Sequence:
#
# PCOD9308393 Si02
#       4
#     8   8   8   8
#     4  12  28  52  85 121 170 225 279 356 425 509
#     4  12  28  49  86 123 171 223 282 352 425 506
#     4  12  28  50  83 122 171 216 285 341 433 500
#     4  12  28  51  80 125 169 225 285 346 430 506
#
# _framework density 26.772131999999999
#
# number of rings (size 3 to 8) (size 9 to 14) (size 15 to 20)
#    0.000    0.000    5.000    3.000    3.500    1.000 
#    0.000    0.000    0.000    0.000    0.000    0.000 
#    0.000    0.000    0.000    0.000    0.000    0.000 
#
# Total GULP energy -89485.001818 kJ/mol
# GULP energy per Si atom -5592.812614 kJ/mol
# Density = 2.671120 g / cm^3
# Si number density = 26.772132 Si / 1000 Ang^3
#
#
#
# Elastic Constant Matrix: (Units=GPa)
#
#
# Indices 1 2 3 4 5 6 
#
# 1 185.3903 73.5093 92.1896 0.0000 -56.9218 0.0000
# 2 73.5093 211.4788 83.2525 0.0000 -1.5374 0.0000
# 3 92.1896 83.2525 161.4823 0.0000 -38.5507 0.0000
# 4 0.0000 0.0000 0.0000 36.8392 0.0000 -27.3352
# 5 -56.9218 -1.5374 -38.5507 0.0000 48.8452 0.0000
# 6 0.0000 0.0000 0.0000 -27.3352 0.0000 33.7023
#
#
#
# Elastic Compliance Matrix: (Units=1/GPa)
#
#
# Indices 1 2 3 4 5 6 
#
# 1 0.010998 -0.002895 -0.002154 0.000000 0.011026 0.000000
# 2 -0.002895 0.007009 -0.003344 0.000000 -0.005792 0.000000
# 3 -0.002154 -0.003344 0.010500 0.000000 0.005671 0.000000
# 4 0.000000 0.000000 0.000000 0.068174 0.000000 0.055295
# 5 0.011026 -0.005792 0.005671 0.000000 0.037615 0.000000
# 6 0.000000 0.000000 0.000000 0.055295 0.000000 0.074520
#
#
# Mechanical properties :
#
#
# Convention : Reuss Voigt Hill
#
# Bulk Modulus (GPa) = 85.30785 117.36157 101.33471
# Shear Modulus (GPa) = 21.78555 44.50402 33.14478
#
# Velocity S-wave (km/s) = 2.85571 4.08159 3.52239
# Velocity P-wave (km/s) = 6.54271 8.13295 7.38078
#
# Compressibility (1/GPa) = 0.01172225
#
# Stress axis : x y z
#
# Youngs Moduli (GPa) = 90.92225 142.67505 95.23562
#
# Poissons Ratio (x) = 0.41300 0.20518
# Poissons Ratio (y) = 0.26319 0.31842
# Poissons Ratio (z) = 0.19589 0.47704
#
# Static dielectric constant tensor:
#      x y z
#    x 2.335440 0.000000 -0.044580 
#    y 0.000000 2.126990 0.000000 
#    z -0.044580 0.000000 2.093020 
# 
# From -- ./inp_files/164964.got.cif
#   From: 2010.05.17/outbox.cif.g08.bks.cpg/sg15_83_cif.got.tgz:164964.got - 2010.06.03 18:47:42.
