data_PCOD9308228
_publ_section_title
;
Structure prediction by ZEFSAII (Michael W. Deem and Ramdas Pophale) SiO2 
 PCOD9308228
Probable space group: C 2/C
;
_chemical_formula_sum "Si O2"
_cell_formula_units_Z 24
_cell_length_a 11.769403
_cell_length_b 10.755236
_cell_length_c 18.824522
_cell_angle_alpha 90.000000
_cell_angle_beta 22.066310
_cell_angle_gamma 90.000000
_cell_volume 895.191016
_symmetry_space_group_name_H-M "C 2/C"
_symmetry_group_IT_number 15
_symmetry_cell_setting 'monoclinic'
loop_
_space_group_symop_operation_xyz
x,y,z
-x,y,1/2-z
-x,-y,-z
x,-y,1/2+z
1/2+x,1/2+y,z
1/2-x,1/2+y,1/2-z
1/2-x,1/2-y,-z
1/2+x,1/2-y,1/2+z
loop_
_atom_site_type_symbol
_atom_site_label
_atom_site_fract_x
_atom_site_fract_y
_atom_site_fract_z
Si Si1 0.093151 0.140985 0.451146
Si Si2 0.085166 0.191400 0.300717
Si Si3 0.500000 0.460496 0.250000
Si Si4 0.750000 0.750000 0.500000
O O1 0.785650 0.218080 0.638249
O O2 0.229872 0.193650 0.297376
O O3 0.246429 0.150075 0.438097
O O4 0.000000 0.000000 0.500000
O O5 0.750000 0.250000 0.500000
O O6 0.101655 0.057231 0.253242
O O7 0.283339 0.364714 0.416631
#
# Coordination Sequence:
#
# PCOD9308228 Si02
#       4
#     8   8   4   4
#     4  12  27  50  80 116 160 210 270 347 419 503
#     4  12  26  51  80 113 156 216 271 342 422 500
#     4  12  26  50  74 116 156 212 272 336 412 488
#     4  12  28  50  74 118 160 210 278 336 414 498
#
# _framework density 26.809922
#
# number of rings (size 3 to 8) (size 9 to 14) (size 15 to 20)
#    0.000    0.000    6.667    2.000    0.000    6.667 
#    6.000    0.000    0.000    0.000    0.000    0.000 
#    0.000    0.000    0.000    0.000    0.000    0.000 
#
# Total GULP energy -66803.176598 kJ/mol
# GULP energy per Si atom -5566.931383 kJ/mol
# Density = 2.674890 g / cm^3
# Si number density = 26.809922 Si / 1000 Ang^3
#
#
#
# Elastic Constant Matrix: (Units=GPa)
#
#
# Indices 1 2 3 4 5 6 
#
# 1 235.6174 24.2336 46.1468 -0.0387 43.7501 0.0358
# 2 24.2336 194.4258 46.7437 -0.0959 20.3126 0.0252
# 3 46.1468 46.7437 180.7097 -0.0433 53.3541 0.0753
# 4 -0.0387 -0.0959 -0.0433 54.7901 0.0042 18.1303
# 5 43.7501 20.3126 53.3541 0.0042 61.4640 -0.0379
# 6 0.0358 0.0252 0.0753 18.1303 -0.0379 71.9945
#
#
#
# Elastic Compliance Matrix: (Units=1/GPa)
#
#
# Indices 1 2 3 4 5 6 
#
# 1 0.004911 -0.000217 -0.000252 0.000005 -0.003206 -0.000005
# 2 -0.000217 0.005522 -0.001183 0.000010 -0.000644 -0.000003
# 3 -0.000252 -0.001183 0.007712 0.000009 -0.006125 -0.000013
# 4 0.000005 0.000010 0.000009 0.019911 -0.000019 -0.005014
# 5 -0.003206 -0.000644 -0.006125 -0.000019 0.024081 0.000026
# 6 -0.000005 -0.000003 -0.000013 -0.005014 0.000026 0.015153
#
#
# Mechanical properties :
#
#
# Convention : Reuss Voigt Hill
#
# Bulk Modulus (GPa) = 67.37270 93.88899 80.63085
# Shear Modulus (GPa) = 58.45254 70.55831 64.50542
#
# Velocity S-wave (km/s) = 4.67439 5.13567 4.91045
# Velocity P-wave (km/s) = 7.37004 8.38231 7.89242
#
# Compressibility (1/GPa) = 0.01484281
#
# Stress axis : x y z
#
# Youngs Moduli (GPa) = 203.62610 181.09283 129.66356
#
# Poissons Ratio (x) = 0.03925 0.03262
# Poissons Ratio (y) = 0.04413 0.15338
# Poissons Ratio (z) = 0.05123 0.21422
#
# Static dielectric constant tensor:
#      x y z
#    x 1.827530 -0.000170 0.105070 
#    y -0.000170 2.032050 0.000020 
#    z 0.105070 0.000020 2.132250 
# 
# From -- ./inp_files/83419.got.cif
#   From: 2010.05.17/outbox.cif.g08.bks.cpg/sg15_42_cif.got.tgz:83419.got - 2010.06.03 18:47:42.
