data_PCOD9308077
_publ_section_title
;
Structure prediction by ZEFSAII (Michael W. Deem and Ramdas Pophale) SiO2 
 PCOD9308077
Probable space group: C 2/C
;
_chemical_formula_sum "Si O2"
_cell_formula_units_Z 32
_cell_length_a 15.904679
_cell_length_b 6.259627
_cell_length_c 14.375717
_cell_angle_alpha 90.000000
_cell_angle_beta 118.791127
_cell_angle_gamma 90.000000
_cell_volume 1254.284248
_symmetry_space_group_name_H-M "C 2/C"
_symmetry_group_IT_number 15
_symmetry_cell_setting 'monoclinic'
loop_
_space_group_symop_operation_xyz
x,y,z
-x,y,1/2-z
-x,-y,-z
x,-y,1/2+z
1/2+x,1/2+y,z
1/2-x,1/2+y,1/2-z
1/2-x,1/2-y,-z
1/2+x,1/2-y,1/2+z
loop_
_atom_site_type_symbol
_atom_site_label
_atom_site_fract_x
_atom_site_fract_y
_atom_site_fract_z
Si Si1 0.151727 0.197888 0.782680
Si Si2 0.526670 0.055429 0.620526
Si Si3 0.641095 0.338119 0.929037
Si Si4 0.837294 0.919870 0.881162
O O1 0.071765 0.358430 0.700860
O O2 0.241929 0.319850 0.874205
O O3 0.126569 0.007805 0.839079
O O4 0.193092 0.093627 0.710422
O O5 0.431528 0.142218 0.619393
O O6 0.601542 0.246960 0.642626
O O7 0.500000 0.000000 0.500000
O O8 0.750000 0.250000 0.000000
O O9 0.610359 0.461505 0.006956
#
# Coordination Sequence:
#
# PCOD9308077 Si02
#       4
#     8   8   8   8
#     4  12  26  50  85 117 160 216 271 335 416 481
#     4  12  27  53  80 112 165 214 266 339 410 488
#     4  12  28  53  82 124 160 213 280 337 406 494
#     4  12  25  55  76 113 164 206 268 338 403 490
#
# _framework density 25.512559
#
# number of rings (size 3 to 8) (size 9 to 14) (size 15 to 20)
#    0.000    0.000    5.000    4.500    0.000    1.000 
#    9.000    0.000    0.000    0.000    0.000    0.000 
#    0.000    0.000    0.000    0.000    0.000    0.000 
#
# Total GULP energy -89749.830985 kJ/mol
# GULP energy per Si atom -5609.364437 kJ/mol
# Density = 2.545449 g / cm^3
# Si number density = 25.512559 Si / 1000 Ang^3
#
#
#
# Elastic Constant Matrix: (Units=GPa)
#
#
# Indices 1 2 3 4 5 6 
#
# 1 128.2227 68.2928 32.0901 0.0000 25.9335 0.0000
# 2 68.2928 129.1099 54.8846 0.0000 19.9616 0.0000
# 3 32.0901 54.8846 104.9010 0.0000 -0.6597 0.0000
# 4 0.0000 0.0000 0.0000 76.2491 0.0000 -7.9539
# 5 25.9335 19.9616 -0.6597 0.0000 54.7251 0.0000
# 6 0.0000 0.0000 0.0000 -7.9539 0.0000 64.6065
#
#
#
# Elastic Compliance Matrix: (Units=1/GPa)
#
#
# Indices 1 2 3 4 5 6 
#
# 1 0.011481 -0.005169 -0.000830 0.000000 -0.003565 0.000000
# 2 -0.005169 0.013096 -0.005286 0.000000 -0.002391 0.000000
# 3 -0.000830 -0.005286 0.012568 0.000000 0.002473 0.000000
# 4 0.000000 0.000000 0.000000 0.013286 0.000000 0.001636
# 5 -0.003565 -0.002391 0.002473 0.000000 0.020865 0.000000
# 6 0.000000 0.000000 0.000000 0.001636 0.000000 0.015680
#
#
# Mechanical properties :
#
#
# Convention : Reuss Voigt Hill
#
# Bulk Modulus (GPa) = 68.60917 74.75205 71.68061
# Shear Modulus (GPa) = 43.70557 52.91389 48.30973
#
# Velocity S-wave (km/s) = 4.14345 4.55910 4.35623
# Velocity P-wave (km/s) = 7.05986 7.55497 7.31160
#
# Compressibility (1/GPa) = 0.01457531
#
# Stress axis : x y z
#
# Youngs Moduli (GPa) = 87.10351 76.35955 79.56793
#
# Poissons Ratio (x) = 0.39467 0.06606
# Poissons Ratio (y) = 0.45020 0.42058
# Poissons Ratio (z) = 0.07232 0.40362
#
# Static dielectric constant tensor:
#      x y z
#    x 1.996770 0.000000 0.049360 
#    y 0.000000 2.034640 0.000000 
#    z 0.049360 0.000000 2.099020 
# 
# From -- ./inp_files/207897.got.cif
#   From: 2010.05.17/outbox.cif.g08.bks.cpg/sg15_104_cif.got.tgz:207897.got - 2010.06.03 18:47:42.
