data_PCOD9308121
_publ_section_title
;
Structure prediction by ZEFSAII (Michael W. Deem and Ramdas Pophale) SiO2 
 PCOD9308121
Probable space group: C 2/C
;
_chemical_formula_sum "Si O2"
_cell_formula_units_Z 44
_cell_length_a 6.604908
_cell_length_b 17.313690
_cell_length_c 21.889325
_cell_angle_alpha 90.000000
_cell_angle_beta 127.123426
_cell_angle_gamma 90.000000
_cell_volume 1995.863448
_symmetry_space_group_name_H-M "C 2/C"
_symmetry_group_IT_number 15
_symmetry_cell_setting 'monoclinic'
loop_
_space_group_symop_operation_xyz
x,y,z
-x,y,1/2-z
-x,-y,-z
x,-y,1/2+z
1/2+x,1/2+y,z
1/2-x,1/2+y,1/2-z
1/2-x,1/2-y,-z
1/2+x,1/2-y,1/2+z
loop_
_atom_site_type_symbol
_atom_site_label
_atom_site_fract_x
_atom_site_fract_y
_atom_site_fract_z
Si Si1 0.344760 0.414007 0.631095
Si Si2 0.444933 0.136049 0.806100
Si Si3 0.191542 0.668157 0.461309
Si Si4 0.500000 0.469663 0.250000
Si Si5 0.730858 0.287585 0.667279
Si Si6 0.052286 0.040555 0.573584
O O1 0.315576 0.470711 0.682814
O O2 0.561892 0.349575 0.672890
O O3 0.446843 0.477041 0.601156
O O4 0.085350 0.367407 0.576197
O O5 0.500000 0.173346 0.750000
O O6 0.399846 0.202900 0.848287
O O7 0.666979 0.075298 0.863950
O O8 0.186802 0.087476 0.748641
O O9 0.250000 0.750000 0.500000
O O10 0.239828 0.679949 0.396853
O O11 0.376672 0.614477 0.534326
O O12 0.000000 0.281207 0.750000
O O13 0.000000 0.000000 0.500000
#
# Coordination Sequence:
#
# PCOD9308121 Si02
#       6
#     8   8   8   4   8   8
#     4  12  27  47  77 106 150 195 251 313 374 443
#     4  12  28  49  74 111 151 197 250 312 378 452
#     4  12  29  48  75 110 151 199 249 308 381 451
#     4  12  26  46  78 108 142 196 250 312 370 440
#     4  12  29  48  74 109 150 200 251 306 373 456
#     4  12  26  49  76 109 151 192 249 315 378 447
#
# _framework density 22.045594999999999
#
# number of rings (size 3 to 8) (size 9 to 14) (size 15 to 20)
#    0.000    0.000    4.545    3.818   14.000    1.455 
#    0.000    0.000    0.000    0.000    0.000    0.000 
#    0.000    0.000    0.000    0.000    0.000    0.000 
#
# Total GULP energy -122780.512962 kJ/mol
# GULP energy per Si atom -5580.932407 kJ/mol
# Density = 2.199542 g / cm^3
# Si number density = 22.045595 Si / 1000 Ang^3
#
#
#
# Elastic Constant Matrix: (Units=GPa)
#
#
# Indices 1 2 3 4 5 6 
#
# 1 98.5707 56.2422 31.3594 0.0000 32.4386 0.0000
# 2 56.2422 169.8752 24.2161 0.0000 19.7925 0.0000
# 3 31.3594 24.2161 48.7653 0.0000 20.4010 0.0000
# 4 0.0000 0.0000 0.0000 56.0213 0.0000 0.1047
# 5 32.4386 19.7925 20.4010 0.0000 24.7681 0.0000
# 6 0.0000 0.0000 0.0000 0.1047 0.0000 54.4263
#
#
#
# Elastic Compliance Matrix: (Units=1/GPa)
#
#
# Indices 1 2 3 4 5 6 
#
# 1 0.020073 -0.003850 -0.001961 0.000000 -0.021598 0.000000
# 2 -0.003850 0.007313 -0.001252 0.000000 0.000229 0.000000
# 3 -0.001961 -0.001252 0.031882 0.000000 -0.022692 0.000000
# 4 0.000000 0.000000 0.000000 0.017850 0.000000 -0.000034
# 5 -0.021598 0.000229 -0.022692 0.000000 0.087169 0.000000
# 6 0.000000 0.000000 0.000000 -0.000034 0.000000 0.018374
#
#
# Mechanical properties :
#
#
# Convention : Reuss Voigt Hill
#
# Bulk Modulus (GPa) = 22.15168 60.09406 41.12287
# Shear Modulus (GPa) = 23.60329 40.73604 32.16966
#
# Velocity S-wave (km/s) = 3.27564 4.30328 3.82414
# Velocity P-wave (km/s) = 4.93724 7.21173 6.18003
#
# Compressibility (1/GPa) = 0.04514330
#
# Stress axis : x y z
#
# Youngs Moduli (GPa) = 49.81757 136.74260 31.36524
#
# Poissons Ratio (x) = 0.52644 0.06151
# Poissons Ratio (y) = 0.19179 0.03926
# Poissons Ratio (z) = 0.09770 0.17116
#
# Static dielectric constant tensor:
#      x y z
#    x 1.858870 0.000000 -0.026050 
#    y 0.000000 1.743150 0.000000 
#    z -0.026050 0.000000 1.700180 
# 
# From -- ./inp_files/260928.got.cif
#   From: 2010.05.17/outbox.cif.g08.bks.cpg/sg15_131_cif.got.tgz:260928.got - 2010.06.03 18:47:42.
