data_PCOD9308500
_publ_section_title
;
Structure prediction by ZEFSAII (Michael W. Deem and Ramdas Pophale) SiO2 
 PCOD9308500
Probable space group: C 2/C
;
_chemical_formula_sum "Si O2"
_cell_formula_units_Z 28
_cell_length_a 7.622709
_cell_length_b 14.128645
_cell_length_c 15.829228
_cell_angle_alpha 90.000000
_cell_angle_beta 37.472167
_cell_angle_gamma 90.000000
_cell_volume 1037.150153
_symmetry_space_group_name_H-M "C 2/C"
_symmetry_group_IT_number 15
_symmetry_cell_setting 'monoclinic'
loop_
_space_group_symop_operation_xyz
x,y,z
-x,y,1/2-z
-x,-y,-z
x,-y,1/2+z
1/2+x,1/2+y,z
1/2-x,1/2+y,1/2-z
1/2-x,1/2-y,-z
1/2+x,1/2-y,1/2+z
loop_
_atom_site_type_symbol
_atom_site_label
_atom_site_fract_x
_atom_site_fract_y
_atom_site_fract_z
Si Si1 0.409524 0.778338 0.636745
Si Si2 0.000000 0.149073 0.750000
Si Si3 0.198639 0.453629 0.514096
Si Si4 0.256944 0.379207 0.090699
O O1 0.325180 0.719127 0.752985
O O2 0.413665 0.891096 0.642499
O O3 0.271487 0.732567 0.605656
O O4 0.750000 0.750000 0.500000
O O5 0.812740 0.081333 0.880669
O O6 0.438949 0.415987 0.488794
O O7 0.198611 0.565668 0.527220
O O8 0.000000 0.415470 0.250000
#
# Coordination Sequence:
#
# PCOD9308500 Si02
#       4
#     8   4   8   8
#     4   8  16  30  50  78 111 145 184 227 278 332
#     4   8  14  28  48  74 106 144 184 220 270 342
#     4   9  18  32  53  83 113 149 185 229 288 331
#     4   9  17  31  53  85 109 146 189 230 276 340
#
# _framework density 26.997055
#
# number of rings (size 3 to 8) (size 9 to 14) (size 15 to 20)
#    0.000    4.000    0.000    0.000    2.000    0.000 
#    0.000    5.714    0.000   61.714   14.857    0.000 
#    0.000    0.000    0.000    0.000    0.000    0.000 
#
# Total GULP energy -78042.663167 kJ/mol
# GULP energy per Si atom -5574.475941 kJ/mol
# Density = 2.693561 g / cm^3
# Si number density = 26.997055 Si / 1000 Ang^3
#
#
#
# Elastic Constant Matrix: (Units=GPa)
#
#
# Indices 1 2 3 4 5 6 
#
# 1 126.8441 91.2274 13.6464 -0.0048 14.5793 0.0033
# 2 91.2274 173.2931 40.7973 -0.0039 19.4029 0.0034
# 3 13.6464 40.7973 66.3318 -0.0056 25.8246 0.0031
# 4 -0.0048 -0.0039 -0.0056 4.1074 0.0039 25.0497
# 5 14.5793 19.4029 25.8246 0.0039 32.4214 -0.0019
# 6 0.0033 0.0034 0.0031 25.0497 -0.0019 32.3862
#
#
#
# Elastic Compliance Matrix: (Units=1/GPa)
#
#
# Indices 1 2 3 4 5 6 
#
# 1 0.013272 -0.007315 0.003461 -0.000007 -0.004347 0.000004
# 2 -0.007315 0.010805 -0.005658 0.000002 0.001330 -0.000002
# 3 0.003461 -0.005658 0.024832 -0.000019 -0.017950 0.000011
# 4 -0.000007 0.000002 -0.000019 -0.065497 0.000027 0.050660
# 5 -0.004347 0.001330 -0.017950 0.000027 0.046300 -0.000016
# 6 0.000004 -0.000002 0.000011 0.050660 -0.000016 -0.008307
#
#
# Mechanical properties :
#
#
# Convention : Reuss Voigt Hill
#
# Bulk Modulus (GPa) = 33.46249 73.09012 53.27631
# Shear Modulus (GPa) = 99.22555 28.50286 63.86420
#
# Velocity S-wave (km/s) = 6.06910 3.25280 4.86902
# Velocity P-wave (km/s) = 7.84435 6.42182 7.16846
#
# Compressibility (1/GPa) = 0.02988421
#
# Stress axis : x y z
#
# Youngs Moduli (GPa) = 75.34701 92.55381 40.27061
#
# Poissons Ratio (x) = 0.67702 -0.13938
# Poissons Ratio (y) = 0.55115 0.22787
# Poissons Ratio (z) = -0.26078 0.52370
#
# Static dielectric constant tensor:
#      x y z
#    x 2.227460 0.000000 -0.051510 
#    y 0.000000 2.269780 0.000000 
#    z -0.051510 0.000000 2.174420 
# 
# From -- ./inp_files/188630.got.cif
#   From: 2010.05.17/outbox.cif.g08.bks.cpg/sg15_95_cif.got.tgz:188630.got - 2010.06.03 18:47:42.
