data_PCOD9308791
_publ_section_title
;
Structure prediction by ZEFSAII (Michael W. Deem and Ramdas Pophale) SiO2 
 PCOD9308791
Probable space group: C 2/C
;
_chemical_formula_sum "Si O2"
_cell_formula_units_Z 28
_cell_length_a 24.000000
_cell_length_b 15.000000
_cell_length_c 9.000000
_cell_angle_alpha 90.000000
_cell_angle_beta 120.000000
_cell_angle_gamma 90.000000
_cell_volume 2805.922308
_symmetry_space_group_name_H-M "C 2/C"
_symmetry_group_IT_number 15
_symmetry_cell_setting 'monoclinic'
loop_
_space_group_symop_operation_xyz
x,y,z
-x,y,1/2-z
-x,-y,-z
x,-y,1/2+z
1/2+x,1/2+y,z
1/2-x,1/2+y,1/2-z
1/2-x,1/2-y,-z
1/2+x,1/2-y,1/2+z
loop_
_atom_site_type_symbol
_atom_site_label
_atom_site_fract_x
_atom_site_fract_y
_atom_site_fract_z
Si Si1 0.255770 0.935518 0.937054
Si Si2 0.971580 0.418353 0.550078
Si Si3 0.518421 0.283919 0.454988
Si Si4 0.137409 0.038574 0.876780
Si Si5 0.445921 0.560219 0.003137
Si Si6 0.670070 0.302553 0.629845
Si Si7 0.180453 0.595877 0.672019
O O1 0.222987 0.854698 0.800336
O O2 0.197175 0.973740 0.955620
O O3 0.282549 0.016748 0.869040
O O4 0.305402 0.906737 0.131714
O O5 0.992092 0.319757 0.525609
O O6 0.894835 0.421756 0.451055
O O7 0.000000 0.425857 0.750000
O O8 0.000000 0.500000 0.500000
O O9 0.500000 0.300156 0.250000
O O10 0.475918 0.342691 0.511514
O O11 0.594848 0.301412 0.585152
O O12 0.117214 0.054506 0.681790
O O13 0.159268 0.131874 0.975847
O O14 0.078092 0.987410 0.878918
O O15 0.500000 0.500000 0.000000
O O16 0.690819 0.199429 0.633727
#
# Coordination Sequence:
#
# PCOD9308791 Si02
#       7
#     8   8   8   8   8   8   8
#     4  12  23  46  61  93 130 166 211 261 312 370
#     4  10  22  43  66  91 121 155 207 262 307 367
#     4  10  19  36  62  91 125 165 203 251 313 372
#     4  12  22  37  62  90 132 164 206 257 307 377
#     4  12  20  35  60  93 127 165 203 248 315 375
#     4  11  22  40  63  92 127 165 213 258 309 369
#     4  11  25  42  70  89 123 171 206 261 322 371
#
# _framework density 9.9788940000000004
#
# number of rings (size 3 to 8) (size 9 to 14) (size 15 to 20)
#    0.000    0.857    5.714    1.714    0.000    0.571 
#    0.000    7.143    0.000    0.000    0.000    0.000 
#    0.000    0.000    0.000    0.000    0.000    0.000 
#
# Total GULP energy -156078.801907 kJ/mol
# GULP energy per Si atom -5574.242925 kJ/mol
# Density = 0.995618 g / cm^3
# Si number density = 9.978894 Si / 1000 Ang^3
#
#
#
# Elastic Constant Matrix: (Units=GPa)
#
#
# Indices 1 2 3 4 5 6 
#
# 1 67.2358 51.4216 19.9672 0.0000 10.9157 0.0000
# 2 51.4216 158.6611 36.2147 0.0000 -0.6410 0.0000
# 3 19.9672 36.2147 120.4309 0.0000 21.8329 0.0000
# 4 0.0000 0.0000 0.0000 28.5244 0.0000 7.4673
# 5 10.9157 -0.6410 21.8329 0.0000 29.0303 0.0000
# 6 0.0000 0.0000 0.0000 7.4673 0.0000 34.5418
#
#
#
# Elastic Compliance Matrix: (Units=1/GPa)
#
#
# Indices 1 2 3 4 5 6 
#
# 1 0.021595 -0.007042 0.000043 0.000000 -0.008308 0.000000
# 2 -0.007042 0.009160 -0.002436 0.000000 0.004682 0.000000
# 3 0.000043 -0.002436 0.010469 0.000000 -0.007943 0.000000
# 4 0.000000 0.000000 0.000000 0.037161 0.000000 -0.008034
# 5 -0.008308 0.004682 -0.007943 0.000000 0.043648 0.000000
# 6 0.000000 0.000000 0.000000 -0.008034 0.000000 0.030687
#
#
# Mechanical properties :
#
#
# Convention : Reuss Voigt Hill
#
# Bulk Modulus (GPa) = 44.73360 62.39276 53.56318
# Shear Modulus (GPa) = 27.92667 34.33426 31.13046
#
# Velocity S-wave (km/s) = 3.74476 4.15220 3.95373
# Velocity P-wave (km/s) = 6.41564 7.37007 6.90936
#
# Compressibility (1/GPa) = 0.02235456
#
# Stress axis : x y z
#
# Youngs Moduli (GPa) = 46.30735 109.17027 95.52181
#
# Poissons Ratio (x) = 0.76881 -0.00415
# Poissons Ratio (y) = 0.32611 0.23266
# Poissons Ratio (z) = -0.00201 0.26591
#
# Static dielectric constant tensor:
#      x y z
#    x 1.726540 0.000000 0.000300 
#    y 0.000000 1.517180 0.000000 
#    z 0.000300 0.000000 1.736330 
# 
# From -- ./inp_files/61979.got.cif
#   From: 2010.05.17/outbox.ucp.g08.bks.cvg/sg15_31_cif.got.tgz:61979.got - 2010.06.11 12:40:34.
