data_PCOD9308933
_publ_section_title
;
Structure prediction by ZEFSAII (Michael W. Deem and Ramdas Pophale) SiO2 
 PCOD9308933
Probable space group: C 2/C
;
_chemical_formula_sum "Si O2"
_cell_formula_units_Z 26
_cell_length_a 15.000000
_cell_length_b 15.000000
_cell_length_c 12.000000
_cell_angle_alpha 90.000000
_cell_angle_beta 70.000000
_cell_angle_gamma 90.000000
_cell_volume 2537.170076
_symmetry_space_group_name_H-M "C 2/C"
_symmetry_group_IT_number 15
_symmetry_cell_setting 'monoclinic'
loop_
_space_group_symop_operation_xyz
x,y,z
-x,y,1/2-z
-x,-y,-z
x,-y,1/2+z
1/2+x,1/2+y,z
1/2-x,1/2+y,1/2-z
1/2-x,1/2-y,-z
1/2+x,1/2-y,1/2+z
loop_
_atom_site_type_symbol
_atom_site_label
_atom_site_fract_x
_atom_site_fract_y
_atom_site_fract_z
Si Si1 0.914354 0.831962 0.948437
Si Si2 0.158739 0.476684 0.535086
Si Si3 0.000000 0.601846 0.250000
Si Si4 0.338225 0.839800 0.145791
Si Si5 0.700172 0.457439 0.357604
Si Si6 0.448434 0.142458 0.021453
Si Si7 0.634292 0.645486 0.284880
O O1 0.863117 0.844926 0.850554
O O2 0.024801 0.848839 0.872055
O O3 0.885923 0.896074 0.063072
O O4 0.897654 0.730685 0.997553
O O5 0.185336 0.384295 0.463182
O O6 0.251852 0.516541 0.546912
O O7 0.107134 0.550393 0.479223
O O8 0.087507 0.456026 0.667382
O O9 0.030736 0.649828 0.353805
O O10 0.276311 0.897907 0.257745
O O11 0.321289 0.735238 0.178029
O O12 0.452508 0.857757 0.092044
O O13 0.675170 0.549546 0.304953
#
# Coordination Sequence:
#
# PCOD9308933 Si02
#       7
#     8   8   4   8   8   8   8
#     4  10  23  42  64  84 115 164 204 243 297 357
#     4  11  21  35  59  91 126 159 196 247 303 355
#     4  10  20  36  60  88 124 162 198 244 300 358
#     4  10  22  38  60  89 120 157 196 247 304 351
#     4  12  23  37  62  92 119 155 204 249 294 357
#     4  10  21  40  62  90 123 158 200 246 302 359
#     4  10  23  44  61  83 121 159 200 247 299 357
#
# _framework density 10.247638
#
# number of rings (size 3 to 8) (size 9 to 14) (size 15 to 20)
#    0.000    1.538    0.000    6.000    0.000    8.000 
#    0.000    9.231    0.000    0.000    0.000    0.000 
#    0.000    0.000    0.000    0.000    0.000    0.000 
#
# Total GULP energy -145058.312032 kJ/mol
# GULP energy per Si atom -5579.165847 kJ/mol
# Density = 1.022431 g / cm^3
# Si number density = 10.247638 Si / 1000 Ang^3
#
#
#
# Elastic Constant Matrix: (Units=GPa)
#
#
# Indices 1 2 3 4 5 6 
#
# 1 36.2052 31.8449 30.4376 0.0000 7.7304 0.0000
# 2 31.8449 165.4843 75.0673 0.0000 1.1959 0.0000
# 3 30.4376 75.0673 127.6891 0.0000 9.2232 0.0000
# 4 0.0000 0.0000 0.0000 24.7890 0.0000 12.8046
# 5 7.7304 1.1959 9.2232 0.0000 13.7219 0.0000
# 6 0.0000 0.0000 0.0000 12.8046 0.0000 21.1285
#
#
#
# Elastic Compliance Matrix: (Units=1/GPa)
#
#
# Indices 1 2 3 4 5 6 
#
# 1 0.040749 -0.005346 -0.005198 0.000000 -0.018996 0.000000
# 2 -0.005346 0.009036 -0.004413 0.000000 0.005190 0.000000
# 3 -0.005198 -0.004413 0.012008 0.000000 -0.004758 0.000000
# 4 0.000000 0.000000 0.000000 0.058723 0.000000 -0.035588
# 5 -0.018996 0.005190 -0.004758 0.000000 0.086324 0.000000
# 6 0.000000 0.000000 0.000000 -0.035588 0.000000 0.068897
#
#
# Mechanical properties :
#
#
# Convention : Reuss Voigt Hill
#
# Bulk Modulus (GPa) = 31.36861 67.11980 49.24420
# Shear Modulus (GPa) = 15.80891 24.72983 20.26937
#
# Velocity S-wave (km/s) = 2.78032 3.47740 3.14821
# Velocity P-wave (km/s) = 5.06413 6.99593 6.10690
#
# Compressibility (1/GPa) = 0.03187901
#
# Stress axis : x y z
#
# Youngs Moduli (GPa) = 24.54056 110.67104 83.27445
#
# Poissons Ratio (x) = 0.59166 0.43289
# Poissons Ratio (y) = 0.13120 0.36746
# Poissons Ratio (z) = 0.12757 0.48834
#
# Static dielectric constant tensor:
#      x y z
#    x 1.804710 0.000000 -0.010330 
#    y 0.000000 1.720470 0.000000 
#    z -0.010330 0.000000 1.725380 
# 
# From -- ./inp_files/96957.got.cif
#   From: 2010.05.17/outbox.ucp.g08.bks.cvg/sg15_49_cif.got.tgz:96957.got - 2010.06.11 12:40:34.
