data_PCOD9308047
_publ_section_title
;
Structure prediction by ZEFSAII (Michael W. Deem and Ramdas Pophale) SiO2 
 PCOD9308047
Probable space group: C 2/C
;
_chemical_formula_sum "Si O2"
_cell_formula_units_Z 44
_cell_length_a 16.499873
_cell_length_b 10.502302
_cell_length_c 11.770927
_cell_angle_alpha 90.000000
_cell_angle_beta 75.134217
_cell_angle_gamma 90.000000
_cell_volume 1971.473161
_symmetry_space_group_name_H-M "C 2/C"
_symmetry_group_IT_number 15
_symmetry_cell_setting 'monoclinic'
loop_
_space_group_symop_operation_xyz
x,y,z
-x,y,1/2-z
-x,-y,-z
x,-y,1/2+z
1/2+x,1/2+y,z
1/2-x,1/2+y,1/2-z
1/2-x,1/2-y,-z
1/2+x,1/2-y,1/2+z
loop_
_atom_site_type_symbol
_atom_site_label
_atom_site_fract_x
_atom_site_fract_y
_atom_site_fract_z
Si Si1 0.843321 0.583405 0.905453
Si Si2 0.806736 0.192601 0.250303
Si Si3 0.096174 0.045063 0.730805
Si Si4 0.878543 0.721957 0.131817
Si Si5 0.000000 0.427339 0.750000
Si Si6 0.196562 0.872166 0.990176
O O1 0.821126 0.675028 0.807661
O O2 0.926539 0.507904 0.837619
O O3 0.763202 0.490461 0.958100
O O4 0.864871 0.672674 0.007701
O O5 0.707213 0.176668 0.276800
O O6 0.845137 0.165419 0.113950
O O7 0.847679 0.079294 0.304213
O O8 0.112913 0.128166 0.838952
O O9 0.126877 0.123847 0.611882
O O10 0.000000 0.012867 0.750000
O O11 0.955401 0.655704 0.168332
O O12 0.250000 0.750000 0.000000
#
# Coordination Sequence:
#
# PCOD9308047 Si02
#       6
#     8   8   8   8   4   8
#     4  12  28  48  79 114 150 204 256 316 375 462
#     4  12  27  48  78 109 154 200 251 311 391 459
#     4  12  28  49  74 116 150 197 256 321 384 450
#     4  12  25  50  76 108 153 198 258 308 381 454
#     4  12  26  48  76 114 148 198 258 316 370 454
#     4  12  26  48  81 108 151 205 254 311 387 453
#
# _framework density 22.318335999999999
#
# number of rings (size 3 to 8) (size 9 to 14) (size 15 to 20)
#    0.000    0.000    6.364    2.182    6.364    2.182 
#    0.000    0.000    0.000    0.000    0.000    0.000 
#    0.000    0.000    0.000    0.000    0.000    0.000 
#
# Total GULP energy -122922.859895 kJ/mol
# GULP energy per Si atom -5587.402723 kJ/mol
# Density = 2.226754 g / cm^3
# Si number density = 22.318336 Si / 1000 Ang^3
#
#
#
# Elastic Constant Matrix: (Units=GPa)
#
#
# Indices 1 2 3 4 5 6 
#
# 1 107.2332 38.6243 16.1703 0.0000 7.8600 0.0000
# 2 38.6243 110.9965 17.6959 0.0000 5.2025 0.0000
# 3 16.1703 17.6959 65.0897 0.0000 7.8056 0.0000
# 4 0.0000 0.0000 0.0000 30.3254 0.0000 -4.0714
# 5 7.8600 5.2025 7.8056 0.0000 26.6975 0.0000
# 6 0.0000 0.0000 0.0000 -4.0714 0.0000 6.1630
#
#
#
# Elastic Compliance Matrix: (Units=1/GPa)
#
#
# Indices 1 2 3 4 5 6 
#
# 1 0.010960 -0.003472 -0.001527 0.000000 -0.002104 0.000000
# 2 -0.003472 0.010550 -0.001950 0.000000 -0.000464 0.000000
# 3 -0.001527 -0.001950 0.016761 0.000000 -0.004071 0.000000
# 4 0.000000 0.000000 0.000000 0.036185 0.000000 0.023905
# 5 -0.002104 -0.000464 -0.004071 0.000000 0.039357 0.000000
# 6 0.000000 0.000000 0.000000 0.023905 0.000000 0.178051
#
#
# Mechanical properties :
#
#
# Convention : Reuss Voigt Hill
#
# Bulk Modulus (GPa) = 41.02721 47.58893 44.30807
# Shear Modulus (GPa) = 15.92933 26.69245 21.31089
#
# Velocity S-wave (km/s) = 2.67448 3.46206 3.09343
# Velocity P-wave (km/s) = 5.28770 6.11148 5.71445
#
# Compressibility (1/GPa) = 0.02437407
#
# Stress axis : x y z
#
# Youngs Moduli (GPa) = 91.23684 94.78581 59.66209
#
# Poissons Ratio (x) = 0.32910 0.09109
# Poissons Ratio (y) = 0.31677 0.11635
# Poissons Ratio (z) = 0.13929 0.18484
#
# Static dielectric constant tensor:
#      x y z
#    x 1.779960 0.000000 0.010310 
#    y 0.000000 1.771690 0.000000 
#    z 0.010310 0.000000 1.791490 
# 
# From -- ./inp_files/95010.got.cif
#   From: 2010.05.17/outbox.cif.g08.bks.cpg/sg15_48_cif.got.tgz:95010.got - 2010.06.03 18:47:42.
