data_PCOD9308281
_publ_section_title
;
Structure prediction by ZEFSAII (Michael W. Deem and Ramdas Pophale) SiO2 
 PCOD9308281
Probable space group: C 2/C
;
_chemical_formula_sum "Si O2"
_cell_formula_units_Z 28
_cell_length_a 7.741318
_cell_length_b 16.922408
_cell_length_c 11.939906
_cell_angle_alpha 90.000000
_cell_angle_beta 38.774534
_cell_angle_gamma 90.000000
_cell_volume 979.559499
_symmetry_space_group_name_H-M "C 2/C"
_symmetry_group_IT_number 15
_symmetry_cell_setting 'monoclinic'
loop_
_space_group_symop_operation_xyz
x,y,z
-x,y,1/2-z
-x,-y,-z
x,-y,1/2+z
1/2+x,1/2+y,z
1/2-x,1/2+y,1/2-z
1/2-x,1/2-y,-z
1/2+x,1/2-y,1/2+z
loop_
_atom_site_type_symbol
_atom_site_label
_atom_site_fract_x
_atom_site_fract_y
_atom_site_fract_z
Si Si1 0.980505 0.554991 0.619822
Si Si2 0.000000 0.701015 0.750000
Si Si3 0.650425 0.583124 0.500955
Si Si4 0.382203 0.191365 0.200543
O O1 0.084671 0.642364 0.605489
O O2 0.198169 0.500704 0.580455
O O3 0.000000 0.500000 0.500000
O O4 0.652652 0.570082 0.801024
O O5 0.762738 0.755567 0.816989
O O6 0.853081 0.640505 0.470964
O O7 0.685848 0.626562 0.361737
O O8 0.500000 0.237213 0.250000
#
# Coordination Sequence:
#
# PCOD9308281 Si02
#       4
#     8   4   8   8
#     4  12  27  52  89 130 177 248 304 359 451 555
#     4  12  26  52  92 136 178 234 302 374 464 542
#     4   9  24  55  85 124 184 228 298 377 447 538
#     4   8  23  50  86 132 177 223 294 384 461 518
#
# _framework density 28.584275999999999
#
# number of rings (size 3 to 8) (size 9 to 14) (size 15 to 20)
#    1.714    0.000    0.000    2.571    0.000   14.857 
#   15.429    0.000    3.143    3.429    0.000    0.000 
#    0.000    0.000    0.000    0.000    0.000    0.000 
#
# Total GULP energy -78081.936526 kJ/mol
# GULP energy per Si atom -5577.281180 kJ/mol
# Density = 2.851922 g / cm^3
# Si number density = 28.584276 Si / 1000 Ang^3
#
#
#
# Elastic Constant Matrix: (Units=GPa)
#
#
# Indices 1 2 3 4 5 6 
#
# 1 248.0437 137.8496 103.2152 -0.0011 -13.4557 0.0008
# 2 137.8496 250.4133 107.9647 0.0001 1.3029 0.0002
# 3 103.2152 107.9647 174.5135 -0.0006 -29.6050 0.0006
# 4 -0.0011 0.0001 -0.0006 76.8777 0.0008 2.7371
# 5 -13.4557 1.3029 -29.6050 0.0008 69.5240 -0.0006
# 6 0.0008 0.0002 0.0006 2.7371 -0.0006 118.9188
#
#
#
# Elastic Compliance Matrix: (Units=1/GPa)
#
#
# Indices 1 2 3 4 5 6 
#
# 1 0.006372 -0.002610 -0.002087 0.000000 0.000393 0.000000
# 2 -0.002610 0.006698 -0.002918 0.000000 -0.001873 0.000000
# 3 -0.002087 -0.002918 0.009389 0.000000 0.003649 0.000000
# 4 0.000000 0.000000 0.000000 0.013018 0.000000 -0.000300
# 5 0.000393 -0.001873 0.003649 0.000000 0.016048 0.000000
# 6 0.000000 0.000000 0.000000 -0.000300 0.000000 0.008416
#
#
# Mechanical properties :
#
#
# Convention : Reuss Voigt Hill
#
# Bulk Modulus (GPa) = 138.33909 152.33660 145.33785
# Shear Modulus (GPa) = 64.44890 74.66018 69.55454
#
# Velocity S-wave (km/s) = 4.75352 5.11625 4.93822
# Velocity P-wave (km/s) = 8.86735 9.39739 9.13621
#
# Compressibility (1/GPa) = 0.00722861
#
# Stress axis : x y z
#
# Youngs Moduli (GPa) = 156.94183 149.30242 106.50799
#
# Poissons Ratio (x) = 0.38963 0.22232
# Poissons Ratio (y) = 0.40957 0.31078
# Poissons Ratio (z) = 0.32759 0.43566
#
# Static dielectric constant tensor:
#      x y z
#    x 2.334960 0.000000 0.043240 
#    y 0.000000 2.250010 0.000000 
#    z 0.043240 0.000000 2.680170 
# 
# From -- ./inp_files/131567.got.cif
#   From: 2010.05.17/outbox.cif.g08.bks.cpg/sg15_66_cif.got.tgz:131567.got - 2010.06.03 18:47:42.
