data_PCOD9308666
_publ_section_title
;
Structure prediction by ZEFSAII (Michael W. Deem and Ramdas Pophale) SiO2 
 PCOD9308666
Probable space group: C 2/C
;
_chemical_formula_sum "Si O2"
_cell_formula_units_Z 22
_cell_length_a 27.000000
_cell_length_b 18.000000
_cell_length_c 27.000000
_cell_angle_alpha 90.000000
_cell_angle_beta 170.000000
_cell_angle_gamma 90.000000
_cell_volume 2278.611387
_symmetry_space_group_name_H-M "C 2/C"
_symmetry_group_IT_number 15
_symmetry_cell_setting 'monoclinic'
loop_
_space_group_symop_operation_xyz
x,y,z
-x,y,1/2-z
-x,-y,-z
x,-y,1/2+z
1/2+x,1/2+y,z
1/2-x,1/2+y,1/2-z
1/2-x,1/2-y,-z
1/2+x,1/2-y,1/2+z
loop_
_atom_site_type_symbol
_atom_site_label
_atom_site_fract_x
_atom_site_fract_y
_atom_site_fract_z
Si Si1 0.195172 0.804153 0.792472
Si Si2 0.253421 0.949418 0.037951
Si Si3 0.781083 0.694921 0.258714
Si Si4 0.500000 0.191780 0.750000
Si Si5 0.407008 0.028806 0.354283
Si Si6 0.940322 0.969940 0.826939
O O1 0.242214 0.816326 0.779719
O O2 0.922831 0.754797 0.533989
O O3 0.172544 0.886250 0.791380
O O4 0.500000 0.991940 0.250000
O O5 0.405360 0.869522 0.198240
O O6 0.000000 0.933644 0.750000
O O7 0.119837 0.986894 0.954424
O O8 0.802003 0.613598 0.255724
O O9 0.046106 0.747427 0.510549
O O10 0.250000 0.250000 0.500000
O O11 0.500000 0.000000 0.500000
O O12 0.674029 0.020497 0.580045
O O13 0.158866 0.976677 0.088016
#
# Coordination Sequence:
#
# PCOD9308666 Si02
#       6
#     8   8   8   4   8   8
#     4  10  21  34  51  77 113 157 199 234 280 334
#     4  10  22  39  56  76 113 146 193 257 288 335
#     4  10  21  37  56  79 117 157 189 230 284 339
#     4  10  18  34  56  78 108 156 196 244 300 326
#     4  12  24  38  60  87 121 152 196 242 287 344
#     4  12  24  38  60  84 114 156 203 245 291 341
#
# _framework density 9.6550030000000007
#
# number of rings (size 3 to 8) (size 9 to 14) (size 15 to 20)
#    0.545    0.727    2.727    3.818    5.091    1.455 
#    0.000    0.000    0.000    0.000    0.000    0.000 
#    0.000   50.909    0.000    0.000    0.000    0.000 
#
# Total GULP energy -122575.130278 kJ/mol
# GULP energy per Si atom -5571.596831 kJ/mol
# Density = 0.963303 g / cm^3
# Si number density = 9.655003 Si / 1000 Ang^3
#
#
#
# Elastic Constant Matrix: (Units=GPa)
#
#
# Indices 1 2 3 4 5 6 
#
# 1 71.5912 30.5954 34.4477 -0.0816 17.2306 0.0284
# 2 30.5954 74.8129 30.0572 0.1451 9.8902 0.0971
# 3 34.4477 30.0572 156.5141 -0.0758 19.6657 0.1415
# 4 -0.0816 0.1451 -0.0758 32.6513 -0.0832 12.6240
# 5 17.2306 9.8902 19.6657 -0.0832 34.7291 0.0006
# 6 0.0284 0.0971 0.1415 12.6240 0.0006 21.8828
#
#
#
# Elastic Compliance Matrix: (Units=1/GPa)
#
#
# Indices 1 2 3 4 5 6 
#
# 1 0.019224 -0.006099 -0.002239 0.000060 -0.006533 -0.000018
# 2 -0.006099 0.016666 -0.001768 -0.000095 -0.000719 0.000000
# 3 -0.002239 -0.001768 0.007556 0.000036 -0.002664 -0.000059
# 4 0.000060 -0.000095 0.000036 0.039420 0.000072 -0.022741
# 5 -0.006533 -0.000719 -0.002664 0.000072 0.033750 -0.000014
# 6 -0.000018 0.000000 -0.000059 -0.022741 -0.000014 0.058817
#
#
# Mechanical properties :
#
#
# Convention : Reuss Voigt Hill
#
# Bulk Modulus (GPa) = 43.03738 54.79097 48.91418
# Shear Modulus (GPa) = 24.58322 31.70719 28.14521
#
# Velocity S-wave (km/s) = 3.57190 4.05657 3.82192
# Velocity P-wave (km/s) = 6.27274 7.09767 6.69792
#
# Compressibility (1/GPa) = 0.02323561
#
# Stress axis : x y z
#
# Youngs Moduli (GPa) = 52.01702 60.00069 132.33875
#
# Poissons Ratio (x) = 0.36594 0.29631
# Poissons Ratio (y) = 0.31724 0.23397
# Poissons Ratio (z) = 0.11647 0.10608
#
# Static dielectric constant tensor:
#      x y z
#    x 1.716330 -0.001050 -0.011000 
#    y -0.001050 0.648300 0.005010 
#    z -0.011000 0.005010 1.752930 
# 
# From -- ./inp_files/303464.got.cif
#   From: 2010.05.17/outbox.ucp.g08.bks.cvg/sg15_152_cif.got.tgz:303464.got - 2010.06.11 12:40:34.
