data_PCOD9308084
_publ_section_title
;
Structure prediction by ZEFSAII (Michael W. Deem and Ramdas Pophale) SiO2 
 PCOD9308084
Probable space group: C 2/C
;
_chemical_formula_sum "Si O2"
_cell_formula_units_Z 56
_cell_length_a 22.218028
_cell_length_b 8.254711
_cell_length_c 15.766388
_cell_angle_alpha 90.000000
_cell_angle_beta 118.078805
_cell_angle_gamma 90.000000
_cell_volume 2551.269786
_symmetry_space_group_name_H-M "C 2/C"
_symmetry_group_IT_number 15
_symmetry_cell_setting 'monoclinic'
loop_
_space_group_symop_operation_xyz
x,y,z
-x,y,1/2-z
-x,-y,-z
x,-y,1/2+z
1/2+x,1/2+y,z
1/2-x,1/2+y,1/2-z
1/2-x,1/2-y,-z
1/2+x,1/2-y,1/2+z
loop_
_atom_site_type_symbol
_atom_site_label
_atom_site_fract_x
_atom_site_fract_y
_atom_site_fract_z
Si Si1 0.012923 0.851177 0.661891
Si Si2 0.749958 0.057972 0.999500
Si Si3 0.701625 0.905881 0.136849
Si Si4 0.922126 0.198746 0.847437
Si Si5 0.382142 0.455572 0.483206
Si Si6 0.696478 0.107124 0.305018
Si Si7 0.943811 0.702832 0.970078
O O1 0.061233 0.859907 0.928392
O O2 0.049013 0.717562 0.627069
O O3 0.000000 0.813070 0.750000
O O4 0.048025 0.030092 0.672173
O O5 0.698101 0.980663 0.897140
O O6 0.750000 0.250000 0.000000
O O7 0.821209 0.007548 0.004899
O O8 0.740268 0.001110 0.088498
O O9 0.739542 0.731851 0.161241
O O10 0.621761 0.906271 0.056046
O O11 0.704672 0.983730 0.231887
O O12 0.874622 0.297271 0.752689
O O13 0.870853 0.145666 0.889965
O O14 0.984410 0.303803 0.931137
O O15 0.418222 0.618637 0.477959
#
# Coordination Sequence:
#
# PCOD9308084 Si02
#       7
#     8   8   8   8   8   8   8
#     4   9  19  32  64  97 127 176 226 275 326 411
#     4  12  26  45  68  98 137 177 231 286 345 414
#     4  12  26  43  70  98 141 180 224 282 347 415
#     4   9  20  39  63  92 133 174 227 282 338 407
#     4   9  18  39  61  93 130 173 223 271 343 407
#     4  12  26  42  66 101 131 180 227 283 343 406
#     4   9  20  40  63  94 135 178 218 277 347 405
#
# _framework density 21.949853000000001
#
# number of rings (size 3 to 8) (size 9 to 14) (size 15 to 20)
#    0.000    1.714    1.429    4.714    4.000    2.857 
#    0.000    0.000    0.000    0.857    0.000    0.000 
#    0.000    0.000    0.000    0.000    0.000    0.000 
#
# Total GULP energy -156301.365645 kJ/mol
# GULP energy per Si atom -5582.191630 kJ/mol
# Density = 2.189989 g / cm^3
# Si number density = 21.949853 Si / 1000 Ang^3
#
#
#
# Elastic Constant Matrix: (Units=GPa)
#
#
# Indices 1 2 3 4 5 6 
#
# 1 76.3243 -5.3688 5.1789 0.0000 5.2844 0.0000
# 2 -5.3688 43.4234 7.7788 0.0000 11.0373 0.0000
# 3 5.1789 7.7788 33.9027 0.0000 0.2141 0.0000
# 4 0.0000 0.0000 0.0000 37.6277 0.0000 -5.3201
# 5 5.2844 11.0373 0.2141 0.0000 37.0647 0.0000
# 6 0.0000 0.0000 0.0000 -5.3201 0.0000 20.3778
#
#
#
# Elastic Compliance Matrix: (Units=1/GPa)
#
#
# Indices 1 2 3 4 5 6 
#
# 1 0.013685 0.002893 -0.002737 0.000000 -0.002797 0.000000
# 2 0.002893 0.026666 -0.006508 0.000000 -0.008316 0.000000
# 3 -0.002737 -0.006508 0.031394 0.000000 0.002147 0.000000
# 4 0.000000 0.000000 0.000000 0.027595 0.000000 0.007204
# 5 -0.002797 -0.008316 0.002147 0.000000 0.029842 0.000000
# 6 0.000000 0.000000 0.000000 0.007204 0.000000 0.050954
#
#
# Mechanical properties :
#
#
# Convention : Reuss Voigt Hill
#
# Bulk Modulus (GPa) = 16.93705 18.75869 17.84787
# Shear Modulus (GPa) = 23.52725 28.75146 26.13935
#
# Velocity S-wave (km/s) = 3.27748 3.62314 3.45464
# Velocity P-wave (km/s) = 4.69633 5.10564 4.90526
#
# Compressibility (1/GPa) = 0.05904217
#
# Stress axis : x y z
#
# Youngs Moduli (GPa) = 73.07367 37.50064 31.85337
#
# Poissons Ratio (x) = -0.10849 0.08717
# Poissons Ratio (y) = -0.21141 0.20730
# Poissons Ratio (z) = 0.19997 0.24405
#
# Static dielectric constant tensor:
#      x y z
#    x 1.826410 0.000000 0.016190 
#    y 0.000000 1.833490 0.000000 
#    z 0.016190 0.000000 1.820720 
# 
# From -- ./inp_files/172486.got.cif
#   From: 2010.05.17/outbox.cif.g08.bks.cpg/sg15_87_cif.got.tgz:172486.got - 2010.06.03 18:47:42.
