data_PCOD9308388
_publ_section_title
;
Structure prediction by ZEFSAII (Michael W. Deem and Ramdas Pophale) SiO2 
 PCOD9308388
Probable space group: C 2/C
;
_chemical_formula_sum "Si O2"
_cell_formula_units_Z 32
_cell_length_a 13.437191
_cell_length_b 9.018144
_cell_length_c 11.372725
_cell_angle_alpha 90.000000
_cell_angle_beta 96.852032
_cell_angle_gamma 90.000000
_cell_volume 1368.286829
_symmetry_space_group_name_H-M "C 2/C"
_symmetry_group_IT_number 15
_symmetry_cell_setting 'monoclinic'
loop_
_space_group_symop_operation_xyz
x,y,z
-x,y,1/2-z
-x,-y,-z
x,-y,1/2+z
1/2+x,1/2+y,z
1/2-x,1/2+y,1/2-z
1/2-x,1/2-y,-z
1/2+x,1/2-y,1/2+z
loop_
_atom_site_type_symbol
_atom_site_label
_atom_site_fract_x
_atom_site_fract_y
_atom_site_fract_z
Si Si1 0.817841 0.226019 0.394708
Si Si2 0.250000 0.250000 0.500000
Si Si3 0.206596 0.995501 0.298623
Si Si4 0.973070 0.326959 0.989221
Si Si5 0.500000 0.668274 0.750000
O O1 0.750000 0.250000 0.500000
O O2 0.793684 0.073302 0.327953
O O3 0.782731 0.358468 0.305386
O O4 0.933768 0.240108 0.440379
O O5 0.240045 0.108003 0.404210
O O6 0.130849 0.287044 0.465868
O O7 0.095166 0.930215 0.301268
O O8 0.967111 0.270236 0.854051
O O9 0.000000 0.500000 0.000000
#
# Coordination Sequence:
#
# PCOD9308388 Si02
#       5
#     8   4   8   8   4
#     4  12  28  50  82 118 162 210 278 335 418 490
#     4  12  28  50  80 120 164 210 278 334 426 490
#     4  12  28  48  81 117 164 214 271 347 410 501
#     4  12  28  50  81 119 162 212 274 343 416 497
#     4  12  28  50  82 114 162 220 278 334 420 502
#
# _framework density 23.38691
#
# number of rings (size 3 to 8) (size 9 to 14) (size 15 to 20)
#    0.000    0.000    5.000    3.000    7.000    4.000 
#    0.000    0.000    0.000    0.000    0.000    0.000 
#    0.000    0.000    0.000    0.000    0.000    0.000 
#
# Total GULP energy -89246.142460 kJ/mol
# GULP energy per Si atom -5577.883904 kJ/mol
# Density = 2.333368 g / cm^3
# Si number density = 23.386910 Si / 1000 Ang^3
#
#
#
# Elastic Constant Matrix: (Units=GPa)
#
#
# Indices 1 2 3 4 5 6 
#
# 1 169.7577 31.1685 30.7233 0.0000 33.7574 0.0000
# 2 31.1685 61.3241 44.8663 0.0000 -9.7266 0.0000
# 3 30.7233 44.8663 63.9363 0.0000 16.8506 0.0000
# 4 0.0000 0.0000 0.0000 60.9541 0.0000 7.7328
# 5 33.7574 -9.7266 16.8506 0.0000 43.4916 0.0000
# 6 0.0000 0.0000 0.0000 7.7328 0.0000 34.7337
#
#
#
# Elastic Compliance Matrix: (Units=1/GPa)
#
#
# Indices 1 2 3 4 5 6 
#
# 1 0.009377 -0.012420 0.007640 0.000000 -0.013015 0.000000
# 2 -0.012420 0.072172 -0.057326 0.000000 0.047991 0.000000
# 3 0.007640 -0.057326 0.063637 0.000000 -0.043406 0.000000
# 4 0.000000 0.000000 0.000000 0.016883 0.000000 -0.003759
# 5 -0.013015 0.047991 -0.043406 0.000000 0.060646 0.000000
# 6 0.000000 0.000000 0.000000 -0.003759 0.000000 0.029627
#
#
# Mechanical properties :
#
#
# Convention : Reuss Voigt Hill
#
# Bulk Modulus (GPa) = 47.67788 56.50383 52.09085
# Shear Modulus (GPa) = 13.03634 40.38653 26.71143
#
# Velocity S-wave (km/s) = 2.36354 4.16009 3.38324
# Velocity P-wave (km/s) = 5.28008 6.87663 6.13055
#
# Compressibility (1/GPa) = 0.02097409
#
# Stress axis : x y z
#
# Youngs Moduli (GPa) = 106.64853 13.85579 15.71421
#
# Poissons Ratio (x) = 0.17208 -0.12005
# Poissons Ratio (y) = 1.32453 0.90083
# Poissons Ratio (z) = -0.81477 0.79429
#
# Static dielectric constant tensor:
#      x y z
#    x 1.816910 0.000000 -0.022300 
#    y 0.000000 1.876710 0.000000 
#    z -0.022300 0.000000 1.992770 
# 
# From -- ./inp_files/93589.got.cif
#   From: 2010.05.17/outbox.cif.g08.bks.cpg/sg15_47_cif.got.tgz:93589.got - 2010.06.03 18:47:42.
