data_PCOD9308585
_publ_section_title
;
Structure prediction by ZEFSAII (Michael W. Deem and Ramdas Pophale) SiO2 
 PCOD9308585
Probable space group: C 2/C
;
_chemical_formula_sum "Si O2"
_cell_formula_units_Z 48
_cell_length_a 25.658655
_cell_length_b 11.490100
_cell_length_c 13.842100
_cell_angle_alpha 90.000000
_cell_angle_beta 30.901187
_cell_angle_gamma 90.000000
_cell_volume 2095.801017
_symmetry_space_group_name_H-M "C 2/C"
_symmetry_group_IT_number 15
_symmetry_cell_setting 'monoclinic'
loop_
_space_group_symop_operation_xyz
x,y,z
-x,y,1/2-z
-x,-y,-z
x,-y,1/2+z
1/2+x,1/2+y,z
1/2-x,1/2+y,1/2-z
1/2-x,1/2-y,-z
1/2+x,1/2-y,1/2+z
loop_
_atom_site_type_symbol
_atom_site_label
_atom_site_fract_x
_atom_site_fract_y
_atom_site_fract_z
Si Si1 0.556956 0.625895 0.317359
Si Si2 0.999113 0.584997 0.367087
Si Si3 0.781661 0.594464 0.456632
Si Si4 0.892876 0.624203 0.721464
Si Si5 0.388833 0.583505 0.908680
Si Si6 0.349376 0.531577 0.665939
O O1 0.607571 0.750735 0.229592
O O2 0.579440 0.532871 0.199133
O O3 0.434699 0.630839 0.516609
O O4 0.597949 0.563446 0.348141
O O5 0.105347 0.642533 0.231934
O O6 0.014986 0.450819 0.376976
O O7 0.000000 0.588928 0.250000
O O8 0.912524 0.634603 0.574902
O O9 0.798889 0.459618 0.393894
O O10 0.694466 0.644689 0.526812
O O11 0.744597 0.583033 0.625711
O O12 0.500000 0.642595 0.750000
O O13 0.334193 0.538992 0.092047
#
# Coordination Sequence:
#
# PCOD9308585 Si02
#       6
#     8   8   8   8   8   8
#     4   9  18  36  54  84 110 151 182 237 277 340
#     4   9  20  37  57  78 110 155 191 235 286 330
#     4   9  19  33  58  79 111 144 187 230 278 335
#     4   9  20  36  59  79 117 141 198 238 275 332
#     4   9  18  32  54  81 109 143 177 224 281 339
#     4   9  18  31  55  81 113 142 187 221 291 335
#
# _framework density 22.902936
#
# number of rings (size 3 to 8) (size 9 to 14) (size 15 to 20)
#    1.000    2.000    0.000    1.000    2.333    4.667 
#    0.000    6.667    7.333    0.000    0.000    0.000 
#    0.000    0.000    0.000    0.000    0.000    0.000 
#
# Total GULP energy -133729.863092 kJ/mol
# GULP energy per Si atom -5572.077629 kJ/mol
# Density = 2.285081 g / cm^3
# Si number density = 22.902936 Si / 1000 Ang^3
#
#
#
# Elastic Constant Matrix: (Units=GPa)
#
#
# Indices 1 2 3 4 5 6 
#
# 1 94.1615 -9.7815 10.0760 0.0000 23.9632 0.0000
# 2 -9.7815 66.6106 -19.9922 0.0000 1.2106 0.0000
# 3 10.0760 -19.9922 98.5507 0.0000 17.6019 0.0000
# 4 0.0000 0.0000 0.0000 23.0543 0.0000 -1.3110
# 5 23.9632 1.2106 17.6019 0.0000 45.5814 0.0000
# 6 0.0000 0.0000 0.0000 -1.3110 0.0000 1.0301
#
#
#
# Elastic Compliance Matrix: (Units=1/GPa)
#
#
# Indices 1 2 3 4 5 6 
#
# 1 0.012521 0.002066 0.000349 0.000000 -0.006772 0.000000
# 2 0.002066 0.016466 0.003653 0.000000 -0.002934 0.000000
# 3 0.000349 0.003653 0.011710 0.000000 -0.004802 0.000000
# 4 0.000000 0.000000 0.000000 0.046760 0.000000 0.059509
# 5 -0.006772 -0.002934 -0.004802 0.000000 0.027431 0.000000
# 6 0.000000 0.000000 0.000000 0.059509 0.000000 1.046487
#
#
# Mechanical properties :
#
#
# Convention : Reuss Voigt Hill
#
# Bulk Modulus (GPa) = 18.92762 24.43638 21.68200
# Shear Modulus (GPa) = 4.28504 32.53454 18.40979
#
# Velocity S-wave (km/s) = 1.36931 3.77309 2.83824
# Velocity P-wave (km/s) = 3.28363 5.44742 4.49759
#
# Compressibility (1/GPa) = 0.05283284
#
# Stress axis : x y z
#
# Youngs Moduli (GPa) = 79.86710 60.73188 85.39528
#
# Poissons Ratio (x) = -0.12549 -0.02976
# Poissons Ratio (y) = -0.16503 -0.31196
# Poissons Ratio (z) = -0.02784 -0.22186
#
# Static dielectric constant tensor:
#      x y z
#    x 1.912930 0.000000 -0.047570 
#    y 0.000000 1.871060 0.000000 
#    z -0.047570 0.000000 1.783010 
# 
# From -- ./inp_files/181994.got.cif
#   From: 2010.05.17/outbox.cif.g08.bks.cpg/sg15_91_cif.got.tgz:181994.got - 2010.06.03 18:47:42.
