data_PCOD9308119
_publ_section_title
;
Structure prediction by ZEFSAII (Michael W. Deem and Ramdas Pophale) SiO2 
 PCOD9308119
Probable space group: C 2/C
;
_chemical_formula_sum "Si O2"
_cell_formula_units_Z 28
_cell_length_a 20.134136
_cell_length_b 7.401235
_cell_length_c 8.076709
_cell_angle_alpha 90.000000
_cell_angle_beta 61.699919
_cell_angle_gamma 90.000000
_cell_volume 1059.715989
_symmetry_space_group_name_H-M "C 2/C"
_symmetry_group_IT_number 15
_symmetry_cell_setting 'monoclinic'
loop_
_space_group_symop_operation_xyz
x,y,z
-x,y,1/2-z
-x,-y,-z
x,-y,1/2+z
1/2+x,1/2+y,z
1/2-x,1/2+y,1/2-z
1/2-x,1/2-y,-z
1/2+x,1/2-y,1/2+z
loop_
_atom_site_type_symbol
_atom_site_label
_atom_site_fract_x
_atom_site_fract_y
_atom_site_fract_z
Si Si1 0.666671 0.800722 0.550102
Si Si2 0.966376 0.187168 0.612055
Si Si3 0.500000 0.245355 0.750000
Si Si4 0.162222 0.714452 0.658746
O O1 0.750000 0.750000 0.500000
O O2 0.619940 0.686029 0.739503
O O3 0.656389 0.766768 0.365695
O O4 0.649156 0.008324 0.614738
O O5 0.989123 0.327977 0.444857
O O6 0.000000 0.230601 0.750000
O O7 0.000000 0.000000 0.500000
O O8 0.589045 0.317490 0.664450
O O9 0.250000 0.750000 0.500000
#
# Coordination Sequence:
#
# PCOD9308119 Si02
#       4
#     8   8   4   8
#     4  12  28  49  80 115 162 211 271 337 409 487
#     4  12  26  46  76 116 156 207 265 327 401 484
#     4  12  26  48  80 114 162 206 266 334 410 482
#     4  12  28  51  80 118 161 213 275 339 411 489
#
# _framework density 26.422176
#
# number of rings (size 3 to 8) (size 9 to 14) (size 15 to 20)
#    0.000    0.000    4.286    5.143    6.000    4.571 
#    0.000    0.000    0.000    0.000    0.000    0.000 
#    0.000    0.000    0.000    0.000    0.000    0.000 
#
# Total GULP energy -78045.602787 kJ/mol
# GULP energy per Si atom -5574.685913 kJ/mol
# Density = 2.636204 g / cm^3
# Si number density = 26.422176 Si / 1000 Ang^3
#
#
#
# Elastic Constant Matrix: (Units=GPa)
#
#
# Indices 1 2 3 4 5 6 
#
# 1 186.9139 12.4669 106.5256 0.0000 -9.7685 0.0000
# 2 12.4669 117.0925 43.2211 0.0000 -5.6308 0.0000
# 3 106.5256 43.2211 316.3259 0.0000 6.4861 0.0000
# 4 0.0000 0.0000 0.0000 42.8858 0.0000 -1.5458
# 5 -9.7685 -5.6308 6.4861 0.0000 88.3822 0.0000
# 6 0.0000 0.0000 0.0000 -1.5458 0.0000 23.3594
#
#
#
# Elastic Compliance Matrix: (Units=1/GPa)
#
#
# Indices 1 2 3 4 5 6 
#
# 1 0.006696 0.000180 -0.002298 0.000000 0.000920 0.000000
# 2 0.000180 0.009038 -0.001310 0.000000 0.000692 0.000000
# 3 -0.002298 -0.001310 0.004127 0.000000 -0.000640 0.000000
# 4 0.000000 0.000000 0.000000 0.023374 0.000000 0.001547
# 5 0.000920 0.000692 -0.000640 0.000000 0.011507 0.000000
# 6 0.000000 0.000000 0.000000 0.001547 0.000000 0.042912
#
#
# Mechanical properties :
#
#
# Convention : Reuss Voigt Hill
#
# Bulk Modulus (GPa) = 76.89539 104.97326 90.93432
# Shear Modulus (GPa) = 45.93684 61.46672 53.70178
#
# Velocity S-wave (km/s) = 4.17414 4.82844 4.51316
# Velocity P-wave (km/s) = 7.23858 8.42025 7.85168
#
# Compressibility (1/GPa) = 0.01300468
#
# Stress axis : x y z
#
# Youngs Moduli (GPa) = 149.34183 110.64665 242.28574
#
# Poissons Ratio (x) = -0.01988 0.55686
# Poissons Ratio (y) = -0.02684 0.31729
# Poissons Ratio (z) = 0.34324 0.14490
#
# Static dielectric constant tensor:
#      x y z
#    x 2.063620 0.000000 0.084480 
#    y 0.000000 1.265750 0.000000 
#    z 0.084480 0.000000 1.870860 
# 
# From -- ./inp_files/53570.got.cif
#   From: 2010.05.17/outbox.cif.g08.bks.cpg/sg15_27_cif.got.tgz:53570.got - 2010.06.03 18:47:42.
