data_PCOD9308944
_publ_section_title
;
Structure prediction by ZEFSAII (Michael W. Deem and Ramdas Pophale) SiO2 
 PCOD9308944
Probable space group: C 2/C
;
_chemical_formula_sum "Si O2"
_cell_formula_units_Z 28
_cell_length_a 15.000000
_cell_length_b 21.000000
_cell_length_c 18.000000
_cell_angle_alpha 90.000000
_cell_angle_beta 30.000000
_cell_angle_gamma 90.000000
_cell_volume 2835.000000
_symmetry_space_group_name_H-M "C 2/C"
_symmetry_group_IT_number 15
_symmetry_cell_setting 'monoclinic'
loop_
_space_group_symop_operation_xyz
x,y,z
-x,y,1/2-z
-x,-y,-z
x,-y,1/2+z
1/2+x,1/2+y,z
1/2-x,1/2+y,1/2-z
1/2-x,1/2-y,-z
1/2+x,1/2-y,1/2+z
loop_
_atom_site_type_symbol
_atom_site_label
_atom_site_fract_x
_atom_site_fract_y
_atom_site_fract_z
Si Si1 0.485727 0.172076 0.411945
Si Si2 0.033649 0.421831 0.011252
Si Si3 0.000000 0.766599 0.750000
Si Si4 0.632311 0.282286 0.910971
Si Si5 0.000000 0.604020 0.250000
Si Si6 0.615829 0.205368 0.517640
Si Si7 0.194886 0.007470 0.262890
Si Si8 0.376871 0.422918 0.531737
O O1 0.492822 0.110725 0.460533
O O2 0.353637 0.224142 0.541222
O O3 0.683280 0.203792 0.265126
O O4 0.448848 0.148097 0.356461
O O5 0.230726 0.452222 0.860454
O O6 0.027015 0.362013 0.068958
O O7 0.878932 0.469753 0.146599
O O8 0.175370 0.802748 0.651069
O O9 0.077808 0.724544 0.628424
O O10 0.478012 0.258225 0.966619
O O11 0.588029 0.347601 0.985465
O O12 0.820687 0.566758 0.358589
O O13 0.031709 0.958313 0.374486
O O14 0.135652 0.051253 0.374610
#
# Coordination Sequence:
#
# PCOD9308944 Si02
#       8
#     8   8   4   8   4   8   8   8
#     4  10  21  35  62  89 116 153 192 240 309 339
#     4  10  20  39  64  84 115 155 205 246 272 363
#     4  10  22  36  55  92 121 148 180 254 312 340
#     4  10  20  36  62  88 108 159 199 238 290 370
#     4  10  20  42  57  88 131 144 184 266 296 340
#     4  10  21  37  60  85 121 149 193 246 301 345
#     4  10  21  39  62  87 110 161 214 229 281 351
#     4  10  22  38  63  88 116 157 200 245 288 351
#
# _framework density 9.8765429999999999
#
# number of rings (size 3 to 8) (size 9 to 14) (size 15 to 20)
#    0.000    2.000    2.857    1.714    6.000    2.286 
#    0.000    2.857    0.000    0.000    0.000    0.000 
#    0.000    0.000    0.000    0.000    0.000    0.000 
#
# Total GULP energy -155958.549292 kJ/mol
# GULP energy per Si atom -5569.948189 kJ/mol
# Density = 0.985406 g / cm^3
# Si number density = 9.876543 Si / 1000 Ang^3
#
#
#
# Elastic Constant Matrix: (Units=GPa)
#
#
# Indices 1 2 3 4 5 6 
#
# 1 -5.8321 -18.2928 -4.9834 -0.0382 3.6319 0.0682
# 2 -18.2928 67.9296 12.8133 -0.0252 0.5195 0.0235
# 3 -4.9834 12.8133 68.0605 -0.0630 -4.6463 0.0593
# 4 -0.0382 -0.0252 -0.0630 78.1642 0.0175 -109.2496
# 5 3.6319 0.5195 -4.6463 0.0175 29.9083 -0.0005
# 6 0.0682 0.0235 0.0593 -109.2496 -0.0005 253.9094
#
#
#
# Elastic Compliance Matrix: (Units=1/GPa)
#
#
# Indices 1 2 3 4 5 6 
#
# 1 -0.088909 -0.023785 -0.001280 -0.000045 0.011011 0.000007
# 2 -0.023785 0.008915 -0.003268 -0.000008 0.002226 0.000003
# 3 -0.001280 -0.003268 0.015392 0.000015 0.002603 0.000004
# 4 -0.000045 -0.000008 0.000015 0.032095 -0.000011 0.013810
# 5 0.011011 0.002226 0.002603 -0.000011 0.032464 -0.000008
# 6 0.000007 0.000003 0.000004 0.013810 -0.000008 0.009880
#
#
# Mechanical properties :
#
#
# Convention : Reuss Voigt Hill
#
# Bulk Modulus (GPa) = -8.24612 12.13690 1.94539
# Shear Modulus (GPa) = 191.70234 81.77111 136.73672
#
# Velocity S-wave (km/s) = 9.86205 6.44100 8.32906
# Velocity P-wave (km/s) = 11.20251 7.84047 9.66875
#
# Compressibility (1/GPa) = -0.12126915
#
# Stress axis : x y z
#
# Youngs Moduli (GPa) = -11.24741 112.16522 64.96863
#
# Poissons Ratio (x) = 2.66787 0.08319
# Poissons Ratio (y) = -0.26752 0.21232
# Poissons Ratio (z) = -0.01440 0.36656
#
# Static dielectric constant tensor:
#      x y z
#    x 1.777710 -0.000010 -0.025960 
#    y -0.000010 1.705610 0.000010 
#    z -0.025960 0.000010 1.686770 
# 
# From -- ./inp_files/206941.got.cif
#   From: 2010.05.17/outbox.ucp.g08.bks.cvg/sg15_104_cif.got.tgz:206941.got - 2010.06.11 12:40:34.
