data_PCOD9308466
_publ_section_title
;
Structure prediction by ZEFSAII (Michael W. Deem and Ramdas Pophale) SiO2 
 PCOD9308466
Probable space group: C 2/C
;
_chemical_formula_sum "Si O2"
_cell_formula_units_Z 56
_cell_length_a 22.439444
_cell_length_b 6.959453
_cell_length_c 13.765815
_cell_angle_alpha 90.000000
_cell_angle_beta 61.303375
_cell_angle_gamma 90.000000
_cell_volume 1885.710850
_symmetry_space_group_name_H-M "C 2/C"
_symmetry_group_IT_number 15
_symmetry_cell_setting 'monoclinic'
loop_
_space_group_symop_operation_xyz
x,y,z
-x,y,1/2-z
-x,-y,-z
x,-y,1/2+z
1/2+x,1/2+y,z
1/2-x,1/2+y,1/2-z
1/2-x,1/2-y,-z
1/2+x,1/2-y,1/2+z
loop_
_atom_site_type_symbol
_atom_site_label
_atom_site_fract_x
_atom_site_fract_y
_atom_site_fract_z
Si Si1 0.479257 0.002776 0.629257
Si Si2 0.878043 0.515177 0.950778
Si Si3 0.336996 0.984238 0.707831
Si Si4 0.262995 0.518741 0.487360
Si Si5 0.306424 0.411686 0.744165
Si Si6 0.593768 0.525791 0.080761
Si Si7 0.448815 0.456845 0.664753
O O1 0.547336 0.934336 0.629851
O O2 0.500000 0.000000 0.500000
O O3 0.406772 0.898954 0.695613
O O4 0.463595 0.227026 0.661166
O O5 0.857119 0.480798 0.078751
O O6 0.813791 0.445763 0.938008
O O7 0.892091 0.744373 0.936220
O O8 0.323747 0.194714 0.760101
O O9 0.262366 0.893533 0.764094
O O10 0.250000 0.750000 0.500000
O O11 0.284041 0.481320 0.359591
O O12 0.328832 0.453567 0.496735
O O13 0.380395 0.491594 0.654364
O O14 0.573356 0.489286 0.208816
O O15 0.524206 0.465327 0.079963
#
# Coordination Sequence:
#
# PCOD9308466 Si02
#       7
#     8   8   8   8   8   8   8
#     4   8  13  21  33  51  72  98 126 153 184 223
#     4   8  13  21  34  54  76  97 123 155 188 226
#     4   9  16  25  37  55  78 105 130 156 189 227
#     4   8  13  21  35  57  79  97 121 160 199 226
#     4   9  16  25  37  56  80 102 129 157 190 231
#     4   8  12  19  32  53  79  99 121 159 202 227
#     4   8  13  20  32  52  78 100 123 160 198 226
#
# _framework density 29.697026999999999
#
# number of rings (size 3 to 8) (size 9 to 14) (size 15 to 20)
#    0.000    3.714    0.000    0.000    0.000    0.000 
#    0.000    0.000    0.000    0.000    0.000  125.000 
#    0.000  118.857    0.000    0.000    0.000    0.571 
#
# Total GULP energy -156477.721755 kJ/mol
# GULP energy per Si atom -5588.490063 kJ/mol
# Density = 2.962943 g / cm^3
# Si number density = 29.697027 Si / 1000 Ang^3
#
#
#
# Elastic Constant Matrix: (Units=GPa)
#
#
# Indices 1 2 3 4 5 6 
#
# 1 308.4104 6.6878 115.0380 0.0000 -111.8352 0.0000
# 2 6.6878 115.6116 13.4878 0.0000 0.9597 0.0002
# 3 115.0380 13.4878 209.9002 0.0000 -75.3867 0.0000
# 4 0.0000 0.0000 0.0000 1.6931 0.0000 6.5146
# 5 -111.8352 0.9597 -75.3867 0.0000 98.7544 0.0000
# 6 0.0000 0.0002 0.0000 6.5146 0.0000 24.9978
#
#
#
# Elastic Compliance Matrix: (Units=1/GPa)
#
#
# Indices 1 2 3 4 5 6 
#
# 1 0.005689 -0.000249 -0.001085 -0.000001 0.005617 0.000000
# 2 -0.000249 0.008762 -0.000769 -0.000125 -0.000955 0.000032
# 3 -0.001085 -0.000769 0.006847 0.000006 0.004006 -0.000002
# 4 -0.000001 -0.000125 0.000006********** -0.000006 56.321886
# 5 0.005617 -0.000955 0.004006 -0.000006 0.019555 0.000001
# 6 0.000000 0.000032 -0.000002 56.321886 0.000001-14.637840
#
#
# Mechanical properties :
#
#
# Convention : Reuss Voigt Hill
#
# Bulk Modulus (GPa) = 58.50787 100.48327 79.49557
# Shear Modulus (GPa) = -0.02167 58.33630 29.15731
#
# Velocity S-wave (km/s) = -0.08552 4.43694 3.13681
# Velocity P-wave (km/s) = 4.44237 7.75617 6.32032
#
# Compressibility (1/GPa) = 0.01709172
#
# Stress axis : x y z
#
# Youngs Moduli (GPa) = 175.76606 114.13255 146.05480
#
# Poissons Ratio (x) = 0.02844 0.15841
# Poissons Ratio (y) = 0.04380 0.11236
# Poissons Ratio (z) = 0.19063 0.08780
#
# Static dielectric constant tensor:
#      x y z
#    x 2.498370 0.000000 -0.043930 
#    y 0.000000 2.425510 0.000000 
#    z -0.043930 0.000000 2.219450 
# 
# From -- ./inp_files/254637.got.cif
#   From: 2010.05.17/outbox.cif.g08.bks.cpg/sg15_128_cif.got.tgz:254637.got - 2010.06.03 18:47:42.
