data_PCOD9308071
_publ_section_title
;
Structure prediction by ZEFSAII (Michael W. Deem and Ramdas Pophale) SiO2 
 PCOD9308071
Probable space group: C 2/C
;
_chemical_formula_sum "Si O2"
_cell_formula_units_Z 32
_cell_length_a 20.545137
_cell_length_b 12.997506
_cell_length_c 12.735268
_cell_angle_alpha 90.000000
_cell_angle_beta 24.350091
_cell_angle_gamma 90.000000
_cell_volume 1402.174537
_symmetry_space_group_name_H-M "C 2/C"
_symmetry_group_IT_number 15
_symmetry_cell_setting 'monoclinic'
loop_
_space_group_symop_operation_xyz
x,y,z
-x,y,1/2-z
-x,-y,-z
x,-y,1/2+z
1/2+x,1/2+y,z
1/2-x,1/2+y,1/2-z
1/2-x,1/2-y,-z
1/2+x,1/2-y,1/2+z
loop_
_atom_site_type_symbol
_atom_site_label
_atom_site_fract_x
_atom_site_fract_y
_atom_site_fract_z
Si Si1 0.879317 0.284300 0.725321
Si Si2 0.500000 0.000000 0.000000
Si Si3 0.500000 0.489991 0.750000
Si Si4 0.320438 0.648431 0.162738
Si Si5 0.736691 0.127048 0.509869
O O1 0.794993 0.280127 0.735651
O O2 0.926395 0.402476 0.674688
O O3 0.029002 0.211080 0.518547
O O4 0.750000 0.250000 0.000000
O O5 0.408342 0.916686 0.211027
O O6 0.615916 0.560873 0.509614
O O7 0.607442 0.422579 0.668149
O O8 0.232904 0.601989 0.391787
O O9 0.750000 0.250000 0.500000
#
# Coordination Sequence:
#
# PCOD9308071 Si02
#       5
#     8   4   4   8   8
#     4  12  25  52  80 123 162 216 274 342 418 499
#     4  12  26  54  76 118 166 216 276 336 420 484
#     4  12  26  54  80 118 158 222 276 342 430 488
#     4  12  26  50  85 118 167 218 278 344 422 507
#     4  12  28  49  80 116 164 217 276 347 416 505
#
# _framework density 22.821695999999999
#
# number of rings (size 3 to 8) (size 9 to 14) (size 15 to 20)
#    0.000    0.000    7.500    0.750    3.500    1.000 
#   13.500    0.000    0.000    0.000    0.000    0.000 
#    0.000    0.000    0.000    0.000    0.000    0.000 
#
# Total GULP energy -89150.219033 kJ/mol
# GULP energy per Si atom -5571.888690 kJ/mol
# Density = 2.276975 g / cm^3
# Si number density = 22.821696 Si / 1000 Ang^3
#
#
#
# Elastic Constant Matrix: (Units=GPa)
#
#
# Indices 1 2 3 4 5 6 
#
# 1 154.1544 24.1144 35.8886 0.0000 -2.9766 0.0000
# 2 24.1144 144.3902 58.4905 0.0000 13.1549 0.0000
# 3 35.8886 58.4905 100.0474 0.0000 23.7230 0.0000
# 4 0.0000 0.0000 0.0000 55.6038 0.0000 0.6046
# 5 -2.9766 13.1549 23.7230 0.0000 41.3621 0.0000
# 6 0.0000 0.0000 0.0000 0.6046 0.0000 41.9899
#
#
#
# Elastic Compliance Matrix: (Units=1/GPa)
#
#
# Indices 1 2 3 4 5 6 
#
# 1 0.007272 -0.000192 -0.003050 0.000000 0.002334 0.000000
# 2 -0.000192 0.009081 -0.005269 0.000000 0.000120 0.000000
# 3 -0.003050 -0.005269 0.016000 0.000000 -0.007721 0.000000
# 4 0.000000 0.000000 0.000000 0.017987 0.000000 -0.000259
# 5 0.002334 0.000120 -0.007721 0.000000 0.028735 0.000000
# 6 0.000000 0.000000 0.000000 -0.000259 0.000000 0.023819
#
#
# Mechanical properties :
#
#
# Convention : Reuss Voigt Hill
#
# Bulk Modulus (GPa) = 65.21930 70.61988 67.91959
# Shear Modulus (GPa) = 39.99181 46.46440 43.22811
#
# Velocity S-wave (km/s) = 4.19066 4.51707 4.35692
# Velocity P-wave (km/s) = 7.21494 7.62998 7.42536
#
# Compressibility (1/GPa) = 0.01533288
#
# Stress axis : x y z
#
# Youngs Moduli (GPa) = 137.51223 110.11954 62.49910
#
# Poissons Ratio (x) = 0.02110 0.19062
# Poissons Ratio (y) = 0.02635 0.32929
# Poissons Ratio (z) = 0.41940 0.58019
#
# Static dielectric constant tensor:
#      x y z
#    x 1.963830 0.000000 0.000220 
#    y 0.000000 1.824460 0.000000 
#    z 0.000220 0.000000 1.885220 
# 
# From -- ./inp_files/83914.got.cif
#   From: 2010.05.17/outbox.cif.g08.bks.cpg/sg15_42_cif.got.tgz:83914.got - 2010.06.03 18:47:42.
