data_PCOD9308670
_publ_section_title
;
Structure prediction by ZEFSAII (Michael W. Deem and Ramdas Pophale) SiO2 
 PCOD9308670
Probable space group: C 2/C
;
_chemical_formula_sum "Si O2"
_cell_formula_units_Z 26
_cell_length_a 21.000000
_cell_length_b 18.000000
_cell_length_c 12.000000
_cell_angle_alpha 90.000000
_cell_angle_beta 140.000000
_cell_angle_gamma 90.000000
_cell_volume 2915.684598
_symmetry_space_group_name_H-M "C 2/C"
_symmetry_group_IT_number 15
_symmetry_cell_setting 'monoclinic'
loop_
_space_group_symop_operation_xyz
x,y,z
-x,y,1/2-z
-x,-y,-z
x,-y,1/2+z
1/2+x,1/2+y,z
1/2-x,1/2+y,1/2-z
1/2-x,1/2-y,-z
1/2+x,1/2-y,1/2+z
loop_
_atom_site_type_symbol
_atom_site_label
_atom_site_fract_x
_atom_site_fract_y
_atom_site_fract_z
Si Si1 0.305025 0.858042 0.007724
Si Si2 0.861724 0.448237 0.288199
Si Si3 0.089962 0.394548 0.581072
Si Si4 0.500000 0.761004 0.750000
Si Si5 0.616129 0.731370 0.233692
Si Si6 0.408687 0.273208 0.351281
Si Si7 0.811253 0.671180 0.880992
O O1 0.306657 0.917666 0.107494
O O2 0.360933 0.783749 0.129154
O O3 0.363929 0.885583 0.979369
O O4 0.190995 0.837166 0.835349
O O5 0.860500 0.536220 0.291966
O O6 0.819237 0.412070 0.344226
O O7 0.973965 0.416506 0.424475
O O8 0.104871 0.315945 0.659892
O O9 0.541938 0.712747 0.703194
O O10 0.404071 0.809961 0.585645
O O11 0.658843 0.779071 0.186684
O O12 0.500368 0.713087 0.060408
O O13 0.300391 0.308849 0.228447
#
# Coordination Sequence:
#
# PCOD9308670 Si02
#       7
#     8   8   8   4   8   8   8
#     4  10  18  35  54  79 115 148 181 232 280 329
#     4  10  22  35  48  87 117 144 184 224 280 350
#     4  11  20  33  55  79 118 148 173 230 286 336
#     4  10  20  34  50  80 112 140 188 216 278 332
#     4   9  19  32  56  86 107 137 196 237 273 331
#     4  11  20  35  56  84 106 149 185 234 281 325
#     4  10  19  36  53  79 113 140 189 233 272 332
#
# _framework density 8.9172879999999992
#
# number of rings (size 3 to 8) (size 9 to 14) (size 15 to 20)
#    0.000    1.846    6.154    0.923    0.000    1.231 
#    0.000    0.000    0.000    0.923    4.000    0.000 
#    0.000    0.000    0.000    0.000    0.000    0.000 
#
# Total GULP energy -144879.188640 kJ/mol
# GULP energy per Si atom -5572.276486 kJ/mol
# Density = 0.889699 g / cm^3
# Si number density = 8.917288 Si / 1000 Ang^3
#
#
#
# Elastic Constant Matrix: (Units=GPa)
#
#
# Indices 1 2 3 4 5 6 
#
# 1 92.3062 25.1263 38.5391 0.0000 23.9311 0.0000
# 2 25.1263 63.7298 31.8202 0.0000 9.7116 0.0000
# 3 38.5391 31.8202 88.9136 0.0000 24.8152 0.0000
# 4 0.0000 0.0000 0.0000 10.0360 0.0000 -5.2602
# 5 23.9311 9.7116 24.8152 0.0000 32.4981 0.0000
# 6 0.0000 0.0000 0.0000 -5.2602 0.0000 6.7485
#
#
#
# Elastic Compliance Matrix: (Units=1/GPa)
#
#
# Indices 1 2 3 4 5 6 
#
# 1 0.015029 -0.003133 -0.003260 0.000000 -0.007641 0.000000
# 2 -0.003133 0.019768 -0.005988 0.000000 0.000972 0.000000
# 3 -0.003260 -0.005988 0.017326 0.000000 -0.009040 0.000000
# 4 0.000000 0.000000 0.000000 0.168467 0.000000 0.131313
# 5 -0.007641 0.000972 -0.009040 0.000000 0.043010 0.000000
# 6 0.000000 0.000000 0.000000 0.131313 0.000000 0.250533
#
#
# Mechanical properties :
#
#
# Convention : Reuss Voigt Hill
#
# Bulk Modulus (GPa) = 36.54928 48.43566 42.49247
# Shear Modulus (GPa) = 9.12385 19.82079 14.47232
#
# Velocity S-wave (km/s) = 2.26427 3.33734 2.85173
# Velocity P-wave (km/s) = 5.23201 6.48596 5.89243
#
# Compressibility (1/GPa) = 0.02736032
#
# Stress axis : x y z
#
# Youngs Moduli (GPa) = 66.54019 50.58665 57.71726
#
# Poissons Ratio (x) = 0.15849 0.18817
# Poissons Ratio (y) = 0.20847 0.34560
# Poissons Ratio (z) = 0.21694 0.30290
#
# Static dielectric constant tensor:
#      x y z
#    x 1.636190 0.000000 -0.037100 
#    y 0.000000 1.621130 0.000000 
#    z -0.037100 0.000000 1.660050 
# 
# From -- ./inp_files/98438.got.cif
#   From: 2010.05.17/outbox.ucp.g08.bks.cvg/sg15_50_cif.got.tgz:98438.got - 2010.06.11 12:40:34.
