data_PCOD9308879
_publ_section_title
;
Structure prediction by ZEFSAII (Michael W. Deem and Ramdas Pophale) SiO2 
 PCOD9308879
Probable space group: C 2/C
;
_chemical_formula_sum "Si O2"
_cell_formula_units_Z 24
_cell_length_a 6.000000
_cell_length_b 24.000000
_cell_length_c 18.000000
_cell_angle_alpha 90.000000
_cell_angle_beta 70.000000
_cell_angle_gamma 90.000000
_cell_volume 2435.683273
_symmetry_space_group_name_H-M "C 2/C"
_symmetry_group_IT_number 15
_symmetry_cell_setting 'monoclinic'
loop_
_space_group_symop_operation_xyz
x,y,z
-x,y,1/2-z
-x,-y,-z
x,-y,1/2+z
1/2+x,1/2+y,z
1/2-x,1/2+y,1/2-z
1/2-x,1/2-y,-z
1/2+x,1/2-y,1/2+z
loop_
_atom_site_type_symbol
_atom_site_label
_atom_site_fract_x
_atom_site_fract_y
_atom_site_fract_z
Si Si1 0.910149 0.544038 0.676929
Si Si2 0.406516 0.528000 0.583156
Si Si3 0.787750 0.130690 0.893364
Si Si4 0.396366 0.437899 0.838228
Si Si5 0.298167 0.838424 0.535196
Si Si6 0.497967 0.726278 0.556357
O O1 0.767554 0.600985 0.678605
O O2 0.787312 0.486536 0.666252
O O3 0.000000 0.542326 0.750000
O O4 0.143628 0.548984 0.600743
O O5 0.500000 0.500000 0.500000
O O6 0.571718 0.579678 0.584600
O O7 0.412909 0.477835 0.642450
O O8 0.945207 0.186384 0.880392
O O9 0.545871 0.144769 0.966386
O O10 0.500000 0.413298 0.750000
O O11 0.298114 0.390317 0.904777
O O12 0.343918 0.782682 0.580132
O O13 0.119776 0.814649 0.492120
O O14 0.750000 0.750000 0.500000
#
# Coordination Sequence:
#
# PCOD9308879 Si02
#       6
#     8   8   8   8   8   8
#     4  11  22  37  55  85 123 160 191 239 306 362
#     4  11  21  35  58  87 117 150 201 242 296 366
#     4  10  20  34  60  86 114 151 200 246 296 353
#     4  11  22  37  56  87 122 157 194 242 311 369
#     4  10  20  37  62  86 116 152 199 258 298 357
#     4   9  19  37  60  88 110 147 201 251 303 347
#
# _framework density 9.8534980000000001
#
# number of rings (size 3 to 8) (size 9 to 14) (size 15 to 20)
#    0.000    1.667    1.667    4.000    0.000    4.000 
#    0.000    0.000    0.000   24.000    0.000    0.000 
#    0.000    0.000    0.000    0.000    0.000    0.000 
#
# Total GULP energy -133696.417816 kJ/mol
# GULP energy per Si atom -5570.684076 kJ/mol
# Density = 0.983107 g / cm^3
# Si number density = 9.853498 Si / 1000 Ang^3
#
#
#
# Elastic Constant Matrix: (Units=GPa)
#
#
# Indices 1 2 3 4 5 6 
#
# 1 55.1417 32.3480 14.1249 0.0000 2.3735 0.0000
# 2 32.3480 146.9866 26.0967 0.0000 17.0549 0.0000
# 3 14.1249 26.0967 40.7386 0.0000 -0.8767 0.0000
# 4 0.0000 0.0000 0.0000 22.6464 0.0000 0.5157
# 5 2.3735 17.0549 -0.8767 0.0000 22.6846 0.0000
# 6 0.0000 0.0000 0.0000 0.5157 0.0000 10.7379
#
#
#
# Elastic Compliance Matrix: (Units=1/GPa)
#
#
# Indices 1 2 3 4 5 6 
#
# 1 0.021708 -0.003951 -0.004985 0.000000 0.000507 0.000000
# 2 -0.003951 0.009297 -0.004731 0.000000 -0.006759 0.000000
# 3 -0.004985 -0.004731 0.029418 0.000000 0.005215 0.000000
# 4 0.000000 0.000000 0.000000 0.044205 0.000000 -0.002123
# 5 0.000507 -0.006759 0.005215 0.000000 0.049313 0.000000
# 6 0.000000 0.000000 0.000000 -0.002123 0.000000 0.093230
#
#
# Mechanical properties :
#
#
# Convention : Reuss Voigt Hill
#
# Bulk Modulus (GPa) = 30.22131 43.11178 36.66655
# Shear Modulus (GPa) = 17.51096 22.56695 20.03895
#
# Velocity S-wave (km/s) = 2.98412 3.38764 3.19226
# Velocity P-wave (km/s) = 5.21937 6.10126 5.67746
#
# Compressibility (1/GPa) = 0.03308924
#
# Stress axis : x y z
#
# Youngs Moduli (GPa) = 46.06590 107.55975 33.99286
#
# Poissons Ratio (x) = 0.42499 0.16944
# Poissons Ratio (y) = 0.18201 0.16083
# Poissons Ratio (z) = 0.22962 0.50888
#
# Static dielectric constant tensor:
#      x y z
#    x 1.769250 0.000000 0.045250 
#    y 0.000000 1.669720 0.000000 
#    z 0.045250 0.000000 1.717590 
# 
# From -- ./inp_files/185236.got.cif
#   From: 2010.05.17/outbox.ucp.g08.bks.cvg/sg15_93_cif.got.tgz:185236.got - 2010.06.11 12:40:34.
