data_PCOD9308177
_publ_section_title
;
Structure prediction by ZEFSAII (Michael W. Deem and Ramdas Pophale) SiO2 
 PCOD9308177
Probable space group: C 2/C
;
_chemical_formula_sum "Si O2"
_cell_formula_units_Z 28
_cell_length_a 11.574322
_cell_length_b 15.921860
_cell_length_c 14.999589
_cell_angle_alpha 90.000000
_cell_angle_beta 27.207584
_cell_angle_gamma 90.000000
_cell_volume 1263.833344
_symmetry_space_group_name_H-M "C 2/C"
_symmetry_group_IT_number 15
_symmetry_cell_setting 'monoclinic'
loop_
_space_group_symop_operation_xyz
x,y,z
-x,y,1/2-z
-x,-y,-z
x,-y,1/2+z
1/2+x,1/2+y,z
1/2-x,1/2+y,1/2-z
1/2-x,1/2-y,-z
1/2+x,1/2-y,1/2+z
loop_
_atom_site_type_symbol
_atom_site_label
_atom_site_fract_x
_atom_site_fract_y
_atom_site_fract_z
Si Si1 0.517448 0.454108 0.393624
Si Si2 0.502012 0.144208 0.504402
Si Si3 0.000000 0.078427 0.250000
Si Si4 0.304302 0.805628 0.814515
O O1 0.500000 0.500000 0.500000
O O2 0.419656 0.517390 0.385818
O O3 0.356380 0.370053 0.516461
O O4 0.261802 0.368688 0.878969
O O5 0.299178 0.074360 0.672551
O O6 0.563725 0.144638 0.356633
O O7 0.371776 0.234729 0.607871
O O8 0.500000 0.765255 0.750000
#
# Coordination Sequence:
#
# PCOD9308177 Si02
#       4
#     8   8   4   8
#     4  12  27  48  75 112 150 196 249 312 376 438
#     4  12  27  50  74 113 147 201 255 300 381 443
#     4  12  28  48  78 112 160 190 248 320 372 446
#     4  12  26  48  78 107 151 203 257 305 362 453
#
# _framework density 22.154820000000001
#
# number of rings (size 3 to 8) (size 9 to 14) (size 15 to 20)
#    0.000    0.000    5.714    3.429    6.000    1.143 
#    0.000    0.000    0.000    0.000    0.000    0.000 
#    0.000    0.000    0.000    0.000    0.000    0.000 
#
# Total GULP energy -78409.337781 kJ/mol
# GULP energy per Si atom -5600.666984 kJ/mol
# Density = 2.210440 g / cm^3
# Si number density = 22.154820 Si / 1000 Ang^3
#
#
#
# Elastic Constant Matrix: (Units=GPa)
#
#
# Indices 1 2 3 4 5 6 
#
# 1 158.1934 60.8042 65.1214 0.0369 6.5805 -0.0039
# 2 60.8042 106.7983 45.0598 0.0117 -9.4241 0.0263
# 3 65.1214 45.0598 144.1537 -0.0097 10.0800 0.0212
# 4 0.0369 0.0117 -0.0097 50.3173 0.0061 -4.9770
# 5 6.5805 -9.4241 10.0800 0.0061 41.0710 -0.0067
# 6 -0.0039 0.0263 0.0212 -4.9770 -0.0067 46.1899
#
#
#
# Elastic Compliance Matrix: (Units=1/GPa)
#
#
# Indices 1 2 3 4 5 6 
#
# 1 0.009118 -0.004218 -0.002677 -0.000006 -0.001772 0.000004
# 2 -0.004218 0.013213 -0.002527 -0.000002 0.004328 -0.000006
# 3 -0.002677 -0.002527 0.009103 0.000004 -0.002385 -0.000003
# 4 -0.000006 -0.000002 0.000004 0.020088 -0.000003 0.002165
# 5 -0.001772 0.004328 -0.002385 -0.000003 0.026210 0.000002
# 6 0.000004 -0.000006 -0.000003 0.002165 0.000002 0.021883
#
#
# Mechanical properties :
#
#
# Convention : Reuss Voigt Hill
#
# Bulk Modulus (GPa) = 79.42824 83.45736 81.44280
# Shear Modulus (GPa) = 40.76387 43.39299 42.07843
#
# Velocity S-wave (km/s) = 4.29412 4.43044 4.36281
# Velocity P-wave (km/s) = 7.77916 7.99522 7.88793
#
# Compressibility (1/GPa) = 0.01258998
#
# Stress axis : x y z
#
# Youngs Moduli (GPa) = 109.66825 75.68101 109.85404
#
# Poissons Ratio (x) = 0.31926 0.29405
# Poissons Ratio (y) = 0.46263 0.27762
# Poissons Ratio (z) = 0.29355 0.19126
#
# Static dielectric constant tensor:
#      x y z
#    x 1.775450 0.000010 -0.007090 
#    y 0.000010 1.843400 0.000040 
#    z -0.007090 0.000040 1.853160 
# 
# From -- ./inp_files/146306.got.cif
#   From: 2010.05.17/outbox.cif.g08.bks.cpg/sg15_74_cif.got.tgz:146306.got - 2010.06.03 18:47:42.
