data_PCOD9308690
_publ_section_title
;
Structure prediction by ZEFSAII (Michael W. Deem and Ramdas Pophale) SiO2 
 PCOD9308690
Probable space group: C 2/C
;
_chemical_formula_sum "Si O2"
_cell_formula_units_Z 24
_cell_length_a 9.000000
_cell_length_b 15.000000
_cell_length_c 27.000000
_cell_angle_alpha 90.000000
_cell_angle_beta 140.000000
_cell_angle_gamma 90.000000
_cell_volume 2342.960837
_symmetry_space_group_name_H-M "C 2/C"
_symmetry_group_IT_number 15
_symmetry_cell_setting 'monoclinic'
loop_
_space_group_symop_operation_xyz
x,y,z
-x,y,1/2-z
-x,-y,-z
x,-y,1/2+z
1/2+x,1/2+y,z
1/2-x,1/2+y,1/2-z
1/2-x,1/2-y,-z
1/2+x,1/2-y,1/2+z
loop_
_atom_site_type_symbol
_atom_site_label
_atom_site_fract_x
_atom_site_fract_y
_atom_site_fract_z
Si Si1 0.444637 0.897525 0.098352
Si Si2 0.287840 0.925034 0.537313
Si Si3 0.290576 0.862003 0.233527
Si Si4 0.747197 0.674601 0.325100
Si Si5 0.929519 0.229234 0.969959
Si Si6 0.249938 0.892013 0.417642
O O1 0.606069 0.880427 0.186495
O O2 0.616804 0.920570 0.097542
O O3 0.271189 0.814073 0.047811
O O4 0.273088 0.981203 0.060718
O O5 0.524124 0.884050 0.620062
O O6 0.084237 0.852723 0.489263
O O7 0.305353 0.942149 0.482825
O O8 0.500000 0.892157 0.250000
O O9 0.259471 0.756927 0.214637
O O10 0.027891 0.896326 0.159700
O O11 0.500000 0.628446 0.250000
O O12 0.790553 0.720628 0.390150
O O13 0.125267 0.295545 0.041143
#
# Coordination Sequence:
#
# PCOD9308690 Si02
#       6
#     8   8   8   8   8   8
#     4  12  24  36  61  95 128 150 194 261 311 335
#     4  11  22  39  63  91 118 161 202 248 298 358
#     4  11  20  40  65  83 114 168 203 236 296 368
#     4  10  18  37  67  82 109 161 216 231 280 362
#     4  11  20  39  65  86 117 169 201 237 292 367
#     4  11  22  40  62  90 122 157 202 245 299 364
#
# _framework density 10.243449
#
# number of rings (size 3 to 8) (size 9 to 14) (size 15 to 20)
#    0.000    1.000    6.667    3.000    0.000    1.333 
#    0.000    0.000    3.667    0.000    0.000    0.000 
#    0.000    0.000    0.000    0.000    0.000    0.000 
#
# Total GULP energy -133701.865284 kJ/mol
# GULP energy per Si atom -5570.911053 kJ/mol
# Density = 1.022013 g / cm^3
# Si number density = 10.243449 Si / 1000 Ang^3
#
#
#
# Elastic Constant Matrix: (Units=GPa)
#
#
# Indices 1 2 3 4 5 6 
#
# 1 73.9477 -3.3050 47.2275 0.0000 30.8810 0.0000
# 2 -3.3050 15.2887 -5.9884 0.0000 21.0116 0.0000
# 3 47.2275 -5.9884 107.9476 0.0000 46.8833 0.0000
# 4 0.0000 0.0000 0.0000 31.3059 0.0000 8.0960
# 5 30.8810 21.0116 46.8833 0.0000 23.5612 0.0000
# 6 0.0000 0.0000 0.0000 8.0960 0.0000 20.6170
#
#
#
# Elastic Compliance Matrix: (Units=1/GPa)
#
#
# Indices 1 2 3 4 5 6 
#
# 1 0.017513 -0.008488 -0.010688 0.000000 0.005884 0.000000
# 2 -0.008488 -0.002163 -0.015288 0.000000 0.043474 0.000000
# 3 -0.010688 -0.015288 0.008000 0.000000 0.011723 0.000000
# 4 0.000000 0.000000 0.000000 0.035553 0.000000 -0.013961
# 5 0.005884 0.043474 0.011723 0.000000 -0.027367 0.000000
# 6 0.000000 0.000000 0.000000 -0.013961 0.000000 0.053986
#
#
# Mechanical properties :
#
#
# Convention : Reuss Voigt Hill
#
# Bulk Modulus (GPa) = -21.94031 30.33914 4.19941
# Shear Modulus (GPa) = 35.90432 25.71350 30.80891
#
# Velocity S-wave (km/s) = 4.19089 3.54661 3.88214
# Velocity P-wave (km/s) = 3.56165 5.62249 4.70626
#
# Compressibility (1/GPa) = -0.04557821
#
# Stress axis : x y z
#
# Youngs Moduli (GPa) = 57.10169 -462.38258 124.99345
#
# Poissons Ratio (x) = -3.92465 1.33598
# Poissons Ratio (y) = 0.48467 1.91090
# Poissons Ratio (z) = 0.61033 -7.06889
#
# Static dielectric constant tensor:
#      x y z
#    x 1.814960 0.000000 0.016340 
#    y 0.000000 1.759120 0.000000 
#    z 0.016340 0.000000 1.700070 
# 
# From -- ./inp_files/289094.got.cif
#   From: 2010.05.17/outbox.ucp.g08.bks.cvg/sg15_145_cif.got.tgz:289094.got - 2010.06.11 12:40:34.
