data_PCOD9308870
_publ_section_title
;
Structure prediction by ZEFSAII (Michael W. Deem and Ramdas Pophale) SiO2 
 PCOD9308870
Probable space group: C 2/C
;
_chemical_formula_sum "Si O2"
_cell_formula_units_Z 24
_cell_length_a 15.000000
_cell_length_b 30.000000
_cell_length_c 15.000000
_cell_angle_alpha 90.000000
_cell_angle_beta 160.000000
_cell_angle_gamma 90.000000
_cell_volume 2308.635967
_symmetry_space_group_name_H-M "C 2/C"
_symmetry_group_IT_number 15
_symmetry_cell_setting 'monoclinic'
loop_
_space_group_symop_operation_xyz
x,y,z
-x,y,1/2-z
-x,-y,-z
x,-y,1/2+z
1/2+x,1/2+y,z
1/2-x,1/2+y,1/2-z
1/2-x,1/2-y,-z
1/2+x,1/2-y,1/2+z
loop_
_atom_site_type_symbol
_atom_site_label
_atom_site_fract_x
_atom_site_fract_y
_atom_site_fract_z
Si Si1 0.733760 0.876909 0.781917
Si Si2 0.348702 0.224975 0.338158
Si Si3 0.676176 0.413754 0.322703
Si Si4 0.764700 0.899090 0.604067
Si Si5 0.790964 0.302364 0.984453
Si Si6 0.787950 0.504422 0.480768
O O1 0.710139 0.823775 0.753257
O O2 0.463293 0.892423 0.575952
O O3 0.803536 0.894695 0.747364
O O4 0.979215 0.891938 0.069368
O O5 0.645098 0.240231 0.605924
O O6 0.295280 0.221914 0.394155
O O7 0.500000 0.411969 0.250000
O O8 0.738955 0.465942 0.363475
O O9 0.614757 0.853201 0.444886
O O10 0.000000 0.899168 0.750000
O O11 0.620644 0.946299 0.459067
O O12 0.500000 0.305966 0.750000
O O13 0.000000 0.283387 0.250000
O O14 0.500000 0.510460 0.250000
O O15 0.000000 0.486136 0.750000
#
# Coordination Sequence:
#
# PCOD9308870 Si02
#       6
#     8   8   8   8   8   8
#     4  11  24  41  66  92 118 163 204 244 313 366
#     4  11  23  39  59  85 118 152 194 251 306 362
#     4  11  23  42  65  90 120 155 205 261 307 357
#     4   9  21  38  59  90 133 170 203 241 283 351
#     4  10  20  34  54  82 119 165 206 237 281 342
#     4  10  20  36  60  89 124 164 202 246 296 344
#
# _framework density 10.395749
#
# number of rings (size 3 to 8) (size 9 to 14) (size 15 to 20)
#    0.000    1.667    0.000    5.000    0.000   12.667 
#    0.000    0.000    0.000   10.000    0.000    0.000 
#    0.000    0.000    0.000    0.000    0.000    0.000 
#
# Total GULP energy -133630.708856 kJ/mol
# GULP energy per Si atom -5567.946202 kJ/mol
# Density = 1.037209 g / cm^3
# Si number density = 10.395749 Si / 1000 Ang^3
#
#
#
# Elastic Constant Matrix: (Units=GPa)
#
#
# Indices 1 2 3 4 5 6 
#
# 1 23.4973 -2.4400 -29.0897 -0.0044 6.7739 -0.0028
# 2 -2.4400 138.5184 21.7056 -0.0022 -20.4333 -0.0018
# 3 -29.0897 21.7056 89.9077 0.0020 2.9136 -0.0028
# 4 -0.0044 -0.0022 0.0020 44.8242 0.0012 33.2009
# 5 6.7739 -20.4333 2.9136 0.0012 30.9752 -0.0027
# 6 -0.0028 -0.0018 -0.0028 33.2009 -0.0027 43.5795
#
#
#
# Elastic Compliance Matrix: (Units=1/GPa)
#
#
# Indices 1 2 3 4 5 6 
#
# 1 0.088199 -0.007323 0.031182 0.000008 -0.027052 0.000000
# 2 -0.007323 0.009025 -0.004808 -0.000001 0.008007 0.000001
# 3 0.031182 -0.004808 0.022765 0.000001 -0.012132 0.000002
# 4 0.000008 -0.000001 0.000001 0.051202 -0.000008 -0.039008
# 5 -0.027052 0.008007 -0.012132 -0.000008 0.044623 0.000006
# 6 0.000000 0.000001 0.000002 -0.039008 0.000006 0.052665
#
#
# Mechanical properties :
#
#
# Convention : Reuss Voigt Hill
#
# Bulk Modulus (GPa) = 6.32547 25.80833 16.06690
# Shear Modulus (GPa) = 17.66320 41.32563 29.49441
#
# Velocity S-wave (km/s) = 2.91785 4.46311 3.77049
# Velocity P-wave (km/s) = 3.79483 6.24492 5.16719
#
# Compressibility (1/GPa) = 0.15809102
#
# Stress axis : x y z
#
# Youngs Moduli (GPa) = 11.33797 110.80658 43.92684
#
# Poissons Ratio (x) = 0.81143 -1.36971
# Poissons Ratio (y) = 0.08303 0.21118
# Poissons Ratio (z) = -0.35354 0.53271
#
# Static dielectric constant tensor:
#      x y z
#    x 1.741800 0.000000 -0.043960 
#    y 0.000000 1.807040 0.000000 
#    z -0.043960 0.000000 1.716050 
# 
# From -- ./inp_files/157702.got.cif
#   From: 2010.05.17/outbox.ucp.g08.bks.cvg/sg15_79_cif.got.tgz:157702.got - 2010.06.11 12:40:34.
