data_PCOD9308971
_publ_section_title
;
Structure prediction by ZEFSAII (Michael W. Deem and Ramdas Pophale) SiO2 
 PCOD9308971
Probable space group: C 2/C
;
_chemical_formula_sum "Si O2"
_cell_formula_units_Z 28
_cell_length_a 12.000000
_cell_length_b 15.000000
_cell_length_c 18.000000
_cell_angle_alpha 90.000000
_cell_angle_beta 120.000000
_cell_angle_gamma 90.000000
_cell_volume 2805.922308
_symmetry_space_group_name_H-M "C 2/C"
_symmetry_group_IT_number 15
_symmetry_cell_setting 'monoclinic'
loop_
_space_group_symop_operation_xyz
x,y,z
-x,y,1/2-z
-x,-y,-z
x,-y,1/2+z
1/2+x,1/2+y,z
1/2-x,1/2+y,1/2-z
1/2-x,1/2-y,-z
1/2+x,1/2-y,1/2+z
loop_
_atom_site_type_symbol
_atom_site_label
_atom_site_fract_x
_atom_site_fract_y
_atom_site_fract_z
Si Si1 0.406233 0.036924 0.158709
Si Si2 0.712548 0.784543 0.088988
Si Si3 0.959470 0.806789 0.088759
Si Si4 0.391516 0.863980 0.870129
Si Si5 0.475300 0.497615 0.153120
Si Si6 0.673607 0.991635 0.031937
Si Si7 0.312703 0.633449 0.316662
O O1 0.500000 0.987974 0.250000
O O2 0.503395 0.110470 0.157442
O O3 0.284762 0.080578 0.159999
O O4 0.362256 0.992890 0.066443
O O5 0.866804 0.787435 0.129114
O O6 0.664275 0.885463 0.053624
O O7 0.680258 0.736535 0.155457
O O8 0.646583 0.713338 0.010549
O O9 0.070788 0.738076 0.103218
O O10 0.008670 0.906035 0.120046
O O11 0.254377 0.870701 0.785784
O O12 0.396305 0.938012 0.936650
O O13 0.500000 0.487454 0.250000
O O14 0.324539 0.510520 0.090621
O O15 0.556281 0.579024 0.146595
#
# Coordination Sequence:
#
# PCOD9308971 Si02
#       7
#     8   8   8   8   8   8   8
#     4  10  21  36  61  95 122 158 211 260 314 366
#     4  10  20  37  60  95 121 159 209 259 312 371
#     4  10  21  36  62  94 120 161 211 265 312 363
#     4  11  21  36  64  95 129 162 207 262 318 370
#     4  11  24  40  61  94 127 166 215 255 317 377
#     4  11  22  40  65  93 131 168 206 258 320 375
#     4  11  22  38  61  93 128 169 211 259 307 379
#
# _framework density 9.9788940000000004
#
# number of rings (size 3 to 8) (size 9 to 14) (size 15 to 20)
#    0.000    1.429    4.286    2.143    4.000    2.286 
#    0.000    0.000    3.143    2.571    0.000    0.000 
#    0.000    0.000    0.000    0.000    0.000    0.000 
#
# Total GULP energy -155978.449698 kJ/mol
# GULP energy per Si atom -5570.658918 kJ/mol
# Density = 0.995618 g / cm^3
# Si number density = 9.978894 Si / 1000 Ang^3
#
#
#
# Elastic Constant Matrix: (Units=GPa)
#
#
# Indices 1 2 3 4 5 6 
#
# 1 64.5909 42.9744 30.7568 0.0000 8.3275 0.0000
# 2 42.9744 101.4968 35.9751 0.0000 -0.6783 0.0000
# 3 30.7568 35.9751 118.7708 0.0000 -0.4618 0.0000
# 4 0.0000 0.0000 0.0000 20.0217 0.0000 -1.6536
# 5 8.3275 -0.6783 -0.4618 0.0000 28.0537 0.0000
# 6 0.0000 0.0000 0.0000 -1.6536 0.0000 32.8805
#
#
#
# Elastic Compliance Matrix: (Units=1/GPa)
#
#
# Indices 1 2 3 4 5 6 
#
# 1 0.024122 -0.009006 -0.003548 0.000000 -0.007437 0.000000
# 2 -0.009006 0.014401 -0.002018 0.000000 0.002988 0.000000
# 3 -0.003548 -0.002018 0.009954 0.000000 0.001168 0.000000
# 4 0.000000 0.000000 0.000000 0.050154 0.000000 0.002522
# 5 -0.007437 0.002988 0.001168 0.000000 0.037945 0.000000
# 6 0.000000 0.000000 0.000000 0.002522 0.000000 0.030540
#
#
# Mechanical properties :
#
#
# Convention : Reuss Voigt Hill
#
# Bulk Modulus (GPa) = 51.72305 56.03015 53.87660
# Shear Modulus (GPa) = 24.66654 27.86799 26.26726
#
# Velocity S-wave (km/s) = 3.51940 3.74083 3.63180
# Velocity P-wave (km/s) = 6.51824 6.84059 6.68136
#
# Compressibility (1/GPa) = 0.01933374
#
# Stress axis : x y z
#
# Youngs Moduli (GPa) = 41.45609 69.44010 100.46047
#
# Poissons Ratio (x) = 0.62535 0.35641
# Poissons Ratio (y) = 0.37334 0.20276
# Poissons Ratio (z) = 0.14708 0.14015
#
# Static dielectric constant tensor:
#      x y z
#    x 1.724190 0.000000 0.005710 
#    y 0.000000 1.716140 0.000000 
#    z 0.005710 0.000000 1.800370 
# 
# From -- ./inp_files/198410.got.cif
#   From: 2010.05.17/outbox.ucp.g08.bks.cvg/sg15_100_cif.got.tgz:198410.got - 2010.06.11 12:40:34.
