data_PCOD9308448
_publ_section_title
;
Structure prediction by ZEFSAII (Michael W. Deem and Ramdas Pophale) SiO2 
 PCOD9308448
Probable space group: C 2/C
;
_chemical_formula_sum "Si O2"
_cell_formula_units_Z 48
_cell_length_a 17.963386
_cell_length_b 9.694211
_cell_length_c 14.076769
_cell_angle_alpha 90.000000
_cell_angle_beta 69.280061
_cell_angle_gamma 90.000000
_cell_volume 2292.790233
_symmetry_space_group_name_H-M "C 2/C"
_symmetry_group_IT_number 15
_symmetry_cell_setting 'monoclinic'
loop_
_space_group_symop_operation_xyz
x,y,z
-x,y,1/2-z
-x,-y,-z
x,-y,1/2+z
1/2+x,1/2+y,z
1/2-x,1/2+y,1/2-z
1/2-x,1/2-y,-z
1/2+x,1/2-y,1/2+z
loop_
_atom_site_type_symbol
_atom_site_label
_atom_site_fract_x
_atom_site_fract_y
_atom_site_fract_z
Si Si1 0.670664 0.838010 0.649121
Si Si2 0.909599 0.076778 0.807264
Si Si3 0.336874 0.165504 0.566579
Si Si4 0.084691 0.071914 0.469403
Si Si5 0.762262 0.096532 0.610141
Si Si6 0.243066 0.093137 0.119750
O O1 0.609800 0.730150 0.723609
O O2 0.643066 0.860823 0.553018
O O3 0.754146 0.753009 0.606588
O O4 0.695015 0.988743 0.673786
O O5 0.899429 0.087898 0.925419
O O6 0.000000 0.034084 0.750000
O O7 0.841313 0.969433 0.809569
O O8 0.401600 0.273545 0.577730
O O9 0.312028 0.015556 0.615511
O O10 0.152757 0.968647 0.402675
O O11 0.000000 0.000000 0.500000
O O12 0.758037 0.098867 0.495930
O O13 0.753725 0.251605 0.650275
#
# Coordination Sequence:
#
# PCOD9308448 Si02
#       6
#     8   8   8   8   8   8
#     4   7  11  21  37  56  75  98 132 164 188 224
#     4   9  16  26  41  60  81 105 131 164 206 245
#     4   7  11  21  37  56  76  99 131 164 190 225
#     4   9  16  26  41  60  81 105 132 166 205 244
#     4   8  13  23  41  61  77 100 138 174 197 223
#     4   8  13  23  41  61  78 101 137 174 198 225
#
# _framework density 20.935191
#
# number of rings (size 3 to 8) (size 9 to 14) (size 15 to 20)
#    0.000    4.000    0.000    4.000    0.000    0.000 
#    0.000    1.667    0.000    6.000    0.000    0.000 
#    0.000    0.000    0.000    0.000    0.000    0.000 
#
# Total GULP energy -133625.979276 kJ/mol
# GULP energy per Si atom -5567.749137 kJ/mol
# Density = 2.088754 g / cm^3
# Si number density = 20.935191 Si / 1000 Ang^3
#
#
#
# Elastic Constant Matrix: (Units=GPa)
#
#
# Indices 1 2 3 4 5 6 
#
# 1 69.2536 62.1562 19.3842 0.0000 -19.9542 0.0000
# 2 62.1562 227.2501 28.0913 0.0000 -27.7458 0.0000
# 3 19.3842 28.0913 58.0925 0.0000 3.6071 0.0000
# 4 0.0000 0.0000 0.0000 5.2863 0.0000 -5.0828
# 5 -19.9542 -27.7458 3.6071 0.0000 33.8281 0.0000
# 6 0.0000 0.0000 0.0000 -5.0828 0.0000 13.3912
#
#
#
# Elastic Compliance Matrix: (Units=1/GPa)
#
#
# Indices 1 2 3 4 5 6 
#
# 1 0.023132 -0.004215 -0.006355 0.000000 0.010866 0.000000
# 2 -0.004215 0.006093 -0.001707 0.000000 0.002693 0.000000
# 3 -0.006355 -0.001707 0.020616 0.000000 -0.007347 0.000000
# 4 0.000000 0.000000 0.000000 0.297881 0.000000 0.113064
# 5 0.010866 0.002693 -0.007347 0.000000 0.038963 0.000000
# 6 0.000000 0.000000 0.000000 0.113064 0.000000 0.117590
#
#
# Mechanical properties :
#
#
# Convention : Reuss Voigt Hill
#
# Bulk Modulus (GPa) = 39.54605 63.76217 51.65411
# Shear Modulus (GPa) = 9.30648 26.83208 18.06928
#
# Velocity S-wave (km/s) = 2.11069 3.58393 2.94105
# Velocity P-wave (km/s) = 4.98706 6.90283 6.02162
#
# Compressibility (1/GPa) = 0.02528697
#
# Stress axis : x y z
#
# Youngs Moduli (GPa) = 43.23006 164.11935 48.50524
#
# Poissons Ratio (x) = 0.69172 0.30826
# Poissons Ratio (y) = 0.18220 0.08281
# Poissons Ratio (z) = 0.27474 0.28020
#
# Static dielectric constant tensor:
#      x y z
#    x 1.772190 0.000000 0.037910 
#    y 0.000000 1.802920 0.000000 
#    z 0.037910 0.000000 1.805140 
# 
# From -- ./inp_files/213091.got.cif
#   From: 2010.05.17/outbox.cif.g08.bks.cpg/sg15_107_cif.got.tgz:213091.got - 2010.06.03 18:47:42.
