data_PCOD9308955
_publ_section_title
;
Structure prediction by ZEFSAII (Michael W. Deem and Ramdas Pophale) SiO2 
 PCOD9308955
Probable space group: C 2/C
;
_chemical_formula_sum "Si O2"
_cell_formula_units_Z 24
_cell_length_a 12.000000
_cell_length_b 15.000000
_cell_length_c 27.000000
_cell_angle_alpha 90.000000
_cell_angle_beta 150.000000
_cell_angle_gamma 90.000000
_cell_volume 2430.000000
_symmetry_space_group_name_H-M "C 2/C"
_symmetry_group_IT_number 15
_symmetry_cell_setting 'monoclinic'
loop_
_space_group_symop_operation_xyz
x,y,z
-x,y,1/2-z
-x,-y,-z
x,-y,1/2+z
1/2+x,1/2+y,z
1/2-x,1/2+y,1/2-z
1/2-x,1/2-y,-z
1/2+x,1/2-y,1/2+z
loop_
_atom_site_type_symbol
_atom_site_label
_atom_site_fract_x
_atom_site_fract_y
_atom_site_fract_z
Si Si1 0.561874 0.269036 0.002950
Si Si2 0.098210 0.855103 0.918064
Si Si3 0.080582 0.504741 0.904894
Si Si4 0.290019 0.836402 0.480146
Si Si5 0.103020 0.971726 0.181570
Si Si6 0.239182 0.436514 0.364891
O O1 0.785143 0.219218 0.070336
O O2 0.418085 0.201439 0.981087
O O3 0.630050 0.352209 0.063425
O O4 0.469990 0.308868 0.915109
O O5 0.972240 0.927351 0.836149
O O6 0.289703 0.917174 0.016524
O O7 0.089826 0.413593 0.940143
O O8 0.193899 0.497606 0.893744
O O9 0.833974 0.539915 0.798461
O O10 0.250000 0.750000 0.500000
O O11 0.069502 0.890947 0.377633
O O12 0.136464 0.975824 0.134644
O O13 0.000000 0.408785 0.250000
#
# Coordination Sequence:
#
# PCOD9308955 Si02
#       6
#     8   8   8   8   8   8
#     4  10  20  37  55  85 113 150 195 234 288 337
#     4   9  21  38  60  78 118 158 187 233 289 353
#     4   9  21  37  57  84 118 155 194 226 297 354
#     4  11  22  36  61  90 116 148 191 251 283 332
#     4  10  20  38  59  84 116 154 193 236 288 344
#     4   9  18  34  58  81 115 155 194 235 278 345
#
# _framework density 9.8765429999999999
#
# number of rings (size 3 to 8) (size 9 to 14) (size 15 to 20)
#    0.000    2.333    1.667    0.000    2.333    6.000 
#    6.000    2.500    0.000    0.000    0.000    0.000 
#    0.000    0.000    0.000    0.000    0.000    0.000 
#
# Total GULP energy -133805.933049 kJ/mol
# GULP energy per Si atom -5575.247210 kJ/mol
# Density = 0.985406 g / cm^3
# Si number density = 9.876543 Si / 1000 Ang^3
#
#
#
# Elastic Constant Matrix: (Units=GPa)
#
#
# Indices 1 2 3 4 5 6 
#
# 1 88.6288 35.5842 17.2840 0.0001 6.1213 0.0000
# 2 35.5842 97.8115 13.6022 0.0001 7.3606 0.0000
# 3 17.2840 13.6022 78.5366 0.0007 4.8795 0.0002
# 4 0.0001 0.0001 0.0007 10.0026 0.0002 2.3631
# 5 6.1213 7.3606 4.8795 0.0002 15.9531 0.0001
# 6 0.0000 0.0000 0.0002 2.3631 0.0001 44.5220
#
#
#
# Elastic Compliance Matrix: (Units=1/GPa)
#
#
# Indices 1 2 3 4 5 6 
#
# 1 0.013666 -0.004493 -0.002072 0.000000 -0.002537 0.000000
# 2 -0.004493 0.012259 -0.000907 0.000000 -0.003655 0.000000
# 3 -0.002072 -0.000907 0.013528 -0.000001 -0.002924 0.000000
# 4 0.000000 0.000000 -0.000001 0.101243 -0.000001 -0.005374
# 5 -0.002537 -0.003655 -0.002924 -0.000001 0.066238 0.000000
# 6 0.000000 0.000000 0.000000 -0.005374 0.000000 0.022746
#
#
# Mechanical properties :
#
#
# Convention : Reuss Voigt Hill
#
# Bulk Modulus (GPa) = 40.80089 44.21305 42.50697
# Shear Modulus (GPa) = 19.77893 27.32932 23.55413
#
# Velocity S-wave (km/s) = 3.16778 3.72364 3.45690
# Velocity P-wave (km/s) = 5.83781 6.39678 6.12368
#
# Compressibility (1/GPa) = 0.02450927
#
# Stress axis : x y z
#
# Youngs Moduli (GPa) = 73.17374 81.56965 73.92230
#
# Poissons Ratio (x) = 0.36647 0.15315
# Poissons Ratio (y) = 0.32875 0.06708
# Poissons Ratio (z) = 0.15160 0.07402
#
# Static dielectric constant tensor:
#      x y z
#    x 1.724940 0.000000 0.035780 
#    y 0.000000 1.691280 0.000000 
#    z 0.035780 0.000000 1.731960 
# 
# From -- ./inp_files/143560.got.cif
#   From: 2010.05.17/outbox.ucp.g08.bks.cvg/sg15_72_cif.got.tgz:143560.got - 2010.06.11 12:40:34.
