data_PCOD9308381
_publ_section_title
;
Structure prediction by ZEFSAII (Michael W. Deem and Ramdas Pophale) SiO2 
 PCOD9308381
Probable space group: C 2/C
;
_chemical_formula_sum "Si O2"
_cell_formula_units_Z 36
_cell_length_a 8.741825
_cell_length_b 13.713023
_cell_length_c 14.431840
_cell_angle_alpha 90.000000
_cell_angle_beta 134.785111
_cell_angle_gamma 90.000000
_cell_volume 1227.904969
_symmetry_space_group_name_H-M "C 2/C"
_symmetry_group_IT_number 15
_symmetry_cell_setting 'monoclinic'
loop_
_space_group_symop_operation_xyz
x,y,z
-x,y,1/2-z
-x,-y,-z
x,-y,1/2+z
1/2+x,1/2+y,z
1/2-x,1/2+y,1/2-z
1/2-x,1/2-y,-z
1/2+x,1/2-y,1/2+z
loop_
_atom_site_type_symbol
_atom_site_label
_atom_site_fract_x
_atom_site_fract_y
_atom_site_fract_z
Si Si1 0.057054 0.514889 0.414657
Si Si2 0.500000 0.630270 0.750000
Si Si3 0.088357 0.979139 0.639599
Si Si4 0.219019 0.682308 0.899570
Si Si5 0.190105 0.809207 0.583178
O O1 0.194624 0.421579 0.441721
O O2 0.148645 0.617665 0.406864
O O3 0.000000 0.500000 0.500000
O O4 0.633729 0.636027 0.155650
O O5 0.461314 0.548206 0.654398
O O6 0.302512 0.706715 0.652904
O O7 0.500000 0.200495 0.750000
O O8 0.331999 0.010660 0.766672
O O9 0.444323 0.698355 0.937623
O O10 0.250000 0.750000 0.000000
O O11 0.000000 0.000000 0.500000
#
# Coordination Sequence:
#
# PCOD9308381 Si02
#       5
#     8   4   8   8   8
#     4  12  28  57  90 135 193 253 322 412 497 594
#     4  12  30  58 104 148 194 276 322 402 526 588
#     4  12  28  55  91 142 201 247 333 409 485 602
#     4  12  29  59  89 133 191 252 329 409 490 593
#     4  12  27  60  97 139 198 256 338 406 506 597
#
# _framework density 29.318231999999998
#
# number of rings (size 3 to 8) (size 9 to 14) (size 15 to 20)
#    0.000    0.000    2.222    6.000    6.222    2.667 
#   16.000    0.000    4.889    0.000    0.000    0.000 
#    0.000    0.000    0.000    0.000    0.000    0.000 
#
# Total GULP energy -100462.974021 kJ/mol
# GULP energy per Si atom -5581.276335 kJ/mol
# Density = 2.925150 g / cm^3
# Si number density = 29.318232 Si / 1000 Ang^3
#
#
#
# Elastic Constant Matrix: (Units=GPa)
#
#
# Indices 1 2 3 4 5 6 
#
# 1 167.8965 102.5640 88.2811 0.0000 1.4686 0.0000
# 2 102.5640 237.2622 101.0511 0.0000 -15.5771 0.0000
# 3 88.2811 101.0511 191.8543 0.0000 -18.7811 0.0000
# 4 0.0000 0.0000 0.0000 41.5314 0.0000 3.2812
# 5 1.4686 -15.5771 -18.7811 0.0000 67.6849 0.0000
# 6 0.0000 0.0000 0.0000 3.2812 0.0000 79.7237
#
#
#
# Elastic Compliance Matrix: (Units=1/GPa)
#
#
# Indices 1 2 3 4 5 6 
#
# 1 0.009254 -0.002871 -0.002910 0.000000 -0.001669 0.000000
# 2 -0.002871 0.006339 -0.001921 0.000000 0.000988 0.000000
# 3 -0.002910 -0.001921 0.007736 0.000000 0.001768 0.000000
# 4 0.000000 0.000000 0.000000 0.024157 0.000000 -0.000994
# 5 -0.001669 0.000988 0.001768 0.000000 0.015528 0.000000
# 6 0.000000 0.000000 0.000000 -0.000994 0.000000 0.012584
#
#
# Mechanical properties :
#
#
# Convention : Reuss Voigt Hill
#
# Bulk Modulus (GPa) = 126.16329 131.20058 128.68194
# Shear Modulus (GPa) = 53.39425 58.12912 55.76169
#
# Velocity S-wave (km/s) = 4.27218 4.45758 4.36586
# Velocity P-wave (km/s) = 8.21347 8.44636 8.33073
#
# Compressibility (1/GPa) = 0.00792624
#
# Stress axis : x y z
#
# Youngs Moduli (GPa) = 108.05877 157.75986 129.26658
#
# Poissons Ratio (x) = 0.45289 0.37611
# Poissons Ratio (y) = 0.31021 0.24832
# Poissons Ratio (z) = 0.31441 0.30305
#
# Static dielectric constant tensor:
#      x y z
#    x 2.684560 0.000000 0.177170 
#    y 0.000000 2.479680 0.000000 
#    z 0.177170 0.000000 2.516580 
# 
# From -- ./inp_files/189091.got.cif
#   From: 2010.05.17/outbox.cif.g08.bks.cpg/sg15_95_cif.got.tgz:189091.got - 2010.06.03 18:47:42.
