data_PCOD9308938
_publ_section_title
;
Structure prediction by ZEFSAII (Michael W. Deem and Ramdas Pophale) SiO2 
 PCOD9308938
Probable space group: C 2/C
;
_chemical_formula_sum "Si O2"
_cell_formula_units_Z 28
_cell_length_a 18.000000
_cell_length_b 18.000000
_cell_length_c 9.000000
_cell_angle_alpha 90.000000
_cell_angle_beta 70.000000
_cell_angle_gamma 90.000000
_cell_volume 2740.143682
_symmetry_space_group_name_H-M "C 2/C"
_symmetry_group_IT_number 15
_symmetry_cell_setting 'monoclinic'
loop_
_space_group_symop_operation_xyz
x,y,z
-x,y,1/2-z
-x,-y,-z
x,-y,1/2+z
1/2+x,1/2+y,z
1/2-x,1/2+y,1/2-z
1/2-x,1/2-y,-z
1/2+x,1/2-y,1/2+z
loop_
_atom_site_type_symbol
_atom_site_label
_atom_site_fract_x
_atom_site_fract_y
_atom_site_fract_z
Si Si1 0.372648 0.954743 0.986915
Si Si2 0.869627 0.603285 0.158258
Si Si3 0.549282 0.697239 0.366437
Si Si4 0.965914 0.927354 0.109990
Si Si5 0.985011 0.646464 0.586028
Si Si6 0.305066 0.400208 0.706648
Si Si7 0.305357 0.445337 0.363730
O O1 0.441049 0.921150 0.040094
O O2 0.286381 0.922937 0.093196
O O3 0.370003 0.041313 0.028179
O O4 0.386787 0.936015 0.804760
O O5 0.781963 0.633528 0.234458
O O6 0.934631 0.660173 0.060017
O O7 0.500000 0.702747 0.250000
O O8 0.500516 0.645485 0.510617
O O9 0.565529 0.780165 0.406765
O O10 0.630647 0.656699 0.286159
O O11 0.872158 0.916904 0.204383
O O12 0.000000 0.937094 0.250000
O O13 0.000000 0.000000 0.000000
O O14 0.000000 0.634546 0.750000
O O15 0.322905 0.428766 0.525572
O O16 0.306894 0.467820 0.821151
#
# Coordination Sequence:
#
# PCOD9308938 Si02
#       7
#     8   8   8   8   8   8   8
#     4  10  21  39  66  93 118 152 195 252 303 357
#     4  10  21  40  68  93 118 153 196 251 304 356
#     4  11  25  41  57  83 122 167 204 242 296 355
#     4  12  21  35  60  86 121 161 202 247 294 348
#     4  11  24  44  59  86 122 160 202 247 301 362
#     4  10  21  39  60  92 122 153 198 250 298 355
#     4  10  20  36  60  92 119 150 199 245 300 347
#
# _framework density 10.218442
#
# number of rings (size 3 to 8) (size 9 to 14) (size 15 to 20)
#    0.000    1.429    2.857    2.143    2.000    2.286 
#    2.571    2.857    0.000    0.000    0.000    0.000 
#    0.000    0.000    0.000    0.000    0.000    0.000 
#
# Total GULP energy -156100.369847 kJ/mol
# GULP energy per Si atom -5575.013209 kJ/mol
# Density = 1.019518 g / cm^3
# Si number density = 10.218442 Si / 1000 Ang^3
#
#
#
# Elastic Constant Matrix: (Units=GPa)
#
#
# Indices 1 2 3 4 5 6 
#
# 1 68.8484 11.9202 14.9672 0.0000 -16.2235 0.0000
# 2 11.9202 17.8757 1.3905 0.0000 -8.8711 0.0000
# 3 14.9672 1.3905 81.5048 0.0000 -16.9975 0.0000
# 4 0.0000 0.0000 0.0000 2.1434 0.0000 6.9176
# 5 -16.2235 -8.8711 -16.9975 0.0000 28.8038 0.0000
# 6 0.0000 0.0000 0.0000 6.9176 0.0000 -4.2745
#
#
#
# Elastic Compliance Matrix: (Units=1/GPa)
#
#
# Indices 1 2 3 4 5 6 
#
# 1 0.017915 -0.008652 -0.001817 0.000000 0.006353 0.000000
# 2 -0.008652 0.071127 0.004479 0.000000 0.019676 0.000000
# 3 -0.001817 0.004479 0.014369 0.000000 0.008835 0.000000
# 4 0.000000 0.000000 0.000000 0.074973 0.000000 0.121330
# 5 0.006353 0.019676 0.008835 0.000000 0.049570 0.000000
# 6 0.000000 0.000000 0.000000 0.121330 0.000000 -0.037593
#
#
# Mechanical properties :
#
#
# Convention : Reuss Voigt Hill
#
# Bulk Modulus (GPa) = 10.93735 24.97608 17.95672
# Shear Modulus (GPa) = 21.47603 14.66459 18.07031
#
# Velocity S-wave (km/s) = 3.24519 2.68163 2.97678
# Velocity P-wave (km/s) = 4.40512 4.67288 4.54097
#
# Compressibility (1/GPa) = 0.09142982
#
# Stress axis : x y z
#
# Youngs Moduli (GPa) = 55.81978 14.05932 69.59404
#
# Poissons Ratio (x) = 0.12164 0.12647
# Poissons Ratio (y) = 0.48295 -0.31168
# Poissons Ratio (z) = 0.10144 -0.06297
#
# Static dielectric constant tensor:
#      x y z
#    x 1.814640 0.000000 -0.048740 
#    y 0.000000 1.725020 0.000000 
#    z -0.048740 0.000000 1.706480 
# 
# From -- ./inp_files/48988.got.cif
#   From: 2010.05.17/outbox.ucp.g08.bks.cvg/sg15_25_cif.got.tgz:48988.got - 2010.06.11 12:40:34.
