data_PCOD9308680
_publ_section_title
;
Structure prediction by ZEFSAII (Michael W. Deem and Ramdas Pophale) SiO2 
 PCOD9308680
Probable space group: C 2/C
;
_chemical_formula_sum "Si O2"
_cell_formula_units_Z 22
_cell_length_a 15.000000
_cell_length_b 30.000000
_cell_length_c 15.000000
_cell_angle_alpha 90.000000
_cell_angle_beta 160.000000
_cell_angle_gamma 90.000000
_cell_volume 2308.635967
_symmetry_space_group_name_H-M "C 2/C"
_symmetry_group_IT_number 15
_symmetry_cell_setting 'monoclinic'
loop_
_space_group_symop_operation_xyz
x,y,z
-x,y,1/2-z
-x,-y,-z
x,-y,1/2+z
1/2+x,1/2+y,z
1/2-x,1/2+y,1/2-z
1/2-x,1/2-y,-z
1/2+x,1/2-y,1/2+z
loop_
_atom_site_type_symbol
_atom_site_label
_atom_site_fract_x
_atom_site_fract_y
_atom_site_fract_z
Si Si1 0.500000 0.033131 0.750000
Si Si2 0.073632 0.722566 0.715018
Si Si3 0.304287 0.632427 0.848773
Si Si4 0.372672 0.597486 0.725921
Si Si5 0.781712 0.424832 0.877192
Si Si6 0.660308 0.040260 0.258868
O O1 0.706383 0.059364 0.007820
O O2 0.373531 0.002956 0.709989
O O3 0.207240 0.679064 0.798214
O O4 0.000000 0.714588 0.750000
O O5 0.796347 0.739161 0.415780
O O6 0.358820 0.633872 0.792996
O O7 0.055769 0.600459 0.625266
O O8 0.546329 0.608727 0.128118
O O9 0.500000 0.611288 0.750000
O O10 0.091261 0.572357 0.456260
O O11 0.578249 0.562480 0.958563
O O12 0.796478 0.461272 0.808850
#
# Coordination Sequence:
#
# PCOD9308680 Si02
#       6
#     4   8   8   8   8   8
#     4  12  22  38  56  80 116 158 200 260 286 334
#     4  10  21  39  65  91 113 151 185 223 285 353
#     4  10  22  40  58  85 123 143 192 243 277 359
#     4  10  18  36  59  83 107 158 196 235 290 336
#     4  10  24  37  54  86 113 160 193 239 302 330
#     4  10  21  36  56  76 114 150 208 247 282 341
#
# _framework density 9.5294369999999997
#
# number of rings (size 3 to 8) (size 9 to 14) (size 15 to 20)
#    0.000    1.818    1.818    1.636    1.273    3.636 
#    0.000    5.455    0.000    1.091    0.000    0.000 
#    0.000    0.000    0.000    0.000    0.000    0.000 
#
# Total GULP energy -122681.134299 kJ/mol
# GULP energy per Si atom -5576.415195 kJ/mol
# Density = 0.950775 g / cm^3
# Si number density = 9.529437 Si / 1000 Ang^3
#
#
#
# Elastic Constant Matrix: (Units=GPa)
#
#
# Indices 1 2 3 4 5 6 
#
# 1 140.5890 46.4560 31.1563 0.0279 -18.3227 0.0282
# 2 46.4560 60.9162 9.1960 0.0391 -4.6669 0.0358
# 3 31.1563 9.1960 89.9706 0.1414 3.1493 0.1332
# 4 0.0279 0.0391 0.1414 81.9875 0.0158 71.4726
# 5 -18.3227 -4.6669 3.1493 0.0158 38.7182 0.0160
# 6 0.0282 0.0358 0.1332 71.4726 0.0160 103.6839
#
#
#
# Elastic Compliance Matrix: (Units=1/GPa)
#
#
# Indices 1 2 3 4 5 6 
#
# 1 0.010866 -0.007465 -0.003157 0.000005 0.004499 0.000000
# 2 -0.007465 0.021983 0.000370 -0.000008 -0.000913 0.000000
# 3 -0.003157 0.000370 0.012256 -0.000018 -0.002446 -0.000003
# 4 0.000005 -0.000008 -0.000018 0.030563 -0.000001 -0.021068
# 5 0.004499 -0.000913 -0.002446 -0.000001 0.028046 -0.000001
# 6 0.000000 0.000000 -0.000003 -0.021068 -0.000001 0.024168
#
#
# Mechanical properties :
#
#
# Convention : Reuss Voigt Hill
#
# Bulk Modulus (GPa) = 40.64956 51.67693 46.16325
# Shear Modulus (GPa) = 31.93137 58.52243 45.22690
#
# Velocity S-wave (km/s) = 4.09761 5.54732 4.87664
# Velocity P-wave (km/s) = 6.61528 8.25855 7.48217
#
# Compressibility (1/GPa) = 0.02460051
#
# Stress axis : x y z
#
# Youngs Moduli (GPa) = 92.03257 45.48922 81.59342
#
# Poissons Ratio (x) = 0.33958 0.25761
# Poissons Ratio (y) = 0.68704 -0.03020
# Poissons Ratio (z) = 0.29057 -0.01684
#
# Static dielectric constant tensor:
#      x y z
#    x 1.714780 0.000000 -0.011230 
#    y 0.000000 1.695620 0.000000 
#    z -0.011230 0.000000 1.674100 
# 
# From -- ./inp_files/157570.got.cif
#   From: 2010.05.17/outbox.ucp.g08.bks.cvg/sg15_79_cif.got.tgz:157570.got - 2010.06.11 12:40:34.
