data_PCOD9308032
_publ_section_title
;
Structure prediction by ZEFSAII (Michael W. Deem and Ramdas Pophale) SiO2 
 PCOD9308032
Probable space group: C 2/C
;
_chemical_formula_sum "Si O2"
_cell_formula_units_Z 32
_cell_length_a 21.784280
_cell_length_b 5.151430
_cell_length_c 14.551319
_cell_angle_alpha 90.000000
_cell_angle_beta 57.137954
_cell_angle_gamma 90.000000
_cell_volume 1371.646051
_symmetry_space_group_name_H-M "C 2/C"
_symmetry_group_IT_number 15
_symmetry_cell_setting 'monoclinic'
loop_
_space_group_symop_operation_xyz
x,y,z
-x,y,1/2-z
-x,-y,-z
x,-y,1/2+z
1/2+x,1/2+y,z
1/2-x,1/2+y,1/2-z
1/2-x,1/2-y,-z
1/2+x,1/2-y,1/2+z
loop_
_atom_site_type_symbol
_atom_site_label
_atom_site_fract_x
_atom_site_fract_y
_atom_site_fract_z
Si Si1 0.228110 0.756986 0.360401
Si Si2 0.342617 0.136348 0.274161
Si Si3 0.500915 0.752701 0.933682
Si Si4 0.158865 0.255531 0.514428
O O1 0.202636 0.751708 0.275178
O O2 0.195314 0.506130 0.436818
O O3 0.314164 0.834477 0.296407
O O4 0.189646 0.998445 0.442109
O O5 0.425785 0.206464 0.184380
O O6 0.327093 0.236415 0.388643
O O7 0.427773 0.757973 0.933125
O O8 0.500000 0.500000 0.000000
O O9 0.500000 0.000000 0.000000
#
# Coordination Sequence:
#
# PCOD9308032 Si02
#       4
#     8   8   8   8
#     4  12  27  47  74 113 153 188 257 309 373 455
#     4  12  27  48  79 108 154 201 248 307 393 429
#     4  12  25  49  76 108 153 194 253 316 376 451
#     4  12  26  50  75 113 146 200 249 316 369 463
#
# _framework density 23.329630999999999
#
# number of rings (size 3 to 8) (size 9 to 14) (size 15 to 20)
#    0.000    0.000    5.000    3.750    0.000    8.000 
#    0.000    5.000    0.000    0.000    0.000    0.000 
#    0.000    0.000    0.000    0.000    0.000    0.000 
#
# Total GULP energy -89648.841039 kJ/mol
# GULP energy per Si atom -5603.052565 kJ/mol
# Density = 2.327653 g / cm^3
# Si number density = 23.329631 Si / 1000 Ang^3
#
#
#
# Elastic Constant Matrix: (Units=GPa)
#
#
# Indices 1 2 3 4 5 6 
#
# 1 183.9860 54.9852 79.3656 0.0015 -4.2365 -0.0039
# 2 54.9852 185.4668 92.5048 -0.0003 1.8792 0.0045
# 3 79.3656 92.5048 225.4651 0.0000 12.7905 -0.0017
# 4 0.0015 -0.0003 0.0000 29.2543 0.0007 -7.2533
# 5 -4.2365 1.8792 12.7905 0.0007 67.9731 -0.0008
# 6 -0.0039 0.0045 -0.0017 -7.2533 -0.0008 27.3170
#
#
#
# Elastic Compliance Matrix: (Units=1/GPa)
#
#
# Indices 1 2 3 4 5 6 
#
# 1 0.006595 -0.000984 -0.001964 0.000000 0.000808 0.000001
# 2 -0.000984 0.006934 -0.002511 0.000000 0.000219 -0.000001
# 3 -0.001964 -0.002511 0.006226 0.000000 -0.001225 0.000001
# 4 0.000000 0.000000 0.000000 0.036592 0.000000 0.009716
# 5 0.000808 0.000219 -0.001225 0.000000 0.014986 0.000000
# 6 0.000001 -0.000001 0.000001 0.009716 0.000000 0.039187
#
#
# Mechanical properties :
#
#
# Convention : Reuss Voigt Hill
#
# Bulk Modulus (GPa) = 113.15013 116.51435 114.83224
# Shear Modulus (GPa) = 40.19849 49.44637 44.82243
#
# Velocity S-wave (km/s) = 4.15549 4.60876 4.38798
# Velocity P-wave (km/s) = 8.46345 8.85279 8.66031
#
# Compressibility (1/GPa) = 0.00883782
#
# Stress axis : x y z
#
# Youngs Moduli (GPa) = 151.63267 144.22469 160.61459
#
# Poissons Ratio (x) = 0.14192 0.31538
# Poissons Ratio (y) = 0.14921 0.40328
# Poissons Ratio (z) = 0.29774 0.36212
#
# Static dielectric constant tensor:
#      x y z
#    x 2.003330 0.000000 -0.141990 
#    y 0.000000 1.946540 0.000000 
#    z -0.141990 0.000000 1.911400 
# 
# From -- ./inp_files/170212.got.cif
#   From: 2010.05.17/outbox.cif.g08.bks.cpg/sg15_86_cif.got.tgz:170212.got - 2010.06.03 18:47:42.
