data_PCOD9308150
_publ_section_title
;
Structure prediction by ZEFSAII (Michael W. Deem and Ramdas Pophale) SiO2 
 PCOD9308150
Probable space group: C 2/C
;
_chemical_formula_sum "Si O2"
_cell_formula_units_Z 36
_cell_length_a 14.288124
_cell_length_b 14.735779
_cell_length_c 13.543109
_cell_angle_alpha 90.000000
_cell_angle_beta 147.974103
_cell_angle_gamma 90.000000
_cell_volume 1512.134329
_symmetry_space_group_name_H-M "C 2/C"
_symmetry_group_IT_number 15
_symmetry_cell_setting 'monoclinic'
loop_
_space_group_symop_operation_xyz
x,y,z
-x,y,1/2-z
-x,-y,-z
x,-y,1/2+z
1/2+x,1/2+y,z
1/2-x,1/2+y,1/2-z
1/2-x,1/2-y,-z
1/2+x,1/2-y,1/2+z
loop_
_atom_site_type_symbol
_atom_site_label
_atom_site_fract_x
_atom_site_fract_y
_atom_site_fract_z
Si Si1 0.500000 0.097129 0.750000
Si Si2 0.702425 0.838923 0.250891
Si Si3 0.299420 0.981885 0.404448
Si Si4 0.617506 0.633697 0.112007
Si Si5 0.213256 0.354317 0.945403
O O1 0.365414 0.153480 0.697517
O O2 0.407209 0.036071 0.584336
O O3 0.610112 0.913166 0.094777
O O4 0.675854 0.735973 0.192575
O O5 0.906770 0.864854 0.425777
O O6 0.204234 0.909587 0.390176
O O7 0.186407 0.056546 0.246944
O O8 0.702319 0.614948 0.081520
O O9 0.000000 0.363328 0.750000
O O10 0.250000 0.250000 0.000000
#
# Coordination Sequence:
#
# PCOD9308150 Si02
#       5
#     4   8   8   8   8
#     4  12  28  48  78 108 148 206 250 304 382 434
#     4  12  28  50  76 108 154 196 250 317 365 447
#     4  12  27  48  78 110 154 194 252 309 369 451
#     4  12  28  49  77 113 149 199 250 309 375 442
#     4  12  26  47  79 111 148 197 241 304 375 439
#
# _framework density 23.807409
#
# number of rings (size 3 to 8) (size 9 to 14) (size 15 to 20)
#    0.000    0.000    3.333    5.333    3.111    6.222 
#    0.000    0.000    0.000    0.000    0.000    0.000 
#    0.000    0.000    0.000    0.000    0.000    0.000 
#
# Total GULP energy -100815.597038 kJ/mol
# GULP energy per Si atom -5600.866502 kJ/mol
# Density = 2.375322 g / cm^3
# Si number density = 23.807409 Si / 1000 Ang^3
#
#
#
# Elastic Constant Matrix: (Units=GPa)
#
#
# Indices 1 2 3 4 5 6 
#
# 1 214.5703 36.7493 76.7239 -0.0007 -31.6463 -0.0004
# 2 36.7493 144.2298 63.4164 -0.0010 -32.9485 -0.0007
# 3 76.7239 63.4164 121.0021 -0.0007 -24.8783 -0.0006
# 4 -0.0007 -0.0010 -0.0007 54.1679 -0.0007 -22.4981
# 5 -31.6463 -32.9485 -24.8783 -0.0007 49.6564 -0.0005
# 6 -0.0004 -0.0007 -0.0006 -22.4981 -0.0005 36.2545
#
#
#
# Elastic Compliance Matrix: (Units=1/GPa)
#
#
# Indices 1 2 3 4 5 6 
#
# 1 0.006282 0.000650 -0.003804 0.000000 0.002529 0.000000
# 2 0.000650 0.009862 -0.004627 0.000000 0.004640 0.000000
# 3 -0.003804 -0.004627 0.013346 0.000000 0.001192 0.000000
# 4 0.000000 0.000000 0.000000 0.024872 0.000001 0.015434
# 5 0.002529 0.004640 0.001192 0.000001 0.025426 0.000001
# 6 0.000000 0.000000 0.000000 0.015434 0.000001 0.037161
#
#
# Mechanical properties :
#
#
# Convention : Reuss Voigt Hill
#
# Bulk Modulus (GPa) = 71.79379 92.62014 82.20697
# Shear Modulus (GPa) = 36.45536 48.20995 42.33266
#
# Velocity S-wave (km/s) = 3.91738 4.50488 4.22136
# Velocity P-wave (km/s) = 7.11918 8.12693 7.63969
#
# Compressibility (1/GPa) = 0.01392878
#
# Stress axis : x y z
#
# Youngs Moduli (GPa) = 159.17487 101.39867 74.92764
#
# Poissons Ratio (x) = -0.06586 0.28502
# Poissons Ratio (y) = -0.10339 0.34666
# Poissons Ratio (z) = 0.60549 0.46913
#
# Static dielectric constant tensor:
#      x y z
#    x 2.016220 0.000000 0.431550 
#    y 0.000000 1.926320 0.000000 
#    z 0.431550 0.000000 4.160090 
# 
# From -- ./inp_files/97249.got.cif
#   From: 2010.05.17/outbox.cif.g08.bks.cpg/sg15_49_cif.got.tgz:97249.got - 2010.06.03 18:47:42.
