data_PCOD9308026
_publ_section_title
;
Structure prediction by ZEFSAII (Michael W. Deem and Ramdas Pophale) SiO2 
 PCOD9308026
Probable space group: C 2/C
;
_chemical_formula_sum "Si O2"
_cell_formula_units_Z 40
_cell_length_a 8.107389
_cell_length_b 12.009230
_cell_length_c 18.992595
_cell_angle_alpha 90.000000
_cell_angle_beta 110.858571
_cell_angle_gamma 90.000000
_cell_volume 1727.993917
_symmetry_space_group_name_H-M "C 2/C"
_symmetry_group_IT_number 15
_symmetry_cell_setting 'monoclinic'
loop_
_space_group_symop_operation_xyz
x,y,z
-x,y,1/2-z
-x,-y,-z
x,-y,1/2+z
1/2+x,1/2+y,z
1/2-x,1/2+y,1/2-z
1/2-x,1/2-y,-z
1/2+x,1/2-y,1/2+z
loop_
_atom_site_type_symbol
_atom_site_label
_atom_site_fract_x
_atom_site_fract_y
_atom_site_fract_z
Si Si1 0.805334 0.503930 0.374562
Si Si2 0.210780 0.593276 0.779164
Si Si3 0.547399 0.798099 0.680597
Si Si4 0.804290 0.721141 0.929083
Si Si5 0.464237 0.453453 0.916439
O O1 0.741639 0.464538 0.287616
O O2 0.930522 0.607393 0.374702
O O3 0.892584 0.397248 0.426168
O O4 0.640597 0.537705 0.397183
O O5 0.282750 0.719491 0.790903
O O6 0.308446 0.524269 0.855481
O O7 0.000000 0.595695 0.750000
O O8 0.500000 0.846720 0.750000
O O9 0.385153 0.718201 0.637834
O O10 0.909348 0.825005 0.914416
O O11 0.750000 0.750000 0.000000
O O12 0.500000 0.500000 0.000000
#
# Coordination Sequence:
#
# PCOD9308026 Si02
#       5
#     8   8   8   8   8
#     4  12  26  46  76 108 145 199 246 304 375 442
#     4  12  26  47  76 111 147 199 256 311 375 447
#     4  12  25  49  70 107 149 190 248 309 366 443
#     4  12  25  49  73 105 154 191 242 310 371 441
#     4  12  25  51  77 109 153 198 247 312 379 446
#
# _framework density 23.148229000000001
#
# number of rings (size 3 to 8) (size 9 to 14) (size 15 to 20)
#    0.000    0.000    6.000    3.600    2.800    0.800 
#    3.600    2.000    0.000    0.000    0.000    0.000 
#    0.000    0.000    0.000    0.000    0.000    0.000 
#
# Total GULP energy -112045.035028 kJ/mol
# GULP energy per Si atom -5602.251751 kJ/mol
# Density = 2.309554 g / cm^3
# Si number density = 23.148229 Si / 1000 Ang^3
#
#
#
# Elastic Constant Matrix: (Units=GPa)
#
#
# Indices 1 2 3 4 5 6 
#
# 1 121.9367 57.5278 43.3412 0.0000 -27.9184 0.0000
# 2 57.5278 158.1765 15.5644 0.0000 -27.2665 0.0000
# 3 43.3412 15.5644 121.1623 0.0000 -27.7256 0.0000
# 4 0.0000 0.0000 0.0000 38.7224 0.0000 -11.8820
# 5 -27.9184 -27.2665 -27.7256 0.0000 35.2724 0.0000
# 6 0.0000 0.0000 0.0000 -11.8820 0.0000 46.2769
#
#
#
# Elastic Compliance Matrix: (Units=1/GPa)
#
#
# Indices 1 2 3 4 5 6 
#
# 1 0.011750 -0.003197 -0.002719 0.000000 0.004692 0.000000
# 2 -0.003197 0.008182 0.001172 0.000000 0.004716 0.000000
# 3 -0.002719 0.001172 0.010718 0.000000 0.007179 0.000000
# 4 0.000000 0.000000 0.000000 0.028033 0.000000 0.007198
# 5 0.004692 0.004716 0.007179 0.000000 0.041352 0.000000
# 6 0.000000 0.000000 0.000000 0.007198 0.000000 0.023457
#
#
# Mechanical properties :
#
#
# Convention : Reuss Voigt Hill
#
# Bulk Modulus (GPa) = 47.25484 70.46025 58.85754
# Shear Modulus (GPa) = 35.70515 43.04382 39.37449
#
# Velocity S-wave (km/s) = 3.93167 4.31685 4.12876
# Velocity P-wave (km/s) = 6.40852 7.43988 6.94337
#
# Compressibility (1/GPa) = 0.02116185
#
# Stress axis : x y z
#
# Youngs Moduli (GPa) = 85.10742 122.21341 93.29999
#
# Poissons Ratio (x) = 0.39073 0.25366
# Poissons Ratio (y) = 0.27210 -0.10931
# Poissons Ratio (z) = 0.23139 -0.14319
#
# Static dielectric constant tensor:
#      x y z
#    x 1.818490 0.000000 0.010070 
#    y 0.000000 1.887450 0.000000 
#    z 0.010070 0.000000 1.884900 
# 
# From -- ./inp_files/187967.got.cif
#   From: 2010.05.17/outbox.cif.g08.bks.cpg/sg15_94_cif.got.tgz:187967.got - 2010.06.03 18:47:42.
