data_PCOD9308060
_publ_section_title
;
Structure prediction by ZEFSAII (Michael W. Deem and Ramdas Pophale) SiO2 
 PCOD9308060
Probable space group: C 2/C
;
_chemical_formula_sum "Si O2"
_cell_formula_units_Z 32
_cell_length_a 14.467105
_cell_length_b 5.153138
_cell_length_c 18.661830
_cell_angle_alpha 90.000000
_cell_angle_beta 98.740939
_cell_angle_gamma 90.000000
_cell_volume 1375.099187
_symmetry_space_group_name_H-M "C 2/C"
_symmetry_group_IT_number 15
_symmetry_cell_setting 'monoclinic'
loop_
_space_group_symop_operation_xyz
x,y,z
-x,y,1/2-z
-x,-y,-z
x,-y,1/2+z
1/2+x,1/2+y,z
1/2-x,1/2+y,1/2-z
1/2-x,1/2-y,-z
1/2+x,1/2-y,1/2+z
loop_
_atom_site_type_symbol
_atom_site_label
_atom_site_fract_x
_atom_site_fract_y
_atom_site_fract_z
Si Si1 0.684236 0.003229 0.000933
Si Si2 0.839700 0.057189 0.726087
Si Si3 0.866929 0.426993 0.841988
Si Si4 0.575840 0.942952 0.342998
O O1 0.609184 0.027039 0.928833
O O2 0.750000 0.750000 0.000000
O O3 0.640484 0.029277 0.074406
O O4 0.750000 0.250000 0.000000
O O5 0.728138 0.047081 0.701896
O O6 0.863226 0.128769 0.811688
O O7 0.881498 0.306329 0.690674
O O8 0.883332 0.812312 0.690305
O O9 0.964175 0.546991 0.827879
#
# Coordination Sequence:
#
# PCOD9308060 Si02
#       4
#     8   8   8   8
#     4  12  25  51  80 112 154 200 261 322 378 456
#     4  12  28  48  75 116 156 194 257 318 378 470
#     4  12  28  49  82 110 158 205 252 313 403 434
#     4  12  27  52  77 115 152 200 259 318 380 465
#
# _framework density 23.271046999999999
#
# number of rings (size 3 to 8) (size 9 to 14) (size 15 to 20)
#    0.000    0.000    5.000    3.000    0.000   14.000 
#    0.000    5.000    0.000    0.000    0.000    0.000 
#    0.000    0.000    0.000    0.000    0.000    0.000 
#
# Total GULP energy -89672.536338 kJ/mol
# GULP energy per Si atom -5604.533521 kJ/mol
# Density = 2.321808 g / cm^3
# Si number density = 23.271047 Si / 1000 Ang^3
#
#
#
# Elastic Constant Matrix: (Units=GPa)
#
#
# Indices 1 2 3 4 5 6 
#
# 1 234.9634 93.8934 77.3107 0.0000 -1.1997 0.0000
# 2 93.8934 199.3531 65.7641 0.0000 -10.5804 0.0000
# 3 77.3107 65.7641 195.6993 0.0000 -1.6597 0.0000
# 4 0.0000 0.0000 0.0000 32.7885 0.0000 -5.5933
# 5 -1.1997 -10.5804 -1.6597 0.0000 52.5318 0.0000
# 6 0.0000 0.0000 0.0000 -5.5933 0.0000 24.3580
#
#
#
# Elastic Compliance Matrix: (Units=1/GPa)
#
#
# Indices 1 2 3 4 5 6 
#
# 1 0.005612 -0.002170 -0.001491 0.000000 -0.000356 0.000000
# 2 -0.002170 0.006543 -0.001331 0.000000 0.001226 0.000000
# 3 -0.001491 -0.001331 0.006145 0.000000 -0.000108 0.000000
# 4 0.000000 0.000000 0.000000 0.031742 0.000000 0.007289
# 5 -0.000356 0.001226 -0.000108 0.000000 0.019271 0.000000
# 6 0.000000 0.000000 0.000000 0.007289 0.000000 0.042728
#
#
# Mechanical properties :
#
#
# Convention : Reuss Voigt Hill
#
# Bulk Modulus (GPa) = 120.25142 122.66137 121.45640
# Shear Modulus (GPa) = 40.06525 48.13883 44.10204
#
# Velocity S-wave (km/s) = 4.15381 4.55314 4.35805
# Velocity P-wave (km/s) = 8.64824 8.97027 8.81072
#
# Compressibility (1/GPa) = 0.00831591
#
# Stress axis : x y z
#
# Youngs Moduli (GPa) = 178.19223 152.84658 162.73207
#
# Poissons Ratio (x) = 0.33172 0.24258
# Poissons Ratio (y) = 0.38673 0.21657
# Poissons Ratio (z) = 0.26563 0.20341
#
# Static dielectric constant tensor:
#      x y z
#    x 1.811180 0.000000 -0.017550 
#    y 0.000000 1.937370 0.000000 
#    z -0.017550 0.000000 2.181650 
# 
# From -- ./inp_files/241541.got.cif
#   From: 2010.05.17/outbox.cif.g08.bks.cpg/sg15_121_cif.got.tgz:241541.got - 2010.06.03 18:47:42.
