data_PCOD9308295
_publ_section_title
;
Structure prediction by ZEFSAII (Michael W. Deem and Ramdas Pophale) SiO2 
 PCOD9308295
Probable space group: C 2/C
;
_chemical_formula_sum "Si O2"
_cell_formula_units_Z 28
_cell_length_a 9.180645
_cell_length_b 16.246389
_cell_length_c 7.001394
_cell_angle_alpha 90.000000
_cell_angle_beta 65.142551
_cell_angle_gamma 90.000000
_cell_volume 947.528955
_symmetry_space_group_name_H-M "C 2/C"
_symmetry_group_IT_number 15
_symmetry_cell_setting 'monoclinic'
loop_
_space_group_symop_operation_xyz
x,y,z
-x,y,1/2-z
-x,-y,-z
x,-y,1/2+z
1/2+x,1/2+y,z
1/2-x,1/2+y,1/2-z
1/2-x,1/2-y,-z
1/2+x,1/2-y,1/2+z
loop_
_atom_site_type_symbol
_atom_site_label
_atom_site_fract_x
_atom_site_fract_y
_atom_site_fract_z
Si Si1 0.175088 0.483646 0.796667
Si Si2 0.000000 0.908682 0.750000
Si Si3 0.325085 0.856702 0.059272
Si Si4 0.894173 0.230731 0.568520
O O1 0.339300 0.461915 0.818068
O O2 0.178248 0.413771 0.629554
O O3 0.196496 0.580847 0.748100
O O4 0.992086 0.309526 0.987137
O O5 0.009251 0.846246 0.567934
O O6 0.183189 0.792773 0.186418
O O7 0.500000 0.000000 0.000000
O O8 0.750000 0.250000 0.500000
#
# Coordination Sequence:
#
# PCOD9308295 Si02
#       4
#     8   4   8   8
#     4  12  30  59  91 137 185 257 316 400 483 586
#     4  12  28  58  96 134 200 250 324 400 488 578
#     4  12  29  58  95 133 191 247 327 396 492 577
#     4  12  26  56  94 140 186 247 320 406 481 581
#
# _framework density 29.550550000000001
#
# number of rings (size 3 to 8) (size 9 to 14) (size 15 to 20)
#    0.000    0.000    2.857    4.286    0.000    9.143 
#   15.429    0.000    0.000    0.000    0.000    0.000 
#    0.000    0.000    0.000    0.000    0.000    0.000 
#
# Total GULP energy -78357.439000 kJ/mol
# GULP energy per Si atom -5596.959929 kJ/mol
# Density = 2.948329 g / cm^3
# Si number density = 29.550550 Si / 1000 Ang^3
#
#
#
# Elastic Constant Matrix: (Units=GPa)
#
#
# Indices 1 2 3 4 5 6 
#
# 1 240.7322 122.1733 89.2270 0.0000 -20.5530 0.0000
# 2 122.1733 216.0313 111.3499 0.0000 -31.0825 0.0000
# 3 89.2270 111.3499 228.3821 0.0000 -38.2366 0.0000
# 4 0.0000 0.0000 0.0000 89.2597 0.0000 -16.3115
# 5 -20.5530 -31.0825 -38.2366 0.0000 34.7104 0.0000
# 6 0.0000 0.0000 0.0000 -16.3115 0.0000 81.0857
#
#
#
# Elastic Compliance Matrix: (Units=1/GPa)
#
#
# Indices 1 2 3 4 5 6 
#
# 1 0.005967 -0.002909 -0.000929 0.000000 -0.000095 0.000000
# 2 -0.002909 0.007818 -0.002196 0.000000 0.002858 0.000000
# 3 -0.000929 -0.002196 0.006610 0.000000 0.004765 0.000000
# 4 0.000000 0.000000 0.000000 0.011631 0.000000 0.002340
# 5 -0.000095 0.002858 0.004765 0.000000 0.036562 0.000000
# 6 0.000000 0.000000 0.000000 0.002340 0.000000 0.012803
#
#
# Mechanical properties :
#
#
# Convention : Reuss Voigt Hill
#
# Bulk Modulus (GPa) = 120.11008 147.84955 133.97981
# Shear Modulus (GPa) = 51.95664 65.17085 58.56375
#
# Velocity S-wave (km/s) = 4.19767 4.70127 4.45659
# Velocity P-wave (km/s) = 8.01423 8.92248 8.48052
#
# Compressibility (1/GPa) = 0.00832570
#
# Stress axis : x y z
#
# Youngs Moduli (GPa) = 167.60060 127.91550 151.28608
#
# Poissons Ratio (x) = 0.37216 0.14047
# Poissons Ratio (y) = 0.48762 0.33227
# Poissons Ratio (z) = 0.15562 0.28095
#
# Static dielectric constant tensor:
#      x y z
#    x 2.434970 0.000000 0.119850 
#    y 0.000000 2.405830 0.000000 
#    z 0.119850 0.000000 2.509630 
# 
# From -- ./inp_files/27507.got.cif
#   From: 2010.05.17/outbox.cif.g08.bks.cpg/sg15_14_cif.got.tgz:27507.got - 2010.06.03 18:47:42.
