data_PCOD9308173
_publ_section_title
;
Structure prediction by ZEFSAII (Michael W. Deem and Ramdas Pophale) SiO2 
 PCOD9308173
Probable space group: C 2/C
;
_chemical_formula_sum "Si O2"
_cell_formula_units_Z 40
_cell_length_a 7.407456
_cell_length_b 15.080170
_cell_length_c 13.719595
_cell_angle_alpha 90.000000
_cell_angle_beta 99.297392
_cell_angle_gamma 90.000000
_cell_volume 1512.423814
_symmetry_space_group_name_H-M "C 2/C"
_symmetry_group_IT_number 15
_symmetry_cell_setting 'monoclinic'
loop_
_space_group_symop_operation_xyz
x,y,z
-x,y,1/2-z
-x,-y,-z
x,-y,1/2+z
1/2+x,1/2+y,z
1/2-x,1/2+y,1/2-z
1/2-x,1/2-y,-z
1/2+x,1/2-y,1/2+z
loop_
_atom_site_type_symbol
_atom_site_label
_atom_site_fract_x
_atom_site_fract_y
_atom_site_fract_z
Si Si1 0.242572 0.161467 0.409934
Si Si2 0.282517 0.974582 0.738742
Si Si3 0.122469 0.318188 0.051288
Si Si4 0.706501 0.318553 0.234498
Si Si5 0.101640 0.910642 0.531682
O O1 0.230449 0.080437 0.331299
O O2 0.427766 0.156702 0.489468
O O3 0.253156 0.251995 0.349625
O O4 0.743719 0.401440 0.456410
O O5 0.500000 0.979469 0.750000
O O6 0.212364 0.917966 0.641238
O O7 0.211933 0.075389 0.718452
O O8 0.148163 0.299828 0.166967
O O9 0.937909 0.158764 0.038188
O O10 0.250000 0.250000 0.000000
O O11 0.500000 0.296044 0.250000
O O12 0.000000 0.000000 0.500000
#
# Coordination Sequence:
#
# PCOD9308173 Si02
#       5
#     8   8   8   8   8
#     4  12  27  53  80 112 166 215 261 336 405 470
#     4  12  26  48  77 113 158 213 265 332 407 473
#     4  12  26  48  79 114 159 204 271 331 396 479
#     4  12  26  50  78 116 160 211 271 332 401 487
#     4  12  28  49  79 116 158 212 265 328 399 478
#
# _framework density 26.447613
#
# number of rings (size 3 to 8) (size 9 to 14) (size 15 to 20)
#    0.000    0.000    4.000    6.000    2.800    5.600 
#    0.000    0.000    0.000    0.000    0.000    0.000 
#    0.000    0.000    0.000    0.000    0.000    0.000 
#
# Total GULP energy -112236.750299 kJ/mol
# GULP energy per Si atom -5611.837515 kJ/mol
# Density = 2.638742 g / cm^3
# Si number density = 26.447613 Si / 1000 Ang^3
#
#
#
# Elastic Constant Matrix: (Units=GPa)
#
#
# Indices 1 2 3 4 5 6 
#
# 1 185.6760 13.4835 47.7851 0.0000 20.7733 0.0000
# 2 13.4835 119.2540 32.4813 0.0000 -7.6066 0.0000
# 3 47.7851 32.4813 139.7052 0.0000 16.2707 0.0000
# 4 0.0000 0.0000 0.0000 52.3848 0.0000 -9.1271
# 5 20.7733 -7.6066 16.2707 0.0000 45.8567 0.0000
# 6 0.0000 0.0000 0.0000 -9.1271 0.0000 44.0907
#
#
#
# Elastic Compliance Matrix: (Units=1/GPa)
#
#
# Indices 1 2 3 4 5 6 
#
# 1 0.006109 -0.000355 -0.001750 0.000000 -0.002205 0.000000
# 2 -0.000355 0.009216 -0.002314 0.000000 0.002510 0.000000
# 3 -0.001750 -0.002314 0.008602 0.000000 -0.002643 0.000000
# 4 0.000000 0.000000 0.000000 0.019804 0.000000 0.004100
# 5 -0.002205 0.002510 -0.002643 0.000000 0.024160 0.000000
# 6 0.000000 0.000000 0.000000 0.004100 0.000000 0.023529
#
#
# Mechanical properties :
#
#
# Convention : Reuss Voigt Hill
#
# Bulk Modulus (GPa) = 66.27002 70.23723 68.25362
# Shear Modulus (GPa) = 47.48928 51.85880 49.67404
#
# Velocity S-wave (km/s) = 4.24205 4.43291 4.33853
# Velocity P-wave (km/s) = 7.00748 7.26744 7.13864
#
# Compressibility (1/GPa) = 0.01508978
#
# Stress axis : x y z
#
# Youngs Moduli (GPa) = 163.70394 108.50843 116.24755
#
# Poissons Ratio (x) = 0.03848 0.20345
# Poissons Ratio (y) = 0.05806 0.26897
# Poissons Ratio (z) = 0.28650 0.25106
#
# Static dielectric constant tensor:
#      x y z
#    x 2.158310 0.000000 -0.106320 
#    y 0.000000 2.448050 0.000000 
#    z -0.106320 0.000000 2.070810 
# 
# From -- ./inp_files/189046.got.cif
#   From: 2010.05.17/outbox.cif.g08.bks.cpg/sg15_95_cif.got.tgz:189046.got - 2010.06.03 18:47:42.
