data_PCOD9308267
_publ_section_title
;
Structure prediction by ZEFSAII (Michael W. Deem and Ramdas Pophale) SiO2 
 PCOD9308267
Probable space group: C 2/C
;
_chemical_formula_sum "Si O2"
_cell_formula_units_Z 52
_cell_length_a 18.013069
_cell_length_b 8.794596
_cell_length_c 19.184433
_cell_angle_alpha 90.000000
_cell_angle_beta 148.305664
_cell_angle_gamma 90.000000
_cell_volume 1596.733160
_symmetry_space_group_name_H-M "C 2/C"
_symmetry_group_IT_number 15
_symmetry_cell_setting 'monoclinic'
loop_
_space_group_symop_operation_xyz
x,y,z
-x,y,1/2-z
-x,-y,-z
x,-y,1/2+z
1/2+x,1/2+y,z
1/2-x,1/2+y,1/2-z
1/2-x,1/2-y,-z
1/2+x,1/2-y,1/2+z
loop_
_atom_site_type_symbol
_atom_site_label
_atom_site_fract_x
_atom_site_fract_y
_atom_site_fract_z
Si Si1 0.805691 0.369680 0.350559
Si Si2 0.614390 0.858799 0.681516
Si Si3 0.963307 0.122081 0.508752
Si Si4 0.000000 0.386010 0.750000
Si Si5 0.423674 0.614006 0.067320
Si Si6 0.226295 0.895293 0.496099
Si Si7 0.698811 0.375937 0.868518
O O1 0.857443 0.474230 0.328618
O O2 0.630494 0.342723 0.181662
O O3 0.766552 0.476648 0.385999
O O4 0.793371 0.175090 0.339510
O O5 0.471171 0.817305 0.515237
O O6 0.547724 0.865296 0.703892
O O7 0.657370 0.741863 0.894115
O O8 0.028529 0.079728 0.480081
O O9 0.136454 0.499806 0.880053
O O10 0.572341 0.668264 0.216945
O O11 0.381665 0.421056 0.023326
O O12 0.312185 0.746233 0.965656
O O13 0.139465 0.056970 0.395045
#
# Coordination Sequence:
#
# PCOD9308267 Si02
#       7
#     8   8   8   4   8   8   8
#     4  12  27  51  84 126 177 238 310 384 477 563
#     4  12  26  51  84 130 180 239 311 389 476 566
#     4  12  26  51  82 124 172 235 307 392 465 562
#     4  12  28  48  86 130 176 232 312 372 470 560
#     4  12  28  53  84 127 182 238 314 385 478 563
#     4  12  28  49  84 123 177 242 310 388 469 564
#     4  12  28  54  85 127 179 241 311 394 469 564
#
# _framework density 32.566493000000001
#
# number of rings (size 3 to 8) (size 9 to 14) (size 15 to 20)
#    0.000    0.000    1.538    7.846    4.308    2.462 
#    2.769    0.000    0.000    3.692    0.000    0.000 
#    0.000    0.000    0.000    0.000    0.000    0.000 
#
# Total GULP energy -145585.808497 kJ/mol
# GULP energy per Si atom -5599.454173 kJ/mol
# Density = 3.249237 g / cm^3
# Si number density = 32.566493 Si / 1000 Ang^3
#
#
#
# Elastic Constant Matrix: (Units=GPa)
#
#
# Indices 1 2 3 4 5 6 
#
# 1 319.9736 168.6995 121.0603 0.0000 -10.6605 0.0000
# 2 168.6995 280.6551 169.9538 0.0000 3.7889 0.0000
# 3 121.0603 169.9538 341.9955 0.0000 10.8360 0.0000
# 4 0.0000 0.0000 0.0000 108.6577 0.0000 1.6405
# 5 -10.6605 3.7889 10.8360 0.0000 83.0457 0.0000
# 6 0.0000 0.0000 0.0000 1.6405 0.0000 65.4273
#
#
#
# Elastic Compliance Matrix: (Units=1/GPa)
#
#
# Indices 1 2 3 4 5 6 
#
# 1 0.004655 -0.002569 -0.000395 0.000000 0.000766 0.000000
# 2 -0.002569 0.006515 -0.002318 0.000000 -0.000325 0.000000
# 3 -0.000395 -0.002318 0.004232 0.000000 -0.000497 0.000000
# 4 0.000000 0.000000 0.000000 0.009207 0.000000 -0.000231
# 5 0.000766 -0.000325 -0.000497 0.000000 0.012220 0.000000
# 6 0.000000 0.000000 0.000000 -0.000231 0.000000 0.015290
#
#
# Mechanical properties :
#
#
# Convention : Reuss Voigt Hill
#
# Bulk Modulus (GPa) = 206.73897 206.89461 206.81679
# Shear Modulus (GPa) = 77.76606 83.62016 80.69311
#
# Velocity S-wave (km/s) = 4.89193 5.07272 4.98315
# Velocity P-wave (km/s) = 9.77384 9.89837 9.83630
#
# Compressibility (1/GPa) = 0.00483702
#
# Stress axis : x y z
#
# Youngs Moduli (GPa) = 214.83402 153.48261 236.30847
#
# Poissons Ratio (x) = 0.39427 0.09344
# Poissons Ratio (y) = 0.55187 0.54781
# Poissons Ratio (z) = 0.08495 0.35580
#
# Static dielectric constant tensor:
#      x y z
#    x 2.638210 0.000000 0.137140 
#    y 0.000000 2.483530 0.000000 
#    z 0.137140 0.000000 2.833470 
# 
# From -- ./inp_files/252747.got.cif
#   From: 2010.05.17/outbox.cif.g08.bks.cpg/sg15_127_cif.got.tgz:252747.got - 2010.06.03 18:47:42.
