data_PCOD9308567
_publ_section_title
;
Structure prediction by ZEFSAII (Michael W. Deem and Ramdas Pophale) SiO2 
 PCOD9308567
Probable space group: C 2/C
;
_chemical_formula_sum "Si O2"
_cell_formula_units_Z 64
_cell_length_a 9.371572
_cell_length_b 23.389474
_cell_length_c 18.196533
_cell_angle_alpha 90.000000
_cell_angle_beta 90.000064
_cell_angle_gamma 90.000000
_cell_volume 3988.609788
_symmetry_space_group_name_H-M "C 2/C"
_symmetry_group_IT_number 15
_symmetry_cell_setting 'monoclinic'
loop_
_space_group_symop_operation_xyz
x,y,z
-x,y,1/2-z
-x,-y,-z
x,-y,1/2+z
1/2+x,1/2+y,z
1/2-x,1/2+y,1/2-z
1/2-x,1/2-y,-z
1/2+x,1/2-y,1/2+z
loop_
_atom_site_type_symbol
_atom_site_label
_atom_site_fract_x
_atom_site_fract_y
_atom_site_fract_z
Si Si1 0.663477 0.770404 0.389369
Si Si2 0.330744 0.376026 0.331089
Si Si3 0.836523 0.270404 0.389369
Si Si4 0.829200 0.934360 0.015880
Si Si5 0.329199 0.434360 0.484120
Si Si6 0.830744 0.876027 0.168911
Si Si7 0.163865 0.330723 0.550502
Si Si8 0.336135 0.830723 0.550502
O O1 0.744575 0.817408 0.341279
O O2 0.500000 0.761798 0.366549
O O3 0.749399 0.711398 0.396199
O O4 0.661522 0.798341 0.471326
O O5 0.296138 0.417005 0.399654
O O6 0.302613 0.400406 0.250000
O O7 0.500000 0.363532 0.336393
O O8 0.755425 0.317408 0.341280
O O9 0.750601 0.211399 0.396199
O O10 0.838479 0.298341 0.471326
O O11 0.796138 0.917006 0.100346
O O12 0.000000 0.926859 0.005316
O O13 0.744857 0.889953 0.964705
O O14 0.793444 1.000000 1.000000
O O15 0.244857 0.389953 0.535295
O O16 0.000000 0.338720 0.573400
#
# Coordination Sequence:
#
# PCOD9308567 Si02
#       8
#     8   8   8   8   8   8   8   8
#     4   9  16  26  42  64  88 112 140 176 219 267
#     4   9  17  29  45  65  89 116 146 184 231 278
#     4   9  16  26  42  64  88 112 140 176 219 267
#     4   9  17  29  45  65  89 119 156 193 227 268
#     4   9  17  29  45  65  89 119 156 193 227 268
#     4   9  17  29  45  65  89 116 146 184 231 278
#     4   9  16  26  42  64  88 113 142 179 222 265
#     4   9  16  26  42  64  88 113 142 179 222 265
#
# _framework density 16.045691999999999
#
# number of rings (size 3 to 8) (size 9 to 14) (size 15 to 20)
#    0.000    3.000    0.000    1.500    0.000    7.000 
#    0.000    0.000    0.000    1.500    0.000    3.500 
#    0.000    0.000    0.000    0.000    0.000    0.000 
#
# Total GULP energy -178188.185540 kJ/mol
# GULP energy per Si atom -5568.380798 kJ/mol
# Density = 1.600917 g / cm^3
# Si number density = 16.045692 Si / 1000 Ang^3
#
#
#
# Elastic Constant Matrix: (Units=GPa)
#
#
# Indices 1 2 3 4 5 6 
#
# 1 74.8442 71.8707 31.5029 0.0000 -1.5250 0.0000
# 2 71.8707 141.6367 40.3440 0.0000 -2.8218 0.0000
# 3 31.5029 40.3440 52.7905 0.0000 -0.4490 0.0000
# 4 0.0000 0.0000 0.0000 11.5479 0.0000 -1.3186
# 5 -1.5250 -2.8218 -0.4490 0.0000 13.2479 0.0000
# 6 0.0000 0.0000 0.0000 -1.3186 0.0000 26.2798
#
#
#
# Elastic Compliance Matrix: (Units=1/GPa)
#
#
# Indices 1 2 3 4 5 6 
#
# 1 0.028228 -0.012167 -0.007543 0.000000 0.000402 0.000000
# 2 -0.012167 0.014307 -0.003660 0.000000 0.001523 0.000000
# 3 -0.007543 -0.003660 0.026235 0.000000 -0.000759 0.000000
# 4 0.000000 0.000000 0.000000 0.087095 0.000000 0.004370
# 5 0.000402 0.001523 -0.000759 0.000000 0.075828 0.000000
# 6 0.000000 0.000000 0.000000 0.004370 0.000000 0.038271
#
#
# Mechanical properties :
#
#
# Convention : Reuss Voigt Hill
#
# Bulk Modulus (GPa) = 45.39467 61.85628 53.62548
# Shear Modulus (GPa) = 15.42974 18.58537 17.00756
#
# Velocity S-wave (km/s) = 3.10435 3.40704 3.25921
# Velocity P-wave (km/s) = 6.41885 7.35602 6.90336
#
# Compressibility (1/GPa) = 0.02202902
#
# Stress axis : x y z
#
# Youngs Moduli (GPa) = 35.42565 69.89489 38.11679
#
# Poissons Ratio (x) = 0.85042 0.28753
# Poissons Ratio (y) = 0.43103 0.13952
# Poissons Ratio (z) = 0.26723 0.25583
#
# Static dielectric constant tensor:
#      x y z
#    x 1.543440 0.000000 0.000580 
#    y 0.000000 1.507190 0.000000 
#    z 0.000580 0.000000 1.549940 
# 
# From -- ./inp_files/192949.got.cif
#   From: 2010.05.17/outbox.cif.g08.bks.cpg/sg15_97_cif.got.tgz:192949.got - 2010.06.03 18:47:42.
