data_PCOD9308818
_publ_section_title
;
Structure prediction by ZEFSAII (Michael W. Deem and Ramdas Pophale) SiO2 
 PCOD9308818
Probable space group: C 2/C
;
_chemical_formula_sum "Si O2"
_cell_formula_units_Z 28
_cell_length_a 18.000000
_cell_length_b 9.000000
_cell_length_c 18.000000
_cell_angle_alpha 90.000000
_cell_angle_beta 70.000000
_cell_angle_gamma 90.000000
_cell_volume 2740.143682
_symmetry_space_group_name_H-M "C 2/C"
_symmetry_group_IT_number 15
_symmetry_cell_setting 'monoclinic'
loop_
_space_group_symop_operation_xyz
x,y,z
-x,y,1/2-z
-x,-y,-z
x,-y,1/2+z
1/2+x,1/2+y,z
1/2-x,1/2+y,1/2-z
1/2-x,1/2-y,-z
1/2+x,1/2-y,1/2+z
loop_
_atom_site_type_symbol
_atom_site_label
_atom_site_fract_x
_atom_site_fract_y
_atom_site_fract_z
Si Si1 0.135438 0.860014 0.518469
Si Si2 0.921079 0.345602 0.599328
Si Si3 0.790937 0.869813 0.334525
Si Si4 0.688728 0.098881 0.599107
Si Si5 0.859973 0.414020 0.019993
Si Si6 0.423716 0.662220 0.911937
Si Si7 0.283413 0.935576 0.761568
O O1 0.102617 0.759965 0.461994
O O2 0.219869 0.914337 0.457473
O O3 0.157856 0.760522 0.583388
O O4 0.075764 0.990428 0.562592
O O5 0.920097 0.507412 0.557281
O O6 0.853005 0.373699 0.683934
O O7 0.995570 0.261583 0.612957
O O8 0.726786 0.929904 0.415338
O O9 0.872728 0.842158 0.352014
O O10 0.759169 0.711501 0.315156
O O11 0.782538 0.984112 0.267749
O O12 0.639732 0.991497 0.560959
O O13 0.685416 0.051674 0.686300
O O14 0.875422 0.244669 0.994171
#
# Coordination Sequence:
#
# PCOD9308818 Si02
#       7
#     8   8   8   8   8   8   8
#     4  10  21  36  66  95 126 158 218 279 318 371
#     4  10  24  39  58  93 130 167 202 256 337 389
#     4  11  23  37  63  92 122 160 221 268 320 369
#     4  10  19  38  64  92 121 161 215 269 316 370
#     4  10  20  40  62  92 113 162 218 266 298 377
#     4  12  21  38  64  92 125 163 214 260 321 388
#     4  11  23  39  58  93 132 169 209 269 329 389
#
# _framework density 10.218442
#
# number of rings (size 3 to 8) (size 9 to 14) (size 15 to 20)
#    0.000    1.429    2.857    3.000    4.000    0.571 
#    0.000    0.000    0.000    0.000    7.429    0.000 
#    0.000    0.000    0.000    0.000    0.000    0.000 
#
# Total GULP energy -156092.887206 kJ/mol
# GULP energy per Si atom -5574.745972 kJ/mol
# Density = 1.019518 g / cm^3
# Si number density = 10.218442 Si / 1000 Ang^3
#
#
#
# Elastic Constant Matrix: (Units=GPa)
#
#
# Indices 1 2 3 4 5 6 
#
# 1 114.5870 35.1071 35.4500 0.0000 22.1008 0.0000
# 2 35.1071 103.8079 33.1008 0.0000 24.9361 0.0000
# 3 35.4500 33.1008 88.6992 0.0000 35.8964 0.0000
# 4 0.0000 0.0000 0.0000 35.0816 0.0000 11.8845
# 5 22.1008 24.9361 35.8964 0.0000 21.4101 0.0000
# 6 0.0000 0.0000 0.0000 11.8845 0.0000 39.8259
#
#
#
# Elastic Compliance Matrix: (Units=1/GPa)
#
#
# Indices 1 2 3 4 5 6 
#
# 1 0.011039 -0.001359 0.000206 0.000000 -0.010158 0.000000
# 2 -0.001359 0.014036 0.004209 0.000000 -0.022002 0.000000
# 3 0.000206 0.004209 0.036366 0.000000 -0.066088 0.000000
# 4 0.000000 0.000000 0.000000 0.031711 0.000000 -0.009463
# 5 -0.010158 -0.022002 -0.066088 0.000000 0.193621 0.000000
# 6 0.000000 0.000000 0.000000 -0.009463 0.000000 0.027933
#
#
# Mechanical properties :
#
#
# Convention : Reuss Voigt Hill
#
# Bulk Modulus (GPa) = 14.80293 57.15666 35.97980
# Shear Modulus (GPa) = 15.10069 32.82593 23.96331
#
# Velocity S-wave (km/s) = 2.72121 4.01210 3.42797
# Velocity P-wave (km/s) = 4.13911 7.03497 5.77161
#
# Compressibility (1/GPa) = 0.06755420
#
# Stress axis : x y z
#
# Youngs Moduli (GPa) = 90.59021 71.24689 27.49789
#
# Poissons Ratio (x) = 0.09682 -0.00567
# Poissons Ratio (y) = 0.12311 -0.11575
# Poissons Ratio (z) = -0.01867 -0.29991
#
# Static dielectric constant tensor:
#      x y z
#    x 1.752050 0.000000 -0.011350 
#    y 0.000000 1.801290 0.000000 
#    z -0.011350 0.000000 1.732790 
# 
# From -- ./inp_files/209545.got.cif
#   From: 2010.05.17/outbox.ucp.g08.bks.cvg/sg15_105_cif.got.tgz:209545.got - 2010.06.11 12:40:34.
