data_PCOD9308529
_publ_section_title
;
Structure prediction by ZEFSAII (Michael W. Deem and Ramdas Pophale) SiO2 
 PCOD9308529
Probable space group: C 2/C
;
_chemical_formula_sum "Si O2"
_cell_formula_units_Z 40
_cell_length_a 7.621393
_cell_length_b 15.761070
_cell_length_c 23.067408
_cell_angle_alpha 90.000000
_cell_angle_beta 144.884218
_cell_angle_gamma 90.000000
_cell_volume 1593.899093
_symmetry_space_group_name_H-M "C 2/C"
_symmetry_group_IT_number 15
_symmetry_cell_setting 'monoclinic'
loop_
_space_group_symop_operation_xyz
x,y,z
-x,y,1/2-z
-x,-y,-z
x,-y,1/2+z
1/2+x,1/2+y,z
1/2-x,1/2+y,1/2-z
1/2-x,1/2-y,-z
1/2+x,1/2-y,1/2+z
loop_
_atom_site_type_symbol
_atom_site_label
_atom_site_fract_x
_atom_site_fract_y
_atom_site_fract_z
Si Si1 0.580996 0.734259 0.393167
Si Si2 0.612830 0.127592 0.490668
Si Si3 0.126741 0.065993 0.121250
Si Si4 0.701640 0.476529 0.359933
Si Si5 0.735903 0.599728 0.594627
O O1 0.750000 0.750000 0.500000
O O2 0.331683 0.661567 0.341343
O O3 0.514014 0.826145 0.346383
O O4 0.836602 0.693787 0.418963
O O5 0.466252 0.045078 0.420407
O O6 0.942044 0.137742 0.550272
O O7 0.671602 0.106129 0.574114
O O8 0.977607 0.020651 0.135855
O O9 0.334869 0.989429 0.150824
O O10 0.906256 0.081071 0.006853
O O11 0.500000 0.462555 0.250000
#
# Coordination Sequence:
#
# PCOD9308529 Si02
#       5
#     8   8   8   8   8
#     4   9  16  27  47  72  99 132 165 206 257 300
#     4   9  17  29  49  73  92 127 170 197 245 307
#     4   8  16  28  45  72  98 128 165 199 248 305
#     4   9  17  31  50  71  98 126 158 204 250 299
#     4   9  15  27  48  72  98 125 164 208 244 299
#
# _framework density 25.095690999999999
#
# number of rings (size 3 to 8) (size 9 to 14) (size 15 to 20)
#    0.000    3.200    0.000    1.800    0.000    0.000 
#    0.000    1.000    0.000   36.000    0.000    0.000 
#    0.000    0.000    0.000    0.000    0.000    0.000 
#
# Total GULP energy -111341.740555 kJ/mol
# GULP energy per Si atom -5567.087028 kJ/mol
# Density = 2.503857 g / cm^3
# Si number density = 25.095691 Si / 1000 Ang^3
#
#
#
# Elastic Constant Matrix: (Units=GPa)
#
#
# Indices 1 2 3 4 5 6 
#
# 1 125.9566 57.4615 27.4102 0.0001 -8.3559 0.0000
# 2 57.4615 188.6062 28.6357 0.0003 5.2501 0.0001
# 3 27.4102 28.6357 85.5537 0.0006 -3.7312 0.0002
# 4 0.0001 0.0003 0.0006 -22.5080 0.0004 -11.9027
# 5 -8.3559 5.2501 -3.7312 0.0004 25.0817 0.0000
# 6 0.0000 0.0001 0.0002 -11.9027 0.0000 56.7963
#
#
#
# Elastic Compliance Matrix: (Units=1/GPa)
#
#
# Indices 1 2 3 4 5 6 
#
# 1 0.009908 -0.002802 -0.002080 0.000000 0.003578 0.000000
# 2 -0.002802 0.006432 -0.001363 0.000000 -0.002483 0.000000
# 3 -0.002080 -0.001363 0.012877 0.000000 0.001508 0.000000
# 4 0.000000 0.000000 0.000000 -0.039996 0.000001 -0.008382
# 5 0.003578 -0.002483 0.001508 0.000001 0.041806 0.000000
# 6 0.000000 0.000000 0.000000 -0.008382 0.000000 0.015850
#
#
# Mechanical properties :
#
#
# Convention : Reuss Voigt Hill
#
# Bulk Modulus (GPa) = 59.79068 69.68126 64.73597
# Shear Modulus (GPa) = 76.99034 30.98127 53.98581
#
# Velocity S-wave (km/s) = 5.54485 3.51739 4.64313
# Velocity P-wave (km/s) = 8.05423 6.65752 7.38895
#
# Compressibility (1/GPa) = 0.01672501
#
# Stress axis : x y z
#
# Youngs Moduli (GPa) = 100.93161 155.47510 77.65699
#
# Poissons Ratio (x) = 0.43568 0.16155
# Poissons Ratio (y) = 0.28284 0.10587
# Poissons Ratio (z) = 0.20997 0.21196
#
# Static dielectric constant tensor:
#      x y z
#    x 2.025820 0.000000 0.037880 
#    y 0.000000 2.124060 0.000000 
#    z 0.037880 0.000000 1.886450 
# 
# From -- ./inp_files/133895.got.cif
#   From: 2010.05.17/outbox.cif.g08.bks.cpg/sg15_67_cif.got.tgz:133895.got - 2010.06.03 18:47:42.
