data_PCOD9308812
_publ_section_title
;
Structure prediction by ZEFSAII (Michael W. Deem and Ramdas Pophale) SiO2 
 PCOD9308812
Probable space group: C 2/C
;
_chemical_formula_sum "Si O2"
_cell_formula_units_Z 28
_cell_length_a 9.000000
_cell_length_b 30.000000
_cell_length_c 21.000000
_cell_angle_alpha 90.000000
_cell_angle_beta 30.000000
_cell_angle_gamma 90.000000
_cell_volume 2835.000000
_symmetry_space_group_name_H-M "C 2/C"
_symmetry_group_IT_number 15
_symmetry_cell_setting 'monoclinic'
loop_
_space_group_symop_operation_xyz
x,y,z
-x,y,1/2-z
-x,-y,-z
x,-y,1/2+z
1/2+x,1/2+y,z
1/2-x,1/2+y,1/2-z
1/2-x,1/2-y,-z
1/2+x,1/2-y,1/2+z
loop_
_atom_site_type_symbol
_atom_site_label
_atom_site_fract_x
_atom_site_fract_y
_atom_site_fract_z
Si Si1 0.051177 0.208748 0.550761
Si Si2 0.645882 0.084345 0.261899
Si Si3 0.200050 0.165638 0.614565
Si Si4 0.275880 0.269540 0.919663
Si Si5 0.158717 0.430717 0.490355
Si Si6 0.110001 0.985072 0.638569
Si Si7 0.621005 0.185507 0.271089
O O1 0.250000 0.250000 0.500000
O O2 0.979481 0.183606 0.641244
O O3 0.306688 0.179614 0.422623
O O4 0.801937 0.228615 0.598189
O O5 0.500000 0.070742 0.250000
O O6 0.443957 0.080464 0.400178
O O7 0.742573 0.135786 0.216135
O O8 0.908999 0.051508 0.180147
O O9 0.512322 0.193729 0.504744
O O10 0.271334 0.114865 0.571099
O O11 0.000000 0.170165 0.750000
O O12 0.613909 0.288546 0.791380
O O13 0.250000 0.250000 0.000000
O O14 0.398635 0.470085 0.399787
O O15 0.907832 0.457090 0.543192
O O16 0.000000 0.997752 0.750000
O O17 0.500000 0.207269 0.250000
#
# Coordination Sequence:
#
# PCOD9308812 Si02
#       7
#     8   8   8   8   8   8   8
#     4  10  23  39  59  90 118 161 205 252 305 353
#     4  10  21  36  60  92 119 152 196 249 304 362
#     4  11  24  41  58  86 126 162 204 250 309 358
#     4  11  24  39  64  89 119 161 203 257 307 358
#     4  10  19  38  61  86 119 155 197 248 296 360
#     4   9  19  35  61  91 116 151 200 239 296 360
#     4  11  21  40  64  89 124 156 205 252 301 365
#
# _framework density 9.8765429999999999
#
# number of rings (size 3 to 8) (size 9 to 14) (size 15 to 20)
#    0.000    1.714    2.857    1.286    4.000    2.857 
#    0.000    0.000    0.000    1.714    0.000    0.000 
#    0.000    0.000    0.000    0.000    0.000    0.000 
#
# Total GULP energy -155891.672750 kJ/mol
# GULP energy per Si atom -5567.559741 kJ/mol
# Density = 0.985406 g / cm^3
# Si number density = 9.876543 Si / 1000 Ang^3
#
#
#
# Elastic Constant Matrix: (Units=GPa)
#
#
# Indices 1 2 3 4 5 6 
#
# 1 141.1095 49.3712 45.3975 0.0005 1.6733 -0.0007
# 2 49.3712 106.0229 32.1863 -0.0001 -4.5155 -0.0001
# 3 45.3975 32.1863 63.0409 -0.0036 0.6581 0.0012
# 4 0.0005 -0.0001 -0.0036 26.6538 -0.0005 -2.5349
# 5 1.6733 -4.5155 0.6581 -0.0005 20.8677 0.0007
# 6 -0.0007 -0.0001 0.0012 -2.5349 0.0007 26.9389
#
#
#
# Elastic Compliance Matrix: (Units=1/GPa)
#
#
# Indices 1 2 3 4 5 6 
#
# 1 0.009958 -0.002980 -0.005636 -0.000001 -0.001265 0.000000
# 2 -0.002980 0.012196 -0.004112 0.000000 0.003008 0.000000
# 3 -0.005636 -0.004112 0.022033 0.000003 -0.001133 -0.000001
# 4 -0.000001 0.000000 0.000003 0.037857 0.000001 0.003562
# 5 -0.001265 0.003008 -0.001133 0.000001 0.048709 -0.000001
# 6 0.000000 0.000000 -0.000001 0.003562 -0.000001 0.037456
#
#
# Mechanical properties :
#
#
# Convention : Reuss Voigt Hill
#
# Bulk Modulus (GPa) = 53.39069 62.67593 58.03331
# Shear Modulus (GPa) = 25.01145 27.10663 26.05904
#
# Velocity S-wave (km/s) = 3.56224 3.70844 3.63607
# Velocity P-wave (km/s) = 6.63378 7.08063 6.86084
#
# Compressibility (1/GPa) = 0.01872986
#
# Stress axis : x y z
#
# Youngs Moduli (GPa) = 100.42680 81.99385 45.38667
#
# Poissons Ratio (x) = 0.24432 0.25580
# Poissons Ratio (y) = 0.29925 0.18665
# Poissons Ratio (z) = 0.56602 0.33719
#
# Static dielectric constant tensor:
#      x y z
#    x 1.761850 -0.000010 0.112630 
#    y -0.000010 1.726910 -0.000010 
#    z 0.112630 -0.000010 2.062770 
# 
# From -- ./inp_files/234920.got.cif
#   From: 2010.05.17/outbox.ucp.g08.bks.cvg/sg15_118_cif.got.tgz:234920.got - 2010.06.11 12:40:34.
