data_PCOD9308183
_publ_section_title
;
Structure prediction by ZEFSAII (Michael W. Deem and Ramdas Pophale) SiO2 
 PCOD9308183
Probable space group: C 2/C
;
_chemical_formula_sum "Si O2"
_cell_formula_units_Z 24
_cell_length_a 7.898881
_cell_length_b 26.487755
_cell_length_c 4.884635
_cell_angle_alpha 90.000000
_cell_angle_beta 78.673392
_cell_angle_gamma 90.000000
_cell_volume 1002.076484
_symmetry_space_group_name_H-M "C 2/C"
_symmetry_group_IT_number 15
_symmetry_cell_setting 'monoclinic'
loop_
_space_group_symop_operation_xyz
x,y,z
-x,y,1/2-z
-x,-y,-z
x,-y,1/2+z
1/2+x,1/2+y,z
1/2-x,1/2+y,1/2-z
1/2-x,1/2-y,-z
1/2+x,1/2-y,1/2+z
loop_
_atom_site_type_symbol
_atom_site_label
_atom_site_fract_x
_atom_site_fract_y
_atom_site_fract_z
Si Si1 0.000000 0.040195 0.250000
Si Si2 0.000000 0.537389 0.750000
Si Si3 0.377542 0.793968 0.049116
Si Si4 0.812712 0.108027 0.666481
O O1 0.848555 0.081306 0.357539
O O2 0.000000 0.000000 0.500000
O O3 0.844142 0.572773 0.703845
O O4 0.000000 0.500000 0.500000
O O5 0.500000 0.773900 0.250000
O O6 0.262752 0.837337 0.233727
O O7 0.500000 0.809966 0.750000
O O8 0.250000 0.750000 0.000000
O O9 0.000000 0.103764 0.750000
#
# Coordination Sequence:
#
# PCOD9308183 Si02
#       4
#     4   4   8   8
#     4  12  26  48  78 121 165 222 276 332 416 500
#     4  12  30  48  74 117 163 216 276 338 408 498
#     4  12  29  56  86 123 169 221 288 359 433 511
#     4  12  29  50  86 119 171 217 281 346 430 495
#
# _framework density 23.950268000000001
#
# number of rings (size 3 to 8) (size 9 to 14) (size 15 to 20)
#    0.000    0.000    3.333    4.000   11.667    0.000 
#    3.000    0.000    0.000    0.000    0.000    0.000 
#    0.000    0.000    0.000    0.000    0.000    0.000 
#
# Total GULP energy -66845.815152 kJ/mol
# GULP energy per Si atom -5570.484596 kJ/mol
# Density = 2.389576 g / cm^3
# Si number density = 23.950268 Si / 1000 Ang^3
#
#
#
# Elastic Constant Matrix: (Units=GPa)
#
#
# Indices 1 2 3 4 5 6 
#
# 1 193.5136 88.9693 42.0216 0.0000 18.4956 0.0000
# 2 88.9693 216.5871 79.4656 0.0000 -14.9934 0.0000
# 3 42.0216 79.4656 153.9204 0.0000 15.5928 0.0000
# 4 0.0000 0.0000 0.0000 42.4560 0.0000 -10.9404
# 5 18.4956 -14.9934 15.5928 0.0000 47.4530 0.0000
# 6 0.0000 0.0000 0.0000 -10.9404 0.0000 146.2075
#
#
#
# Elastic Compliance Matrix: (Units=1/GPa)
#
#
# Indices 1 2 3 4 5 6 
#
# 1 0.006952 -0.003155 0.000110 0.000000 -0.003743 0.000000
# 2 -0.003155 0.007530 -0.003509 0.000000 0.004762 0.000000
# 3 0.000110 -0.003509 0.008684 0.000000 -0.004005 0.000000
# 4 0.000000 0.000000 0.000000 0.024017 0.000000 0.001797
# 5 -0.003743 0.004762 -0.004005 0.000000 0.025353 0.000000
# 6 0.000000 0.000000 0.000000 0.001797 0.000000 0.006974
#
#
# Mechanical properties :
#
#
# Convention : Reuss Voigt Hill
#
# Bulk Modulus (GPa) = 99.41642 109.43715 104.42678
# Shear Modulus (GPa) = 52.09932 70.79427 61.44680
#
# Velocity S-wave (km/s) = 4.66908 5.44270 5.07067
# Velocity P-wave (km/s) = 8.40635 9.23526 8.83054
#
# Compressibility (1/GPa) = 0.01005870
#
# Stress axis : x y z
#
# Youngs Moduli (GPa) = 143.84218 132.79893 115.15499
#
# Poissons Ratio (x) = 0.41902 -0.01269
# Poissons Ratio (y) = 0.45386 0.40404
# Poissons Ratio (z) = -0.01585 0.46595
#
# Static dielectric constant tensor:
#      x y z
#    x 1.993800 0.000000 -0.054130 
#    y 0.000000 2.116960 0.000000 
#    z -0.054130 0.000000 2.093970 
# 
# From -- ./inp_files/1612.got.cif
#   From: 2010.05.17/outbox.cif.g08.bks.cpg/sg15_1_cif.got.tgz:1612.got - 2010.06.03 18:47:42.
