data_PCOD9308828
_publ_section_title
;
Structure prediction by ZEFSAII (Michael W. Deem and Ramdas Pophale) SiO2 
 PCOD9308828
Probable space group: C 2/C
;
_chemical_formula_sum "Si O2"
_cell_formula_units_Z 32
_cell_length_a 12.000000
_cell_length_b 27.000000
_cell_length_c 15.000000
_cell_angle_alpha 90.000000
_cell_angle_beta 40.000000
_cell_angle_gamma 90.000000
_cell_volume 3123.947783
_symmetry_space_group_name_H-M "C 2/C"
_symmetry_group_IT_number 15
_symmetry_cell_setting 'monoclinic'
loop_
_space_group_symop_operation_xyz
x,y,z
-x,y,1/2-z
-x,-y,-z
x,-y,1/2+z
1/2+x,1/2+y,z
1/2-x,1/2+y,1/2-z
1/2-x,1/2-y,-z
1/2+x,1/2-y,1/2+z
loop_
_atom_site_type_symbol
_atom_site_label
_atom_site_fract_x
_atom_site_fract_y
_atom_site_fract_z
Si Si1 0.339542 0.894079 0.915771
Si Si2 0.362965 0.456271 0.595101
Si Si3 0.452023 0.735379 0.375220
Si Si4 0.998643 0.514960 0.400436
Si Si5 0.348156 0.167540 0.687055
Si Si6 0.303956 0.297392 0.406493
Si Si7 0.100419 0.408708 0.096188
Si Si8 0.415781 0.638147 0.496032
O O1 0.500000 0.881978 0.750000
O O2 0.208172 0.932650 0.951573
O O3 0.422190 0.930046 0.938333
O O4 0.237562 0.845788 0.008498
O O5 0.500000 0.500000 0.500000
O O6 0.193967 0.479916 0.744482
O O7 0.447915 0.406890 0.585461
O O8 0.500000 0.713914 0.250000
O O9 0.250000 0.750000 0.500000
O O10 0.561606 0.785741 0.319458
O O11 0.486845 0.692095 0.425307
O O12 0.000000 0.500000 0.500000
O O13 0.898758 0.468096 0.416945
O O14 0.299852 0.190003 0.620801
O O15 0.485267 0.122351 0.596971
O O16 0.188370 0.147220 0.846328
O O17 0.500000 0.292266 0.250000
O O18 0.250000 0.250000 0.500000
O O19 0.279824 0.380809 0.004372
O O20 0.000000 0.400874 0.250000
#
# Coordination Sequence:
#
# PCOD9308828 Si02
#       8
#     8   8   8   8   8   8   8   8
#     4  10  23  46  65  92 136 176 227 280 333 403
#     4  11  23  42  69  98 131 179 223 277 335 405
#     4  12  23  43  65 101 137 175 221 282 344 411
#     4  11  23  40  66  98 134 175 222 279 343 395
#     4  11  23  41  70  95 137 177 226 281 347 405
#     4  12  28  46  67  98 128 179 232 280 337 408
#     4  10  19  39  67  96 132 174 218 269 339 409
#     4  11  23  41  67 103 136 178 230 279 350 416
#
# _framework density 10.243449
#
# number of rings (size 3 to 8) (size 9 to 14) (size 15 to 20)
#    0.000    1.000    2.500    5.625    3.500    2.000 
#    4.500    1.250    0.000    0.000    0.000    0.000 
#    0.000    0.000    0.000    0.000    0.000    0.000 
#
# Total GULP energy -178500.404882 kJ/mol
# GULP energy per Si atom -5578.137653 kJ/mol
# Density = 1.022013 g / cm^3
# Si number density = 10.243449 Si / 1000 Ang^3
#
#
#
# Elastic Constant Matrix: (Units=GPa)
#
#
# Indices 1 2 3 4 5 6 
#
# 1 74.2511 26.9494 30.9907 0.0000 11.7356 0.0000
# 2 26.9494 158.4721 55.4720 0.0000 1.4977 0.0000
# 3 30.9907 55.4720 61.0979 0.0000 9.8937 0.0000
# 4 0.0000 0.0000 0.0000 40.9907 0.0000 4.8134
# 5 11.7356 1.4977 9.8937 0.0000 22.5704 0.0000
# 6 0.0000 0.0000 0.0000 4.8134 0.0000 38.4351
#
#
#
# Elastic Compliance Matrix: (Units=1/GPa)
#
#
# Indices 1 2 3 4 5 6 
#
# 1 0.017741 -0.000204 -0.007882 0.000000 -0.005756 0.000000
# 2 -0.000204 0.009487 -0.009069 0.000000 0.003452 0.000000
# 3 -0.007882 -0.009069 0.029965 0.000000 -0.008435 0.000000
# 4 0.000000 0.000000 0.000000 0.024760 0.000000 -0.003101
# 5 -0.005756 0.003452 -0.008435 0.000000 0.050767 0.000000
# 6 0.000000 0.000000 0.000000 -0.003101 0.000000 0.026406
#
#
# Mechanical properties :
#
#
# Convention : Reuss Voigt Hill
#
# Bulk Modulus (GPa) = 43.69871 57.84948 50.77409
# Shear Modulus (GPa) = 24.86786 32.42651 28.64718
#
# Velocity S-wave (km/s) = 3.48780 3.98275 3.74346
# Velocity P-wave (km/s) = 6.13156 7.03195 6.59714
#
# Compressibility (1/GPa) = 0.02288397
#
# Stress axis : x y z
#
# Youngs Moduli (GPa) = 56.36590 105.41017 33.37252
#
# Poissons Ratio (x) = 0.02146 0.26304
# Poissons Ratio (y) = 0.01148 0.30265
# Poissons Ratio (z) = 0.44427 0.95595
#
# Static dielectric constant tensor:
#      x y z
#    x 1.857490 0.000000 -0.015570 
#    y 0.000000 1.717450 0.000000 
#    z -0.015570 0.000000 1.730550 
# 
# From -- ./inp_files/148737.got.cif
#   From: 2010.05.17/outbox.ucp.g08.bks.cvg/sg15_75_cif.got.tgz:148737.got - 2010.06.11 12:40:34.
