data_PCOD9308636
_publ_section_title
;
Structure prediction by ZEFSAII (Michael W. Deem and Ramdas Pophale) SiO2 
 PCOD9308636
Probable space group: C 2/C
;
_chemical_formula_sum "Si O2"
_cell_formula_units_Z 18
_cell_length_a 15.000000
_cell_length_b 15.000000
_cell_length_c 9.000000
_cell_angle_alpha 90.000000
_cell_angle_beta 100.000000
_cell_angle_gamma 90.000000
_cell_volume 1994.235700
_symmetry_space_group_name_H-M "C 2/C"
_symmetry_group_IT_number 15
_symmetry_cell_setting 'monoclinic'
loop_
_space_group_symop_operation_xyz
x,y,z
-x,y,1/2-z
-x,-y,-z
x,-y,1/2+z
1/2+x,1/2+y,z
1/2-x,1/2+y,1/2-z
1/2-x,1/2-y,-z
1/2+x,1/2-y,1/2+z
loop_
_atom_site_type_symbol
_atom_site_label
_atom_site_fract_x
_atom_site_fract_y
_atom_site_fract_z
Si Si1 0.779935 0.819819 0.382859
Si Si2 0.659756 0.050281 0.006531
Si Si3 0.000000 0.612272 0.750000
Si Si4 0.396263 0.195523 0.262564
Si Si5 0.148026 0.656575 0.577585
O O1 0.750000 0.750000 0.500000
O O2 0.749857 0.913374 0.448257
O O3 0.876534 0.785974 0.350668
O O4 0.718356 0.808767 0.219003
O O5 0.637926 0.115033 0.140392
O O6 0.664430 0.949198 0.059851
O O7 0.576998 0.059033 0.863702
O O8 0.052133 0.666097 0.636280
O O9 0.500000 0.181707 0.250000
O O10 0.350057 0.196267 0.086411
#
# Coordination Sequence:
#
# PCOD9308636 Si02
#       5
#     8   8   4   8   8
#     4   9  21  37  48  72 109 142 173 210 261 313
#     4  10  20  32  51  78 110 140 170 213 256 312
#     4  10  18  28  46  82 114 130 160 206 262 312
#     4  11  20  32  52  77 106 141 177 214 254 311
#     4  11  20  31  53  78 107 139 172 211 262 314
#
# _framework density 9.026014
#
# number of rings (size 3 to 8) (size 9 to 14) (size 15 to 20)
#    0.000    1.778    2.222    4.000    3.111    0.000 
#    0.000    0.000    0.000    1.333    0.000    0.000 
#    0.000    0.000    0.000    0.000    0.000    0.000 
#
# Total GULP energy -100241.641067 kJ/mol
# GULP energy per Si atom -5568.980059 kJ/mol
# Density = 0.900547 g / cm^3
# Si number density = 9.026014 Si / 1000 Ang^3
#
#
#
# Elastic Constant Matrix: (Units=GPa)
#
#
# Indices 1 2 3 4 5 6 
#
# 1 47.9201 31.7268 20.3547 0.0000 -33.3945 0.0000
# 2 31.7268 32.7453 18.3046 0.0000 -17.6317 0.0000
# 3 20.3547 18.3046 139.2396 0.0000 -15.7680 0.0000
# 4 0.0000 0.0000 0.0000 29.4802 0.0000 -2.1229
# 5 -33.3945 -17.6317 -15.7680 0.0000 40.7704 0.0000
# 6 0.0000 0.0000 0.0000 -2.1229 0.0000 8.3049
#
#
#
# Elastic Compliance Matrix: (Units=1/GPa)
#
#
# Indices 1 2 3 4 5 6 
#
# 1 0.115315 -0.079538 0.000418 0.000000 0.060217 0.000000
# 2 -0.079538 0.096304 -0.003864 0.000000 -0.024995 0.000000
# 3 0.000418 -0.003864 0.007821 0.000000 0.001696 0.000000
# 4 0.000000 0.000000 0.000000 0.034557 0.000000 0.008833
# 5 0.060217 -0.024995 0.001696 0.000000 0.063698 0.000000
# 6 0.000000 0.000000 0.000000 0.008833 0.000000 0.122669
#
#
# Mechanical properties :
#
#
# Convention : Reuss Voigt Hill
#
# Bulk Modulus (GPa) = 18.70098 40.07523 29.38811
# Shear Modulus (GPa) = 8.01083 25.67901 16.84492
#
# Velocity S-wave (km/s) = 2.10886 3.77570 3.05803
# Velocity P-wave (km/s) = 4.03877 6.42307 5.36505
#
# Compressibility (1/GPa) = 0.05347312
#
# Stress axis : x y z
#
# Youngs Moduli (GPa) = 8.67191 10.38378 127.86514
#
# Poissons Ratio (x) = 0.82590 -0.05346
# Poissons Ratio (y) = 0.68975 0.49401
# Poissons Ratio (z) = -0.00363 0.04012
#
# Static dielectric constant tensor:
#      x y z
#    x 1.688660 0.000000 0.012340 
#    y 0.000000 1.629160 0.000000 
#    z 0.012340 0.000000 1.642520 
# 
# From -- ./inp_files/28716.got.cif
#   From: 2010.05.17/outbox.ucp.g08.bks.cvg/sg15_15_cif.got.tgz:28716.got - 2010.06.11 12:40:34.
