data_PCOD9308061
_publ_section_title
;
Structure prediction by ZEFSAII (Michael W. Deem and Ramdas Pophale) SiO2 
 PCOD9308061
Probable space group: C 2/C
;
_chemical_formula_sum "Si O2"
_cell_formula_units_Z 28
_cell_length_a 14.802758
_cell_length_b 10.605954
_cell_length_c 7.911985
_cell_angle_alpha 90.000000
_cell_angle_beta 61.446765
_cell_angle_gamma 90.000000
_cell_volume 1091.081031
_symmetry_space_group_name_H-M "C 2/C"
_symmetry_group_IT_number 15
_symmetry_cell_setting 'monoclinic'
loop_
_space_group_symop_operation_xyz
x,y,z
-x,y,1/2-z
-x,-y,-z
x,-y,1/2+z
1/2+x,1/2+y,z
1/2-x,1/2+y,1/2-z
1/2-x,1/2-y,-z
1/2+x,1/2-y,1/2+z
loop_
_atom_site_type_symbol
_atom_site_label
_atom_site_fract_x
_atom_site_fract_y
_atom_site_fract_z
Si Si1 0.117951 0.672758 0.660527
Si Si2 0.500000 0.816268 0.750000
Si Si3 0.920397 0.885165 0.577669
Si Si4 0.693173 0.941512 0.744917
O O1 0.109849 0.820069 0.716274
O O2 0.173594 0.591909 0.757586
O O3 0.171613 0.630460 0.439678
O O4 0.000000 0.631074 0.750000
O O5 0.524387 0.726667 0.571277
O O6 0.603776 0.890729 0.701926
O O7 0.811100 0.918179 0.590453
O O8 0.000000 0.000000 0.500000
#
# Coordination Sequence:
#
# PCOD9308061 Si02
#       4
#     8   4   8   8
#     4  12  25  51  81 114 155 206 265 325 392 471
#     4  12  26  50  76 112 164 212 266 320 396 472
#     4  12  31  47  78 119 162 204 263 332 394 465
#     4  12  27  49  83 114 156 211 265 324 395 464
#
# _framework density 25.662624000000001
#
# number of rings (size 3 to 8) (size 9 to 14) (size 15 to 20)
#    0.000    0.000    4.286    4.286   10.000    0.000 
#    0.000    0.000    0.000    0.000    0.000    0.000 
#    0.000    0.000    0.000    0.000    0.000    0.000 
#
# Total GULP energy -78392.006073 kJ/mol
# GULP energy per Si atom -5599.429005 kJ/mol
# Density = 2.560422 g / cm^3
# Si number density = 25.662624 Si / 1000 Ang^3
#
#
#
# Elastic Constant Matrix: (Units=GPa)
#
#
# Indices 1 2 3 4 5 6 
#
# 1 178.6326 67.3333 35.4106 0.0000 -47.8532 0.0000
# 2 67.3333 145.9994 35.0715 0.0000 -8.8500 0.0000
# 3 35.4106 35.0715 89.3093 0.0000 -0.2370 0.0000
# 4 0.0000 0.0000 0.0000 23.6382 0.0000 10.2594
# 5 -47.8532 -8.8500 -0.2370 0.0000 56.1199 0.0000
# 6 0.0000 0.0000 0.0000 10.2594 0.0000 40.4527
#
#
#
# Elastic Compliance Matrix: (Units=1/GPa)
#
#
# Indices 1 2 3 4 5 6 
#
# 1 0.009277 -0.003259 -0.002379 0.000000 0.007386 0.000000
# 2 -0.003259 0.008787 -0.002162 0.000000 -0.001403 0.000000
# 3 -0.002379 -0.002162 0.012983 0.000000 -0.002314 0.000000
# 4 0.000000 0.000000 0.000000 0.047537 0.000000 -0.012056
# 5 0.007386 -0.001403 -0.002314 0.000000 0.023886 0.000000
# 6 0.000000 0.000000 0.000000 -0.012056 0.000000 0.027778
#
#
# Mechanical properties :
#
#
# Convention : Reuss Voigt Hill
#
# Bulk Modulus (GPa) = 64.73841 76.61912 70.67877
# Shear Modulus (GPa) = 33.11334 42.45056 37.78195
#
# Velocity S-wave (km/s) = 3.59602 4.07157 3.84116
# Velocity P-wave (km/s) = 6.52099 7.21282 6.87561
#
# Compressibility (1/GPa) = 0.01544678
#
# Stress axis : x y z
#
# Youngs Moduli (GPa) = 107.79537 113.80712 77.02338
#
# Poissons Ratio (x) = 0.37092 0.18322
# Poissons Ratio (y) = 0.35133 0.16652
# Poissons Ratio (z) = 0.25642 0.24605
#
# Static dielectric constant tensor:
#      x y z
#    x 2.015610 0.000000 0.070840 
#    y 0.000000 2.064710 0.000000 
#    z 0.070840 0.000000 2.138350 
# 
# From -- ./inp_files/36650.got.cif
#   From: 2010.05.17/outbox.cif.g08.bks.cpg/sg15_19_cif.got.tgz:36650.got - 2010.06.03 18:47:42.
