data_PCOD9308510
_publ_section_title
;
Structure prediction by ZEFSAII (Michael W. Deem and Ramdas Pophale) SiO2 
 PCOD9308510
Probable space group: C 2/C
;
_chemical_formula_sum "Si O2"
_cell_formula_units_Z 40
_cell_length_a 11.831426
_cell_length_b 12.577752
_cell_length_c 11.608602
_cell_angle_alpha 90.000000
_cell_angle_beta 102.882658
_cell_angle_gamma 90.000000
_cell_volume 1684.024313
_symmetry_space_group_name_H-M "C 2/C"
_symmetry_group_IT_number 15
_symmetry_cell_setting 'monoclinic'
loop_
_space_group_symop_operation_xyz
x,y,z
-x,y,1/2-z
-x,-y,-z
x,-y,1/2+z
1/2+x,1/2+y,z
1/2-x,1/2+y,1/2-z
1/2-x,1/2-y,-z
1/2+x,1/2-y,1/2+z
loop_
_atom_site_type_symbol
_atom_site_label
_atom_site_fract_x
_atom_site_fract_y
_atom_site_fract_z
Si Si1 0.897993 0.919451 0.659427
Si Si2 0.152881 0.523059 0.351378
Si Si3 0.654555 0.044200 0.604734
Si Si4 0.767558 0.230451 0.296256
Si Si5 0.323617 0.327286 0.431650
O O1 0.864700 0.821227 0.735183
O O2 0.922827 0.874550 0.536975
O O3 0.000000 0.977872 0.750000
O O4 0.782215 0.989272 0.627199
O O5 0.100723 0.520592 0.467675
O O6 0.101277 0.503604 0.211179
O O7 0.218516 0.635867 0.361308
O O8 0.244509 0.426161 0.377144
O O9 0.676624 0.169302 0.628343
O O10 0.663318 0.265394 0.184820
O O11 0.250000 0.250000 0.500000
#
# Coordination Sequence:
#
# PCOD9308510 Si02
#       5
#     8   8   8   8   8
#     4   9  17  30  49  76 105 135 170 213 263 313
#     4   9  16  27  46  69  95 127 169 211 244 290
#     4   9  17  29  45  72 101 132 168 208 251 305
#     4   9  16  28  46  70  98 136 174 208 248 306
#     4   8  15  28  45  69  98 130 168 204 246 306
#
# _framework density 23.752628000000001
#
# number of rings (size 3 to 8) (size 9 to 14) (size 15 to 20)
#    0.000    3.200    0.000    1.800    0.000    0.000 
#    0.000   25.000    0.000    0.000    0.000  135.800 
#    0.000    0.000    0.000    0.000    0.000    0.000 
#
# Total GULP energy -111425.883936 kJ/mol
# GULP energy per Si atom -5571.294197 kJ/mol
# Density = 2.369857 g / cm^3
# Si number density = 23.752628 Si / 1000 Ang^3
#
#
#
# Elastic Constant Matrix: (Units=GPa)
#
#
# Indices 1 2 3 4 5 6 
#
# 1 48.3450 5.3791 48.4049 0.0000 -4.1408 0.0000
# 2 5.3791 110.2933 14.7357 0.0000 -9.4287 0.0000
# 3 48.4049 14.7357 179.2529 0.0000 -1.3517 0.0000
# 4 0.0000 0.0000 0.0000 34.0687 0.0000 -11.4241
# 5 -4.1408 -9.4287 -1.3517 0.0000 36.3587 0.0000
# 6 0.0000 0.0000 0.0000 -11.4241 0.0000 -24.5386
#
#
#
# Elastic Compliance Matrix: (Units=1/GPa)
#
#
# Indices 1 2 3 4 5 6 
#
# 1 0.028670 -0.000116 -0.007710 0.000000 0.002948 0.000000
# 2 -0.000116 0.009373 -0.000721 0.000000 0.002391 0.000000
# 3 -0.007710 -0.000721 0.007714 0.000000 -0.000778 0.000000
# 4 0.000000 0.000000 0.000000 0.025389 0.000000 -0.011820
# 5 0.002948 0.002391 -0.000778 0.000000 0.028431 0.000000
# 6 0.000000 0.000000 0.000000 -0.011820 0.000000 -0.035249
#
#
# Mechanical properties :
#
#
# Convention : Reuss Voigt Hill
#
# Bulk Modulus (GPa) = 34.88905 52.77007 43.82956
# Shear Modulus (GPa) = 54.95957 27.13587 41.04772
#
# Velocity S-wave (km/s) = 4.81545 3.38366 4.16159
# Velocity P-wave (km/s) = 6.75562 6.12620 6.44859
#
# Compressibility (1/GPa) = 0.02866229
#
# Stress axis : x y z
#
# Youngs Moduli (GPa) = 34.87999 106.68809 129.63219
#
# Poissons Ratio (x) = 0.01239 0.99948
# Poissons Ratio (y) = 0.00405 0.09348
# Poissons Ratio (z) = 0.26893 0.07694
#
# Static dielectric constant tensor:
#      x y z
#    x 1.942460 0.000000 0.002680 
#    y 0.000000 1.962680 0.000000 
#    z 0.002680 0.000000 1.998680 
# 
# From -- ./inp_files/94501.got.cif
#   From: 2010.05.17/outbox.cif.g08.bks.cpg/sg15_48_cif.got.tgz:94501.got - 2010.06.03 18:47:42.
