data_PCOD9308203
_publ_section_title
;
Structure prediction by ZEFSAII (Michael W. Deem and Ramdas Pophale) SiO2 
 PCOD9308203
Probable space group: C 2/C
;
_chemical_formula_sum "Si O2"
_cell_formula_units_Z 40
_cell_length_a 16.569303
_cell_length_b 11.592008
_cell_length_c 8.413889
_cell_angle_alpha 90.000000
_cell_angle_beta 87.126130
_cell_angle_gamma 90.000000
_cell_volume 1614.035735
_symmetry_space_group_name_H-M "C 2/C"
_symmetry_group_IT_number 15
_symmetry_cell_setting 'monoclinic'
loop_
_space_group_symop_operation_xyz
x,y,z
-x,y,1/2-z
-x,-y,-z
x,-y,1/2+z
1/2+x,1/2+y,z
1/2-x,1/2+y,1/2-z
1/2-x,1/2-y,-z
1/2+x,1/2-y,1/2+z
loop_
_atom_site_type_symbol
_atom_site_label
_atom_site_fract_x
_atom_site_fract_y
_atom_site_fract_z
Si Si1 0.063905 0.603017 0.015612
Si Si2 0.698037 0.406867 0.717863
Si Si3 0.000000 0.792613 0.250000
Si Si4 0.334424 0.066401 0.794562
Si Si5 0.910845 0.965595 0.065420
Si Si6 0.250000 0.250000 0.000000
O O1 0.125599 0.548859 0.136532
O O2 0.022337 0.713410 0.098365
O O3 0.107153 0.621594 0.842393
O O4 0.000000 0.500000 0.000000
O O5 0.752788 0.519812 0.721728
O O6 0.646903 0.403562 0.556933
O O7 0.635344 0.422826 0.865225
O O8 0.748363 0.291981 0.689972
O O9 0.926909 0.876619 0.206548
O O10 0.312900 0.146002 0.945837
O O11 0.000000 0.000000 0.000000
#
# Coordination Sequence:
#
# PCOD9308203 Si02
#       6
#     8   8   4   8   8   4
#     4  12  26  49  76 114 157 197 256 320 378 463
#     4  12  26  49  74 109 149 193 253 313 366 465
#     4  12  28  46  80 108 156 200 256 314 408 432
#     4  12  26  50  75 114 154 199 258 315 375 467
#     4  12  26  51  73 108 150 194 253 313 376 455
#     4  12  28  44  82 104 160 202 250 298 406 428
#
# _framework density 24.782599999999999
#
# number of rings (size 3 to 8) (size 9 to 14) (size 15 to 20)
#    0.000    0.000    8.000    0.000    8.400    0.000 
#    0.000    3.000    0.000    0.000    0.000    0.000 
#    0.000    0.000    0.000    0.000    0.000    0.000 
#
# Total GULP energy -111507.307085 kJ/mol
# GULP energy per Si atom -5575.365354 kJ/mol
# Density = 2.472619 g / cm^3
# Si number density = 24.782600 Si / 1000 Ang^3
#
#
#
# Elastic Constant Matrix: (Units=GPa)
#
#
# Indices 1 2 3 4 5 6 
#
# 1 81.7128 6.3628 19.1373 0.0000 -3.4509 0.0000
# 2 6.3628 65.6477 1.0655 0.0000 -9.4123 0.0000
# 3 19.1373 1.0655 78.4141 0.0000 -23.6523 0.0000
# 4 0.0000 0.0000 0.0000 58.4380 0.0000 -0.1213
# 5 -3.4509 -9.4123 -23.6523 0.0000 69.1929 0.0000
# 6 0.0000 0.0000 0.0000 -0.1213 0.0000 21.5086
#
#
#
# Elastic Compliance Matrix: (Units=1/GPa)
#
#
# Indices 1 2 3 4 5 6 
#
# 1 0.013104 -0.001313 -0.003386 0.000000 -0.000683 0.000000
# 2 -0.001313 0.015683 0.000815 0.000000 0.002347 0.000000
# 3 -0.003386 0.000815 0.015108 0.000000 0.005107 0.000000
# 4 0.000000 0.000000 0.000000 0.017112 0.000000 0.000097
# 5 -0.000683 0.002347 0.005107 0.000000 0.016483 0.000000
# 6 0.000000 0.000000 0.000000 0.000097 0.000000 0.046494
#
#
# Mechanical properties :
#
#
# Convention : Reuss Voigt Hill
#
# Bulk Modulus (GPa) = 27.67941 30.98955 29.33448
# Shear Modulus (GPa) = 34.77141 43.10849 38.93995
#
# Velocity S-wave (km/s) = 3.74980 4.17521 3.96821
# Velocity P-wave (km/s) = 5.47185 5.98122 5.73219
#
# Compressibility (1/GPa) = 0.03612794
#
# Stress axis : x y z
#
# Youngs Moduli (GPa) = 76.30979 63.76207 66.18805
#
# Poissons Ratio (x) = 0.08372 0.22413
# Poissons Ratio (y) = 0.10020 -0.05395
# Poissons Ratio (z) = 0.25840 -0.05197
#
# Static dielectric constant tensor:
#      x y z
#    x 1.890120 0.000000 0.084440 
#    y 0.000000 1.942210 0.000000 
#    z 0.084440 0.000000 1.946960 
# 
# From -- ./inp_files/46161.got.cif
#   From: 2010.05.17/outbox.cif.g08.bks.cpg/sg15_24_cif.got.tgz:46161.got - 2010.06.03 18:47:42.
