data_PCOD9308400
_publ_section_title
;
Structure prediction by ZEFSAII (Michael W. Deem and Ramdas Pophale) SiO2 
 PCOD9308400
Probable space group: C 2/C
;
_chemical_formula_sum "Si O2"
_cell_formula_units_Z 36
_cell_length_a 15.574456
_cell_length_b 11.023644
_cell_length_c 7.769694
_cell_angle_alpha 90.000000
_cell_angle_beta 115.388960
_cell_angle_gamma 90.000000
_cell_volume 1205.121082
_symmetry_space_group_name_H-M "C 2/C"
_symmetry_group_IT_number 15
_symmetry_cell_setting 'monoclinic'
loop_
_space_group_symop_operation_xyz
x,y,z
-x,y,1/2-z
-x,-y,-z
x,-y,1/2+z
1/2+x,1/2+y,z
1/2-x,1/2+y,1/2-z
1/2-x,1/2-y,-z
1/2+x,1/2-y,1/2+z
loop_
_atom_site_type_symbol
_atom_site_label
_atom_site_fract_x
_atom_site_fract_y
_atom_site_fract_z
Si Si1 0.871112 0.250022 0.752154
Si Si2 0.549571 0.838385 0.116585
Si Si3 0.750000 0.250000 0.000000
Si Si4 0.292587 0.999600 0.171068
Si Si5 0.592493 0.411496 0.550753
O O1 0.820073 0.366871 0.626913
O O2 0.893483 0.147727 0.627873
O O3 0.806651 0.223034 0.862345
O O4 0.971444 0.297975 0.912922
O O5 0.500000 0.871271 0.250000
O O6 0.712928 0.890673 0.469474
O O7 0.620327 0.946995 0.140203
O O8 0.188382 0.016427 0.159910
O O9 0.100355 0.205240 0.188127
O O10 0.500000 0.500000 0.500000
#
# Coordination Sequence:
#
# PCOD9308400 Si02
#       5
#     8   8   4   8   8
#     4  12  29  56  93 138 188 255 317 404 489 588
#     4  12  28  55  88 139 186 247 316 401 494 568
#     4  12  28  50  88 136 180 246 308 396 484 576
#     4  12  29  54  92 134 188 247 329 395 492 588
#     4  12  31  59  94 133 192 260 326 401 488 591
#
# _framework density 29.872519
#
# number of rings (size 3 to 8) (size 9 to 14) (size 15 to 20)
#    0.000    0.000    2.222    4.667    6.222    5.333 
#    0.000    3.333    0.000    0.000    0.000    0.000 
#    0.000    0.000    0.000    0.000    0.000    0.000 
#
# Total GULP energy -100575.865419 kJ/mol
# GULP energy per Si atom -5587.548079 kJ/mol
# Density = 2.980453 g / cm^3
# Si number density = 29.872519 Si / 1000 Ang^3
#
#
#
# Elastic Constant Matrix: (Units=GPa)
#
#
# Indices 1 2 3 4 5 6 
#
# 1 274.5575 119.7543 95.5336 0.0000 1.7993 0.0000
# 2 119.7543 249.1466 43.9088 0.0000 9.5929 0.0000
# 3 95.5336 43.9088 108.8153 0.0000 11.8028 0.0000
# 4 0.0000 0.0000 0.0000 51.6354 0.0000 25.5000
# 5 1.7993 9.5929 11.8028 0.0000 70.0508 0.0000
# 6 0.0000 0.0000 0.0000 25.5000 0.0000 83.3621
#
#
#
# Elastic Compliance Matrix: (Units=1/GPa)
#
#
# Indices 1 2 3 4 5 6 
#
# 1 0.006224 -0.002203 -0.004676 0.000000 0.000930 0.000000
# 2 -0.002203 0.005107 -0.000058 0.000000 -0.000633 0.000000
# 3 -0.004676 -0.000058 0.013553 0.000000 -0.002155 0.000000
# 4 0.000000 0.000000 0.000000 0.022813 0.000000 -0.006978
# 5 0.000930 -0.000633 -0.002155 0.000000 0.014701 0.000000
# 6 0.000000 0.000000 0.000000 -0.006978 0.000000 0.014130
#
#
# Mechanical properties :
#
#
# Convention : Reuss Voigt Hill
#
# Bulk Modulus (GPa) = 90.83318 127.87921 109.35620
# Shear Modulus (GPa) = 53.14979 65.89783 59.52381
#
# Velocity S-wave (km/s) = 4.22266 4.70187 4.46869
# Velocity P-wave (km/s) = 7.36528 8.50753 7.95693
#
# Compressibility (1/GPa) = 0.01100919
#
# Stress axis : x y z
#
# Youngs Moduli (GPa) = 160.65844 195.79590 73.78672
#
# Poissons Ratio (x) = 0.43143 0.34505
# Poissons Ratio (y) = 0.35400 0.00426
# Poissons Ratio (z) = 0.75130 0.01130
#
# Static dielectric constant tensor:
#      x y z
#    x 2.466370 0.000000 0.193310 
#    y 0.000000 2.310840 0.000000 
#    z 0.193310 0.000000 1.955030 
# 
# From -- ./inp_files/103071.got.cif
#   From: 2010.05.17/outbox.cif.g08.bks.cpg/sg15_52_cif.got.tgz:103071.got - 2010.06.03 18:47:42.
