data_PCOD9308081
_publ_section_title
;
Structure prediction by ZEFSAII (Michael W. Deem and Ramdas Pophale) SiO2 
 PCOD9308081
Probable space group: C 2/C
;
_chemical_formula_sum "Si O2"
_cell_formula_units_Z 40
_cell_length_a 12.990276
_cell_length_b 5.293948
_cell_length_c 31.843371
_cell_angle_alpha 90.000000
_cell_angle_beta 49.958386
_cell_angle_gamma 90.000000
_cell_volume 1676.510129
_symmetry_space_group_name_H-M "C 2/C"
_symmetry_group_IT_number 15
_symmetry_cell_setting 'monoclinic'
loop_
_space_group_symop_operation_xyz
x,y,z
-x,y,1/2-z
-x,-y,-z
x,-y,1/2+z
1/2+x,1/2+y,z
1/2-x,1/2+y,1/2-z
1/2-x,1/2-y,-z
1/2+x,1/2-y,1/2+z
loop_
_atom_site_type_symbol
_atom_site_label
_atom_site_fract_x
_atom_site_fract_y
_atom_site_fract_z
Si Si1 0.106616 0.893468 0.928710
Si Si2 0.136117 0.605914 0.387897
Si Si3 0.825207 0.558536 0.717830
Si Si4 0.626690 0.921215 0.142679
Si Si5 0.745849 0.000269 0.528327
O O1 0.058757 0.612230 0.933849
O O2 0.131970 0.981720 0.969846
O O3 0.057527 0.126139 0.913473
O O4 0.265087 0.871008 0.870504
O O5 0.162773 0.529622 0.333480
O O6 0.280456 0.677602 0.371906
O O7 0.757567 0.833455 0.738519
O O8 0.975735 0.577685 0.697541
O O9 0.623913 0.968850 0.093268
O O10 0.750000 0.750000 0.500000
O O11 0.750000 0.250000 0.500000
#
# Coordination Sequence:
#
# PCOD9308081 Si02
#       5
#     8   8   8   8   8
#     4   8  18  34  59  78 115 150 179 229 297 327
#     4   9  19  40  55  79 115 153 184 243 285 342
#     4  12  26  39  59  89 114 154 205 239 289 352
#     4   8  23  37  59  82 118 152 187 238 296 332
#     4   9  16  30  59  87 106 146 195 229 282 352
#
# _framework density 23.859086999999999
#
# number of rings (size 3 to 8) (size 9 to 14) (size 15 to 20)
#    2.400    0.000    0.000    3.600    2.800    0.800 
#    0.000    0.000    0.000   16.800    0.000    0.000 
#    0.000    0.000    0.000    0.000    0.000    0.000 
#
# Total GULP energy -111407.501762 kJ/mol
# GULP energy per Si atom -5570.375088 kJ/mol
# Density = 2.380478 g / cm^3
# Si number density = 23.859087 Si / 1000 Ang^3
#
#
#
# Elastic Constant Matrix: (Units=GPa)
#
#
# Indices 1 2 3 4 5 6 
#
# 1 93.2643 21.6820 25.6877 0.0041 -12.2852 0.0067
# 2 21.6820 156.9764 7.3144 0.0126 8.0455 0.0875
# 3 25.6877 7.3144 48.8675 0.0145 4.2015 0.0168
# 4 0.0041 0.0126 0.0145 38.8509 0.0038 14.8349
# 5 -12.2852 8.0455 4.2015 0.0038 51.0897 0.0225
# 6 0.0067 0.0875 0.0168 14.8349 0.0225 20.8161
#
#
#
# Elastic Compliance Matrix: (Units=1/GPa)
#
#
# Indices 1 2 3 4 5 6 
#
# 1 0.013690 -0.001765 -0.007290 0.000000 0.004169 0.000005
# 2 -0.001765 0.006688 0.000054 0.000011 -0.001482 -0.000034
# 3 -0.007290 0.000054 0.024613 -0.000004 -0.003786 -0.000011
# 4 0.000000 0.000011 -0.000004 0.035363 0.000007 -0.025202
# 5 0.004169 -0.001482 -0.003786 0.000007 0.021121 -0.000020
# 6 0.000005 -0.000034 -0.000011 -0.025202 -0.000020 0.066000
#
#
# Mechanical properties :
#
#
# Convention : Reuss Voigt Hill
#
# Bulk Modulus (GPa) = 37.05324 45.38627 41.21975
# Shear Modulus (GPa) = 25.71057 38.44628 32.07842
#
# Velocity S-wave (km/s) = 3.28624 4.01857 3.67071
# Velocity P-wave (km/s) = 5.47384 6.37148 5.93964
#
# Compressibility (1/GPa) = 0.02698820
#
# Stress axis : x y z
#
# Youngs Moduli (GPa) = 73.04751 149.53049 40.62864
#
# Poissons Ratio (x) = 0.26390 0.29620
# Poissons Ratio (y) = 0.12892 -0.00220
# Poissons Ratio (z) = 0.53255 -0.00810
#
# Static dielectric constant tensor:
#      x y z
#    x 2.065130 0.000110 -0.184580 
#    y 0.000110 2.124430 -0.000200 
#    z -0.184580 -0.000200 2.130960 
# 
# From -- ./inp_files/297339.got.cif
#   From: 2010.05.17/outbox.cif.g08.bks.cpg/sg15_149_cif.got.tgz:297339.got - 2010.06.03 18:47:42.
