data_PCOD9308068
_publ_section_title
;
Structure prediction by ZEFSAII (Michael W. Deem and Ramdas Pophale) SiO2 
 PCOD9308068
Probable space group: C 2/C
;
_chemical_formula_sum "Si O2"
_cell_formula_units_Z 28
_cell_length_a 7.947100
_cell_length_b 31.635713
_cell_length_c 5.227397
_cell_angle_alpha 90.000000
_cell_angle_beta 63.690621
_cell_angle_gamma 90.000000
_cell_volume 1178.095146
_symmetry_space_group_name_H-M "C 2/C"
_symmetry_group_IT_number 15
_symmetry_cell_setting 'monoclinic'
loop_
_space_group_symop_operation_xyz
x,y,z
-x,y,1/2-z
-x,-y,-z
x,-y,1/2+z
1/2+x,1/2+y,z
1/2-x,1/2+y,1/2-z
1/2-x,1/2-y,-z
1/2+x,1/2-y,1/2+z
loop_
_atom_site_type_symbol
_atom_site_label
_atom_site_fract_x
_atom_site_fract_y
_atom_site_fract_z
Si Si1 0.800580 0.595299 0.245140
Si Si2 0.500000 0.349311 0.250000
Si Si3 0.740582 0.721241 0.755860
Si Si4 0.000000 0.029402 0.250000
Si Si5 0.500000 0.157421 0.750000
O O1 0.660849 0.620012 0.531828
O O2 0.681866 0.558697 0.184030
O O3 0.000000 0.583378 0.250000
O O4 0.854419 0.627977 0.988783
O O5 0.422725 0.313964 0.104270
O O6 0.750000 0.750000 0.500000
O O7 0.914755 0.689668 0.606079
O O8 0.750000 0.750000 0.000000
O O9 0.000000 0.000000 0.500000
#
# Coordination Sequence:
#
# PCOD9308068 Si02
#       5
#     8   4   8   4   4
#     4  12  28  54  86 119 162 216 274 332 415 504
#     4  12  25  52  78 112 158 218 278 332 396 490
#     4  12  26  44  71 112 159 215 275 344 403 453
#     4  12  31  56  87 128 166 204 262 340 427 512
#     4  12  26  48  75 112 160 210 282 324 397 486
#
# _framework density 23.767178999999999
#
# number of rings (size 3 to 8) (size 9 to 14) (size 15 to 20)
#    0.000    0.000    2.857    6.000    4.000    3.429 
#    0.000    0.000    0.000    0.000    0.000    0.000 
#    0.000    0.000    0.000    0.000    0.000    0.000 
#
# Total GULP energy -78250.196592 kJ/mol
# GULP energy per Si atom -5589.299757 kJ/mol
# Density = 2.371308 g / cm^3
# Si number density = 23.767179 Si / 1000 Ang^3
#
#
#
# Elastic Constant Matrix: (Units=GPa)
#
#
# Indices 1 2 3 4 5 6 
#
# 1 181.2286 121.8621 70.1541 0.0000 7.3994 0.0000
# 2 121.8621 190.1716 88.5458 0.0000 9.8759 0.0000
# 3 70.1541 88.5458 166.9495 0.0000 10.2439 0.0000
# 4 0.0000 0.0000 0.0000 51.9947 0.0000 -2.3327
# 5 7.3994 9.8759 10.2439 0.0000 46.5301 0.0000
# 6 0.0000 0.0000 0.0000 -2.3327 0.0000 95.8313
#
#
#
# Elastic Compliance Matrix: (Units=1/GPa)
#
#
# Indices 1 2 3 4 5 6 
#
# 1 0.009833 -0.005809 -0.001045 0.000000 -0.000101 0.000000
# 2 -0.005809 0.010436 -0.003056 0.000000 -0.000618 0.000000
# 3 -0.001045 -0.003056 0.008109 0.000000 -0.000971 0.000000
# 4 0.000000 0.000000 0.000000 0.019254 0.000000 0.000469
# 5 -0.000101 -0.000618 -0.000971 0.000000 0.021852 0.000000
# 6 0.000000 0.000000 0.000000 0.000469 0.000000 0.010446
#
#
# Mechanical properties :
#
#
# Convention : Reuss Voigt Hill
#
# Bulk Modulus (GPa) = 116.84525 122.16374 119.50449
# Shear Modulus (GPa) = 48.73199 56.05707 52.39453
#
# Velocity S-wave (km/s) = 4.53304 4.86180 4.70029
# Velocity P-wave (km/s) = 8.75597 9.11197 8.93574
#
# Compressibility (1/GPa) = 0.00855833
#
# Stress axis : x y z
#
# Youngs Moduli (GPa) = 101.70337 95.82343 123.31808
#
# Poissons Ratio (x) = 0.55665 0.12881
# Poissons Ratio (y) = 0.59080 0.37685
# Poissons Ratio (z) = 0.10624 0.29283
#
# Static dielectric constant tensor:
#      x y z
#    x 2.214130 0.000000 0.002600 
#    y 0.000000 1.927850 0.000000 
#    z 0.002600 0.000000 1.825320 
# 
# From -- ./inp_files/2526.got.cif
#   From: 2010.05.17/outbox.cif.g08.bks.cpg/sg15_2_cif.got.tgz:2526.got - 2010.06.03 18:47:42.
