data_PCOD9308968
_publ_section_title
;
Structure prediction by ZEFSAII (Michael W. Deem and Ramdas Pophale) SiO2 
 PCOD9308968
Probable space group: C 2/C
;
_chemical_formula_sum "Si O2"
_cell_formula_units_Z 24
_cell_length_a 15.000000
_cell_length_b 15.000000
_cell_length_c 30.000000
_cell_angle_alpha 90.000000
_cell_angle_beta 20.000000
_cell_angle_gamma 90.000000
_cell_volume 2308.635967
_symmetry_space_group_name_H-M "C 2/C"
_symmetry_group_IT_number 15
_symmetry_cell_setting 'monoclinic'
loop_
_space_group_symop_operation_xyz
x,y,z
-x,y,1/2-z
-x,-y,-z
x,-y,1/2+z
1/2+x,1/2+y,z
1/2-x,1/2+y,1/2-z
1/2-x,1/2-y,-z
1/2+x,1/2-y,1/2+z
loop_
_atom_site_type_symbol
_atom_site_label
_atom_site_fract_x
_atom_site_fract_y
_atom_site_fract_z
Si Si1 0.739163 0.963629 0.669297
Si Si2 0.891633 0.151829 0.179465
Si Si3 0.288010 0.079004 0.598109
Si Si4 0.414494 0.210581 0.463202
Si Si5 0.358166 0.352867 0.077229
Si Si6 0.379869 0.208038 0.997896
O O1 0.500000 0.932182 0.750000
O O2 0.767583 0.925358 0.706131
O O3 0.986683 0.917862 0.529220
O O4 0.728976 0.071647 0.670018
O O5 0.682955 0.177287 0.314952
O O6 0.967121 0.233612 0.110865
O O7 0.168345 0.141921 0.075031
O O8 0.285490 0.129335 0.551429
O O9 0.406158 0.152983 0.575894
O O10 0.000000 0.051978 0.750000
O O11 0.500000 0.000000 0.500000
O O12 0.250000 0.250000 0.500000
O O13 0.469241 0.291353 0.471695
O O14 0.240253 0.278413 0.098240
#
# Coordination Sequence:
#
# PCOD9308968 Si02
#       6
#     8   8   8   8   8   8
#     4  10  20  37  60  89 130 167 212 270 341 392
#     4  10  21  38  64  98 128 175 219 291 333 401
#     4  11  26  45  70  96 134 184 226 278 343 413
#     4  11  23  40  65  95 130 170 234 277 336 403
#     4   9  21  37  60  88 118 174 215 266 331 403
#     4   9  21  42  65  90 132 172 231 270 341 404
#
# _framework density 10.395749
#
# number of rings (size 3 to 8) (size 9 to 14) (size 15 to 20)
#    0.000    2.000    0.000    2.000    4.667    7.333 
#    3.000    0.000    0.000    0.000    0.000    0.000 
#    0.000    0.000    0.000    0.000    0.000    0.000 
#
# Total GULP energy -133772.707322 kJ/mol
# GULP energy per Si atom -5573.862805 kJ/mol
# Density = 1.037209 g / cm^3
# Si number density = 10.395749 Si / 1000 Ang^3
#
#
#
# Elastic Constant Matrix: (Units=GPa)
#
#
# Indices 1 2 3 4 5 6 
#
# 1 98.0629 25.8714 15.9630 0.0126 -6.2849 -0.0319
# 2 25.8714 86.0652 25.2676 -0.0372 -0.9770 -0.0138
# 3 15.9630 25.2676 92.4265 0.0001 2.4479 0.0002
# 4 0.0126 -0.0372 0.0001 19.0438 -0.0118 -11.6753
# 5 -6.2849 -0.9770 2.4479 -0.0118 34.3189 0.0133
# 6 -0.0319 -0.0138 0.0002 -11.6753 0.0133 4.8863
#
#
#
# Elastic Compliance Matrix: (Units=1/GPa)
#
#
# Indices 1 2 3 4 5 6 
#
# 1 0.011323 -0.003033 -0.001181 -0.000053 0.002071 -0.000066
# 2 -0.003033 0.013458 -0.003157 -0.000085 0.000053 -0.000185
# 3 -0.001181 -0.003157 0.011917 0.000032 -0.001156 0.000061
# 4 -0.000053 -0.000085 0.000032 -0.112953 0.000051 -0.269890
# 5 0.002071 0.000053 -0.001156 0.000051 0.029602 0.000056
# 6 -0.000066 -0.000185 0.000061 -0.269890 0.000056 -0.440221
#
#
# Mechanical properties :
#
#
# Convention : Reuss Voigt Hill
#
# Bulk Modulus (GPa) = 45.54663 45.63985 45.59324
# Shear Modulus (GPa) = -10.75703 25.61329 7.42813
#
# Velocity S-wave (km/s) = -2.27706 3.51367 1.89220
# Velocity P-wave (km/s) = 3.87822 6.20161 5.17207
#
# Compressibility (1/GPa) = 0.02195552
#
# Stress axis : x y z
#
# Youngs Moduli (GPa) = 88.31701 74.30381 83.91357
#
# Poissons Ratio (x) = 0.22539 0.09912
# Poissons Ratio (y) = 0.26790 0.26489
# Poissons Ratio (z) = 0.10432 0.23456
#
# Static dielectric constant tensor:
#      x y z
#    x 1.782360 0.000010 0.002560 
#    y 0.000010 1.758540 0.000020 
#    z 0.002560 0.000020 1.808230 
# 
# From -- ./inp_files/314075.got.cif
#   From: 2010.05.17/outbox.ucp.g08.bks.cvg/sg15_158_cif.got.tgz:314075.got - 2010.06.11 12:40:34.
