data_PCOD9308780
_publ_section_title
;
Structure prediction by ZEFSAII (Michael W. Deem and Ramdas Pophale) SiO2 
 PCOD9308780
Probable space group: C 2/C
;
_chemical_formula_sum "Si O2"
_cell_formula_units_Z 24
_cell_length_a 30.000000
_cell_length_b 9.000000
_cell_length_c 9.000000
_cell_angle_alpha 90.000000
_cell_angle_beta 90.000000
_cell_angle_gamma 90.000000
_cell_volume 2430.000000
_symmetry_space_group_name_H-M "C 2/C"
_symmetry_group_IT_number 15
_symmetry_cell_setting 'monoclinic'
loop_
_space_group_symop_operation_xyz
x,y,z
-x,y,1/2-z
-x,-y,-z
x,-y,1/2+z
1/2+x,1/2+y,z
1/2-x,1/2+y,1/2-z
1/2-x,1/2-y,-z
1/2+x,1/2-y,1/2+z
loop_
_atom_site_type_symbol
_atom_site_label
_atom_site_fract_x
_atom_site_fract_y
_atom_site_fract_z
Si Si1 0.794727 0.314705 0.565435
Si Si2 0.545991 0.082123 0.969633
Si Si3 0.329179 0.947649 0.840566
Si Si4 0.617821 0.388924 0.460418
Si Si5 0.908005 0.358782 0.328888
Si Si6 0.399881 0.313027 0.374498
O O1 0.750000 0.250000 0.500000
O O2 0.792990 0.375826 0.732216
O O3 0.808342 0.459359 0.472026
O O4 0.833723 0.190255 0.552975
O O5 0.555812 0.120965 0.799299
O O6 0.555930 0.228631 0.067152
O O7 0.500000 0.000000 0.000000
O O8 0.581027 0.960287 0.028546
O O9 0.361221 0.810857 0.879415
O O10 0.362138 0.071539 0.765831
O O11 0.595612 0.301576 0.599010
O O12 0.596484 0.364405 0.297257
O O13 0.614729 0.557925 0.512850
#
# Coordination Sequence:
#
# PCOD9308780 Si02
#       6
#     8   8   8   8   8   8
#     4  10  21  36  56  86 119 154 199 249 293 342
#     4  11  21  35  58  87 114 147 189 239 292 346
#     4   9  19  37  57  79 111 154 195 232 287 353
#     4  10  21  37  60  87 118 158 200 240 294 357
#     4  10  19  36  59  82 112 151 192 233 284 358
#     4  10  20  37  58  85 115 154 199 241 290 360
#
# _framework density 9.8765429999999999
#
# number of rings (size 3 to 8) (size 9 to 14) (size 15 to 20)
#    0.000    2.000    0.000    6.500    0.000    4.000 
#    0.000    2.500    0.000    4.000    0.000    0.000 
#    0.000    0.000    0.000    0.000    0.000    0.000 
#
# Total GULP energy -133717.591207 kJ/mol
# GULP energy per Si atom -5571.566300 kJ/mol
# Density = 0.985406 g / cm^3
# Si number density = 9.876543 Si / 1000 Ang^3
#
#
#
# Elastic Constant Matrix: (Units=GPa)
#
#
# Indices 1 2 3 4 5 6 
#
# 1 31.9630 18.2962 28.8190 0.0000 11.4779 0.0000
# 2 18.2962 111.8056 45.6312 0.0000 9.1881 0.0000
# 3 28.8190 45.6312 93.6594 0.0000 2.8205 0.0000
# 4 0.0000 0.0000 0.0000 25.8432 0.0000 1.7313
# 5 11.4779 9.1881 2.8205 0.0000 21.8560 0.0000
# 6 0.0000 0.0000 0.0000 1.7313 0.0000 25.0222
#
#
#
# Elastic Compliance Matrix: (Units=1/GPa)
#
#
# Indices 1 2 3 4 5 6 
#
# 1 0.055796 -0.000288 -0.016213 0.000000 -0.027089 0.000000
# 2 -0.000288 0.011526 -0.005407 0.000000 -0.003997 0.000000
# 3 -0.016213 -0.005407 0.018045 0.000000 0.008458 0.000000
# 4 0.000000 0.000000 0.000000 0.038875 0.000000 -0.002690
# 5 -0.027089 -0.003997 0.008458 0.000000 0.060569 0.000000
# 6 0.000000 0.000000 0.000000 -0.002690 0.000000 0.040151
#
#
# Mechanical properties :
#
#
# Convention : Reuss Voigt Hill
#
# Bulk Modulus (GPa) = 24.06535 46.99120 35.52828
# Shear Modulus (GPa) = 17.69114 24.18970 20.94042
#
# Velocity S-wave (km/s) = 2.99593 3.50323 3.25946
# Velocity P-wave (km/s) = 4.91701 6.34070 5.67369
#
# Compressibility (1/GPa) = 0.04155351
#
# Stress axis : x y z
#
# Youngs Moduli (GPa) = 17.92236 86.75817 55.41672
#
# Poissons Ratio (x) = 0.02496 0.89845
# Poissons Ratio (y) = 0.00516 0.29963
# Poissons Ratio (z) = 0.29057 0.46908
#
# Static dielectric constant tensor:
#      x y z
#    x 1.760870 0.000000 0.032590 
#    y 0.000000 1.686430 0.000000 
#    z 0.032590 0.000000 1.722380 
# 
# From -- ./inp_files/68555.got.cif
#   From: 2010.05.17/outbox.ucp.g08.bks.cvg/sg15_35_cif.got.tgz:68555.got - 2010.06.11 12:40:34.
