data_PCOD9308589
_publ_section_title
;
Structure prediction by ZEFSAII (Michael W. Deem and Ramdas Pophale) SiO2 
 PCOD9308589
Probable space group: C 2/C
;
_chemical_formula_sum "Si O2"
_cell_formula_units_Z 48
_cell_length_a 19.408069
_cell_length_b 13.582722
_cell_length_c 10.979409
_cell_angle_alpha 90.000000
_cell_angle_beta 137.485138
_cell_angle_gamma 90.000000
_cell_volume 1955.934717
_symmetry_space_group_name_H-M "C 2/C"
_symmetry_group_IT_number 15
_symmetry_cell_setting 'monoclinic'
loop_
_space_group_symop_operation_xyz
x,y,z
-x,y,1/2-z
-x,-y,-z
x,-y,1/2+z
1/2+x,1/2+y,z
1/2-x,1/2+y,1/2-z
1/2-x,1/2-y,-z
1/2+x,1/2-y,1/2+z
loop_
_atom_site_type_symbol
_atom_site_label
_atom_site_fract_x
_atom_site_fract_y
_atom_site_fract_z
Si Si1 0.789958 0.081085 0.252416
Si Si2 0.387646 0.040978 0.661020
Si Si3 0.121067 0.890682 0.378896
Si Si4 0.611008 0.378382 0.839751
Si Si5 0.379680 0.815987 0.617416
Si Si6 0.273496 0.873692 0.235530
O O1 0.809381 0.119983 0.411726
O O2 0.872549 0.143014 0.280094
O O3 0.791305 0.963594 0.286993
O O4 0.687156 0.086615 0.039277
O O5 0.500000 0.049886 0.750000
O O6 0.362049 0.089036 0.758039
O O7 0.362254 0.925057 0.647396
O O8 0.141867 0.786601 0.339146
O O9 0.000000 0.891727 0.250000
O O10 0.137709 0.003724 0.361485
O O11 0.500000 0.366132 0.750000
O O12 0.691011 0.328248 0.035077
O O13 0.500000 0.813677 0.750000
O O14 0.325169 0.821359 0.415295
#
# Coordination Sequence:
#
# PCOD9308589 Si02
#       6
#     8   8   8   8   8   8
#     4   9  18  33  52  76 102 133 171 206 248 301
#     4   9  18  33  55  76  99 133 173 209 246 298
#     4   9  18  32  52  77 104 132 164 209 258 297
#     4   9  18  33  55  76  99 133 173 209 246 298
#     4   9  18  32  52  77 104 132 164 209 258 297
#     4   9  18  33  52  76 102 133 171 206 248 301
#
# _framework density 24.540696000000001
#
# number of rings (size 3 to 8) (size 9 to 14) (size 15 to 20)
#    0.000    3.000    0.000    0.000    0.000   12.000 
#    0.000   16.667    0.000   16.000    0.000    0.000 
#    0.000    1.333    0.000    0.000    0.000    0.000 
#
# Total GULP energy -133624.374422 kJ/mol
# GULP energy per Si atom -5567.682268 kJ/mol
# Density = 2.448484 g / cm^3
# Si number density = 24.540696 Si / 1000 Ang^3
#
#
#
# Elastic Constant Matrix: (Units=GPa)
#
#
# Indices 1 2 3 4 5 6 
#
# 1 123.7394 -18.9166 52.1697 0.0000 13.5617 0.0000
# 2 -18.9166 85.0778 15.3941 0.0000 13.2423 0.0000
# 3 52.1697 15.3941 66.8289 0.0000 14.1139 0.0000
# 4 0.0000 0.0000 0.0000 -250.4709 0.0000 -91.5566
# 5 13.5617 13.2423 14.1139 0.0000 17.2289 0.0000
# 6 0.0000 0.0000 0.0000 -91.5566 0.0000 -21.3824
#
#
#
# Elastic Compliance Matrix: (Units=1/GPa)
#
#
# Indices 1 2 3 4 5 6 
#
# 1 0.014664 0.006438 -0.011424 0.000000 -0.007132 0.000000
# 2 0.006438 0.016244 -0.006119 0.000000 -0.012540 0.000000
# 3 -0.011424 -0.006119 0.027085 0.000000 -0.008492 0.000000
# 4 0.000000 0.000000 0.000000 0.007064 0.000000 -0.030247
# 5 -0.007132 -0.012540 -0.008492 0.000000 0.080252 0.000000
# 6 0.000000 0.000000 0.000000 -0.030247 0.000000 0.082747
#
#
# Mechanical properties :
#
#
# Convention : Reuss Voigt Hill
#
# Bulk Modulus (GPa) = 27.94678 41.43784 34.69231
# Shear Modulus (GPa) = 19.06994 -35.79161 -8.36083
#
# Velocity S-wave (km/s) = 2.79063 -3.82312 -1.84779
# Velocity P-wave (km/s) = 4.66863 1.60198 3.10079
#
# Compressibility (1/GPa) = 0.03578230
#
# Stress axis : x y z
#
# Youngs Moduli (GPa) = 68.19580 61.55990 36.92141
#
# Poissons Ratio (x) = -0.39629 0.42178
# Poissons Ratio (y) = -0.43901 0.22592
# Poissons Ratio (z) = 0.77905 0.37668
#
# Static dielectric constant tensor:
#      x y z
#    x 1.994600 0.000000 -0.003200 
#    y 0.000000 2.047550 0.000000 
#    z -0.003200 0.000000 1.911250 
# 
# From -- ./inp_files/112988.got.cif
#   From: 2010.05.17/outbox.cif.g08.bks.cpg/sg15_57_cif.got.tgz:112988.got - 2010.06.03 18:47:42.
