data_PCOD9308309
_publ_section_title
;
Structure prediction by ZEFSAII (Michael W. Deem and Ramdas Pophale) SiO2 
 PCOD9308309
Probable space group: C 2/C
;
_chemical_formula_sum "Si O2"
_cell_formula_units_Z 44
_cell_length_a 23.470760
_cell_length_b 8.349402
_cell_length_c 23.886859
_cell_angle_alpha 90.000000
_cell_angle_beta 21.248825
_cell_angle_gamma 90.000000
_cell_volume 1696.494430
_symmetry_space_group_name_H-M "C 2/C"
_symmetry_group_IT_number 15
_symmetry_cell_setting 'monoclinic'
loop_
_space_group_symop_operation_xyz
x,y,z
-x,y,1/2-z
-x,-y,-z
x,-y,1/2+z
1/2+x,1/2+y,z
1/2-x,1/2+y,1/2-z
1/2-x,1/2-y,-z
1/2+x,1/2-y,1/2+z
loop_
_atom_site_type_symbol
_atom_site_label
_atom_site_fract_x
_atom_site_fract_y
_atom_site_fract_z
Si Si1 0.500000 0.901290 0.750000
Si Si2 0.926764 0.338454 0.588304
Si Si3 0.119924 0.727033 0.024534
Si Si4 0.297317 0.575424 0.519675
Si Si5 0.843530 0.917584 0.812726
Si Si6 0.414579 0.617216 0.119779
O O1 0.471252 0.794961 0.832269
O O2 0.652520 0.015620 0.614414
O O3 0.742922 0.327154 0.766638
O O4 0.000000 0.500000 0.500000
O O5 0.011815 0.295999 0.568604
O O6 0.954242 0.249873 0.503496
O O7 0.244718 0.579983 0.914213
O O8 0.185195 0.909519 0.959867
O O9 0.242269 0.749320 0.593190
O O10 0.474052 0.591502 0.333926
O O11 0.868869 0.929452 0.722629
O O12 0.500000 0.500000 0.000000
#
# Coordination Sequence:
#
# PCOD9308309 Si02
#       6
#     4   8   8   8   8   8
#     4  12  30  54  90 118 164 226 288 358 420 498
#     4  12  27  47  80 118 165 215 269 332 424 499
#     4  12  29  54  85 123 167 221 282 348 421 499
#     4  12  29  52  85 119 166 219 284 346 424 492
#     4  12  28  53  85 124 166 216 280 347 420 515
#     4  12  27  49  78 123 168 216 269 342 418 513
#
# _framework density 25.935835999999998
#
# number of rings (size 3 to 8) (size 9 to 14) (size 15 to 20)
#    0.000    0.000    1.818    6.000   10.182    3.636 
#    0.000    0.909    0.000    0.000    0.000    0.000 
#    0.000    0.000    0.000    0.000    0.000    0.000 
#
# Total GULP energy -122767.801594 kJ/mol
# GULP energy per Si atom -5580.354618 kJ/mol
# Density = 2.587680 g / cm^3
# Si number density = 25.935836 Si / 1000 Ang^3
#
#
#
# Elastic Constant Matrix: (Units=GPa)
#
#
# Indices 1 2 3 4 5 6 
#
# 1 133.4915 20.9826 78.5444 -0.0002 -6.5261 -0.0001
# 2 20.9826 153.1768 57.4533 -0.0038 10.6008 0.0002
# 3 78.5444 57.4533 182.3010 -0.0039 -10.8186 0.0008
# 4 -0.0002 -0.0038 -0.0039 62.6669 0.0007 -1.2171
# 5 -6.5261 10.6008 -10.8186 0.0007 70.8138 0.0002
# 6 -0.0001 0.0002 0.0008 -1.2171 0.0002 27.9917
#
#
#
# Elastic Compliance Matrix: (Units=1/GPa)
#
#
# Indices 1 2 3 4 5 6 
#
# 1 0.010049 0.000258 -0.004398 0.000000 0.000216 0.000000
# 2 0.000258 0.007567 -0.002585 0.000000 -0.001504 0.000000
# 3 -0.004398 -0.002585 0.008269 0.000000 0.001245 0.000000
# 4 0.000000 0.000000 0.000000 0.015971 0.000000 0.000694
# 5 0.000216 -0.001504 0.001245 0.000000 0.014557 0.000000
# 6 0.000000 0.000000 0.000000 0.000694 0.000000 0.035755
#
#
# Mechanical properties :
#
#
# Convention : Reuss Voigt Hill
#
# Bulk Modulus (GPa) = 80.42238 86.99220 83.70729
# Shear Modulus (GPa) = 45.55297 53.09377 49.32337
#
# Velocity S-wave (km/s) = 4.19546 4.52942 4.36563
# Velocity P-wave (km/s) = 7.38544 7.80822 7.59977
#
# Compressibility (1/GPa) = 0.01243435
#
# Stress axis : x y z
#
# Youngs Moduli (GPa) = 99.51376 132.15680 120.93356
#
# Poissons Ratio (x) = -0.03412 0.53188
# Poissons Ratio (y) = -0.02570 0.31264
# Poissons Ratio (z) = 0.43768 0.34165
#
# Static dielectric constant tensor:
#      x y z
#    x 2.060750 0.000000 -0.061490 
#    y 0.000000 1.938990 0.000000 
#    z -0.061490 0.000000 1.861230 
# 
# From -- ./inp_files/303162.got.cif
#   From: 2010.05.17/outbox.cif.g08.bks.cpg/sg15_152_cif.got.tgz:303162.got - 2010.06.03 18:47:42.
