data_PCOD9308363
_publ_section_title
;
Structure prediction by ZEFSAII (Michael W. Deem and Ramdas Pophale) SiO2 
 PCOD9308363
Probable space group: C 2/C
;
_chemical_formula_sum "Si O2"
_cell_formula_units_Z 32
_cell_length_a 19.100459
_cell_length_b 5.122154
_cell_length_c 19.283350
_cell_angle_alpha 90.000000
_cell_angle_beta 138.869597
_cell_angle_gamma 90.000000
_cell_volume 1240.955747
_symmetry_space_group_name_H-M "C 2/C"
_symmetry_group_IT_number 15
_symmetry_cell_setting 'monoclinic'
loop_
_space_group_symop_operation_xyz
x,y,z
-x,y,1/2-z
-x,-y,-z
x,-y,1/2+z
1/2+x,1/2+y,z
1/2-x,1/2+y,1/2-z
1/2-x,1/2-y,-z
1/2+x,1/2-y,1/2+z
loop_
_atom_site_type_symbol
_atom_site_label
_atom_site_fract_x
_atom_site_fract_y
_atom_site_fract_z
Si Si1 0.371901 0.282440 0.035335
Si Si2 0.425578 0.329006 0.394469
Si Si3 0.619177 0.206264 0.866225
Si Si4 0.747810 0.479976 0.840876
O O1 0.489315 0.204554 0.094625
O O2 0.380703 0.566789 0.075328
O O3 0.346480 0.066181 0.074413
O O4 0.289499 0.239996 0.910940
O O5 0.500000 0.500000 0.500000
O O6 0.339783 0.479847 0.283546
O O7 0.353743 0.139377 0.386625
O O8 0.500000 0.178974 0.750000
O O9 0.692713 0.303971 0.858467
#
# Coordination Sequence:
#
# PCOD9308363 Si02
#       4
#     8   8   8   8
#     4  12  27  52  80 116 160 204 269 326 393 473
#     4  12  28  52  77 121 161 211 268 327 395 481
#     4  12  27  51  81 117 158 207 264 331 394 470
#     4  12  28  48  83 114 161 214 261 330 405 465
#
# _framework density 25.786577000000001
#
# number of rings (size 3 to 8) (size 9 to 14) (size 15 to 20)
#    0.000    0.000    2.500    6.000    3.500    2.000 
#    0.000    0.000    0.000    0.000    0.000    0.000 
#    0.000    0.000    0.000    0.000    0.000    0.000 
#
# Total GULP energy -89884.479155 kJ/mol
# GULP energy per Si atom -5617.779947 kJ/mol
# Density = 2.572789 g / cm^3
# Si number density = 25.786577 Si / 1000 Ang^3
#
#
#
# Elastic Constant Matrix: (Units=GPa)
#
#
# Indices 1 2 3 4 5 6 
#
# 1 152.0148 16.8494 17.4433 -0.0004 -8.1275 0.0043
# 2 16.8494 114.7629 76.1234 -0.0004 -10.2172 0.0111
# 3 17.4433 76.1234 221.4789 -0.0006 15.4952 0.0024
# 4 -0.0004 -0.0004 -0.0006 49.6462 -0.0004 3.3998
# 5 -8.1275 -10.2172 15.4952 -0.0004 47.6397 0.0006
# 6 0.0043 0.0111 0.0024 3.3998 0.0006 53.4003
#
#
#
# Elastic Compliance Matrix: (Units=1/GPa)
#
#
# Indices 1 2 3 4 5 6 
#
# 1 0.006755 -0.000626 -0.000397 0.000000 0.001147 0.000000
# 2 -0.000626 0.012047 -0.004364 0.000000 0.003896 -0.000002
# 3 -0.000397 -0.004364 0.006259 0.000000 -0.003039 0.000001
# 4 0.000000 0.000000 0.000000 0.020231 0.000000 -0.001288
# 5 0.001147 0.003896 -0.003039 0.000000 0.023011 -0.000001
# 6 0.000000 -0.000002 0.000001 -0.001288 -0.000001 0.018808
#
#
# Mechanical properties :
#
#
# Convention : Reuss Voigt Hill
#
# Bulk Modulus (GPa) = 69.99718 78.78764 74.39241
# Shear Modulus (GPa) = 48.71061 55.32661 52.01861
#
# Velocity S-wave (km/s) = 4.35097 4.63704 4.49628
# Velocity P-wave (km/s) = 7.24189 7.69998 7.47444
#
# Compressibility (1/GPa) = 0.01428629
#
# Stress axis : x y z
#
# Youngs Moduli (GPa) = 148.04710 83.00773 159.77213
#
# Poissons Ratio (x) = 0.05198 0.06343
# Poissons Ratio (y) = 0.09271 0.69723
# Poissons Ratio (z) = 0.05877 0.36224
#
# Static dielectric constant tensor:
#      x y z
#    x 2.086730 0.000000 -0.023250 
#    y 0.000000 1.993300 0.000000 
#    z -0.023250 0.000000 1.991950 
# 
# From -- ./inp_files/212769.got.cif
#   From: 2010.05.17/outbox.cif.g08.bks.cpg/sg15_107_cif.got.tgz:212769.got - 2010.06.03 18:47:42.
