data_PCOD9308841
_publ_section_title
;
Structure prediction by ZEFSAII (Michael W. Deem and Ramdas Pophale) SiO2 
 PCOD9308841
Probable space group: C 2/C
;
_chemical_formula_sum "Si O2"
_cell_formula_units_Z 32
_cell_length_a 18.000000
_cell_length_b 15.000000
_cell_length_c 24.000000
_cell_angle_alpha 90.000000
_cell_angle_beta 30.000000
_cell_angle_gamma 90.000000
_cell_volume 3240.000000
_symmetry_space_group_name_H-M "C 2/C"
_symmetry_group_IT_number 15
_symmetry_cell_setting 'monoclinic'
loop_
_space_group_symop_operation_xyz
x,y,z
-x,y,1/2-z
-x,-y,-z
x,-y,1/2+z
1/2+x,1/2+y,z
1/2-x,1/2+y,1/2-z
1/2-x,1/2-y,-z
1/2+x,1/2-y,1/2+z
loop_
_atom_site_type_symbol
_atom_site_label
_atom_site_fract_x
_atom_site_fract_y
_atom_site_fract_z
Si Si1 0.845158 0.956729 0.489570
Si Si2 0.521843 0.843272 0.462921
Si Si3 0.570304 0.905118 0.592221
Si Si4 0.135759 0.277634 0.281295
Si Si5 0.626938 0.043037 0.714980
Si Si6 0.810695 0.490475 0.099853
Si Si7 0.525219 0.594546 0.296859
Si Si8 0.025162 0.224237 0.901449
O O1 0.706166 0.911839 0.547308
O O2 0.957336 0.873861 0.431262
O O3 0.775003 0.003969 0.589856
O O4 0.905249 0.039160 0.411777
O O5 0.513528 0.803661 0.407112
O O6 0.659894 0.911616 0.375864
O O7 0.530968 0.765371 0.502566
O O8 0.393077 0.915805 0.559388
O O9 0.627982 0.951017 0.497724
O O10 0.522793 0.803157 0.610476
O O11 0.437614 0.967784 0.701082
O O12 0.144882 0.360503 0.232264
O O13 0.089498 0.181494 0.286763
O O14 0.296632 0.273667 0.206687
O O15 0.500000 0.052711 0.750000
O O16 0.642177 0.516087 0.209235
O O17 0.500000 0.628031 0.250000
#
# Coordination Sequence:
#
# PCOD9308841 Si02
#       8
#     8   8   8   8   8   8   8   8
#     4  11  25  44  66  97 133 166 215 273 321 376
#     4  10  22  40  64  92 126 168 214 258 315 390
#     4  10  21  45  70  91 128 170 217 261 322 386
#     4  12  25  41  64  96 131 170 215 263 327 381
#     4  10  24  45  66  95 130 172 212 268 327 380
#     4  10  19  42  67  89 122 170 216 258 313 381
#     4  12  25  42  65  95 125 167 219 271 317 380
#     4  11  25  40  66 100 128 170 211 262 323 388
#
# _framework density 9.8765429999999999
#
# number of rings (size 3 to 8) (size 9 to 14) (size 15 to 20)
#    0.000    1.250    3.750    1.500    3.500    1.500 
#    0.000    3.125    0.000    0.000    0.000    0.000 
#    0.000    0.000    0.000    0.000    0.000    0.000 
#
# Total GULP energy -178440.085075 kJ/mol
# GULP energy per Si atom -5576.252659 kJ/mol
# Density = 0.985406 g / cm^3
# Si number density = 9.876543 Si / 1000 Ang^3
#
#
#
# Elastic Constant Matrix: (Units=GPa)
#
#
# Indices 1 2 3 4 5 6 
#
# 1 45.2901 30.7973 19.5527 -0.0008 5.8710 0.0002
# 2 30.7973 135.4877 44.3108 0.0002 10.1355 0.0003
# 3 19.5527 44.3108 82.3284 0.0016 11.5356 -0.0002
# 4 -0.0008 0.0002 0.0016 26.2376 0.0003 -6.9916
# 5 5.8710 10.1355 11.5356 0.0003 29.6040 0.0001
# 6 0.0002 0.0003 -0.0002 -6.9916 0.0001 19.2820
#
#
#
# Elastic Compliance Matrix: (Units=1/GPa)
#
#
# Indices 1 2 3 4 5 6 
#
# 1 0.027207 -0.004858 -0.003516 0.000001 -0.002362 0.000000
# 2 -0.004858 0.009869 -0.004040 0.000000 -0.000841 0.000000
# 3 -0.003516 -0.004040 0.015723 -0.000001 -0.004046 0.000000
# 4 0.000001 0.000000 -0.000001 0.042190 0.000000 0.015298
# 5 -0.002362 -0.000841 -0.004046 0.000000 0.036112 0.000000
# 6 0.000000 0.000000 0.000000 0.015298 0.000000 0.057409
#
#
# Mechanical properties :
#
#
# Convention : Reuss Voigt Hill
#
# Bulk Modulus (GPa) = 35.75078 50.26976 43.01027
# Shear Modulus (GPa) = 22.45551 26.25443 24.35497
#
# Velocity S-wave (km/s) = 3.37532 3.64968 3.51518
# Velocity P-wave (km/s) = 5.77308 6.57758 6.18842
#
# Compressibility (1/GPa) = 0.02797142
#
# Stress axis : x y z
#
# Youngs Moduli (GPa) = 36.75468 101.32500 63.60115
#
# Poissons Ratio (x) = 0.49222 0.22363
# Poissons Ratio (y) = 0.17855 0.25696
# Poissons Ratio (z) = 0.12923 0.40938
#
# Static dielectric constant tensor:
#      x y z
#    x 1.787480 0.000000 -0.002840 
#    y 0.000000 1.660200 0.000000 
#    z -0.002840 0.000000 1.764640 
# 
# From -- ./inp_files/277647.got.cif
#   From: 2010.05.17/outbox.ucp.g08.bks.cvg/sg15_139_cif.got.tgz:277647.got - 2010.06.11 12:40:34.
