data_PCOD9308302
_publ_section_title
;
Structure prediction by ZEFSAII (Michael W. Deem and Ramdas Pophale) SiO2 
 PCOD9308302
Probable space group: C 2/C
;
_chemical_formula_sum "Si O2"
_cell_formula_units_Z 40
_cell_length_a 5.013411
_cell_length_b 19.172376
_cell_length_c 17.923994
_cell_angle_alpha 90.000000
_cell_angle_beta 72.304978
_cell_angle_gamma 90.000000
_cell_volume 1641.325372
_symmetry_space_group_name_H-M "C 2/C"
_symmetry_group_IT_number 15
_symmetry_cell_setting 'monoclinic'
loop_
_space_group_symop_operation_xyz
x,y,z
-x,y,1/2-z
-x,-y,-z
x,-y,1/2+z
1/2+x,1/2+y,z
1/2-x,1/2+y,1/2-z
1/2-x,1/2-y,-z
1/2+x,1/2-y,1/2+z
loop_
_atom_site_type_symbol
_atom_site_label
_atom_site_fract_x
_atom_site_fract_y
_atom_site_fract_z
Si Si1 0.181396 0.672103 0.803638
Si Si2 0.899197 0.099762 0.920241
Si Si3 0.284855 0.255043 0.085480
Si Si4 0.534970 0.538034 0.335389
Si Si5 0.553180 0.889559 0.598007
O O1 0.500000 0.684655 0.750000
O O2 0.813292 0.617611 0.629026
O O3 0.986637 0.739738 0.652464
O O4 0.000000 0.645100 0.750000
O O5 0.070634 0.171083 0.912407
O O6 0.070489 0.033878 0.877156
O O7 0.746419 0.089516 0.011469
O O8 0.473762 0.191797 0.097947
O O9 0.250000 0.250000 0.000000
O O10 0.500000 0.526584 0.250000
O O11 0.782863 0.588514 0.341446
O O12 0.240236 0.571054 0.384774
#
# Coordination Sequence:
#
# PCOD9308302 Si02
#       5
#     8   8   8   8   8
#     4  12  27  46  78 124 158 203 267 341 394 464
#     4  12  27  51  87 117 155 217 279 326 394 491
#     4  12  27  51  84 120 161 207 270 336 403 488
#     4  12  30  52  77 116 168 214 269 332 405 479
#     4  12  28  51  81 118 163 212 263 338 410 478
#
# _framework density 24.370547999999999
#
# number of rings (size 3 to 8) (size 9 to 14) (size 15 to 20)
#    0.000    0.000    4.000    4.200    5.600    0.800 
#    3.600    0.000    0.000    0.000    0.000    0.000 
#    0.000    0.000    0.000    0.000    0.000    0.000 
#
# Total GULP energy -112158.550808 kJ/mol
# GULP energy per Si atom -5607.927540 kJ/mol
# Density = 2.431508 g / cm^3
# Si number density = 24.370548 Si / 1000 Ang^3
#
#
#
# Elastic Constant Matrix: (Units=GPa)
#
#
# Indices 1 2 3 4 5 6 
#
# 1 130.5539 56.1556 36.0963 0.0000 9.6130 0.0000
# 2 56.1556 159.4504 34.7792 0.0000 5.3173 0.0000
# 3 36.0963 34.7792 113.7743 0.0000 -9.1299 0.0000
# 4 0.0000 0.0000 0.0000 22.2346 0.0000 -0.7878
# 5 9.6130 5.3173 -9.1299 0.0000 32.8253 0.0000
# 6 0.0000 0.0000 0.0000 -0.7878 0.0000 47.8126
#
#
#
# Elastic Compliance Matrix: (Units=1/GPa)
#
#
# Indices 1 2 3 4 5 6 
#
# 1 0.009782 -0.002797 -0.002498 0.000000 -0.003106 0.000000
# 2 -0.002797 0.007613 -0.001507 0.000000 -0.000833 0.000000
# 3 -0.002498 -0.001507 0.010352 0.000000 0.003855 0.000000
# 4 0.000000 0.000000 0.000000 0.045001 0.000000 0.000741
# 5 -0.003106 -0.000833 0.003855 0.000000 0.032581 0.000000
# 6 0.000000 0.000000 0.000000 0.000741 0.000000 0.020927
#
#
# Mechanical properties :
#
#
# Convention : Reuss Voigt Hill
#
# Bulk Modulus (GPa) = 70.70061 73.09343 71.89702
# Shear Modulus (GPa) = 34.58455 39.02433 36.80444
#
# Velocity S-wave (km/s) = 3.77120 4.00595 3.89035
# Velocity P-wave (km/s) = 6.93082 7.17318 7.05304
#
# Compressibility (1/GPa) = 0.01414415
#
# Stress axis : x y z
#
# Youngs Moduli (GPa) = 102.22922 131.35595 96.60220
#
# Poissons Ratio (x) = 0.36735 0.24130
# Poissons Ratio (y) = 0.28590 0.14556
# Poissons Ratio (z) = 0.25535 0.19792
#
# Static dielectric constant tensor:
#      x y z
#    x 1.970980 0.000000 -0.005890 
#    y 0.000000 1.952320 0.000000 
#    z -0.005890 0.000000 1.954950 
# 
# From -- ./inp_files/226776.got.cif
#   From: 2010.05.17/outbox.cif.g08.bks.cpg/sg15_114_cif.got.tgz:226776.got - 2010.06.03 18:47:42.
