data_PCOD9308010
_publ_section_title
;
Structure prediction by ZEFSAII (Michael W. Deem and Ramdas Pophale) SiO2 
 PCOD9308010
Probable space group: C 2/C
;
_chemical_formula_sum "Si O2"
_cell_formula_units_Z 56
_cell_length_a 15.482725
_cell_length_b 9.282536
_cell_length_c 18.396973
_cell_angle_alpha 90.000000
_cell_angle_beta 123.059368
_cell_angle_gamma 90.000000
_cell_volume 2215.946390
_symmetry_space_group_name_H-M "C 2/C"
_symmetry_group_IT_number 15
_symmetry_cell_setting 'monoclinic'
loop_
_space_group_symop_operation_xyz
x,y,z
-x,y,1/2-z
-x,-y,-z
x,-y,1/2+z
1/2+x,1/2+y,z
1/2-x,1/2+y,1/2-z
1/2-x,1/2-y,-z
1/2+x,1/2-y,1/2+z
loop_
_atom_site_type_symbol
_atom_site_label
_atom_site_fract_x
_atom_site_fract_y
_atom_site_fract_z
Si Si1 0.120742 0.013239 0.032549
Si Si2 0.934630 0.351274 0.349649
Si Si3 0.624396 0.833542 0.021551
Si Si4 0.978868 0.657845 0.323263
Si Si5 0.278159 0.603899 0.057739
Si Si6 0.803609 0.151745 0.800885
Si Si7 0.587839 0.584472 0.245322
O O1 0.179679 0.895703 0.108713
O O2 0.167764 0.174945 0.065096
O O3 0.141912 0.974545 0.959338
O O4 0.000000 0.000000 0.000000
O O5 0.948983 0.363636 0.442547
O O6 0.981915 0.486236 0.331638
O O7 0.812482 0.345130 0.278997
O O8 0.969541 0.207676 0.326294
O O9 0.563193 0.793097 0.920454
O O10 0.694025 0.975176 0.037281
O O11 0.000000 0.696376 0.250000
O O12 0.869354 0.711270 0.304769
O O13 0.328589 0.640533 0.158500
O O14 0.250000 0.750000 0.000000
O O15 0.857078 0.020664 0.783443
O O16 0.500000 0.505450 0.250000
#
# Coordination Sequence:
#
# PCOD9308010 Si02
#       7
#     8   8   8   8   8   8   8
#     4  12  26  50  78 113 152 202 251 315 387 459
#     4  12  27  49  76 107 151 199 252 312 385 452
#     4  12  28  50  76 114 154 202 256 314 386 464
#     4  12  30  47  77 112 153 198 254 317 381 455
#     4  12  30  48  79 112 154 198 259 319 381 457
#     4  12  25  48  75 110 150 197 253 308 383 461
#     4  12  26  47  75 110 148 197 252 314 380 451
#
# _framework density 25.271367999999999
#
# number of rings (size 3 to 8) (size 9 to 14) (size 15 to 20)
#    0.000    0.000    4.286    4.286   10.000    0.000 
#    0.000    0.000    0.000    0.000    0.000    0.000 
#    0.000    0.000    0.000    0.000    0.000    0.000 
#
# Total GULP energy -156752.528910 kJ/mol
# GULP energy per Si atom -5598.304604 kJ/mol
# Density = 2.521385 g / cm^3
# Si number density = 25.271368 Si / 1000 Ang^3
#
#
#
# Elastic Constant Matrix: (Units=GPa)
#
#
# Indices 1 2 3 4 5 6 
#
# 1 61.7122 28.3256 25.0034 0.0000 -15.2376 0.0000
# 2 28.3256 133.1436 18.0316 0.0000 -18.7827 0.0000
# 3 25.0034 18.0316 151.8194 0.0000 -29.6917 0.0000
# 4 0.0000 0.0000 0.0000 1.4236 0.0000 47.2935
# 5 -15.2376 -18.7827 -29.6917 0.0000 42.4683 0.0000
# 6 0.0000 0.0000 0.0000 47.2935 0.0000 20.1324
#
#
#
# Elastic Compliance Matrix: (Units=1/GPa)
#
#
# Indices 1 2 3 4 5 6 
#
# 1 0.019562 -0.003303 -0.002018 0.000000 0.004147 0.000000
# 2 -0.003303 0.008580 0.000041 0.000000 0.002638 0.000000
# 3 -0.002018 0.000041 0.007850 0.000000 0.004782 0.000000
# 4 0.000000 0.000000 0.000000 -0.009118 0.000000 0.021419
# 5 0.004147 0.002638 0.004782 0.000000 0.029545 0.000000
# 6 0.000000 0.000000 0.000000 0.021419 0.000000 -0.000645
#
#
# Mechanical properties :
#
#
# Convention : Reuss Voigt Hill
#
# Bulk Modulus (GPa) = 39.32360 54.37739 46.85049
# Shear Modulus (GPa) = 66.83372 31.15915 48.99643
#
# Velocity S-wave (km/s) = 5.14819 3.51519 4.40797
# Velocity P-wave (km/s) = 7.13672 6.16762 6.66979
#
# Compressibility (1/GPa) = 0.02543002
#
# Stress axis : x y z
#
# Youngs Moduli (GPa) = 51.11904 116.54882 127.39611
#
# Poissons Ratio (x) = 0.38501 0.25714
# Poissons Ratio (y) = 0.16887 -0.00521
# Poissons Ratio (z) = 0.10318 -0.00477
#
# Static dielectric constant tensor:
#      x y z
#    x 1.982870 0.000000 0.036850 
#    y 0.000000 2.027370 0.000000 
#    z 0.036850 0.000000 1.948260 
# 
# From -- ./inp_files/209622.got.cif
#   From: 2010.05.17/outbox.cif.g08.bks.cpg/sg15_105_cif.got.tgz:209622.got - 2010.06.03 18:47:42.
