data_PCOD9308949
_publ_section_title
;
Structure prediction by ZEFSAII (Michael W. Deem and Ramdas Pophale) SiO2 
 PCOD9308949
Probable space group: C 2/C
;
_chemical_formula_sum "Si O2"
_cell_formula_units_Z 24
_cell_length_a 9.000000
_cell_length_b 18.000000
_cell_length_c 30.000000
_cell_angle_alpha 90.000000
_cell_angle_beta 150.000000
_cell_angle_gamma 90.000000
_cell_volume 2430.000000
_symmetry_space_group_name_H-M "C 2/C"
_symmetry_group_IT_number 15
_symmetry_cell_setting 'monoclinic'
loop_
_space_group_symop_operation_xyz
x,y,z
-x,y,1/2-z
-x,-y,-z
x,-y,1/2+z
1/2+x,1/2+y,z
1/2-x,1/2+y,1/2-z
1/2-x,1/2-y,-z
1/2+x,1/2-y,1/2+z
loop_
_atom_site_type_symbol
_atom_site_label
_atom_site_fract_x
_atom_site_fract_y
_atom_site_fract_z
Si Si1 0.324343 0.411042 0.251313
Si Si2 0.126089 0.705309 0.054672
Si Si3 0.349527 0.996200 0.586484
Si Si4 0.167164 0.746466 0.746216
Si Si5 0.067567 0.433924 0.050948
Si Si6 0.678868 0.176332 0.430029
O O1 0.500000 0.412331 0.250000
O O2 0.205384 0.330226 0.230976
O O3 0.576904 0.428321 0.352779
O O4 0.051460 0.467349 0.177044
O O5 0.459767 0.704426 0.160216
O O6 0.925996 0.686470 0.046042
O O7 0.062414 0.643865 0.000786
O O8 0.008077 0.788069 0.011237
O O9 0.399697 0.908705 0.598376
O O10 0.439278 0.039906 0.564972
O O11 0.000000 0.000000 0.500000
O O12 0.480639 0.778673 0.843129
O O13 0.000000 0.735805 0.750000
O O14 0.000000 0.500000 0.000000
#
# Coordination Sequence:
#
# PCOD9308949 Si02
#       6
#     8   8   8   8   8   8
#     4  10  23  41  60  88 126 164 199 258 318 372
#     4  10  20  36  64  90 116 157 206 257 307 371
#     4  11  24  41  61  89 127 164 203 257 316 372
#     4  10  21  37  64  89 116 158 207 258 307 368
#     4  11  22  39  64  90 123 162 209 252 312 377
#     4  10  20  37  60  90 121 152 207 257 304 371
#
# _framework density 9.8765429999999999
#
# number of rings (size 3 to 8) (size 9 to 14) (size 15 to 20)
#    0.000    1.667    3.333    1.000    2.333    3.333 
#    3.000    2.500    0.000    0.000    0.000    0.000 
#    0.000    0.000    0.000    0.000    0.000    0.000 
#
# Total GULP energy -133757.533725 kJ/mol
# GULP energy per Si atom -5573.230572 kJ/mol
# Density = 0.985406 g / cm^3
# Si number density = 9.876543 Si / 1000 Ang^3
#
#
#
# Elastic Constant Matrix: (Units=GPa)
#
#
# Indices 1 2 3 4 5 6 
#
# 1 -0.2976 17.3494 32.3295 0.0005 0.9134 0.0004
# 2 17.3494 88.0493 -2.7696 -0.0001 2.8281 0.0012
# 3 32.3295 -2.7696 47.2865 0.0034 19.2555 0.0029
# 4 0.0005 -0.0001 0.0034 41.7460 0.0017 -13.6414
# 5 0.9134 2.8281 19.2555 0.0017 8.5263 0.0005
# 6 0.0004 0.0012 0.0029 -13.6414 0.0005 21.6958
#
#
#
# Elastic Compliance Matrix: (Units=1/GPa)
#
#
# Indices 1 2 3 4 5 6 
#
# 1 -0.002734 0.003780 0.030875 -0.000001 -0.070687 -0.000003
# 2 0.003780 0.010144 -0.005664 0.000000 0.009022 0.000000
# 3 0.030875 -0.005664 0.003593 -0.000001 -0.009544 -0.000001
# 4 -0.000001 0.000000 -0.000001 0.030149 -0.000006 0.018956
# 5 -0.070687 0.009022 -0.009544 -0.000006 0.143418 -0.000005
# 6 -0.000003 0.000000 -0.000001 0.018956 -0.000005 0.058011
#
#
# Mechanical properties :
#
#
# Convention : Reuss Voigt Hill
#
# Bulk Modulus (GPa) = 14.49564 25.42854 19.96209
# Shear Modulus (GPa) = 24.08540 20.26890 22.17715
#
# Velocity S-wave (km/s) = 3.49567 3.20678 3.35433
# Velocity P-wave (km/s) = 4.86285 5.15872 5.01297
#
# Compressibility (1/GPa) = 0.06898624
#
# Stress axis : x y z
#
# Youngs Moduli (GPa) = -365.80227 98.57579 278.28754
#
# Poissons Ratio (x) = -0.37264 -8.59209
# Poissons Ratio (y) = 1.38281 1.57624
# Poissons Ratio (z) = 11.29410 0.55834
#
# Static dielectric constant tensor:
#      x y z
#    x 1.689220 0.000000 0.020140 
#    y 0.000000 1.384250 0.000000 
#    z 0.020140 0.000000 1.733580 
# 
# From -- ./inp_files/182445.got.cif
#   From: 2010.05.17/outbox.ucp.g08.bks.cvg/sg15_92_cif.got.tgz:182445.got - 2010.06.11 12:40:34.
