data_PCOD9308970
_publ_section_title
;
Structure prediction by ZEFSAII (Michael W. Deem and Ramdas Pophale) SiO2 
 PCOD9308970
Probable space group: C 2/C
;
_chemical_formula_sum "Si O2"
_cell_formula_units_Z 24
_cell_length_a 12.000000
_cell_length_b 18.000000
_cell_length_c 24.000000
_cell_angle_alpha 90.000000
_cell_angle_beta 150.000000
_cell_angle_gamma 90.000000
_cell_volume 2592.000000
_symmetry_space_group_name_H-M "C 2/C"
_symmetry_group_IT_number 15
_symmetry_cell_setting 'monoclinic'
loop_
_space_group_symop_operation_xyz
x,y,z
-x,y,1/2-z
-x,-y,-z
x,-y,1/2+z
1/2+x,1/2+y,z
1/2-x,1/2+y,1/2-z
1/2-x,1/2-y,-z
1/2+x,1/2-y,1/2+z
loop_
_atom_site_type_symbol
_atom_site_label
_atom_site_fract_x
_atom_site_fract_y
_atom_site_fract_z
Si Si1 0.357848 0.097154 0.487855
Si Si2 0.867196 0.184805 0.585923
Si Si3 0.482872 0.063808 0.415147
Si Si4 0.764818 0.709826 0.676775
Si Si5 0.113850 0.255333 0.079011
Si Si6 0.866604 0.845815 0.802514
O O1 0.364025 0.080141 0.423658
O O2 0.512152 0.169798 0.562419
O O3 0.110420 0.117192 0.401935
O O4 0.457125 0.023312 0.559690
O O5 0.750000 0.250000 0.500000
O O6 0.711602 0.111859 0.514595
O O7 0.819947 0.217501 0.628259
O O8 0.107129 0.172876 0.658432
O O9 0.325182 0.094776 0.297473
O O10 0.585334 0.726208 0.549181
O O11 0.842698 0.783874 0.743358
O O12 0.000000 0.680109 0.750000
O O13 0.159425 0.195790 0.148501
#
# Coordination Sequence:
#
# PCOD9308970 Si02
#       6
#     8   8   8   8   8   8
#     4  10  20  37  60  94 130 160 216 262 308 379
#     4   9  18  38  59  94 123 158 208 259 306 377
#     4  10  20  38  61  88 135 168 195 271 326 350
#     4  11  20  37  62  91 127 157 204 262 312 356
#     4  10  21  36  63  99 118 159 221 252 306 386
#     4  12  20  37  64  91 127 169 201 261 316 368
#
# _framework density 9.2592590000000001
#
# number of rings (size 3 to 8) (size 9 to 14) (size 15 to 20)
#    0.000    1.667    6.667    1.000    0.000    0.667 
#    3.000    0.000    0.000    4.000   13.000    0.000 
#    0.000    0.000    0.000    0.000    0.000    0.000 
#
# Total GULP energy -133743.661323 kJ/mol
# GULP energy per Si atom -5572.652555 kJ/mol
# Density = 0.923818 g / cm^3
# Si number density = 9.259259 Si / 1000 Ang^3
#
#
#
# Elastic Constant Matrix: (Units=GPa)
#
#
# Indices 1 2 3 4 5 6 
#
# 1 143.2120 51.5944 64.9683 -0.0003 22.7309 -0.0001
# 2 51.5944 104.9498 46.6763 -0.0003 -1.7692 -0.0001
# 3 64.9683 46.6763 98.5765 -0.0007 -6.1711 -0.0004
# 4 -0.0003 -0.0003 -0.0007 35.3489 -0.0003 -1.6257
# 5 22.7309 -1.7692 -6.1711 -0.0003 45.5595 -0.0001
# 6 -0.0001 -0.0001 -0.0004 -1.6257 -0.0001 28.6475
#
#
#
# Elastic Compliance Matrix: (Units=1/GPa)
#
#
# Indices 1 2 3 4 5 6 
#
# 1 0.012564 -0.003056 -0.007295 0.000000 -0.007375 0.000000
# 2 -0.003056 0.012818 -0.003962 0.000000 0.001486 0.000000
# 3 -0.007295 -0.003962 0.017192 0.000000 0.005814 0.000000
# 4 0.000000 0.000000 0.000000 0.028363 0.000000 0.001610
# 5 -0.007375 0.001486 0.005814 0.000000 0.026474 0.000000
# 6 0.000000 0.000000 0.000000 0.001610 0.000000 0.034998
#
#
# Mechanical properties :
#
#
# Convention : Reuss Voigt Hill
#
# Bulk Modulus (GPa) = 71.69718 74.80181 73.24950
# Shear Modulus (GPa) = 30.17767 34.14446 32.16106
#
# Velocity S-wave (km/s) = 4.04120 4.29861 4.17189
# Velocity P-wave (km/s) = 7.78303 8.06958 7.92760
#
# Compressibility (1/GPa) = 0.01394755
#
# Stress axis : x y z
#
# Youngs Moduli (GPa) = 79.59482 78.01483 58.16624
#
# Poissons Ratio (x) = 0.23845 0.42431
# Poissons Ratio (y) = 0.24328 0.23045
# Poissons Ratio (z) = 0.58062 0.30909
#
# Static dielectric constant tensor:
#      x y z
#    x 1.683150 0.000000 0.009230 
#    y 0.000000 1.636160 0.000000 
#    z 0.009230 0.000000 1.686400 
# 
# From -- ./inp_files/270654.got.cif
#   From: 2010.05.17/outbox.ucp.g08.bks.cvg/sg15_136_cif.got.tgz:270654.got - 2010.06.11 12:40:34.
