data_PCOD9308785
_publ_section_title
;
Structure prediction by ZEFSAII (Michael W. Deem and Ramdas Pophale) SiO2 
 PCOD9308785
Probable space group: C 2/C
;
_chemical_formula_sum "Si O2"
_cell_formula_units_Z 32
_cell_length_a 24.000000
_cell_length_b 18.000000
_cell_length_c 21.000000
_cell_angle_alpha 90.000000
_cell_angle_beta 20.000000
_cell_angle_gamma 90.000000
_cell_volume 3102.806740
_symmetry_space_group_name_H-M "C 2/C"
_symmetry_group_IT_number 15
_symmetry_cell_setting 'monoclinic'
loop_
_space_group_symop_operation_xyz
x,y,z
-x,y,1/2-z
-x,-y,-z
x,-y,1/2+z
1/2+x,1/2+y,z
1/2-x,1/2+y,1/2-z
1/2-x,1/2-y,-z
1/2+x,1/2-y,1/2+z
loop_
_atom_site_type_symbol
_atom_site_label
_atom_site_fract_x
_atom_site_fract_y
_atom_site_fract_z
Si Si1 0.478792 0.083059 0.388960
Si Si2 0.154547 0.635082 0.840887
Si Si3 0.179979 0.840980 0.142709
Si Si4 0.303945 0.678325 0.027043
Si Si5 0.899913 0.425300 0.232057
Si Si6 0.959021 0.773015 0.998536
Si Si7 0.692256 0.334948 0.558353
Si Si8 0.214930 0.336689 0.898850
O O1 0.406336 0.083239 0.537851
O O2 0.318922 0.100221 0.516945
O O3 0.631144 0.140021 0.228756
O O4 0.571517 0.007219 0.273511
O O5 0.187917 0.588159 0.741032
O O6 0.317538 0.680468 0.683323
O O7 0.023252 0.700287 0.966280
O O8 0.263847 0.765321 0.078363
O O9 0.980843 0.843371 0.369428
O O10 0.180822 0.836782 0.065083
O O11 0.803737 0.376724 0.387130
O O12 0.082389 0.396483 0.021879
O O13 0.116042 0.823870 0.818546
O O14 0.882994 0.740796 0.013074
O O15 0.750000 0.250000 0.500000
O O16 0.736395 0.358874 0.582281
O O17 0.000000 0.158090 0.250000
#
# Coordination Sequence:
#
# PCOD9308785 Si02
#       8
#     8   8   8   8   8   8   8   8
#     4  12  25  42  66  90 136 176 219 260 332 405
#     4  10  22  40  64  90 129 169 216 271 328 379
#     4  10  21  40  66  97 122 164 212 281 336 384
#     4  10  21  40  67  94 127 157 219 279 332 393
#     4  11  25  43  57  91 135 175 208 266 333 393
#     4   9  19  38  64  95 120 157 222 281 315 376
#     4  12  22  37  67  94 121 165 218 270 323 386
#     4  10  19  36  60  88 122 159 206 269 326 377
#
# _framework density 10.313243
#
# number of rings (size 3 to 8) (size 9 to 14) (size 15 to 20)
#    0.000    1.500    1.250    5.625    1.750    2.000 
#   11.250    0.625    0.000    0.000    0.000    0.000 
#    0.000    0.000    0.000    0.000    0.000    0.000 
#
# Total GULP energy -178325.649505 kJ/mol
# GULP energy per Si atom -5572.676547 kJ/mol
# Density = 1.028977 g / cm^3
# Si number density = 10.313243 Si / 1000 Ang^3
#
#
#
# Elastic Constant Matrix: (Units=GPa)
#
#
# Indices 1 2 3 4 5 6 
#
# 1 54.7032 17.3517 37.5702 0.0029 -9.1488 0.0019
# 2 17.3517 72.9555 26.0511 0.0120 -2.9391 -0.0068
# 3 37.5702 26.0511 110.5793 0.0078 -24.0682 -0.0041
# 4 0.0029 0.0120 0.0078 37.4465 -0.0053 -1.8853
# 5 -9.1488 -2.9391 -24.0682 -0.0053 34.7397 0.0003
# 6 0.0019 -0.0068 -0.0041 -1.8853 0.0003 13.4950
#
#
#
# Elastic Compliance Matrix: (Units=1/GPa)
#
#
# Indices 1 2 3 4 5 6 
#
# 1 0.024511 -0.003163 -0.007343 0.000000 0.001100 -0.000007
# 2 -0.003163 0.015431 -0.002894 -0.000004 -0.001533 0.000007
# 3 -0.007343 -0.002894 0.013832 0.000000 0.007404 0.000004
# 4 0.000000 -0.000004 0.000000 0.026894 0.000004 0.003757
# 5 0.001100 -0.001533 0.007404 0.000004 0.034075 0.000001
# 6 -0.000007 0.000007 0.000004 0.003757 0.000001 0.074627
#
#
# Mechanical properties :
#
#
# Convention : Reuss Voigt Hill
#
# Bulk Modulus (GPa) = 37.07501 44.46488 40.76994
# Shear Modulus (GPa) = 22.20628 27.62056 24.91342
#
# Velocity S-wave (km/s) = 3.28470 3.66332 3.47916
# Velocity P-wave (km/s) = 5.69203 6.28468 5.99568
#
# Compressibility (1/GPa) = 0.02697235
#
# Stress axis : x y z
#
# Youngs Moduli (GPa) = 40.79777 64.80429 72.29846
#
# Poissons Ratio (x) = 0.20499 0.53090
# Poissons Ratio (y) = 0.12906 0.20925
# Poissons Ratio (z) = 0.29959 0.18756
#
# Static dielectric constant tensor:
#      x y z
#    x 1.874560 0.000050 0.001600 
#    y 0.000050 1.821820 0.000020 
#    z 0.001600 0.000020 1.748460 
# 
# From -- ./inp_files/256002.got.cif
#   From: 2010.05.17/outbox.ucp.g08.bks.cvg/sg15_129_cif.got.tgz:256002.got - 2010.06.11 12:40:34.
