data_PCOD9308873
_publ_section_title
;
Structure prediction by ZEFSAII (Michael W. Deem and Ramdas Pophale) SiO2 
 PCOD9308873
Probable space group: C 2/C
;
_chemical_formula_sum "Si O2"
_cell_formula_units_Z 30
_cell_length_a 15.000000
_cell_length_b 24.000000
_cell_length_c 27.000000
_cell_angle_alpha 90.000000
_cell_angle_beta 20.000000
_cell_angle_gamma 90.000000
_cell_volume 3324.435793
_symmetry_space_group_name_H-M "C 2/C"
_symmetry_group_IT_number 15
_symmetry_cell_setting 'monoclinic'
loop_
_space_group_symop_operation_xyz
x,y,z
-x,y,1/2-z
-x,-y,-z
x,-y,1/2+z
1/2+x,1/2+y,z
1/2-x,1/2+y,1/2-z
1/2-x,1/2-y,-z
1/2+x,1/2-y,1/2+z
loop_
_atom_site_type_symbol
_atom_site_label
_atom_site_fract_x
_atom_site_fract_y
_atom_site_fract_z
Si Si1 0.218831 0.695751 0.805745
Si Si2 0.752907 0.817514 0.752690
Si Si3 0.500000 0.199943 0.750000
Si Si4 0.294292 0.677580 0.012628
Si Si5 0.692851 0.580074 0.422325
Si Si6 0.997939 0.727913 0.024713
Si Si7 0.326002 0.864482 0.441214
Si Si8 0.249831 0.043491 0.916699
O O1 0.172984 0.754736 0.802161
O O2 0.511028 0.680288 0.635775
O O3 0.008905 0.654638 0.890427
O O4 0.164873 0.704558 0.891908
O O5 0.505229 0.831641 0.846905
O O6 0.637713 0.816571 0.868207
O O7 0.023575 0.849616 0.607657
O O8 0.569628 0.164986 0.664119
O O9 0.756963 0.236314 0.627998
O O10 0.389034 0.628473 0.998488
O O11 0.335549 0.732542 0.025026
O O12 0.494909 0.576697 0.479476
O O13 0.331835 0.520420 0.038541
O O14 0.000000 0.588026 0.250000
O O15 0.333055 0.929490 0.424504
O O16 0.500000 0.046108 0.750000
#
# Coordination Sequence:
#
# PCOD9308873 Si02
#       8
#     8   8   4   8   8   8   8   8
#     4  11  22  36  53  76 108 145 191 217 264 327
#     4  11  23  35  51  79 109 143 189 218 268 331
#     4  12  18  32  56  72 110 140 174 214 262 308
#     4  11  23  37  53  78 111 149 181 217 275 334
#     4  10  21  36  53  82 110 143 174 225 280 330
#     4  11  22  35  53  77 108 147 179 228 257 315
#     4  12  20  35  55  82 105 149 179 220 267 325
#     4  10  20  34  56  81 110 137 182 224 275 330
#
# _framework density 9.0240880000000008
#
# number of rings (size 3 to 8) (size 9 to 14) (size 15 to 20)
#    0.000    1.067    4.667    5.200    1.867    1.600 
#    0.000    0.000    0.000    0.000    0.000    5.600 
#    0.000    0.000    0.000    0.000    0.000    0.000 
#
# Total GULP energy -167520.279453 kJ/mol
# GULP energy per Si atom -5584.009315 kJ/mol
# Density = 0.900355 g / cm^3
# Si number density = 9.024088 Si / 1000 Ang^3
#
#
#
# Elastic Constant Matrix: (Units=GPa)
#
#
# Indices 1 2 3 4 5 6 
#
# 1 75.7780 20.9057 43.4430 -0.1975 10.3390 -0.0770
# 2 20.9057 52.8454 22.6859 -0.1329 7.9798 0.1241
# 3 43.4430 22.6859 97.6958 -1.3019 4.3683 0.5032
# 4 -0.1975 -0.1329 -1.3019 8.9473 0.0416 -3.6541
# 5 10.3390 7.9798 4.3683 0.0416 43.3991 -0.0021
# 6 -0.0770 0.1241 0.5032 -3.6541 -0.0021 22.6232
#
#
#
# Elastic Compliance Matrix: (Units=1/GPa)
#
#
# Indices 1 2 3 4 5 6 
#
# 1 0.018908 -0.003850 -0.007387 -0.000641 -0.003052 0.000146
# 2 -0.003850 0.022312 -0.003345 -0.000270 -0.002848 -0.000105
# 3 -0.007387 -0.003345 0.014280 0.001850 0.000936 -0.000025
# 4 -0.000641 -0.000270 0.001850 0.119910 -0.000098 0.019326
# 5 -0.003052 -0.002848 0.000936 -0.000098 0.024199 -0.000029
# 6 0.000146 -0.000105 -0.000025 0.019326 -0.000029 0.047326
#
#
# Mechanical properties :
#
#
# Convention : Reuss Voigt Hill
#
# Bulk Modulus (GPa) = 37.96924 44.48759 41.22841
# Shear Modulus (GPa) = 17.55145 24.27956 20.91550
#
# Velocity S-wave (km/s) = 3.12184 3.67176 3.40791
# Velocity P-wave (km/s) = 5.83763 6.53289 6.19502
#
# Compressibility (1/GPa) = 0.02633711
#
# Stress axis : x y z
#
# Youngs Moduli (GPa) = 52.88651 44.81947 70.02679
#
# Poissons Ratio (x) = 0.17256 0.51728
# Poissons Ratio (y) = 0.20362 0.23422
# Poissons Ratio (z) = 0.39067 0.14991
#
# Static dielectric constant tensor:
#      x y z
#    x 1.627170 0.000030 -0.009760 
#    y 0.000030 1.642440 0.000010 
#    z -0.009760 0.000010 1.640190 
# 
# From -- ./inp_files/297132.got.cif
#   From: 2010.05.17/outbox.ucp.g08.bks.cvg/sg15_149_cif.got.tgz:297132.got - 2010.06.11 12:40:34.
