data_PCOD9308936
_publ_section_title
;
Structure prediction by ZEFSAII (Michael W. Deem and Ramdas Pophale) SiO2 
 PCOD9308936
Probable space group: C 2/C
;
_chemical_formula_sum "Si O2"
_cell_formula_units_Z 30
_cell_length_a 18.000000
_cell_length_b 9.000000
_cell_length_c 18.000000
_cell_angle_alpha 90.000000
_cell_angle_beta 90.000000
_cell_angle_gamma 90.000000
_cell_volume 2916.000000
_symmetry_space_group_name_H-M "C 2/C"
_symmetry_group_IT_number 15
_symmetry_cell_setting 'monoclinic'
loop_
_space_group_symop_operation_xyz
x,y,z
-x,y,1/2-z
-x,-y,-z
x,-y,1/2+z
1/2+x,1/2+y,z
1/2-x,1/2+y,1/2-z
1/2-x,1/2-y,-z
1/2+x,1/2-y,1/2+z
loop_
_atom_site_type_symbol
_atom_site_label
_atom_site_fract_x
_atom_site_fract_y
_atom_site_fract_z
Si Si1 0.840852 0.657736 0.394623
Si Si2 0.304581 0.190810 0.641747
Si Si3 0.941800 0.883429 0.605004
Si Si4 0.345378 0.337126 0.946533
Si Si5 0.500000 0.219410 0.750000
Si Si6 0.543294 0.378987 0.064401
Si Si7 0.343507 0.872861 0.301140
Si Si8 0.322870 0.943595 0.533845
O O1 0.774236 0.775229 0.394758
O O2 0.916890 0.749840 0.390059
O O3 0.826122 0.535880 0.331431
O O4 0.840017 0.562816 0.469880
O O5 0.358110 0.328763 0.619944
O O6 0.296055 0.176811 0.730174
O O7 0.337751 0.036631 0.608990
O O8 0.983936 0.815194 0.675931
O O9 0.962116 0.827076 0.521714
O O10 0.967507 0.054710 0.598227
O O11 0.401924 0.475118 0.938809
O O12 0.339627 0.244426 0.869196
O O13 0.264409 0.402526 0.965360
O O14 0.362388 0.210406 0.009124
O O15 0.572888 0.127783 0.730530
#
# Coordination Sequence:
#
# PCOD9308936 Si02
#       8
#     8   8   8   8   4   8   8   8
#     4  11  22  39  64  93 125 160 207 269 308 365
#     4  11  21  38  63  91 126 163 205 257 320 371
#     4  10  22  37  64  90 120 165 204 250 311 377
#     4  10  20  37  61  90 126 160 205 251 306 377
#     4  10  20  46  60  82 124 166 198 250 316 376
#     4  11  20  39  63  95 118 161 212 255 304 373
#     4  10  24  39  63  88 125 167 204 250 319 371
#     4  10  20  36  60  90 121 161 202 256 308 358
#
# _framework density 10.288066000000001
#
# number of rings (size 3 to 8) (size 9 to 14) (size 15 to 20)
#    0.000    1.600    4.000    1.200    1.867    0.000 
#    0.000    8.667    0.000    0.000    0.000    0.000 
#    0.000    0.000    0.000    0.000    0.000    0.000 
#
# Total GULP energy -167305.654351 kJ/mol
# GULP energy per Si atom -5576.855145 kJ/mol
# Density = 1.026465 g / cm^3
# Si number density = 10.288066 Si / 1000 Ang^3
#
#
#
# Elastic Constant Matrix: (Units=GPa)
#
#
# Indices 1 2 3 4 5 6 
#
# 1 33.6132 23.6714 -0.2722 0.0000 3.0193 0.0000
# 2 23.6714 94.4239 36.6655 0.0000 -5.3413 0.0000
# 3 -0.2722 36.6655 74.5765 0.0000 -0.3616 0.0000
# 4 0.0000 0.0000 0.0000 28.1238 0.0000 -8.0994
# 5 3.0193 -5.3413 -0.3616 0.0000 21.8829 0.0000
# 6 0.0000 0.0000 0.0000 -8.0994 0.0000 33.9075
#
#
#
# Elastic Compliance Matrix: (Units=1/GPa)
#
#
# Indices 1 2 3 4 5 6 
#
# 1 0.039682 -0.012941 0.006466 0.000000 -0.008527 0.000000
# 2 -0.012941 0.017522 -0.008633 0.000000 0.005920 0.000000
# 3 0.006466 -0.008633 0.017664 0.000000 -0.002707 0.000000
# 4 0.000000 0.000000 0.000000 0.038184 0.000000 0.009121
# 5 -0.008527 0.005920 -0.002707 0.000000 0.048275 0.000000
# 6 0.000000 0.000000 0.000000 0.009121 0.000000 0.031671
#
#
# Mechanical properties :
#
#
# Convention : Reuss Voigt Hill
#
# Bulk Modulus (GPa) = 22.39570 35.86031 29.12801
# Shear Modulus (GPa) = 20.99978 26.28608 23.64293
#
# Velocity S-wave (km/s) = 3.19813 3.57810 3.39344
# Velocity P-wave (km/s) = 4.95433 5.87676 5.43515
#
# Compressibility (1/GPa) = 0.04465143
#
# Stress axis : x y z
#
# Youngs Moduli (GPa) = 25.20027 57.07112 56.61218
#
# Poissons Ratio (x) = 0.73857 -0.36606
# Poissons Ratio (y) = 0.32612 0.48874
# Poissons Ratio (z) = -0.16295 0.49271
#
# Static dielectric constant tensor:
#      x y z
#    x 1.769570 0.000000 0.021750 
#    y 0.000000 1.724310 0.000000 
#    z 0.021750 0.000000 1.757150 
# 
# From -- ./inp_files/209602.got.cif
#   From: 2010.05.17/outbox.ucp.g08.bks.cvg/sg15_105_cif.got.tgz:209602.got - 2010.06.11 12:40:34.
