data_PCOD9308557
_publ_section_title
;
Structure prediction by ZEFSAII (Michael W. Deem and Ramdas Pophale) SiO2 
 PCOD9308557
Probable space group: C 2/C
;
_chemical_formula_sum "Si O2"
_cell_formula_units_Z 32
_cell_length_a 6.688796
_cell_length_b 18.580330
_cell_length_c 12.037458
_cell_angle_alpha 90.000000
_cell_angle_beta 120.941491
_cell_angle_gamma 90.000000
_cell_volume 1283.121913
_symmetry_space_group_name_H-M "C 2/C"
_symmetry_group_IT_number 15
_symmetry_cell_setting 'monoclinic'
loop_
_space_group_symop_operation_xyz
x,y,z
-x,y,1/2-z
-x,-y,-z
x,-y,1/2+z
1/2+x,1/2+y,z
1/2-x,1/2+y,1/2-z
1/2-x,1/2-y,-z
1/2+x,1/2-y,1/2+z
loop_
_atom_site_type_symbol
_atom_site_label
_atom_site_fract_x
_atom_site_fract_y
_atom_site_fract_z
Si Si1 0.798922 0.833750 0.011008
Si Si2 0.441047 0.419420 0.842632
Si Si3 0.094517 0.563567 0.031644
Si Si4 0.766125 0.920144 0.351341
O O1 0.049534 0.858280 0.131390
O O2 0.750000 0.750000 0.000000
O O3 0.801069 0.865280 0.884593
O O4 0.597996 0.874415 0.020428
O O5 0.684516 0.410430 0.819002
O O6 0.382545 0.504472 0.847512
O O7 0.006899 0.500064 0.914083
O O8 0.310610 0.584209 0.000050
O O9 0.500000 0.900481 0.250000
#
# Coordination Sequence:
#
# PCOD9308557 Si02
#       4
#     8   8   8   8
#     4   9  20  39  64  86 122 163 206 251 316 366
#     4   8  20  38  60  90 122 156 203 251 299 369
#     4   9  20  39  58  90 122 163 202 251 308 368
#     4   8  20  38  60  90 122 156 203 251 299 369
#
# _framework density 24.939174000000001
#
# number of rings (size 3 to 8) (size 9 to 14) (size 15 to 20)
#    3.000    0.000    0.000    0.000    0.000   10.000 
#    9.000    7.500    0.000    0.000    0.000    0.000 
#    0.000    0.000    0.000    0.000    0.000    0.000 
#
# Total GULP energy -89123.127374 kJ/mol
# GULP energy per Si atom -5570.195461 kJ/mol
# Density = 2.488241 g / cm^3
# Si number density = 24.939174 Si / 1000 Ang^3
#
#
#
# Elastic Constant Matrix: (Units=GPa)
#
#
# Indices 1 2 3 4 5 6 
#
# 1 170.1733 85.9486 66.8850 0.0000 22.8267 0.0000
# 2 85.9486 223.4125 26.3997 0.0000 25.4272 0.0000
# 3 66.8850 26.3997 163.8528 0.0000 35.6252 0.0000
# 4 0.0000 0.0000 0.0000 5.1128 0.0000 0.0683
# 5 22.8267 25.4272 35.6252 0.0000 95.8016 0.0000
# 6 0.0000 0.0000 0.0000 0.0683 0.0000 37.6152
#
#
#
# Elastic Compliance Matrix: (Units=1/GPa)
#
#
# Indices 1 2 3 4 5 6 
#
# 1 0.008543 -0.002917 -0.002984 0.000000 -0.000152 0.000000
# 2 -0.002917 0.005652 0.000495 0.000000 -0.000989 0.000000
# 3 -0.002984 0.000495 0.007741 0.000000 -0.002299 0.000000
# 4 0.000000 0.000000 0.000000 0.195591 0.000000 -0.000355
# 5 -0.000152 -0.000989 -0.002299 0.000000 0.011592 0.000000
# 6 0.000000 0.000000 0.000000 -0.000355 0.000000 0.026586
#
#
# Mechanical properties :
#
#
# Convention : Reuss Voigt Hill
#
# Bulk Modulus (GPa) = 89.89175 101.76725 95.82950
# Shear Modulus (GPa) = 18.50314 52.91961 35.71138
#
# Velocity S-wave (km/s) = 2.72680 4.61146 3.78820
# Velocity P-wave (km/s) = 6.78502 8.32159 7.59228
#
# Compressibility (1/GPa) = 0.01112449
#
# Stress axis : x y z
#
# Youngs Moduli (GPa) = 117.05917 176.92375 129.17672
#
# Poissons Ratio (x) = 0.51601 0.38550
# Poissons Ratio (y) = 0.34141 -0.06394
# Poissons Ratio (z) = 0.34934 -0.08757
#
# Static dielectric constant tensor:
#      x y z
#    x 2.160570 0.000000 -0.012140 
#    y 0.000000 1.997540 0.000000 
#    z -0.012140 0.000000 2.354670 
# 
# From -- ./inp_files/184159.got.cif
#   From: 2010.05.17/outbox.cif.g08.bks.cpg/sg15_93_cif.got.tgz:184159.got - 2010.06.03 18:47:42.
