data_PCOD9308043
_publ_section_title
;
Structure prediction by ZEFSAII (Michael W. Deem and Ramdas Pophale) SiO2 
 PCOD9308043
Probable space group: C 2/C
;
_chemical_formula_sum "Si O2"
_cell_formula_units_Z 48
_cell_length_a 14.648426
_cell_length_b 10.649992
_cell_length_c 14.927086
_cell_angle_alpha 90.000000
_cell_angle_beta 116.326686
_cell_angle_gamma 90.000000
_cell_volume 2087.175501
_symmetry_space_group_name_H-M "C 2/C"
_symmetry_group_IT_number 15
_symmetry_cell_setting 'monoclinic'
loop_
_space_group_symop_operation_xyz
x,y,z
-x,y,1/2-z
-x,-y,-z
x,-y,1/2+z
1/2+x,1/2+y,z
1/2-x,1/2+y,1/2-z
1/2-x,1/2-y,-z
1/2+x,1/2-y,1/2+z
loop_
_atom_site_type_symbol
_atom_site_label
_atom_site_fract_x
_atom_site_fract_y
_atom_site_fract_z
Si Si1 0.000000 0.631186 0.250000
Si Si2 0.417544 0.964792 0.890996
Si Si3 0.500000 0.604760 0.250000
Si Si4 0.760602 0.350130 0.585968
Si Si5 0.584263 0.457780 0.967895
Si Si6 0.335816 0.778677 0.279828
Si Si7 0.309537 0.763031 0.934426
O O1 0.042285 0.633880 0.164873
O O2 0.121371 0.618479 0.340821
O O3 0.325900 0.902309 0.906066
O O4 0.387877 0.090781 0.827119
O O5 0.500000 0.000000 0.000000
O O6 0.449190 0.524707 0.149047
O O7 0.414679 0.690573 0.260346
O O8 0.750000 0.250000 0.500000
O O9 0.690188 0.470115 0.530598
O O10 0.709178 0.288559 0.652197
O O11 0.500000 0.500000 0.000000
O O12 0.589407 0.309406 0.993270
O O13 0.245358 0.805837 0.170959
O O14 0.250000 0.750000 0.000000
#
# Coordination Sequence:
#
# PCOD9308043 Si02
#       7
#     4   8   4   8   8   8   8
#     4  12  27  51  72 116 158 205 267 324 396 474
#     4  12  28  47  78 111 153 205 261 329 394 476
#     4  12  25  49  84 118 156 209 269 334 402 480
#     4  12  29  50  79 116 161 210 263 336 403 475
#     4  12  28  49  80 117 160 207 269 330 401 480
#     4  12  26  49  79 113 153 204 267 324 402 472
#     4  12  28  49  78 112 154 206 266 322 402 477
#
# _framework density 22.997585999999998
#
# number of rings (size 3 to 8) (size 9 to 14) (size 15 to 20)
#    0.000    0.000    5.000    3.500    9.333    2.000 
#    0.000    0.000    0.000    0.000    0.000    0.000 
#    0.000    0.000    0.000    0.000    0.000    0.000 
#
# Total GULP energy -133766.980137 kJ/mol
# GULP energy per Si atom -5573.624172 kJ/mol
# Density = 2.294524 g / cm^3
# Si number density = 22.997586 Si / 1000 Ang^3
#
#
#
# Elastic Constant Matrix: (Units=GPa)
#
#
# Indices 1 2 3 4 5 6 
#
# 1 133.3966 14.5712 32.6232 0.0000 -17.8925 0.0000
# 2 14.5712 33.9612 13.4368 0.0000 -2.9077 0.0000
# 3 32.6232 13.4368 185.5173 0.0000 -5.8152 0.0000
# 4 0.0000 0.0000 0.0000 42.0491 0.0000 -4.2576
# 5 -17.8925 -2.9077 -5.8152 0.0000 59.2145 0.0000
# 6 0.0000 0.0000 0.0000 -4.2576 0.0000 28.7798
#
#
#
# Elastic Compliance Matrix: (Units=1/GPa)
#
#
# Indices 1 2 3 4 5 6 
#
# 1 0.008416 -0.002943 -0.001195 0.000000 0.002281 0.000000
# 2 -0.002943 0.031440 -0.001744 0.000000 0.000483 0.000000
# 3 -0.001195 -0.001744 0.005731 0.000000 0.000116 0.000000
# 4 0.000000 0.000000 0.000000 0.024143 0.000000 0.003572
# 5 0.002281 0.000483 0.000116 0.000000 0.017612 0.000000
# 6 0.000000 0.000000 0.000000 0.003572 0.000000 0.035275
#
#
# Mechanical properties :
#
#
# Convention : Reuss Voigt Hill
#
# Bulk Modulus (GPa) = 29.56734 52.68194 41.12464
# Shear Modulus (GPa) = 34.32752 45.49161 39.90956
#
# Velocity S-wave (km/s) = 3.86768 4.45241 4.17031
# Velocity P-wave (km/s) = 5.72974 7.02775 6.41168
#
# Compressibility (1/GPa) = 0.03382111
#
# Stress axis : x y z
#
# Youngs Moduli (GPa) = 118.81856 31.80705 174.50426
#
# Poissons Ratio (x) = 0.09360 0.20859
# Poissons Ratio (y) = 0.34965 0.30442
# Poissons Ratio (z) = 0.14203 0.05549
#
# Static dielectric constant tensor:
#      x y z
#    x 1.852540 0.000000 0.058080 
#    y 0.000000 1.496910 0.000000 
#    z 0.058080 0.000000 1.829340 
# 
# From -- ./inp_files/152790.got.cif
#   From: 2010.05.17/outbox.cif.g08.bks.cpg/sg15_77_cif.got.tgz:152790.got - 2010.06.03 18:47:42.
