data_PCOD9308180
_publ_section_title
;
Structure prediction by ZEFSAII (Michael W. Deem and Ramdas Pophale) SiO2 
 PCOD9308180
Probable space group: C 2/C
;
_chemical_formula_sum "Si O2"
_cell_formula_units_Z 36
_cell_length_a 13.850938
_cell_length_b 13.056835
_cell_length_c 8.899585
_cell_angle_alpha 90.000000
_cell_angle_beta 80.468255
_cell_angle_gamma 90.000000
_cell_volume 1587.264177
_symmetry_space_group_name_H-M "C 2/C"
_symmetry_group_IT_number 15
_symmetry_cell_setting 'monoclinic'
loop_
_space_group_symop_operation_xyz
x,y,z
-x,y,1/2-z
-x,-y,-z
x,-y,1/2+z
1/2+x,1/2+y,z
1/2-x,1/2+y,1/2-z
1/2-x,1/2-y,-z
1/2+x,1/2-y,1/2+z
loop_
_atom_site_type_symbol
_atom_site_label
_atom_site_fract_x
_atom_site_fract_y
_atom_site_fract_z
Si Si1 0.007589 0.387977 0.931220
Si Si2 0.777870 0.629666 0.997091
Si Si3 0.319205 0.484733 0.705801
Si Si4 0.140956 0.219139 0.487934
Si Si5 0.000000 0.894534 0.250000
O O1 0.000000 0.387043 0.750000
O O2 0.924181 0.318378 0.031855
O O3 0.115000 0.358410 0.959164
O O4 0.000000 0.500000 0.000000
O O5 0.758279 0.565854 0.847126
O O6 0.750000 0.750000 0.000000
O O7 0.717474 0.552426 0.122017
O O8 0.339797 0.375285 0.625740
O O9 0.425192 0.538109 0.673774
O O10 0.250000 0.250000 0.500000
O O11 0.074735 0.173324 0.637339
#
# Coordination Sequence:
#
# PCOD9308180 Si02
#       5
#     8   8   8   8   4
#     4  12  27  48  76 110 155 204 256 323 400 478
#     4  12  28  49  78 116 157 205 270 338 401 481
#     4  12  28  49  79 114 157 210 271 335 405 488
#     4  12  26  48  78 112 156 207 259 330 404 476
#     4  12  26  50  78 110 154 204 272 324 398 480
#
# _framework density 22.680533
#
# number of rings (size 3 to 8) (size 9 to 14) (size 15 to 20)
#    0.000    0.000    3.333    6.000    6.222    1.778 
#    0.000    0.000    0.000    0.000    0.000    0.000 
#    0.000    0.000    0.000    0.000    0.000    0.000 
#
# Total GULP energy -100468.333407 kJ/mol
# GULP energy per Si atom -5581.574078 kJ/mol
# Density = 2.262891 g / cm^3
# Si number density = 22.680533 Si / 1000 Ang^3
#
#
#
# Elastic Constant Matrix: (Units=GPa)
#
#
# Indices 1 2 3 4 5 6 
#
# 1 192.8918 54.2641 17.4349 0.0000 14.6947 0.0000
# 2 54.2641 164.2233 16.9074 0.0000 24.9992 0.0000
# 3 17.4349 16.9074 32.9115 0.0000 9.5744 0.0000
# 4 0.0000 0.0000 0.0000 176.1440 0.0000 64.4382
# 5 14.6947 24.9992 9.5744 0.0000 32.6007 0.0000
# 6 0.0000 0.0000 0.0000 64.4382 0.0000 75.3395
#
#
#
# Elastic Compliance Matrix: (Units=1/GPa)
#
#
# Indices 1 2 3 4 5 6 
#
# 1 0.005885 -0.001609 -0.002054 0.000000 -0.000816 0.000000
# 2 -0.001609 0.007481 -0.001676 0.000000 -0.004520 0.000000
# 3 -0.002054 -0.001676 0.034651 0.000000 -0.007965 0.000000
# 4 0.000000 0.000000 0.000000 0.008262 0.000000 -0.007067
# 5 -0.000816 -0.004520 -0.007965 0.000000 0.036847 0.000000
# 6 0.000000 0.000000 0.000000 -0.007067 0.000000 0.019318
#
#
# Mechanical properties :
#
#
# Convention : Reuss Voigt Hill
#
# Bulk Modulus (GPa) = 26.78143 63.02662 44.90402
# Shear Modulus (GPa) = 36.88197 76.91154 56.89675
#
# Velocity S-wave (km/s) = 4.03693 5.82962 5.01404
# Velocity P-wave (km/s) = 5.79334 8.55347 7.30495
#
# Compressibility (1/GPa) = 0.03733931
#
# Stress axis : x y z
#
# Youngs Moduli (GPa) = 169.93488 133.66380 28.85939
#
# Poissons Ratio (x) = 0.21505 0.05926
# Poissons Ratio (y) = 0.27340 0.04838
# Poissons Ratio (z) = 0.34897 0.22406
#
# Static dielectric constant tensor:
#      x y z
#    x 1.622760 0.000000 0.135920 
#    y 0.000000 1.928740 0.000000 
#    z 0.135920 0.000000 2.419350 
# 
# From -- ./inp_files/37514.got.cif
#   From: 2010.05.17/outbox.cif.g08.bks.cpg/sg15_19_cif.got.tgz:37514.got - 2010.06.03 18:47:42.
