data_PCOD9308476
_publ_section_title
;
Structure prediction by ZEFSAII (Michael W. Deem and Ramdas Pophale) SiO2 
 PCOD9308476
Probable space group: C 2/C
;
_chemical_formula_sum "Si O2"
_cell_formula_units_Z 40
_cell_length_a 18.527843
_cell_length_b 7.167536
_cell_length_c 21.373054
_cell_angle_alpha 90.000000
_cell_angle_beta 151.254275
_cell_angle_gamma 90.000000
_cell_volume 1365.014277
_symmetry_space_group_name_H-M "C 2/C"
_symmetry_group_IT_number 15
_symmetry_cell_setting 'monoclinic'
loop_
_space_group_symop_operation_xyz
x,y,z
-x,y,1/2-z
-x,-y,-z
x,-y,1/2+z
1/2+x,1/2+y,z
1/2-x,1/2+y,1/2-z
1/2-x,1/2-y,-z
1/2+x,1/2-y,1/2+z
loop_
_atom_site_type_symbol
_atom_site_label
_atom_site_fract_x
_atom_site_fract_y
_atom_site_fract_z
Si Si1 0.307905 0.648797 0.397069
Si Si2 0.082826 0.195604 0.209349
Si Si3 0.697126 0.533439 0.468369
Si Si4 0.913701 0.758246 0.448683
Si Si5 0.501043 0.892506 0.679436
O O1 0.300533 0.562834 0.461093
O O2 0.350683 0.467529 0.387298
O O3 0.449384 0.784569 0.494125
O O4 0.140246 0.709967 0.251504
O O5 0.257345 0.148080 0.333796
O O6 0.063654 0.394675 0.228565
O O7 0.982364 0.052685 0.172351
O O8 0.998113 0.234193 0.079501
O O9 0.750000 0.750000 0.500000
O O10 0.825788 0.421515 0.528218
O O11 0.500000 0.823001 0.750000
#
# Coordination Sequence:
#
# PCOD9308476 Si02
#       5
#     8   8   8   8   8
#     4   8  14  24  40  60  86 116 147 182 219 274
#     4   9  16  25  39  62  89 115 145 182 224 274
#     4   8  13  22  39  64  87 104 135 189 235 260
#     4   9  16  26  40  59  86 120 151 180 219 272
#     4   8  13  23  40  63  84 104 138 186 227 263
#
# _framework density 29.303723999999999
#
# number of rings (size 3 to 8) (size 9 to 14) (size 15 to 20)
#    0.000    3.600    0.000    1.200    0.000    0.000 
#    0.000    0.000    0.000   19.200    0.000   12.600 
#    0.000    0.000    0.000    0.000    0.000    0.000 
#
# Total GULP energy -111555.494345 kJ/mol
# GULP energy per Si atom -5577.774717 kJ/mol
# Density = 2.923703 g / cm^3
# Si number density = 29.303724 Si / 1000 Ang^3
#
#
#
# Elastic Constant Matrix: (Units=GPa)
#
#
# Indices 1 2 3 4 5 6 
#
# 1 192.1790 42.3804 128.1246 0.0000 68.7073 0.0000
# 2 42.3804 105.5645 65.9833 0.0001 20.4089 0.0001
# 3 128.1246 65.9833 226.7547 0.0000 79.2060 0.0000
# 4 0.0000 0.0001 0.0000 23.9339 0.0000 21.8233
# 5 68.7073 20.4089 79.2060 0.0000 107.5305 0.0000
# 6 0.0000 0.0001 0.0000 21.8233 0.0000 43.9675
#
#
#
# Elastic Compliance Matrix: (Units=1/GPa)
#
#
# Indices 1 2 3 4 5 6 
#
# 1 0.008913 -0.000608 -0.003918 0.000000 -0.002693 0.000000
# 2 -0.000608 0.011632 -0.003239 0.000000 0.000567 0.000000
# 3 -0.003918 -0.003239 0.008721 0.000000 -0.003306 0.000000
# 4 0.000000 0.000000 0.000000 0.076325 0.000000 -0.037884
# 5 -0.002693 0.000567 -0.003306 0.000000 0.013348 0.000000
# 6 0.000000 0.000000 0.000000 -0.037884 0.000000 0.041548
#
#
# Mechanical properties :
#
#
# Convention : Reuss Voigt Hill
#
# Bulk Modulus (GPa) = 72.80825 110.83053 91.81939
# Shear Modulus (GPa) = 27.68601 54.28705 40.98653
#
# Velocity S-wave (km/s) = 3.07709 4.30881 3.74395
# Velocity P-wave (km/s) = 6.12573 7.91567 7.07752
#
# Compressibility (1/GPa) = 0.01373471
#
# Stress axis : x y z
#
# Youngs Moduli (GPa) = 112.19797 85.96885 114.66303
#
# Poissons Ratio (x) = 0.05230 0.44928
# Poissons Ratio (y) = 0.06826 0.37140
# Poissons Ratio (z) = 0.43962 0.27846
#
# Static dielectric constant tensor:
#      x y z
#    x 2.328040 0.000000 0.028660 
#    y 0.000000 2.247370 0.000000 
#    z 0.028660 0.000000 2.472100 
# 
# From -- ./inp_files/110295.got.cif
#   From: 2010.05.17/outbox.cif.g08.bks.cpg/sg15_56_cif.got.tgz:110295.got - 2010.06.03 18:47:42.
