data_PCOD9308472
_publ_section_title
;
Structure prediction by ZEFSAII (Michael W. Deem and Ramdas Pophale) SiO2 
 PCOD9308472
Probable space group: C 2/C
;
_chemical_formula_sum "Si O2"
_cell_formula_units_Z 48
_cell_length_a 8.697053
_cell_length_b 20.458902
_cell_length_c 13.628112
_cell_angle_alpha 90.000000
_cell_angle_beta 124.270261
_cell_angle_gamma 90.000000
_cell_volume 2003.897679
_symmetry_space_group_name_H-M "C 2/C"
_symmetry_group_IT_number 15
_symmetry_cell_setting 'monoclinic'
loop_
_space_group_symop_operation_xyz
x,y,z
-x,y,1/2-z
-x,-y,-z
x,-y,1/2+z
1/2+x,1/2+y,z
1/2-x,1/2+y,1/2-z
1/2-x,1/2-y,-z
1/2+x,1/2-y,1/2+z
loop_
_atom_site_type_symbol
_atom_site_label
_atom_site_fract_x
_atom_site_fract_y
_atom_site_fract_z
Si Si1 0.751678 0.493083 0.756465
Si Si2 0.016882 0.247947 0.887589
Si Si3 0.171363 0.274191 0.141501
Si Si4 0.961429 0.397354 0.096485
Si Si5 0.845321 0.007508 0.045569
Si Si6 0.442171 0.102397 0.100434
O O1 0.890284 0.554428 0.799440
O O2 0.696722 0.491913 0.851850
O O3 0.567142 0.497068 0.625362
O O4 0.877382 0.429297 0.782872
O O5 0.803386 0.248686 0.777337
O O6 0.081451 0.322031 0.883782
O O7 0.156909 0.203365 0.871977
O O8 0.049434 0.236405 0.015027
O O9 0.027917 0.324398 0.139514
O O10 0.756364 0.427532 0.032991
O O11 0.001350 0.399819 0.994192
O O12 0.733641 0.945707 0.962357
#
# Coordination Sequence:
#
# PCOD9308472 Si02
#       6
#     8   8   8   8   8   8
#     4   8  13  21  37  58  82 110 132 167 219 254
#     4   9  17  27  40  60  86 114 139 171 212 251
#     4   9  17  27  40  60  84 112 140 171 212 251
#     4   8  14  23  35  57  86 107 134 173 210 250
#     4   8  13  21  36  58  81 107 135 172 214 246
#     4   8  14  24  36  57  86 107 133 171 211 253
#
# _framework density 23.953316999999998
#
# number of rings (size 3 to 8) (size 9 to 14) (size 15 to 20)
#    0.000    3.667    0.000    2.000    0.000    9.333 
#    0.000    0.000    0.000    1.000    0.000   18.667 
#    0.000    0.000    0.000    0.000    0.000    0.000 
#
# Total GULP energy -133646.084766 kJ/mol
# GULP energy per Si atom -5568.586865 kJ/mol
# Density = 2.389880 g / cm^3
# Si number density = 23.953317 Si / 1000 Ang^3
#
#
#
# Elastic Constant Matrix: (Units=GPa)
#
#
# Indices 1 2 3 4 5 6 
#
# 1 78.6556 13.5112 22.5848 0.0000 3.5491 0.0000
# 2 13.5112 58.2417 39.4146 0.0000 17.5025 0.0000
# 3 22.5848 39.4146 246.5680 0.0000 17.7210 0.0000
# 4 0.0000 0.0000 0.0000 3.8661 0.0000 10.6740
# 5 3.5491 17.5025 17.7210 0.0000 31.9864 0.0000
# 6 0.0000 0.0000 0.0000 10.6740 0.0000 13.6492
#
#
#
# Elastic Compliance Matrix: (Units=1/GPa)
#
#
# Indices 1 2 3 4 5 6 
#
# 1 0.013392 -0.002677 -0.000830 0.000000 0.000439 0.000000
# 2 -0.002677 0.022790 -0.002628 0.000000 -0.010718 0.000000
# 3 -0.000830 -0.002628 0.004626 0.000000 -0.001033 0.000000
# 4 0.000000 0.000000 0.000000 -0.223153 0.000000 0.174512
# 5 0.000439 -0.010718 -0.001033 0.000000 0.037651 0.000000
# 6 0.000000 0.000000 0.000000 0.174512 0.000000 -0.063208
#
#
# Mechanical properties :
#
#
# Convention : Reuss Voigt Hill
#
# Bulk Modulus (GPa) = 35.04018 59.38738 47.21378
# Shear Modulus (GPa) = -26.86430 30.43066 1.78318
#
# Velocity S-wave (km/s) = -3.35255 3.56816 0.86374
# Velocity P-wave (km/s) = 0.57086 6.46703 4.55503
#
# Compressibility (1/GPa) = 0.02853867
#
# Stress axis : x y z
#
# Youngs Moduli (GPa) = 74.67103 43.87939 216.16973
#
# Poissons Ratio (x) = 0.11745 0.17949
# Poissons Ratio (y) = 0.19987 0.56800
# Poissons Ratio (z) = 0.06200 0.11530
#
# Static dielectric constant tensor:
#      x y z
#    x 1.953900 0.000000 -0.056290 
#    y 0.000000 1.976340 0.000000 
#    z -0.056290 0.000000 2.005280 
# 
# From -- ./inp_files/174323.got.cif
#   From: 2010.05.17/outbox.cif.g08.bks.cpg/sg15_88_cif.got.tgz:174323.got - 2010.06.03 18:47:42.
