data_PCOD9308511
_publ_section_title
;
Structure prediction by ZEFSAII (Michael W. Deem and Ramdas Pophale) SiO2 
 PCOD9308511
Probable space group: C 2/C
;
_chemical_formula_sum "Si O2"
_cell_formula_units_Z 52
_cell_length_a 20.714978
_cell_length_b 7.951835
_cell_length_c 28.219759
_cell_angle_alpha 90.000000
_cell_angle_beta 150.208889
_cell_angle_gamma 90.000000
_cell_volume 2309.516676
_symmetry_space_group_name_H-M "C 2/C"
_symmetry_group_IT_number 15
_symmetry_cell_setting 'monoclinic'
loop_
_space_group_symop_operation_xyz
x,y,z
-x,y,1/2-z
-x,-y,-z
x,-y,1/2+z
1/2+x,1/2+y,z
1/2-x,1/2+y,1/2-z
1/2-x,1/2-y,-z
1/2+x,1/2-y,1/2+z
loop_
_atom_site_type_symbol
_atom_site_label
_atom_site_fract_x
_atom_site_fract_y
_atom_site_fract_z
Si Si1 0.576569 0.130051 0.631841
Si Si2 0.237796 0.994017 0.334914
Si Si3 0.184057 0.500061 0.290803
Si Si4 0.000000 0.396292 0.750000
Si Si5 0.491845 0.307971 0.333555
Si Si6 0.587197 0.690114 0.540838
Si Si7 0.405058 0.810813 0.510006
O O1 0.677839 0.058589 0.657515
O O2 0.646716 0.135615 0.726809
O O3 0.505909 0.290795 0.563870
O O4 0.463317 0.990475 0.563830
O O5 0.085833 0.977390 0.227164
O O6 0.274147 0.857344 0.398991
O O7 0.298308 0.169625 0.390405
O O8 0.104898 0.492114 0.289315
O O9 0.129691 0.675693 0.234135
O O10 0.334466 0.479418 0.399152
O O11 0.052879 0.276061 0.825713
O O12 0.586403 0.305373 0.438444
O O13 0.505920 0.745412 0.534898
#
# Coordination Sequence:
#
# PCOD9308511 Si02
#       7
#     8   8   8   4   8   8   8
#     4   8  15  28  48  70  97 119 142 182 239 280
#     4   9  16  28  49  75  91 113 149 192 231 270
#     4   9  17  32  48  62  93 129 154 177 224 272
#     4   8  20  32  50  56  92 130 166 170 220 268
#     4   9  17  32  48  62  93 129 154 177 224 272
#     4   9  16  28  49  75  91 113 149 192 231 270
#     4   8  15  28  48  70  97 119 142 182 239 280
#
# _framework density 22.515533000000001
#
# number of rings (size 3 to 8) (size 9 to 14) (size 15 to 20)
#    0.923    2.462    0.000    2.769    0.000    0.000 
#    0.000    6.923    0.000    0.000    0.000    0.000 
#    0.000    0.000    0.000    0.000    0.000    0.000 
#
# Total GULP energy -144820.988598 kJ/mol
# GULP energy per Si atom -5570.038023 kJ/mol
# Density = 2.246429 g / cm^3
# Si number density = 22.515533 Si / 1000 Ang^3
#
#
#
# Elastic Constant Matrix: (Units=GPa)
#
#
# Indices 1 2 3 4 5 6 
#
# 1 68.9652 7.5889 27.0849 0.0000 -19.9305 0.0000
# 2 7.5889 51.8658 18.8771 0.0001 3.0386 -0.0003
# 3 27.0849 18.8771 78.6543 0.0002 -29.0666 0.0000
# 4 0.0000 0.0001 0.0002 30.7346 0.0001 -0.2959
# 5 -19.9305 3.0386 -29.0666 0.0001 24.6414 0.0000
# 6 0.0000 -0.0003 0.0000 -0.2959 0.0000 17.3904
#
#
#
# Elastic Compliance Matrix: (Units=1/GPa)
#
#
# Indices 1 2 3 4 5 6 
#
# 1 0.019660 -0.004036 0.000459 0.000000 0.016940 0.000000
# 2 -0.004036 0.025754 -0.012713 0.000000 -0.021436 0.000001
# 3 0.000459 -0.012713 0.028938 0.000000 0.036073 0.000000
# 4 0.000000 0.000000 0.000000 0.032542 0.000000 0.000554
# 5 0.016940 -0.021436 0.036073 0.000000 0.099479 -0.000001
# 6 0.000000 0.000001 0.000000 0.000554 -0.000001 0.057512
#
#
# Mechanical properties :
#
#
# Convention : Reuss Voigt Hill
#
# Bulk Modulus (GPa) = 23.93972 34.06524 29.00248
# Shear Modulus (GPa) = 16.10891 24.28224 20.19557
#
# Velocity S-wave (km/s) = 2.67771 3.28756 2.99818
# Velocity P-wave (km/s) = 4.49619 5.43813 4.98944
#
# Compressibility (1/GPa) = 0.04177159
#
# Stress axis : x y z
#
# Youngs Moduli (GPa) = 50.86584 38.82915 34.55703
#
# Poissons Ratio (x) = 0.15672 -0.01586
# Poissons Ratio (y) = 0.20530 0.43931
# Poissons Ratio (z) = -0.02335 0.49362
#
# Static dielectric constant tensor:
#      x y z
#    x 1.805480 0.000000 -0.025170 
#    y 0.000000 1.974870 0.000000 
#    z -0.025170 0.000000 1.872110 
# 
# From -- ./inp_files/166928.got.cif
#   From: 2010.05.17/outbox.cif.g08.bks.cpg/sg15_84_cif.got.tgz:166928.got - 2010.06.03 18:47:42.
