data_PCOD9308718
_publ_section_title
;
Structure prediction by ZEFSAII (Michael W. Deem and Ramdas Pophale) SiO2 
 PCOD9308718
Probable space group: C 2/C
;
_chemical_formula_sum "Si O2"
_cell_formula_units_Z 24
_cell_length_a 21.000000
_cell_length_b 21.000000
_cell_length_c 18.000000
_cell_angle_alpha 90.000000
_cell_angle_beta 20.000000
_cell_angle_gamma 90.000000
_cell_volume 2714.955898
_symmetry_space_group_name_H-M "C 2/C"
_symmetry_group_IT_number 15
_symmetry_cell_setting 'monoclinic'
loop_
_space_group_symop_operation_xyz
x,y,z
-x,y,1/2-z
-x,-y,-z
x,-y,1/2+z
1/2+x,1/2+y,z
1/2-x,1/2+y,1/2-z
1/2-x,1/2-y,-z
1/2+x,1/2-y,1/2+z
loop_
_atom_site_type_symbol
_atom_site_label
_atom_site_fract_x
_atom_site_fract_y
_atom_site_fract_z
Si Si1 0.499859 0.069058 0.461800
Si Si2 0.619132 0.593392 0.405439
Si Si3 0.783020 0.011033 0.830671
Si Si4 0.707560 0.401930 0.559220
Si Si5 0.419880 0.307911 0.680006
Si Si6 0.334614 0.841449 0.272659
O O1 0.708345 0.094179 0.227655
O O2 0.393814 0.052654 0.502062
O O3 0.408835 0.116884 0.622124
O O4 0.500000 0.000000 0.500000
O O5 0.448901 0.562509 0.637531
O O6 0.668471 0.542776 0.285268
O O7 0.601911 0.659521 0.377813
O O8 0.762164 0.968353 0.928384
O O9 0.500000 0.406300 0.750000
O O10 0.712643 0.344321 0.614836
O O11 0.839463 0.381450 0.344967
O O12 0.413559 0.230951 0.689898
O O13 0.620537 0.329196 0.488414
#
# Coordination Sequence:
#
# PCOD9308718 Si02
#       6
#     8   8   8   8   8   8
#     4  10  20  32  53  76  99 144 185 236 273 317
#     4   9  17  31  54  73  98 139 186 234 267 308
#     4   9  17  34  52  72 102 141 188 229 271 313
#     4   9  20  32  53  75 110 160 180 220 277 332
#     4  10  19  33  51  78 111 151 183 221 270 332
#     4  11  20  34  51  79 116 149 189 221 278 340
#
# _framework density 8.8399230000000006
#
# number of rings (size 3 to 8) (size 9 to 14) (size 15 to 20)
#    0.000    2.333    1.667    1.500    7.000    0.000 
#    0.000   12.500    0.000    0.000    0.000    0.000 
#    0.000    5.333    0.000    0.000    0.000    0.000 
#
# Total GULP energy -133609.419469 kJ/mol
# GULP energy per Si atom -5567.059145 kJ/mol
# Density = 0.881980 g / cm^3
# Si number density = 8.839923 Si / 1000 Ang^3
#
#
#
# Elastic Constant Matrix: (Units=GPa)
#
#
# Indices 1 2 3 4 5 6 
#
# 1 91.2971 63.4568 37.2911 -0.0065 -6.1367 0.0008
# 2 63.4568 109.5510 29.0527 0.0503 8.0787 -0.0124
# 3 37.2911 29.0527 48.2812 0.0059 -16.7834 -0.0013
# 4 -0.0065 0.0503 0.0059 26.8328 0.0019 3.7054
# 5 -6.1367 8.0787 -16.7834 0.0019 16.8832 -0.0083
# 6 0.0008 -0.0124 -0.0013 3.7054 -0.0083 36.1960
#
#
#
# Elastic Compliance Matrix: (Units=1/GPa)
#
#
# Indices 1 2 3 4 5 6 
#
# 1 0.022725 -0.010889 -0.009653 0.000029 0.003875 -0.000007
# 2 -0.010889 0.021305 -0.014255 -0.000038 -0.028323 0.000004
# 3 -0.009653 -0.014255 0.057907 0.000006 0.060878 0.000011
# 4 0.000029 -0.000038 0.000006 0.037802 0.000028 -0.003870
# 5 0.003875 -0.028323 0.060878 0.000028 0.134710 0.000020
# 6 -0.000007 0.000004 0.000011 -0.003870 0.000020 0.028023
#
#
# Mechanical properties :
#
#
# Convention : Reuss Voigt Hill
#
# Bulk Modulus (GPa) = 30.91826 56.52560 43.72193
# Shear Modulus (GPa) = 13.06000 23.93765 18.49882
#
# Velocity S-wave (km/s) = 2.72084 3.68360 3.23820
# Velocity P-wave (km/s) = 5.23416 7.08047 6.22614
#
# Compressibility (1/GPa) = 0.03234334
#
# Stress axis : x y z
#
# Youngs Moduli (GPa) = 44.00405 46.93766 17.26893
#
# Poissons Ratio (x) = 0.51112 0.16669
# Poissons Ratio (y) = 0.47917 0.24617
# Poissons Ratio (z) = 0.42476 0.66910
#
# Static dielectric constant tensor:
#      x y z
#    x 1.635800 -0.000020 -0.054220 
#    y -0.000020 1.615850 0.000010 
#    z -0.054220 0.000010 1.684570 
# 
# From -- ./inp_files/216531.got.cif
#   From: 2010.05.17/outbox.ucp.g08.bks.cvg/sg15_109_cif.got.tgz:216531.got - 2010.06.11 12:40:34.
