data_PCOD9308432
_publ_section_title
;
Structure prediction by ZEFSAII (Michael W. Deem and Ramdas Pophale) SiO2 
 PCOD9308432
Probable space group: C 2/C
;
_chemical_formula_sum "Si O2"
_cell_formula_units_Z 28
_cell_length_a 16.977438
_cell_length_b 8.332496
_cell_length_c 7.515272
_cell_angle_alpha 90.000000
_cell_angle_beta 67.759867
_cell_angle_gamma 90.000000
_cell_volume 984.051868
_symmetry_space_group_name_H-M "C 2/C"
_symmetry_group_IT_number 15
_symmetry_cell_setting 'monoclinic'
loop_
_space_group_symop_operation_xyz
x,y,z
-x,y,1/2-z
-x,-y,-z
x,-y,1/2+z
1/2+x,1/2+y,z
1/2-x,1/2+y,1/2-z
1/2-x,1/2-y,-z
1/2+x,1/2-y,1/2+z
loop_
_atom_site_type_symbol
_atom_site_label
_atom_site_fract_x
_atom_site_fract_y
_atom_site_fract_z
Si Si1 0.834096 0.611814 0.034743
Si Si2 0.500000 0.500000 0.500000
Si Si3 0.904095 0.702388 0.597717
Si Si4 0.167841 0.888005 0.172376
O O1 0.904486 0.478614 0.024679
O O2 0.822426 0.751305 0.188111
O O3 0.747700 0.506098 0.095991
O O4 0.859329 0.684746 0.825075
O O5 0.490904 0.302785 0.522445
O O6 0.580549 0.482231 0.290339
O O7 0.849237 0.805143 0.501578
#
# Coordination Sequence:
#
# PCOD9308432 Si02
#       4
#     8   4   8   8
#     4  12  29  55  92 124 171 227 302 353 433 525
#     4  12  32  56  86 124 180 228 290 354 448 508
#     4  12  29  56  85 128 173 229 288 363 429 525
#     4  12  30  56  85 129 170 229 289 368 433 518
#
# _framework density 28.453783999999999
#
# number of rings (size 3 to 8) (size 9 to 14) (size 15 to 20)
#    0.000    0.000    2.857    3.429   12.000    5.714 
#    5.143    0.000    0.000    0.000    0.000    0.000 
#    0.000    0.000    0.000    0.000    0.000    0.000 
#
# Total GULP energy -78345.652457 kJ/mol
# GULP energy per Si atom -5596.118033 kJ/mol
# Density = 2.838902 g / cm^3
# Si number density = 28.453784 Si / 1000 Ang^3
#
#
#
# Elastic Constant Matrix: (Units=GPa)
#
#
# Indices 1 2 3 4 5 6 
#
# 1 136.0508 78.2741 78.5775 0.0000 -17.2114 0.0000
# 2 78.2741 231.4207 103.7404 0.0000 -11.3508 0.0000
# 3 78.5775 103.7404 250.1459 0.0000 4.3319 0.0000
# 4 0.0000 0.0000 0.0000 87.4809 0.0000 -15.3513
# 5 -17.2114 -11.3508 4.3319 0.0000 61.3073 0.0000
# 6 0.0000 0.0000 0.0000 -15.3513 0.0000 78.4612
#
#
#
# Elastic Compliance Matrix: (Units=1/GPa)
#
#
# Indices 1 2 3 4 5 6 
#
# 1 0.010377 -0.002332 -0.002339 0.000000 0.002647 0.000000
# 2 -0.002332 0.005913 -0.001729 0.000000 0.000562 0.000000
# 3 -0.002339 -0.001729 0.005473 0.000000 -0.001363 0.000000
# 4 0.000000 0.000000 0.000000 0.011837 0.000000 0.002316
# 5 0.002647 0.000562 -0.001363 0.000000 0.017255 0.000000
# 6 0.000000 0.000000 0.000000 0.002316 0.000000 0.013198
#
#
# Mechanical properties :
#
#
# Convention : Reuss Voigt Hill
#
# Bulk Modulus (GPa) = 111.56283 126.53350 119.04817
# Shear Modulus (GPa) = 62.62463 69.25155 65.93809
#
# Velocity S-wave (km/s) = 4.69649 4.93873 4.81913
# Velocity P-wave (km/s) = 8.28872 8.77997 8.53788
#
# Compressibility (1/GPa) = 0.00896356
#
# Stress axis : x y z
#
# Youngs Moduli (GPa) = 96.36461 169.12977 182.71248
#
# Poissons Ratio (x) = 0.39437 0.42729
# Poissons Ratio (y) = 0.22470 0.31597
# Poissons Ratio (z) = 0.22536 0.29248
#
# Static dielectric constant tensor:
#      x y z
#    x 2.555660 0.000000 0.117870 
#    y 0.000000 2.094630 0.000000 
#    z 0.117870 0.000000 2.260470 
# 
# From -- ./inp_files/53275.got.cif
#   From: 2010.05.17/outbox.cif.g08.bks.cpg/sg15_27_cif.got.tgz:53275.got - 2010.06.03 18:47:42.
